data_PCOD9366872
_publ_section_title
;
Structure prediction by ZEFSAII (Michael W. Deem and Ramdas Pophale) SiO2 
 PCOD9366872
Probable space group: A B A 2
;
_chemical_formula_sum "Si O2"
_cell_formula_units_Z 48
_cell_length_a 11.219336
_cell_length_b 16.646914
_cell_length_c 12.201049
_cell_angle_alpha 90.000000
_cell_angle_beta 90.000000
_cell_angle_gamma 90.000000
_cell_volume 2278.757242
_symmetry_space_group_name_H-M "A B A 2"
_symmetry_group_IT_number 41
_symmetry_cell_setting 'orthorhombic'
loop_
_space_group_symop_operation_xyz
x,y,z
-x,-y,z
1/2-x,y,1/2+z
1/2+x,-y,1/2+z
x,1/2+y,1/2+z
-x,1/2-y,1/2+z
1/2-x,1/2+y,z
1/2+x,1/2-y,z
loop_
_atom_site_type_symbol
_atom_site_label
_atom_site_fract_x
_atom_site_fract_y
_atom_site_fract_z
Si Si1 0.769159 0.578258 0.673630
Si Si2 0.533345 0.178772 0.200377
Si Si3 0.172867 0.543883 0.829559
Si Si4 0.470892 0.135694 0.641159
Si Si5 0.934358 0.912683 0.899350
Si Si6 0.390705 0.054919 0.076523
O O1 0.661061 0.640501 0.668310
O O2 0.803076 0.548637 0.796107
O O3 0.722704 0.496625 0.615245
O O4 0.891274 0.610784 0.625709
O O5 0.536430 0.272963 0.180730
O O6 0.508354 0.148797 0.323941
O O7 0.425775 0.140037 0.127938
O O8 0.092285 0.582878 0.735073
O O9 0.305491 0.579138 0.842614
O O10 0.111727 0.556509 0.946120
O O11 0.416036 0.120001 0.521680
O O12 0.000000 0.000000 0.901114
O O13 0.500000 0.000000 0.117691
#
# Coordination Sequence:
#
# PCOD9366872 Si02
#       6
#     8   8   8   8   8   8
#     4  11  23  46  73 101 140 188 245 286 359 444
#     4  11  26  47  69 105 146 189 227 301 378 420
#     4  12  23  43  73 102 139 185 242 292 345 437
#     4  12  29  43  72 115 142 181 247 308 357 417
#     4  12  24  49  77  99 147 201 241 285 364 446
#     4  10  21  42  69  98 136 188 236 284 351 435
#
# _framework density 21.064115000000001
#
# number of rings (size 3 to 8) (size 9 to 14) (size 15 to 20)
#    0.000    0.667    3.333    5.000    4.667    0.000 
#    0.000    0.000    0.000    0.000    0.000    0.000 
#    0.000    0.000    0.000    0.000    0.000    0.000 
#
# Total GULP energy -134119.417878 kJ/mol
# GULP energy per Si atom -5588.309078 kJ/mol
# Density = 2.101617 g / cm^3
# Si number density = 21.064115 Si / 1000 Ang^3
#
#
#
# Elastic Constant Matrix: (Units=GPa)
#
#
# Indices 1 2 3 4 5 6 
#
# 1 111.0810 46.0608 11.5819 0.0000 0.0000 0.0000
# 2 46.0608 114.2127 29.4817 0.0000 0.0000 0.0000
# 3 11.5819 29.4817 112.3337 0.0000 0.0000 0.0000
# 4 0.0000 0.0000 0.0000 22.3674 0.0000 0.0000
# 5 0.0000 0.0000 0.0000 0.0000 26.1645 0.0000
# 6 0.0000 0.0000 0.0000 0.0000 0.0000 27.1674
#
#
#
# Elastic Compliance Matrix: (Units=1/GPa)
#
#
# Indices 1 2 3 4 5 6 
#
# 1 0.010810 -0.004368 0.000032 0.000000 0.000000 0.000000
# 2 -0.004368 0.011157 -0.002478 0.000000 0.000000 0.000000
# 3 0.000032 -0.002478 0.009549 0.000000 0.000000 0.000000
# 4 0.000000 0.000000 0.000000 0.044708 0.000000 0.000000
# 5 0.000000 0.000000 0.000000 0.000000 0.038220 0.000000
# 6 0.000000 0.000000 0.000000 0.000000 0.000000 0.036809
#
#
# Mechanical properties :
#
#
# Convention : Reuss Voigt Hill
#
# Bulk Modulus (GPa) = 55.90214 56.87510 56.38862
# Shear Modulus (GPa) = 29.26663 31.84005 30.55334
#
# Velocity S-wave (km/s) = 3.73152 3.89212 3.81266
# Velocity P-wave (km/s) = 6.72029 6.87442 6.79779
#
# Compressibility (1/GPa) = 0.01788840
#
# Stress axis : x y z
#
# Youngs Moduli (GPa) = 92.50429 89.63237 104.72259
#
# Poissons Ratio (x) = 0.39150 -0.00333
# Poissons Ratio (y) = 0.40405 0.25947
# Poissons Ratio (z) = -0.00294 0.22208
#
# Static dielectric constant tensor:
#      x y z
#    x 1.816510 0.000000 0.000000 
#    y 0.000000 1.729360 0.000000 
#    z 0.000000 0.000000 1.778650 
# 
# From -- ./inp_files/4972.got.cif
#   From: 2010.05.17/outbox.cif.g08.bks.cpg/sg41_3_cif.got.tgz:4972.got - 2010.06.03 18:54:24.
