data_PCOD9366813
_publ_section_title
;
Structure prediction by ZEFSAII (Michael W. Deem and Ramdas Pophale) SiO2 
 PCOD9366813
Probable space group: A B A 2
;
_chemical_formula_sum "Si O2"
_cell_formula_units_Z 52
_cell_length_a 7.692432
_cell_length_b 16.095489
_cell_length_c 19.529906
_cell_angle_alpha 90.000000
_cell_angle_beta 90.000000
_cell_angle_gamma 90.000000
_cell_volume 2418.065131
_symmetry_space_group_name_H-M "A B A 2"
_symmetry_group_IT_number 41
_symmetry_cell_setting 'orthorhombic'
loop_
_space_group_symop_operation_xyz
x,y,z
-x,-y,z
1/2-x,y,1/2+z
1/2+x,-y,1/2+z
x,1/2+y,1/2+z
-x,1/2-y,1/2+z
1/2-x,1/2+y,z
1/2+x,1/2-y,z
loop_
_atom_site_type_symbol
_atom_site_label
_atom_site_fract_x
_atom_site_fract_y
_atom_site_fract_z
Si Si1 0.575052 0.326331 0.005250
Si Si2 0.664464 0.443749 0.891268
Si Si3 0.692547 0.357744 0.154019
Si Si4 0.709728 0.677292 0.190191
Si Si5 0.208957 0.995474 0.250033
Si Si6 0.823945 0.149240 0.542837
Si Si7 0.000000 0.500000 0.972452
O O1 0.694836 0.353773 0.070817
O O2 0.587708 0.227989 0.007836
O O3 0.378319 0.354291 0.021031
O O4 0.630422 0.358072 0.930829
O O5 0.500000 0.500000 0.910826
O O6 0.694127 0.455963 0.810836
O O7 0.840884 0.475157 0.924837
O O8 0.488947 0.344574 0.171964
O O9 0.780582 0.278512 0.193341
O O10 0.743901 0.448240 0.182563
O O11 0.757191 0.602870 0.243484
O O12 0.827751 0.660898 0.123933
O O13 0.000000 0.000000 0.262006
O O14 0.927335 0.070905 0.519889
#
# Coordination Sequence:
#
# PCOD9366813 Si02
#       7
#     8   8   8   8   8   8   4
#     4  10  21  41  67  98 136 169 223 274 334 402
#     4  12  25  43  64  94 135 175 223 271 328 400
#     4   9  20  39  68  91 129 176 214 278 338 386
#     4   9  20  40  65  97 132 166 222 274 331 404
#     4  10  22  43  63  92 135 180 221 275 334 399
#     4  10  21  41  67 103 130 173 217 279 337 392
#     4  12  24  42  66  96 134 168 222 278 326 396
#
# _framework density 21.504798000000001
#
# number of rings (size 3 to 8) (size 9 to 14) (size 15 to 20)
#    0.000    1.846    2.308    0.923    2.154    3.077 
#    4.154    1.538    0.000    0.000    0.000    0.000 
#    0.000    0.000    0.000    0.000    0.000    0.000 
#
# Total GULP energy -145034.421905 kJ/mol
# GULP energy per Si atom -5578.246996 kJ/mol
# Density = 2.145585 g / cm^3
# Si number density = 21.504798 Si / 1000 Ang^3
#
#
#
# Elastic Constant Matrix: (Units=GPa)
#
#
# Indices 1 2 3 4 5 6 
#
# 1 72.0029 31.4099 10.7600 0.0000 0.0000 0.0000
# 2 31.4099 97.9108 36.6396 0.0000 0.0000 0.0000
# 3 10.7600 36.6396 53.0833 0.0000 0.0000 0.0000
# 4 0.0000 0.0000 0.0000 36.9167 0.0000 0.0000
# 5 0.0000 0.0000 0.0000 0.0000 40.8824 0.0000
# 6 0.0000 0.0000 0.0000 0.0000 0.0000 7.5780
#
#
#
# Elastic Compliance Matrix: (Units=1/GPa)
#
#
# Indices 1 2 3 4 5 6 
#
# 1 0.016155 -0.005335 0.000408 0.000000 0.000000 0.000000
# 2 -0.005335 0.015532 -0.009639 0.000000 0.000000 0.000000
# 3 0.000408 -0.009639 0.025409 0.000000 0.000000 0.000000
# 4 0.000000 0.000000 0.000000 0.027088 0.000000 0.000000
# 5 0.000000 0.000000 0.000000 0.000000 0.024460 0.000000
# 6 0.000000 0.000000 0.000000 0.000000 0.000000 0.131960
#
#
# Mechanical properties :
#
#
# Convention : Reuss Voigt Hill
#
# Bulk Modulus (GPa) = 35.76184 42.29064 39.02624
# Shear Modulus (GPa) = 17.91744 26.68795 22.30269
#
# Velocity S-wave (km/s) = 2.88962 3.52664 3.22390
# Velocity P-wave (km/s) = 5.27248 6.02422 5.66084
#
# Compressibility (1/GPa) = 0.02796277
#
# Stress axis : x y z
#
# Youngs Moduli (GPa) = 61.90146 64.38325 39.35633
#
# Poissons Ratio (x) = 0.34349 -0.01605
# Poissons Ratio (y) = 0.33025 0.37936
# Poissons Ratio (z) = -0.02525 0.62060
#
# Static dielectric constant tensor:
#      x y z
#    x 1.780600 0.000000 0.000000 
#    y 0.000000 1.767050 0.000000 
#    z 0.000000 0.000000 1.798620 
# 
# From -- ./inp_files/11161.got.cif
#   From: 2010.05.17/outbox.cif.g08.bks.cpg/sg41_6_cif.got.tgz:11161.got - 2010.06.03 18:54:24.
