data_PCOD9366918
_publ_section_title
;
Structure prediction by ZEFSAII (Michael W. Deem and Ramdas Pophale) SiO2 
 PCOD9366918
Probable space group: A B A 2
;
_chemical_formula_sum "Si O2"
_cell_formula_units_Z 36
_cell_length_a 5.446980
_cell_length_b 12.978295
_cell_length_c 21.145407
_cell_angle_alpha 90.000000
_cell_angle_beta 90.000000
_cell_angle_gamma 90.000000
_cell_volume 1494.821966
_symmetry_space_group_name_H-M "A B A 2"
_symmetry_group_IT_number 41
_symmetry_cell_setting 'orthorhombic'
loop_
_space_group_symop_operation_xyz
x,y,z
-x,-y,z
1/2-x,y,1/2+z
1/2+x,-y,1/2+z
x,1/2+y,1/2+z
-x,1/2-y,1/2+z
1/2-x,1/2+y,z
1/2+x,1/2-y,z
loop_
_atom_site_type_symbol
_atom_site_label
_atom_site_fract_x
_atom_site_fract_y
_atom_site_fract_z
Si Si1 0.250747 0.939487 0.612200
Si Si2 0.500000 0.000000 0.405485
Si Si3 0.383170 0.197539 0.336429
Si Si4 0.349558 0.278266 0.193752
Si Si5 0.696972 0.684285 0.987649
O O1 0.253303 0.893875 0.683656
O O2 0.269458 0.849759 0.560419
O O3 0.500000 0.000000 0.602963
O O4 0.000000 0.000000 0.601684
O O5 0.359545 0.080529 0.359567
O O6 0.666664 0.075009 0.449402
O O7 0.646680 0.239536 0.359053
O O8 0.388067 0.224673 0.261636
O O9 0.621111 0.282868 0.164672
O O10 0.440462 0.746104 0.977235
#
# Coordination Sequence:
#
# PCOD9366918 Si02
#       5
#     8   4   8   8   8
#     4  12  24  44  73 112 146 194 249 301 384 461
#     4  12  26  48  78 106 150 204 258 308 380 464
#     4  10  24  47  70 105 144 193 251 308 373 439
#     4  10  21  44  68  99 146 185 234 306 369 430
#     4  12  27  46  75 110 153 194 251 316 376 450
#
# _framework density 24.083137000000001
#
# number of rings (size 3 to 8) (size 9 to 14) (size 15 to 20)
#    0.000    0.889    1.111    5.333    0.000    2.667 
#   24.000    0.000    0.000    0.000    0.000    0.000 
#    0.000    0.000    0.000    0.000    0.000    0.000 
#
# Total GULP energy -100347.199053 kJ/mol
# GULP energy per Si atom -5574.844392 kJ/mol
# Density = 2.402832 g / cm^3
# Si number density = 24.083137 Si / 1000 Ang^3
#
#
#
# Elastic Constant Matrix: (Units=GPa)
#
#
# Indices 1 2 3 4 5 6 
#
# 1 216.8975 64.3149 36.8595 0.0000 0.0000 0.0000
# 2 64.3149 128.5908 65.5455 0.0000 0.0000 0.0000
# 3 36.8595 65.5455 119.3744 0.0000 0.0000 0.0000
# 4 0.0000 0.0000 0.0000 60.8907 0.0000 0.0000
# 5 0.0000 0.0000 0.0000 0.0000 29.6753 0.0000
# 6 0.0000 0.0000 0.0000 0.0000 0.0000 46.4908
#
#
#
# Elastic Compliance Matrix: (Units=1/GPa)
#
#
# Indices 1 2 3 4 5 6 
#
# 1 0.005419 -0.002579 -0.000257 0.000000 0.000000 0.000000
# 2 -0.002579 0.012027 -0.005807 0.000000 0.000000 0.000000
# 3 -0.000257 -0.005807 0.011645 0.000000 0.000000 0.000000
# 4 0.000000 0.000000 0.000000 0.016423 0.000000 0.000000
# 5 0.000000 0.000000 0.000000 0.000000 0.033698 0.000000
# 6 0.000000 0.000000 0.000000 0.000000 0.000000 0.021510
#
#
# Mechanical properties :
#
#
# Convention : Reuss Voigt Hill
#
# Bulk Modulus (GPa) = 84.71929 88.70027 86.70978
# Shear Modulus (GPa) = 41.00293 47.28755 44.14524
#
# Velocity S-wave (km/s) = 4.13068 4.43596 4.28604
# Velocity P-wave (km/s) = 7.61605 7.94656 7.78306
#
# Compressibility (1/GPa) = 0.01180369
#
# Stress axis : x y z
#
# Youngs Moduli (GPa) = 184.53695 83.14849 85.87448
#
# Poissons Ratio (x) = 0.21447 0.02207
# Poissons Ratio (y) = 0.47598 0.49868
# Poissons Ratio (z) = 0.04742 0.48285
#
# Static dielectric constant tensor:
#      x y z
#    x 1.951210 0.000000 0.000000 
#    y 0.000000 2.049850 0.000000 
#    z 0.000000 0.000000 2.167370 
# 
# From -- ./inp_files/11801.got.cif
#   From: 2010.05.17/outbox.cif.g08.bks.cpg/sg41_6_cif.got.tgz:11801.got - 2010.06.03 18:54:24.
