data_PCOD9366838
_publ_section_title
;
Structure prediction by ZEFSAII (Michael W. Deem and Ramdas Pophale) SiO2 
 PCOD9366838
Probable space group: A B A 2
;
_chemical_formula_sum "Si O2"
_cell_formula_units_Z 40
_cell_length_a 15.818448
_cell_length_b 7.868743
_cell_length_c 17.478876
_cell_angle_alpha 90.000000
_cell_angle_beta 90.000000
_cell_angle_gamma 90.000000
_cell_volume 2175.618453
_symmetry_space_group_name_H-M "A B A 2"
_symmetry_group_IT_number 41
_symmetry_cell_setting 'orthorhombic'
loop_
_space_group_symop_operation_xyz
x,y,z
-x,-y,z
1/2-x,y,1/2+z
1/2+x,-y,1/2+z
x,1/2+y,1/2+z
-x,1/2-y,1/2+z
1/2-x,1/2+y,z
1/2+x,1/2-y,z
loop_
_atom_site_type_symbol
_atom_site_label
_atom_site_fract_x
_atom_site_fract_y
_atom_site_fract_z
Si Si1 0.000000 0.000000 0.726240
Si Si2 0.843403 0.120047 0.308783
Si Si3 0.436131 0.840548 0.479653
Si Si4 0.844819 0.507784 0.341154
Si Si5 0.000000 0.000000 0.404563
Si Si6 0.935633 0.658711 0.653250
O O1 0.019425 0.164998 0.676003
O O2 0.919913 0.044182 0.780436
O O3 0.848227 0.304588 0.348476
O O4 0.749407 0.050506 0.315353
O O5 0.917446 0.015857 0.350711
O O6 0.866822 0.134391 0.219499
O O7 0.365610 0.888223 0.417554
O O8 0.483963 0.668357 0.454842
O O9 0.403733 0.828247 0.566408
O O10 0.500000 0.000000 0.476068
O O11 0.000000 0.500000 0.657201
#
# Coordination Sequence:
#
# PCOD9366838 Si02
#       6
#     4   8   8   8   4   8
#     4  10  21  42  61  88 124 166 208 250 301 372
#     4  11  23  39  64  92 122 169 208 256 303 370
#     4  11  21  40  61  92 123 157 202 257 306 362
#     4  11  22  39  64  92 126 161 215 255 299 371
#     4  12  21  40  67  88 124 170 208 246 313 366
#     4  10  22  38  63  89 121 159 199 254 312 354
#
# _framework density 18.385577999999999
#
# number of rings (size 3 to 8) (size 9 to 14) (size 15 to 20)
#    0.000    1.200    4.000    3.000    2.800    0.000 
#    0.000   10.000    0.000    0.000    0.000    0.000 
#    0.000    0.000    0.000    0.000    0.000    0.000 
#
# Total GULP energy -111656.978944 kJ/mol
# GULP energy per Si atom -5582.848947 kJ/mol
# Density = 1.834373 g / cm^3
# Si number density = 18.385578 Si / 1000 Ang^3
#
#
#
# Elastic Constant Matrix: (Units=GPa)
#
#
# Indices 1 2 3 4 5 6 
#
# 1 111.4842 36.8870 57.6452 0.0000 0.0000 0.0000
# 2 36.8870 109.3959 63.4674 0.0000 0.0000 0.0000
# 3 57.6452 63.4674 134.4107 0.0000 0.0000 0.0000
# 4 0.0000 0.0000 0.0000 168.4633 0.0000 0.0000
# 5 0.0000 0.0000 0.0000 0.0000 4.8587 0.0000
# 6 0.0000 0.0000 0.0000 0.0000 0.0000 24.9842
#
#
#
# Elastic Compliance Matrix: (Units=1/GPa)
#
#
# Indices 1 2 3 4 5 6 
#
# 1 0.011684 -0.001422 -0.004340 0.000000 0.000000 0.000000
# 2 -0.001422 0.012763 -0.005417 0.000000 0.000000 0.000000
# 3 -0.004340 -0.005417 0.011859 0.000000 0.000000 0.000000
# 4 0.000000 0.000000 0.000000 0.005936 0.000000 0.000000
# 5 0.000000 0.000000 0.000000 0.000000 0.205814 0.000000
# 6 0.000000 0.000000 0.000000 0.000000 0.000000 0.040025
#
#
# Mechanical properties :
#
#
# Convention : Reuss Voigt Hill
#
# Bulk Modulus (GPa) = 71.68795 74.58778 73.13787
# Shear Modulus (GPa) = 15.86855 52.81399 34.34127
#
# Velocity S-wave (km/s) = 2.94104 5.36546 4.32654
# Velocity P-wave (km/s) = 7.11400 8.89049 8.05139
#
# Compressibility (1/GPa) = 0.01394934
#
# Stress axis : x y z
#
# Youngs Moduli (GPa) = 85.58494 78.35007 84.32601
#
# Poissons Ratio (x) = 0.11143 0.36594
# Poissons Ratio (y) = 0.12172 0.45677
# Poissons Ratio (z) = 0.37140 0.42440
#
# Static dielectric constant tensor:
#      x y z
#    x 1.890020 0.000000 0.000000 
#    y 0.000000 1.644670 0.000000 
#    z 0.000000 0.000000 1.630030 
# 
# From -- ./inp_files/8237.got.cif
#   From: 2010.05.17/outbox.cif.g08.bks.cpg/sg41_5_cif.got.tgz:8237.got - 2010.06.03 18:54:24.
