data_PCOD9366537
_publ_section_title
;
Structure prediction by ZEFSAII (Michael W. Deem and Ramdas Pophale) SiO2 
 PCOD9366537
Probable space group: A B A 2
;
_chemical_formula_sum "Si O2"
_cell_formula_units_Z 60
_cell_length_a 37.165162
_cell_length_b 5.179810
_cell_length_c 14.313232
_cell_angle_alpha 90.000000
_cell_angle_beta 90.000000
_cell_angle_gamma 90.000000
_cell_volume 2755.418504
_symmetry_space_group_name_H-M "A B A 2"
_symmetry_group_IT_number 41
_symmetry_cell_setting 'orthorhombic'
loop_
_space_group_symop_operation_xyz
x,y,z
-x,-y,z
1/2-x,y,1/2+z
1/2+x,-y,1/2+z
x,1/2+y,1/2+z
-x,1/2-y,1/2+z
1/2-x,1/2+y,z
1/2+x,1/2-y,z
loop_
_atom_site_type_symbol
_atom_site_label
_atom_site_fract_x
_atom_site_fract_y
_atom_site_fract_z
Si Si1 0.271565 0.677566 0.572500
Si Si2 0.082438 0.652719 0.335237
Si Si3 0.843312 0.454371 0.376832
Si Si4 0.513422 0.256017 0.751399
Si Si5 0.731326 0.776682 0.296314
Si Si6 0.849597 0.950756 0.493774
Si Si7 0.427175 0.148998 0.964775
Si Si8 0.500000 0.000000 0.072258
O O1 0.244942 0.449259 0.538248
O O2 0.269291 0.704040 0.684381
O O3 0.313090 0.611680 0.550179
O O4 0.123403 0.602304 0.308649
O O5 0.055546 0.692582 0.248991
O O6 0.072784 0.420219 0.407988
O O7 0.078526 0.920409 0.390160
O O8 0.805801 0.381922 0.333740
O O9 0.845346 0.750889 0.407237
O O10 0.849003 0.250952 0.462595
O O11 0.500000 0.500000 0.809929
O O12 0.493861 0.277086 0.651115
O O13 0.500000 0.000000 0.798341
O O14 0.738561 0.484030 0.326275
O O15 0.890271 0.875676 0.526877
O O16 0.464602 0.082830 0.016357
#
# Coordination Sequence:
#
# PCOD9366537 Si02
#       8
#     8   8   8   8   8   8   8   4
#     4  10  21  36  57  81 114 151 186 223 280 342
#     4  10  22  40  60  83 113 153 193 230 288 345
#     4  10  21  37  58  83 112 146 188 236 276 328
#     4  10  23  39  57  87 115 146 189 242 275 351
#     4  10  21  36  55  83 113 147 187 228 276 333
#     4  10  21  38  56  85 115 143 192 231 282 330
#     4  10  23  38  61  85 114 153 189 241 282 345
#     4  10  26  36  62  86 122 144 198 234 296 340
#
# _framework density 21.775275000000001
#
# number of rings (size 3 to 8) (size 9 to 14) (size 15 to 20)
#    0.400    1.600    0.000    2.400    4.667    4.267 
#    0.000    0.000    5.867    0.000    0.000    0.000 
#    0.000    0.000    0.000    0.000    0.000    0.000 
#
# Total GULP energy -167101.456679 kJ/mol
# GULP energy per Si atom -5570.048556 kJ/mol
# Density = 2.172571 g / cm^3
# Si number density = 21.775275 Si / 1000 Ang^3
#
#
#
# Elastic Constant Matrix: (Units=GPa)
#
#
# Indices 1 2 3 4 5 6 
#
# 1 131.1135 -0.4094 8.1325 0.0000 0.0000 0.0000
# 2 -0.4094 107.7961 -8.5752 0.0000 0.0000 0.0000
# 3 8.1325 -8.5752 25.7267 0.0000 0.0000 0.0000
# 4 0.0000 0.0000 0.0000 -5.4091 0.0000 0.0000
# 5 0.0000 0.0000 0.0000 0.0000 20.4928 0.0000
# 6 0.0000 0.0000 0.0000 0.0000 0.0000 27.3036
#
#
#
# Elastic Compliance Matrix: (Units=1/GPa)
#
#
# Indices 1 2 3 4 5 6 
#
# 1 0.007783 -0.000171 -0.002517 0.000000 0.000000 0.000000
# 2 -0.000171 0.009533 0.003232 0.000000 0.000000 0.000000
# 3 -0.002517 0.003232 0.040743 0.000000 0.000000 0.000000
# 4 0.000000 0.000000 0.000000 -0.184872 0.000000 0.000000
# 5 0.000000 0.000000 0.000000 0.000000 0.048798 0.000000
# 6 0.000000 0.000000 0.000000 0.000000 0.000000 0.036625
#
#
# Mechanical properties :
#
#
# Convention : Reuss Voigt Hill
#
# Bulk Modulus (GPa) = 16.90721 29.21468 23.06094
# Shear Modulus (GPa) = -219.65730 26.17667 -96.74032
#
# Velocity S-wave (km/s) = -10.05453 3.47093 -6.67257
# Velocity P-wave (km/s) = 11.26988 5.43219 6.98217
#
# Compressibility (1/GPa) = 0.05914637
#
# Stress axis : x y z
#
# Youngs Moduli (GPa) = 128.49220 104.89667 24.54410
#
# Poissons Ratio (x) = 0.01790 0.06178
# Poissons Ratio (y) = 0.02193 -0.07932
# Poissons Ratio (z) = 0.32342 -0.33898
#
# Static dielectric constant tensor:
#      x y z
#    x 1.892190 0.000000 0.000000 
#    y 0.000000 1.857770 0.000000 
#    z 0.000000 0.000000 1.795800 
# 
# From -- ./inp_files/10829.got.cif
#   From: 2010.05.17/outbox.cif.g08.bks.cpg/sg41_6_cif.got.tgz:10829.got - 2010.06.03 18:54:24.
