data_PCOD9366742
_publ_section_title
;
Structure prediction by ZEFSAII (Michael W. Deem and Ramdas Pophale) SiO2 
 PCOD9366742
Probable space group: A B A 2
;
_chemical_formula_sum "Si O2"
_cell_formula_units_Z 64
_cell_length_a 11.468542
_cell_length_b 29.607738
_cell_length_c 8.210369
_cell_angle_alpha 90.000000
_cell_angle_beta 90.000000
_cell_angle_gamma 90.000000
_cell_volume 2787.893084
_symmetry_space_group_name_H-M "A B A 2"
_symmetry_group_IT_number 41
_symmetry_cell_setting 'orthorhombic'
loop_
_space_group_symop_operation_xyz
x,y,z
-x,-y,z
1/2-x,y,1/2+z
1/2+x,-y,1/2+z
x,1/2+y,1/2+z
-x,1/2-y,1/2+z
1/2-x,1/2+y,z
1/2+x,1/2-y,z
loop_
_atom_site_type_symbol
_atom_site_label
_atom_site_fract_x
_atom_site_fract_y
_atom_site_fract_z
Si Si1 0.486098 0.449974 0.907220
Si Si2 0.424557 0.861355 0.777367
Si Si3 0.723364 0.907766 0.298537
Si Si4 0.815695 0.624267 0.418734
Si Si5 0.697183 0.843817 0.042733
Si Si6 0.019891 0.307905 0.240024
Si Si7 0.950849 0.453623 0.790383
Si Si8 0.918754 0.287777 0.600460
O O1 0.500000 0.500000 0.835689
O O2 0.591476 0.418273 0.846417
O O3 0.360792 0.426606 0.877211
O O4 0.513266 0.454005 0.099810
O O5 0.317103 0.859944 0.901775
O O6 0.362565 0.870430 0.602407
O O7 0.497126 0.904891 0.839141
O O8 0.506890 0.819216 0.727425
O O9 0.724365 0.894552 0.108867
O O10 0.769874 0.858846 0.360769
O O11 0.813013 0.948670 0.316236
O O12 0.885285 0.655810 0.293755
O O13 0.573550 0.828857 0.113611
O O14 0.786899 0.804661 0.087643
O O15 0.965919 0.294147 0.416217
O O16 0.071466 0.263225 0.158957
O O17 0.000000 0.500000 0.863998
#
# Coordination Sequence:
#
# PCOD9366742 Si02
#       8
#     8   8   8   8   8   8   8   8
#     4  10  21  40  65  92 130 172 209 266 326 378
#     4  10  22  42  61  86 128 168 201 257 316 379
#     4  12  21  42  70  95 125 175 220 270 324 387
#     4  10  22  42  60  88 128 165 206 252 320 374
#     4  12  23  44  69  93 130 169 222 271 321 389
#     4  11  26  43  66  95 128 168 213 268 324 385
#     4  10  22  40  65  95 130 168 213 266 326 379
#     4  11  25  43  64  96 127 167 216 264 327 381
#
# _framework density 22.956402000000001
#
# number of rings (size 3 to 8) (size 9 to 14) (size 15 to 20)
#    0.000    1.250    5.000    0.750    5.250    2.000 
#    0.000    0.625    0.000    0.000    0.000    0.000 
#    0.000    0.000    0.000    0.000    0.000    0.000 
#
# Total GULP energy -178499.703101 kJ/mol
# GULP energy per Si atom -5578.115722 kJ/mol
# Density = 2.290415 g / cm^3
# Si number density = 22.956402 Si / 1000 Ang^3
#
#
#
# Elastic Constant Matrix: (Units=GPa)
#
#
# Indices 1 2 3 4 5 6 
#
# 1 66.9851 5.7202 -2.2919 0.0000 0.0000 0.0000
# 2 5.7202 98.2487 12.2747 0.0000 0.0000 0.0000
# 3 -2.2919 12.2747 38.2401 0.0000 0.0000 0.0000
# 4 0.0000 0.0000 0.0000 10.5911 0.0000 0.0000
# 5 0.0000 0.0000 0.0000 0.0000 29.7917 0.0000
# 6 0.0000 0.0000 0.0000 0.0000 0.0000 21.4865
#
#
#
# Elastic Compliance Matrix: (Units=1/GPa)
#
#
# Indices 1 2 3 4 5 6 
#
# 1 0.015059 -0.001031 0.001233 0.000000 0.000000 0.000000
# 2 -0.001031 0.010674 -0.003488 0.000000 0.000000 0.000000
# 3 0.001233 -0.003488 0.027344 0.000000 0.000000 0.000000
# 4 0.000000 0.000000 0.000000 0.094419 0.000000 0.000000
# 5 0.000000 0.000000 0.000000 0.000000 0.033566 0.000000
# 6 0.000000 0.000000 0.000000 0.000000 0.000000 0.046541
#
#
# Mechanical properties :
#
#
# Convention : Reuss Voigt Hill
#
# Bulk Modulus (GPa) = 21.50250 26.09774 23.80012
# Shear Modulus (GPa) = 20.02595 24.89193 22.45894
#
# Velocity S-wave (km/s) = 2.95676 3.29646 3.13122
# Velocity P-wave (km/s) = 4.58732 5.08743 4.84384
#
# Compressibility (1/GPa) = 0.04650621
#
# Stress axis : x y z
#
# Youngs Moduli (GPa) = 66.40577 93.68514 36.57094
#
# Poissons Ratio (x) = 0.09658 -0.04511
# Poissons Ratio (y) = 0.06845 0.12756
# Poissons Ratio (z) = -0.08191 0.32678
#
# Static dielectric constant tensor:
#      x y z
#    x 1.899890 0.000000 0.000000 
#    y 0.000000 1.834200 0.000000 
#    z 0.000000 0.000000 1.955290 
# 
# From -- ./inp_files/2210.got.cif
#   From: 2010.05.17/outbox.cif.g08.bks.cpg/sg41_2_cif.got.tgz:2210.got - 2010.06.03 18:54:24.
