data_PCOD9366286
_publ_section_title
;
Structure prediction by ZEFSAII (Michael W. Deem and Ramdas Pophale) SiO2 
 PCOD9366286
Probable space group: A B A 2
;
_chemical_formula_sum "Si O2"
_cell_formula_units_Z 36
_cell_length_a 15.749129
_cell_length_b 5.454540
_cell_length_c 17.701333
_cell_angle_alpha 90.000000
_cell_angle_beta 90.000000
_cell_angle_gamma 90.000000
_cell_volume 1520.619808
_symmetry_space_group_name_H-M "A B A 2"
_symmetry_group_IT_number 41
_symmetry_cell_setting 'orthorhombic'
loop_
_space_group_symop_operation_xyz
x,y,z
-x,-y,z
1/2-x,y,1/2+z
1/2+x,-y,1/2+z
x,1/2+y,1/2+z
-x,1/2-y,1/2+z
1/2-x,1/2+y,z
1/2+x,1/2-y,z
loop_
_atom_site_type_symbol
_atom_site_label
_atom_site_fract_x
_atom_site_fract_y
_atom_site_fract_z
Si Si1 0.500000 0.000000 0.685900
Si Si2 0.527914 0.756399 0.545620
Si Si3 0.290523 0.713079 0.423136
Si Si4 0.451345 0.242582 0.825732
Si Si5 0.225720 0.228593 0.091332
O O1 0.475252 0.793664 0.624662
O O2 0.566709 0.867941 0.741211
O O3 0.500000 0.500000 0.513780
O O4 0.627634 0.766756 0.564635
O O5 0.500000 0.000000 0.500823
O O6 0.273560 0.431756 0.400785
O O7 0.374970 0.789542 0.381471
O O8 0.284165 0.720908 0.514525
O O9 0.500000 0.500000 0.815501
O O10 0.500000 0.000000 0.855610
O O11 0.251396 0.477224 0.132427
#
# Coordination Sequence:
#
# PCOD9366286 Si02
#       5
#     4   8   8   8   8
#     4   8  22  36  66  84 114 152 210 248 282 336
#     4  10  20  38  63  87 115 155 203 244 290 349
#     4  10  21  39  58  85 126 154 190 246 301 358
#     4  10  20  38  63  87 115 155 203 244 290 349
#     4  10  21  39  58  85 126 154 190 246 301 358
#
# _framework density 23.674558000000001
#
# number of rings (size 3 to 8) (size 9 to 14) (size 15 to 20)
#    1.333    0.889    0.000    3.333    0.000    0.000 
#    0.000   28.889    0.000    0.000    0.000    0.000 
#    0.000    0.000    0.000    0.000    0.000    0.000 
#
# Total GULP energy -100203.534815 kJ/mol
# GULP energy per Si atom -5566.863045 kJ/mol
# Density = 2.362067 g / cm^3
# Si number density = 23.674558 Si / 1000 Ang^3
#
#
#
# Elastic Constant Matrix: (Units=GPa)
#
#
# Indices 1 2 3 4 5 6 
#
# 1 46.6890 29.5293 11.1919 0.0000 0.0000 0.0000
# 2 29.5293 206.3261 -0.7147 0.0000 0.0000 0.0000
# 3 11.1919 -0.7147 89.0925 0.0000 0.0000 0.0000
# 4 0.0000 0.0000 0.0000 86.5153 0.0000 0.0000
# 5 0.0000 0.0000 0.0000 0.0000 16.1921 0.0000
# 6 0.0000 0.0000 0.0000 0.0000 0.0000 43.4934
#
#
#
# Elastic Compliance Matrix: (Units=1/GPa)
#
#
# Indices 1 2 3 4 5 6 
#
# 1 0.024372 -0.003499 -0.003090 0.000000 0.000000 0.000000
# 2 -0.003499 0.005349 0.000482 0.000000 0.000000 0.000000
# 3 -0.003090 0.000482 0.011616 0.000000 0.000000 0.000000
# 4 0.000000 0.000000 0.000000 0.011559 0.000000 0.000000
# 5 0.000000 0.000000 0.000000 0.000000 0.061758 0.000000
# 6 0.000000 0.000000 0.000000 0.000000 0.000000 0.022992
#
#
# Mechanical properties :
#
#
# Convention : Reuss Voigt Hill
#
# Bulk Modulus (GPa) = 34.33456 46.90228 40.61842
# Shear Modulus (GPa) = 31.33486 49.38024 40.35755
#
# Velocity S-wave (km/s) = 3.64203 4.57200 4.13326
# Velocity P-wave (km/s) = 5.67627 6.90834 6.32239
#
# Compressibility (1/GPa) = 0.02912517
#
# Stress axis : x y z
#
# Youngs Moduli (GPa) = 41.03095 186.94693 86.08598
#
# Poissons Ratio (x) = 0.65409 0.26598
# Poissons Ratio (y) = 0.14356 -0.04153
# Poissons Ratio (z) = 0.12677 -0.09019
#
# Static dielectric constant tensor:
#      x y z
#    x 1.933050 0.000000 0.000000 
#    y 0.000000 2.058840 0.000000 
#    z 0.000000 0.000000 1.900270 
# 
# From -- ./inp_files/11467.got.cif
#   From: 2010.05.17/outbox.cif.g08.bks.cpg/sg41_6_cif.got.tgz:11467.got - 2010.06.03 18:54:24.
