data_PCOD9366844
_publ_section_title
;
Structure prediction by ZEFSAII (Michael W. Deem and Ramdas Pophale) SiO2 
 PCOD9366844
Probable space group: A B A 2
;
_chemical_formula_sum "Si O2"
_cell_formula_units_Z 44
_cell_length_a 9.641853
_cell_length_b 13.051945
_cell_length_c 16.209972
_cell_angle_alpha 90.000000
_cell_angle_beta 90.000000
_cell_angle_gamma 90.000000
_cell_volume 2039.942874
_symmetry_space_group_name_H-M "A B A 2"
_symmetry_group_IT_number 41
_symmetry_cell_setting 'orthorhombic'
loop_
_space_group_symop_operation_xyz
x,y,z
-x,-y,z
1/2-x,y,1/2+z
1/2+x,-y,1/2+z
x,1/2+y,1/2+z
-x,1/2-y,1/2+z
1/2-x,1/2+y,z
1/2+x,1/2-y,z
loop_
_atom_site_type_symbol
_atom_site_label
_atom_site_fract_x
_atom_site_fract_y
_atom_site_fract_z
Si Si1 0.785250 0.496957 0.030480
Si Si2 0.597807 0.190214 0.933145
Si Si3 0.000000 0.500000 0.432890
Si Si4 0.810553 0.151742 0.666661
Si Si5 0.420508 0.712927 0.577162
Si Si6 0.119642 0.799653 0.849092
O O1 0.786706 0.541803 0.123888
O O2 0.853754 0.387289 0.037282
O O3 0.870066 0.578819 0.973624
O O4 0.634556 0.488796 0.990514
O O5 0.750704 0.225883 0.908541
O O6 0.491037 0.206740 0.857330
O O7 0.520213 0.255440 0.004686
O O8 0.964199 0.598226 0.376064
O O9 0.698614 0.218702 0.616214
O O10 0.805539 0.172331 0.763276
O O11 0.968261 0.182169 0.645717
#
# Coordination Sequence:
#
# PCOD9366844 Si02
#       6
#     8   8   4   8   8   8
#     4  10  24  41  67  96 130 182 233 272 335 430
#     4  10  21  42  63  97 128 174 227 269 337 414
#     4  10  24  40  68  96 130 180 228 284 344 412
#     4  11  24  42  66  98 136 172 225 284 350 401
#     4  11  23  42  68  92 131 179 222 278 332 420
#     4  11  24  41  67  99 135 172 225 292 349 396
#
# _framework density 21.569230000000001
#
# number of rings (size 3 to 8) (size 9 to 14) (size 15 to 20)
#    0.000    1.455    0.000    6.545   12.727    0.000 
#    0.000    0.000    0.000    0.000    0.000    0.000 
#    0.000    0.000    0.000    0.000    0.000    0.000 
#
# Total GULP energy -122744.310365 kJ/mol
# GULP energy per Si atom -5579.286835 kJ/mol
# Density = 2.152014 g / cm^3
# Si number density = 21.569230 Si / 1000 Ang^3
#
#
#
# Elastic Constant Matrix: (Units=GPa)
#
#
# Indices 1 2 3 4 5 6 
#
# 1 152.5273 46.2141 43.5529 0.0000 0.0000 0.0000
# 2 46.2141 78.8520 46.8669 0.0000 0.0000 0.0000
# 3 43.5529 46.8669 107.3867 0.0000 0.0000 0.0000
# 4 0.0000 0.0000 0.0000 3.1584 0.0000 0.0000
# 5 0.0000 0.0000 0.0000 0.0000 33.5821 0.0000
# 6 0.0000 0.0000 0.0000 0.0000 0.0000 34.3470
#
#
#
# Elastic Compliance Matrix: (Units=1/GPa)
#
#
# Indices 1 2 3 4 5 6 
#
# 1 0.008184 -0.003813 -0.001655 0.000000 0.000000 0.000000
# 2 -0.003813 0.018900 -0.006702 0.000000 0.000000 0.000000
# 3 -0.001655 -0.006702 0.012909 0.000000 0.000000 0.000000
# 4 0.000000 0.000000 0.000000 0.316620 0.000000 0.000000
# 5 0.000000 0.000000 0.000000 0.000000 0.029778 0.000000
# 6 0.000000 0.000000 0.000000 0.000000 0.000000 0.029115
#
#
# Mechanical properties :
#
#
# Convention : Reuss Voigt Hill
#
# Bulk Modulus (GPa) = 63.88852 68.00377 65.94615
# Shear Modulus (GPa) = 11.23436 27.69295 19.46366
#
# Velocity S-wave (km/s) = 2.28469 3.58706 3.00722
# Velocity P-wave (km/s) = 6.05345 6.98230 6.53440
#
# Compressibility (1/GPa) = 0.01565226
#
# Stress axis : x y z
#
# Youngs Moduli (GPa) = 122.18878 52.90945 77.46818
#
# Poissons Ratio (x) = 0.20173 0.12822
# Poissons Ratio (y) = 0.46588 0.51921
# Poissons Ratio (z) = 0.20225 0.35461
#
# Static dielectric constant tensor:
#      x y z
#    x 1.810170 0.000000 0.000000 
#    y 0.000000 1.810340 0.000000 
#    z 0.000000 0.000000 1.878600 
# 
# From -- ./inp_files/7274.got.cif
#   From: 2010.05.17/outbox.cif.g08.bks.cpg/sg41_4_cif.got.tgz:7274.got - 2010.06.03 18:54:24.
