data_PCOD9366790
_publ_section_title
;
Structure prediction by ZEFSAII (Michael W. Deem and Ramdas Pophale) SiO2 
 PCOD9366790
Probable space group: A B A 2
;
_chemical_formula_sum "Si O2"
_cell_formula_units_Z 64
_cell_length_a 17.951048
_cell_length_b 14.200873
_cell_length_c 12.705542
_cell_angle_alpha 90.000000
_cell_angle_beta 90.000000
_cell_angle_gamma 90.000000
_cell_volume 3238.903791
_symmetry_space_group_name_H-M "A B A 2"
_symmetry_group_IT_number 41
_symmetry_cell_setting 'orthorhombic'
loop_
_space_group_symop_operation_xyz
x,y,z
-x,-y,z
1/2-x,y,1/2+z
1/2+x,-y,1/2+z
x,1/2+y,1/2+z
-x,1/2-y,1/2+z
1/2-x,1/2+y,z
1/2+x,1/2-y,z
loop_
_atom_site_type_symbol
_atom_site_label
_atom_site_fract_x
_atom_site_fract_y
_atom_site_fract_z
Si Si1 0.293341 0.470168 0.212490
Si Si2 0.641845 0.329382 0.157435
Si Si3 0.567132 0.333199 0.591303
Si Si4 0.128072 0.966228 0.642029
Si Si5 0.049084 0.735100 0.457405
Si Si6 0.677077 0.634010 0.424300
Si Si7 0.214304 0.784655 0.073331
Si Si8 0.040945 0.808196 0.769303
O O1 0.338310 0.562934 0.179776
O O2 0.205799 0.492280 0.197668
O O3 0.311241 0.438369 0.330763
O O4 0.306089 0.378624 0.138666
O O5 0.717356 0.270508 0.130919
O O6 0.598095 0.278305 0.252867
O O7 0.588734 0.317530 0.054719
O O8 0.582743 0.441253 0.614535
O O9 0.505079 0.315594 0.503415
O O10 0.643677 0.282000 0.564188
O O11 0.529916 0.288630 0.694761
O O12 0.148934 0.914352 0.532665
O O13 0.082913 0.896545 0.717619
O O14 0.116209 0.786850 0.396866
O O15 0.994476 0.676059 0.383075
O O16 0.753533 0.683806 0.460195
#
# Coordination Sequence:
#
# PCOD9366790 Si02
#       8
#     8   8   8   8   8   8   8   8
#     4  11  22  41  66  95 130 169 216 276 334 376
#     4  10  21  44  63  93 135 167 223 276 322 405
#     4  11  22  40  67  91 130 175 217 267 333 393
#     4  11  22  42  64  98 133 168 222 276 319 401
#     4  10  23  42  67  93 132 181 220 271 341 392
#     4  10  22  42  62  96 132 171 228 276 318 400
#     4  10  21  41  63  95 131 166 219 277 319 396
#     4  11  22  42  63  97 133 170 219 277 334 395
#
# _framework density 19.759771000000001
#
# number of rings (size 3 to 8) (size 9 to 14) (size 15 to 20)
#    0.000    1.500    6.250    1.125    3.500    0.000 
#    4.500    6.250    0.000    0.000    0.000    0.000 
#    0.000    0.000    0.000    0.000    0.000    0.000 
#
# Total GULP energy -178631.176673 kJ/mol
# GULP energy per Si atom -5582.224271 kJ/mol
# Density = 1.971480 g / cm^3
# Si number density = 19.759771 Si / 1000 Ang^3
#
#
#
# Elastic Constant Matrix: (Units=GPa)
#
#
# Indices 1 2 3 4 5 6 
#
# 1 121.2893 55.9399 47.2241 0.0000 0.0000 0.0000
# 2 55.9399 121.6212 54.3767 0.0000 0.0000 0.0000
# 3 47.2241 54.3767 53.0086 0.0000 0.0000 0.0000
# 4 0.0000 0.0000 0.0000 13.9535 0.0000 0.0000
# 5 0.0000 0.0000 0.0000 0.0000 26.5446 0.0000
# 6 0.0000 0.0000 0.0000 0.0000 0.0000 9.3642
#
#
#
# Elastic Compliance Matrix: (Units=1/GPa)
#
#
# Indices 1 2 3 4 5 6 
#
# 1 0.012761 -0.001453 -0.009878 0.000000 0.000000 0.000000
# 2 -0.001453 0.015354 -0.014455 0.000000 0.000000 0.000000
# 3 -0.009878 -0.014455 0.042493 0.000000 0.000000 0.000000
# 4 0.000000 0.000000 0.000000 0.071667 0.000000 0.000000
# 5 0.000000 0.000000 0.000000 0.000000 0.037672 0.000000
# 6 0.000000 0.000000 0.000000 0.000000 0.000000 0.106790
#
#
# Mechanical properties :
#
#
# Convention : Reuss Voigt Hill
#
# Bulk Modulus (GPa) = 52.53420 67.88896 60.21158
# Shear Modulus (GPa) = 14.50732 19.19769 16.85250
#
# Velocity S-wave (km/s) = 2.71252 3.12036 2.92356
# Velocity P-wave (km/s) = 6.03776 6.88578 6.47566
#
# Compressibility (1/GPa) = 0.01903522
#
# Stress axis : x y z
#
# Youngs Moduli (GPa) = 78.36484 65.13164 23.53320
#
# Poissons Ratio (x) = 0.09464 0.23246
# Poissons Ratio (y) = 0.11386 0.34018
# Poissons Ratio (z) = 0.77407 0.94150
#
# Static dielectric constant tensor:
#      x y z
#    x 1.708730 0.000000 0.000000 
#    y 0.000000 1.682620 0.000000 
#    z 0.000000 0.000000 1.733000 
# 
# From -- ./inp_files/6055.got.cif
#   From: 2010.05.17/outbox.cif.g08.bks.cpg/sg41_4_cif.got.tgz:6055.got - 2010.06.03 18:54:24.
