data_PCOD9366631
_publ_section_title
;
Structure prediction by ZEFSAII (Michael W. Deem and Ramdas Pophale) SiO2 
 PCOD9366631
Probable space group: A B A 2
;
_chemical_formula_sum "Si O2"
_cell_formula_units_Z 60
_cell_length_a 11.518266
_cell_length_b 19.972024
_cell_length_c 12.859371
_cell_angle_alpha 90.000000
_cell_angle_beta 90.000000
_cell_angle_gamma 90.000000
_cell_volume 2958.209376
_symmetry_space_group_name_H-M "A B A 2"
_symmetry_group_IT_number 41
_symmetry_cell_setting 'orthorhombic'
loop_
_space_group_symop_operation_xyz
x,y,z
-x,-y,z
1/2-x,y,1/2+z
1/2+x,-y,1/2+z
x,1/2+y,1/2+z
-x,1/2-y,1/2+z
1/2-x,1/2+y,z
1/2+x,1/2-y,z
loop_
_atom_site_type_symbol
_atom_site_label
_atom_site_fract_x
_atom_site_fract_y
_atom_site_fract_z
Si Si1 0.545267 0.926636 0.212630
Si Si2 0.057803 0.570927 0.436250
Si Si3 0.077523 0.203226 0.461468
Si Si4 0.444562 0.134324 0.752577
Si Si5 0.746970 0.394570 0.081299
Si Si6 0.116646 0.344960 0.573588
Si Si7 0.500000 0.000000 0.886501
Si Si8 0.380716 0.888727 0.033050
O O1 0.568395 0.894379 0.324253
O O2 0.663450 0.935005 0.150136
O O3 0.448853 0.892333 0.142272
O O4 0.500000 0.000000 0.229164
O O5 0.179357 0.564844 0.494053
O O6 0.000000 0.500000 0.426300
O O7 0.971364 0.609753 0.509653
O O8 0.089557 0.190118 0.338185
O O9 0.172398 0.157132 0.519621
O O10 0.098559 0.273512 0.517429
O O11 0.947862 0.173613 0.479743
O O12 0.346668 0.133858 0.662832
O O13 0.566017 0.150652 0.692001
O O14 0.451062 0.060835 0.811874
O O15 0.246611 0.372832 0.554913
O O16 0.584806 0.044578 0.963644
#
# Coordination Sequence:
#
# PCOD9366631 Si02
#       8
#     8   8   8   8   8   8   4   8
#     4  10  21  38  63  96 128 172 218 275 347 405
#     4  10  24  40  63  99 133 171 227 289 345 403
#     4  10  24  46  65  97 141 181 231 282 350 410
#     4  10  24  44  71 102 137 187 227 293 349 414
#     4  10  22  41  67  92 132 181 223 282 341 411
#     4  11  26  42  69 104 136 185 236 286 337 425
#     4  10  22  46  66 106 138 178 232 278 368 398
#     4  10  23  42  71  97 140 177 225 296 333 422
#
# _framework density 20.282540000000001
#
# number of rings (size 3 to 8) (size 9 to 14) (size 15 to 20)
#    0.000    1.867    0.667    0.800    9.333    6.400 
#    4.800    0.000    0.000    0.000    0.000    0.000 
#    0.000    0.000    0.000    0.000    0.000    0.000 
#
# Total GULP energy -167049.479097 kJ/mol
# GULP energy per Si atom -5568.315970 kJ/mol
# Density = 2.023638 g / cm^3
# Si number density = 20.282540 Si / 1000 Ang^3
#
#
#
# Elastic Constant Matrix: (Units=GPa)
#
#
# Indices 1 2 3 4 5 6 
#
# 1 148.5068 38.4564 60.8693 0.0000 0.0000 0.0000
# 2 38.4564 55.8405 25.5351 0.0000 0.0000 0.0000
# 3 60.8693 25.5351 149.2360 0.0000 0.0000 0.0000
# 4 0.0000 0.0000 0.0000 19.3226 0.0000 0.0000
# 5 0.0000 0.0000 0.0000 0.0000 33.0001 0.0000
# 6 0.0000 0.0000 0.0000 0.0000 0.0000 46.4110
#
#
#
# Elastic Compliance Matrix: (Units=1/GPa)
#
#
# Indices 1 2 3 4 5 6 
#
# 1 0.009225 -0.005026 -0.002903 0.000000 0.000000 0.000000
# 2 -0.005026 0.022166 -0.001743 0.000000 0.000000 0.000000
# 3 -0.002903 -0.001743 0.008183 0.000000 0.000000 0.000000
# 4 0.000000 0.000000 0.000000 0.051753 0.000000 0.000000
# 5 0.000000 0.000000 0.000000 0.000000 0.030303 0.000000
# 6 0.000000 0.000000 0.000000 0.000000 0.000000 0.021547
#
#
# Mechanical properties :
#
#
# Convention : Reuss Voigt Hill
#
# Bulk Modulus (GPa) = 49.42776 67.03389 58.23083
# Shear Modulus (GPa) = 29.53991 34.99492 32.26741
#
# Velocity S-wave (km/s) = 3.82045 4.15827 3.99293
# Velocity P-wave (km/s) = 6.62447 7.49511 7.07320
#
# Compressibility (1/GPa) = 0.02023154
#
# Stress axis : x y z
#
# Youngs Moduli (GPa) = 108.40309 45.11367 122.20558
#
# Poissons Ratio (x) = 0.22673 0.35472
# Poissons Ratio (y) = 0.54480 0.21300
# Poissons Ratio (z) = 0.31466 0.07863
#
# Static dielectric constant tensor:
#      x y z
#    x 1.703230 0.000000 0.000000 
#    y 0.000000 1.729080 0.000000 
#    z 0.000000 0.000000 1.884150 
# 
# From -- ./inp_files/5127.got.cif
#   From: 2010.05.17/outbox.cif.g08.bks.cpg/sg41_3_cif.got.tgz:5127.got - 2010.06.03 18:54:24.
