data_PCOD9366469
_publ_section_title
;
Structure prediction by ZEFSAII (Michael W. Deem and Ramdas Pophale) SiO2 
 PCOD9366469
Probable space group: A B A 2
;
_chemical_formula_sum "Si O2"
_cell_formula_units_Z 64
_cell_length_a 22.447214
_cell_length_b 10.958531
_cell_length_c 11.129635
_cell_angle_alpha 90.000000
_cell_angle_beta 90.000000
_cell_angle_gamma 90.000000
_cell_volume 2737.762113
_symmetry_space_group_name_H-M "A B A 2"
_symmetry_group_IT_number 41
_symmetry_cell_setting 'orthorhombic'
loop_
_space_group_symop_operation_xyz
x,y,z
-x,-y,z
1/2-x,y,1/2+z
1/2+x,-y,1/2+z
x,1/2+y,1/2+z
-x,1/2-y,1/2+z
1/2-x,1/2+y,z
1/2+x,1/2-y,z
loop_
_atom_site_type_symbol
_atom_site_label
_atom_site_fract_x
_atom_site_fract_y
_atom_site_fract_z
Si Si1 0.633447 0.100394 0.108970
Si Si2 0.588073 0.912299 0.557209
Si Si3 0.137301 0.664415 0.028786
Si Si4 0.042637 0.330410 0.628722
Si Si5 0.236126 0.875626 0.053324
Si Si6 0.770213 0.630134 0.806218
Si Si7 0.839655 0.294637 0.763726
Si Si8 0.401657 0.789065 0.879465
O O1 0.695068 0.165732 0.065233
O O2 0.624765 0.165840 0.236274
O O3 0.646390 0.958297 0.103827
O O4 0.588245 0.133790 0.002366
O O5 0.525830 0.854774 0.602760
O O6 0.638688 0.873215 0.651079
O O7 0.598800 0.850265 0.427859
O O8 0.578347 0.055714 0.569657
O O9 0.073312 0.715359 0.066714
O O10 0.188293 0.766569 0.052118
O O11 0.140397 0.641033 0.886375
O O12 0.053947 0.317384 0.771112
O O13 0.229439 0.942162 0.180894
O O14 0.239675 0.935487 0.921313
O O15 0.728012 0.748992 0.785487
O O16 0.837307 0.671278 0.829055
#
# Coordination Sequence:
#
# PCOD9366469 Si02
#       8
#     8   8   8   8   8   8   8   8
#     4   9  20  39  61  87 129 164 214 267 331 396
#     4  10  24  44  65  94 132 176 224 283 328 409
#     4  11  21  38  60  93 129 164 221 269 321 405
#     4  11  24  41  65  94 129 178 226 268 345 390
#     4   9  18  36  53  90 126 164 206 262 329 398
#     4   9  17  36  62  90 128 160 210 268 331 397
#     4   9  20  40  62  92 126 166 213 266 330 393
#     4  10  20  42  67  92 128 167 221 275 335 403
#
# _framework density 23.376757000000001
#
# number of rings (size 3 to 8) (size 9 to 14) (size 15 to 20)
#    0.000    2.250    1.250    1.500    1.750    1.000 
#   11.250   13.125    0.000    0.000    0.000    0.000 
#    0.000    0.000    0.000    0.000    0.000    0.000 
#
# Total GULP energy -178327.756703 kJ/mol
# GULP energy per Si atom -5572.742397 kJ/mol
# Density = 2.332355 g / cm^3
# Si number density = 23.376757 Si / 1000 Ang^3
#
#
#
# Elastic Constant Matrix: (Units=GPa)
#
#
# Indices 1 2 3 4 5 6 
#
# 1 56.0407 29.8227 9.1925 0.0000 0.0000 0.0000
# 2 29.8227 77.5270 15.2037 0.0000 0.0000 0.0000
# 3 9.1925 15.2037 113.6597 0.0000 0.0000 0.0000
# 4 0.0000 0.0000 0.0000 20.3154 0.0000 0.0000
# 5 0.0000 0.0000 0.0000 0.0000 28.6542 0.0000
# 6 0.0000 0.0000 0.0000 0.0000 0.0000 23.6946
#
#
#
# Elastic Compliance Matrix: (Units=1/GPa)
#
#
# Indices 1 2 3 4 5 6 
#
# 1 0.022488 -0.008517 -0.000679 0.000000 0.000000 0.000000
# 2 -0.008517 0.016472 -0.001515 0.000000 0.000000 0.000000
# 3 -0.000679 -0.001515 0.009056 0.000000 0.000000 0.000000
# 4 0.000000 0.000000 0.000000 0.049224 0.000000 0.000000
# 5 0.000000 0.000000 0.000000 0.000000 0.034899 0.000000
# 6 0.000000 0.000000 0.000000 0.000000 0.000000 0.042204
#
#
# Mechanical properties :
#
#
# Convention : Reuss Voigt Hill
#
# Bulk Modulus (GPa) = 37.60339 39.51836 38.56087
# Shear Modulus (GPa) = 24.43434 27.40005 25.91720
#
# Velocity S-wave (km/s) = 3.23653 3.42732 3.33329
# Velocity P-wave (km/s) = 5.48521 5.70996 5.59871
#
# Compressibility (1/GPa) = 0.02659335
#
# Stress axis : x y z
#
# Youngs Moduli (GPa) = 44.46761 60.70834 110.42719
#
# Poissons Ratio (x) = 0.51708 0.07503
# Poissons Ratio (y) = 0.37875 0.16725
# Poissons Ratio (z) = 0.03021 0.09195
#
# Static dielectric constant tensor:
#      x y z
#    x 1.862640 0.000000 0.000000 
#    y 0.000000 1.910450 0.000000 
#    z 0.000000 0.000000 2.020540 
# 
# From -- ./inp_files/6455.got.cif
#   From: 2010.05.17/outbox.cif.g08.bks.cpg/sg41_4_cif.got.tgz:6455.got - 2010.06.03 18:54:24.
