data_PCOD9366757
_publ_section_title
;
Structure prediction by ZEFSAII (Michael W. Deem and Ramdas Pophale) SiO2 
 PCOD9366757
Probable space group: A B A 2
;
_chemical_formula_sum "Si O2"
_cell_formula_units_Z 40
_cell_length_a 18.604455
_cell_length_b 11.356061
_cell_length_c 7.432036
_cell_angle_alpha 90.000000
_cell_angle_beta 90.000000
_cell_angle_gamma 90.000000
_cell_volume 1570.190964
_symmetry_space_group_name_H-M "A B A 2"
_symmetry_group_IT_number 41
_symmetry_cell_setting 'orthorhombic'
loop_
_space_group_symop_operation_xyz
x,y,z
-x,-y,z
1/2-x,y,1/2+z
1/2+x,-y,1/2+z
x,1/2+y,1/2+z
-x,1/2-y,1/2+z
1/2-x,1/2+y,z
1/2+x,1/2-y,z
loop_
_atom_site_type_symbol
_atom_site_label
_atom_site_fract_x
_atom_site_fract_y
_atom_site_fract_z
Si Si1 0.108284 0.193668 0.003410
Si Si2 0.273699 0.217731 0.780119
Si Si3 0.146413 0.588819 0.076551
Si Si4 0.137035 0.926530 0.879722
Si Si5 0.041154 0.771468 0.140002
O O1 0.181120 0.231760 0.096983
O O2 0.042587 0.203906 0.143784
O O3 0.076656 0.271031 0.838093
O O4 0.123895 0.055739 0.963913
O O5 0.197188 0.170021 0.711213
O O6 0.293119 0.339874 0.885208
O O7 0.312043 0.110970 0.891155
O O8 0.136742 0.463816 0.169578
O O9 0.067186 0.643381 0.073644
O O10 0.077244 0.854518 0.989561
#
# Coordination Sequence:
#
# PCOD9366757 Si02
#       5
#     8   8   8   8   8
#     4  11  23  43  68 100 139 179 230 284 344 421
#     4  11  24  43  66  97 137 180 228 287 346 417
#     4  10  22  40  65  98 134 176 228 282 340 412
#     4  10  23  42  65  93 132 177 224 279 346 410
#     4  10  21  40  66  98 137 178 226 284 341 412
#
# _framework density 25.474608
#
# number of rings (size 3 to 8) (size 9 to 14) (size 15 to 20)
#    0.000    1.600    0.000    5.400    0.000    9.600 
#    0.000    4.000    0.000    0.000    0.000    0.000 
#    0.000    0.000    0.000    0.000    0.000    0.000 
#
# Total GULP energy -111376.355202 kJ/mol
# GULP energy per Si atom -5568.817760 kJ/mol
# Density = 2.541663 g / cm^3
# Si number density = 25.474608 Si / 1000 Ang^3
#
#
#
# Elastic Constant Matrix: (Units=GPa)
#
#
# Indices 1 2 3 4 5 6 
#
# 1 87.2469 4.4005 0.5778 0.0000 0.0000 0.0000
# 2 4.4005 114.6561 20.8902 0.0000 0.0000 0.0000
# 3 0.5778 20.8902 96.5629 0.0000 0.0000 0.0000
# 4 0.0000 0.0000 0.0000 44.8937 0.0000 0.0000
# 5 0.0000 0.0000 0.0000 0.0000 49.3678 0.0000
# 6 0.0000 0.0000 0.0000 0.0000 0.0000 20.2205
#
#
#
# Elastic Compliance Matrix: (Units=1/GPa)
#
#
# Indices 1 2 3 4 5 6 
#
# 1 0.011484 -0.000446 0.000028 0.000000 0.000000 0.000000
# 2 -0.000446 0.009097 -0.001965 0.000000 0.000000 0.000000
# 3 0.000028 -0.001965 0.010781 0.000000 0.000000 0.000000
# 4 0.000000 0.000000 0.000000 0.022275 0.000000 0.000000
# 5 0.000000 0.000000 0.000000 0.000000 0.020256 0.000000
# 6 0.000000 0.000000 0.000000 0.000000 0.000000 0.049455
#
#
# Mechanical properties :
#
#
# Convention : Reuss Voigt Hill
#
# Bulk Modulus (GPa) = 37.60098 38.91145 38.25621
# Shear Modulus (GPa) = 36.50183 41.06957 38.78570
#
# Velocity S-wave (km/s) = 3.78944 4.01955 3.90619
# Velocity P-wave (km/s) = 5.82569 6.07043 5.94932
#
# Compressibility (1/GPa) = 0.02659505
#
# Stress axis : x y z
#
# Youngs Moduli (GPa) = 87.07745 109.92725 92.75617
#
# Poissons Ratio (x) = 0.04901 -0.00257
# Poissons Ratio (y) = 0.03882 0.18230
# Poissons Ratio (z) = -0.00241 0.21604
#
# Static dielectric constant tensor:
#      x y z
#    x 2.057900 0.000000 0.000000 
#    y 0.000000 1.976910 0.000000 
#    z 0.000000 0.000000 2.234800 
# 
# From -- ./inp_files/2917.got.cif
#   From: 2010.05.17/outbox.cif.g08.bks.cpg/sg41_2_cif.got.tgz:2917.got - 2010.06.03 18:54:24.
