data_PCOD9366574
_publ_section_title
;
Structure prediction by ZEFSAII (Michael W. Deem and Ramdas Pophale) SiO2 
 PCOD9366574
Probable space group: A B A 2
;
_chemical_formula_sum "Si O2"
_cell_formula_units_Z 60
_cell_length_a 7.957829
_cell_length_b 24.518934
_cell_length_c 16.806667
_cell_angle_alpha 90.000000
_cell_angle_beta 90.000000
_cell_angle_gamma 90.000000
_cell_volume 3279.274580
_symmetry_space_group_name_H-M "A B A 2"
_symmetry_group_IT_number 41
_symmetry_cell_setting 'orthorhombic'
loop_
_space_group_symop_operation_xyz
x,y,z
-x,-y,z
1/2-x,y,1/2+z
1/2+x,-y,1/2+z
x,1/2+y,1/2+z
-x,1/2-y,1/2+z
1/2-x,1/2+y,z
1/2+x,1/2-y,z
loop_
_atom_site_type_symbol
_atom_site_label
_atom_site_fract_x
_atom_site_fract_y
_atom_site_fract_z
Si Si1 0.006943 0.130098 0.169280
Si Si2 0.501961 0.822283 0.501355
Si Si3 0.342042 0.059116 0.186864
Si Si4 0.303289 0.735855 0.416575
Si Si5 0.500000 0.000000 0.333697
Si Si6 0.784759 0.081657 0.934531
Si Si7 0.312967 0.440140 0.610331
Si Si8 0.893332 0.674631 0.836037
O O1 0.848743 0.091670 0.144652
O O2 0.950662 0.162743 0.247106
O O3 0.176873 0.095986 0.185709
O O4 0.040466 0.168197 0.093178
O O5 0.360825 0.776243 0.487270
O O6 0.655243 0.801328 0.448897
O O7 0.432412 0.878577 0.465785
O O8 0.510213 0.082682 0.144582
O O9 0.402265 0.041499 0.274920
O O10 0.303472 0.002483 0.140521
O O11 0.452391 0.698109 0.386784
O O12 0.245089 0.777640 0.347253
O O13 0.367097 0.967903 0.387283
O O14 0.674065 0.119166 0.876233
O O15 0.690395 0.063483 0.014842
#
# Coordination Sequence:
#
# PCOD9366574 Si02
#       8
#     8   8   8   8   4   8   8   8
#     4  11  22  37  63  89 116 159 199 246 309 369
#     4   9  21  37  62  83 114 157 195 245 307 359
#     4  10  22  40  57  84 123 167 195 252 299 361
#     4   9  20  41  59  83 122 146 199 258 296 370
#     4  10  22  38  58  90 130 158 204 258 310 354
#     4  10  21  37  62  89 120 163 200 254 299 369
#     4   9  21  40  57  84 125 157 206 246 288 363
#     4  10  21  38  59  91 115 155 199 250 313 358
#
# _framework density 18.296728999999999
#
# number of rings (size 3 to 8) (size 9 to 14) (size 15 to 20)
#    0.000    2.400    0.000    2.000    7.467    1.067 
#    7.200    0.000    0.000    0.000    0.000    0.000 
#    0.000    0.000    0.000    0.000    0.000    0.000 
#
# Total GULP energy -167330.170874 kJ/mol
# GULP energy per Si atom -5577.672362 kJ/mol
# Density = 1.825509 g / cm^3
# Si number density = 18.296729 Si / 1000 Ang^3
#
#
#
# Elastic Constant Matrix: (Units=GPa)
#
#
# Indices 1 2 3 4 5 6 
#
# 1 93.3252 35.6952 31.8898 0.0000 0.0000 0.0000
# 2 35.6952 50.6069 39.7326 0.0000 0.0000 0.0000
# 3 31.8898 39.7326 120.7960 0.0000 0.0000 0.0000
# 4 0.0000 0.0000 0.0000 12.4410 0.0000 0.0000
# 5 0.0000 0.0000 0.0000 0.0000 17.2939 0.0000
# 6 0.0000 0.0000 0.0000 0.0000 0.0000 16.7735
#
#
#
# Elastic Compliance Matrix: (Units=1/GPa)
#
#
# Indices 1 2 3 4 5 6 
#
# 1 0.014710 -0.009877 -0.000634 0.000000 0.000000 0.000000
# 2 -0.009877 0.033272 -0.008336 0.000000 0.000000 0.000000
# 3 -0.000634 -0.008336 0.011188 0.000000 0.000000 0.000000
# 4 0.000000 0.000000 0.000000 0.080379 0.000000 0.000000
# 5 0.000000 0.000000 0.000000 0.000000 0.057824 0.000000
# 6 0.000000 0.000000 0.000000 0.000000 0.000000 0.059618
#
#
# Mechanical properties :
#
#
# Convention : Reuss Voigt Hill
#
# Bulk Modulus (GPa) = 46.56894 53.26259 49.91577
# Shear Modulus (GPa) = 16.56477 19.79572 18.18024
#
# Velocity S-wave (km/s) = 3.01215 3.29283 3.15561
# Velocity P-wave (km/s) = 6.13227 6.60535 6.37320
#
# Compressibility (1/GPa) = 0.02147354
#
# Stress axis : x y z
#
# Youngs Moduli (GPa) = 67.98109 30.05511 89.38187
#
# Poissons Ratio (x) = 0.29687 0.05671
# Poissons Ratio (y) = 0.67148 0.74512
# Poissons Ratio (z) = 0.04313 0.25055
#
# Static dielectric constant tensor:
#      x y z
#    x 1.656330 0.000000 0.000000 
#    y 0.000000 1.633180 0.000000 
#    z 0.000000 0.000000 1.613960 
# 
# From -- ./inp_files/7546.got.cif
#   From: 2010.05.17/outbox.cif.g08.bks.cpg/sg41_4_cif.got.tgz:7546.got - 2010.06.03 18:54:24.
