data_PCOD9366431
_publ_section_title
;
Structure prediction by ZEFSAII (Michael W. Deem and Ramdas Pophale) SiO2 
 PCOD9366431
Probable space group: A B A 2
;
_chemical_formula_sum "Si O2"
_cell_formula_units_Z 64
_cell_length_a 12.052713
_cell_length_b 22.886330
_cell_length_c 11.642684
_cell_angle_alpha 90.000000
_cell_angle_beta 90.000000
_cell_angle_gamma 90.000000
_cell_volume 3211.545514
_symmetry_space_group_name_H-M "A B A 2"
_symmetry_group_IT_number 41
_symmetry_cell_setting 'orthorhombic'
loop_
_space_group_symop_operation_xyz
x,y,z
-x,-y,z
1/2-x,y,1/2+z
1/2+x,-y,1/2+z
x,1/2+y,1/2+z
-x,1/2-y,1/2+z
1/2-x,1/2+y,z
1/2+x,1/2-y,z
loop_
_atom_site_type_symbol
_atom_site_label
_atom_site_fract_x
_atom_site_fract_y
_atom_site_fract_z
Si Si1 0.875245 0.679279 0.276530
Si Si2 0.736911 0.403784 0.312631
Si Si3 0.636702 0.706544 0.351516
Si Si4 0.098301 0.375216 0.037661
Si Si5 0.368914 0.488251 0.425936
Si Si6 0.936263 0.812105 0.199397
Si Si7 0.413527 0.047896 0.145688
Si Si8 0.589526 0.833209 0.428191
O O1 0.762242 0.685655 0.345963
O O2 0.853169 0.640536 0.162304
O O3 0.902822 0.745505 0.233513
O O4 0.975292 0.654519 0.356548
O O5 0.691924 0.468453 0.340466
O O6 0.643698 0.359232 0.264398
O O7 0.834774 0.414467 0.222809
O O8 0.807528 0.377916 0.418717
O O9 0.580302 0.683500 0.467840
O O10 0.561415 0.683240 0.247812
O O11 0.634046 0.775992 0.361665
O O12 0.985510 0.407551 0.070591
O O13 0.152901 0.419699 0.944438
O O14 0.500000 0.500000 0.404678
O O15 0.343924 0.511065 0.554465
O O16 0.932508 0.821745 0.062564
O O17 0.500000 0.000000 0.199014
#
# Coordination Sequence:
#
# PCOD9366431 Si02
#       8
#     8   8   8   8   8   8   8   8
#     4  11  23  41  63  95 136 180 220 278 337 408
#     4  12  21  42  66  97 134 173 221 283 332 405
#     4  11  24  41  63  97 133 180 218 273 340 406
#     4  10  20  41  64  94 129 174 222 268 332 410
#     4   9  21  39  64  93 116 172 219 262 327 390
#     4  11  24  39  63  98 137 172 227 279 336 401
#     4   9  20  39  64  90 123 166 220 265 323 394
#     4  11  24  40  63 100 132 176 224 277 342 395
#
# _framework density 19.928100000000001
#
# number of rings (size 3 to 8) (size 9 to 14) (size 15 to 20)
#    0.000    1.750    3.750    2.250    1.750    2.000 
#    0.000    0.000    0.000    1.500    0.000    0.000 
#    0.000    0.000    0.000    0.000    0.000    0.000 
#
# Total GULP energy -178149.756156 kJ/mol
# GULP energy per Si atom -5567.179880 kJ/mol
# Density = 1.988274 g / cm^3
# Si number density = 19.928100 Si / 1000 Ang^3
#
#
#
# Elastic Constant Matrix: (Units=GPa)
#
#
# Indices 1 2 3 4 5 6 
#
# 1 82.0092 22.1449 20.3514 0.0000 0.0000 0.0000
# 2 22.1449 54.8679 -1.1864 0.0000 0.0000 0.0000
# 3 20.3514 -1.1864 64.0067 0.0000 0.0000 0.0000
# 4 0.0000 0.0000 0.0000 34.6556 0.0000 0.0000
# 5 0.0000 0.0000 0.0000 0.0000 16.9388 0.0000
# 6 0.0000 0.0000 0.0000 0.0000 0.0000 25.8062
#
#
#
# Elastic Compliance Matrix: (Units=1/GPa)
#
#
# Indices 1 2 3 4 5 6 
#
# 1 0.015085 -0.006195 -0.004911 0.000000 0.000000 0.000000
# 2 -0.006195 0.020777 0.002355 0.000000 0.000000 0.000000
# 3 -0.004911 0.002355 0.017229 0.000000 0.000000 0.000000
# 4 0.000000 0.000000 0.000000 0.028855 0.000000 0.000000
# 5 0.000000 0.000000 0.000000 0.000000 0.059036 0.000000
# 6 0.000000 0.000000 0.000000 0.000000 0.000000 0.038750
#
#
# Mechanical properties :
#
#
# Convention : Reuss Voigt Hill
#
# Bulk Modulus (GPa) = 28.09926 31.50041 29.79983
# Shear Modulus (GPa) = 23.91227 26.11836 25.01531
#
# Velocity S-wave (km/s) = 3.46775 3.62419 3.54683
# Velocity P-wave (km/s) = 5.49224 5.77532 5.63556
#
# Compressibility (1/GPa) = 0.03558813
#
# Stress axis : x y z
#
# Youngs Moduli (GPa) = 66.28979 48.13082 58.04303
#
# Poissons Ratio (x) = 0.29815 0.28507
# Poissons Ratio (y) = 0.41064 -0.13668
# Poissons Ratio (z) = 0.32557 -0.11334
#
# Static dielectric constant tensor:
#      x y z
#    x 1.714370 0.000000 0.000000 
#    y 0.000000 1.817610 0.000000 
#    z 0.000000 0.000000 1.737820 
# 
# From -- ./inp_files/5195.got.cif
#   From: 2010.05.17/outbox.cif.g08.bks.cpg/sg41_3_cif.got.tgz:5195.got - 2010.06.03 18:54:24.
