data_PCOD9366263
_publ_section_title
;
Structure prediction by ZEFSAII (Michael W. Deem and Ramdas Pophale) SiO2 
 PCOD9366263
Probable space group: A B A 2
;
_chemical_formula_sum "Si O2"
_cell_formula_units_Z 48
_cell_length_a 17.442766
_cell_length_b 12.885935
_cell_length_c 10.016893
_cell_angle_alpha 90.000000
_cell_angle_beta 90.000000
_cell_angle_gamma 90.000000
_cell_volume 2251.460467
_symmetry_space_group_name_H-M "A B A 2"
_symmetry_group_IT_number 41
_symmetry_cell_setting 'orthorhombic'
loop_
_space_group_symop_operation_xyz
x,y,z
-x,-y,z
1/2-x,y,1/2+z
1/2+x,-y,1/2+z
x,1/2+y,1/2+z
-x,1/2-y,1/2+z
1/2-x,1/2+y,z
1/2+x,1/2-y,z
loop_
_atom_site_type_symbol
_atom_site_label
_atom_site_fract_x
_atom_site_fract_y
_atom_site_fract_z
Si Si1 0.296588 0.274570 0.135620
Si Si2 0.380662 0.540103 0.361834
Si Si3 0.868775 0.014056 0.065736
Si Si4 0.965274 0.157539 0.399634
Si Si5 0.036980 0.297420 0.591328
Si Si6 0.779526 0.347660 0.413689
O O1 0.304114 0.399891 0.115050
O O2 0.380029 0.241659 0.078423
O O3 0.291001 0.224233 0.282918
O O4 0.232293 0.225958 0.041767
O O5 0.388167 0.546091 0.201178
O O6 0.456239 0.593941 0.419328
O O7 0.393237 0.419482 0.400947
O O8 0.299781 0.588630 0.397116
O O9 0.940720 0.088843 0.035970
O O10 0.841200 0.936547 0.951404
O O11 0.969209 0.245466 0.510456
O O12 0.973066 0.199945 0.249775
#
# Coordination Sequence:
#
# PCOD9366263 Si02
#       6
#     8   8   8   8   8   8
#     4  10  24  38  62  91 124 155 209 251 315 372
#     4  10  20  38  60  86 114 165 198 240 313 355
#     4   9  22  39  60  90 124 153 207 254 307 378
#     4  10  20  40  62  79 126 160 202 252 291 370
#     4   9  21  42  55  93 119 161 215 246 306 371
#     4  12  21  41  63  90 126 158 198 266 312 365
#
# _framework density 21.319495
#
# number of rings (size 3 to 8) (size 9 to 14) (size 15 to 20)
#    1.000    1.000    3.333    0.000    2.333    1.333 
#    6.000    0.000    0.000    0.000    0.000    0.000 
#    0.000    0.000    0.000    0.000    0.000    0.000 
#
# Total GULP energy -133629.633115 kJ/mol
# GULP energy per Si atom -5567.901380 kJ/mol
# Density = 2.127097 g / cm^3
# Si number density = 21.319495 Si / 1000 Ang^3
#
#
#
# Elastic Constant Matrix: (Units=GPa)
#
#
# Indices 1 2 3 4 5 6 
#
# 1 43.8172 23.4317 -0.3177 0.0000 0.0000 0.0000
# 2 23.4317 78.6555 47.8408 0.0000 0.0000 0.0000
# 3 -0.3177 47.8408 66.8458 0.0000 0.0000 0.0000
# 4 0.0000 0.0000 0.0000 26.2023 0.0000 0.0000
# 5 0.0000 0.0000 0.0000 0.0000 30.2362 0.0000
# 6 0.0000 0.0000 0.0000 0.0000 0.0000 41.3391
#
#
#
# Elastic Compliance Matrix: (Units=1/GPa)
#
#
# Indices 1 2 3 4 5 6 
#
# 1 0.032038 -0.017065 0.012366 0.000000 0.000000 0.000000
# 2 -0.017065 0.031604 -0.022700 0.000000 0.000000 0.000000
# 3 0.012366 -0.022700 0.031265 0.000000 0.000000 0.000000
# 4 0.000000 0.000000 0.000000 0.038165 0.000000 0.000000
# 5 0.000000 0.000000 0.000000 0.000000 0.033073 0.000000
# 6 0.000000 0.000000 0.000000 0.000000 0.000000 0.024190
#
#
# Mechanical properties :
#
#
# Convention : Reuss Voigt Hill
#
# Bulk Modulus (GPa) = 24.93300 36.80312 30.86806
# Shear Modulus (GPa) = 19.34218 27.44645 23.39431
#
# Velocity S-wave (km/s) = 3.01533 3.59191 3.31618
# Velocity P-wave (km/s) = 4.88296 5.87389 5.40120
#
# Compressibility (1/GPa) = 0.04010749
#
# Stress axis : x y z
#
# Youngs Moduli (GPa) = 31.21333 31.64127 31.98498
#
# Poissons Ratio (x) = 0.53997 -0.39552
# Poissons Ratio (y) = 0.53267 0.72606
# Poissons Ratio (z) = -0.38598 0.71826
#
# Static dielectric constant tensor:
#      x y z
#    x 1.817770 0.000000 0.000000 
#    y 0.000000 1.860190 0.000000 
#    z 0.000000 0.000000 1.734170 
# 
# From -- ./inp_files/5536.got.cif
#   From: 2010.05.17/outbox.cif.g08.bks.cpg/sg41_3_cif.got.tgz:5536.got - 2010.06.03 18:54:24.
