data_PCOD9366536
_publ_section_title
;
Structure prediction by ZEFSAII (Michael W. Deem and Ramdas Pophale) SiO2 
 PCOD9366536
Probable space group: A B A 2
;
_chemical_formula_sum "Si O2"
_cell_formula_units_Z 56
_cell_length_a 5.056545
_cell_length_b 16.816512
_cell_length_c 33.796213
_cell_angle_alpha 90.000000
_cell_angle_beta 90.000000
_cell_angle_gamma 90.000000
_cell_volume 2873.808577
_symmetry_space_group_name_H-M "A B A 2"
_symmetry_group_IT_number 41
_symmetry_cell_setting 'orthorhombic'
loop_
_space_group_symop_operation_xyz
x,y,z
-x,-y,z
1/2-x,y,1/2+z
1/2+x,-y,1/2+z
x,1/2+y,1/2+z
-x,1/2-y,1/2+z
1/2-x,1/2+y,z
1/2+x,1/2-y,z
loop_
_atom_site_type_symbol
_atom_site_label
_atom_site_fract_x
_atom_site_fract_y
_atom_site_fract_z
Si Si1 0.078432 0.195043 0.644480
Si Si2 0.758785 0.945653 0.996622
Si Si3 0.072057 0.698123 0.942360
Si Si4 0.741646 0.945106 0.587044
Si Si5 0.516746 0.906029 0.776388
Si Si6 0.105678 0.699545 0.850569
Si Si7 0.013182 0.404973 0.223446
O O1 0.287850 0.266850 0.641053
O O2 0.177546 0.130851 0.612547
O O3 0.064433 0.147643 0.685922
O O4 0.678815 0.871423 0.969978
O O5 0.500000 0.000000 0.998632
O O6 0.828597 0.921413 0.041839
O O7 0.000000 0.000000 0.981318
O O8 0.273800 0.771822 0.949033
O O9 0.082352 0.673330 0.896202
O O10 0.500000 0.000000 0.602698
O O11 0.000000 0.000000 0.586276
O O12 0.506489 0.861529 0.817852
O O13 0.294121 0.885794 0.743659
O O14 0.797571 0.888702 0.756891
O O15 0.500000 0.000000 0.783214
O O16 0.409457 0.725271 0.845421
O O17 0.000000 0.500000 0.213587
#
# Coordination Sequence:
#
# PCOD9366536 Si02
#       7
#     8   8   8   8   8   8   8
#     4  12  25  38  58  90 117 144 192 242 285 338
#     4  10  21  38  61  88 114 150 198 240 283 340
#     4  10  21  37  57  84 118 154 188 230 290 348
#     4  10  22  41  62  83 116 158 192 231 292 353
#     4  10  21  37  57  81 107 144 193 236 279 337
#     4  10  21  36  55  80 112 149 184 225 285 344
#     4  10  22  39  57  78 111 151 187 230 290 348
#
# _framework density 19.486335
#
# number of rings (size 3 to 8) (size 9 to 14) (size 15 to 20)
#    0.000    1.714    0.000    3.857    0.000    6.857 
#    0.000    2.143    0.000    0.000    0.000    0.000 
#    0.000    0.000    0.000    0.000    0.000    0.000 
#
# Total GULP energy -156301.457174 kJ/mol
# GULP energy per Si atom -5582.194899 kJ/mol
# Density = 1.944198 g / cm^3
# Si number density = 19.486335 Si / 1000 Ang^3
#
#
#
# Elastic Constant Matrix: (Units=GPa)
#
#
# Indices 1 2 3 4 5 6 
#
# 1 74.3449 -0.6220 -7.5039 0.0000 0.0000 0.0000
# 2 -0.6220 55.0981 55.5152 0.0000 0.0000 0.0000
# 3 -7.5039 55.5152 85.8457 0.0000 0.0000 0.0000
# 4 0.0000 0.0000 0.0000 27.3763 0.0000 0.0000
# 5 0.0000 0.0000 0.0000 0.0000 74.4079 0.0000
# 6 0.0000 0.0000 0.0000 0.0000 0.0000 29.2166
#
#
#
# Elastic Compliance Matrix: (Units=1/GPa)
#
#
# Indices 1 2 3 4 5 6 
#
# 1 0.013744 -0.003029 0.003160 0.000000 0.000000 0.000000
# 2 -0.003029 0.052758 -0.034383 0.000000 0.000000 0.000000
# 3 0.003160 -0.034383 0.034160 0.000000 0.000000 0.000000
# 4 0.000000 0.000000 0.000000 0.036528 0.000000 0.000000
# 5 0.000000 0.000000 0.000000 0.000000 0.013439 0.000000
# 6 0.000000 0.000000 0.000000 0.000000 0.000000 0.034227
#
#
# Mechanical properties :
#
#
# Convention : Reuss Voigt Hill
#
# Bulk Modulus (GPa) = 31.09495 34.45191 32.77343
# Shear Modulus (GPa) = 18.93364 37.39345 28.16354
#
# Velocity S-wave (km/s) = 3.12049 4.38534 3.80583
# Velocity P-wave (km/s) = 5.38287 6.58484 6.01395
#
# Compressibility (1/GPa) = 0.03215956
#
# Stress axis : x y z
#
# Youngs Moduli (GPa) = 72.75661 18.95436 29.27409
#
# Poissons Ratio (x) = 0.05741 -0.09251
# Poissons Ratio (y) = 0.22038 1.00653
# Poissons Ratio (z) = -0.22993 0.65170
#
# Static dielectric constant tensor:
#      x y z
#    x 1.661870 0.000000 0.000000 
#    y 0.000000 1.685450 0.000000 
#    z 0.000000 0.000000 1.676130 
# 
# From -- ./inp_files/12631.got.cif
#   From: 2010.05.17/outbox.cif.g08.bks.cpg/sg41_7_cif.got.tgz:12631.got - 2010.06.03 18:54:24.
