data_PCOD9366851
_publ_section_title
;
Structure prediction by ZEFSAII (Michael W. Deem and Ramdas Pophale) SiO2 
 PCOD9366851
Probable space group: A B A 2
;
_chemical_formula_sum "Si O2"
_cell_formula_units_Z 60
_cell_length_a 19.077181
_cell_length_b 13.936080
_cell_length_c 8.494297
_cell_angle_alpha 90.000000
_cell_angle_beta 90.000000
_cell_angle_gamma 90.000000
_cell_volume 2258.303319
_symmetry_space_group_name_H-M "A B A 2"
_symmetry_group_IT_number 41
_symmetry_cell_setting 'orthorhombic'
loop_
_space_group_symop_operation_xyz
x,y,z
-x,-y,z
1/2-x,y,1/2+z
1/2+x,-y,1/2+z
x,1/2+y,1/2+z
-x,1/2-y,1/2+z
1/2-x,1/2+y,z
1/2+x,1/2-y,z
loop_
_atom_site_type_symbol
_atom_site_label
_atom_site_fract_x
_atom_site_fract_y
_atom_site_fract_z
Si Si1 0.043621 0.349156 0.782740
Si Si2 0.904022 0.672311 0.110575
Si Si3 0.606187 0.447318 0.670291
Si Si4 0.901054 0.667309 0.467320
Si Si5 0.746885 0.729829 0.049780
Si Si6 0.397547 0.559864 0.311649
Si Si7 0.246452 0.132519 0.793862
Si Si8 0.500000 0.500000 0.891607
O O1 0.072072 0.289626 0.633999
O O2 0.091856 0.445352 0.802237
O O3 0.967005 0.391897 0.742055
O O4 0.049642 0.301823 0.956944
O O5 0.909106 0.559253 0.141026
O O6 0.913738 0.710378 0.291275
O O7 0.824558 0.690250 0.055136
O O8 0.601788 0.407457 0.494955
O O9 0.680797 0.432114 0.751010
O O10 0.544430 0.422335 0.790103
O O11 0.816617 0.667129 0.484116
O O12 0.939709 0.563629 0.471845
O O13 0.747660 0.837349 0.975725
O O14 0.730754 0.760267 0.228839
O O15 0.322139 0.590879 0.247658
#
# Coordination Sequence:
#
# PCOD9366851 Si02
#       8
#     8   8   8   8   8   8   8   4
#     4  10  22  41  71 103 135 182 240 300 357 413
#     4  10  23  43  73 100 136 188 237 298 355 422
#     4  10  22  42  73 106 135 186 240 300 359 419
#     4  11  23  42  70 102 140 183 235 296 350 429
#     4  12  25  45  64 100 147 187 232 285 362 437
#     4  10  21  42  65 102 146 178 235 300 355 421
#     4  12  25  42  68 101 146 188 232 291 359 437
#     4  10  22  42  74 104 134 178 242 304 348 414
#
# _framework density 26.568621
#
# number of rings (size 3 to 8) (size 9 to 14) (size 15 to 20)
#    0.000    1.333    2.667    4.000    1.867    6.400 
#    0.000    4.000    0.000    0.000    0.000    0.000 
#    0.000    0.000    0.000    0.000    0.000    0.000 
#
# Total GULP energy -167612.891264 kJ/mol
# GULP energy per Si atom -5587.096375 kJ/mol
# Density = 2.650815 g / cm^3
# Si number density = 26.568621 Si / 1000 Ang^3
#
#
#
# Elastic Constant Matrix: (Units=GPa)
#
#
# Indices 1 2 3 4 5 6 
#
# 1 183.2032 37.0424 75.2571 0.0000 0.0000 0.0000
# 2 37.0424 59.6655 25.0387 0.0000 0.0000 0.0000
# 3 75.2571 25.0387 143.7252 0.0000 0.0000 0.0000
# 4 0.0000 0.0000 0.0000 37.0597 0.0000 0.0000
# 5 0.0000 0.0000 0.0000 0.0000 51.2981 0.0000
# 6 0.0000 0.0000 0.0000 0.0000 0.0000 32.2731
#
#
#
# Elastic Compliance Matrix: (Units=1/GPa)
#
#
# Indices 1 2 3 4 5 6 
#
# 1 0.007494 -0.003243 -0.003359 0.000000 0.000000 0.000000
# 2 -0.003243 0.019485 -0.001697 0.000000 0.000000 0.000000
# 3 -0.003359 -0.001697 0.009012 0.000000 0.000000 0.000000
# 4 0.000000 0.000000 0.000000 0.026983 0.000000 0.000000
# 5 0.000000 0.000000 0.000000 0.000000 0.019494 0.000000
# 6 0.000000 0.000000 0.000000 0.000000 0.000000 0.030986
#
#
# Mechanical properties :
#
#
# Convention : Reuss Voigt Hill
#
# Bulk Modulus (GPa) = 51.56097 73.47448 62.51773
# Shear Modulus (GPa) = 36.62571 40.74322 38.68447
#
# Velocity S-wave (km/s) = 3.71689 3.92025 3.81992
# Velocity P-wave (km/s) = 6.15379 6.94304 6.56030
#
# Compressibility (1/GPa) = 0.01939452
#
# Stress axis : x y z
#
# Youngs Moduli (GPa) = 133.44114 51.32060 110.96170
#
# Poissons Ratio (x) = 0.16643 0.37272
# Poissons Ratio (y) = 0.43273 0.18825
# Poissons Ratio (z) = 0.44823 0.08707
#
# Static dielectric constant tensor:
#      x y z
#    x 2.011910 0.000000 0.000000 
#    y 0.000000 2.090630 0.000000 
#    z 0.000000 0.000000 2.221660 
# 
# From -- ./inp_files/3173.got.cif
#   From: 2010.05.17/outbox.cif.g08.bks.cpg/sg41_2_cif.got.tgz:3173.got - 2010.06.03 18:54:24.
