data_PCOD9366559
_publ_section_title
;
Structure prediction by ZEFSAII (Michael W. Deem and Ramdas Pophale) SiO2 
 PCOD9366559
Probable space group: A B A 2
;
_chemical_formula_sum "Si O2"
_cell_formula_units_Z 64
_cell_length_a 18.370404
_cell_length_b 21.302129
_cell_length_c 8.173015
_cell_angle_alpha 90.000000
_cell_angle_beta 90.000000
_cell_angle_gamma 90.000000
_cell_volume 3198.335464
_symmetry_space_group_name_H-M "A B A 2"
_symmetry_group_IT_number 41
_symmetry_cell_setting 'orthorhombic'
loop_
_space_group_symop_operation_xyz
x,y,z
-x,-y,z
1/2-x,y,1/2+z
1/2+x,-y,1/2+z
x,1/2+y,1/2+z
-x,1/2-y,1/2+z
1/2-x,1/2+y,z
1/2+x,1/2-y,z
loop_
_atom_site_type_symbol
_atom_site_label
_atom_site_fract_x
_atom_site_fract_y
_atom_site_fract_z
Si Si1 0.583614 0.753145 0.470820
Si Si2 0.416762 0.496766 0.075621
Si Si3 0.333659 0.621835 0.577163
Si Si4 0.416763 0.996766 0.970508
Si Si5 0.833588 0.127923 0.075288
Si Si6 0.916389 0.253145 0.075328
Si Si7 0.166413 0.872077 0.470843
Si Si8 0.666344 0.378165 0.968967
O O1 0.500002 0.750000 0.523078
O O2 0.585960 0.753377 0.273073
O O3 0.626793 0.691370 0.528294
O O4 0.622930 0.816652 0.529508
O O5 0.500000 0.500000 0.015946
O O6 0.418953 0.493684 0.273065
O O7 0.376110 0.434016 0.016542
O O8 0.372637 0.558713 0.028423
O O9 0.372639 0.558713 0.517707
O O10 0.377074 0.683349 0.516631
O O11 0.335568 0.622236 0.773065
O O12 0.250002 0.623832 0.523062
O O13 0.376109 0.934017 0.029587
O O14 0.500000 0.000000 0.030184
O O15 0.873211 0.191370 0.017845
O O16 0.836001 0.127799 0.273065
O O17 0.750001 0.126484 0.023063
#
# Coordination Sequence:
#
# PCOD9366559 Si02
#       8
#     8   8   8   8   8   8   8   8
#     4  10  22  39  59  84 112 145 186 230 278 332
#     4  10  21  38  60  84 113 150 188 231 283 335
#     4  11  23  38  58  85 116 150 189 233 281 335
#     4  10  21  38  60  84 113 150 188 231 283 335
#     4  10  21  37  57  82 111 145 186 228 274 328
#     4  10  22  39  59  84 112 145 186 230 278 332
#     4  10  21  37  57  82 111 145 186 228 274 328
#     4  11  23  38  58  85 116 150 189 233 281 335
#
# _framework density 20.01041
#
# number of rings (size 3 to 8) (size 9 to 14) (size 15 to 20)
#    0.000    1.750    0.000    3.750    0.000    8.500 
#    0.000    0.000    0.000    0.000    0.000    0.000 
#    0.000    0.000    0.000    0.000    0.000    0.000 
#
# Total GULP energy -178907.064220 kJ/mol
# GULP energy per Si atom -5590.845757 kJ/mol
# Density = 1.996487 g / cm^3
# Si number density = 20.010410 Si / 1000 Ang^3
#
#
#
# Elastic Constant Matrix: (Units=GPa)
#
#
# Indices 1 2 3 4 5 6 
#
# 1 183.5400 93.8012 -3.5041 0.0000 0.0000 0.0000
# 2 93.8012 192.8150 3.6636 0.0000 0.0000 0.0000
# 3 -3.5041 3.6636 4.0297 0.0000 0.0000 0.0000
# 4 0.0000 0.0000 0.0000 25.3128 0.0000 0.0000
# 5 0.0000 0.0000 0.0000 0.0000 34.1430 0.0000
# 6 0.0000 0.0000 0.0000 0.0000 0.0000 49.1832
#
#
#
# Elastic Compliance Matrix: (Units=1/GPa)
#
#
# Indices 1 2 3 4 5 6 
#
# 1 0.007642 -0.003912 0.010202 0.000000 0.000000 0.000000
# 2 -0.003912 0.007280 -0.010020 0.000000 0.000000 0.000000
# 3 0.010202 -0.010020 0.266137 0.000000 0.000000 0.000000
# 4 0.000000 0.000000 0.000000 0.039506 0.000000 0.000000
# 5 0.000000 0.000000 0.000000 0.000000 0.029289 0.000000
# 6 0.000000 0.000000 0.000000 0.000000 0.000000 0.020332
#
#
# Mechanical properties :
#
#
# Convention : Reuss Voigt Hill
#
# Bulk Modulus (GPa) = 3.65497 63.14511 33.40004
# Shear Modulus (GPa) = 10.66451 40.82275 25.74363
#
# Velocity S-wave (km/s) = 2.31107 4.52162 3.59069
# Velocity P-wave (km/s) = 2.99197 7.67364 5.82394
#
# Compressibility (1/GPa) = 0.27359986
#
# Stress axis : x y z
#
# Youngs Moduli (GPa) = 130.85056 137.36897 3.75746
#
# Poissons Ratio (x) = 0.53734 -0.03833
# Poissons Ratio (y) = 0.51185 0.03765
# Poissons Ratio (z) = -1.33491 1.37640
#
# Static dielectric constant tensor:
#      x y z
#    x 1.653220 0.000000 0.000000 
#    y 0.000000 1.691890 0.000000 
#    z 0.000000 0.000000 1.713460 
# 
# From -- ./inp_files/3229.got.cif
#   From: 2010.05.17/outbox.cif.g08.bks.cpg/sg41_2_cif.got.tgz:3229.got - 2010.06.03 18:54:24.
