data_PCOD9366274
_publ_section_title
;
Structure prediction by ZEFSAII (Michael W. Deem and Ramdas Pophale) SiO2 
 PCOD9366274
Probable space group: A B A 2
;
_chemical_formula_sum "Si O2"
_cell_formula_units_Z 48
_cell_length_a 5.227897
_cell_length_b 25.934811
_cell_length_c 13.060463
_cell_angle_alpha 90.000000
_cell_angle_beta 90.000000
_cell_angle_gamma 90.000000
_cell_volume 1770.796615
_symmetry_space_group_name_H-M "A B A 2"
_symmetry_group_IT_number 41
_symmetry_cell_setting 'orthorhombic'
loop_
_space_group_symop_operation_xyz
x,y,z
-x,-y,z
1/2-x,y,1/2+z
1/2+x,-y,1/2+z
x,1/2+y,1/2+z
-x,1/2-y,1/2+z
1/2-x,1/2+y,z
1/2+x,1/2-y,z
loop_
_atom_site_type_symbol
_atom_site_label
_atom_site_fract_x
_atom_site_fract_y
_atom_site_fract_z
Si Si1 0.074945 0.116066 0.271830
Si Si2 0.661668 0.726951 0.573142
Si Si3 0.800273 0.909979 0.039261
Si Si4 0.222301 0.870532 0.448275
Si Si5 0.000000 0.000000 0.640662
Si Si6 0.500000 0.000000 0.766684
Si Si7 0.709148 0.769310 0.802296
O O1 0.112450 0.110856 0.150494
O O2 0.232196 0.169249 0.292453
O O3 0.807054 0.131723 0.325862
O O4 0.105498 0.055520 0.309449
O O5 0.363047 0.728174 0.548200
O O6 0.789832 0.677652 0.520514
O O7 0.670506 0.735019 0.697543
O O8 0.571237 0.880473 0.982589
O O9 0.060101 0.911999 0.974635
O O10 0.653522 0.961703 0.068414
O O11 0.759696 0.020080 0.708532
O O12 0.446193 0.755661 0.857772
#
# Coordination Sequence:
#
# PCOD9366274 Si02
#       7
#     8   8   8   8   4   4   8
#     4  11  26  47  74 106 151 201 252 317 389 460
#     4  10  20  38  61  95 140 185 243 310 374 449
#     4  11  24  46  70 104 149 189 251 320 374 458
#     4  12  26  42  72 107 144 200 255 314 394 461
#     4  10  22  43  74 101 136 196 244 303 386 439
#     4  10  24  45  72 107 146 194 256 307 370 469
#     4  10  21  38  66  98 137 188 239 305 383 443
#
# _framework density 27.106442999999999
#
# number of rings (size 3 to 8) (size 9 to 14) (size 15 to 20)
#    0.000    1.333    0.000    7.000    0.000   10.000 
#    0.000    0.000    0.000    0.000    0.000    0.000 
#    0.000    0.000    0.000    0.000    0.000    0.000 
#
# Total GULP energy -133684.055551 kJ/mol
# GULP energy per Si atom -5570.168981 kJ/mol
# Density = 2.704475 g / cm^3
# Si number density = 27.106443 Si / 1000 Ang^3
#
#
#
# Elastic Constant Matrix: (Units=GPa)
#
#
# Indices 1 2 3 4 5 6 
#
# 1 182.7698 23.7041 66.3061 0.0000 0.0000 0.0000
# 2 23.7041 163.9590 57.5102 0.0000 0.0000 0.0000
# 3 66.3061 57.5102 80.6565 0.0000 0.0000 0.0000
# 4 0.0000 0.0000 0.0000 31.0530 0.0000 0.0000
# 5 0.0000 0.0000 0.0000 0.0000 25.8053 0.0000
# 6 0.0000 0.0000 0.0000 0.0000 0.0000 44.0756
#
#
#
# Elastic Compliance Matrix: (Units=1/GPa)
#
#
# Indices 1 2 3 4 5 6 
#
# 1 0.008081 0.001549 -0.007748 0.000000 0.000000 0.000000
# 2 0.001549 0.008430 -0.007285 0.000000 0.000000 0.000000
# 3 -0.007748 -0.007285 0.023962 0.000000 0.000000 0.000000
# 4 0.000000 0.000000 0.000000 0.032203 0.000000 0.000000
# 5 0.000000 0.000000 0.000000 0.000000 0.038752 0.000000
# 6 0.000000 0.000000 0.000000 0.000000 0.000000 0.022688
#
#
# Mechanical properties :
#
#
# Convention : Reuss Voigt Hill
#
# Bulk Modulus (GPa) = 74.03803 80.26957 77.15380
# Shear Modulus (GPa) = 30.19566 38.84443 34.52004
#
# Velocity S-wave (km/s) = 3.34123 3.78965 3.57248
# Velocity P-wave (km/s) = 6.50063 6.98753 6.74848
#
# Compressibility (1/GPa) = 0.01350657
#
# Stress axis : x y z
#
# Youngs Moduli (GPa) = 123.74096 118.61978 41.73218
#
# Poissons Ratio (x) = -0.18380 0.32336
# Poissons Ratio (y) = -0.19173 0.30401
# Poissons Ratio (z) = 0.95879 0.86412
#
# Static dielectric constant tensor:
#      x y z
#    x 2.181300 0.000000 0.000000 
#    y 0.000000 2.174730 0.000000 
#    z 0.000000 0.000000 2.252570 
# 
# From -- ./inp_files/6900.got.cif
#   From: 2010.05.17/outbox.cif.g08.bks.cpg/sg41_4_cif.got.tgz:6900.got - 2010.06.03 18:54:24.
