data_PCOD9366416
_publ_section_title
;
Structure prediction by ZEFSAII (Michael W. Deem and Ramdas Pophale) SiO2 
 PCOD9366416
Probable space group: A B A 2
;
_chemical_formula_sum "Si O2"
_cell_formula_units_Z 36
_cell_length_a 9.650364
_cell_length_b 18.843483
_cell_length_c 7.818643
_cell_angle_alpha 90.000000
_cell_angle_beta 90.000000
_cell_angle_gamma 90.000000
_cell_volume 1421.792630
_symmetry_space_group_name_H-M "A B A 2"
_symmetry_group_IT_number 41
_symmetry_cell_setting 'orthorhombic'
loop_
_space_group_symop_operation_xyz
x,y,z
-x,-y,z
1/2-x,y,1/2+z
1/2+x,-y,1/2+z
x,1/2+y,1/2+z
-x,1/2-y,1/2+z
1/2-x,1/2+y,z
1/2+x,1/2-y,z
loop_
_atom_site_type_symbol
_atom_site_label
_atom_site_fract_x
_atom_site_fract_y
_atom_site_fract_z
Si Si1 0.310772 0.309788 0.329940
Si Si2 0.581853 0.260383 0.507822
Si Si3 0.779644 0.548933 0.210178
Si Si4 0.421777 0.585889 0.584636
Si Si5 0.000000 0.500000 0.752052
O O1 0.424551 0.276357 0.456397
O O2 0.383184 0.299249 0.146777
O O3 0.171648 0.264380 0.346712
O O4 0.269920 0.392580 0.350533
O O5 0.635958 0.335440 0.579757
O O6 0.840827 0.468680 0.206218
O O7 0.624062 0.531710 0.140170
O O8 0.919150 0.586984 0.145462
O O9 0.429203 0.553840 0.390963
#
# Coordination Sequence:
#
# PCOD9366416 Si02
#       5
#     8   8   8   8   4
#     4  12  26  46  75 106 152 194 245 305 372 446
#     4  12  26  47  72 109 149 196 245 304 375 442
#     4  10  22  43  70  97 140 186 234 303 361 429
#     4  10  24  44  66 101 140 184 240 298 358 436
#     4  10  20  40  70  92 130 180 230 298 346 430
#
# _framework density 25.320149000000001
#
# number of rings (size 3 to 8) (size 9 to 14) (size 15 to 20)
#    0.000    1.333    2.222    4.000    6.222    1.778 
#    0.000    8.889    0.000    0.000    0.000    0.000 
#    0.000    0.000    0.000    0.000    0.000    0.000 
#
# Total GULP energy -100234.171141 kJ/mol
# GULP energy per Si atom -5568.565063 kJ/mol
# Density = 2.526252 g / cm^3
# Si number density = 25.320149 Si / 1000 Ang^3
#
#
#
# Elastic Constant Matrix: (Units=GPa)
#
#
# Indices 1 2 3 4 5 6 
#
# 1 177.9660 63.2167 50.8774 0.0000 0.0000 0.0000
# 2 63.2167 136.0564 18.1137 0.0000 0.0000 0.0000
# 3 50.8774 18.1137 75.3342 0.0000 0.0000 0.0000
# 4 0.0000 0.0000 0.0000 41.3260 0.0000 0.0000
# 5 0.0000 0.0000 0.0000 0.0000 49.8441 0.0000
# 6 0.0000 0.0000 0.0000 0.0000 0.0000 35.7088
#
#
#
# Elastic Compliance Matrix: (Units=1/GPa)
#
#
# Indices 1 2 3 4 5 6 
#
# 1 0.008073 -0.003125 -0.004701 0.000000 0.000000 0.000000
# 2 -0.003125 0.008803 -0.000006 0.000000 0.000000 0.000000
# 3 -0.004701 -0.000006 0.016450 0.000000 0.000000 0.000000
# 4 0.000000 0.000000 0.000000 0.024198 0.000000 0.000000
# 5 0.000000 0.000000 0.000000 0.000000 0.020063 0.000000
# 6 0.000000 0.000000 0.000000 0.000000 0.000000 0.028004
#
#
# Mechanical properties :
#
#
# Convention : Reuss Voigt Hill
#
# Bulk Modulus (GPa) = 56.61776 72.64137 64.62957
# Shear Modulus (GPa) = 39.32614 42.51905 40.92259
#
# Velocity S-wave (km/s) = 3.94529 4.10232 4.02457
# Velocity P-wave (km/s) = 6.56986 7.15473 6.86852
#
# Compressibility (1/GPa) = 0.01766230
#
# Stress axis : x y z
#
# Youngs Moduli (GPa) = 123.86919 113.60069 60.78929
#
# Poissons Ratio (x) = 0.35502 0.28575
# Poissons Ratio (y) = 0.38712 0.00036
# Poissons Ratio (z) = 0.58228 0.00068
#
# Static dielectric constant tensor:
#      x y z
#    x 1.933490 0.000000 0.000000 
#    y 0.000000 1.987890 0.000000 
#    z 0.000000 0.000000 2.114900 
# 
# From -- ./inp_files/1648.got.cif
#   From: 2010.05.17/outbox.cif.g08.bks.cpg/sg41_1_cif.got.tgz:1648.got - 2010.06.03 18:54:24.
