data_PCOD9366492
_publ_section_title
;
Structure prediction by ZEFSAII (Michael W. Deem and Ramdas Pophale) SiO2 
 PCOD9366492
Probable space group: A B A 2
;
_chemical_formula_sum "Si O2"
_cell_formula_units_Z 40
_cell_length_a 16.818880
_cell_length_b 11.514099
_cell_length_c 8.946423
_cell_angle_alpha 90.000000
_cell_angle_beta 90.000000
_cell_angle_gamma 90.000000
_cell_volume 1732.512831
_symmetry_space_group_name_H-M "A B A 2"
_symmetry_group_IT_number 41
_symmetry_cell_setting 'orthorhombic'
loop_
_space_group_symop_operation_xyz
x,y,z
-x,-y,z
1/2-x,y,1/2+z
1/2+x,-y,1/2+z
x,1/2+y,1/2+z
-x,1/2-y,1/2+z
1/2-x,1/2+y,z
1/2+x,1/2-y,z
loop_
_atom_site_type_symbol
_atom_site_label
_atom_site_fract_x
_atom_site_fract_y
_atom_site_fract_z
Si Si1 0.941870 0.600325 0.692850
Si Si2 0.627037 0.027005 0.373429
Si Si3 0.573350 0.914744 0.104728
Si Si4 0.186228 0.505981 0.869314
Si Si5 0.414146 0.720204 0.312752
O O1 0.914751 0.553064 0.531732
O O2 0.861432 0.599655 0.790610
O O3 0.000000 0.500000 0.757518
O O4 0.004380 0.703355 0.721576
O O5 0.587762 0.920937 0.282112
O O6 0.720536 0.005096 0.381485
O O7 0.614814 0.150071 0.290120
O O8 0.500000 0.000000 0.078558
O O9 0.651418 0.977329 0.034925
O O10 0.569625 0.806613 0.989587
O O11 0.153595 0.622016 0.781699
#
# Coordination Sequence:
#
# PCOD9366492 Si02
#       5
#     8   8   8   8   8
#     4  10  20  43  64  86 132 169 210 268 321 391
#     4  12  23  36  69 104 115 176 228 257 327 399
#     4  10  20  43  64  85 134 169 208 271 324 384
#     4   9  20  44  60  88 141 163 202 284 327 365
#     4   9  22  42  65  88 134 174 206 268 328 382
#
# _framework density 23.087852000000002
#
# number of rings (size 3 to 8) (size 9 to 14) (size 15 to 20)
#    1.200    0.800    2.000    1.800    2.800    0.000 
#    7.200    0.000    0.000    0.000    0.000    0.000 
#    0.000    0.000    0.000    0.000    0.000    0.000 
#
# Total GULP energy -111351.079021 kJ/mol
# GULP energy per Si atom -5567.553951 kJ/mol
# Density = 2.303530 g / cm^3
# Si number density = 23.087852 Si / 1000 Ang^3
#
#
#
# Elastic Constant Matrix: (Units=GPa)
#
#
# Indices 1 2 3 4 5 6 
#
# 1 164.3954 44.1316 48.6240 0.0000 0.0000 0.0000
# 2 44.1316 68.8124 7.6868 0.0000 0.0000 0.0000
# 3 48.6240 7.6868 120.6472 0.0000 0.0000 0.0000
# 4 0.0000 0.0000 0.0000-1105.5936 0.0000 0.0000
# 5 0.0000 0.0000 0.0000 0.0000 20.6322 0.0000
# 6 0.0000 0.0000 0.0000 0.0000 0.0000 26.8498
#
#
#
# Elastic Compliance Matrix: (Units=1/GPa)
#
#
# Indices 1 2 3 4 5 6 
#
# 1 0.008323 -0.004998 -0.003036 0.000000 0.000000 0.000000
# 2 -0.004998 0.017638 0.000891 0.000000 0.000000 0.000000
# 3 -0.003036 0.000891 0.009455 0.000000 0.000000 0.000000
# 4 0.000000 0.000000 0.000000 -0.000904 0.000000 0.000000
# 5 0.000000 0.000000 0.000000 0.000000 0.048468 0.000000
# 6 0.000000 0.000000 0.000000 0.000000 0.000000 0.037244
#
#
# Mechanical properties :
#
#
# Convention : Reuss Voigt Hill
#
# Bulk Modulus (GPa) = 47.32737 61.63775 54.48256
# Shear Modulus (GPa) = 35.32214 -194.72815 -79.70301
#
# Velocity S-wave (km/s) = 3.91564 -9.19377 -5.88188
# Velocity P-wave (km/s) = 6.40205 9.27068 4.74126
#
# Compressibility (1/GPa) = 0.02112942
#
# Stress axis : x y z
#
# Youngs Moduli (GPa) = 120.15432 56.69433 105.75995
#
# Poissons Ratio (x) = 0.28338 0.32106
# Poissons Ratio (y) = 0.60059 -0.09420
# Poissons Ratio (z) = 0.36476 -0.05050
#
# Static dielectric constant tensor:
#      x y z
#    x 1.975890 0.000000 0.000000 
#    y 0.000000 2.551930 0.000000 
#    z 0.000000 0.000000 1.935310 
# 
# From -- ./inp_files/2957.got.cif
#   From: 2010.05.17/outbox.cif.g08.bks.cpg/sg41_2_cif.got.tgz:2957.got - 2010.06.03 18:54:24.
