data_PCOD9366554
_publ_section_title
;
Structure prediction by ZEFSAII (Michael W. Deem and Ramdas Pophale) SiO2 
 PCOD9366554
Probable space group: A B A 2
;
_chemical_formula_sum "Si O2"
_cell_formula_units_Z 64
_cell_length_a 20.436569
_cell_length_b 16.278896
_cell_length_c 9.723100
_cell_angle_alpha 90.000000
_cell_angle_beta 90.000000
_cell_angle_gamma 90.000000
_cell_volume 3234.727398
_symmetry_space_group_name_H-M "A B A 2"
_symmetry_group_IT_number 41
_symmetry_cell_setting 'orthorhombic'
loop_
_space_group_symop_operation_xyz
x,y,z
-x,-y,z
1/2-x,y,1/2+z
1/2+x,-y,1/2+z
x,1/2+y,1/2+z
-x,1/2-y,1/2+z
1/2-x,1/2+y,z
1/2+x,1/2-y,z
loop_
_atom_site_type_symbol
_atom_site_label
_atom_site_fract_x
_atom_site_fract_y
_atom_site_fract_z
Si Si1 0.466939 0.158372 0.819990
Si Si2 0.862762 0.244084 0.949439
Si Si3 0.385982 0.360662 0.223449
Si Si4 0.311066 0.888299 0.266004
Si Si5 0.075117 0.532669 0.613035
Si Si6 0.422660 0.014331 0.301108
Si Si7 0.801168 0.580119 0.954069
Si Si8 0.383810 0.580597 0.523851
O O1 0.434063 0.241249 0.877238
O O2 0.541027 0.162788 0.772743
O O3 0.424621 0.116905 0.697729
O O4 0.452609 0.093601 0.943441
O O5 0.817503 0.199115 0.839922
O O6 0.844142 0.337402 0.985615
O O7 0.868532 0.191788 0.088727
O O8 0.385203 0.456772 0.177420
O O9 0.339274 0.356026 0.355545
O O10 0.382127 0.930868 0.274331
O O11 0.263057 0.939585 0.365355
O O12 0.287864 0.887509 0.108328
O O13 0.091969 0.543678 0.454641
O O14 0.000000 0.500000 0.618962
O O15 0.500000 0.000000 0.288309
O O16 0.398318 0.075678 0.184241
O O17 0.846527 0.500490 0.976817
#
# Coordination Sequence:
#
# PCOD9366554 Si02
#       8
#     8   8   8   8   8   8   8   8
#     4   9  21  35  61  91 132 165 206 258 325 367
#     4  10  22  41  58  90 135 160 204 273 319 386
#     4  11  19  37  64  90 129 172 210 258 319 393
#     4  11  24  42  65  94 124 168 219 267 323 392
#     4   9  17  34  59  91 122 169 208 252 304 375
#     4  10  21  36  67  95 126 164 219 266 313 383
#     4  11  24  42  69  89 119 175 221 261 317 389
#     4   9  22  40  62  93 131 161 209 266 317 378
#
# _framework density 19.785283
#
# number of rings (size 3 to 8) (size 9 to 14) (size 15 to 20)
#    0.750    1.250    2.500    0.750    3.500    2.000 
#    2.250    5.000    0.000    0.000    0.000    0.000 
#    0.000    0.000    0.000    0.000    0.000    0.000 
#
# Total GULP energy -178300.853054 kJ/mol
# GULP energy per Si atom -5571.901658 kJ/mol
# Density = 1.974025 g / cm^3
# Si number density = 19.785283 Si / 1000 Ang^3
#
#
#
# Elastic Constant Matrix: (Units=GPa)
#
#
# Indices 1 2 3 4 5 6 
#
# 1 50.3447 8.3597 30.4261 0.0000 0.0000 0.0000
# 2 8.3597 44.4153 41.3874 0.0000 0.0000 0.0000
# 3 30.4261 41.3874 178.1197 0.0000 0.0000 0.0000
# 4 0.0000 0.0000 0.0000 29.0120 0.0000 0.0000
# 5 0.0000 0.0000 0.0000 0.0000 23.5692 0.0000
# 6 0.0000 0.0000 0.0000 0.0000 0.0000 15.5716
#
#
#
# Elastic Compliance Matrix: (Units=1/GPa)
#
#
# Indices 1 2 3 4 5 6 
#
# 1 0.022173 -0.000822 -0.003597 0.000000 0.000000 0.000000
# 2 -0.000822 0.028767 -0.006544 0.000000 0.000000 0.000000
# 3 -0.003597 -0.006544 0.007749 0.000000 0.000000 0.000000
# 4 0.000000 0.000000 0.000000 0.034468 0.000000 0.000000
# 5 0.000000 0.000000 0.000000 0.000000 0.042428 0.000000
# 6 0.000000 0.000000 0.000000 0.000000 0.000000 0.064219
#
#
# Mechanical properties :
#
#
# Convention : Reuss Voigt Hill
#
# Bulk Modulus (GPa) = 27.20001 48.13622 37.66812
# Shear Modulus (GPa) = 21.36885 26.47766 23.92325
#
# Velocity S-wave (km/s) = 3.28996 3.66218 3.48105
# Velocity P-wave (km/s) = 5.31123 6.50109 5.93605
#
# Compressibility (1/GPa) = 0.03676469
#
# Stress axis : x y z
#
# Youngs Moduli (GPa) = 45.09952 34.76176 129.04746
#
# Poissons Ratio (x) = 0.02857 0.46413
# Poissons Ratio (y) = 0.03707 0.84447
# Poissons Ratio (z) = 0.16221 0.22748
#
# Static dielectric constant tensor:
#      x y z
#    x 1.739610 0.000000 0.000000 
#    y 0.000000 1.694820 0.000000 
#    z 0.000000 0.000000 1.717790 
# 
# From -- ./inp_files/3727.got.cif
#   From: 2010.05.17/outbox.cif.g08.bks.cpg/sg41_2_cif.got.tgz:3727.got - 2010.06.03 18:54:24.
