data_PCOD9366149
_publ_section_title
;
Structure prediction by ZEFSAII (Michael W. Deem and Ramdas Pophale) SiO2 
 PCOD9366149
Probable space group: A B A 2
;
_chemical_formula_sum "Si O2"
_cell_formula_units_Z 64
_cell_length_a 8.250529
_cell_length_b 20.489861
_cell_length_c 18.974741
_cell_angle_alpha 90.000000
_cell_angle_beta 90.000000
_cell_angle_gamma 90.000000
_cell_volume 3207.721566
_symmetry_space_group_name_H-M "A B A 2"
_symmetry_group_IT_number 41
_symmetry_cell_setting 'orthorhombic'
loop_
_space_group_symop_operation_xyz
x,y,z
-x,-y,z
1/2-x,y,1/2+z
1/2+x,-y,1/2+z
x,1/2+y,1/2+z
-x,1/2-y,1/2+z
1/2-x,1/2+y,z
1/2+x,1/2-y,z
loop_
_atom_site_type_symbol
_atom_site_label
_atom_site_fract_x
_atom_site_fract_y
_atom_site_fract_z
Si Si1 0.383905 0.450556 0.127460
Si Si2 0.211772 0.823499 0.635285
Si Si3 0.224220 0.163587 0.309921
Si Si4 0.335959 0.323918 0.468380
Si Si5 0.161961 0.678564 0.157851
Si Si6 0.293301 0.070036 0.553934
Si Si7 0.468096 0.779716 0.385342
Si Si8 0.414158 0.568222 0.417104
O O1 0.500000 0.500000 0.171517
O O2 0.309947 0.386796 0.161263
O O3 0.254870 0.500433 0.092609
O O4 0.512483 0.427075 0.066974
O O5 0.199854 0.827931 0.550614
O O6 0.295090 0.754549 0.649413
O O7 0.030915 0.825996 0.665406
O O8 0.242480 0.156281 0.227032
O O9 0.400496 0.179650 0.342439
O O10 0.112299 0.224783 0.334573
O O11 0.153418 0.100010 0.346496
O O12 0.436223 0.258710 0.447340
O O13 0.174559 0.320442 0.421386
O O14 0.450401 0.383093 0.447439
O O15 0.216511 0.632174 0.093479
O O16 0.228808 0.066484 0.475221
O O17 0.500000 0.500000 0.406984
#
# Coordination Sequence:
#
# PCOD9366149 Si02
#       8
#     8   8   8   8   8   8   8   8
#     4   8  22  40  61  92 128 165 204 269 325 393
#     4  12  22  36  64  99 131 165 218 274 336 392
#     4  10  23  41  60  92 129 174 209 266 334 397
#     4  10  20  34  62  95 120 160 209 272 320 380
#     4  12  24  37  65  98 134 167 221 277 333 402
#     4   9  21  40  64  93 124 172 213 271 327 382
#     4   9  20  38  61  84 130 159 209 262 330 389
#     4  11  22  41  65  91 128 173 223 270 318 396
#
# _framework density 19.951857
#
# number of rings (size 3 to 8) (size 9 to 14) (size 15 to 20)
#    0.750    1.000    1.250    3.000    5.250    0.000 
#    2.250    1.250    2.750    0.000    0.000    0.000 
#    0.000    0.000    0.000    0.000    0.000    0.000 
#
# Total GULP energy -178590.403198 kJ/mol
# GULP energy per Si atom -5580.950100 kJ/mol
# Density = 1.990645 g / cm^3
# Si number density = 19.951857 Si / 1000 Ang^3
#
#
#
# Elastic Constant Matrix: (Units=GPa)
#
#
# Indices 1 2 3 4 5 6 
#
# 1 61.5158 23.7058 7.6999 0.0000 0.0000 0.0000
# 2 23.7058 108.0975 26.7085 0.0000 0.0000 0.0000
# 3 7.6999 26.7085 59.7707 0.0000 0.0000 0.0000
# 4 0.0000 0.0000 0.0000 14.1618 0.0000 0.0000
# 5 0.0000 0.0000 0.0000 0.0000 9.9521 0.0000
# 6 0.0000 0.0000 0.0000 0.0000 0.0000 24.6254
#
#
#
# Elastic Compliance Matrix: (Units=1/GPa)
#
#
# Indices 1 2 3 4 5 6 
#
# 1 0.017777 -0.003746 -0.000616 0.000000 0.000000 0.000000
# 2 -0.003746 0.011188 -0.004517 0.000000 0.000000 0.000000
# 3 -0.000616 -0.004517 0.018828 0.000000 0.000000 0.000000
# 4 0.000000 0.000000 0.000000 0.070612 0.000000 0.000000
# 5 0.000000 0.000000 0.000000 0.000000 0.100481 0.000000
# 6 0.000000 0.000000 0.000000 0.000000 0.000000 0.040609
#
#
# Mechanical properties :
#
#
# Convention : Reuss Voigt Hill
#
# Bulk Modulus (GPa) = 33.29441 38.40139 35.84790
# Shear Modulus (GPa) = 17.40549 21.16586 19.28567
#
# Velocity S-wave (km/s) = 2.95680 3.26060 3.11241
# Velocity P-wave (km/s) = 5.32734 5.78482 5.56078
#
# Compressibility (1/GPa) = 0.03003507
#
# Stress axis : x y z
#
# Youngs Moduli (GPa) = 56.25328 89.37754 53.11134
#
# Poissons Ratio (x) = 0.33483 0.03272
# Poissons Ratio (y) = 0.21074 0.23990
# Poissons Ratio (z) = 0.03466 0.40372
#
# Static dielectric constant tensor:
#      x y z
#    x 1.713250 0.000000 0.000000 
#    y 0.000000 1.615650 0.000000 
#    z 0.000000 0.000000 1.687270 
# 
# From -- ./inp_files/9847.got.cif
#   From: 2010.05.17/outbox.cif.g08.bks.cpg/sg41_5_cif.got.tgz:9847.got - 2010.06.03 18:54:24.
