data_PCOD9366023
_publ_section_title
;
Structure prediction by ZEFSAII (Michael W. Deem and Ramdas Pophale) SiO2 
 PCOD9366023
Probable space group: A B A 2
;
_chemical_formula_sum "Si O2"
_cell_formula_units_Z 48
_cell_length_a 7.343112
_cell_length_b 23.129452
_cell_length_c 11.650609
_cell_angle_alpha 90.000000
_cell_angle_beta 90.000000
_cell_angle_gamma 90.000000
_cell_volume 1978.764558
_symmetry_space_group_name_H-M "A B A 2"
_symmetry_group_IT_number 41
_symmetry_cell_setting 'orthorhombic'
loop_
_space_group_symop_operation_xyz
x,y,z
-x,-y,z
1/2-x,y,1/2+z
1/2+x,-y,1/2+z
x,1/2+y,1/2+z
-x,1/2-y,1/2+z
1/2-x,1/2+y,z
1/2+x,1/2-y,z
loop_
_atom_site_type_symbol
_atom_site_label
_atom_site_fract_x
_atom_site_fract_y
_atom_site_fract_z
Si Si1 0.050492 0.065526 0.596200
Si Si2 0.976854 0.931374 0.035021
Si Si3 0.522262 0.347628 0.419655
Si Si4 0.913836 0.862011 0.815530
Si Si5 0.410499 0.836318 0.680289
Si Si6 0.697150 0.279727 0.628663
O O1 0.265180 0.072612 0.571232
O O2 0.950645 0.099666 0.495000
O O3 0.019495 0.095192 0.717175
O O4 0.000000 0.000000 0.596985
O O5 0.091581 0.902394 0.138618
O O6 0.007695 0.885856 0.930705
O O7 0.000000 0.000000 0.010626
O O8 0.701023 0.368914 0.349377
O O9 0.390177 0.330038 0.317326
O O10 0.599207 0.301854 0.512594
O O11 0.909332 0.800904 0.745390
O O12 0.279444 0.788963 0.624600
O O13 0.606979 0.810215 0.640274
#
# Coordination Sequence:
#
# PCOD9366023 Si02
#       6
#     8   8   8   8   8   8
#     4  10  19  37  62  82 113 158 198 237 291 352
#     4  11  22  39  58  86 123 157 194 241 301 355
#     4   9  18  37  59  82 116 154 190 242 304 344
#     4   9  17  39  60  81 112 160 196 238 294 350
#     4  11  22  39  59  89 118 159 192 249 300 357
#     4  10  21  37  64  84 116 153 202 244 301 350
#
# _framework density 24.257560999999999
#
# number of rings (size 3 to 8) (size 9 to 14) (size 15 to 20)
#    0.000    2.000    6.667    0.500    2.333    0.667 
#    6.000    1.667    0.000    0.000    0.000    0.000 
#    0.000    0.000    0.000    0.000    0.000    0.000 
#
# Total GULP energy -133948.200092 kJ/mol
# GULP energy per Si atom -5581.175004 kJ/mol
# Density = 2.420235 g / cm^3
# Si number density = 24.257561 Si / 1000 Ang^3
#
#
#
# Elastic Constant Matrix: (Units=GPa)
#
#
# Indices 1 2 3 4 5 6 
#
# 1 60.7138 6.3590 8.4488 0.0000 0.0000 0.0000
# 2 6.3590 125.6563 26.5881 0.0000 0.0000 0.0000
# 3 8.4488 26.5881 131.5785 0.0000 0.0000 0.0000
# 4 0.0000 0.0000 0.0000 17.9823 0.0000 0.0000
# 5 0.0000 0.0000 0.0000 0.0000 16.4416 0.0000
# 6 0.0000 0.0000 0.0000 0.0000 0.0000 29.4987
#
#
#
# Elastic Compliance Matrix: (Units=1/GPa)
#
#
# Indices 1 2 3 4 5 6 
#
# 1 0.016669 -0.000645 -0.000940 0.000000 0.000000 0.000000
# 2 -0.000645 0.008339 -0.001644 0.000000 0.000000 0.000000
# 3 -0.000940 -0.001644 0.007993 0.000000 0.000000 0.000000
# 4 0.000000 0.000000 0.000000 0.055610 0.000000 0.000000
# 5 0.000000 0.000000 0.000000 0.000000 0.060821 0.000000
# 6 0.000000 0.000000 0.000000 0.000000 0.000000 0.033900
#
#
# Mechanical properties :
#
#
# Convention : Reuss Voigt Hill
#
# Bulk Modulus (GPa) = 37.67393 44.52672 41.10032
# Shear Modulus (GPa) = 25.17170 31.22138 28.19654
#
# Velocity S-wave (km/s) = 3.22481 3.59148 3.41307
# Velocity P-wave (km/s) = 5.42497 5.96607 5.70194
#
# Compressibility (1/GPa) = 0.02654356
#
# Stress axis : x y z
#
# Youngs Moduli (GPa) = 59.99138 119.92401 125.11711
#
# Poissons Ratio (x) = 0.07731 0.11762
# Poissons Ratio (y) = 0.03867 0.20564
# Poissons Ratio (z) = 0.05640 0.19711
#
# Static dielectric constant tensor:
#      x y z
#    x 2.017570 0.000000 0.000000 
#    y 0.000000 1.957030 0.000000 
#    z 0.000000 0.000000 1.955920 
# 
# From -- ./inp_files/4498.got.cif
#   From: 2010.05.17/outbox.cif.g08.bks.cpg/sg41_3_cif.got.tgz:4498.got - 2010.06.03 18:54:24.
