data_PCOD9366459
_publ_section_title
;
Structure prediction by ZEFSAII (Michael W. Deem and Ramdas Pophale) SiO2 
 PCOD9366459
Probable space group: A B A 2
;
_chemical_formula_sum "Si O2"
_cell_formula_units_Z 44
_cell_length_a 9.828768
_cell_length_b 15.777518
_cell_length_c 13.812838
_cell_angle_alpha 90.000000
_cell_angle_beta 90.000000
_cell_angle_gamma 90.000000
_cell_volume 2142.006018
_symmetry_space_group_name_H-M "A B A 2"
_symmetry_group_IT_number 41
_symmetry_cell_setting 'orthorhombic'
loop_
_space_group_symop_operation_xyz
x,y,z
-x,-y,z
1/2-x,y,1/2+z
1/2+x,-y,1/2+z
x,1/2+y,1/2+z
-x,1/2-y,1/2+z
1/2-x,1/2+y,z
1/2+x,1/2-y,z
loop_
_atom_site_type_symbol
_atom_site_label
_atom_site_fract_x
_atom_site_fract_y
_atom_site_fract_z
Si Si1 0.168657 0.065847 0.523200
Si Si2 0.323139 0.412839 0.910087
Si Si3 0.105462 0.839227 0.526009
Si Si4 0.294286 0.950359 0.199310
Si Si5 0.064693 0.149626 0.041338
Si Si6 0.500000 0.500000 0.189745
O O1 0.275930 0.141623 0.517887
O O2 0.018596 0.097616 0.498556
O O3 0.247204 0.993951 0.459931
O O4 0.160114 0.029707 0.633365
O O5 0.212130 0.340369 0.937117
O O6 0.362852 0.428437 0.799674
O O7 0.538365 0.612122 0.963015
O O8 0.186245 0.875370 0.620397
O O9 0.041598 0.749082 0.553020
O O10 0.140610 0.970279 0.235723
O O11 0.040374 0.083336 0.128094
#
# Coordination Sequence:
#
# PCOD9366459 Si02
#       6
#     8   8   8   8   8   4
#     4  10  22  39  63  90 122 173 209 257 322 378
#     4  11  21  41  64  90 126 164 216 258 316 392
#     4  11  23  40  63  94 129 162 214 271 315 374
#     4  10  22  39  65  90 125 167 214 259 317 387
#     4  11  20  42  64  86 127 168 208 261 323 381
#     4  10  20  42  64  86 118 178 212 260 334 380
#
# _framework density 20.541491000000001
#
# number of rings (size 3 to 8) (size 9 to 14) (size 15 to 20)
#    0.000    1.455    5.455    3.273    2.545    2.909 
#    3.273    3.636    0.000    0.000    0.000    0.000 
#    0.000    0.000    0.000    0.000    0.000    0.000 
#
# Total GULP energy -122489.166672 kJ/mol
# GULP energy per Si atom -5567.689394 kJ/mol
# Density = 2.049474 g / cm^3
# Si number density = 20.541491 Si / 1000 Ang^3
#
#
#
# Elastic Constant Matrix: (Units=GPa)
#
#
# Indices 1 2 3 4 5 6 
#
# 1 98.3564 2.2609 12.0153 0.0000 0.0000 0.0000
# 2 2.2609 102.6201 12.9878 0.0000 0.0000 0.0000
# 3 12.0153 12.9878 81.8436 0.0000 0.0000 0.0000
# 4 0.0000 0.0000 0.0000 -0.9750 0.0000 0.0000
# 5 0.0000 0.0000 0.0000 0.0000 1.3419 0.0000
# 6 0.0000 0.0000 0.0000 0.0000 0.0000 31.8381
#
#
#
# Elastic Compliance Matrix: (Units=1/GPa)
#
#
# Indices 1 2 3 4 5 6 
#
# 1 0.010353 -0.000036 -0.001514 0.000000 0.000000 0.000000
# 2 -0.000036 0.009945 -0.001573 0.000000 0.000000 0.000000
# 3 -0.001514 -0.001573 0.012690 0.000000 0.000000 0.000000
# 4 0.000000 0.000000 0.000000 -1.025684 0.000000 0.000000
# 5 0.000000 0.000000 0.000000 0.000000 0.745194 0.000000
# 6 0.000000 0.000000 0.000000 0.000000 0.000000 0.031409
#
#
# Mechanical properties :
#
#
# Convention : Reuss Voigt Hill
#
# Bulk Modulus (GPa) = 37.39563 37.48313 37.43938
# Shear Modulus (GPa) = -24.88380 23.47807 -0.70286
#
# Velocity S-wave (km/s) = -3.48428 3.38443 -0.58559
# Velocity P-wave (km/s) = 1.43439 5.79307 4.22002
#
# Compressibility (1/GPa) = 0.02674109
#
# Stress axis : x y z
#
# Youngs Moduli (GPa) = 96.59118 100.55772 78.80037
#
# Poissons Ratio (x) = 0.00367 0.11931
# Poissons Ratio (y) = 0.00352 0.12393
# Poissons Ratio (z) = 0.14625 0.15815
#
# Static dielectric constant tensor:
#      x y z
#    x 1.829290 0.000000 0.000000 
#    y 0.000000 1.797120 0.000000 
#    z 0.000000 0.000000 1.712030 
# 
# From -- ./inp_files/7857.got.cif
#   From: 2010.05.17/outbox.cif.g08.bks.cpg/sg41_4_cif.got.tgz:7857.got - 2010.06.03 18:54:24.
