data_PCOD9366928
_publ_section_title
;
Structure prediction by ZEFSAII (Michael W. Deem and Ramdas Pophale) SiO2 
 PCOD9366928
Probable space group: A B A 2
;
_chemical_formula_sum "Si O2"
_cell_formula_units_Z 60
_cell_length_a 8.865156
_cell_length_b 10.356452
_cell_length_c 24.718508
_cell_angle_alpha 90.000000
_cell_angle_beta 90.000000
_cell_angle_gamma 90.000000
_cell_volume 2269.444844
_symmetry_space_group_name_H-M "A B A 2"
_symmetry_group_IT_number 41
_symmetry_cell_setting 'orthorhombic'
loop_
_space_group_symop_operation_xyz
x,y,z
-x,-y,z
1/2-x,y,1/2+z
1/2+x,-y,1/2+z
x,1/2+y,1/2+z
-x,1/2-y,1/2+z
1/2-x,1/2+y,z
1/2+x,1/2-y,z
loop_
_atom_site_type_symbol
_atom_site_label
_atom_site_fract_x
_atom_site_fract_y
_atom_site_fract_z
Si Si1 0.943251 0.792266 0.612670
Si Si2 0.164264 0.005401 0.289686
Si Si3 0.321326 0.210008 0.868440
Si Si4 0.352557 0.661164 0.181992
Si Si5 0.726434 0.127542 0.048897
Si Si6 0.076286 0.858724 0.773674
Si Si7 0.435017 0.279824 0.443564
Si Si8 0.000000 0.500000 0.495435
O O1 0.812556 0.835017 0.654894
O O2 0.838421 0.746879 0.563080
O O3 0.021301 0.661167 0.635922
O O4 0.093825 0.875710 0.595865
O O5 0.248514 0.100108 0.330229
O O6 0.156288 0.057121 0.228858
O O7 0.243551 0.872143 0.283318
O O8 0.000000 0.000000 0.312247
O O9 0.444420 0.281142 0.829314
O O10 0.195387 0.291509 0.898617
O O11 0.416385 0.156628 0.918922
O O12 0.419980 0.781838 0.217722
O O13 0.627811 0.155575 0.996834
O O14 0.848843 0.019000 0.032281
O O15 0.000000 0.000000 0.768950
O O16 0.474670 0.129368 0.458994
#
# Coordination Sequence:
#
# PCOD9366928 Si02
#       8
#     8   8   8   8   8   8   8   4
#     4  10  21  44  73  95 142 179 224 297 361 412
#     4  11  23  40  63  97 139 179 230 283 338 416
#     4  11  25  40  68  99 141 186 233 285 352 421
#     4  10  22  42  66 100 137 180 229 289 345 425
#     4  11  23  47  70 103 139 181 232 304 356 426
#     4  11  23  41  66 102 141 185 233 286 349 420
#     4  12  24  45  69 100 139 185 236 297 357 417
#     4  12  26  44  76  98 140 186 238 300 362 428
#
# _framework density 26.438181
#
# number of rings (size 3 to 8) (size 9 to 14) (size 15 to 20)
#    0.000    1.067    2.667    3.200    2.800    5.333 
#    6.000    6.000    0.000    0.000    0.000    0.000 
#    0.000    0.000    0.000    0.000    0.000    0.000 
#
# Total GULP energy -167355.681781 kJ/mol
# GULP energy per Si atom -5578.522726 kJ/mol
# Density = 2.637801 g / cm^3
# Si number density = 26.438181 Si / 1000 Ang^3
#
#
#
# Elastic Constant Matrix: (Units=GPa)
#
#
# Indices 1 2 3 4 5 6 
#
# 1 125.1491 11.1712 36.2852 0.0000 0.0000 0.0000
# 2 11.1712 47.0610 19.2208 0.0000 0.0000 0.0000
# 3 36.2852 19.2208 117.7108 0.0000 0.0000 0.0000
# 4 0.0000 0.0000 0.0000 11.2459 0.0000 0.0000
# 5 0.0000 0.0000 0.0000 0.0000 31.4592 0.0000
# 6 0.0000 0.0000 0.0000 0.0000 0.0000 45.8119
#
#
#
# Elastic Compliance Matrix: (Units=1/GPa)
#
#
# Indices 1 2 3 4 5 6 
#
# 1 0.008823 -0.001054 -0.002548 0.000000 0.000000 0.000000
# 2 -0.001054 0.022893 -0.003413 0.000000 0.000000 0.000000
# 3 -0.002548 -0.003413 0.009838 0.000000 0.000000 0.000000
# 4 0.000000 0.000000 0.000000 0.088922 0.000000 0.000000
# 5 0.000000 0.000000 0.000000 0.000000 0.031787 0.000000
# 6 0.000000 0.000000 0.000000 0.000000 0.000000 0.021828
#
#
# Mechanical properties :
#
#
# Convention : Reuss Voigt Hill
#
# Bulk Modulus (GPa) = 36.33097 47.03058 41.68077
# Shear Modulus (GPa) = 24.12004 32.58631 28.35317
#
# Velocity S-wave (km/s) = 3.02374 3.51457 3.27835
# Velocity P-wave (km/s) = 5.09533 5.85638 5.48906
#
# Compressibility (1/GPa) = 0.02752473
#
# Stress axis : x y z
#
# Youngs Moduli (GPa) = 113.33730 43.68092 101.64554
#
# Poissons Ratio (x) = 0.04603 0.25897
# Poissons Ratio (y) = 0.11944 0.34695
# Poissons Ratio (z) = 0.28875 0.14910
#
# Static dielectric constant tensor:
#      x y z
#    x 2.153040 0.000000 0.000000 
#    y 0.000000 2.199590 0.000000 
#    z 0.000000 0.000000 2.263550 
# 
# From -- ./inp_files/12459.got.cif
#   From: 2010.05.17/outbox.cif.g08.bks.cpg/sg41_7_cif.got.tgz:12459.got - 2010.06.03 18:54:24.
