data_PCOD9366346
_publ_section_title
;
Structure prediction by ZEFSAII (Michael W. Deem and Ramdas Pophale) SiO2 
 PCOD9366346
Probable space group: A B A 2
;
_chemical_formula_sum "Si O2"
_cell_formula_units_Z 60
_cell_length_a 11.894070
_cell_length_b 8.608508
_cell_length_c 27.158886
_cell_angle_alpha 90.000000
_cell_angle_beta 90.000000
_cell_angle_gamma 90.000000
_cell_volume 2780.803681
_symmetry_space_group_name_H-M "A B A 2"
_symmetry_group_IT_number 41
_symmetry_cell_setting 'orthorhombic'
loop_
_space_group_symop_operation_xyz
x,y,z
-x,-y,z
1/2-x,y,1/2+z
1/2+x,-y,1/2+z
x,1/2+y,1/2+z
-x,1/2-y,1/2+z
1/2-x,1/2+y,z
1/2+x,1/2-y,z
loop_
_atom_site_type_symbol
_atom_site_label
_atom_site_fract_x
_atom_site_fract_y
_atom_site_fract_z
Si Si1 0.718192 0.854282 0.994600
Si Si2 0.243452 0.460292 0.243337
Si Si3 0.500000 0.500000 0.536709
Si Si4 0.872099 0.562466 0.439598
Si Si5 0.395917 0.400367 0.832903
Si Si6 0.423726 0.659179 0.072293
Si Si7 0.037631 0.826077 0.265956
Si Si8 0.883402 0.781423 0.185222
O O1 0.660823 0.691492 0.980148
O O2 0.789235 0.918964 0.948727
O O3 0.615555 0.970498 0.007088
O O4 0.811931 0.847416 0.038001
O O5 0.170246 0.497149 0.291457
O O6 0.329025 0.333768 0.266870
O O7 0.170747 0.382020 0.200194
O O8 0.314220 0.593456 0.217344
O O9 0.482579 0.329710 0.562953
O O10 0.843633 0.635505 0.385705
O O11 0.000000 0.500000 0.447605
O O12 0.500000 0.500000 0.850537
O O13 0.457061 0.267628 0.801904
O O14 0.500000 0.500000 0.066036
O O15 0.386774 0.669423 0.129247
O O16 0.006312 0.780861 0.209952
O O17 0.000000 0.000000 0.275606
#
# Coordination Sequence:
#
# PCOD9366346 Si02
#       8
#     8   8   4   8   8   8   8   8
#     4  12  25  49  73 101 138 183 237 299 365 430
#     4  10  20  39  64  93 138 178 224 278 341 420
#     4  12  28  48  74 106 140 196 240 296 382 422
#     4  11  26  46  72 104 139 181 238 300 354 430
#     4  10  22  40  62  97 133 174 226 282 344 413
#     4  12  27  49  76 106 148 185 243 305 356 437
#     4   9  19  38  61  92 135 175 223 275 338 407
#     4  10  23  39  64 100 132 182 227 282 349 412
#
# _framework density 21.576495999999999
#
# number of rings (size 3 to 8) (size 9 to 14) (size 15 to 20)
#    0.000    1.333    1.333    4.000    1.867    6.400 
#    6.000    0.000    0.000    0.000    0.000    0.000 
#    0.000    0.000    0.000    0.000    0.000    0.000 
#
# Total GULP energy -167090.396337 kJ/mol
# GULP energy per Si atom -5569.679878 kJ/mol
# Density = 2.152739 g / cm^3
# Si number density = 21.576496 Si / 1000 Ang^3
#
#
#
# Elastic Constant Matrix: (Units=GPa)
#
#
# Indices 1 2 3 4 5 6 
#
# 1 84.5475 30.1584 31.4946 0.0000 0.0000 0.0000
# 2 30.1584 91.0103 20.3620 0.0000 0.0000 0.0000
# 3 31.4946 20.3620 132.4295 0.0000 0.0000 0.0000
# 4 0.0000 0.0000 0.0000 12.3261 0.0000 0.0000
# 5 0.0000 0.0000 0.0000 0.0000 30.5801 0.0000
# 6 0.0000 0.0000 0.0000 0.0000 0.0000 26.2772
#
#
#
# Elastic Compliance Matrix: (Units=1/GPa)
#
#
# Indices 1 2 3 4 5 6 
#
# 1 0.014334 -0.004129 -0.002774 0.000000 0.000000 0.000000
# 2 -0.004129 0.012569 -0.000951 0.000000 0.000000 0.000000
# 3 -0.002774 -0.000951 0.008357 0.000000 0.000000 0.000000
# 4 0.000000 0.000000 0.000000 0.081129 0.000000 0.000000
# 5 0.000000 0.000000 0.000000 0.000000 0.032701 0.000000
# 6 0.000000 0.000000 0.000000 0.000000 0.000000 0.038056
#
#
# Mechanical properties :
#
#
# Convention : Reuss Voigt Hill
#
# Bulk Modulus (GPa) = 51.14515 52.44635 51.79575
# Shear Modulus (GPa) = 23.88112 28.90149 26.39131
#
# Velocity S-wave (km/s) = 3.33049 3.66387 3.50115
# Velocity P-wave (km/s) = 6.20847 6.50066 6.35624
#
# Compressibility (1/GPa) = 0.01955219
#
# Stress axis : x y z
#
# Youngs Moduli (GPa) = 69.76454 79.56239 119.65932
#
# Poissons Ratio (x) = 0.32853 0.33194
# Poissons Ratio (y) = 0.28807 0.11374
# Poissons Ratio (z) = 0.19353 0.07563
#
# Static dielectric constant tensor:
#      x y z
#    x 1.833880 0.000000 0.000000 
#    y 0.000000 1.917130 0.000000 
#    z 0.000000 0.000000 1.805600 
# 
# From -- ./inp_files/12525.got.cif
#   From: 2010.05.17/outbox.cif.g08.bks.cpg/sg41_7_cif.got.tgz:12525.got - 2010.06.03 18:54:24.
