data_PCOD9366405
_publ_section_title
;
Structure prediction by ZEFSAII (Michael W. Deem and Ramdas Pophale) SiO2 
 PCOD9366405
Probable space group: A B A 2
;
_chemical_formula_sum "Si O2"
_cell_formula_units_Z 48
_cell_length_a 22.061216
_cell_length_b 8.968680
_cell_length_c 10.944668
_cell_angle_alpha 90.000000
_cell_angle_beta 90.000000
_cell_angle_gamma 90.000000
_cell_volume 2165.511865
_symmetry_space_group_name_H-M "A B A 2"
_symmetry_group_IT_number 41
_symmetry_cell_setting 'orthorhombic'
loop_
_space_group_symop_operation_xyz
x,y,z
-x,-y,z
1/2-x,y,1/2+z
1/2+x,-y,1/2+z
x,1/2+y,1/2+z
-x,1/2-y,1/2+z
1/2-x,1/2+y,z
1/2+x,1/2-y,z
loop_
_atom_site_type_symbol
_atom_site_label
_atom_site_fract_x
_atom_site_fract_y
_atom_site_fract_z
Si Si1 0.940269 0.915304 0.479020
Si Si2 0.306520 0.609357 0.435285
Si Si3 0.940798 0.560463 0.494387
Si Si4 0.602624 0.418506 0.752753
Si Si5 0.724379 0.094920 0.307026
Si Si6 0.834019 0.658495 0.647036
O O1 0.874888 0.952153 0.419388
O O2 0.947415 0.736377 0.465609
O O3 0.930945 0.947342 0.624377
O O4 0.000000 0.000000 0.435086
O O5 0.289742 0.733897 0.335276
O O6 0.254762 0.485464 0.424795
O O7 0.311112 0.707867 0.558159
O O8 0.934468 0.462782 0.372233
O O9 0.878745 0.553418 0.570785
O O10 0.000000 0.500000 0.562596
O O11 0.663235 0.517250 0.765250
O O12 0.624992 0.247980 0.745296
O O13 0.777395 0.083090 0.208795
#
# Coordination Sequence:
#
# PCOD9366405 Si02
#       6
#     8   8   8   8   8   8
#     4  10  23  44  62  97 132 171 223 263 325 388
#     4  10  24  40  67  95 130 170 211 270 323 389
#     4  10  21  42  66  91 127 176 220 263 320 391
#     4  10  20  40  66  92 129 171 206 270 326 374
#     4  12  21  42  65  98 130 165 215 266 331 382
#     4  10  24  40  63 101 134 163 220 268 325 393
#
# _framework density 22.165659999999999
#
# number of rings (size 3 to 8) (size 9 to 14) (size 15 to 20)
#    0.000    2.000    5.000    0.500    4.667    1.333 
#    3.000    4.167    0.000    0.000    0.000    0.000 
#    0.000    0.000    0.000    0.000    0.000    0.000 
#
# Total GULP energy -134048.351056 kJ/mol
# GULP energy per Si atom -5585.347961 kJ/mol
# Density = 2.211521 g / cm^3
# Si number density = 22.165660 Si / 1000 Ang^3
#
#
#
# Elastic Constant Matrix: (Units=GPa)
#
#
# Indices 1 2 3 4 5 6 
#
# 1 115.5826 21.0526 27.7443 0.0000 0.0000 0.0000
# 2 21.0526 41.0598 24.9619 0.0000 0.0000 0.0000
# 3 27.7443 24.9619 68.1881 0.0000 0.0000 0.0000
# 4 0.0000 0.0000 0.0000 -4.2081 0.0000 0.0000
# 5 0.0000 0.0000 0.0000 0.0000 32.8531 0.0000
# 6 0.0000 0.0000 0.0000 0.0000 0.0000 36.9611
#
#
#
# Elastic Compliance Matrix: (Units=1/GPa)
#
#
# Indices 1 2 3 4 5 6 
#
# 1 0.009943 -0.003394 -0.002803 0.000000 0.000000 0.000000
# 2 -0.003394 0.032485 -0.010511 0.000000 0.000000 0.000000
# 3 -0.002803 -0.010511 0.019654 0.000000 0.000000 0.000000
# 4 0.000000 0.000000 0.000000 -0.237636 0.000000 0.000000
# 5 0.000000 0.000000 0.000000 0.000000 0.030439 0.000000
# 6 0.000000 0.000000 0.000000 0.000000 0.000000 0.027055
#
#
# Mechanical properties :
#
#
# Convention : Reuss Voigt Hill
#
# Bulk Modulus (GPa) = 34.88521 41.37201 38.12861
# Shear Modulus (GPa) = -66.58686 23.19268 -21.69709
#
# Velocity S-wave (km/s) = -5.48687 3.23822 -3.13207
# Velocity P-wave (km/s) = 4.93644 5.71724 2.03941
#
# Compressibility (1/GPa) = 0.02866545
#
# Stress axis : x y z
#
# Youngs Moduli (GPa) = 100.57476 30.78354 50.88118
#
# Poissons Ratio (x) = 0.10447 0.14263
# Poissons Ratio (y) = 0.34134 0.53481
# Poissons Ratio (z) = 0.28192 0.32356
#
# Static dielectric constant tensor:
#      x y z
#    x 1.816810 0.000000 0.000000 
#    y 0.000000 1.799890 0.000000 
#    z 0.000000 0.000000 1.874100 
# 
# From -- ./inp_files/6400.got.cif
#   From: 2010.05.17/outbox.cif.g08.bks.cpg/sg41_4_cif.got.tgz:6400.got - 2010.06.03 18:54:24.
