data_PCOD9366722
_publ_section_title
;
Structure prediction by ZEFSAII (Michael W. Deem and Ramdas Pophale) SiO2 
 PCOD9366722
Probable space group: A B A 2
;
_chemical_formula_sum "Si O2"
_cell_formula_units_Z 56
_cell_length_a 30.022475
_cell_length_b 5.335973
_cell_length_c 13.879589
_cell_angle_alpha 90.000000
_cell_angle_beta 90.000000
_cell_angle_gamma 90.000000
_cell_volume 2223.497888
_symmetry_space_group_name_H-M "A B A 2"
_symmetry_group_IT_number 41
_symmetry_cell_setting 'orthorhombic'
loop_
_space_group_symop_operation_xyz
x,y,z
-x,-y,z
1/2-x,y,1/2+z
1/2+x,-y,1/2+z
x,1/2+y,1/2+z
-x,1/2-y,1/2+z
1/2-x,1/2+y,z
1/2+x,1/2-y,z
loop_
_atom_site_type_symbol
_atom_site_label
_atom_site_fract_x
_atom_site_fract_y
_atom_site_fract_z
Si Si1 0.272259 0.869403 0.078710
Si Si2 0.135441 0.669315 0.585138
Si Si3 0.276152 0.861219 0.313093
Si Si4 0.127429 0.189662 0.301081
Si Si5 0.450779 0.580422 0.773986
Si Si6 0.081480 0.195408 0.578714
Si Si7 0.952813 0.048164 0.407673
O O1 0.235245 0.660008 0.053141
O O2 0.317497 0.745134 0.041233
O O3 0.275802 0.871662 0.195643
O O4 0.142690 0.582908 0.697103
O O5 0.108697 0.932108 0.582676
O O6 0.109970 0.431038 0.542867
O O7 0.244991 0.626873 0.342454
O O8 0.327239 0.806387 0.342917
O O9 0.089214 0.386546 0.274091
O O10 0.096948 0.013104 0.367053
O O11 0.500000 0.500000 0.746882
O O12 0.437192 0.761101 0.684850
O O13 0.452322 0.659567 0.886273
O O14 0.043826 0.113375 0.503204
O O15 0.000000 0.000000 0.351678
#
# Coordination Sequence:
#
# PCOD9366722 Si02
#       7
#     8   8   8   8   8   8   8
#     4   9  16  29  56  90 125 163 216 275 329 398
#     4  10  21  40  62  96 131 176 224 274 341 404
#     4   9  19  33  57  94 127 165 219 272 329 399
#     4  10  22  39  67  93 134 178 221 279 338 400
#     4  11  23  43  66  98 136 180 225 284 340 409
#     4  11  25  41  66  95 135 176 223 278 336 406
#     4  12  25  43  67 100 133 182 229 279 343 413
#
# _framework density 25.185541000000001
#
# number of rings (size 3 to 8) (size 9 to 14) (size 15 to 20)
#    0.000    1.714    2.857    1.286    4.000    3.429 
#    0.000    1.429    0.000    5.143    0.000    0.000 
#    0.000    0.000    0.000    0.000    0.000    0.000 
#
# Total GULP energy -155910.242387 kJ/mol
# GULP energy per Si atom -5568.222942 kJ/mol
# Density = 2.512822 g / cm^3
# Si number density = 25.185541 Si / 1000 Ang^3
#
#
#
# Elastic Constant Matrix: (Units=GPa)
#
#
# Indices 1 2 3 4 5 6 
#
# 1 106.1334 11.8930 -0.5774 0.0000 0.0000 0.0000
# 2 11.8930 63.6724 -5.2724 0.0000 0.0000 0.0000
# 3 -0.5774 -5.2724 68.4375 0.0000 0.0000 0.0000
# 4 0.0000 0.0000 0.0000 14.8415 0.0000 0.0000
# 5 0.0000 0.0000 0.0000 0.0000 23.7610 0.0000
# 6 0.0000 0.0000 0.0000 0.0000 0.0000 21.4345
#
#
#
# Elastic Compliance Matrix: (Units=1/GPa)
#
#
# Indices 1 2 3 4 5 6 
#
# 1 0.009624 -0.001802 -0.000058 0.000000 0.000000 0.000000
# 2 -0.001802 0.016144 0.001229 0.000000 0.000000 0.000000
# 3 -0.000058 0.001229 0.014706 0.000000 0.000000 0.000000
# 4 0.000000 0.000000 0.000000 0.067379 0.000000 0.000000
# 5 0.000000 0.000000 0.000000 0.000000 0.042086 0.000000
# 6 0.000000 0.000000 0.000000 0.000000 0.000000 0.046654
#
#
# Mechanical properties :
#
#
# Convention : Reuss Voigt Hill
#
# Bulk Modulus (GPa) = 25.50330 27.81439 26.65885
# Shear Modulus (GPa) = 23.70510 27.48739 25.59624
#
# Velocity S-wave (km/s) = 3.07126 3.30721 3.19142
# Velocity P-wave (km/s) = 4.76707 5.06471 4.91814
#
# Compressibility (1/GPa) = 0.03921061
#
# Stress axis : x y z
#
# Youngs Moduli (GPa) = 103.90949 61.94336 67.99926
#
# Poissons Ratio (x) = 0.11164 0.00392
# Poissons Ratio (y) = 0.18728 -0.08354
# Poissons Ratio (z) = 0.00599 -0.07610
#
# Static dielectric constant tensor:
#      x y z
#    x 1.988100 0.000000 0.000000 
#    y 0.000000 2.010300 0.000000 
#    z 0.000000 0.000000 2.410900 
# 
# From -- ./inp_files/9281.got.cif
#   From: 2010.05.17/outbox.cif.g08.bks.cpg/sg41_5_cif.got.tgz:9281.got - 2010.06.03 18:54:24.
