data_PCOD9366779
_publ_section_title
;
Structure prediction by ZEFSAII (Michael W. Deem and Ramdas Pophale) SiO2 
 PCOD9366779
Probable space group: A B A 2
;
_chemical_formula_sum "Si O2"
_cell_formula_units_Z 64
_cell_length_a 18.914116
_cell_length_b 13.086539
_cell_length_c 11.713260
_cell_angle_alpha 90.000000
_cell_angle_beta 90.000000
_cell_angle_gamma 90.000000
_cell_volume 2899.269825
_symmetry_space_group_name_H-M "A B A 2"
_symmetry_group_IT_number 41
_symmetry_cell_setting 'orthorhombic'
loop_
_space_group_symop_operation_xyz
x,y,z
-x,-y,z
1/2-x,y,1/2+z
1/2+x,-y,1/2+z
x,1/2+y,1/2+z
-x,1/2-y,1/2+z
1/2-x,1/2+y,z
1/2+x,1/2-y,z
loop_
_atom_site_type_symbol
_atom_site_label
_atom_site_fract_x
_atom_site_fract_y
_atom_site_fract_z
Si Si1 0.195747 0.484482 0.632010
Si Si2 0.668389 0.192721 0.446715
Si Si3 0.798099 0.301949 0.512943
Si Si4 0.443280 0.918650 0.753241
Si Si5 0.987204 0.684855 0.520713
Si Si6 0.667523 0.126869 0.195014
Si Si7 0.990557 0.109469 0.640925
Si Si8 0.412914 0.691463 0.833440
O O1 0.183762 0.405282 0.527090
O O2 0.186917 0.597209 0.584236
O O3 0.135162 0.462095 0.726522
O O4 0.275398 0.462579 0.674693
O O5 0.714980 0.284363 0.495696
O O6 0.585724 0.210091 0.458771
O O7 0.688346 0.175640 0.315941
O O8 0.823781 0.205934 0.589567
O O9 0.835353 0.308428 0.388591
O O10 0.473894 0.885031 0.629627
O O11 0.434523 0.810763 0.817919
O O12 0.500000 0.000000 0.800657
O O13 0.017437 0.792318 0.562752
O O14 0.041100 0.638076 0.431988
O O15 0.584712 0.099890 0.205591
O O16 0.058934 0.137132 0.719180
O O17 0.000000 0.000000 0.583233
#
# Coordination Sequence:
#
# PCOD9366779 Si02
#       8
#     8   8   8   8   8   8   8   8
#     4  10  24  41  65  92 125 171 211 260 319 385
#     4  10  23  42  64  93 128 166 212 266 315 388
#     4  11  24  42  67  92 131 169 209 266 319 385
#     4  10  22  39  64  90 125 162 211 262 315 385
#     4  10  21  41  61  91 125 162 213 260 321 373
#     4  11  23  44  62  95 131 163 216 266 317 380
#     4  11  25  39  65  93 129 169 212 271 318 383
#     4  11  22  40  64  94 123 167 212 260 320 379
#
# _framework density 22.074524
#
# number of rings (size 3 to 8) (size 9 to 14) (size 15 to 20)
#    0.000    1.500    2.500    1.500    5.250    3.000 
#    0.000    0.000    0.000    0.000    0.000    0.000 
#    0.000    0.000    0.000    0.000    0.000    0.000 
#
# Total GULP energy -178642.568863 kJ/mol
# GULP energy per Si atom -5582.580277 kJ/mol
# Density = 2.202428 g / cm^3
# Si number density = 22.074524 Si / 1000 Ang^3
#
#
#
# Elastic Constant Matrix: (Units=GPa)
#
#
# Indices 1 2 3 4 5 6 
#
# 1 84.5267 25.8062 -2.9464 0.0000 0.0000 0.0000
# 2 25.8062 67.5823 -11.4416 0.0000 0.0000 0.0000
# 3 -2.9464 -11.4416 48.3347 0.0000 0.0000 0.0000
# 4 0.0000 0.0000 0.0000 -8.8577 0.0000 0.0000
# 5 0.0000 0.0000 0.0000 0.0000 10.6744 0.0000
# 6 0.0000 0.0000 0.0000 0.0000 0.0000 11.8307
#
#
#
# Elastic Compliance Matrix: (Units=1/GPa)
#
#
# Indices 1 2 3 4 5 6 
#
# 1 0.013400 -0.005186 -0.000411 0.000000 0.000000 0.000000
# 2 -0.005186 0.017422 0.003808 0.000000 0.000000 0.000000
# 3 -0.000411 0.003808 0.021565 0.000000 0.000000 0.000000
# 4 0.000000 0.000000 0.000000 -0.112896 0.000000 0.000000
# 5 0.000000 0.000000 0.000000 0.000000 0.093682 0.000000
# 6 0.000000 0.000000 0.000000 0.000000 0.000000 0.084526
#
#
# Mechanical properties :
#
#
# Convention : Reuss Voigt Hill
#
# Bulk Modulus (GPa) = 20.48823 24.80890 22.64856
# Shear Modulus (GPa) = 36.35149 15.33120 25.84134
#
# Velocity S-wave (km/s) = 4.06243 2.63823 3.42517
# Velocity P-wave (km/s) = 5.59518 4.53249 5.09164
#
# Compressibility (1/GPa) = 0.04880852
#
# Stress axis : x y z
#
# Youngs Moduli (GPa) = 74.62908 57.39950 46.37056
#
# Poissons Ratio (x) = 0.29768 0.01905
# Poissons Ratio (y) = 0.38704 -0.17657
# Poissons Ratio (z) = 0.03066 -0.21857
#
# Static dielectric constant tensor:
#      x y z
#    x 1.822860 0.000000 0.000000 
#    y 0.000000 1.779670 0.000000 
#    z 0.000000 0.000000 1.786370 
# 
# From -- ./inp_files/6028.got.cif
#   From: 2010.05.17/outbox.cif.g08.bks.cpg/sg41_4_cif.got.tgz:6028.got - 2010.06.03 18:54:24.
