data_PCOD9366411
_publ_section_title
;
Structure prediction by ZEFSAII (Michael W. Deem and Ramdas Pophale) SiO2 
 PCOD9366411
Probable space group: A B A 2
;
_chemical_formula_sum "Si O2"
_cell_formula_units_Z 44
_cell_length_a 15.436336
_cell_length_b 11.908872
_cell_length_c 10.185490
_cell_angle_alpha 90.000000
_cell_angle_beta 90.000000
_cell_angle_gamma 90.000000
_cell_volume 1872.392002
_symmetry_space_group_name_H-M "A B A 2"
_symmetry_group_IT_number 41
_symmetry_cell_setting 'orthorhombic'
loop_
_space_group_symop_operation_xyz
x,y,z
-x,-y,z
1/2-x,y,1/2+z
1/2+x,-y,1/2+z
x,1/2+y,1/2+z
-x,1/2-y,1/2+z
1/2-x,1/2+y,z
1/2+x,1/2-y,z
loop_
_atom_site_type_symbol
_atom_site_label
_atom_site_fract_x
_atom_site_fract_y
_atom_site_fract_z
Si Si1 0.748997 0.150001 0.019760
Si Si2 0.176642 0.547354 0.652050
Si Si3 0.506472 0.751552 0.374835
Si Si4 0.418096 0.779918 0.122732
Si Si5 0.700193 0.791389 0.274519
Si Si6 0.500000 0.500000 0.285968
O O1 0.646397 0.132843 0.054564
O O2 0.791996 0.220885 0.139081
O O3 0.790841 0.027936 0.032657
O O4 0.752186 0.219631 0.885329
O O5 0.139118 0.668072 0.616689
O O6 0.255516 0.587127 0.747086
O O7 0.092222 0.488136 0.712584
O O8 0.443330 0.808843 0.270212
O O9 0.501830 0.759098 0.531811
O O10 0.601889 0.790728 0.327144
O O11 0.491420 0.618701 0.356555
#
# Coordination Sequence:
#
# PCOD9366411 Si02
#       6
#     8   8   8   8   8   4
#     4  10  21  41  63  95 128 168 221 266 331 398
#     4  10  21  42  67  93 128 178 217 267 337 399
#     4  10  20  42  62  94 131 164 217 263 327 391
#     4   9  22  40  65  97 128 168 216 271 326 388
#     4  10  22  38  65  96 128 168 218 275 321 395
#     4  10  20  40  68  86 124 178 212 252 340 400
#
# _framework density 23.499352999999999
#
# number of rings (size 3 to 8) (size 9 to 14) (size 15 to 20)
#    0.000    2.182    1.818    0.000    0.000    8.727 
#    6.545    0.000    0.000    0.000    0.000    0.000 
#    0.000    0.000    0.000    0.000    0.000    0.000 
#
# Total GULP energy -122550.846363 kJ/mol
# GULP energy per Si atom -5570.493016 kJ/mol
# Density = 2.344587 g / cm^3
# Si number density = 23.499353 Si / 1000 Ang^3
#
#
#
# Elastic Constant Matrix: (Units=GPa)
#
#
# Indices 1 2 3 4 5 6 
#
# 1 70.3043 8.3747 20.2628 0.0000 0.0000 0.0000
# 2 8.3747 28.0141 -12.1172 0.0000 0.0000 0.0000
# 3 20.2628 -12.1172 28.2539 0.0000 0.0000 0.0000
# 4 0.0000 0.0000 0.0000 26.1849 0.0000 0.0000
# 5 0.0000 0.0000 0.0000 0.0000 27.9397 0.0000
# 6 0.0000 0.0000 0.0000 0.0000 0.0000 33.3914
#
#
#
# Elastic Compliance Matrix: (Units=1/GPa)
#
#
# Indices 1 2 3 4 5 6 
#
# 1 0.023250 -0.017389 -0.024132 0.000000 0.000000 0.000000
# 2 -0.017389 0.056831 0.036843 0.000000 0.000000 0.000000
# 3 -0.024132 0.036843 0.068501 0.000000 0.000000 0.000000
# 4 0.000000 0.000000 0.000000 0.038190 0.000000 0.000000
# 5 0.000000 0.000000 0.000000 0.000000 0.035791 0.000000
# 6 0.000000 0.000000 0.000000 0.000000 0.000000 0.029948
#
#
# Mechanical properties :
#
#
# Convention : Reuss Voigt Hill
#
# Bulk Modulus (GPa) = 7.18248 17.73478 12.45863
# Shear Modulus (GPa) = 16.21933 24.83999 20.52966
#
# Velocity S-wave (km/s) = 2.63002 3.25476 2.95892
# Velocity P-wave (km/s) = 3.50511 4.65703 4.12151
#
# Compressibility (1/GPa) = 0.13922763
#
# Stress axis : x y z
#
# Youngs Moduli (GPa) = 43.01007 17.59617 14.59837
#
# Poissons Ratio (x) = 0.30597 0.35228
# Poissons Ratio (y) = 0.74788 -0.53785
# Poissons Ratio (z) = 1.03791 -0.64830
#
# Static dielectric constant tensor:
#      x y z
#    x 2.048400 0.000000 0.000000 
#    y 0.000000 1.989450 0.000000 
#    z 0.000000 0.000000 2.002070 
# 
# From -- ./inp_files/5891.got.cif
#   From: 2010.05.17/outbox.cif.g08.bks.cpg/sg41_3_cif.got.tgz:5891.got - 2010.06.03 18:54:24.
