data_PCOD9366701
_publ_section_title
;
Structure prediction by ZEFSAII (Michael W. Deem and Ramdas Pophale) SiO2 
 PCOD9366701
Probable space group: A B A 2
;
_chemical_formula_sum "Si O2"
_cell_formula_units_Z 64
_cell_length_a 9.208216
_cell_length_b 16.095789
_cell_length_c 18.041707
_cell_angle_alpha 90.000000
_cell_angle_beta 90.000000
_cell_angle_gamma 90.000000
_cell_volume 2674.024573
_symmetry_space_group_name_H-M "A B A 2"
_symmetry_group_IT_number 41
_symmetry_cell_setting 'orthorhombic'
loop_
_space_group_symop_operation_xyz
x,y,z
-x,-y,z
1/2-x,y,1/2+z
1/2+x,-y,1/2+z
x,1/2+y,1/2+z
-x,1/2-y,1/2+z
1/2-x,1/2+y,z
1/2+x,1/2-y,z
loop_
_atom_site_type_symbol
_atom_site_label
_atom_site_fract_x
_atom_site_fract_y
_atom_site_fract_z
Si Si1 0.256879 0.388589 0.998010
Si Si2 0.377043 0.310351 0.134839
Si Si3 0.760442 0.148668 0.291243
Si Si4 0.993737 0.628884 0.379855
Si Si5 0.235891 0.188944 0.986189
Si Si6 0.789342 0.854835 0.134072
Si Si7 0.504561 0.887492 0.902132
Si Si8 0.751084 0.952214 0.788328
O O1 0.379950 0.412910 0.937830
O O2 0.231969 0.288307 0.998051
O O3 0.107797 0.426607 0.964186
O O4 0.320346 0.386692 0.082116
O O5 0.299530 0.315786 0.213268
O O6 0.333372 0.215218 0.117007
O O7 0.549778 0.316585 0.141853
O O8 0.612996 0.181374 0.327071
O O9 0.891920 0.157849 0.347866
O O10 0.741624 0.050378 0.279575
O O11 0.102929 0.677020 0.431173
O O12 0.101340 0.577403 0.327454
O O13 0.387276 0.168509 0.948574
O O14 0.207881 0.115932 0.048434
O O15 0.763323 0.908431 0.207495
O O16 0.614962 0.933747 0.844005
#
# Coordination Sequence:
#
# PCOD9366701 Si02
#       8
#     8   8   8   8   8   8   8   8
#     4  10  21  39  65  97 133 164 209 266 330 380
#     4  11  25  42  66  99 132 168 212 266 324 386
#     4  11  24  45  66  91 133 174 215 264 318 379
#     4  10  22  40  62  94 123 168 219 260 317 376
#     4  10  21  39  65  97 133 164 209 266 330 380
#     4  11  25  42  66  99 132 168 212 266 324 386
#     4  10  22  38  64  92 123 170 213 260 313 382
#     4  11  24  45  66  91 133 174 215 264 318 379
#
# _framework density 23.933961
#
# number of rings (size 3 to 8) (size 9 to 14) (size 15 to 20)
#    0.000    1.500    2.500    1.500    7.000    6.000 
#    0.000    7.500    0.000    0.000    0.000    0.000 
#    0.000    0.000    0.000    0.000    0.000    0.000 
#
# Total GULP energy -178384.495640 kJ/mol
# GULP energy per Si atom -5574.515489 kJ/mol
# Density = 2.387949 g / cm^3
# Si number density = 23.933961 Si / 1000 Ang^3
#
#
#
# Elastic Constant Matrix: (Units=GPa)
#
#
# Indices 1 2 3 4 5 6 
#
# 1 165.5368 11.0229 25.8093 0.0000 0.0000 0.0000
# 2 11.0229 27.6573 14.2525 0.0000 0.0000 0.0000
# 3 25.8093 14.2525 106.6393 0.0000 0.0000 0.0000
# 4 0.0000 0.0000 0.0000 22.0222 0.0000 0.0000
# 5 0.0000 0.0000 0.0000 0.0000 23.3388 0.0000
# 6 0.0000 0.0000 0.0000 0.0000 0.0000 37.2022
#
#
#
# Elastic Compliance Matrix: (Units=1/GPa)
#
#
# Indices 1 2 3 4 5 6 
#
# 1 0.006367 -0.001872 -0.001291 0.000000 0.000000 0.000000
# 2 -0.001872 0.039382 -0.004810 0.000000 0.000000 0.000000
# 3 -0.001291 -0.004810 0.010333 0.000000 0.000000 0.000000
# 4 0.000000 0.000000 0.000000 0.045409 0.000000 0.000000
# 5 0.000000 0.000000 0.000000 0.000000 0.042847 0.000000
# 6 0.000000 0.000000 0.000000 0.000000 0.000000 0.026880
#
#
# Mechanical properties :
#
#
# Convention : Reuss Voigt Hill
#
# Bulk Modulus (GPa) = 24.91605 44.66698 34.79152
# Shear Modulus (GPa) = 24.93237 33.09589 29.01413
#
# Velocity S-wave (km/s) = 3.23106 3.72264 3.48553
# Velocity P-wave (km/s) = 4.93484 6.09758 5.54676
#
# Compressibility (1/GPa) = 0.04013477
#
# Stress axis : x y z
#
# Youngs Moduli (GPa) = 157.06308 25.39231 96.78024
#
# Poissons Ratio (x) = 0.04754 0.12491
# Poissons Ratio (y) = 0.29409 0.46554
# Poissons Ratio (z) = 0.20272 0.12214
#
# Static dielectric constant tensor:
#      x y z
#    x 1.975630 0.000000 0.000000 
#    y 0.000000 2.013530 0.000000 
#    z 0.000000 0.000000 2.218860 
# 
# From -- ./inp_files/9854.got.cif
#   From: 2010.05.17/outbox.cif.g08.bks.cpg/sg41_5_cif.got.tgz:9854.got - 2010.06.03 18:54:24.
