data_PCOD9366804
_publ_section_title
;
Structure prediction by ZEFSAII (Michael W. Deem and Ramdas Pophale) SiO2 
 PCOD9366804
Probable space group: A B A 2
;
_chemical_formula_sum "Si O2"
_cell_formula_units_Z 52
_cell_length_a 14.188212
_cell_length_b 18.099729
_cell_length_c 9.400814
_cell_angle_alpha 90.000000
_cell_angle_beta 90.000000
_cell_angle_gamma 90.000000
_cell_volume 2414.155284
_symmetry_space_group_name_H-M "A B A 2"
_symmetry_group_IT_number 41
_symmetry_cell_setting 'orthorhombic'
loop_
_space_group_symop_operation_xyz
x,y,z
-x,-y,z
1/2-x,y,1/2+z
1/2+x,-y,1/2+z
x,1/2+y,1/2+z
-x,1/2-y,1/2+z
1/2-x,1/2+y,z
1/2+x,1/2-y,z
loop_
_atom_site_type_symbol
_atom_site_label
_atom_site_fract_x
_atom_site_fract_y
_atom_site_fract_z
Si Si1 0.500000 0.000000 0.793051
Si Si2 0.827128 0.926308 0.400743
Si Si3 0.765596 0.092544 0.426212
Si Si4 0.106706 0.293225 0.083328
Si Si5 0.872607 0.619362 0.654504
Si Si6 0.947546 0.764587 0.785678
Si Si7 0.760189 0.831045 0.661846
O O1 0.562843 0.946055 0.889147
O O2 0.430229 0.953331 0.695130
O O3 0.801028 0.866893 0.519035
O O4 0.796135 0.892414 0.250407
O O5 0.776069 0.004287 0.432160
O O6 0.848049 0.133226 0.515597
O O7 0.784622 0.117785 0.265339
O O8 0.669044 0.118260 0.497664
O O9 0.190912 0.236962 0.126360
O O10 0.037116 0.304036 0.215950
O O11 0.049759 0.256022 0.951239
O O12 0.935248 0.688591 0.697259
O O13 0.849634 0.806512 0.755628
#
# Coordination Sequence:
#
# PCOD9366804 Si02
#       7
#     4   8   8   8   8   8   8
#     4  10  22  40  68  92 128 176 230 274 358 404
#     4  11  24  41  67  94 136 179 225 285 345 422
#     4  10  22  41  66  89 128 174 224 266 346 405
#     4  11  25  44  67 103 135 179 230 287 347 417
#     4  10  21  41  65  94 126 175 219 281 337 414
#     4  11  25  40  69  99 135 176 229 286 349 413
#     4  12  24  44  66  99 141 178 229 286 351 412
#
# _framework density 21.539625000000001
#
# number of rings (size 3 to 8) (size 9 to 14) (size 15 to 20)
#    0.000    1.231    3.077    2.769    8.615    1.231 
#    0.000    0.000    0.000    0.923    0.000    0.000 
#    0.000    0.000    0.000    0.000    0.000    0.000 
#
# Total GULP energy -145395.946464 kJ/mol
# GULP energy per Si atom -5592.151787 kJ/mol
# Density = 2.149060 g / cm^3
# Si number density = 21.539625 Si / 1000 Ang^3
#
#
#
# Elastic Constant Matrix: (Units=GPa)
#
#
# Indices 1 2 3 4 5 6 
#
# 1 71.5456 13.7370 37.7086 0.0000 0.0000 0.0000
# 2 13.7370 76.6906 6.5667 0.0000 0.0000 0.0000
# 3 37.7086 6.5667 71.3908 0.0000 0.0000 0.0000
# 4 0.0000 0.0000 0.0000 32.5238 0.0000 0.0000
# 5 0.0000 0.0000 0.0000 0.0000 37.1811 0.0000
# 6 0.0000 0.0000 0.0000 0.0000 0.0000 33.4778
#
#
#
# Elastic Compliance Matrix: (Units=1/GPa)
#
#
# Indices 1 2 3 4 5 6 
#
# 1 0.019904 -0.002686 -0.010266 0.000000 0.000000 0.000000
# 2 -0.002686 0.013505 0.000177 0.000000 0.000000 0.000000
# 3 -0.010266 0.000177 0.019414 0.000000 0.000000 0.000000
# 4 0.000000 0.000000 0.000000 0.030747 0.000000 0.000000
# 5 0.000000 0.000000 0.000000 0.000000 0.026895 0.000000
# 6 0.000000 0.000000 0.000000 0.000000 0.000000 0.029871
#
#
# Mechanical properties :
#
#
# Convention : Reuss Voigt Hill
#
# Bulk Modulus (GPa) = 36.66829 37.29464 36.98146
# Shear Modulus (GPa) = 28.57516 31.41085 29.99301
#
# Velocity S-wave (km/s) = 3.64625 3.82289 3.73561
# Velocity P-wave (km/s) = 5.89809 6.06943 5.98437
#
# Compressibility (1/GPa) = 0.02727152
#
# Stress axis : x y z
#
# Youngs Moduli (GPa) = 50.24210 74.04427 51.51007
#
# Poissons Ratio (x) = 0.19889 0.52880
# Poissons Ratio (y) = 0.13496 -0.00909
# Poissons Ratio (z) = 0.51579 -0.01307
#
# Static dielectric constant tensor:
#      x y z
#    x 1.805420 0.000000 0.000000 
#    y 0.000000 1.787980 0.000000 
#    z 0.000000 0.000000 1.753040 
# 
# From -- ./inp_files/2624.got.cif
#   From: 2010.05.17/outbox.cif.g08.bks.cpg/sg41_2_cif.got.tgz:2624.got - 2010.06.03 18:54:24.
