data_PCOD9366882
_publ_section_title
;
Structure prediction by ZEFSAII (Michael W. Deem and Ramdas Pophale) SiO2 
 PCOD9366882
Probable space group: A B A 2
;
_chemical_formula_sum "Si O2"
_cell_formula_units_Z 48
_cell_length_a 23.789701
_cell_length_b 11.686947
_cell_length_c 6.989414
_cell_angle_alpha 90.000000
_cell_angle_beta 90.000000
_cell_angle_gamma 90.000000
_cell_volume 1943.259608
_symmetry_space_group_name_H-M "A B A 2"
_symmetry_group_IT_number 41
_symmetry_cell_setting 'orthorhombic'
loop_
_space_group_symop_operation_xyz
x,y,z
-x,-y,z
1/2-x,y,1/2+z
1/2+x,-y,1/2+z
x,1/2+y,1/2+z
-x,1/2-y,1/2+z
1/2-x,1/2+y,z
1/2+x,1/2-y,z
loop_
_atom_site_type_symbol
_atom_site_label
_atom_site_fract_x
_atom_site_fract_y
_atom_site_fract_z
Si Si1 0.150075 0.901753 0.020330
Si Si2 0.561766 0.982021 0.967486
Si Si3 0.167280 0.150034 0.425793
Si Si4 0.946762 0.928236 0.888898
Si Si5 0.792849 0.893485 0.860419
Si Si6 0.879451 0.707938 0.935586
O O1 0.135818 0.852509 0.230552
O O2 0.157161 0.784524 0.906664
O O3 0.102150 0.985491 0.947426
O O4 0.201680 0.986595 0.974258
O O5 0.500000 0.000000 0.875954
O O6 0.548158 0.913835 0.160292
O O7 0.593182 0.097896 0.035229
O O8 0.610478 0.912377 0.857948
O O9 0.177401 0.111546 0.649922
O O10 0.226982 0.124618 0.333064
O O11 0.929087 0.801816 0.950179
O O12 0.000000 0.000000 0.954200
O O13 0.823984 0.786842 0.968497
#
# Coordination Sequence:
#
# PCOD9366882 Si02
#       6
#     8   8   8   8   8   8
#     4  10  21  43  62  90 134 163 216 270 327 385
#     4  11  24  44  65  96 135 174 220 268 326 392
#     4  11  24  42  65  95 131 169 221 272 331 395
#     4  10  22  42  66  91 127 172 216 266 323 384
#     4  10  24  42  64  96 126 173 215 273 335 386
#     4  10  23  43  61  98 133 163 221 270 318 398
#
# _framework density 24.700765000000001
#
# number of rings (size 3 to 8) (size 9 to 14) (size 15 to 20)
#    0.000    1.667    5.000    0.000    7.000    3.333 
#    3.000    0.000    0.000    0.000    0.000    0.000 
#    0.000    0.000    0.000    0.000    0.000    0.000 
#
# Total GULP energy -133856.259219 kJ/mol
# GULP energy per Si atom -5577.344134 kJ/mol
# Density = 2.464454 g / cm^3
# Si number density = 24.700765 Si / 1000 Ang^3
#
#
#
# Elastic Constant Matrix: (Units=GPa)
#
#
# Indices 1 2 3 4 5 6 
#
# 1 97.2941 20.4806 -0.8128 0.0000 0.0000 0.0000
# 2 20.4806 180.9918 11.0202 0.0000 0.0000 0.0000
# 3 -0.8128 11.0202 69.6703 0.0000 0.0000 0.0000
# 4 0.0000 0.0000 0.0000 50.3762 0.0000 0.0000
# 5 0.0000 0.0000 0.0000 0.0000 8.3955 0.0000
# 6 0.0000 0.0000 0.0000 0.0000 0.0000 25.5857
#
#
#
# Elastic Compliance Matrix: (Units=1/GPa)
#
#
# Indices 1 2 3 4 5 6 
#
# 1 0.010536 -0.001211 0.000315 0.000000 0.000000 0.000000
# 2 -0.001211 0.005718 -0.000919 0.000000 0.000000 0.000000
# 3 0.000315 -0.000919 0.014502 0.000000 0.000000 0.000000
# 4 0.000000 0.000000 0.000000 0.019851 0.000000 0.000000
# 5 0.000000 0.000000 0.000000 0.000000 0.119111 0.000000
# 6 0.000000 0.000000 0.000000 0.000000 0.000000 0.039084
#
#
# Mechanical properties :
#
#
# Convention : Reuss Voigt Hill
#
# Bulk Modulus (GPa) = 36.86598 45.48136 41.17367
# Shear Modulus (GPa) = 22.57593 38.02270 30.29932
#
# Velocity S-wave (km/s) = 3.02649 3.92769 3.50616
# Velocity P-wave (km/s) = 5.21251 6.24675 5.75292
#
# Compressibility (1/GPa) = 0.02712528
#
# Stress axis : x y z
#
# Youngs Moduli (GPa) = 94.91505 174.88273 68.95466
#
# Poissons Ratio (x) = 0.21184 -0.02169
# Poissons Ratio (y) = 0.11498 0.06334
# Poissons Ratio (z) = -0.02985 0.16065
#
# Static dielectric constant tensor:
#      x y z
#    x 2.347590 0.000000 0.000000 
#    y 0.000000 2.004690 0.000000 
#    z 0.000000 0.000000 2.135720 
# 
# From -- ./inp_files/3621.got.cif
#   From: 2010.05.17/outbox.cif.g08.bks.cpg/sg41_2_cif.got.tgz:3621.got - 2010.06.03 18:54:24.
