data_PCOD9366582
_publ_section_title
;
Structure prediction by ZEFSAII (Michael W. Deem and Ramdas Pophale) SiO2 
 PCOD9366582
Probable space group: A B A 2
;
_chemical_formula_sum "Si O2"
_cell_formula_units_Z 64
_cell_length_a 16.478218
_cell_length_b 33.930882
_cell_length_c 5.209958
_cell_angle_alpha 90.000000
_cell_angle_beta 90.000000
_cell_angle_gamma 90.000000
_cell_volume 2912.994168
_symmetry_space_group_name_H-M "A B A 2"
_symmetry_group_IT_number 41
_symmetry_cell_setting 'orthorhombic'
loop_
_space_group_symop_operation_xyz
x,y,z
-x,-y,z
1/2-x,y,1/2+z
1/2+x,-y,1/2+z
x,1/2+y,1/2+z
-x,1/2-y,1/2+z
1/2-x,1/2+y,z
1/2+x,1/2-y,z
loop_
_atom_site_type_symbol
_atom_site_label
_atom_site_fract_x
_atom_site_fract_y
_atom_site_fract_z
Si Si1 0.463600 0.802386 0.080100
Si Si2 0.911064 0.338820 0.689998
Si Si3 0.802876 0.709125 0.604644
Si Si4 0.695261 0.908923 0.867648
Si Si5 0.196743 0.011474 0.191799
Si Si6 0.924526 0.642436 0.476087
Si Si7 0.613714 0.771402 0.365765
Si Si8 0.195095 0.421927 0.695303
O O1 0.423512 0.842958 0.180012
O O2 0.521858 0.783548 0.297390
O O3 0.532166 0.812221 0.871591
O O4 0.398667 0.768470 0.027911
O O5 0.858830 0.370508 0.837480
O O6 0.856864 0.309492 0.517821
O O7 0.980054 0.361703 0.529383
O O8 0.755291 0.700938 0.344113
O O9 0.880575 0.680339 0.607747
O O10 0.832765 0.754461 0.633912
O O11 0.765532 0.908429 0.649067
O O12 0.649086 0.949693 0.786784
O O13 0.229363 0.013641 0.900349
O O14 0.164062 0.967177 0.207451
O O15 0.875082 0.606299 0.589859
O O16 0.234431 0.415831 0.977448
#
# Coordination Sequence:
#
# PCOD9366582 Si02
#       8
#     8   8   8   8   8   8   8   8
#     4  11  21  40  63  82 120 171 220 261 322 385
#     4  11  25  39  67  88 122 170 215 263 329 384
#     4  12  26  40  60  88 125 166 206 268 321 358
#     4  10  23  43  66  95 127 156 206 268 322 378
#     4   8  16  36  63  91 122 164 201 241 309 381
#     4  11  24  39  59  94 128 167 214 257 313 394
#     4  11  22  40  60  82 116 167 218 264 305 393
#     4  10  21  37  65  96 128 168 209 253 303 374
#
# _framework density 21.970523
#
# number of rings (size 3 to 8) (size 9 to 14) (size 15 to 20)
#    0.000    1.500    2.500    2.250    7.000    1.000 
#    0.000    0.625    0.000    0.000    0.000    0.000 
#    0.000    0.000    0.000    0.000    0.000    0.000 
#
# Total GULP energy -178392.772561 kJ/mol
# GULP energy per Si atom -5574.774143 kJ/mol
# Density = 2.192052 g / cm^3
# Si number density = 21.970523 Si / 1000 Ang^3
#
#
#
# Elastic Constant Matrix: (Units=GPa)
#
#
# Indices 1 2 3 4 5 6 
#
# 1 25.6934 5.0101 5.1874 0.0000 0.0000 0.0000
# 2 5.0101 63.0290 -5.2473 0.0000 0.0000 0.0000
# 3 5.1874 -5.2473 80.5084 0.0000 0.0000 0.0000
# 4 0.0000 0.0000 0.0000 23.1949 0.0000 0.0000
# 5 0.0000 0.0000 0.0000 0.0000 21.1450 0.0000
# 6 0.0000 0.0000 0.0000 0.0000 0.0000 19.8792
#
#
#
# Elastic Compliance Matrix: (Units=1/GPa)
#
#
# Indices 1 2 3 4 5 6 
#
# 1 0.040156 -0.003426 -0.002811 0.000000 0.000000 0.000000
# 2 -0.003426 0.016245 0.001280 0.000000 0.000000 0.000000
# 3 -0.002811 0.001280 0.012686 0.000000 0.000000 0.000000
# 4 0.000000 0.000000 0.000000 0.043113 0.000000 0.000000
# 5 0.000000 0.000000 0.000000 0.000000 0.047293 0.000000
# 6 0.000000 0.000000 0.000000 0.000000 0.000000 0.050304
#
#
# Mechanical properties :
#
#
# Convention : Reuss Voigt Hill
#
# Bulk Modulus (GPa) = 16.89989 19.90347 18.40168
# Shear Modulus (GPa) = 20.88260 23.79584 22.33922
#
# Velocity S-wave (km/s) = 3.08633 3.29459 3.19216
# Velocity P-wave (km/s) = 4.51768 4.85296 4.68832
#
# Compressibility (1/GPa) = 0.05917198
#
# Stress axis : x y z
#
# Youngs Moduli (GPa) = 24.90283 61.55906 78.82977
#
# Poissons Ratio (x) = 0.21090 0.22157
# Poissons Ratio (y) = 0.08532 -0.10086
# Poissons Ratio (z) = 0.06999 -0.07877
#
# Static dielectric constant tensor:
#      x y z
#    x 1.802640 0.000000 0.000000 
#    y 0.000000 1.888540 0.000000 
#    z 0.000000 0.000000 1.953130 
# 
# From -- ./inp_files/573.got.cif
#   From: 2010.05.17/outbox.cif.g08.bks.cpg/sg41_1_cif.got.tgz:573.got - 2010.06.03 18:54:24.
