data_PCOD9366312
_publ_section_title
;
Structure prediction by ZEFSAII (Michael W. Deem and Ramdas Pophale) SiO2 
 PCOD9366312
Probable space group: A B A 2
;
_chemical_formula_sum "Si O2"
_cell_formula_units_Z 36
_cell_length_a 9.172988
_cell_length_b 17.926962
_cell_length_c 8.500692
_cell_angle_alpha 90.000000
_cell_angle_beta 90.000000
_cell_angle_gamma 90.000000
_cell_volume 1397.886157
_symmetry_space_group_name_H-M "A B A 2"
_symmetry_group_IT_number 41
_symmetry_cell_setting 'orthorhombic'
loop_
_space_group_symop_operation_xyz
x,y,z
-x,-y,z
1/2-x,y,1/2+z
1/2+x,-y,1/2+z
x,1/2+y,1/2+z
-x,1/2-y,1/2+z
1/2-x,1/2+y,z
1/2+x,1/2-y,z
loop_
_atom_site_type_symbol
_atom_site_label
_atom_site_fract_x
_atom_site_fract_y
_atom_site_fract_z
Si Si1 0.585973 0.091406 0.680070
Si Si2 0.801480 0.442543 0.535074
Si Si3 0.834136 0.231533 0.020431
Si Si4 0.500000 0.500000 0.468066
Si Si5 0.601301 0.320140 0.819986
O O1 0.412486 0.104992 0.647783
O O2 0.681681 0.162250 0.639847
O O3 0.586766 0.057134 0.853158
O O4 0.638774 0.025786 0.564727
O O5 0.628428 0.454514 0.551118
O O6 0.841363 0.402200 0.370826
O O7 0.890693 0.296240 0.138490
O O8 0.702576 0.265622 0.924747
O O9 0.944177 0.198302 0.891306
#
# Coordination Sequence:
#
# PCOD9366312 Si02
#       5
#     8   8   8   4   8
#     4   9  23  43  59  96 132 171 222 286 327 417
#     4   9  21  40  66  92 129 177 219 287 332 406
#     4  11  25  43  67  99 139 182 228 285 349 412
#     4  10  20  38  70  84 128 166 224 272 342 390
#     4  11  25  43  69 100 140 183 232 285 348 418
#
# _framework density 25.753170999999998
#
# number of rings (size 3 to 8) (size 9 to 14) (size 15 to 20)
#    0.000    2.222    0.000    1.333   15.556    0.000 
#    4.000    8.889    0.000    0.000    0.000    0.000 
#    0.000    0.000    0.000    0.000    0.000    0.000 
#
# Total GULP energy -100493.733077 kJ/mol
# GULP energy per Si atom -5582.985171 kJ/mol
# Density = 2.569456 g / cm^3
# Si number density = 25.753171 Si / 1000 Ang^3
#
#
#
# Elastic Constant Matrix: (Units=GPa)
#
#
# Indices 1 2 3 4 5 6 
#
# 1 107.7826 33.7219 25.7610 0.0000 0.0000 0.0000
# 2 33.7219 129.5819 28.2426 0.0000 0.0000 0.0000
# 3 25.7610 28.2426 77.8888 0.0000 0.0000 0.0000
# 4 0.0000 0.0000 0.0000 38.1316 0.0000 0.0000
# 5 0.0000 0.0000 0.0000 0.0000 50.0241 0.0000
# 6 0.0000 0.0000 0.0000 0.0000 0.0000 35.0188
#
#
#
# Elastic Compliance Matrix: (Units=1/GPa)
#
#
# Indices 1 2 3 4 5 6 
#
# 1 0.010607 -0.002167 -0.002722 0.000000 0.000000 0.000000
# 2 -0.002167 0.008822 -0.002482 0.000000 0.000000 0.000000
# 3 -0.002722 -0.002482 0.014639 0.000000 0.000000 0.000000
# 4 0.000000 0.000000 0.000000 0.026225 0.000000 0.000000
# 5 0.000000 0.000000 0.000000 0.000000 0.019990 0.000000
# 6 0.000000 0.000000 0.000000 0.000000 0.000000 0.028556
#
#
# Mechanical properties :
#
#
# Convention : Reuss Voigt Hill
#
# Bulk Modulus (GPa) = 51.74634 54.52272 53.13453
# Shear Modulus (GPa) = 38.45452 39.80341 39.12896
#
# Velocity S-wave (km/s) = 3.86838 3.93564 3.90216
# Velocity P-wave (km/s) = 6.33161 6.47067 6.40152
#
# Compressibility (1/GPa) = 0.01932504
#
# Stress axis : x y z
#
# Youngs Moduli (GPa) = 94.28147 113.35263 68.30949
#
# Poissons Ratio (x) = 0.24562 0.18596
# Poissons Ratio (y) = 0.20430 0.16956
# Poissons Ratio (z) = 0.25666 0.28137
#
# Static dielectric constant tensor:
#      x y z
#    x 2.077930 0.000000 0.000000 
#    y 0.000000 2.085120 0.000000 
#    z 0.000000 0.000000 2.053510 
# 
# From -- ./inp_files/1649.got.cif
#   From: 2010.05.17/outbox.cif.g08.bks.cpg/sg41_1_cif.got.tgz:1649.got - 2010.06.03 18:54:24.
