data_PCOD9366392
_publ_section_title
;
Structure prediction by ZEFSAII (Michael W. Deem and Ramdas Pophale) SiO2 
 PCOD9366392
Probable space group: A B A 2
;
_chemical_formula_sum "Si O2"
_cell_formula_units_Z 44
_cell_length_a 5.596910
_cell_length_b 24.906391
_cell_length_c 13.291251
_cell_angle_alpha 90.000000
_cell_angle_beta 90.000000
_cell_angle_gamma 90.000000
_cell_volume 1852.784823
_symmetry_space_group_name_H-M "A B A 2"
_symmetry_group_IT_number 41
_symmetry_cell_setting 'orthorhombic'
loop_
_space_group_symop_operation_xyz
x,y,z
-x,-y,z
1/2-x,y,1/2+z
1/2+x,-y,1/2+z
x,1/2+y,1/2+z
-x,1/2-y,1/2+z
1/2-x,1/2+y,z
1/2+x,1/2-y,z
loop_
_atom_site_type_symbol
_atom_site_label
_atom_site_fract_x
_atom_site_fract_y
_atom_site_fract_z
Si Si1 0.674714 0.416869 0.887580
Si Si2 0.386836 0.722598 0.605097
Si Si3 0.500000 0.000000 0.952694
Si Si4 0.682504 0.093307 0.549088
Si Si5 0.552801 0.175832 0.910794
Si Si6 0.346772 0.858188 0.240306
O O1 0.809256 0.472341 0.879432
O O2 0.463878 0.402163 0.812907
O O3 0.861059 0.368658 0.878691
O O4 0.570926 0.419275 0.000764
O O5 0.116664 0.739704 0.628439
O O6 0.410596 0.716163 0.483195
O O7 0.454279 0.670268 0.670698
O O8 0.634200 0.045518 0.019198
O O9 0.770251 0.146588 0.489738
O O10 0.677191 0.110082 0.664068
O O11 0.710926 0.185108 0.811460
#
# Coordination Sequence:
#
# PCOD9366392 Si02
#       6
#     8   8   4   8   8   8
#     4  10  21  41  69  92 136 177 228 280 348 423
#     4  11  27  44  69 102 142 182 235 293 350 422
#     4  10  20  40  64  96 130 180 220 284 340 414
#     4   9  20  40  63  91 133 173 218 277 344 413
#     4   9  22  40  66  92 132 180 220 279 353 405
#     4  10  23  42  68 101 132 184 227 286 358 418
#
# _framework density 23.748034000000001
#
# number of rings (size 3 to 8) (size 9 to 14) (size 15 to 20)
#    0.000    2.182    0.000    0.545   10.182    4.364 
#    9.818    0.000    0.000    0.000    0.000    0.000 
#    0.000    0.000    0.000    0.000    0.000    0.000 
#
# Total GULP energy -122828.079640 kJ/mol
# GULP energy per Si atom -5583.094529 kJ/mol
# Density = 2.369398 g / cm^3
# Si number density = 23.748034 Si / 1000 Ang^3
#
#
#
# Elastic Constant Matrix: (Units=GPa)
#
#
# Indices 1 2 3 4 5 6 
#
# 1 59.6249 -0.2473 25.9551 0.0000 0.0000 0.0000
# 2 -0.2473 38.5560 18.9565 0.0000 0.0000 0.0000
# 3 25.9551 18.9565 131.3682 0.0000 0.0000 0.0000
# 4 0.0000 0.0000 0.0000 22.4329 0.0000 0.0000
# 5 0.0000 0.0000 0.0000 0.0000 7.2370 0.0000
# 6 0.0000 0.0000 0.0000 0.0000 0.0000 40.1783
#
#
#
# Elastic Compliance Matrix: (Units=1/GPa)
#
#
# Indices 1 2 3 4 5 6 
#
# 1 0.018501 0.002062 -0.003953 0.000000 0.000000 0.000000
# 2 0.002062 0.028147 -0.004469 0.000000 0.000000 0.000000
# 3 -0.003953 -0.004469 0.009038 0.000000 0.000000 0.000000
# 4 0.000000 0.000000 0.000000 0.044577 0.000000 0.000000
# 5 0.000000 0.000000 0.000000 0.000000 0.138178 0.000000
# 6 0.000000 0.000000 0.000000 0.000000 0.000000 0.024889
#
#
# Mechanical properties :
#
#
# Convention : Reuss Voigt Hill
#
# Bulk Modulus (GPa) = 23.27416 35.43085 29.35250
# Shear Modulus (GPa) = 17.21928 26.29528 21.75728
#
# Velocity S-wave (km/s) = 2.69566 3.33116 3.03012
# Velocity P-wave (km/s) = 4.41707 5.45412 4.96276
#
# Compressibility (1/GPa) = 0.04296611
#
# Stress axis : x y z
#
# Youngs Moduli (GPa) = 54.05180 35.52802 110.64321
#
# Poissons Ratio (x) = -0.07326 0.43736
# Poissons Ratio (y) = -0.11146 0.49447
# Poissons Ratio (z) = 0.21366 0.15878
#
# Static dielectric constant tensor:
#      x y z
#    x 1.913210 0.000000 0.000000 
#    y 0.000000 1.938990 0.000000 
#    z 0.000000 0.000000 1.932680 
# 
# From -- ./inp_files/6858.got.cif
#   From: 2010.05.17/outbox.cif.g08.bks.cpg/sg41_4_cif.got.tgz:6858.got - 2010.06.03 18:54:24.
