data_PCOD9366760
_publ_section_title
;
Structure prediction by ZEFSAII (Michael W. Deem and Ramdas Pophale) SiO2 
 PCOD9366760
Probable space group: A B A 2
;
_chemical_formula_sum "Si O2"
_cell_formula_units_Z 64
_cell_length_a 30.991690
_cell_length_b 8.162392
_cell_length_c 12.259070
_cell_angle_alpha 90.000000
_cell_angle_beta 90.000000
_cell_angle_gamma 90.000000
_cell_volume 3101.131855
_symmetry_space_group_name_H-M "A B A 2"
_symmetry_group_IT_number 41
_symmetry_cell_setting 'orthorhombic'
loop_
_space_group_symop_operation_xyz
x,y,z
-x,-y,z
1/2-x,y,1/2+z
1/2+x,-y,1/2+z
x,1/2+y,1/2+z
-x,1/2-y,1/2+z
1/2-x,1/2+y,z
1/2+x,1/2-y,z
loop_
_atom_site_type_symbol
_atom_site_label
_atom_site_fract_x
_atom_site_fract_y
_atom_site_fract_z
Si Si1 0.805550 0.715123 0.781080
Si Si2 0.541888 0.610391 0.975286
Si Si3 0.734721 0.516699 0.657098
Si Si4 0.905272 0.171563 0.317818
Si Si5 0.394731 0.160769 0.550481
Si Si6 0.202353 0.183847 0.028589
Si Si7 0.520571 0.319425 0.676770
Si Si8 0.935327 0.805837 0.269187
O O1 0.773583 0.576899 0.734885
O O2 0.793819 0.879315 0.714522
O O3 0.856252 0.677193 0.773908
O O4 0.795434 0.746482 0.907487
O O5 0.500000 0.500000 0.947290
O O6 0.565302 0.680038 0.869087
O O7 0.574233 0.495327 0.041903
O O8 0.528368 0.759410 0.053574
O O9 0.707807 0.671383 0.616584
O O10 0.759126 0.439953 0.553161
O O11 0.904409 0.229062 0.444068
O O12 0.936596 0.290775 0.248517
O O13 0.922052 0.986506 0.306891
O O14 0.345006 0.109362 0.544260
O O15 0.406123 0.243667 0.665522
O O16 0.500000 0.500000 0.679976
O O17 0.484373 0.199970 0.727009
#
# Coordination Sequence:
#
# PCOD9366760 Si02
#       8
#     8   8   8   8   8   8   8   8
#     4  10  22  42  67  96 134 166 217 266 324 392
#     4  12  25  47  65  96 132 177 221 274 327 387
#     4  10  21  40  67  96 129 171 210 261 332 390
#     4  11  24  46  67  98 136 174 221 277 327 389
#     4  11  24  44  65  97 135 171 220 273 325 388
#     4  10  22  40  66  95 130 167 214 265 324 388
#     4  12  26  43  71  94 132 177 226 275 332 390
#     4  12  25  44  69  94 133 174 221 272 327 387
#
# _framework density 20.637625
#
# number of rings (size 3 to 8) (size 9 to 14) (size 15 to 20)
#    0.000    1.000    2.500    3.750    1.750    3.000 
#    2.250    1.250    0.000    0.000    0.000    0.000 
#    0.000    0.000    0.000    0.000    0.000    0.000 
#
# Total GULP energy -178987.898912 kJ/mol
# GULP energy per Si atom -5593.371841 kJ/mol
# Density = 2.059065 g / cm^3
# Si number density = 20.637625 Si / 1000 Ang^3
#
#
#
# Elastic Constant Matrix: (Units=GPa)
#
#
# Indices 1 2 3 4 5 6 
#
# 1 91.7314 47.6498 20.8394 0.0000 0.0000 0.0000
# 2 47.6498 98.8353 18.3499 0.0000 0.0000 0.0000
# 3 20.8394 18.3499 86.7979 0.0000 0.0000 0.0000
# 4 0.0000 0.0000 0.0000 16.7504 0.0000 0.0000
# 5 0.0000 0.0000 0.0000 0.0000 -428.5978 0.0000
# 6 0.0000 0.0000 0.0000 0.0000 0.0000 23.4863
#
#
#
# Elastic Compliance Matrix: (Units=1/GPa)
#
#
# Indices 1 2 3 4 5 6 
#
# 1 0.014918 -0.006794 -0.002145 0.000000 0.000000 0.000000
# 2 -0.006794 0.013625 -0.001249 0.000000 0.000000 0.000000
# 3 -0.002145 -0.001249 0.012300 0.000000 0.000000 0.000000
# 4 0.000000 0.000000 0.000000 0.059700 0.000000 0.000000
# 5 0.000000 0.000000 0.000000 0.000000 -0.002333 0.000000
# 6 0.000000 0.000000 0.000000 0.000000 0.000000 0.042578
#
#
# Mechanical properties :
#
#
# Convention : Reuss Voigt Hill
#
# Bulk Modulus (GPa) = 48.86103 50.11587 49.48845
# Shear Modulus (GPa) = 29.76417 -64.97053 -17.60318
#
# Velocity S-wave (km/s) = 3.80179 -5.61693 -2.92373
# Velocity P-wave (km/s) = 6.55733 4.21072 3.55446
#
# Compressibility (1/GPa) = 0.02046621
#
# Stress axis : x y z
#
# Youngs Moduli (GPa) = 67.03403 73.39363 81.29928
#
# Poissons Ratio (x) = 0.49862 0.17442
# Poissons Ratio (y) = 0.45541 0.10157
# Poissons Ratio (z) = 0.14381 0.09170
#
# Static dielectric constant tensor:
#      x y z
#    x 1.716770 0.000000 0.000000 
#    y 0.000000 1.738810 0.000000 
#    z 0.000000 0.000000 1.753760 
# 
# From -- ./inp_files/6695.got.cif
#   From: 2010.05.17/outbox.cif.g08.bks.cpg/sg41_4_cif.got.tgz:6695.got - 2010.06.03 18:54:24.
