data_PCOD9366401
_publ_section_title
;
Structure prediction by ZEFSAII (Michael W. Deem and Ramdas Pophale) SiO2 
 PCOD9366401
Probable space group: A B A 2
;
_chemical_formula_sum "Si O2"
_cell_formula_units_Z 60
_cell_length_a 11.844736
_cell_length_b 26.113345
_cell_length_c 8.389262
_cell_angle_alpha 90.000000
_cell_angle_beta 90.000000
_cell_angle_gamma 90.000000
_cell_volume 2594.846367
_symmetry_space_group_name_H-M "A B A 2"
_symmetry_group_IT_number 41
_symmetry_cell_setting 'orthorhombic'
loop_
_space_group_symop_operation_xyz
x,y,z
-x,-y,z
1/2-x,y,1/2+z
1/2+x,-y,1/2+z
x,1/2+y,1/2+z
-x,1/2-y,1/2+z
1/2-x,1/2+y,z
1/2+x,1/2-y,z
loop_
_atom_site_type_symbol
_atom_site_label
_atom_site_fract_x
_atom_site_fract_y
_atom_site_fract_z
Si Si1 0.874798 0.083378 0.698850
Si Si2 0.480148 0.818976 0.049731
Si Si3 0.000000 0.500000 0.990662
Si Si4 0.109169 0.052881 0.201945
Si Si5 0.614861 0.336219 0.227200
Si Si6 0.585837 0.712090 0.066168
Si Si7 0.141658 0.445854 0.565288
Si Si8 0.704707 0.726693 0.733428
O O1 0.951658 0.132310 0.658021
O O2 0.931290 0.038511 0.598313
O O3 0.745042 0.085794 0.639237
O O4 0.869812 0.068762 0.882458
O O5 0.560493 0.772104 0.099411
O O6 0.361648 0.788620 0.070575
O O7 0.535193 0.837434 0.884890
O O8 0.911402 0.470609 0.876436
O O9 0.167695 0.108033 0.201370
O O10 0.980263 0.063532 0.144531
O O11 0.160241 0.006857 0.096920
O O12 0.527370 0.320096 0.088205
O O13 0.699665 0.288441 0.244465
O O14 0.675901 0.700703 0.203914
O O15 0.637559 0.708075 0.889755
#
# Coordination Sequence:
#
# PCOD9366401 Si02
#       8
#     8   8   4   8   8   8   8   8
#     4  12  23  42  64  95 122 171 204 269 305 382
#     4  10  23  39  66  95 122 166 215 257 320 365
#     4  10  20  40  66  84 130 154 208 256 314 368
#     4  10  21  43  62  94 123 167 196 270 310 378
#     4  10  21  41  66  89 127 163 206 262 316 373
#     4  10  22  41  62  95 129 162 210 261 309 388
#     4  10  24  39  63  91 129 154 221 247 318 364
#     4  10  22  40  62  93 126 163 208 256 313 378
#
# _framework density 23.122754
#
# number of rings (size 3 to 8) (size 9 to 14) (size 15 to 20)
#    0.000    1.867    1.333    3.200    3.733    1.067 
#    2.400    1.333    0.000    0.000    0.000    0.000 
#    0.000    0.000    0.000    0.000    0.000    0.000 
#
# Total GULP energy -167480.671735 kJ/mol
# GULP energy per Si atom -5582.689058 kJ/mol
# Density = 2.307013 g / cm^3
# Si number density = 23.122754 Si / 1000 Ang^3
#
#
#
# Elastic Constant Matrix: (Units=GPa)
#
#
# Indices 1 2 3 4 5 6 
#
# 1 40.5824 -3.2736 13.4268 0.0000 0.0000 0.0000
# 2 -3.2736 142.6150 28.3509 0.0000 0.0000 0.0000
# 3 13.4268 28.3509 80.4764 0.0000 0.0000 0.0000
# 4 0.0000 0.0000 0.0000 15.2781 0.0000 0.0000
# 5 0.0000 0.0000 0.0000 0.0000 21.7715 0.0000
# 6 0.0000 0.0000 0.0000 0.0000 0.0000 -4.2640
#
#
#
# Elastic Compliance Matrix: (Units=1/GPa)
#
#
# Indices 1 2 3 4 5 6 
#
# 1 0.026414 0.001594 -0.004968 0.000000 0.000000 0.000000
# 2 0.001594 0.007636 -0.002956 0.000000 0.000000 0.000000
# 3 -0.004968 -0.002956 0.014296 0.000000 0.000000 0.000000
# 4 0.000000 0.000000 0.000000 0.065453 0.000000 0.000000
# 5 0.000000 0.000000 0.000000 0.000000 0.045932 0.000000
# 6 0.000000 0.000000 0.000000 0.000000 0.000000 -0.234524
#
#
# Mechanical properties :
#
#
# Convention : Reuss Voigt Hill
#
# Bulk Modulus (GPa) = 28.02290 37.85354 32.93822
# Shear Modulus (GPa) = -99.52889 21.56844 -38.98023
#
# Velocity S-wave (km/s) = -6.56789 3.05746 -4.11030
# Velocity P-wave (km/s) = 6.73578 5.37311 2.87232
#
# Compressibility (1/GPa) = 0.03568509
#
# Stress axis : x y z
#
# Youngs Moduli (GPa) = 37.85924 130.95658 69.94801
#
# Poissons Ratio (x) = -0.20874 0.34753
# Poissons Ratio (y) = -0.06035 0.20677
# Poissons Ratio (z) = 0.18810 0.38712
#
# Static dielectric constant tensor:
#      x y z
#    x 1.916390 0.000000 0.000000 
#    y 0.000000 1.931490 0.000000 
#    z 0.000000 0.000000 1.844020 
# 
# From -- ./inp_files/2174.got.cif
#   From: 2010.05.17/outbox.cif.g08.bks.cpg/sg41_2_cif.got.tgz:2174.got - 2010.06.03 18:54:24.
