data_PCOD9366145
_publ_section_title
;
Structure prediction by ZEFSAII (Michael W. Deem and Ramdas Pophale) SiO2 
 PCOD9366145
Probable space group: A B A 2
;
_chemical_formula_sum "Si O2"
_cell_formula_units_Z 60
_cell_length_a 9.774502
_cell_length_b 15.627265
_cell_length_c 18.958454
_cell_angle_alpha 90.000000
_cell_angle_beta 90.000000
_cell_angle_gamma 90.000000
_cell_volume 2895.879828
_symmetry_space_group_name_H-M "A B A 2"
_symmetry_group_IT_number 41
_symmetry_cell_setting 'orthorhombic'
loop_
_space_group_symop_operation_xyz
x,y,z
-x,-y,z
1/2-x,y,1/2+z
1/2+x,-y,1/2+z
x,1/2+y,1/2+z
-x,1/2-y,1/2+z
1/2-x,1/2+y,z
1/2+x,1/2-y,z
loop_
_atom_site_type_symbol
_atom_site_label
_atom_site_fract_x
_atom_site_fract_y
_atom_site_fract_z
Si Si1 0.087571 0.645612 0.015980
Si Si2 0.797670 0.330708 0.630776
Si Si3 0.661511 0.778325 0.266860
Si Si4 0.967928 0.652565 0.535059
Si Si5 0.314128 0.372299 0.584117
Si Si6 0.500000 0.500000 0.834885
Si Si7 0.182780 0.617861 0.410304
Si Si8 0.382671 0.855451 0.235781
O O1 0.185110 0.623543 0.082064
O O2 0.069965 0.748472 0.020202
O O3 0.937301 0.611019 0.030709
O O4 0.169217 0.621386 0.946035
O O5 0.748847 0.335099 0.710839
O O6 0.946471 0.360157 0.607001
O O7 0.800423 0.230027 0.605283
O O8 0.670819 0.813662 0.346417
O O9 0.506265 0.783940 0.236030
O O10 0.741955 0.688558 0.261080
O O11 0.070814 0.633026 0.471635
O O12 0.827068 0.602838 0.547294
O O13 0.354806 0.403199 0.661841
O O14 0.368378 0.529237 0.878616
O O15 0.447432 0.422310 0.788689
#
# Coordination Sequence:
#
# PCOD9366145 Si02
#       8
#     8   8   8   8   8   4   8   8
#     4   9  16  31  53  89 117 146 195 248 296 341
#     4   8  15  29  51  84 120 142 184 252 299 330
#     4  10  20  34  59  92 113 155 209 244 296 351
#     4   9  18  32  57  91 122 150 193 254 299 349
#     4   9  16  30  57  90 115 147 191 256 301 338
#     4  10  24  44  54  80 130 168 192 244 322 362
#     4  10  22  37  58  82 123 167 193 240 302 369
#     4  10  21  38  64  88 117 159 201 258 296 361
#
# _framework density 20.719092
#
# number of rings (size 3 to 8) (size 9 to 14) (size 15 to 20)
#    0.000    2.667    1.333    0.800    9.333    0.000 
#    0.000    1.333    0.000    6.400    0.000    0.000 
#    0.000    0.000    0.000    0.000    0.000    0.000 
#
# Total GULP energy -167086.329064 kJ/mol
# GULP energy per Si atom -5569.544302 kJ/mol
# Density = 2.067193 g / cm^3
# Si number density = 20.719092 Si / 1000 Ang^3
#
#
#
# Elastic Constant Matrix: (Units=GPa)
#
#
# Indices 1 2 3 4 5 6 
#
# 1 123.8161 16.8148 44.6469 0.0000 0.0000 0.0000
# 2 16.8148 15.9887 3.4599 0.0000 0.0000 0.0000
# 3 44.6469 3.4599 106.2981 0.0000 0.0000 0.0000
# 4 0.0000 0.0000 0.0000 11.4124 0.0000 0.0000
# 5 0.0000 0.0000 0.0000 0.0000 31.4500 0.0000
# 6 0.0000 0.0000 0.0000 0.0000 0.0000 -18.5820
#
#
#
# Elastic Compliance Matrix: (Units=1/GPa)
#
#
# Indices 1 2 3 4 5 6 
#
# 1 0.011086 -0.010727 -0.004307 0.000000 0.000000 0.000000
# 2 -0.010727 0.073367 0.002118 0.000000 0.000000 0.000000
# 3 -0.004307 0.002118 0.011148 0.000000 0.000000 0.000000
# 4 0.000000 0.000000 0.000000 0.087624 0.000000 0.000000
# 5 0.000000 0.000000 0.000000 0.000000 0.031796 0.000000
# 6 0.000000 0.000000 0.000000 0.000000 0.000000 -0.053815
#
#
# Mechanical properties :
#
#
# Convention : Reuss Voigt Hill
#
# Bulk Modulus (GPa) = 14.33330 41.77178 28.05254
# Shear Modulus (GPa) = 23.77597 16.93483 20.35540
#
# Velocity S-wave (km/s) = 3.39121 2.86204 3.13780
# Velocity P-wave (km/s) = 4.71876 5.57911 5.16687
#
# Compressibility (1/GPa) = 0.06976762
#
# Stress axis : x y z
#
# Youngs Moduli (GPa) = 90.19992 13.63004 89.70432
#
# Poissons Ratio (x) = 0.14621 0.38639
# Poissons Ratio (y) = 0.96759 -0.18995
# Poissons Ratio (z) = 0.38852 -0.02886
#
# Static dielectric constant tensor:
#      x y z
#    x 1.756750 0.000000 0.000000 
#    y 0.000000 1.786190 0.000000 
#    z 0.000000 0.000000 1.777590 
# 
# From -- ./inp_files/9779.got.cif
#   From: 2010.05.17/outbox.cif.g08.bks.cpg/sg41_5_cif.got.tgz:9779.got - 2010.06.03 18:54:24.
