data_PCOD9366202
_publ_section_title
;
Structure prediction by ZEFSAII (Michael W. Deem and Ramdas Pophale) SiO2 
 PCOD9366202
Probable space group: A B A 2
;
_chemical_formula_sum "Si O2"
_cell_formula_units_Z 52
_cell_length_a 14.245893
_cell_length_b 12.769388
_cell_length_c 12.768363
_cell_angle_alpha 90.000000
_cell_angle_beta 90.000000
_cell_angle_gamma 90.000000
_cell_volume 2322.709961
_symmetry_space_group_name_H-M "A B A 2"
_symmetry_group_IT_number 41
_symmetry_cell_setting 'orthorhombic'
loop_
_space_group_symop_operation_xyz
x,y,z
-x,-y,z
1/2-x,y,1/2+z
1/2+x,-y,1/2+z
x,1/2+y,1/2+z
-x,1/2-y,1/2+z
1/2-x,1/2+y,z
1/2+x,1/2-y,z
loop_
_atom_site_type_symbol
_atom_site_label
_atom_site_fract_x
_atom_site_fract_y
_atom_site_fract_z
Si Si1 0.889656 0.969413 0.530640
Si Si2 0.894350 0.363024 0.581137
Si Si3 0.896334 0.731408 0.579367
Si Si4 0.094826 0.305521 0.343820
Si Si5 0.586054 0.923802 0.802848
Si Si6 0.000000 0.000000 0.921210
Si Si7 0.210579 0.835512 0.635729
O O1 0.887000 0.856419 0.586366
O O2 0.859865 0.956279 0.408314
O O3 0.829004 0.058761 0.585287
O O4 0.000000 0.000000 0.528241
O O5 0.863541 0.413768 0.691418
O O6 0.824786 0.264909 0.565755
O O7 0.997473 0.308198 0.593246
O O8 0.917059 0.452732 0.495759
O O9 0.865943 0.700491 0.461081
O O10 0.821612 0.672566 0.649685
O O11 0.047443 0.192721 0.328576
O O12 0.027439 0.403938 0.348436
O O13 0.165180 0.320112 0.249327
O O14 0.500000 0.000000 0.786646
#
# Coordination Sequence:
#
# PCOD9366202 Si02
#       7
#     8   8   8   8   8   4   8
#     4  10  20  40  67  92 125 171 217 269 317 387
#     4  10  20  39  65  93 126 173 210 266 331 383
#     4  10  22  42  61  96 133 164 221 270 324 391
#     4   9  22  40  59  93 131 161 219 266 320 393
#     4   9  18  36  63  90 119 162 215 261 315 382
#     4  10  20  36  64  88 132 168 206 274 326 382
#     4  11  23  41  66  91 130 173 218 268 322 387
#
# _framework density 22.387642
#
# number of rings (size 3 to 8) (size 9 to 14) (size 15 to 20)
#    0.000    2.154    2.308    0.000    3.231    2.462 
#    5.538    3.077    0.000    0.000    0.000    0.000 
#    0.000    0.000    0.000    0.000    0.000    0.000 
#
# Total GULP energy -145142.936483 kJ/mol
# GULP energy per Si atom -5582.420634 kJ/mol
# Density = 2.233669 g / cm^3
# Si number density = 22.387642 Si / 1000 Ang^3
#
#
#
# Elastic Constant Matrix: (Units=GPa)
#
#
# Indices 1 2 3 4 5 6 
#
# 1 68.8049 20.1495 4.6457 0.0000 0.0000 0.0000
# 2 20.1495 127.4540 10.7061 0.0000 0.0000 0.0000
# 3 4.6457 10.7061 57.6916 0.0000 0.0000 0.0000
# 4 0.0000 0.0000 0.0000 20.0228 0.0000 0.0000
# 5 0.0000 0.0000 0.0000 0.0000 9.2488 0.0000
# 6 0.0000 0.0000 0.0000 0.0000 0.0000 20.3637
#
#
#
# Elastic Compliance Matrix: (Units=1/GPa)
#
#
# Indices 1 2 3 4 5 6 
#
# 1 0.015275 -0.002348 -0.000794 0.000000 0.000000 0.000000
# 2 -0.002348 0.008331 -0.001357 0.000000 0.000000 0.000000
# 3 -0.000794 -0.001357 0.017649 0.000000 0.000000 0.000000
# 4 0.000000 0.000000 0.000000 0.049943 0.000000 0.000000
# 5 0.000000 0.000000 0.000000 0.000000 0.108122 0.000000
# 6 0.000000 0.000000 0.000000 0.000000 0.000000 0.049107
#
#
# Mechanical properties :
#
#
# Convention : Reuss Voigt Hill
#
# Bulk Modulus (GPa) = 31.00120 36.10589 33.55355
# Shear Modulus (GPa) = 18.64429 24.49035 21.56732
#
# Velocity S-wave (km/s) = 2.88895 3.31104 3.10717
# Velocity P-wave (km/s) = 5.00055 5.54796 5.28136
#
# Compressibility (1/GPa) = 0.03225681
#
# Stress axis : x y z
#
# Youngs Moduli (GPa) = 65.46584 120.03104 56.65943
#
# Poissons Ratio (x) = 0.28185 0.04500
# Poissons Ratio (y) = 0.15372 0.07688
# Poissons Ratio (z) = 0.05200 0.16288
#
# Static dielectric constant tensor:
#      x y z
#    x 1.872240 0.000000 0.000000 
#    y 0.000000 1.850070 0.000000 
#    z 0.000000 0.000000 1.862750 
# 
# From -- ./inp_files/8781.got.cif
#   From: 2010.05.17/outbox.cif.g08.bks.cpg/sg41_5_cif.got.tgz:8781.got - 2010.06.03 18:54:24.
