data_PCOD9366029
_publ_section_title
;
Structure prediction by ZEFSAII (Michael W. Deem and Ramdas Pophale) SiO2 
 PCOD9366029
Probable space group: A B A 2
;
_chemical_formula_sum "Si O2"
_cell_formula_units_Z 48
_cell_length_a 11.292017
_cell_length_b 13.316692
_cell_length_c 13.985884
_cell_angle_alpha 90.000000
_cell_angle_beta 90.000000
_cell_angle_gamma 90.000000
_cell_volume 2103.089719
_symmetry_space_group_name_H-M "A B A 2"
_symmetry_group_IT_number 41
_symmetry_cell_setting 'orthorhombic'
loop_
_space_group_symop_operation_xyz
x,y,z
-x,-y,z
1/2-x,y,1/2+z
1/2+x,-y,1/2+z
x,1/2+y,1/2+z
-x,1/2-y,1/2+z
1/2-x,1/2+y,z
1/2+x,1/2-y,z
loop_
_atom_site_type_symbol
_atom_site_label
_atom_site_fract_x
_atom_site_fract_y
_atom_site_fract_z
Si Si1 0.774361 0.495011 0.086030
Si Si2 0.305813 0.823611 0.204396
Si Si3 0.627262 0.076380 0.827405
Si Si4 0.403199 0.122879 0.931775
Si Si5 0.644570 0.679754 0.025886
Si Si6 0.444270 0.135335 0.662416
O O1 0.840203 0.569061 0.159187
O O2 0.669471 0.432563 0.136954
O O3 0.956822 0.618928 0.911169
O O4 0.865528 0.426481 0.031172
O O5 0.237680 0.856272 0.299413
O O6 0.216157 0.782926 0.121018
O O7 0.402882 0.738632 0.211734
O O8 0.647109 0.958715 0.854192
O O9 0.791908 0.072038 0.011922
O O10 0.545182 0.091355 0.732454
O O11 0.358272 0.235814 0.945052
O O12 0.511814 0.659353 0.063369
#
# Coordination Sequence:
#
# PCOD9366029 Si02
#       6
#     8   8   8   8   8   8
#     4  10  19  37  65  98 125 173 223 268 332 405
#     4   9  21  40  64  97 121 179 227 262 325 427
#     4  10  24  38  64  92 139 173 217 279 356 378
#     4  11  21  39  60  97 134 169 210 289 335 397
#     4   9  22  36  65  99 124 171 228 272 323 412
#     4  11  20  43  69  92 133 180 224 275 332 421
#
# _framework density 22.823561999999999
#
# number of rings (size 3 to 8) (size 9 to 14) (size 15 to 20)
#    1.000    1.000    1.667    2.500    4.667    1.333 
#    3.000    0.000    0.000    0.000    0.000    0.000 
#    0.000    0.000    0.000    0.000    0.000    0.000 
#
# Total GULP energy -133694.700007 kJ/mol
# GULP energy per Si atom -5570.612500 kJ/mol
# Density = 2.277161 g / cm^3
# Si number density = 22.823562 Si / 1000 Ang^3
#
#
#
# Elastic Constant Matrix: (Units=GPa)
#
#
# Indices 1 2 3 4 5 6 
#
# 1 32.8556 22.8327 28.9883 0.0000 0.0000 0.0000
# 2 22.8327 111.5240 40.2501 0.0000 0.0000 0.0000
# 3 28.9883 40.2501 83.1617 0.0000 0.0000 0.0000
# 4 0.0000 0.0000 0.0000 36.8982 0.0000 0.0000
# 5 0.0000 0.0000 0.0000 0.0000 43.4510 0.0000
# 6 0.0000 0.0000 0.0000 0.0000 0.0000 29.7221
#
#
#
# Elastic Compliance Matrix: (Units=1/GPa)
#
#
# Indices 1 2 3 4 5 6 
#
# 1 0.045643 -0.004365 -0.013797 0.000000 0.000000 0.000000
# 2 -0.004365 0.011282 -0.003939 0.000000 0.000000 0.000000
# 3 -0.013797 -0.003939 0.018741 0.000000 0.000000 0.000000
# 4 0.000000 0.000000 0.000000 0.027102 0.000000 0.000000
# 5 0.000000 0.000000 0.000000 0.000000 0.023014 0.000000
# 6 0.000000 0.000000 0.000000 0.000000 0.000000 0.033645
#
#
# Mechanical properties :
#
#
# Convention : Reuss Voigt Hill
#
# Bulk Modulus (GPa) = 31.78349 45.74261 38.76305
# Shear Modulus (GPa) = 23.35172 31.04560 27.19866
#
# Velocity S-wave (km/s) = 3.20213 3.69215 3.45583
# Velocity P-wave (km/s) = 5.25618 6.18557 5.73972
#
# Compressibility (1/GPa) = 0.03146288
#
# Stress axis : x y z
#
# Youngs Moduli (GPa) = 21.90915 88.63733 53.35989
#
# Poissons Ratio (x) = 0.38690 0.73623
# Poissons Ratio (y) = 0.09563 0.21018
# Poissons Ratio (z) = 0.30229 0.34913
#
# Static dielectric constant tensor:
#      x y z
#    x 1.859240 0.000000 0.000000 
#    y 0.000000 1.910080 0.000000 
#    z 0.000000 0.000000 1.939270 
# 
# From -- ./inp_files/5533.got.cif
#   From: 2010.05.17/outbox.cif.g08.bks.cpg/sg41_3_cif.got.tgz:5533.got - 2010.06.03 18:54:24.
