data_PCOD9366303
_publ_section_title
;
Structure prediction by ZEFSAII (Michael W. Deem and Ramdas Pophale) SiO2 
 PCOD9366303
Probable space group: A B A 2
;
_chemical_formula_sum "Si O2"
_cell_formula_units_Z 60
_cell_length_a 12.600472
_cell_length_b 27.577961
_cell_length_c 7.370177
_cell_angle_alpha 90.000000
_cell_angle_beta 90.000000
_cell_angle_gamma 90.000000
_cell_volume 2561.102055
_symmetry_space_group_name_H-M "A B A 2"
_symmetry_group_IT_number 41
_symmetry_cell_setting 'orthorhombic'
loop_
_space_group_symop_operation_xyz
x,y,z
-x,-y,z
1/2-x,y,1/2+z
1/2+x,-y,1/2+z
x,1/2+y,1/2+z
-x,1/2-y,1/2+z
1/2-x,1/2+y,z
1/2+x,1/2-y,z
loop_
_atom_site_type_symbol
_atom_site_label
_atom_site_fract_x
_atom_site_fract_y
_atom_site_fract_z
Si Si1 0.500000 0.000000 0.559571
Si Si2 0.219975 0.874417 0.106334
Si Si3 0.388902 0.176758 0.820672
Si Si4 0.618764 0.186324 0.909164
Si Si5 0.113315 0.104559 0.750050
Si Si6 0.609881 0.074450 0.289769
Si Si7 0.660047 0.295222 0.911402
Si Si8 0.655900 0.924539 0.663382
O O1 0.423691 0.969897 0.419878
O O2 0.583162 0.971492 0.688703
O O3 0.143665 0.855056 0.261446
O O4 0.288300 0.922638 0.156979
O O5 0.306225 0.831940 0.070929
O O6 0.147187 0.884461 0.933146
O O7 0.493817 0.188010 0.929545
O O8 0.389021 0.197738 0.613631
O O9 0.285342 0.195581 0.920728
O O10 0.376304 0.119069 0.795510
O O11 0.646603 0.240430 0.848724
O O12 0.121807 0.162493 0.775413
O O13 0.215752 0.078052 0.664004
O O14 0.997624 0.088526 0.684820
O O15 0.120330 0.088821 0.960416
#
# Coordination Sequence:
#
# PCOD9366303 Si02
#       8
#     4   8   8   8   8   8   8   8
#     4  10  20  38  66  88 112 148 194 240 298 364
#     4  10  23  40  58  85 120 153 196 241 297 350
#     4  10  22  39  57  85 122 153 192 247 296 337
#     4  11  22  38  60  84 117 161 199 238 287 350
#     4   9  19  36  56  83 120 150 186 241 293 335
#     4  10  22  40  60  84 116 154 192 246 299 351
#     4  10  21  35  57  86 116 156 203 237 281 351
#     4   9  19  36  59  84 113 149 187 237 294 349
#
# _framework density 23.427416000000001
#
# number of rings (size 3 to 8) (size 9 to 14) (size 15 to 20)
#    0.000    2.133    0.000    3.200    0.000   11.733 
#    0.000    0.000    0.000   10.400    0.000    0.000 
#    0.000    0.000    0.000    0.000    0.000    0.000 
#
# Total GULP energy -167414.707780 kJ/mol
# GULP energy per Si atom -5580.490259 kJ/mol
# Density = 2.337409 g / cm^3
# Si number density = 23.427416 Si / 1000 Ang^3
#
#
#
# Elastic Constant Matrix: (Units=GPa)
#
#
# Indices 1 2 3 4 5 6 
#
# 1 127.5406 49.1502 16.9849 0.0000 0.0000 0.0000
# 2 49.1502 77.6749 -8.5679 0.0000 0.0000 0.0000
# 3 16.9849 -8.5679 26.5072 0.0000 0.0000 0.0000
# 4 0.0000 0.0000 0.0000 12.9782 0.0000 0.0000
# 5 0.0000 0.0000 0.0000 0.0000 28.1510 0.0000
# 6 0.0000 0.0000 0.0000 0.0000 0.0000 21.0791
#
#
#
# Elastic Compliance Matrix: (Units=1/GPa)
#
#
# Indices 1 2 3 4 5 6 
#
# 1 0.013021 -0.009498 -0.011413 0.000000 0.000000 0.000000
# 2 -0.009498 0.020279 0.012641 0.000000 0.000000 0.000000
# 3 -0.011413 0.012641 0.049125 0.000000 0.000000 0.000000
# 4 0.000000 0.000000 0.000000 0.077052 0.000000 0.000000
# 5 0.000000 0.000000 0.000000 0.000000 0.035523 0.000000
# 6 0.000000 0.000000 0.000000 0.000000 0.000000 0.047440
#
#
# Mechanical properties :
#
#
# Convention : Reuss Voigt Hill
#
# Bulk Modulus (GPa) = 15.17852 38.53967 26.85910
# Shear Modulus (GPa) = 17.79726 24.05202 20.92464
#
# Velocity S-wave (km/s) = 2.75921 3.20763 2.99184
# Velocity P-wave (km/s) = 4.07971 5.49590 4.83988
#
# Compressibility (1/GPa) = 0.06588256
#
# Stress axis : x y z
#
# Youngs Moduli (GPa) = 76.79970 49.31302 20.35634
#
# Poissons Ratio (x) = 0.46838 0.23234
# Poissons Ratio (y) = 0.72945 -0.25732
# Poissons Ratio (z) = 0.87655 -0.62335
#
# Static dielectric constant tensor:
#      x y z
#    x 1.923920 0.000000 0.000000 
#    y 0.000000 1.999490 0.000000 
#    z 0.000000 0.000000 1.911300 
# 
# From -- ./inp_files/2159.got.cif
#   From: 2010.05.17/outbox.cif.g08.bks.cpg/sg41_2_cif.got.tgz:2159.got - 2010.06.03 18:54:24.
