data_PCOD9366601
_publ_section_title
;
Structure prediction by ZEFSAII (Michael W. Deem and Ramdas Pophale) SiO2 
 PCOD9366601
Probable space group: A B A 2
;
_chemical_formula_sum "Si O2"
_cell_formula_units_Z 64
_cell_length_a 7.267212
_cell_length_b 23.633995
_cell_length_c 15.774444
_cell_angle_alpha 90.000000
_cell_angle_beta 90.000000
_cell_angle_gamma 90.000000
_cell_volume 2709.312057
_symmetry_space_group_name_H-M "A B A 2"
_symmetry_group_IT_number 41
_symmetry_cell_setting 'orthorhombic'
loop_
_space_group_symop_operation_xyz
x,y,z
-x,-y,z
1/2-x,y,1/2+z
1/2+x,-y,1/2+z
x,1/2+y,1/2+z
-x,1/2-y,1/2+z
1/2-x,1/2+y,z
1/2+x,1/2-y,z
loop_
_atom_site_type_symbol
_atom_site_label
_atom_site_fract_x
_atom_site_fract_y
_atom_site_fract_z
Si Si1 0.653962 0.659160 0.904700
Si Si2 0.398217 0.221588 0.982888
Si Si3 0.244373 0.047411 0.057127
Si Si4 0.182266 0.836884 0.711950
Si Si5 0.190189 0.919528 0.062201
Si Si6 0.844514 0.279118 0.623378
Si Si7 0.771065 0.376191 0.211399
Si Si8 0.777674 0.378381 0.897800
O O1 0.682971 0.724063 0.934189
O O2 0.728524 0.650960 0.809841
O O3 0.431368 0.647640 0.904442
O O4 0.726310 0.618346 0.978883
O O5 0.419085 0.173409 0.913334
O O6 0.528603 0.250061 0.052815
O O7 0.279319 0.188215 0.053567
O O8 0.313373 0.076087 0.143053
O O9 0.026079 0.063871 0.061893
O O10 0.282048 0.980823 0.058475
O O11 0.308471 0.074744 0.968995
O O12 0.250683 0.882535 0.643309
O O13 0.230290 0.773831 0.677676
O O14 0.958213 0.839315 0.715169
O O15 0.886368 0.330579 0.685359
O O16 0.717748 0.400644 0.302257
#
# Coordination Sequence:
#
# PCOD9366601 Si02
#       8
#     8   8   8   8   8   8   8   8
#     4  10  21  38  59  88 122 158 200 244 297 365
#     4  12  20  38  61  85 122 159 194 238 297 358
#     4  10  21  42  62  85 115 158 206 255 307 359
#     4  11  23  38  60  92 122 157 203 249 304 365
#     4  10  22  40  64  84 115 160 206 252 306 364
#     4  12  21  36  61  88 122 158 194 239 299 359
#     4  11  23  39  61  91 123 157 200 250 303 364
#     4  10  21  39  62  88 120 159 200 244 299 362
#
# _framework density 23.622233999999999
#
# number of rings (size 3 to 8) (size 9 to 14) (size 15 to 20)
#    0.000    1.250    5.000    1.500    0.000    1.500 
#    2.250    2.500    0.000    0.000    0.000    0.000 
#    0.000    0.000    0.000    0.000    0.000    0.000 
#
# Total GULP energy -178538.917863 kJ/mol
# GULP energy per Si atom -5579.341183 kJ/mol
# Density = 2.356847 g / cm^3
# Si number density = 23.622234 Si / 1000 Ang^3
#
#
#
# Elastic Constant Matrix: (Units=GPa)
#
#
# Indices 1 2 3 4 5 6 
#
# 1 39.7578 11.5978 23.8528 0.0000 0.0000 0.0000
# 2 11.5978 181.8581 102.9560 0.0000 0.0000 0.0000
# 3 23.8528 102.9560 242.6089 0.0000 0.0000 0.0000
# 4 0.0000 0.0000 0.0000 15.8736 0.0000 0.0000
# 5 0.0000 0.0000 0.0000 0.0000 35.1196 0.0000
# 6 0.0000 0.0000 0.0000 0.0000 0.0000 23.5747
#
#
#
# Elastic Compliance Matrix: (Units=1/GPa)
#
#
# Indices 1 2 3 4 5 6 
#
# 1 0.026740 -0.000286 -0.002508 0.000000 0.000000 0.000000
# 2 -0.000286 0.007241 -0.003045 0.000000 0.000000 0.000000
# 3 -0.002508 -0.003045 0.005660 0.000000 0.000000 0.000000
# 4 0.000000 0.000000 0.000000 0.062998 0.000000 0.000000
# 5 0.000000 0.000000 0.000000 0.000000 0.028474 0.000000
# 6 0.000000 0.000000 0.000000 0.000000 0.000000 0.042418
#
#
# Mechanical properties :
#
#
# Convention : Reuss Voigt Hill
#
# Bulk Modulus (GPa) = 35.75871 82.33756 59.04813
# Shear Modulus (GPa) = 25.70305 36.63479 31.16892
#
# Velocity S-wave (km/s) = 3.30220 3.94237 3.63640
# Velocity P-wave (km/s) = 5.45068 7.46020 6.53317
#
# Compressibility (1/GPa) = 0.02796522
#
# Stress axis : x y z
#
# Youngs Moduli (GPa) = 37.39693 138.10846 176.66312
#
# Poissons Ratio (x) = 0.03943 0.44305
# Poissons Ratio (y) = 0.01068 0.53788
# Poissons Ratio (z) = 0.09379 0.42049
#
# Static dielectric constant tensor:
#      x y z
#    x 2.291910 0.000000 0.000000 
#    y 0.000000 1.814140 0.000000 
#    z 0.000000 0.000000 1.884850 
# 
# From -- ./inp_files/7584.got.cif
#   From: 2010.05.17/outbox.cif.g08.bks.cpg/sg41_4_cif.got.tgz:7584.got - 2010.06.03 18:54:24.
