data_PCOD9366936
_publ_section_title
;
Structure prediction by ZEFSAII (Michael W. Deem and Ramdas Pophale) SiO2 
 PCOD9366936
Probable space group: A B A 2
;
_chemical_formula_sum "Si O2"
_cell_formula_units_Z 40
_cell_length_a 13.461725
_cell_length_b 11.082358
_cell_length_c 11.544011
_cell_angle_alpha 90.000000
_cell_angle_beta 90.000000
_cell_angle_gamma 90.000000
_cell_volume 1722.223939
_symmetry_space_group_name_H-M "A B A 2"
_symmetry_group_IT_number 41
_symmetry_cell_setting 'orthorhombic'
loop_
_space_group_symop_operation_xyz
x,y,z
-x,-y,z
1/2-x,y,1/2+z
1/2+x,-y,1/2+z
x,1/2+y,1/2+z
-x,1/2-y,1/2+z
1/2-x,1/2+y,z
1/2+x,1/2-y,z
loop_
_atom_site_type_symbol
_atom_site_label
_atom_site_fract_x
_atom_site_fract_y
_atom_site_fract_z
Si Si1 0.182574 0.957047 0.346810
Si Si2 0.386576 0.999619 0.425609
Si Si3 0.326015 0.826368 0.625354
Si Si4 0.864658 0.240710 0.515728
Si Si5 0.434905 0.606059 0.548041
O O1 0.295534 0.001114 0.335985
O O2 0.140351 0.921816 0.222364
O O3 0.183103 0.824247 0.404819
O O4 0.123480 0.044385 0.438001
O O5 0.366208 0.884841 0.506936
O O6 0.500000 0.000000 0.384745
O O7 0.366437 0.117172 0.504502
O O8 0.206226 0.810226 0.617422
O O9 0.366434 0.689592 0.627371
O O10 0.976649 0.194922 0.511678
O O11 0.500000 0.500000 0.605412
#
# Coordination Sequence:
#
# PCOD9366936 Si02
#       5
#     8   8   8   8   8
#     4  10  24  44  69  99 141 186 235 292 354 424
#     4  11  22  42  65  99 141 181 235 298 352 419
#     4  11  23  44  71 102 136 193 235 285 359 425
#     4  10  22  44  64  98 146 178 227 303 349 412
#     4  10  21  45  70  98 145 183 230 298 353 412
#
# _framework density 23.225784999999998
#
# number of rings (size 3 to 8) (size 9 to 14) (size 15 to 20)
#    0.000    1.600    4.000    0.000    0.000    4.000 
#    3.600    0.000    0.000    0.000    0.000    0.000 
#    0.000    0.000    0.000    0.000    0.000    0.000 
#
# Total GULP energy -111397.660070 kJ/mol
# GULP energy per Si atom -5569.883003 kJ/mol
# Density = 2.317292 g / cm^3
# Si number density = 23.225785 Si / 1000 Ang^3
#
#
#
# Elastic Constant Matrix: (Units=GPa)
#
#
# Indices 1 2 3 4 5 6 
#
# 1 154.0090 44.1854 30.7569 0.0000 0.0000 0.0000
# 2 44.1854 120.1356 16.3502 0.0000 0.0000 0.0000
# 3 30.7569 16.3502 57.0652 0.0000 0.0000 0.0000
# 4 0.0000 0.0000 0.0000 29.6707 0.0000 0.0000
# 5 0.0000 0.0000 0.0000 0.0000 -4.3696 0.0000
# 6 0.0000 0.0000 0.0000 0.0000 0.0000 19.9263
#
#
#
# Elastic Compliance Matrix: (Units=1/GPa)
#
#
# Indices 1 2 3 4 5 6 
#
# 1 0.007899 -0.002420 -0.003564 0.000000 0.000000 0.000000
# 2 -0.002420 0.009403 -0.001390 0.000000 0.000000 0.000000
# 3 -0.003564 -0.001390 0.019843 0.000000 0.000000 0.000000
# 4 0.000000 0.000000 0.000000 0.033703 0.000000 0.000000
# 5 0.000000 0.000000 0.000000 0.000000 -0.228854 0.000000
# 6 0.000000 0.000000 0.000000 0.000000 0.000000 0.050185
#
#
# Mechanical properties :
#
#
# Convention : Reuss Voigt Hill
#
# Bulk Modulus (GPa) = 44.64820 57.08829 50.86824
# Shear Modulus (GPa) = -58.40700 25.03997 -16.68351
#
# Velocity S-wave (km/s) = -5.02017 3.28702 -2.68305
# Velocity P-wave (km/s) = 3.78649 6.24813 3.51437
#
# Compressibility (1/GPa) = 0.02239732
#
# Stress axis : x y z
#
# Youngs Moduli (GPa) = 126.59386 106.34650 50.39574
#
# Poissons Ratio (x) = 0.25739 0.17961
# Poissons Ratio (y) = 0.30639 0.07004
# Poissons Ratio (z) = 0.45119 0.14779
#
# Static dielectric constant tensor:
#      x y z
#    x 1.947600 0.000000 0.000000 
#    y 0.000000 1.870730 0.000000 
#    z 0.000000 0.000000 1.958310 
# 
# From -- ./inp_files/5394.got.cif
#   From: 2010.05.17/outbox.cif.g08.bks.cpg/sg41_3_cif.got.tgz:5394.got - 2010.06.03 18:54:24.
