data_PCOD9366963
_publ_section_title
;
Structure prediction by ZEFSAII (Michael W. Deem and Ramdas Pophale) SiO2 
 PCOD9366963
Probable space group: A B A 2
;
_chemical_formula_sum "Si O2"
_cell_formula_units_Z 60
_cell_length_a 9.004854
_cell_length_b 11.078140
_cell_length_c 27.476676
_cell_angle_alpha 90.000000
_cell_angle_beta 90.000000
_cell_angle_gamma 90.000000
_cell_volume 2740.991682
_symmetry_space_group_name_H-M "A B A 2"
_symmetry_group_IT_number 41
_symmetry_cell_setting 'orthorhombic'
loop_
_space_group_symop_operation_xyz
x,y,z
-x,-y,z
1/2-x,y,1/2+z
1/2+x,-y,1/2+z
x,1/2+y,1/2+z
-x,1/2-y,1/2+z
1/2-x,1/2+y,z
1/2+x,1/2-y,z
loop_
_atom_site_type_symbol
_atom_site_label
_atom_site_fract_x
_atom_site_fract_y
_atom_site_fract_z
Si Si1 0.789613 0.796735 0.289130
Si Si2 0.017632 0.629251 0.343027
Si Si3 0.141962 0.372369 0.448215
Si Si4 0.177213 0.644188 0.481104
Si Si5 0.462547 0.327731 0.224829
Si Si6 0.517032 0.640177 0.645418
Si Si7 0.712572 0.310663 0.092039
Si Si8 0.500000 0.500000 0.144336
O O1 0.690408 0.844598 0.334050
O O2 0.672977 0.720791 0.256950
O O3 0.916412 0.718210 0.313285
O O4 0.894832 0.880039 0.255028
O O5 0.000000 0.500000 0.319296
O O6 0.945016 0.625134 0.396492
O O7 0.206277 0.507413 0.460085
O O8 0.255265 0.259476 0.451635
O O9 0.002357 0.348601 0.483876
O O10 0.235912 0.663682 0.535455
O O11 0.532330 0.214479 0.195242
O O12 0.409770 0.416419 0.182169
O O13 0.500000 0.500000 0.654674
O O14 0.363728 0.679686 0.620890
O O15 0.640770 0.682205 0.606566
O O16 0.600842 0.412493 0.112612
#
# Coordination Sequence:
#
# PCOD9366963 Si02
#       8
#     8   8   8   8   8   8   8   4
#     4  10  24  41  64  96 125 169 227 277 336 420
#     4  11  23  44  68  94 133 172 219 284 350 404
#     4  11  24  45  71 104 138 184 225 294 355 416
#     4  11  24  44  72 101 141 182 235 287 345 420
#     4  10  22  41  61  97 129 175 222 275 342 392
#     4  11  26  42  68  96 139 184 230 286 342 410
#     4  11  25  43  66  99 136 184 234 277 342 404
#     4  10  22  36  66  88 138 168 224 276 328 398
#
# _framework density 21.889889
#
# number of rings (size 3 to 8) (size 9 to 14) (size 15 to 20)
#    0.000    1.333    1.333    4.000    9.333    2.667 
#    0.000    0.000    0.000    0.000    0.000    0.000 
#    0.000    0.000    0.000    0.000    0.000    0.000 
#
# Total GULP energy -167345.033657 kJ/mol
# GULP energy per Si atom -5578.167789 kJ/mol
# Density = 2.184007 g / cm^3
# Si number density = 21.889889 Si / 1000 Ang^3
#
#
#
# Elastic Constant Matrix: (Units=GPa)
#
#
# Indices 1 2 3 4 5 6 
#
# 1 77.8903 16.1774 3.1168 0.0000 0.0000 0.0000
# 2 16.1774 117.4102 14.9788 0.0000 0.0000 0.0000
# 3 3.1168 14.9788 85.6380 0.0000 0.0000 0.0000
# 4 0.0000 0.0000 0.0000 25.8255 0.0000 0.0000
# 5 0.0000 0.0000 0.0000 0.0000 16.5481 0.0000
# 6 0.0000 0.0000 0.0000 0.0000 0.0000 23.8832
#
#
#
# Elastic Compliance Matrix: (Units=1/GPa)
#
#
# Indices 1 2 3 4 5 6 
#
# 1 0.013219 -0.001800 -0.000166 0.000000 0.000000 0.000000
# 2 -0.001800 0.008957 -0.001501 0.000000 0.000000 0.000000
# 3 -0.000166 -0.001501 0.011946 0.000000 0.000000 0.000000
# 4 0.000000 0.000000 0.000000 0.038721 0.000000 0.000000
# 5 0.000000 0.000000 0.000000 0.000000 0.060430 0.000000
# 6 0.000000 0.000000 0.000000 0.000000 0.000000 0.041870
#
#
# Mechanical properties :
#
#
# Convention : Reuss Voigt Hill
#
# Bulk Modulus (GPa) = 36.78306 38.83162 37.80734
# Shear Modulus (GPa) = 26.15878 29.69573 27.92725
#
# Velocity S-wave (km/s) = 3.46065 3.68720 3.57572
# Velocity P-wave (km/s) = 5.72785 5.99210 5.86147
#
# Compressibility (1/GPa) = 0.02718643
#
# Stress axis : x y z
#
# Youngs Moduli (GPa) = 75.64803 111.64843 83.71245
#
# Poissons Ratio (x) = 0.20099 0.01392
# Poissons Ratio (y) = 0.13618 0.12566
# Poissons Ratio (z) = 0.01258 0.16759
#
# Static dielectric constant tensor:
#      x y z
#    x 1.789570 0.000000 0.000000 
#    y 0.000000 1.847330 0.000000 
#    z 0.000000 0.000000 1.877270 
# 
# From -- ./inp_files/12469.got.cif
#   From: 2010.05.17/outbox.cif.g08.bks.cpg/sg41_7_cif.got.tgz:12469.got - 2010.06.03 18:54:24.
