data_PCOD9366097
_publ_section_title
;
Structure prediction by ZEFSAII (Michael W. Deem and Ramdas Pophale) SiO2 
 PCOD9366097
Probable space group: A B A 2
;
_chemical_formula_sum "Si O2"
_cell_formula_units_Z 40
_cell_length_a 9.037971
_cell_length_b 15.456370
_cell_length_c 15.176127
_cell_angle_alpha 90.000000
_cell_angle_beta 90.000000
_cell_angle_gamma 90.000000
_cell_volume 2120.017282
_symmetry_space_group_name_H-M "A B A 2"
_symmetry_group_IT_number 41
_symmetry_cell_setting 'orthorhombic'
loop_
_space_group_symop_operation_xyz
x,y,z
-x,-y,z
1/2-x,y,1/2+z
1/2+x,-y,1/2+z
x,1/2+y,1/2+z
-x,1/2-y,1/2+z
1/2-x,1/2+y,z
1/2+x,1/2-y,z
loop_
_atom_site_type_symbol
_atom_site_label
_atom_site_fract_x
_atom_site_fract_y
_atom_site_fract_z
Si Si1 0.698470 0.727050 0.174560
Si Si2 0.393760 0.579649 0.044268
Si Si3 0.958714 0.718675 0.050379
Si Si4 0.914703 0.368358 0.737255
Si Si5 0.595340 0.918217 0.933667
O O1 0.805796 0.690526 0.097288
O O2 0.587617 0.791664 0.123073
O O3 0.586117 0.661737 0.222724
O O4 0.810102 0.782755 0.234162
O O5 0.500000 0.500000 0.020872
O O6 0.453467 0.678207 0.032535
O O7 0.370944 0.577288 0.150375
O O8 0.248750 0.576474 0.985071
O O9 0.005522 0.666074 0.965548
O O10 0.889078 0.415039 0.828755
O O11 0.500000 0.000000 0.960544
#
# Coordination Sequence:
#
# PCOD9366097 Si02
#       5
#     8   8   8   8   8
#     4   8  18  37  66  86 118 168 207 244 332 355
#     4  10  23  44  66  88 134 171 203 264 325 371
#     4  10  19  41  63  92 119 171 211 251 318 377
#     4  10  21  40  62  94 128 164 209 264 315 382
#     4  12  26  38  62 101 126 166 224 256 312 385
#
# _framework density 18.867768999999999
#
# number of rings (size 3 to 8) (size 9 to 14) (size 15 to 20)
#    0.000    2.400    4.000    0.600    8.400    0.000 
#    0.000    1.000    0.000    0.000    0.000    0.000 
#    0.000    0.000    0.000    0.000    0.000    0.000 
#
# Total GULP energy -111411.931543 kJ/mol
# GULP energy per Si atom -5570.596577 kJ/mol
# Density = 1.882483 g / cm^3
# Si number density = 18.867769 Si / 1000 Ang^3
#
#
#
# Elastic Constant Matrix: (Units=GPa)
#
#
# Indices 1 2 3 4 5 6 
#
# 1 139.2397 41.2402 50.8462 0.0000 0.0000 0.0000
# 2 41.2402 88.5773 40.5717 0.0000 0.0000 0.0000
# 3 50.8462 40.5717 84.8838 0.0000 0.0000 0.0000
# 4 0.0000 0.0000 0.0000 12.1272 0.0000 0.0000
# 5 0.0000 0.0000 0.0000 0.0000 24.3733 0.0000
# 6 0.0000 0.0000 0.0000 0.0000 0.0000 22.5991
#
#
#
# Elastic Compliance Matrix: (Units=1/GPa)
#
#
# Indices 1 2 3 4 5 6 
#
# 1 0.009557 -0.002340 -0.004606 0.000000 0.000000 0.000000
# 2 -0.002340 0.015027 -0.005781 0.000000 0.000000 0.000000
# 3 -0.004606 -0.005781 0.017303 0.000000 0.000000 0.000000
# 4 0.000000 0.000000 0.000000 0.082459 0.000000 0.000000
# 5 0.000000 0.000000 0.000000 0.000000 0.041029 0.000000
# 6 0.000000 0.000000 0.000000 0.000000 0.000000 0.044249
#
#
# Mechanical properties :
#
#
# Convention : Reuss Voigt Hill
#
# Bulk Modulus (GPa) = 60.85306 64.22413 62.53860
# Shear Modulus (GPa) = 20.78523 23.82277 22.30400
#
# Velocity S-wave (km/s) = 3.32268 3.55719 3.44193
# Velocity P-wave (km/s) = 6.85876 7.14034 7.00097
#
# Compressibility (1/GPa) = 0.01643303
#
# Stress axis : x y z
#
# Youngs Moduli (GPa) = 104.63581 66.54820 57.79296
#
# Poissons Ratio (x) = 0.15570 0.26622
# Poissons Ratio (y) = 0.24481 0.33409
# Poissons Ratio (z) = 0.48200 0.38470
#
# Static dielectric constant tensor:
#      x y z
#    x 1.707570 0.000000 0.000000 
#    y 0.000000 1.663630 0.000000 
#    z 0.000000 0.000000 1.659800 
# 
# From -- ./inp_files/7236.got.cif
#   From: 2010.05.17/outbox.cif.g08.bks.cpg/sg41_4_cif.got.tgz:7236.got - 2010.06.03 18:54:24.
