data_PCOD9366546
_publ_section_title
;
Structure prediction by ZEFSAII (Michael W. Deem and Ramdas Pophale) SiO2 
 PCOD9366546
Probable space group: A B A 2
;
_chemical_formula_sum "Si O2"
_cell_formula_units_Z 48
_cell_length_a 11.934121
_cell_length_b 12.291020
_cell_length_c 12.188372
_cell_angle_alpha 90.000000
_cell_angle_beta 90.000000
_cell_angle_gamma 90.000000
_cell_volume 1787.821118
_symmetry_space_group_name_H-M "A B A 2"
_symmetry_group_IT_number 41
_symmetry_cell_setting 'orthorhombic'
loop_
_space_group_symop_operation_xyz
x,y,z
-x,-y,z
1/2-x,y,1/2+z
1/2+x,-y,1/2+z
x,1/2+y,1/2+z
-x,1/2-y,1/2+z
1/2-x,1/2+y,z
1/2+x,1/2-y,z
loop_
_atom_site_type_symbol
_atom_site_label
_atom_site_fract_x
_atom_site_fract_y
_atom_site_fract_z
Si Si1 0.197510 0.388347 0.230340
Si Si2 0.988834 0.800733 0.221337
Si Si3 0.302490 0.888347 0.982633
Si Si4 0.130236 0.116849 0.414820
Si Si5 0.011167 0.699267 0.491636
Si Si6 0.130236 0.116849 0.798153
O O1 0.110978 0.288468 0.225282
O O2 0.250000 0.385538 0.356487
O O3 0.135814 0.505682 0.232746
O O4 0.254213 0.388695 0.106487
O O5 0.963992 0.880138 0.320419
O O6 0.099137 0.726388 0.232761
O O7 0.983819 0.858974 0.106487
O O8 0.389022 0.788468 0.987691
O O9 0.364186 0.005682 0.980227
O O10 0.250000 0.127674 0.356487
O O11 0.099137 0.226387 0.480213
O O12 0.036008 0.619862 0.392554
#
# Coordination Sequence:
#
# PCOD9366546 Si02
#       6
#     8   8   8   8   8   8
#     4  10  21  39  63  90 122 162 203 246 300 361
#     4  10  21  38  60  86 118 158 203 250 301 359
#     4  10  21  39  63  90 122 162 203 246 300 361
#     4  10  21  36  59  87 117 154 200 247 300 358
#     4  10  21  38  60  86 118 158 203 250 301 359
#     4  10  21  36  59  87 117 154 200 247 300 358
#
# _framework density 26.848324000000002
#
# number of rings (size 3 to 8) (size 9 to 14) (size 15 to 20)
#    0.000    2.000    0.000    3.000    0.000    9.333 
#    0.000   11.667    0.000   16.000    0.000    0.000 
#    0.000    0.000    0.000    0.000    0.000    0.000 
#
# Total GULP energy -134010.676552 kJ/mol
# GULP energy per Si atom -5583.778190 kJ/mol
# Density = 2.678722 g / cm^3
# Si number density = 26.848324 Si / 1000 Ang^3
#
#
#
# Elastic Constant Matrix: (Units=GPa)
#
#
# Indices 1 2 3 4 5 6 
#
# 1 84.9304 25.1950 30.0956 0.0000 0.0000 0.0000
# 2 25.1950 131.9301 45.6925 0.0000 0.0000 0.0000
# 3 30.0956 45.6925 258.7227 0.0000 0.0000 0.0000
# 4 0.0000 0.0000 0.0000 -4.5353 0.0000 0.0000
# 5 0.0000 0.0000 0.0000 0.0000 17.1223 0.0000
# 6 0.0000 0.0000 0.0000 0.0000 0.0000 19.0552
#
#
#
# Elastic Compliance Matrix: (Units=1/GPa)
#
#
# Indices 1 2 3 4 5 6 
#
# 1 0.012781 -0.002051 -0.001124 0.000000 0.000000 0.000000
# 2 -0.002051 0.008403 -0.001245 0.000000 0.000000 0.000000
# 3 -0.001124 -0.001245 0.004216 0.000000 0.000000 0.000000
# 4 0.000000 0.000000 0.000000 -0.220494 0.000000 0.000000
# 5 0.000000 0.000000 0.000000 0.000000 0.058403 0.000000
# 6 0.000000 0.000000 0.000000 0.000000 0.000000 0.052479
#
#
# Mechanical properties :
#
#
# Convention : Reuss Voigt Hill
#
# Bulk Modulus (GPa) = 60.39548 75.28327 67.83937
# Shear Modulus (GPa) = -71.58256 31.30178 -20.14039
#
# Velocity S-wave (km/s) = -5.16911 3.41819 -2.74187
# Velocity P-wave (km/s) = 3.61696 6.60907 3.91136
#
# Compressibility (1/GPa) = 0.01655753
#
# Stress axis : x y z
#
# Youngs Moduli (GPa) = 78.23882 119.00698 237.19786
#
# Poissons Ratio (x) = 0.24414 0.26672
# Poissons Ratio (y) = 0.16050 0.29540
# Poissons Ratio (z) = 0.08798 0.14821
#
# Static dielectric constant tensor:
#      x y z
#    x 2.219750 0.000000 0.000000 
#    y 0.000000 2.030870 0.000000 
#    z 0.000000 0.000000 2.138480 
# 
# From -- ./inp_files/5512.got.cif
#   From: 2010.05.17/outbox.cif.g08.bks.cpg/sg41_3_cif.got.tgz:5512.got - 2010.06.03 18:54:24.
