data_PCOD9366493
_publ_section_title
;
Structure prediction by ZEFSAII (Michael W. Deem and Ramdas Pophale) SiO2 
 PCOD9366493
Probable space group: A B A 2
;
_chemical_formula_sum "Si O2"
_cell_formula_units_Z 60
_cell_length_a 9.784168
_cell_length_b 18.409238
_cell_length_c 17.117682
_cell_angle_alpha 90.000000
_cell_angle_beta 90.000000
_cell_angle_gamma 90.000000
_cell_volume 3083.221088
_symmetry_space_group_name_H-M "A B A 2"
_symmetry_group_IT_number 41
_symmetry_cell_setting 'orthorhombic'
loop_
_space_group_symop_operation_xyz
x,y,z
-x,-y,z
1/2-x,y,1/2+z
1/2+x,-y,1/2+z
x,1/2+y,1/2+z
-x,1/2-y,1/2+z
1/2-x,1/2+y,z
1/2+x,1/2-y,z
loop_
_atom_site_type_symbol
_atom_site_label
_atom_site_fract_x
_atom_site_fract_y
_atom_site_fract_z
Si Si1 0.386329 0.283345 0.381130
Si Si2 0.000000 0.500000 0.232534
Si Si3 0.448315 0.112707 0.655598
Si Si4 0.667049 0.310078 0.304232
Si Si5 0.673838 0.943867 0.369223
Si Si6 0.227399 0.465173 0.635194
Si Si7 0.030763 0.656799 0.483520
Si Si8 0.751158 0.588856 0.455167
O O1 0.533172 0.279355 0.343403
O O2 0.280731 0.251800 0.317234
O O3 0.389037 0.224670 0.450050
O O4 0.367494 0.362438 0.418451
O O5 0.073592 0.554244 0.294135
O O6 0.127122 0.468981 0.181049
O O7 0.377650 0.163036 0.719347
O O8 0.605527 0.085845 0.671220
O O9 0.459500 0.154928 0.575127
O O10 0.348667 0.043355 0.641048
O O11 0.713988 0.384254 0.347562
O O12 0.596226 0.914780 0.445199
O O13 0.723639 0.023250 0.394396
O O14 0.255329 0.442074 0.544326
O O15 0.874425 0.647418 0.457765
#
# Coordination Sequence:
#
# PCOD9366493 Si02
#       8
#     8   4   8   8   8   8   8   8
#     4  11  25  44  66  96 135 173 227 272 339 410
#     4  12  22  38  60 110 134 164 214 286 344 394
#     4  10  21  43  67  92 133 174 223 274 335 398
#     4  11  25  45  65  98 134 173 223 284 335 403
#     4  11  22  37  72  96 128 176 221 277 328 396
#     4  10  23  39  67 103 132 168 222 285 337 389
#     4  10  20  43  65  91 131 180 221 257 340 410
#     4  11  21  42  68  98 128 178 223 276 330 403
#
# _framework density 19.460167999999999
#
# number of rings (size 3 to 8) (size 9 to 14) (size 15 to 20)
#    0.000    1.333    5.333    0.000    1.867    1.600 
#    4.800    0.000    0.000    0.000    0.000    0.000 
#    0.000    0.000    0.000    0.000    0.000    0.000 
#
# Total GULP energy -167147.235468 kJ/mol
# GULP energy per Si atom -5571.574516 kJ/mol
# Density = 1.941588 g / cm^3
# Si number density = 19.460168 Si / 1000 Ang^3
#
#
#
# Elastic Constant Matrix: (Units=GPa)
#
#
# Indices 1 2 3 4 5 6 
#
# 1 115.0291 25.8474 35.9219 0.0000 0.0000 0.0000
# 2 25.8474 54.3569 20.4499 0.0000 0.0000 0.0000
# 3 35.9219 20.4499 81.6399 0.0000 0.0000 0.0000
# 4 0.0000 0.0000 0.0000 19.0680 0.0000 0.0000
# 5 0.0000 0.0000 0.0000 0.0000 12.1719 0.0000
# 6 0.0000 0.0000 0.0000 0.0000 0.0000 18.6054
#
#
#
# Elastic Compliance Matrix: (Units=1/GPa)
#
#
# Indices 1 2 3 4 5 6 
#
# 1 0.010700 -0.003662 -0.003791 0.000000 0.000000 0.000000
# 2 -0.003662 0.021564 -0.003790 0.000000 0.000000 0.000000
# 3 -0.003791 -0.003790 0.014866 0.000000 0.000000 0.000000
# 4 0.000000 0.000000 0.000000 0.052444 0.000000 0.000000
# 5 0.000000 0.000000 0.000000 0.000000 0.082156 0.000000
# 6 0.000000 0.000000 0.000000 0.000000 0.000000 0.053748
#
#
# Mechanical properties :
#
#
# Convention : Reuss Voigt Hill
#
# Bulk Modulus (GPa) = 40.57699 46.16270 43.36984
# Shear Modulus (GPa) = 18.78432 21.22285 20.00358
#
# Velocity S-wave (km/s) = 3.11025 3.30597 3.20960
# Velocity P-wave (km/s) = 5.81333 6.19239 6.00585
#
# Compressibility (1/GPa) = 0.02464451
#
# Stress axis : x y z
#
# Youngs Moduli (GPa) = 93.45699 46.37316 67.26606
#
# Poissons Ratio (x) = 0.16981 0.25499
# Poissons Ratio (y) = 0.34223 0.25496
# Poissons Ratio (z) = 0.35428 0.17577
#
# Static dielectric constant tensor:
#      x y z
#    x 1.754870 0.000000 0.000000 
#    y 0.000000 1.677270 0.000000 
#    z 0.000000 0.000000 1.687990 
# 
# From -- ./inp_files/9756.got.cif
#   From: 2010.05.17/outbox.cif.g08.bks.cpg/sg41_5_cif.got.tgz:9756.got - 2010.06.03 18:54:24.
