data_PCOD9366957
_publ_section_title
;
Structure prediction by ZEFSAII (Michael W. Deem and Ramdas Pophale) SiO2 
 PCOD9366957
Probable space group: A B A 2
;
_chemical_formula_sum "Si O2"
_cell_formula_units_Z 48
_cell_length_a 8.681410
_cell_length_b 10.959190
_cell_length_c 25.613869
_cell_angle_alpha 90.000000
_cell_angle_beta 90.000000
_cell_angle_gamma 90.000000
_cell_volume 2436.934788
_symmetry_space_group_name_H-M "A B A 2"
_symmetry_group_IT_number 41
_symmetry_cell_setting 'orthorhombic'
loop_
_space_group_symop_operation_xyz
x,y,z
-x,-y,z
1/2-x,y,1/2+z
1/2+x,-y,1/2+z
x,1/2+y,1/2+z
-x,1/2-y,1/2+z
1/2-x,1/2+y,z
1/2+x,1/2-y,z
loop_
_atom_site_type_symbol
_atom_site_label
_atom_site_fract_x
_atom_site_fract_y
_atom_site_fract_z
Si Si1 0.500000 0.000000 0.168360
Si Si2 0.782573 0.590845 0.985811
Si Si3 0.699565 0.903759 0.076497
Si Si4 0.500000 0.500000 0.402572
Si Si5 0.487468 0.200377 0.523812
Si Si6 0.412460 0.379660 0.770089
Si Si7 0.438300 0.872553 0.801858
O O1 0.630677 0.939063 0.132303
O O2 0.417667 0.905707 0.207863
O O3 0.823436 0.520251 0.039105
O O4 0.877686 0.716974 0.987483
O O5 0.602023 0.618592 0.989208
O O6 0.851043 0.509138 0.939466
O O7 0.876899 0.867569 0.065186
O O8 0.600017 0.790919 0.055046
O O9 0.490459 0.387677 0.362251
O O10 0.500000 0.500000 0.791940
O O11 0.495768 0.252382 0.780166
O O12 0.243738 0.373946 0.794089
O O13 0.500000 0.000000 0.777052
#
# Coordination Sequence:
#
# PCOD9366957 Si02
#       7
#     4   8   8   4   8   8   8
#     4  10  23  40  72  94 140 186 229 288 356 420
#     4  11  20  43  59 101 137 171 223 275 332 428
#     4  11  20  43  60 100 138 172 224 277 337 428
#     4  10  23  40  72  92 142 182 223 288 354 414
#     4  10  22  34  68  86 144 177 209 278 335 401
#     4  10  23  45  70  98 140 183 238 304 354 413
#     4  10  23  45  69  98 136 185 234 303 353 413
#
# _framework density 19.696876
#
# number of rings (size 3 to 8) (size 9 to 14) (size 15 to 20)
#    1.000    0.667    3.333    1.500    0.000    2.667 
#    0.000    1.667    0.000    0.000    0.000    0.000 
#    0.000    0.000    0.000    0.000    0.000    0.000 
#
# Total GULP energy -133705.888286 kJ/mol
# GULP energy per Si atom -5571.078679 kJ/mol
# Density = 1.965204 g / cm^3
# Si number density = 19.696876 Si / 1000 Ang^3
#
#
#
# Elastic Constant Matrix: (Units=GPa)
#
#
# Indices 1 2 3 4 5 6 
#
# 1 166.4885 73.0456 38.7433 0.0000 0.0000 0.0000
# 2 73.0456 112.7482 31.4727 0.0000 0.0000 0.0000
# 3 38.7433 31.4727 89.0281 0.0000 0.0000 0.0000
# 4 0.0000 0.0000 0.0000 31.2839 0.0000 0.0000
# 5 0.0000 0.0000 0.0000 0.0000 12.8423 0.0000
# 6 0.0000 0.0000 0.0000 0.0000 0.0000 50.1613
#
#
#
# Elastic Compliance Matrix: (Units=1/GPa)
#
#
# Indices 1 2 3 4 5 6 
#
# 1 0.008698 -0.005080 -0.001989 0.000000 0.000000 0.000000
# 2 -0.005080 0.012807 -0.002317 0.000000 0.000000 0.000000
# 3 -0.001989 -0.002317 0.012917 0.000000 0.000000 0.000000
# 4 0.000000 0.000000 0.000000 0.031965 0.000000 0.000000
# 5 0.000000 0.000000 0.000000 0.000000 0.077868 0.000000
# 6 0.000000 0.000000 0.000000 0.000000 0.000000 0.019936
#
#
# Mechanical properties :
#
#
# Convention : Reuss Voigt Hill
#
# Bulk Modulus (GPa) = 63.89718 72.75423 68.32570
# Shear Modulus (GPa) = 26.57027 33.85771 30.21399
#
# Velocity S-wave (km/s) = 3.67680 4.15051 3.92081
# Velocity P-wave (km/s) = 7.10886 7.74507 7.43377
#
# Compressibility (1/GPa) = 0.01565014
#
# Stress axis : x y z
#
# Youngs Moduli (GPa) = 114.96695 78.08148 77.41608
#
# Poissons Ratio (x) = 0.39665 0.15402
# Poissons Ratio (y) = 0.58402 0.17936
# Poissons Ratio (z) = 0.22872 0.18090
#
# Static dielectric constant tensor:
#      x y z
#    x 1.716540 0.000000 0.000000 
#    y 0.000000 1.656000 0.000000 
#    z 0.000000 0.000000 1.684940 
# 
# From -- ./inp_files/11971.got.cif
#   From: 2010.05.17/outbox.cif.g08.bks.cpg/sg41_6_cif.got.tgz:11971.got - 2010.06.03 18:54:24.
