data_PCOD9366886
_publ_section_title
;
Structure prediction by ZEFSAII (Michael W. Deem and Ramdas Pophale) SiO2 
 PCOD9366886
Probable space group: A B A 2
;
_chemical_formula_sum "Si O2"
_cell_formula_units_Z 28
_cell_length_a 5.573061
_cell_length_b 14.814742
_cell_length_c 12.662401
_cell_angle_alpha 90.000000
_cell_angle_beta 90.000000
_cell_angle_gamma 90.000000
_cell_volume 1045.451649
_symmetry_space_group_name_H-M "A B A 2"
_symmetry_group_IT_number 41
_symmetry_cell_setting 'orthorhombic'
loop_
_space_group_symop_operation_xyz
x,y,z
-x,-y,z
1/2-x,y,1/2+z
1/2+x,-y,1/2+z
x,1/2+y,1/2+z
-x,1/2-y,1/2+z
1/2-x,1/2+y,z
1/2+x,1/2-y,z
loop_
_atom_site_type_symbol
_atom_site_label
_atom_site_fract_x
_atom_site_fract_y
_atom_site_fract_z
Si Si1 0.242823 0.465152 0.403530
Si Si2 0.849795 0.239249 0.862470
Si Si3 0.605956 0.303195 0.593596
Si Si4 0.500000 0.000000 0.193876
O O1 0.500000 0.500000 0.438278
O O2 0.197013 0.359745 0.405153
O O3 0.000000 0.500000 0.460190
O O4 0.215711 0.490805 0.279311
O O5 0.604589 0.264716 0.804771
O O6 0.869674 0.303094 0.964278
O O7 0.370348 0.240215 0.616750
O O8 0.545975 0.404711 0.634797
#
# Coordination Sequence:
#
# PCOD9366886 Si02
#       4
#     8   8   8   4
#     4  10  23  41  66  99 134 176 230 276 342 411
#     4  10  21  43  64  99 131 176 225 286 330 404
#     4  10  24  44  67  99 138 178 230 280 344 410
#     4  10  26  44  70  98 142 184 220 288 348 418
#
# _framework density 26.782682000000001
#
# number of rings (size 3 to 8) (size 9 to 14) (size 15 to 20)
#    0.857    1.143    0.000    1.714    4.000    2.286 
#   30.857    0.000    0.000    0.000    0.000    0.000 
#    0.000    0.000    0.000    0.000    0.000    0.000 
#
# Total GULP energy -78135.714166 kJ/mol
# GULP energy per Si atom -5581.122440 kJ/mol
# Density = 2.672172 g / cm^3
# Si number density = 26.782682 Si / 1000 Ang^3
#
#
#
# Elastic Constant Matrix: (Units=GPa)
#
#
# Indices 1 2 3 4 5 6 
#
# 1 301.8260 47.4402 38.1589 0.0000 0.0000 0.0000
# 2 47.4402 145.5041 13.6122 0.0000 0.0000 0.0000
# 3 38.1589 13.6122 88.0520 0.0000 0.0000 0.0000
# 4 0.0000 0.0000 0.0000 71.0780 0.0000 0.0000
# 5 0.0000 0.0000 0.0000 0.0000 33.3875 0.0000
# 6 0.0000 0.0000 0.0000 0.0000 0.0000 32.2960
#
#
#
# Elastic Compliance Matrix: (Units=1/GPa)
#
#
# Indices 1 2 3 4 5 6 
#
# 1 0.003660 -0.001060 -0.001422 0.000000 0.000000 0.000000
# 2 -0.001060 0.007281 -0.000666 0.000000 0.000000 0.000000
# 3 -0.001422 -0.000666 0.012076 0.000000 0.000000 0.000000
# 4 0.000000 0.000000 0.000000 0.014069 0.000000 0.000000
# 5 0.000000 0.000000 0.000000 0.000000 0.029951 0.000000
# 6 0.000000 0.000000 0.000000 0.000000 0.000000 0.030964
#
#
# Mechanical properties :
#
#
# Convention : Reuss Voigt Hill
#
# Bulk Modulus (GPa) = 59.80939 81.53387 70.67163
# Shear Modulus (GPa) = 45.50823 56.43034 50.96929
#
# Velocity S-wave (km/s) = 4.12657 4.59516 4.36715
# Velocity P-wave (km/s) = 6.71451 7.65916 7.20234
#
# Compressibility (1/GPa) = 0.01671978
#
# Stress axis : x y z
#
# Youngs Moduli (GPa) = 273.25516 137.35088 82.80772
#
# Poissons Ratio (x) = 0.14561 0.11776
# Poissons Ratio (y) = 0.28969 0.05516
# Poissons Ratio (z) = 0.38858 0.09149
#
# Static dielectric constant tensor:
#      x y z
#    x 2.236500 0.000000 0.000000 
#    y 0.000000 1.992580 0.000000 
#    z 0.000000 0.000000 2.182340 
# 
# From -- ./inp_files/9335.got.cif
#   From: 2010.05.17/outbox.cif.g08.bks.cpg/sg41_5_cif.got.tgz:9335.got - 2010.06.03 18:54:24.
