data_PCOD9366005
_publ_section_title
;
Structure prediction by ZEFSAII (Michael W. Deem and Ramdas Pophale) SiO2 
 PCOD9366005
Probable space group: A B A 2
;
_chemical_formula_sum "Si O2"
_cell_formula_units_Z 56
_cell_length_a 27.998124
_cell_length_b 13.906860
_cell_length_c 5.546480
_cell_angle_alpha 90.000000
_cell_angle_beta 90.000000
_cell_angle_gamma 90.000000
_cell_volume 2159.610680
_symmetry_space_group_name_H-M "A B A 2"
_symmetry_group_IT_number 41
_symmetry_cell_setting 'orthorhombic'
loop_
_space_group_symop_operation_xyz
x,y,z
-x,-y,z
1/2-x,y,1/2+z
1/2+x,-y,1/2+z
x,1/2+y,1/2+z
-x,1/2-y,1/2+z
1/2-x,1/2+y,z
1/2+x,1/2-y,z
loop_
_atom_site_type_symbol
_atom_site_label
_atom_site_fract_x
_atom_site_fract_y
_atom_site_fract_z
Si Si1 0.065446 0.465714 0.825650
Si Si2 0.138317 0.944481 0.944986
Si Si3 0.256700 0.358331 0.944438
Si Si4 0.014958 0.130116 0.131840
Si Si5 0.878948 0.385341 0.120302
Si Si6 0.073212 0.284218 0.363298
Si Si7 0.722759 0.431921 0.434353
O O1 0.113269 0.428095 0.703119
O O2 0.021520 0.392852 0.859382
O O3 0.043843 0.531600 0.605345
O O4 0.079814 0.543147 0.021542
O O5 0.191348 0.905647 0.943756
O O6 0.107808 0.869609 0.780741
O O7 0.136952 0.055569 0.859535
O O8 0.249848 0.304073 0.694502
O O9 0.221403 0.450647 0.941865
O O10 0.056364 0.207212 0.169363
O O11 0.976490 0.168549 0.946228
O O12 0.830449 0.390196 0.961059
O O13 0.901369 0.280070 0.074805
O O14 0.747369 0.408758 0.178196
#
# Coordination Sequence:
#
# PCOD9366005 Si02
#       7
#     8   8   8   8   8   8   8
#     4   9  20  38  60  86 116 168 208 260 322 401
#     4  11  22  38  64  90 124 167 217 263 337 398
#     4  10  19  36  64  94 128 172 218 274 330 403
#     4   9  20  40  57  82 126 154 209 270 322 387
#     4  11  22  38  64  90 124 167 217 263 337 398
#     4  10  24  40  58  96 124 162 220 278 332 402
#     4  10  19  36  64  94 128 172 218 274 330 403
#
# _framework density 25.930602
#
# number of rings (size 3 to 8) (size 9 to 14) (size 15 to 20)
#    0.000    2.000    2.857    1.714    4.000    0.000 
#    0.000    1.429    0.000    0.000    0.000    0.000 
#    0.000    0.000    0.000    0.000    0.000    0.000 
#
# Total GULP energy -156184.851568 kJ/mol
# GULP energy per Si atom -5578.030413 kJ/mol
# Density = 2.587158 g / cm^3
# Si number density = 25.930602 Si / 1000 Ang^3
#
#
#
# Elastic Constant Matrix: (Units=GPa)
#
#
# Indices 1 2 3 4 5 6 
#
# 1 110.8679 2.1642 28.2285 0.0000 0.0000 0.0000
# 2 2.1642 119.0143 16.4107 0.0000 0.0000 0.0000
# 3 28.2285 16.4107 120.3478 0.0000 0.0000 0.0000
# 4 0.0000 0.0000 0.0000 5.4920 0.0000 0.0000
# 5 0.0000 0.0000 0.0000 0.0000 26.3835 0.0000
# 6 0.0000 0.0000 0.0000 0.0000 0.0000 -9.0147
#
#
#
# Elastic Compliance Matrix: (Units=1/GPa)
#
#
# Indices 1 2 3 4 5 6 
#
# 1 0.009595 0.000138 -0.002269 0.000000 0.000000 0.000000
# 2 0.000138 0.008565 -0.001200 0.000000 0.000000 0.000000
# 3 -0.002269 -0.001200 0.009005 0.000000 0.000000 0.000000
# 4 0.000000 0.000000 0.000000 0.182083 0.000000 0.000000
# 5 0.000000 0.000000 0.000000 0.000000 0.037902 0.000000
# 6 0.000000 0.000000 0.000000 0.000000 0.000000 -0.110930
#
#
# Mechanical properties :
#
#
# Convention : Reuss Voigt Hill
#
# Bulk Modulus (GPa) = 48.77424 49.31520 49.04472
# Shear Modulus (GPa) = 33.39612 24.80060 29.09836
#
# Velocity S-wave (km/s) = 3.59263 3.09596 3.35350
# Velocity P-wave (km/s) = 6.00497 5.64264 5.82662
#
# Compressibility (1/GPa) = 0.02050262
#
# Stress axis : x y z
#
# Youngs Moduli (GPa) = 104.22241 116.74928 111.04624
#
# Poissons Ratio (x) = -0.01616 0.25201
# Poissons Ratio (y) = -0.01443 0.13331
# Poissons Ratio (z) = 0.23653 0.14015
#
# Static dielectric constant tensor:
#      x y z
#    x 1.975820 0.000000 0.000000 
#    y 0.000000 2.080430 0.000000 
#    z 0.000000 0.000000 2.207810 
# 
# From -- ./inp_files/1329.got.cif
#   From: 2010.05.17/outbox.cif.g08.bks.cpg/sg41_1_cif.got.tgz:1329.got - 2010.06.03 18:54:24.
