data_PCOD9366763
_publ_section_title
;
Structure prediction by ZEFSAII (Michael W. Deem and Ramdas Pophale) SiO2 
 PCOD9366763
Probable space group: A B A 2
;
_chemical_formula_sum "Si O2"
_cell_formula_units_Z 64
_cell_length_a 32.756222
_cell_length_b 14.472588
_cell_length_c 5.319918
_cell_angle_alpha 90.000000
_cell_angle_beta 90.000000
_cell_angle_gamma 90.000000
_cell_volume 2521.999191
_symmetry_space_group_name_H-M "A B A 2"
_symmetry_group_IT_number 41
_symmetry_cell_setting 'orthorhombic'
loop_
_space_group_symop_operation_xyz
x,y,z
-x,-y,z
1/2-x,y,1/2+z
1/2+x,-y,1/2+z
x,1/2+y,1/2+z
-x,1/2-y,1/2+z
1/2-x,1/2+y,z
1/2+x,1/2-y,z
loop_
_atom_site_type_symbol
_atom_site_label
_atom_site_fract_x
_atom_site_fract_y
_atom_site_fract_z
Si Si1 0.097578 0.896678 0.068490
Si Si2 0.007246 0.308897 0.993033
Si Si3 0.419431 0.238864 0.350660
Si Si4 0.759793 0.077176 0.520022
Si Si5 0.561578 0.416098 0.231503
Si Si6 0.850116 0.071752 0.574002
Si Si7 0.226590 0.222057 0.464464
Si Si8 0.357924 0.139290 0.060284
O O1 0.077966 0.794944 0.086005
O O2 0.127233 0.907152 0.311795
O O3 0.066331 0.981162 0.118089
O O4 0.123525 0.901571 0.815821
O O5 0.056356 0.320014 0.007060
O O6 0.004222 0.238476 0.754793
O O7 0.977490 0.391887 0.907527
O O8 0.438132 0.150085 0.489976
O O9 0.374036 0.197080 0.301524
O O10 0.744855 0.023484 0.762048
O O11 0.805555 0.113438 0.546484
O O12 0.731032 0.166583 0.489262
O O13 0.601744 0.385558 0.392052
O O14 0.842197 0.962910 0.618401
O O15 0.246347 0.191027 0.728206
O O16 0.179518 0.193173 0.438163
#
# Coordination Sequence:
#
# PCOD9366763 Si02
#       8
#     8   8   8   8   8   8   8   8
#     4  11  26  40  69 101 135 180 232 278 343 407
#     4  10  21  40  68 100 141 180 224 279 348 401
#     4  11  24  40  72 102 133 190 230 281 348 420
#     4  10  22  40  61  87 124 169 210 278 343 398
#     4  10  23  46  67 103 145 179 229 294 341 419
#     4  11  25  44  64  96 136 175 222 291 340 410
#     4  10  25  39  61  94 126 168 220 285 335 406
#     4  11  24  43  70  97 136 179 237 276 352 416
#
# _framework density 25.376695000000002
#
# number of rings (size 3 to 8) (size 9 to 14) (size 15 to 20)
#    0.000    1.500    2.500    0.750   10.500    1.500 
#    0.000    0.000    0.000    3.000    0.000    0.000 
#    0.000    0.000    0.000    0.000    0.000    0.000 
#
# Total GULP energy -178306.109732 kJ/mol
# GULP energy per Si atom -5572.065929 kJ/mol
# Density = 2.531894 g / cm^3
# Si number density = 25.376695 Si / 1000 Ang^3
#
#
#
# Elastic Constant Matrix: (Units=GPa)
#
#
# Indices 1 2 3 4 5 6 
#
# 1 92.8129 7.1938 26.9193 0.0000 0.0000 0.0000
# 2 7.1938 78.9114 3.6971 0.0000 0.0000 0.0000
# 3 26.9193 3.6971 160.2973 0.0000 0.0000 0.0000
# 4 0.0000 0.0000 0.0000 17.9599 0.0000 0.0000
# 5 0.0000 0.0000 0.0000 0.0000 42.6676 0.0000
# 6 0.0000 0.0000 0.0000 0.0000 0.0000 26.9841
#
#
#
# Elastic Compliance Matrix: (Units=1/GPa)
#
#
# Indices 1 2 3 4 5 6 
#
# 1 0.011397 -0.000950 -0.001892 0.000000 0.000000 0.000000
# 2 -0.000950 0.012765 -0.000135 0.000000 0.000000 0.000000
# 3 -0.001892 -0.000135 0.006559 0.000000 0.000000 0.000000
# 4 0.000000 0.000000 0.000000 0.055680 0.000000 0.000000
# 5 0.000000 0.000000 0.000000 0.000000 0.023437 0.000000
# 6 0.000000 0.000000 0.000000 0.000000 0.000000 0.037059
#
#
# Mechanical properties :
#
#
# Convention : Reuss Voigt Hill
#
# Bulk Modulus (GPa) = 40.37609 45.29356 42.83482
# Shear Modulus (GPa) = 31.03532 37.13644 34.08588
#
# Velocity S-wave (km/s) = 3.50091 3.82960 3.66894
# Velocity P-wave (km/s) = 5.68217 6.11896 5.90461
#
# Compressibility (1/GPa) = 0.02476713
#
# Stress axis : x y z
#
# Youngs Moduli (GPa) = 87.74419 78.33686 152.45661
#
# Poissons Ratio (x) = 0.07445 0.28844
# Poissons Ratio (y) = 0.08339 0.02056
# Poissons Ratio (z) = 0.16601 0.01056
#
# Static dielectric constant tensor:
#      x y z
#    x 2.388530 0.000000 0.000000 
#    y 0.000000 2.040520 0.000000 
#    z 0.000000 0.000000 2.091760 
# 
# From -- ./inp_files/1412.got.cif
#   From: 2010.05.17/outbox.cif.g08.bks.cpg/sg41_1_cif.got.tgz:1412.got - 2010.06.03 18:54:24.
