data_PCOD9366420
_publ_section_title
;
Structure prediction by ZEFSAII (Michael W. Deem and Ramdas Pophale) SiO2 
 PCOD9366420
Probable space group: A B A 2
;
_chemical_formula_sum "Si O2"
_cell_formula_units_Z 56
_cell_length_a 25.605719
_cell_length_b 5.912964
_cell_length_c 15.824988
_cell_angle_alpha 90.000000
_cell_angle_beta 90.000000
_cell_angle_gamma 90.000000
_cell_volume 2395.993301
_symmetry_space_group_name_H-M "A B A 2"
_symmetry_group_IT_number 41
_symmetry_cell_setting 'orthorhombic'
loop_
_space_group_symop_operation_xyz
x,y,z
-x,-y,z
1/2-x,y,1/2+z
1/2+x,-y,1/2+z
x,1/2+y,1/2+z
-x,1/2-y,1/2+z
1/2-x,1/2+y,z
1/2+x,1/2-y,z
loop_
_atom_site_type_symbol
_atom_site_label
_atom_site_fract_x
_atom_site_fract_y
_atom_site_fract_z
Si Si1 0.164187 0.448207 0.891400
Si Si2 0.500000 0.000000 0.806690
Si Si3 0.241447 0.448796 0.267265
Si Si4 0.000000 0.000000 0.556139
Si Si5 0.130050 0.083809 0.754436
Si Si6 0.404340 0.209718 0.513470
Si Si7 0.924296 0.676524 0.378969
Si Si8 0.431139 0.863287 0.650647
O O1 0.223508 0.476880 0.854116
O O2 0.140939 0.289280 0.818100
O O3 0.150428 0.310284 0.977671
O O4 0.126429 0.665237 0.895146
O O5 0.522671 0.810405 0.867961
O O6 0.454375 0.927824 0.742101
O O7 0.243798 0.704341 0.227930
O O8 0.179421 0.425946 0.268979
O O9 0.947653 0.094887 0.513138
O O10 0.022735 0.220896 0.605812
O O11 0.116251 0.187191 0.664831
O O12 0.081708 0.943286 0.788329
O O13 0.422635 0.013742 0.449486
O O14 0.408076 0.080528 0.602806
#
# Coordination Sequence:
#
# PCOD9366420 Si02
#       8
#     8   4   8   4   8   8   8   8
#     4  10  21  41  66 102 132 177 231 301 360 430
#     4  12  24  43  66  99 144 184 240 290 355 432
#     4  10  20  40  72 105 139 177 237 310 373 431
#     4  12  24  45  64  93 144 208 230 286 363 450
#     4  10  22  40  69 102 135 178 238 298 366 434
#     4  11  26  43  66  93 143 189 244 287 371 442
#     4  11  23  44  63 101 135 181 239 299 349 441
#     4  12  24  44  64  97 142 193 233 290 363 445
#
# _framework density 23.372354000000001
#
# number of rings (size 3 to 8) (size 9 to 14) (size 15 to 20)
#    0.000    1.143    4.286    1.714    0.000    3.429 
#    2.571    0.000    0.000   10.286    0.000    0.000 
#    0.000    0.000    0.000    0.000    0.000    0.000 
#
# Total GULP energy -156052.096546 kJ/mol
# GULP energy per Si atom -5573.289162 kJ/mol
# Density = 2.331916 g / cm^3
# Si number density = 23.372354 Si / 1000 Ang^3
#
#
#
# Elastic Constant Matrix: (Units=GPa)
#
#
# Indices 1 2 3 4 5 6 
#
# 1 77.4654 -11.4779 13.2561 0.0000 0.0000 0.0000
# 2 -11.4779 78.8245 -3.2174 0.0000 0.0000 0.0000
# 3 13.2561 -3.2174 23.3627 0.0000 0.0000 0.0000
# 4 0.0000 0.0000 0.0000 32.3009 0.0000 0.0000
# 5 0.0000 0.0000 0.0000 0.0000 23.0794 0.0000
# 6 0.0000 0.0000 0.0000 0.0000 0.0000 45.8886
#
#
#
# Elastic Compliance Matrix: (Units=1/GPa)
#
#
# Indices 1 2 3 4 5 6 
#
# 1 0.014544 0.001791 -0.008006 0.000000 0.000000 0.000000
# 2 0.001791 0.012979 0.000771 0.000000 0.000000 0.000000
# 3 -0.008006 0.000771 0.047452 0.000000 0.000000 0.000000
# 4 0.000000 0.000000 0.000000 0.030959 0.000000 0.000000
# 5 0.000000 0.000000 0.000000 0.000000 0.043329 0.000000
# 6 0.000000 0.000000 0.000000 0.000000 0.000000 0.021792
#
#
# Mechanical properties :
#
#
# Convention : Reuss Voigt Hill
#
# Bulk Modulus (GPa) = 15.60365 19.64158 17.62261
# Shear Modulus (GPa) = 24.59367 32.32658 28.46012
#
# Velocity S-wave (km/s) = 3.24737 3.72306 3.49332
# Velocity P-wave (km/s) = 4.55534 5.18686 4.88132
#
# Compressibility (1/GPa) = 0.06408758
#
# Stress axis : x y z
#
# Youngs Moduli (GPa) = 68.75512 77.04941 21.07394
#
# Poissons Ratio (x) = -0.13800 0.16872
# Poissons Ratio (y) = -0.12315 -0.01625
# Poissons Ratio (z) = 0.55045 -0.05941
#
# Static dielectric constant tensor:
#      x y z
#    x 1.970580 0.000000 0.000000 
#    y 0.000000 1.976990 0.000000 
#    z 0.000000 0.000000 1.919300 
# 
# From -- ./inp_files/9306.got.cif
#   From: 2010.05.17/outbox.cif.g08.bks.cpg/sg41_5_cif.got.tgz:9306.got - 2010.06.03 18:54:24.
