data_PCOD9366530
_publ_section_title
;
Structure prediction by ZEFSAII (Michael W. Deem and Ramdas Pophale) SiO2 
 PCOD9366530
Probable space group: A B A 2
;
_chemical_formula_sum "Si O2"
_cell_formula_units_Z 48
_cell_length_a 11.384404
_cell_length_b 8.950684
_cell_length_c 23.072253
_cell_angle_alpha 90.000000
_cell_angle_beta 90.000000
_cell_angle_gamma 90.000000
_cell_volume 2351.021114
_symmetry_space_group_name_H-M "A B A 2"
_symmetry_group_IT_number 41
_symmetry_cell_setting 'orthorhombic'
loop_
_space_group_symop_operation_xyz
x,y,z
-x,-y,z
1/2-x,y,1/2+z
1/2+x,-y,1/2+z
x,1/2+y,1/2+z
-x,1/2-y,1/2+z
1/2-x,1/2+y,z
1/2+x,1/2-y,z
loop_
_atom_site_type_symbol
_atom_site_label
_atom_site_fract_x
_atom_site_fract_y
_atom_site_fract_z
Si Si1 0.316739 0.632025 0.421910
Si Si2 0.669866 0.151713 0.768511
Si Si3 0.000000 0.500000 0.857688
Si Si4 0.636281 0.465703 0.820322
Si Si5 0.890899 0.411935 0.563735
Si Si6 0.500000 0.500000 0.176180
Si Si7 0.213336 0.872212 0.505846
O O1 0.437528 0.640759 0.387633
O O2 0.209085 0.586283 0.378594
O O3 0.290547 0.773501 0.461304
O O4 0.344049 0.493203 0.464168
O O5 0.601372 0.070846 0.820200
O O6 0.652469 0.326736 0.776427
O O7 0.802355 0.102912 0.785142
O O8 0.598561 0.086849 0.713370
O O9 0.500000 0.500000 0.832313
O O10 0.865726 0.252105 0.536382
O O11 0.784486 0.526876 0.551958
O O12 0.000000 0.500000 0.535175
O O13 0.927858 0.397016 0.630777
#
# Coordination Sequence:
#
# PCOD9366530 Si02
#       7
#     8   8   4   8   8   4   8
#     4  10  21  35  60  93 130 171 207 255 321 392
#     4  10  23  42  63  93 128 166 221 267 325 390
#     4   9  20  32  58  86 128 160 206 257 310 384
#     4  11  25  41  65  96 134 172 214 264 325 408
#     4   9  22  42  63  89 125 166 215 277 312 376
#     4   9  22  44  72  86 126 172 212 289 330 368
#     4  10  21  38  59  94 124 167 214 260 315 385
#
# _framework density 20.416658999999999
#
# number of rings (size 3 to 8) (size 9 to 14) (size 15 to 20)
#    0.500    1.667    0.000    2.000   11.667    4.000 
#    0.000    0.000    0.000    0.000    0.000    0.000 
#    0.000    0.000    0.000    0.000    0.000    0.000 
#
# Total GULP energy -133601.769709 kJ/mol
# GULP energy per Si atom -5566.740405 kJ/mol
# Density = 2.037019 g / cm^3
# Si number density = 20.416659 Si / 1000 Ang^3
#
#
#
# Elastic Constant Matrix: (Units=GPa)
#
#
# Indices 1 2 3 4 5 6 
#
# 1 83.7991 4.8082 26.0480 0.0000 0.0000 0.0000
# 2 4.8082 80.4860 8.6589 0.0000 0.0000 0.0000
# 3 26.0480 8.6589 79.8134 0.0000 0.0000 0.0000
# 4 0.0000 0.0000 0.0000 56.1629 0.0000 0.0000
# 5 0.0000 0.0000 0.0000 0.0000 27.7070 0.0000
# 6 0.0000 0.0000 0.0000 0.0000 0.0000 10.5836
#
#
#
# Elastic Compliance Matrix: (Units=1/GPa)
#
#
# Indices 1 2 3 4 5 6 
#
# 1 0.013289 -0.000331 -0.004301 0.000000 0.000000 0.000000
# 2 -0.000331 0.012579 -0.001257 0.000000 0.000000 0.000000
# 3 -0.004301 -0.001257 0.014069 0.000000 0.000000 0.000000
# 4 0.000000 0.000000 0.000000 0.017805 0.000000 0.000000
# 5 0.000000 0.000000 0.000000 0.000000 0.036092 0.000000
# 6 0.000000 0.000000 0.000000 0.000000 0.000000 0.094486
#
#
# Mechanical properties :
#
#
# Convention : Reuss Voigt Hill
#
# Bulk Modulus (GPa) = 35.51128 35.90319 35.70724
# Shear Modulus (GPa) = 23.86796 32.52960 28.19878
#
# Velocity S-wave (km/s) = 3.42284 3.99593 3.72044
# Velocity P-wave (km/s) = 5.74910 6.23806 5.99856
#
# Compressibility (1/GPa) = 0.02816006
#
# Stress axis : x y z
#
# Youngs Moduli (GPa) = 75.24869 79.49442 71.07680
#
# Poissons Ratio (x) = 0.02633 0.30571
# Poissons Ratio (y) = 0.02492 0.08932
# Poissons Ratio (z) = 0.32366 0.09990
#
# Static dielectric constant tensor:
#      x y z
#    x 1.849480 0.000000 0.000000 
#    y 0.000000 1.639080 0.000000 
#    z 0.000000 0.000000 1.778410 
# 
# From -- ./inp_files/12118.got.cif
#   From: 2010.05.17/outbox.cif.g08.bks.cpg/sg41_7_cif.got.tgz:12118.got - 2010.06.03 18:54:24.
