data_PCOD9366832
_publ_section_title
;
Structure prediction by ZEFSAII (Michael W. Deem and Ramdas Pophale) SiO2 
 PCOD9366832
Probable space group: A B A 2
;
_chemical_formula_sum "Si O2"
_cell_formula_units_Z 60
_cell_length_a 25.150928
_cell_length_b 18.183945
_cell_length_c 5.273122
_cell_angle_alpha 90.000000
_cell_angle_beta 90.000000
_cell_angle_gamma 90.000000
_cell_volume 2411.625917
_symmetry_space_group_name_H-M "A B A 2"
_symmetry_group_IT_number 41
_symmetry_cell_setting 'orthorhombic'
loop_
_space_group_symop_operation_xyz
x,y,z
-x,-y,z
1/2-x,y,1/2+z
1/2+x,-y,1/2+z
x,1/2+y,1/2+z
-x,1/2-y,1/2+z
1/2-x,1/2+y,z
1/2+x,1/2-y,z
loop_
_atom_site_type_symbol
_atom_site_label
_atom_site_fract_x
_atom_site_fract_y
_atom_site_fract_z
Si Si1 0.089192 0.244514 0.324130
Si Si2 0.213508 0.495737 0.742663
Si Si3 0.079327 0.908344 0.645019
Si Si4 0.871195 0.443418 0.057928
Si Si5 0.279356 0.831146 0.680505
Si Si6 0.146160 0.199544 0.825845
Si Si7 0.000000 0.500000 0.473606
Si Si8 0.478094 0.615615 0.344583
O O1 0.092918 0.329294 0.253135
O O2 0.104510 0.231213 0.615619
O O3 0.033985 0.200345 0.286525
O O4 0.126735 0.205691 0.114180
O O5 0.246592 0.505258 0.483608
O O6 0.305949 0.410097 0.238180
O O7 0.164156 0.549005 0.803464
O O8 0.040519 0.895606 0.402369
O O9 0.123915 0.970992 0.634469
O O10 0.036626 0.946176 0.822579
O O11 0.843461 0.383707 0.237917
O O12 0.931875 0.412046 0.038801
O O13 0.270220 0.831748 0.378141
O O14 0.307310 0.757368 0.774146
O O15 0.964888 0.443588 0.631538
#
# Coordination Sequence:
#
# PCOD9366832 Si02
#       8
#     8   8   8   8   8   8   4   8
#     4  11  28  42  69  95 140 185 234 281 334 412
#     4  10  24  43  68 103 136 177 231 280 346 419
#     4  12  25  44  66 101 134 185 231 285 345 412
#     4  11  23  46  69  98 144 178 226 292 349 408
#     4  10  21  41  70  98 137 176 223 290 348 411
#     4  11  25  46  66 104 135 180 237 278 349 416
#     4  12  22  40  68  94 138 174 234 274 350 396
#     4  11  25  44  64 100 138 181 232 283 344 413
#
# _framework density 24.879483
#
# number of rings (size 3 to 8) (size 9 to 14) (size 15 to 20)
#    0.000    1.067    2.667    2.400    5.600    7.467 
#    0.000    0.000    0.000    0.000    0.000    0.000 
#    0.000    0.000    0.000    0.000    0.000    0.000 
#
# Total GULP energy -167423.079369 kJ/mol
# GULP energy per Si atom -5580.769312 kJ/mol
# Density = 2.482286 g / cm^3
# Si number density = 24.879483 Si / 1000 Ang^3
#
#
#
# Elastic Constant Matrix: (Units=GPa)
#
#
# Indices 1 2 3 4 5 6 
#
# 1 38.8151 44.5839 3.5821 0.0000 0.0000 0.0000
# 2 44.5839 174.4101 17.4430 0.0000 0.0000 0.0000
# 3 3.5821 17.4430 54.6063 0.0000 0.0000 0.0000
# 4 0.0000 0.0000 0.0000 53.2241 0.0000 0.0000
# 5 0.0000 0.0000 0.0000 0.0000 -14.7809 0.0000
# 6 0.0000 0.0000 0.0000 0.0000 0.0000 47.9936
#
#
#
# Elastic Compliance Matrix: (Units=1/GPa)
#
#
# Indices 1 2 3 4 5 6 
#
# 1 0.036491 -0.009389 0.000605 0.000000 0.000000 0.000000
# 2 -0.009389 0.008338 -0.002048 0.000000 0.000000 0.000000
# 3 0.000605 -0.002048 0.018927 0.000000 0.000000 0.000000
# 4 0.000000 0.000000 0.000000 0.018788 0.000000 0.000000
# 5 0.000000 0.000000 0.000000 0.000000 -0.067655 0.000000
# 6 0.000000 0.000000 0.000000 0.000000 0.000000 0.020836
#
#
# Mechanical properties :
#
#
# Convention : Reuss Voigt Hill
#
# Bulk Modulus (GPa) = 23.75587 44.33883 34.04735
# Shear Modulus (GPa) = 70.00772 30.76887 50.38829
#
# Velocity S-wave (km/s) = 5.31035 3.52051 4.50521
# Velocity P-wave (km/s) = 6.86796 5.86391 6.38570
#
# Compressibility (1/GPa) = 0.04209486
#
# Stress axis : x y z
#
# Youngs Moduli (GPa) = 27.40370 119.92693 52.83379
#
# Poissons Ratio (x) = 1.12596 -0.03198
# Poissons Ratio (y) = 0.25729 0.10819
# Poissons Ratio (z) = -0.01659 0.24557
#
# Static dielectric constant tensor:
#      x y z
#    x 2.112160 0.000000 0.000000 
#    y 0.000000 1.870160 0.000000 
#    z 0.000000 0.000000 2.042700 
# 
# From -- ./inp_files/1174.got.cif
#   From: 2010.05.17/outbox.cif.g08.bks.cpg/sg41_1_cif.got.tgz:1174.got - 2010.06.03 18:54:24.
