data_PCOD9366621
_publ_section_title
;
Structure prediction by ZEFSAII (Michael W. Deem and Ramdas Pophale) SiO2 
 PCOD9366621
Probable space group: A B A 2
;
_chemical_formula_sum "Si O2"
_cell_formula_units_Z 32
_cell_length_a 18.772122
_cell_length_b 13.125060
_cell_length_c 5.220714
_cell_angle_alpha 90.000000
_cell_angle_beta 90.000000
_cell_angle_gamma 90.000000
_cell_volume 1286.306807
_symmetry_space_group_name_H-M "A B A 2"
_symmetry_group_IT_number 41
_symmetry_cell_setting 'orthorhombic'
loop_
_space_group_symop_operation_xyz
x,y,z
-x,-y,z
1/2-x,y,1/2+z
1/2+x,-y,1/2+z
x,1/2+y,1/2+z
-x,1/2-y,1/2+z
1/2-x,1/2+y,z
1/2+x,1/2-y,z
loop_
_atom_site_type_symbol
_atom_site_label
_atom_site_fract_x
_atom_site_fract_y
_atom_site_fract_z
Si Si1 0.442712 0.637590 0.923690
Si Si2 0.276502 0.336725 0.767021
Si Si3 0.039731 0.872299 0.425548
Si Si4 0.346961 0.966183 0.603500
O O1 0.429365 0.757899 0.922521
O O2 0.490565 0.612957 0.674120
O O3 0.490011 0.619478 0.175533
O O4 0.374127 0.566400 0.963883
O O5 0.233543 0.282241 0.997024
O O6 0.350393 0.372082 0.893906
O O7 0.232547 0.441696 0.701565
O O8 0.104373 0.946137 0.351378
#
# Coordination Sequence:
#
# PCOD9366621 Si02
#       4
#     8   8   8   8
#     4  10  23  38  57  89 121 154 201 249 299 366
#     4   8  20  34  56  84 112 150 208 242 276 372
#     4  10  23  38  57  89 121 154 201 249 299 366
#     4  10  21  38  62  80 121 158 196 246 306 346
#
# _framework density 24.877424000000001
#
# number of rings (size 3 to 8) (size 9 to 14) (size 15 to 20)
#    1.500    1.000    0.000    0.750    7.000    2.000 
#    0.000    2.500    0.000    0.000    0.000    0.000 
#    0.000    0.000    0.000    0.000    0.000    0.000 
#
# Total GULP energy -89111.367584 kJ/mol
# GULP energy per Si atom -5569.460474 kJ/mol
# Density = 2.482080 g / cm^3
# Si number density = 24.877424 Si / 1000 Ang^3
#
#
#
# Elastic Constant Matrix: (Units=GPa)
#
#
# Indices 1 2 3 4 5 6 
#
# 1 69.0340 9.8044 21.8586 0.0000 0.0000 0.0000
# 2 9.8044 77.2029 7.9567 0.0000 0.0000 0.0000
# 3 21.8586 7.9567 212.1354 0.0000 0.0000 0.0000
# 4 0.0000 0.0000 0.0000 -3.5323 0.0000 0.0000
# 5 0.0000 0.0000 0.0000 0.0000 223.8055 0.0000
# 6 0.0000 0.0000 0.0000 0.0000 0.0000 27.3011
#
#
#
# Elastic Compliance Matrix: (Units=1/GPa)
#
#
# Indices 1 2 3 4 5 6 
#
# 1 0.015213 -0.001777 -0.001501 0.000000 0.000000 0.000000
# 2 -0.001777 0.013211 -0.000312 0.000000 0.000000 0.000000
# 3 -0.001501 -0.000312 0.004880 0.000000 0.000000 0.000000
# 4 0.000000 0.000000 0.000000 -0.283104 0.000000 0.000000
# 5 0.000000 0.000000 0.000000 0.000000 0.004468 0.000000
# 6 0.000000 0.000000 0.000000 0.000000 0.000000 0.036629
#
#
# Mechanical properties :
#
#
# Convention : Reuss Voigt Hill
#
# Bulk Modulus (GPa) = 38.28020 48.62353 43.45187
# Shear Modulus (GPa) = -25.93174 70.76505 22.41665
#
# Velocity S-wave (km/s) = -3.23209 5.33922 3.00506
# Velocity P-wave (km/s) = 1.22162 7.58929 5.43552
#
# Compressibility (1/GPa) = 0.02612317
#
# Stress axis : x y z
#
# Youngs Moduli (GPa) = 65.73203 75.69571 204.90358
#
# Poissons Ratio (x) = 0.13454 0.30755
# Poissons Ratio (y) = 0.11683 0.06401
# Poissons Ratio (z) = 0.09866 0.02364
#
# Static dielectric constant tensor:
#      x y z
#    x -10.126660 0.000000 0.000000 
#    y 0.000000 2.604370 0.000000 
#    z 0.000000 0.000000 2.190110 
# 
# From -- ./inp_files/606.got.cif
#   From: 2010.05.17/outbox.cif.g08.bks.cpg/sg41_1_cif.got.tgz:606.got - 2010.06.03 18:54:24.
