data_PCOD9366542
_publ_section_title
;
Structure prediction by ZEFSAII (Michael W. Deem and Ramdas Pophale) SiO2 
 PCOD9366542
Probable space group: A B A 2
;
_chemical_formula_sum "Si O2"
_cell_formula_units_Z 56
_cell_length_a 14.966588
_cell_length_b 5.511514
_cell_length_c 25.883323
_cell_angle_alpha 90.000000
_cell_angle_beta 90.000000
_cell_angle_gamma 90.000000
_cell_volume 2135.078024
_symmetry_space_group_name_H-M "A B A 2"
_symmetry_group_IT_number 41
_symmetry_cell_setting 'orthorhombic'
loop_
_space_group_symop_operation_xyz
x,y,z
-x,-y,z
1/2-x,y,1/2+z
1/2+x,-y,1/2+z
x,1/2+y,1/2+z
-x,1/2-y,1/2+z
1/2-x,1/2+y,z
1/2+x,1/2-y,z
loop_
_atom_site_type_symbol
_atom_site_label
_atom_site_fract_x
_atom_site_fract_y
_atom_site_fract_z
Si Si1 0.284571 0.592503 0.153130
Si Si2 0.200184 0.355834 0.417570
Si Si3 0.500000 0.000000 0.820003
Si Si4 0.500000 0.000000 0.380400
Si Si5 0.267643 0.801090 0.031850
Si Si6 0.800899 0.407566 0.777337
Si Si7 0.027326 0.755126 0.510716
Si Si8 0.473508 0.250923 0.629484
O O1 0.291003 0.301598 0.144963
O O2 0.297367 0.606224 0.215174
O O3 0.367963 0.729795 0.126717
O O4 0.236729 0.086919 0.402026
O O5 0.099353 0.423412 0.402676
O O6 0.207468 0.328421 0.480524
O O7 0.521487 0.247772 0.850904
O O8 0.405508 0.062490 0.791792
O O9 0.242368 0.555080 0.059889
O O10 0.367878 0.776893 0.013770
O O11 0.743757 0.648361 0.794271
O O12 0.989475 0.755049 0.570029
O O13 0.000000 0.500000 0.488291
O O14 0.000000 0.000000 0.482574
O O15 0.500000 0.500000 0.655566
O O16 0.500000 0.000000 0.655259
#
# Coordination Sequence:
#
# PCOD9366542 Si02
#       8
#     8   8   4   4   8   8   8   8
#     4  10  21  38  59  88 124 170 214 264 321 374
#     4  10  23  45  65  96 131 166 211 263 329 390
#     4  12  26  42  70 104 122 183 216 255 344 392
#     4  12  26  44  70  98 132 167 220 267 328 402
#     4  10  21  40  60  91 122 162 210 258 323 380
#     4  10  23  43  63  96 137 168 218 273 315 385
#     4  10  21  38  59  90 129 169 219 269 323 384
#     4  10  21  36  57  89 125 170 215 268 320 370
#
# _framework density 26.228552000000001
#
# number of rings (size 3 to 8) (size 9 to 14) (size 15 to 20)
#    0.000    1.714    0.000    3.429    1.000    4.571 
#   16.714    0.000    0.000    0.000    0.000    0.000 
#    0.000    0.000    0.000    0.000    0.000    0.000 
#
# Total GULP energy -156422.790687 kJ/mol
# GULP energy per Si atom -5586.528239 kJ/mol
# Density = 2.616885 g / cm^3
# Si number density = 26.228552 Si / 1000 Ang^3
#
#
#
# Elastic Constant Matrix: (Units=GPa)
#
#
# Indices 1 2 3 4 5 6 
#
# 1 119.6229 88.3191 -7.5638 0.0000 0.0000 0.0000
# 2 88.3191 299.5901 44.7370 0.0000 0.0000 0.0000
# 3 -7.5638 44.7370 43.3797 0.0000 0.0000 0.0000
# 4 0.0000 0.0000 0.0000 45.6449 0.0000 0.0000
# 5 0.0000 0.0000 0.0000 0.0000 21.2325 0.0000
# 6 0.0000 0.0000 0.0000 0.0000 0.0000 58.4017
#
#
#
# Elastic Compliance Matrix: (Units=1/GPa)
#
#
# Indices 1 2 3 4 5 6 
#
# 1 0.012217 -0.004633 0.006908 0.000000 0.000000 0.000000
# 2 -0.004633 0.005703 -0.006689 0.000000 0.000000 0.000000
# 3 0.006908 -0.006689 0.031155 0.000000 0.000000 0.000000
# 4 0.000000 0.000000 0.000000 0.021908 0.000000 0.000000
# 5 0.000000 0.000000 0.000000 0.000000 0.047098 0.000000
# 6 0.000000 0.000000 0.000000 0.000000 0.000000 0.017123
#
#
# Mechanical properties :
#
#
# Convention : Reuss Voigt Hill
#
# Bulk Modulus (GPa) = 24.84630 79.28637 52.06633
# Shear Modulus (GPa) = 31.75676 47.52917 39.64296
#
# Velocity S-wave (km/s) = 3.48339 4.26151 3.89195
# Velocity P-wave (km/s) = 5.06678 7.38300 6.33170
#
# Compressibility (1/GPa) = 0.04024745
#
# Stress axis : x y z
#
# Youngs Moduli (GPa) = 81.85168 175.35812 32.09755
#
# Poissons Ratio (x) = 0.81248 -0.22174
# Poissons Ratio (y) = 0.37924 0.21470
# Poissons Ratio (z) = -0.56547 1.17296
#
# Static dielectric constant tensor:
#      x y z
#    x 2.066860 0.000000 0.000000 
#    y 0.000000 2.078220 0.000000 
#    z 0.000000 0.000000 2.382900 
# 
# From -- ./inp_files/12749.got.cif
#   From: 2010.05.17/outbox.cif.g08.bks.cpg/sg41_7_cif.got.tgz:12749.got - 2010.06.03 18:54:24.
