data_PCOD9366946
_publ_section_title
;
Structure prediction by ZEFSAII (Michael W. Deem and Ramdas Pophale) SiO2 
 PCOD9366946
Probable space group: A B A 2
;
_chemical_formula_sum "Si O2"
_cell_formula_units_Z 28
_cell_length_a 9.498419
_cell_length_b 12.593951
_cell_length_c 10.015002
_cell_angle_alpha 90.000000
_cell_angle_beta 90.000000
_cell_angle_gamma 90.000000
_cell_volume 1198.020813
_symmetry_space_group_name_H-M "A B A 2"
_symmetry_group_IT_number 41
_symmetry_cell_setting 'orthorhombic'
loop_
_space_group_symop_operation_xyz
x,y,z
-x,-y,z
1/2-x,y,1/2+z
1/2+x,-y,1/2+z
x,1/2+y,1/2+z
-x,1/2-y,1/2+z
1/2-x,1/2+y,z
1/2+x,1/2-y,z
loop_
_atom_site_type_symbol
_atom_site_label
_atom_site_fract_x
_atom_site_fract_y
_atom_site_fract_z
Si Si1 0.558104 0.316155 0.338610
Si Si2 0.950997 0.667783 0.105950
Si Si3 0.207672 0.048144 0.544723
Si Si4 0.000000 0.000000 0.166780
O O1 0.481562 0.267966 0.468856
O O2 0.606327 0.231219 0.230889
O O3 0.675100 0.393985 0.404261
O O4 0.459997 0.399149 0.258648
O O5 0.105558 0.619247 0.139577
O O6 0.856860 0.569369 0.058350
O O7 0.367938 0.039320 0.583045
#
# Coordination Sequence:
#
# PCOD9366946 Si02
#       4
#     8   8   8   4
#     4  10  21  48  76 109 145 201 262 308 384 462
#     4   9  20  49  77 104 150 196 262 314 373 469
#     4   9  22  46  76 106 156 193 254 320 380 457
#     4  12  22  46  74 110 162 204 244 334 386 466
#
# _framework density 23.371881999999999
#
# number of rings (size 3 to 8) (size 9 to 14) (size 15 to 20)
#    1.714    0.571    2.857    0.000    0.000    2.286 
#   15.429    0.000    0.000    0.000    0.000    0.000 
#    0.000    0.000    0.000    0.000    0.000    0.000 
#
# Total GULP energy -78015.336467 kJ/mol
# GULP energy per Si atom -5572.524033 kJ/mol
# Density = 2.331869 g / cm^3
# Si number density = 23.371882 Si / 1000 Ang^3
#
#
#
# Elastic Constant Matrix: (Units=GPa)
#
#
# Indices 1 2 3 4 5 6 
#
# 1 124.0833 40.3522 59.9096 0.0000 0.0000 0.0000
# 2 40.3522 95.3929 86.1133 0.0000 0.0000 0.0000
# 3 59.9096 86.1133 170.6385 0.0000 0.0000 0.0000
# 4 0.0000 0.0000 0.0000 57.5774 0.0000 0.0000
# 5 0.0000 0.0000 0.0000 0.0000 23.2974 0.0000
# 6 0.0000 0.0000 0.0000 0.0000 0.0000 14.1853
#
#
#
# Elastic Compliance Matrix: (Units=1/GPa)
#
#
# Indices 1 2 3 4 5 6 
#
# 1 0.009893 -0.001928 -0.002501 0.000000 0.000000 0.000000
# 2 -0.001928 0.019630 -0.009230 0.000000 0.000000 0.000000
# 3 -0.002501 -0.009230 0.011396 0.000000 0.000000 0.000000
# 4 0.000000 0.000000 0.000000 0.017368 0.000000 0.000000
# 5 0.000000 0.000000 0.000000 0.000000 0.042923 0.000000
# 6 0.000000 0.000000 0.000000 0.000000 0.000000 0.070495
#
#
# Mechanical properties :
#
#
# Convention : Reuss Voigt Hill
#
# Bulk Modulus (GPa) = 73.50923 84.76278 79.13601
# Shear Modulus (GPa) = 24.56319 32.59466 28.57892
#
# Velocity S-wave (km/s) = 3.24539 3.73850 3.50064
# Velocity P-wave (km/s) = 6.75009 7.41491 7.09029
#
# Compressibility (1/GPa) = 0.01360373
#
# Stress axis : x y z
#
# Youngs Moduli (GPa) = 101.07810 50.94201 87.74919
#
# Poissons Ratio (x) = 0.09819 0.21944
# Poissons Ratio (y) = 0.19483 0.80990
# Poissons Ratio (z) = 0.25277 0.47018
#
# Static dielectric constant tensor:
#      x y z
#    x 1.887050 0.000000 0.000000 
#    y 0.000000 1.935700 0.000000 
#    z 0.000000 0.000000 1.933300 
# 
# From -- ./inp_files/4266.got.cif
#   From: 2010.05.17/outbox.cif.g08.bks.cpg/sg41_3_cif.got.tgz:4266.got - 2010.06.03 18:54:24.
