data_PCOD9366077
_publ_section_title
;
Structure prediction by ZEFSAII (Michael W. Deem and Ramdas Pophale) SiO2 
 PCOD9366077
Probable space group: A B A 2
;
_chemical_formula_sum "Si O2"
_cell_formula_units_Z 64
_cell_length_a 21.575253
_cell_length_b 9.702367
_cell_length_c 15.182234
_cell_angle_alpha 90.000000
_cell_angle_beta 90.000000
_cell_angle_gamma 90.000000
_cell_volume 3178.112570
_symmetry_space_group_name_H-M "A B A 2"
_symmetry_group_IT_number 41
_symmetry_cell_setting 'orthorhombic'
loop_
_space_group_symop_operation_xyz
x,y,z
-x,-y,z
1/2-x,y,1/2+z
1/2+x,-y,1/2+z
x,1/2+y,1/2+z
-x,1/2-y,1/2+z
1/2-x,1/2+y,z
1/2+x,1/2-y,z
loop_
_atom_site_type_symbol
_atom_site_label
_atom_site_fract_x
_atom_site_fract_y
_atom_site_fract_z
Si Si1 0.402520 0.267113 0.118180
Si Si2 0.491982 0.163514 0.481433
Si Si3 0.744613 0.486389 0.391199
Si Si4 0.420447 0.242979 0.826126
Si Si5 0.071667 0.503584 0.222936
Si Si6 0.123034 0.169126 0.886831
Si Si7 0.869133 0.549803 0.784849
Si Si8 0.812660 0.232679 0.962510
O O1 0.396924 0.110917 0.155667
O O2 0.392763 0.377263 0.195945
O O3 0.466918 0.281516 0.063339
O O4 0.346923 0.298851 0.051839
O O5 0.521549 0.229534 0.391647
O O6 0.417538 0.178386 0.475916
O O7 0.500000 0.000000 0.480210
O O8 0.810324 0.406191 0.383855
O O9 0.702910 0.501158 0.302227
O O10 0.705885 0.390930 0.456775
O O11 0.757775 0.631866 0.436153
O O12 0.415043 0.342882 0.741695
O O13 0.362736 0.286824 0.885990
O O14 0.411348 0.083262 0.803331
O O15 0.083511 0.578026 0.316961
O O16 0.000000 0.500000 0.199431
O O17 0.126239 0.325141 0.853566
#
# Coordination Sequence:
#
# PCOD9366077 Si02
#       8
#     8   8   8   8   8   8   8   8
#     4  10  25  44  61  97 142 163 222 283 347 385
#     4  11  20  41  69  95 132 180 215 276 335 407
#     4  11  20  41  69  94 124 174 233 265 321 408
#     4  10  19  39  69  91 123 174 228 258 324 409
#     4  11  20  40  65  96 127 174 213 267 328 397
#     4  11  19  38  70  95 124 176 230 265 324 409
#     4  10  24  40  66 102 127 174 228 287 326 392
#     4  10  21  41  64  93 127 172 217 273 325 398
#
# _framework density 20.137737999999999
#
# number of rings (size 3 to 8) (size 9 to 14) (size 15 to 20)
#    0.000    1.500    5.000    0.750    0.000    1.500 
#   11.250    1.250    0.000    0.000    0.000    0.000 
#    0.000    0.000    0.000    0.000    0.000    0.000 
#
# Total GULP energy -178174.192437 kJ/mol
# GULP energy per Si atom -5567.943514 kJ/mol
# Density = 2.009190 g / cm^3
# Si number density = 20.137738 Si / 1000 Ang^3
#
#
#
# Elastic Constant Matrix: (Units=GPa)
#
#
# Indices 1 2 3 4 5 6 
#
# 1 72.5208 11.7094 26.5750 0.0000 0.0000 0.0000
# 2 11.7094 111.2469 23.9243 0.0000 0.0000 0.0000
# 3 26.5750 23.9243 70.8861 0.0000 0.0000 0.0000
# 4 0.0000 0.0000 0.0000 12.3573 0.0000 0.0000
# 5 0.0000 0.0000 0.0000 0.0000 17.8938 0.0000
# 6 0.0000 0.0000 0.0000 0.0000 0.0000 35.5887
#
#
#
# Elastic Compliance Matrix: (Units=1/GPa)
#
#
# Indices 1 2 3 4 5 6 
#
# 1 0.016004 -0.000425 -0.005856 0.000000 0.000000 0.000000
# 2 -0.000425 0.009704 -0.003116 0.000000 0.000000 0.000000
# 3 -0.005856 -0.003116 0.017354 0.000000 0.000000 0.000000
# 4 0.000000 0.000000 0.000000 0.080924 0.000000 0.000000
# 5 0.000000 0.000000 0.000000 0.000000 0.055885 0.000000
# 6 0.000000 0.000000 0.000000 0.000000 0.000000 0.028099
#
#
# Mechanical properties :
#
#
# Convention : Reuss Voigt Hill
#
# Bulk Modulus (GPa) = 41.20713 42.11901 41.66307
# Shear Modulus (GPa) = 21.28993 25.99765 23.64379
#
# Velocity S-wave (km/s) = 3.25501 3.59694 3.43024
# Velocity P-wave (km/s) = 5.88505 6.18154 6.03512
#
# Compressibility (1/GPa) = 0.02426765
#
# Stress axis : x y z
#
# Youngs Moduli (GPa) = 62.48507 103.05239 57.62286
#
# Poissons Ratio (x) = 0.04380 0.33746
# Poissons Ratio (y) = 0.02656 0.17954
# Poissons Ratio (z) = 0.36593 0.32108
#
# Static dielectric constant tensor:
#      x y z
#    x 1.808090 0.000000 0.000000 
#    y 0.000000 1.747470 0.000000 
#    z 0.000000 0.000000 1.709470 
# 
# From -- ./inp_files/9142.got.cif
#   From: 2010.05.17/outbox.cif.g08.bks.cpg/sg41_5_cif.got.tgz:9142.got - 2010.06.03 18:54:24.
