data_PCOD9366578
_publ_section_title
;
Structure prediction by ZEFSAII (Michael W. Deem and Ramdas Pophale) SiO2 
 PCOD9366578
Probable space group: A B A 2
;
_chemical_formula_sum "Si O2"
_cell_formula_units_Z 52
_cell_length_a 14.685611
_cell_length_b 17.711165
_cell_length_c 9.032872
_cell_angle_alpha 90.000000
_cell_angle_beta 90.000000
_cell_angle_gamma 90.000000
_cell_volume 2349.443499
_symmetry_space_group_name_H-M "A B A 2"
_symmetry_group_IT_number 41
_symmetry_cell_setting 'orthorhombic'
loop_
_space_group_symop_operation_xyz
x,y,z
-x,-y,z
1/2-x,y,1/2+z
1/2+x,-y,1/2+z
x,1/2+y,1/2+z
-x,1/2-y,1/2+z
1/2-x,1/2+y,z
1/2+x,1/2-y,z
loop_
_atom_site_type_symbol
_atom_site_label
_atom_site_fract_x
_atom_site_fract_y
_atom_site_fract_z
Si Si1 0.690540 0.382704 0.335790
Si Si2 0.386918 0.950519 0.860638
Si Si3 0.103154 0.062501 0.839321
Si Si4 0.423432 0.900765 0.190431
Si Si5 0.248495 0.325150 0.819338
Si Si6 0.000000 0.000000 0.112434
Si Si7 0.734196 0.783021 0.090399
O O1 0.635549 0.460220 0.351715
O O2 0.798381 0.401565 0.340216
O O3 0.674151 0.336926 0.487401
O O4 0.690662 0.331173 0.185864
O O5 0.294105 0.906760 0.834285
O O6 0.451798 0.940154 0.719894
O O7 0.425021 0.916774 0.014063
O O8 0.023396 0.110666 0.760785
O O9 0.106136 0.982899 0.753439
O O10 0.070910 0.040403 0.003796
O O11 0.349633 0.840344 0.252046
O O12 0.190573 0.270724 0.712833
O O13 0.238497 0.280738 0.971833
#
# Coordination Sequence:
#
# PCOD9366578 Si02
#       7
#     8   8   8   8   8   4   8
#     4  11  22  42  66  94 122 179 207 264 315 390
#     4  12  23  39  73  94 124 164 231 253 323 377
#     4  10  22  39  63  97 136 154 213 273 325 359
#     4  10  21  37  63  97 128 159 211 275 316 367
#     4  11  22  40  64  95 120 172 210 268 312 385
#     4  10  24  36  60 110 128 154 210 292 306 372
#     4  10  24  38  62  90 135 156 218 260 318 380
#
# _framework density 22.132902000000001
#
# number of rings (size 3 to 8) (size 9 to 14) (size 15 to 20)
#    0.000    1.538    3.077    2.769    6.462    0.000 
#    0.000    1.538   13.538    0.000    0.000    0.000 
#    0.000    0.000    0.000    0.000    0.000    0.000 
#
# Total GULP energy -144878.832013 kJ/mol
# GULP energy per Si atom -5572.262770 kJ/mol
# Density = 2.208253 g / cm^3
# Si number density = 22.132902 Si / 1000 Ang^3
#
#
#
# Elastic Constant Matrix: (Units=GPa)
#
#
# Indices 1 2 3 4 5 6 
#
# 1 78.9019 1.8548 17.7520 0.0000 0.0000 0.0000
# 2 1.8548 38.0059 -59.0136 0.0000 0.0000 0.0000
# 3 17.7520 -59.0136 30.4591 0.0000 0.0000 0.0000
# 4 0.0000 0.0000 0.0000 20.1288 0.0000 0.0000
# 5 0.0000 0.0000 0.0000 0.0000 7.6550 0.0000
# 6 0.0000 0.0000 0.0000 0.0000 0.0000 4.6993
#
#
#
# Elastic Compliance Matrix: (Units=1/GPa)
#
#
# Indices 1 2 3 4 5 6 
#
# 1 0.011659 0.005537 0.003932 0.000000 0.000000 0.000000
# 2 0.005537 -0.010472 -0.023515 0.000000 0.000000 0.000000
# 3 0.003932 -0.023515 -0.015021 0.000000 0.000000 0.000000
# 4 0.000000 0.000000 0.000000 0.049680 0.000000 0.000000
# 5 0.000000 0.000000 0.000000 0.000000 0.130634 0.000000
# 6 0.000000 0.000000 0.000000 0.000000 0.000000 0.212796
#
#
# Mechanical properties :
#
#
# Convention : Reuss Voigt Hill
#
# Bulk Modulus (GPa) = -23.85201 7.61703 -8.11749
# Shear Modulus (GPa) = 12.70991 18.94821 15.82906
#
# Velocity S-wave (km/s) = 2.39896 2.92911 2.67719
# Velocity P-wave (km/s) = 1.76827 3.85857 2.42505
#
# Compressibility (1/GPa) = -0.04192518
#
# Stress axis : x y z
#
# Youngs Moduli (GPa) = 85.76984 -95.49727 -66.57519
#
# Poissons Ratio (x) = 0.52875 0.26179
# Poissons Ratio (y) = -0.47489 -1.56552
# Poissons Ratio (z) = -0.33727 -2.24563
#
# Static dielectric constant tensor:
#      x y z
#    x 1.898060 0.000000 0.000000 
#    y 0.000000 1.835360 0.000000 
#    z 0.000000 0.000000 1.978700 
# 
# From -- ./inp_files/3144.got.cif
#   From: 2010.05.17/outbox.cif.g08.bks.cpg/sg41_2_cif.got.tgz:3144.got - 2010.06.03 18:54:24.
