data_PCOD9366769
_publ_section_title
;
Structure prediction by ZEFSAII (Michael W. Deem and Ramdas Pophale) SiO2 
 PCOD9366769
Probable space group: A B A 2
;
_chemical_formula_sum "Si O2"
_cell_formula_units_Z 56
_cell_length_a 15.304250
_cell_length_b 21.314303
_cell_length_c 8.527741
_cell_angle_alpha 90.000000
_cell_angle_beta 90.000000
_cell_angle_gamma 90.000000
_cell_volume 2781.744183
_symmetry_space_group_name_H-M "A B A 2"
_symmetry_group_IT_number 41
_symmetry_cell_setting 'orthorhombic'
loop_
_space_group_symop_operation_xyz
x,y,z
-x,-y,z
1/2-x,y,1/2+z
1/2+x,-y,1/2+z
x,1/2+y,1/2+z
-x,1/2-y,1/2+z
1/2-x,1/2+y,z
1/2+x,1/2-y,z
loop_
_atom_site_type_symbol
_atom_site_label
_atom_site_fract_x
_atom_site_fract_y
_atom_site_fract_z
Si Si1 0.365555 0.100781 0.422240
Si Si2 0.362109 0.985760 0.948908
Si Si3 0.456159 0.858660 0.325381
Si Si4 0.262505 0.168813 0.144873
Si Si5 0.515996 0.894654 0.966901
Si Si6 0.879728 0.278728 0.868658
Si Si7 0.173224 0.968070 0.814078
O O1 0.461685 0.128875 0.438563
O O2 0.322369 0.133423 0.269985
O O3 0.296226 0.117406 0.555613
O O4 0.373650 0.027114 0.394794
O O5 0.433869 0.933790 0.902493
O O6 0.339114 0.973447 0.129126
O O7 0.404849 0.055067 0.950464
O O8 0.274664 0.976425 0.852039
O O9 0.490897 0.876104 0.147864
O O10 0.424239 0.787973 0.345292
O O11 0.375398 0.904618 0.362797
O O12 0.191343 0.211161 0.232536
O O13 0.323356 0.208260 0.027081
O O14 0.546652 0.832888 0.876400
#
# Coordination Sequence:
#
# PCOD9366769 Si02
#       7
#     8   8   8   8   8   8   8
#     4  11  20  40  65  91 122 165 214 263 313 380
#     4  10  21  40  69  90 125 159 217 263 324 368
#     4  11  24  38  63  92 128 165 208 257 325 381
#     4  10  23  39  66  92 120 169 217 257 313 382
#     4  10  21  42  66  92 122 174 209 263 319 380
#     4  11  23  42  63  93 129 169 211 259 317 385
#     4  11  21  39  62  93 122 164 204 266 315 378
#
# _framework density 20.131253999999998
#
# number of rings (size 3 to 8) (size 9 to 14) (size 15 to 20)
#    0.000    1.429    2.857    3.000    2.000    2.286 
#    5.143    0.000    0.000    0.000    0.000    0.000 
#    0.000    0.000    0.000    0.000    0.000    0.000 
#
# Total GULP energy -156440.205867 kJ/mol
# GULP energy per Si atom -5587.150210 kJ/mol
# Density = 2.008543 g / cm^3
# Si number density = 20.131254 Si / 1000 Ang^3
#
#
#
# Elastic Constant Matrix: (Units=GPa)
#
#
# Indices 1 2 3 4 5 6 
#
# 1 103.4492 95.7939 23.5633 0.0000 0.0000 0.0000
# 2 95.7939 173.7973 19.9607 0.0000 0.0000 0.0000
# 3 23.5633 19.9607 19.4020 0.0000 0.0000 0.0000
# 4 0.0000 0.0000 0.0000 14.2182 0.0000 0.0000
# 5 0.0000 0.0000 0.0000 0.0000 25.3641 0.0000
# 6 0.0000 0.0000 0.0000 0.0000 0.0000 35.5656
#
#
#
# Elastic Compliance Matrix: (Units=1/GPa)
#
#
# Indices 1 2 3 4 5 6 
#
# 1 0.024139 -0.011269 -0.017722 0.000000 0.000000 0.000000
# 2 -0.011269 0.011786 0.001561 0.000000 0.000000 0.000000
# 3 -0.017722 0.001561 0.071458 0.000000 0.000000 0.000000
# 4 0.000000 0.000000 0.000000 0.070332 0.000000 0.000000
# 5 0.000000 0.000000 0.000000 0.000000 0.039426 0.000000
# 6 0.000000 0.000000 0.000000 0.000000 0.000000 0.028117
#
#
# Mechanical properties :
#
#
# Convention : Reuss Voigt Hill
#
# Bulk Modulus (GPa) = 19.03962 63.92047 41.48005
# Shear Modulus (GPa) = 15.74177 25.51829 20.63003
#
# Velocity S-wave (km/s) = 2.79938 3.56419 3.20469
# Velocity P-wave (km/s) = 4.46397 6.98275 5.86028
#
# Compressibility (1/GPa) = 0.05252206
#
# Stress axis : x y z
#
# Youngs Moduli (GPa) = 41.42707 84.84591 13.99422
#
# Poissons Ratio (x) = 0.95617 0.24801
# Poissons Ratio (y) = 0.46686 -0.02185
# Poissons Ratio (z) = 0.73417 -0.13245
#
# Static dielectric constant tensor:
#      x y z
#    x 1.687770 0.000000 0.000000 
#    y 0.000000 1.688150 0.000000 
#    z 0.000000 0.000000 1.745390 
# 
# From -- ./inp_files/2689.got.cif
#   From: 2010.05.17/outbox.cif.g08.bks.cpg/sg41_2_cif.got.tgz:2689.got - 2010.06.03 18:54:24.
