data_PCOD9366964
_publ_section_title
;
Structure prediction by ZEFSAII (Michael W. Deem and Ramdas Pophale) SiO2 
 PCOD9366964
Probable space group: A B A 2
;
_chemical_formula_sum "Si O2"
_cell_formula_units_Z 64
_cell_length_a 7.924284
_cell_length_b 13.472048
_cell_length_c 25.691865
_cell_angle_alpha 90.000000
_cell_angle_beta 90.000000
_cell_angle_gamma 90.000000
_cell_volume 2742.769332
_symmetry_space_group_name_H-M "A B A 2"
_symmetry_group_IT_number 41
_symmetry_cell_setting 'orthorhombic'
loop_
_space_group_symop_operation_xyz
x,y,z
-x,-y,z
1/2-x,y,1/2+z
1/2+x,-y,1/2+z
x,1/2+y,1/2+z
-x,1/2-y,1/2+z
1/2-x,1/2+y,z
1/2+x,1/2-y,z
loop_
_atom_site_type_symbol
_atom_site_label
_atom_site_fract_x
_atom_site_fract_y
_atom_site_fract_z
Si Si1 0.680020 0.909572 0.423620
Si Si2 0.319980 0.090428 0.651760
Si Si3 0.321912 0.441312 0.731133
Si Si4 0.035176 0.293206 0.923596
Si Si5 0.671542 0.908744 0.537690
Si Si6 0.535177 0.206794 0.151784
Si Si7 0.474733 0.792300 0.037690
Si Si8 0.678088 0.058688 0.844247
O O1 0.538153 0.825376 0.417832
O O2 0.672310 0.958586 0.481203
O O3 0.851309 0.843133 0.422306
O O4 0.699722 0.988246 0.378159
O O5 0.327690 0.041414 0.594178
O O6 0.461846 0.174624 0.657548
O O7 0.148691 0.156866 0.653075
O O8 0.300278 0.011754 0.697222
O O9 0.500000 0.500000 0.736136
O O10 0.360491 0.344203 0.697373
O O11 0.250000 0.419964 0.787690
O O12 0.139508 0.344202 0.878007
O O13 0.104954 0.317919 0.981788
O O14 0.522632 0.827277 0.537690
O O15 0.842845 0.842906 0.537690
O O16 0.604954 0.182080 0.093593
O O17 0.500000 0.000000 0.839245
#
# Coordination Sequence:
#
# PCOD9366964 Si02
#       8
#     8   8   8   8   8   8   8   8
#     4   9  18  33  53  76 101 129 161 200 247 295
#     4   9  18  33  53  76 101 129 161 200 247 295
#     4  10  22  37  51  71  99 132 171 208 242 286
#     4   9  18  33  53  76 101 129 161 200 247 295
#     4   8  14  27  49  75 100 124 154 195 243 295
#     4   9  18  33  53  76 101 129 161 200 247 295
#     4   8  14  27  49  75 100 124 154 195 243 295
#     4  10  22  37  51  71  99 132 171 208 242 286
#
# _framework density 23.334078999999999
#
# number of rings (size 3 to 8) (size 9 to 14) (size 15 to 20)
#    0.000    3.000    0.000    0.000    0.000    4.000 
#    0.000   10.000    0.000    0.000    0.000   19.250 
#    0.000    0.000    0.000    0.000    0.000    0.000 
#
# Total GULP energy -178689.742938 kJ/mol
# GULP energy per Si atom -5584.054467 kJ/mol
# Density = 2.328097 g / cm^3
# Si number density = 23.334079 Si / 1000 Ang^3
#
#
#
# Elastic Constant Matrix: (Units=GPa)
#
#
# Indices 1 2 3 4 5 6 
#
# 1 68.0751 26.7937 51.4597 0.0000 0.0000 0.0000
# 2 26.7937 55.0234 46.9302 0.0000 0.0000 0.0000
# 3 51.4597 46.9302 194.1714 0.0000 0.0000 0.0000
# 4 0.0000 0.0000 0.0000 28.8768 0.0000 0.0000
# 5 0.0000 0.0000 0.0000 0.0000 105.2152 0.0000
# 6 0.0000 0.0000 0.0000 0.0000 0.0000 39.2183
#
#
#
# Elastic Compliance Matrix: (Units=1/GPa)
#
#
# Indices 1 2 3 4 5 6 
#
# 1 0.020113 -0.006610 -0.003733 0.000000 0.000000 0.000000
# 2 -0.006610 0.025066 -0.004306 0.000000 0.000000 0.000000
# 3 -0.003733 -0.004306 0.007180 0.000000 0.000000 0.000000
# 4 0.000000 0.000000 0.000000 0.034630 0.000000 0.000000
# 5 0.000000 0.000000 0.000000 0.000000 0.009504 0.000000
# 6 0.000000 0.000000 0.000000 0.000000 0.000000 0.025498
#
#
# Mechanical properties :
#
#
# Convention : Reuss Voigt Hill
#
# Bulk Modulus (GPa) = 43.36469 63.07079 53.21774
# Shear Modulus (GPa) = 31.45096 47.46780 39.45938
#
# Velocity S-wave (km/s) = 3.67530 4.51518 4.11671
# Velocity P-wave (km/s) = 6.05269 7.36686 6.74187
#
# Compressibility (1/GPa) = 0.02306024
#
# Stress axis : x y z
#
# Youngs Moduli (GPa) = 49.71881 39.89463 139.27216
#
# Poissons Ratio (x) = 0.26372 0.51986
# Poissons Ratio (y) = 0.32866 0.59977
# Poissons Ratio (z) = 0.18559 0.17180
#
# Static dielectric constant tensor:
#      x y z
#    x 1.955440 0.000000 0.000000 
#    y 0.000000 1.859040 0.000000 
#    z 0.000000 0.000000 1.841570 
# 
# From -- ./inp_files/12033.got.cif
#   From: 2010.05.17/outbox.cif.g08.bks.cpg/sg41_7_cif.got.tgz:12033.got - 2010.06.03 18:54:24.
