data_PCOD9366339
_publ_section_title
;
Structure prediction by ZEFSAII (Michael W. Deem and Ramdas Pophale) SiO2 
 PCOD9366339
Probable space group: A B A 2
;
_chemical_formula_sum "Si O2"
_cell_formula_units_Z 64
_cell_length_a 20.719090
_cell_length_b 9.942224
_cell_length_c 16.497209
_cell_angle_alpha 90.000000
_cell_angle_beta 90.000000
_cell_angle_gamma 90.000000
_cell_volume 3398.323330
_symmetry_space_group_name_H-M "A B A 2"
_symmetry_group_IT_number 41
_symmetry_cell_setting 'orthorhombic'
loop_
_space_group_symop_operation_xyz
x,y,z
-x,-y,z
1/2-x,y,1/2+z
1/2+x,-y,1/2+z
x,1/2+y,1/2+z
-x,1/2-y,1/2+z
1/2-x,1/2+y,z
1/2+x,1/2-y,z
loop_
_atom_site_type_symbol
_atom_site_label
_atom_site_fract_x
_atom_site_fract_y
_atom_site_fract_z
Si Si1 0.523865 0.155250 0.465270
Si Si2 0.145063 0.445471 0.558186
Si Si3 0.854781 0.964617 0.242639
Si Si4 0.387172 0.232607 0.491196
Si Si5 0.782021 0.607301 0.080756
Si Si6 0.883355 0.734928 0.802205
Si Si7 0.727691 0.346653 0.690702
Si Si8 0.477886 0.654107 0.312324
O O1 0.586328 0.137538 0.521138
O O2 0.463733 0.229706 0.508557
O O3 0.538589 0.247826 0.387241
O O4 0.500000 0.000000 0.446326
O O5 0.140513 0.459850 0.655599
O O6 0.140166 0.597759 0.529474
O O7 0.215143 0.395185 0.530736
O O8 0.785107 0.899471 0.247362
O O9 0.915665 0.866973 0.255644
O O10 0.859267 0.081741 0.307836
O O11 0.344297 0.350739 0.529325
O O12 0.383080 0.215384 0.394258
O O13 0.787934 0.463835 0.125689
O O14 0.762346 0.720723 0.146790
O O15 0.835495 0.811027 0.742094
O O16 0.957894 0.721026 0.773799
O O17 0.500000 0.500000 0.335838
#
# Coordination Sequence:
#
# PCOD9366339 Si02
#       8
#     8   8   8   8   8   8   8   8
#     4   9  20  39  60  87 121 151 199 248 292 354
#     4  10  20  39  64  86 115 162 198 238 298 358
#     4  10  20  39  64  86 115 162 198 238 298 358
#     4  10  21  39  60  88 121 155 196 247 297 349
#     4  11  21  41  61  89 123 154 199 250 293 350
#     4  10  21  39  60  88 121 155 196 247 297 349
#     4  11  21  41  61  89 123 154 199 250 293 350
#     4   9  20  39  60  87 121 151 199 248 292 354
#
# _framework density 18.832816000000001
#
# number of rings (size 3 to 8) (size 9 to 14) (size 15 to 20)
#    0.000    2.000    5.000    0.000    0.000    6.500 
#   13.500    0.000    0.000    1.500    0.000    0.000 
#    0.000    0.000    0.000    0.000    0.000    0.000 
#
# Total GULP energy -178155.322880 kJ/mol
# GULP energy per Si atom -5567.353840 kJ/mol
# Density = 1.878995 g / cm^3
# Si number density = 18.832816 Si / 1000 Ang^3
#
#
#
# Elastic Constant Matrix: (Units=GPa)
#
#
# Indices 1 2 3 4 5 6 
#
# 1 160.6343 35.6246 39.7906 0.0000 0.0000 0.0000
# 2 35.6246 35.0294 22.9587 0.0000 0.0000 0.0000
# 3 39.7906 22.9587 33.6786 0.0000 0.0000 0.0000
# 4 0.0000 0.0000 0.0000 35.7427 0.0000 0.0000
# 5 0.0000 0.0000 0.0000 0.0000 29.0493 0.0000
# 6 0.0000 0.0000 0.0000 0.0000 0.0000 34.1250
#
#
#
# Elastic Compliance Matrix: (Units=1/GPa)
#
#
# Indices 1 2 3 4 5 6 
#
# 1 0.009100 -0.003991 -0.008030 0.000000 0.000000 0.000000
# 2 -0.003991 0.053354 -0.031656 0.000000 0.000000 0.000000
# 3 -0.008030 -0.031656 0.060760 0.000000 0.000000 0.000000
# 4 0.000000 0.000000 0.000000 0.027978 0.000000 0.000000
# 5 0.000000 0.000000 0.000000 0.000000 0.034424 0.000000
# 6 0.000000 0.000000 0.000000 0.000000 0.000000 0.029304
#
#
# Mechanical properties :
#
#
# Convention : Reuss Voigt Hill
#
# Bulk Modulus (GPa) = 27.88713 47.34334 37.61523
# Shear Modulus (GPa) = 15.91204 28.51465 22.21334
#
# Velocity S-wave (km/s) = 2.90989 3.89536 3.43811
# Velocity P-wave (km/s) = 5.11173 6.73981 5.98142
#
# Compressibility (1/GPa) = 0.03585884
#
# Stress axis : x y z
#
# Youngs Moduli (GPa) = 109.89464 18.74272 16.45818
#
# Poissons Ratio (x) = 0.07480 0.13216
# Poissons Ratio (y) = 0.43860 0.52100
# Poissons Ratio (z) = 0.88249 0.59332
#
# Static dielectric constant tensor:
#      x y z
#    x 1.699990 0.000000 0.000000 
#    y 0.000000 1.681690 0.000000 
#    z 0.000000 0.000000 1.650500 
# 
# From -- ./inp_files/10695.got.cif
#   From: 2010.05.17/outbox.cif.g08.bks.cpg/sg41_6_cif.got.tgz:10695.got - 2010.06.03 18:54:24.
