data_PCOD9366766
_publ_section_title
;
Structure prediction by ZEFSAII (Michael W. Deem and Ramdas Pophale) SiO2 
 PCOD9366766
Probable space group: A B A 2
;
_chemical_formula_sum "Si O2"
_cell_formula_units_Z 48
_cell_length_a 5.339911
_cell_length_b 16.177047
_cell_length_c 25.147561
_cell_angle_alpha 90.000000
_cell_angle_beta 90.000000
_cell_angle_gamma 90.000000
_cell_volume 2172.346689
_symmetry_space_group_name_H-M "A B A 2"
_symmetry_group_IT_number 41
_symmetry_cell_setting 'orthorhombic'
loop_
_space_group_symop_operation_xyz
x,y,z
-x,-y,z
1/2-x,y,1/2+z
1/2+x,-y,1/2+z
x,1/2+y,1/2+z
-x,1/2-y,1/2+z
1/2-x,1/2+y,z
1/2+x,1/2-y,z
loop_
_atom_site_type_symbol
_atom_site_label
_atom_site_fract_x
_atom_site_fract_y
_atom_site_fract_z
Si Si1 0.853503 0.911560 0.259080
Si Si2 0.456417 0.300137 0.164509
Si Si3 0.811955 0.937275 0.095316
Si Si4 0.303365 0.195619 0.865659
Si Si5 0.000000 0.500000 0.012500
Si Si6 0.752844 0.969171 0.410678
Si Si7 0.000000 0.000000 0.691152
O O1 0.000654 0.852497 0.218149
O O2 0.810060 0.862039 0.313167
O O3 0.582516 0.928485 0.231701
O O4 0.000000 0.000000 0.261995
O O5 0.168721 0.271572 0.163191
O O6 0.545941 0.357340 0.115622
O O7 0.720665 0.987976 0.147870
O O8 0.585087 0.928508 0.053538
O O9 0.000000 0.000000 0.067799
O O10 0.563460 0.244921 0.866605
O O11 0.270997 0.129094 0.913058
O O12 0.215962 0.487471 0.968222
O O13 0.500000 0.000000 0.384622
O O14 0.000000 0.000000 0.380759
#
# Coordination Sequence:
#
# PCOD9366766 Si02
#       7
#     8   8   8   8   4   8   4
#     4  11  25  39  67  93 129 187 239 271 320 407
#     4  11  25  40  60  93 142 175 211 271 340 395
#     4  10  21  40  68  98 130 173 230 274 334 399
#     4  12  27  45  67 100 143 177 218 291 359 406
#     4   9  22  40  76  96 124 168 238 285 324 404
#     4  10  22  44  72  99 125 178 231 282 333 413
#     4   9  20  34  62  92 128 164 230 273 310 384
#
# _framework density 22.095921000000001
#
# number of rings (size 3 to 8) (size 9 to 14) (size 15 to 20)
#    0.500    1.000    0.000    5.000   15.167    0.000 
#    0.000    1.667    0.000    0.000    0.000    0.000 
#    0.000    0.000    0.000    0.000    0.000    0.000 
#
# Total GULP energy -133628.962284 kJ/mol
# GULP energy per Si atom -5567.873428 kJ/mol
# Density = 2.204563 g / cm^3
# Si number density = 22.095921 Si / 1000 Ang^3
#
#
#
# Elastic Constant Matrix: (Units=GPa)
#
#
# Indices 1 2 3 4 5 6 
#
# 1 115.7435 35.2597 5.8060 0.0000 0.0000 0.0000
# 2 35.2597 83.9829 16.2427 0.0000 0.0000 0.0000
# 3 5.8060 16.2427 71.5501 0.0000 0.0000 0.0000
# 4 0.0000 0.0000 0.0000 5.1094 0.0000 0.0000
# 5 0.0000 0.0000 0.0000 0.0000 232.7717 0.0000
# 6 0.0000 0.0000 0.0000 0.0000 0.0000 51.3776
#
#
#
# Elastic Compliance Matrix: (Units=1/GPa)
#
#
# Indices 1 2 3 4 5 6 
#
# 1 0.009908 -0.004188 0.000147 0.000000 0.000000 0.000000
# 2 -0.004188 0.014224 -0.002889 0.000000 0.000000 0.000000
# 3 0.000147 -0.002889 0.014620 0.000000 0.000000 0.000000
# 4 0.000000 0.000000 0.000000 0.195716 0.000000 0.000000
# 5 0.000000 0.000000 0.000000 0.000000 0.004296 0.000000
# 6 0.000000 0.000000 0.000000 0.000000 0.000000 0.019464
#
#
# Mechanical properties :
#
#
# Convention : Reuss Voigt Hill
#
# Bulk Modulus (GPa) = 40.17457 42.87704 41.52581
# Shear Modulus (GPa) = 17.83245 72.11629 44.97437
#
# Velocity S-wave (km/s) = 2.84394 5.71915 4.51645
# Velocity P-wave (km/s) = 5.38566 7.94095 6.78469
#
# Compressibility (1/GPa) = 0.02489137
#
# Stress axis : x y z
#
# Youngs Moduli (GPa) = 100.92498 70.30164 68.39851
#
# Poissons Ratio (x) = 0.29445 -0.01004
# Poissons Ratio (y) = 0.42271 0.19762
# Poissons Ratio (z) = -0.01481 0.20312
#
# Static dielectric constant tensor:
#      x y z
#    x 1.879350 0.000000 0.000000 
#    y 0.000000 1.841800 0.000000 
#    z 0.000000 0.000000 1.833680 
# 
# From -- ./inp_files/12392.got.cif
#   From: 2010.05.17/outbox.cif.g08.bks.cpg/sg41_7_cif.got.tgz:12392.got - 2010.06.03 18:54:24.
