data_PCOD9366767
_publ_section_title
;
Structure prediction by ZEFSAII (Michael W. Deem and Ramdas Pophale) SiO2 
 PCOD9366767
Probable space group: A B A 2
;
_chemical_formula_sum "Si O2"
_cell_formula_units_Z 44
_cell_length_a 21.624944
_cell_length_b 10.298915
_cell_length_c 9.619290
_cell_angle_alpha 90.000000
_cell_angle_beta 90.000000
_cell_angle_gamma 90.000000
_cell_volume 2142.345360
_symmetry_space_group_name_H-M "A B A 2"
_symmetry_group_IT_number 41
_symmetry_cell_setting 'orthorhombic'
loop_
_space_group_symop_operation_xyz
x,y,z
-x,-y,z
1/2-x,y,1/2+z
1/2+x,-y,1/2+z
x,1/2+y,1/2+z
-x,1/2-y,1/2+z
1/2-x,1/2+y,z
1/2+x,1/2-y,z
loop_
_atom_site_type_symbol
_atom_site_label
_atom_site_fract_x
_atom_site_fract_y
_atom_site_fract_z
Si Si1 0.409803 0.394655 0.009000
Si Si2 0.500000 0.000000 0.711968
Si Si3 0.757807 0.924143 0.332458
Si Si4 0.356665 0.663736 0.982128
Si Si5 0.390666 0.174852 0.797116
Si Si6 0.810483 0.686763 0.736727
O O1 0.468157 0.394192 0.111255
O O2 0.401683 0.542021 0.955409
O O3 0.351099 0.357150 0.106561
O O4 0.412800 0.297236 0.882798
O O5 0.444449 0.067502 0.793494
O O6 0.710835 0.902978 0.459661
O O7 0.827590 0.880850 0.362323
O O8 0.772296 0.820569 0.724446
O O9 0.763992 0.071089 0.279583
O O10 0.371983 0.706139 0.137767
O O11 0.355121 0.777680 0.868212
#
# Coordination Sequence:
#
# PCOD9366767 Si02
#       6
#     8   4   8   8   8   8
#     4  11  23  46  69  98 136 185 232 293 339 417
#     4  10  24  46  66  96 140 186 238 280 348 414
#     4  10  21  40  69 101 138 175 224 279 357 419
#     4   9  23  41  65 100 137 176 223 284 352 420
#     4  11  23  44  72  95 137 183 229 292 343 413
#     4  10  22  41  68 102 142 179 225 282 357 422
#
# _framework density 20.538239999999998
#
# number of rings (size 3 to 8) (size 9 to 14) (size 15 to 20)
#    1.091    0.727    3.636    1.091    2.545    2.909 
#    6.545    0.000    0.000    0.000    0.000    0.000 
#    0.000    0.000    0.000    0.000    0.000    0.000 
#
# Total GULP energy -122602.111248 kJ/mol
# GULP energy per Si atom -5572.823239 kJ/mol
# Density = 2.049149 g / cm^3
# Si number density = 20.538240 Si / 1000 Ang^3
#
#
#
# Elastic Constant Matrix: (Units=GPa)
#
#
# Indices 1 2 3 4 5 6 
#
# 1 82.7992 6.6876 14.0530 0.0000 0.0000 0.0000
# 2 6.6876 93.2217 48.3561 0.0000 0.0000 0.0000
# 3 14.0530 48.3561 69.9508 0.0000 0.0000 0.0000
# 4 0.0000 0.0000 0.0000 30.3131 0.0000 0.0000
# 5 0.0000 0.0000 0.0000 0.0000 27.8467 0.0000
# 6 0.0000 0.0000 0.0000 0.0000 0.0000 24.8618
#
#
#
# Elastic Compliance Matrix: (Units=1/GPa)
#
#
# Indices 1 2 3 4 5 6 
#
# 1 0.012528 0.000634 -0.002955 0.000000 0.000000 0.000000
# 2 0.000634 0.016756 -0.011711 0.000000 0.000000 0.000000
# 3 -0.002955 -0.011711 0.022985 0.000000 0.000000 0.000000
# 4 0.000000 0.000000 0.000000 0.032989 0.000000 0.000000
# 5 0.000000 0.000000 0.000000 0.000000 0.035911 0.000000
# 6 0.000000 0.000000 0.000000 0.000000 0.000000 0.040222
#
#
# Mechanical properties :
#
#
# Convention : Reuss Voigt Hill
#
# Bulk Modulus (GPa) = 41.31313 42.68501 41.99907
# Shear Modulus (GPa) = 25.31345 28.39600 26.85473
#
# Velocity S-wave (km/s) = 3.51451 3.72236 3.61993
# Velocity P-wave (km/s) = 6.05210 6.26920 6.16161
#
# Compressibility (1/GPa) = 0.02420538
#
# Stress axis : x y z
#
# Youngs Moduli (GPa) = 79.82273 59.67910 43.50659
#
# Poissons Ratio (x) = -0.03785 0.12857
# Poissons Ratio (y) = -0.05063 0.50950
# Poissons Ratio (z) = 0.23589 0.69889
#
# Static dielectric constant tensor:
#      x y z
#    x 1.764020 0.000000 0.000000 
#    y 0.000000 1.742140 0.000000 
#    z 0.000000 0.000000 1.739030 
# 
# From -- ./inp_files/3582.got.cif
#   From: 2010.05.17/outbox.cif.g08.bks.cpg/sg41_2_cif.got.tgz:3582.got - 2010.06.03 18:54:24.
