data_PCOD9366436
_publ_section_title
;
Structure prediction by ZEFSAII (Michael W. Deem and Ramdas Pophale) SiO2 
 PCOD9366436
Probable space group: A B A 2
;
_chemical_formula_sum "Si O2"
_cell_formula_units_Z 44
_cell_length_a 18.184280
_cell_length_b 10.097103
_cell_length_c 9.610225
_cell_angle_alpha 90.000000
_cell_angle_beta 90.000000
_cell_angle_gamma 90.000000
_cell_volume 1764.519460
_symmetry_space_group_name_H-M "A B A 2"
_symmetry_group_IT_number 41
_symmetry_cell_setting 'orthorhombic'
loop_
_space_group_symop_operation_xyz
x,y,z
-x,-y,z
1/2-x,y,1/2+z
1/2+x,-y,1/2+z
x,1/2+y,1/2+z
-x,1/2-y,1/2+z
1/2-x,1/2+y,z
1/2+x,1/2-y,z
loop_
_atom_site_type_symbol
_atom_site_label
_atom_site_fract_x
_atom_site_fract_y
_atom_site_fract_z
Si Si1 0.890611 0.384446 0.949710
Si Si2 0.104514 0.021492 0.725063
Si Si3 0.500000 0.000000 0.619639
Si Si4 0.841755 0.628443 0.627624
Si Si5 0.247322 0.967097 0.361111
Si Si6 0.497896 0.308711 0.872482
O O1 0.817052 0.425814 0.874410
O O2 0.963233 0.336108 0.870016
O O3 0.908787 0.496961 0.062143
O O4 0.867561 0.258439 0.044277
O O5 0.188411 0.018891 0.763057
O O6 0.066584 0.155760 0.778590
O O7 0.065405 0.904087 0.809399
O O8 0.583686 0.044037 0.665432
O O9 0.483226 0.130070 0.522263
O O10 0.794029 0.645406 0.768725
O O11 0.786940 0.563251 0.509080
#
# Coordination Sequence:
#
# PCOD9366436 Si02
#       6
#     8   8   4   8   8   8
#     4  11  24  39  65  97 126 172 222 261 330 397
#     4  10  20  41  65  93 125 170 218 262 331 389
#     4   8  16  40  64  82 122 178 198 256 334 380
#     4  11  24  42  68  93 136 170 218 276 330 388
#     4  12  23  41  65  97 130 168 221 273 322 389
#     4   9  19  41  63  87 134 168 206 272 326 388
#
# _framework density 24.935966000000001
#
# number of rings (size 3 to 8) (size 9 to 14) (size 15 to 20)
#    0.000    1.818    7.273    0.000    2.545    2.909 
#    0.000    7.273    0.000    0.000    0.000    0.000 
#    0.000    0.000    0.000    0.000    0.000    0.000 
#
# Total GULP energy -122721.183720 kJ/mol
# GULP energy per Si atom -5578.235624 kJ/mol
# Density = 2.487921 g / cm^3
# Si number density = 24.935966 Si / 1000 Ang^3
#
#
#
# Elastic Constant Matrix: (Units=GPa)
#
#
# Indices 1 2 3 4 5 6 
#
# 1 148.6396 9.8861 53.5764 0.0000 0.0000 0.0000
# 2 9.8861 40.4747 0.5472 0.0000 0.0000 0.0000
# 3 53.5764 0.5472 52.7986 0.0000 0.0000 0.0000
# 4 0.0000 0.0000 0.0000 17.4056 0.0000 0.0000
# 5 0.0000 0.0000 0.0000 0.0000 51.7441 0.0000
# 6 0.0000 0.0000 0.0000 0.0000 0.0000 37.5009
#
#
#
# Elastic Compliance Matrix: (Units=1/GPa)
#
#
# Indices 1 2 3 4 5 6 
#
# 1 0.010855 -0.002503 -0.010989 0.000000 0.000000 0.000000
# 2 -0.002503 0.025287 0.002278 0.000000 0.000000 0.000000
# 3 -0.010989 0.002278 0.030067 0.000000 0.000000 0.000000
# 4 0.000000 0.000000 0.000000 0.057453 0.000000 0.000000
# 5 0.000000 0.000000 0.000000 0.000000 0.019326 0.000000
# 6 0.000000 0.000000 0.000000 0.000000 0.000000 0.026666
#
#
# Mechanical properties :
#
#
# Convention : Reuss Voigt Hill
#
# Bulk Modulus (GPa) = 22.84085 41.10356 31.97221
# Shear Modulus (GPa) = 24.19239 33.19035 28.69137
#
# Velocity S-wave (km/s) = 3.11815 3.65228 3.39573
# Velocity P-wave (km/s) = 4.70569 5.85704 5.31265
#
# Compressibility (1/GPa) = 0.04378121
#
# Stress axis : x y z
#
# Youngs Moduli (GPa) = 92.12254 39.54546 33.25874
#
# Poissons Ratio (x) = 0.09898 0.36548
# Poissons Ratio (y) = 0.23057 -0.07575
# Poissons Ratio (z) = 1.01234 -0.09007
#
# Static dielectric constant tensor:
#      x y z
#    x 1.912110 0.000000 0.000000 
#    y 0.000000 2.044000 0.000000 
#    z 0.000000 0.000000 2.047350 
# 
# From -- ./inp_files/5886.got.cif
#   From: 2010.05.17/outbox.cif.g08.bks.cpg/sg41_3_cif.got.tgz:5886.got - 2010.06.03 18:54:24.
