data_PCOD9366413
_publ_section_title
;
Structure prediction by ZEFSAII (Michael W. Deem and Ramdas Pophale) SiO2 
 PCOD9366413
Probable space group: A B A 2
;
_chemical_formula_sum "Si O2"
_cell_formula_units_Z 52
_cell_length_a 11.322433
_cell_length_b 15.987068
_cell_length_c 12.451067
_cell_angle_alpha 90.000000
_cell_angle_beta 90.000000
_cell_angle_gamma 90.000000
_cell_volume 2253.798844
_symmetry_space_group_name_H-M "A B A 2"
_symmetry_group_IT_number 41
_symmetry_cell_setting 'orthorhombic'
loop_
_space_group_symop_operation_xyz
x,y,z
-x,-y,z
1/2-x,y,1/2+z
1/2+x,-y,1/2+z
x,1/2+y,1/2+z
-x,1/2-y,1/2+z
1/2-x,1/2+y,z
1/2+x,1/2-y,z
loop_
_atom_site_type_symbol
_atom_site_label
_atom_site_fract_x
_atom_site_fract_y
_atom_site_fract_z
Si Si1 0.500000 0.000000 0.719810
Si Si2 0.058128 0.914919 0.430977
Si Si3 0.822339 0.091344 0.913432
Si Si4 0.361497 0.013791 0.215049
Si Si5 0.438650 0.743635 0.382557
Si Si6 0.316670 0.180646 0.351849
Si Si7 0.328696 0.566827 0.050624
O O1 0.564575 0.061186 0.803786
O O2 0.578788 0.939318 0.647445
O O3 0.191279 0.890997 0.457316
O O4 0.970818 0.838292 0.450623
O O5 0.000000 0.000000 0.473827
O O6 0.906415 0.168721 0.937296
O O7 0.822586 0.066234 0.787331
O O8 0.865180 0.007979 0.971226
O O9 0.332312 0.096417 0.284342
O O10 0.500000 0.000000 0.202356
O O11 0.290592 0.033691 0.107064
O O12 0.566730 0.763475 0.328709
O O13 0.312018 0.720982 0.327471
O O14 0.316810 0.149386 0.477403
#
# Coordination Sequence:
#
# PCOD9366413 Si02
#       7
#     4   8   8   8   8   8   8
#     4  10  20  40  68  94 118 174 228 268 330 406
#     4  10  21  41  71  91 129 179 226 267 347 410
#     4  11  22  41  68  97 133 179 224 282 346 400
#     4  11  22  44  69 101 133 183 231 286 345 420
#     4  12  22  43  69  99 137 178 224 290 345 413
#     4  11  25  42  70  97 139 180 230 280 354 409
#     4  11  23  41  68  98 133 177 230 279 334 418
#
# _framework density 23.072156
#
# number of rings (size 3 to 8) (size 9 to 14) (size 15 to 20)
#    0.462    0.615    4.615    3.692    2.154    1.846 
#    0.000    7.692    0.000    0.000    0.000    0.000 
#    0.000    0.000    0.000    0.000    0.000    0.000 
#
# Total GULP energy -144893.666724 kJ/mol
# GULP energy per Si atom -5572.833336 kJ/mol
# Density = 2.301964 g / cm^3
# Si number density = 23.072156 Si / 1000 Ang^3
#
#
#
# Elastic Constant Matrix: (Units=GPa)
#
#
# Indices 1 2 3 4 5 6 
#
# 1 187.6790 26.3623 14.4179 0.0000 0.0000 0.0000
# 2 26.3623 112.1627 1.5974 0.0000 0.0000 0.0000
# 3 14.4179 1.5974 69.8990 0.0000 0.0000 0.0000
# 4 0.0000 0.0000 0.0000 10.3481 0.0000 0.0000
# 5 0.0000 0.0000 0.0000 0.0000 16.5970 0.0000
# 6 0.0000 0.0000 0.0000 0.0000 0.0000 48.4188
#
#
#
# Elastic Compliance Matrix: (Units=1/GPa)
#
#
# Indices 1 2 3 4 5 6 
#
# 1 0.005597 -0.001300 -0.001125 0.000000 0.000000 0.000000
# 2 -0.001300 0.009220 0.000057 0.000000 0.000000 0.000000
# 3 -0.001125 0.000057 0.014537 0.000000 0.000000 0.000000
# 4 0.000000 0.000000 0.000000 0.096636 0.000000 0.000000
# 5 0.000000 0.000000 0.000000 0.000000 0.060252 0.000000
# 6 0.000000 0.000000 0.000000 0.000000 0.000000 0.020653
#
#
# Mechanical properties :
#
#
# Convention : Reuss Voigt Hill
#
# Bulk Modulus (GPa) = 40.61657 50.49953 45.55805
# Shear Modulus (GPa) = 22.74417 36.89700 29.82059
#
# Velocity S-wave (km/s) = 3.14313 4.00334 3.59903
# Velocity P-wave (km/s) = 5.55110 6.58059 6.08764
#
# Compressibility (1/GPa) = 0.02462049
#
# Stress axis : x y z
#
# Youngs Moduli (GPa) = 178.66095 108.45708 68.78969
#
# Poissons Ratio (x) = 0.14094 0.07738
# Poissons Ratio (y) = 0.23217 -0.00394
# Poissons Ratio (z) = 0.20096 -0.00622
#
# Static dielectric constant tensor:
#      x y z
#    x 1.924800 0.000000 0.000000 
#    y 0.000000 1.864370 0.000000 
#    z 0.000000 0.000000 1.934730 
# 
# From -- ./inp_files/8017.got.cif
#   From: 2010.05.17/outbox.cif.g08.bks.cpg/sg41_5_cif.got.tgz:8017.got - 2010.06.03 18:54:24.
