data_PCOD9366415
_publ_section_title
;
Structure prediction by ZEFSAII (Michael W. Deem and Ramdas Pophale) SiO2 
 PCOD9366415
Probable space group: A B A 2
;
_chemical_formula_sum "Si O2"
_cell_formula_units_Z 48
_cell_length_a 13.834132
_cell_length_b 20.052810
_cell_length_c 7.647567
_cell_angle_alpha 90.000000
_cell_angle_beta 90.000000
_cell_angle_gamma 90.000000
_cell_volume 2121.536191
_symmetry_space_group_name_H-M "A B A 2"
_symmetry_group_IT_number 41
_symmetry_cell_setting 'orthorhombic'
loop_
_space_group_symop_operation_xyz
x,y,z
-x,-y,z
1/2-x,y,1/2+z
1/2+x,-y,1/2+z
x,1/2+y,1/2+z
-x,1/2-y,1/2+z
1/2-x,1/2+y,z
1/2+x,1/2-y,z
loop_
_atom_site_type_symbol
_atom_site_label
_atom_site_fract_x
_atom_site_fract_y
_atom_site_fract_z
Si Si1 0.061156 0.607519 0.032980
Si Si2 0.309418 0.298072 0.838949
Si Si3 0.370240 0.458849 0.462363
Si Si4 0.539783 0.799570 0.700923
Si Si5 0.816769 0.600427 0.617294
Si Si6 0.125137 0.207382 0.832781
O O1 0.114478 0.650584 0.183099
O O2 0.106200 0.534780 0.004807
O O3 0.065676 0.648012 0.851498
O O4 0.947028 0.589541 0.060609
O O5 0.392179 0.264142 0.730579
O O6 0.247933 0.349900 0.730584
O O7 0.230969 0.238655 0.882161
O O8 0.359086 0.346738 0.980845
O O9 0.260183 0.445931 0.518527
O O10 0.380075 0.440327 0.255930
O O11 0.571062 0.819130 0.506157
O O12 0.435868 0.769395 0.753130
#
# Coordination Sequence:
#
# PCOD9366415 Si02
#       6
#     8   8   8   8   8   8
#     4  11  25  46  65  97 142 178 231 282 346 416
#     4  11  22  41  65 102 130 170 228 285 343 417
#     4  10  24  46  64  95 134 186 230 286 328 418
#     4  12  24  41  70 101 135 178 220 288 355 410
#     4  10  20  40  70  90 128 177 231 271 339 407
#     4  12  25  42  68 104 137 178 222 287 359 403
#
# _framework density 22.625115000000001
#
# number of rings (size 3 to 8) (size 9 to 14) (size 15 to 20)
#    0.000    1.000    3.333    4.000    2.333    1.333 
#    6.000    1.667    0.000    0.000    0.000    0.000 
#    0.000    0.000    0.000    0.000    0.000    0.000 
#
# Total GULP energy -133912.764232 kJ/mol
# GULP energy per Si atom -5579.698510 kJ/mol
# Density = 2.257362 g / cm^3
# Si number density = 22.625115 Si / 1000 Ang^3
#
#
#
# Elastic Constant Matrix: (Units=GPa)
#
#
# Indices 1 2 3 4 5 6 
#
# 1 71.1772 22.0766 3.0934 0.0000 0.0000 0.0000
# 2 22.0766 118.9156 59.3858 0.0000 0.0000 0.0000
# 3 3.0934 59.3858 112.1260 0.0000 0.0000 0.0000
# 4 0.0000 0.0000 0.0000 32.5518 0.0000 0.0000
# 5 0.0000 0.0000 0.0000 0.0000 12.6135 0.0000
# 6 0.0000 0.0000 0.0000 0.0000 0.0000 17.4013
#
#
#
# Elastic Compliance Matrix: (Units=1/GPa)
#
#
# Indices 1 2 3 4 5 6 
#
# 1 0.015079 -0.003524 0.001450 0.000000 0.000000 0.000000
# 2 -0.003524 0.012257 -0.006394 0.000000 0.000000 0.000000
# 3 0.001450 -0.006394 0.012265 0.000000 0.000000 0.000000
# 4 0.000000 0.000000 0.000000 0.030720 0.000000 0.000000
# 5 0.000000 0.000000 0.000000 0.000000 0.079280 0.000000
# 6 0.000000 0.000000 0.000000 0.000000 0.000000 0.057467
#
#
# Mechanical properties :
#
#
# Convention : Reuss Voigt Hill
#
# Bulk Modulus (GPa) = 44.11964 52.37005 48.24485
# Shear Modulus (GPa) = 21.59271 27.02419 24.30845
#
# Velocity S-wave (km/s) = 3.09264 3.45981 3.28136
# Velocity P-wave (km/s) = 5.68288 6.25759 5.97715
#
# Compressibility (1/GPa) = 0.02266564
#
# Stress axis : x y z
#
# Youngs Moduli (GPa) = 66.31589 81.58706 81.53124
#
# Poissons Ratio (x) = 0.28749 -0.11824
# Poissons Ratio (y) = 0.23368 0.52135
# Poissons Ratio (z) = -0.09618 0.52170
#
# Static dielectric constant tensor:
#      x y z
#    x 1.963180 0.000000 0.000000 
#    y 0.000000 1.799940 0.000000 
#    z 0.000000 0.000000 1.955180 
# 
# From -- ./inp_files/2534.got.cif
#   From: 2010.05.17/outbox.cif.g08.bks.cpg/sg41_2_cif.got.tgz:2534.got - 2010.06.03 18:54:24.
