data_PCOD9366376
_publ_section_title
;
Structure prediction by ZEFSAII (Michael W. Deem and Ramdas Pophale) SiO2 
 PCOD9366376
Probable space group: A B A 2
;
_chemical_formula_sum "Si O2"
_cell_formula_units_Z 56
_cell_length_a 17.198626
_cell_length_b 7.564930
_cell_length_c 22.298795
_cell_angle_alpha 90.000000
_cell_angle_beta 90.000000
_cell_angle_gamma 90.000000
_cell_volume 2901.215982
_symmetry_space_group_name_H-M "A B A 2"
_symmetry_group_IT_number 41
_symmetry_cell_setting 'orthorhombic'
loop_
_space_group_symop_operation_xyz
x,y,z
-x,-y,z
1/2-x,y,1/2+z
1/2+x,-y,1/2+z
x,1/2+y,1/2+z
-x,1/2-y,1/2+z
1/2-x,1/2+y,z
1/2+x,1/2-y,z
loop_
_atom_site_type_symbol
_atom_site_label
_atom_site_fract_x
_atom_site_fract_y
_atom_site_fract_z
Si Si1 0.000000 0.500000 0.199330
Si Si2 0.431578 0.354734 0.253083
Si Si3 0.347377 0.891479 0.517329
Si Si4 0.500000 0.000000 0.447688
Si Si5 0.435097 0.849776 0.891136
Si Si6 0.824711 0.022491 0.494173
Si Si7 0.313610 0.324927 0.150201
Si Si8 0.645682 0.083297 0.127147
O O1 0.961120 0.343956 0.237833
O O2 0.937609 0.603637 0.157633
O O3 0.500000 0.500000 0.245065
O O4 0.407414 0.357157 0.322534
O O5 0.361505 0.392136 0.207010
O O6 0.347425 0.681757 0.503364
O O7 0.337371 0.923897 0.588671
O O8 0.425704 0.964864 0.489561
O O9 0.268244 0.967285 0.489137
O O10 0.476751 0.166185 0.406984
O O11 0.632712 0.108984 0.938215
O O12 0.500000 0.000000 0.899095
O O13 0.850243 0.119418 0.556096
O O14 0.337734 0.124377 0.136961
O O15 0.220582 0.326304 0.156904
#
# Coordination Sequence:
#
# PCOD9366376 Si02
#       8
#     4   8   8   4   8   8   8   8
#     4  10  21  40  62  88 121 154 206 248 306 350
#     4  10  23  40  60  86 118 160 198 243 295 358
#     4  10  21  37  63  92 123 158 201 261 310 359
#     4  12  23  38  66  92 117 164 206 254 314 352
#     4  11  23  41  61  84 125 158 203 248 294 367
#     4  10  20  40  58  91 129 158 202 252 308 367
#     4   9  20  38  57  90 120 153 203 241 307 361
#     4   9  20  35  62  88 121 156 191 260 305 351
#
# _framework density 19.302251999999999
#
# number of rings (size 3 to 8) (size 9 to 14) (size 15 to 20)
#    0.000    2.000    1.429    1.286    4.000    2.286 
#    0.000    7.143    0.000    0.000    0.000    0.000 
#    0.000    0.000    0.000    0.000    0.000    0.000 
#
# Total GULP energy -156346.313844 kJ/mol
# GULP energy per Si atom -5583.796923 kJ/mol
# Density = 1.925832 g / cm^3
# Si number density = 19.302252 Si / 1000 Ang^3
#
#
#
# Elastic Constant Matrix: (Units=GPa)
#
#
# Indices 1 2 3 4 5 6 
#
# 1 111.9044 22.7992 98.5976 0.0000 0.0000 0.0000
# 2 22.7992 65.9071 30.7855 0.0000 0.0000 0.0000
# 3 98.5976 30.7855 142.7412 0.0000 0.0000 0.0000
# 4 0.0000 0.0000 0.0000 -19.0138 0.0000 0.0000
# 5 0.0000 0.0000 0.0000 0.0000 36.2760 0.0000
# 6 0.0000 0.0000 0.0000 0.0000 0.0000 28.9416
#
#
#
# Elastic Compliance Matrix: (Units=1/GPa)
#
#
# Indices 1 2 3 4 5 6 
#
# 1 0.022852 -0.000592 -0.015658 0.000000 0.000000 0.000000
# 2 -0.000592 0.016888 -0.003234 0.000000 0.000000 0.000000
# 3 -0.015658 -0.003234 0.018518 0.000000 0.000000 0.000000
# 4 0.000000 0.000000 0.000000 -0.052593 0.000000 0.000000
# 5 0.000000 0.000000 0.000000 0.000000 0.027566 0.000000
# 6 0.000000 0.000000 0.000000 0.000000 0.000000 0.034552
#
#
# Mechanical properties :
#
#
# Convention : Reuss Voigt Hill
#
# Bulk Modulus (GPa) = 51.83165 69.43525 60.63345
# Shear Modulus (GPa) = 44.17703 20.46545 32.32124
#
# Velocity S-wave (km/s) = 4.78922 3.25970 4.09648
# Velocity P-wave (km/s) = 7.58242 7.08648 7.33864
#
# Compressibility (1/GPa) = 0.01929323
#
# Stress axis : x y z
#
# Youngs Moduli (GPa) = 43.75900 59.21370 54.00013
#
# Poissons Ratio (x) = 0.03503 0.84551
# Poissons Ratio (y) = 0.02589 0.17462
# Poissons Ratio (z) = 0.68516 0.19148
#
# Static dielectric constant tensor:
#      x y z
#    x 1.680010 0.000000 0.000000 
#    y 0.000000 1.718650 0.000000 
#    z 0.000000 0.000000 1.658460 
# 
# From -- ./inp_files/11579.got.cif
#   From: 2010.05.17/outbox.cif.g08.bks.cpg/sg41_6_cif.got.tgz:11579.got - 2010.06.03 18:54:24.
