data_PCOD9366472
_publ_section_title
;
Structure prediction by ZEFSAII (Michael W. Deem and Ramdas Pophale) SiO2 
 PCOD9366472
Probable space group: A B A 2
;
_chemical_formula_sum "Si O2"
_cell_formula_units_Z 60
_cell_length_a 17.941422
_cell_length_b 12.620823
_cell_length_c 11.504824
_cell_angle_alpha 90.000000
_cell_angle_beta 90.000000
_cell_angle_gamma 90.000000
_cell_volume 2605.100706
_symmetry_space_group_name_H-M "A B A 2"
_symmetry_group_IT_number 41
_symmetry_cell_setting 'orthorhombic'
loop_
_space_group_symop_operation_xyz
x,y,z
-x,-y,z
1/2-x,y,1/2+z
1/2+x,-y,1/2+z
x,1/2+y,1/2+z
-x,1/2-y,1/2+z
1/2-x,1/2+y,z
1/2+x,1/2-y,z
loop_
_atom_site_type_symbol
_atom_site_label
_atom_site_fract_x
_atom_site_fract_y
_atom_site_fract_z
Si Si1 0.000000 0.500000 0.747200
Si Si2 0.229061 0.045310 0.781609
Si Si3 0.955508 0.220716 0.575436
Si Si4 0.860153 0.421029 0.599969
Si Si5 0.480203 0.218198 0.829024
Si Si6 0.369305 0.990241 0.091974
Si Si7 0.670650 0.818257 0.931021
Si Si8 0.722762 0.095238 0.476097
O O1 0.070218 0.530316 0.669504
O O2 0.983707 0.602007 0.823543
O O3 0.287177 0.074541 0.680249
O O4 0.254211 0.131405 0.877722
O O5 0.148994 0.034955 0.720628
O O6 0.245343 0.932189 0.843189
O O7 0.885195 0.302081 0.571152
O O8 0.996741 0.236091 0.700494
O O9 0.932535 0.097341 0.578954
O O10 0.998133 0.256916 0.457813
O O11 0.840185 0.506317 0.500787
O O12 0.390222 0.211809 0.834257
O O13 0.294687 0.926646 0.053559
O O14 0.369643 0.091413 0.007245
O O15 0.691851 0.711388 0.995512
#
# Coordination Sequence:
#
# PCOD9366472 Si02
#       8
#     4   8   8   8   8   8   8   8
#     4  10  20  42  68  90 128 190 232 280 342 440
#     4  10  21  41  62  98 131 178 224 292 357 404
#     4  11  24  45  71 104 139 187 241 298 353 435
#     4  10  23  42  66  94 136 181 235 281 354 425
#     4  11  24  42  72  96 141 187 236 295 353 423
#     4  10  24  41  68 100 134 182 234 298 355 422
#     4  11  22  42  66  98 137 182 231 290 360 425
#     4  10  24  38  67  96 134 179 231 289 356 429
#
# _framework density 23.031739000000002
#
# number of rings (size 3 to 8) (size 9 to 14) (size 15 to 20)
#    0.000    1.600    2.667    1.600   11.200    1.067 
#    2.400    0.000    2.933    0.000    0.000    0.000 
#    0.000    0.000    0.000    0.000    0.000    0.000 
#
# Total GULP energy -167257.929912 kJ/mol
# GULP energy per Si atom -5575.264330 kJ/mol
# Density = 2.297932 g / cm^3
# Si number density = 23.031739 Si / 1000 Ang^3
#
#
#
# Elastic Constant Matrix: (Units=GPa)
#
#
# Indices 1 2 3 4 5 6 
#
# 1 34.4898 16.7956 17.4306 0.0000 0.0000 0.0000
# 2 16.7956 116.9009 31.4545 0.0000 0.0000 0.0000
# 3 17.4306 31.4545 124.7601 0.0000 0.0000 0.0000
# 4 0.0000 0.0000 0.0000 13.0131 0.0000 0.0000
# 5 0.0000 0.0000 0.0000 0.0000 19.7006 0.0000
# 6 0.0000 0.0000 0.0000 0.0000 0.0000 26.4761
#
#
#
# Elastic Compliance Matrix: (Units=1/GPa)
#
#
# Indices 1 2 3 4 5 6 
#
# 1 0.032634 -0.003714 -0.003623 0.000000 0.000000 0.000000
# 2 -0.003714 0.009599 -0.001901 0.000000 0.000000 0.000000
# 3 -0.003623 -0.001901 0.009001 0.000000 0.000000 0.000000
# 4 0.000000 0.000000 0.000000 0.076845 0.000000 0.000000
# 5 0.000000 0.000000 0.000000 0.000000 0.050760 0.000000
# 6 0.000000 0.000000 0.000000 0.000000 0.000000 0.037770
#
#
# Mechanical properties :
#
#
# Convention : Reuss Voigt Hill
#
# Bulk Modulus (GPa) = 30.52718 45.27913 37.90315
# Shear Modulus (GPa) = 20.32482 25.86931 23.09706
#
# Velocity S-wave (km/s) = 2.97386 3.35506 3.17019
# Velocity P-wave (km/s) = 5.00749 5.89158 5.46743
#
# Compressibility (1/GPa) = 0.03275770
#
# Stress axis : x y z
#
# Youngs Moduli (GPa) = 30.64328 104.17296 111.09954
#
# Poissons Ratio (x) = 0.38687 0.40252
# Poissons Ratio (y) = 0.11380 0.21124
# Poissons Ratio (z) = 0.11102 0.19807
#
# Static dielectric constant tensor:
#      x y z
#    x 1.882890 0.000000 0.000000 
#    y 0.000000 1.879560 0.000000 
#    z 0.000000 0.000000 2.021790 
# 
# From -- ./inp_files/6269.got.cif
#   From: 2010.05.17/outbox.cif.g08.bks.cpg/sg41_4_cif.got.tgz:6269.got - 2010.06.03 18:54:24.
