data_PCOD9366765
_publ_section_title
;
Structure prediction by ZEFSAII (Michael W. Deem and Ramdas Pophale) SiO2 
 PCOD9366765
Probable space group: A B A 2
;
_chemical_formula_sum "Si O2"
_cell_formula_units_Z 56
_cell_length_a 14.111475
_cell_length_b 9.506991
_cell_length_c 19.857550
_cell_angle_alpha 90.000000
_cell_angle_beta 90.000000
_cell_angle_gamma 90.000000
_cell_volume 2664.042557
_symmetry_space_group_name_H-M "A B A 2"
_symmetry_group_IT_number 41
_symmetry_cell_setting 'orthorhombic'
loop_
_space_group_symop_operation_xyz
x,y,z
-x,-y,z
1/2-x,y,1/2+z
1/2+x,-y,1/2+z
x,1/2+y,1/2+z
-x,1/2-y,1/2+z
1/2-x,1/2+y,z
1/2+x,1/2-y,z
loop_
_atom_site_type_symbol
_atom_site_label
_atom_site_fract_x
_atom_site_fract_y
_atom_site_fract_z
Si Si1 0.317379 0.396850 0.314420
Si Si2 0.715018 0.098972 0.134509
Si Si3 0.108463 0.967871 0.062074
Si Si4 0.339674 0.749982 0.012223
Si Si5 0.331408 0.325305 0.923841
Si Si6 0.757937 0.848902 0.224350
Si Si7 0.511679 0.152652 0.913947
O O1 0.227672 0.407453 0.366534
O O2 0.301863 0.251910 0.273567
O O3 0.315344 0.535244 0.267810
O O4 0.414928 0.378805 0.354264
O O5 0.827715 0.117707 0.115314
O O6 0.686440 0.228473 0.182725
O O7 0.701832 0.952875 0.173504
O O8 0.667434 0.116171 0.061480
O O9 0.121494 0.910524 0.985839
O O10 0.000000 0.000000 0.079304
O O11 0.160924 0.116474 0.059284
O O12 0.251499 0.741285 0.962079
O O13 0.433293 0.752532 0.967780
O O14 0.413185 0.225224 0.895045
O O15 0.500000 0.000000 0.947030
#
# Coordination Sequence:
#
# PCOD9366765 Si02
#       7
#     8   8   8   8   8   8   8
#     4  10  23  40  66  88 126 163 216 253 306 371
#     4  10  21  40  68  85 123 164 214 253 312 369
#     4  11  21  38  63  96 128 158 203 261 323 380
#     4  10  22  38  63  95 124 158 200 259 323 382
#     4  10  23  36  64  92 126 158 196 255 322 381
#     4  10  21  41  64  86 114 178 208 252 302 364
#     4  11  23  38  62  95 126 158 202 262 318 379
#
# _framework density 21.020683999999999
#
# number of rings (size 3 to 8) (size 9 to 14) (size 15 to 20)
#    0.000    1.714    2.857    0.857   10.000    0.000 
#    0.000    5.714    3.143    0.000    0.000    0.000 
#    0.000    0.000    0.000    0.000    0.000    0.000 
#
# Total GULP energy -156025.351183 kJ/mol
# GULP energy per Si atom -5572.333971 kJ/mol
# Density = 2.097284 g / cm^3
# Si number density = 21.020684 Si / 1000 Ang^3
#
#
#
# Elastic Constant Matrix: (Units=GPa)
#
#
# Indices 1 2 3 4 5 6 
#
# 1 82.1721 12.8571 33.7313 0.0000 0.0000 0.0000
# 2 12.8571 97.2671 28.0709 0.0000 0.0000 0.0000
# 3 33.7313 28.0709 74.6621 0.0000 0.0000 0.0000
# 4 0.0000 0.0000 0.0000 46.6901 0.0000 0.0000
# 5 0.0000 0.0000 0.0000 0.0000 -7.8186 0.0000
# 6 0.0000 0.0000 0.0000 0.0000 0.0000 14.3279
#
#
#
# Elastic Compliance Matrix: (Units=1/GPa)
#
#
# Indices 1 2 3 4 5 6 
#
# 1 0.014940 -0.000030 -0.006739 0.000000 0.000000 0.000000
# 2 -0.000030 0.011532 -0.004322 0.000000 0.000000 0.000000
# 3 -0.006739 -0.004322 0.018063 0.000000 0.000000 0.000000
# 4 0.000000 0.000000 0.000000 0.021418 0.000000 0.000000
# 5 0.000000 0.000000 0.000000 0.000000 -0.127900 0.000000
# 6 0.000000 0.000000 0.000000 0.000000 0.000000 0.069794
#
#
# Mechanical properties :
#
#
# Convention : Reuss Voigt Hill
#
# Bulk Modulus (GPa) = 44.73466 44.82442 44.77954
# Shear Modulus (GPa) = 133.40273 22.60269 78.00271
#
# Velocity S-wave (km/s) = 7.97498 3.28267 6.09821
# Velocity P-wave (km/s) = 10.30184 5.97814 8.42218
#
# Compressibility (1/GPa) = 0.02235403
#
# Stress axis : x y z
#
# Youngs Moduli (GPa) = 66.93241 86.71282 55.36153
#
# Poissons Ratio (x) = 0.00262 0.37306
# Poissons Ratio (y) = 0.00202 0.23928
# Poissons Ratio (z) = 0.45103 0.37479
#
# Static dielectric constant tensor:
#      x y z
#    x 1.745830 0.000000 0.000000 
#    y 0.000000 1.800240 0.000000 
#    z 0.000000 0.000000 1.811020 
# 
# From -- ./inp_files/11563.got.cif
#   From: 2010.05.17/outbox.cif.g08.bks.cpg/sg41_6_cif.got.tgz:11563.got - 2010.06.03 18:54:24.
