data_PCOD9366048
_publ_section_title
;
Structure prediction by ZEFSAII (Michael W. Deem and Ramdas Pophale) SiO2 
 PCOD9366048
Probable space group: A B A 2
;
_chemical_formula_sum "Si O2"
_cell_formula_units_Z 48
_cell_length_a 8.766209
_cell_length_b 19.179173
_cell_length_c 13.472935
_cell_angle_alpha 90.000000
_cell_angle_beta 90.000000
_cell_angle_gamma 90.000000
_cell_volume 2265.186224
_symmetry_space_group_name_H-M "A B A 2"
_symmetry_group_IT_number 41
_symmetry_cell_setting 'orthorhombic'
loop_
_space_group_symop_operation_xyz
x,y,z
-x,-y,z
1/2-x,y,1/2+z
1/2+x,-y,1/2+z
x,1/2+y,1/2+z
-x,1/2-y,1/2+z
1/2-x,1/2+y,z
1/2+x,1/2-y,z
loop_
_atom_site_type_symbol
_atom_site_label
_atom_site_fract_x
_atom_site_fract_y
_atom_site_fract_z
Si Si1 0.193753 0.596517 0.140650
Si Si2 0.135754 0.731928 0.708794
Si Si3 0.317023 0.492888 0.497618
Si Si4 0.117012 0.346342 0.045765
Si Si5 0.175432 0.980472 0.265995
Si Si6 0.846850 0.678184 0.813720
O O1 0.286628 0.657455 0.191743
O O2 0.200846 0.527687 0.209748
O O3 0.035710 0.629180 0.103426
O O4 0.266004 0.559366 0.044008
O O5 0.163643 0.779539 0.611014
O O6 0.200283 0.773391 0.803722
O O7 0.964188 0.715183 0.739295
O O8 0.500000 0.500000 0.517846
O O9 0.276695 0.416063 0.539235
O O10 0.304791 0.497868 0.381123
O O11 0.096400 0.329507 0.927758
O O12 0.189984 0.897275 0.267285
O O13 0.000000 0.000000 0.236427
#
# Coordination Sequence:
#
# PCOD9366048 Si02
#       6
#     8   8   8   8   8   8
#     4  11  21  36  66  92 125 166 219 271 324 395
#     4  12  24  40  63  99 129 176 218 272 333 404
#     4   8  18  36  60  84 115 161 208 261 326 379
#     4  10  23  43  64  93 132 176 218 275 333 399
#     4  10  19  38  63  88 120 167 218 268 327 390
#     4  11  25  42  67  94 136 174 224 274 337 399
#
# _framework density 21.19031
#
# number of rings (size 3 to 8) (size 9 to 14) (size 15 to 20)
#    0.000    1.667    3.333    2.000    2.333    0.000 
#    0.000    0.000    0.000    3.000    0.000    0.000 
#    0.000    0.000    0.000    0.000    0.000    0.000 
#
# Total GULP energy -133653.026150 kJ/mol
# GULP energy per Si atom -5568.876090 kJ/mol
# Density = 2.114208 g / cm^3
# Si number density = 21.190310 Si / 1000 Ang^3
#
#
#
# Elastic Constant Matrix: (Units=GPa)
#
#
# Indices 1 2 3 4 5 6 
#
# 1 26.0384 31.8264 25.2004 0.0000 0.0000 0.0000
# 2 31.8264 117.8830 34.2570 0.0000 0.0000 0.0000
# 3 25.2004 34.2570 89.7174 0.0000 0.0000 0.0000
# 4 0.0000 0.0000 0.0000 35.8325 0.0000 0.0000
# 5 0.0000 0.0000 0.0000 0.0000 16.1305 0.0000
# 6 0.0000 0.0000 0.0000 0.0000 0.0000 7.9682
#
#
#
# Elastic Compliance Matrix: (Units=1/GPa)
#
#
# Indices 1 2 3 4 5 6 
#
# 1 0.070148 -0.014862 -0.014029 0.000000 0.000000 0.000000
# 2 -0.014862 0.012690 -0.000671 0.000000 0.000000 0.000000
# 3 -0.014029 -0.000671 0.015343 0.000000 0.000000 0.000000
# 4 0.000000 0.000000 0.000000 0.027908 0.000000 0.000000
# 5 0.000000 0.000000 0.000000 0.000000 0.061994 0.000000
# 6 0.000000 0.000000 0.000000 0.000000 0.000000 0.125499
#
#
# Mechanical properties :
#
#
# Convention : Reuss Voigt Hill
#
# Bulk Modulus (GPa) = 25.60332 46.24514 35.92423
# Shear Modulus (GPa) = 12.96259 21.47656 17.21957
#
# Velocity S-wave (km/s) = 2.47599 3.18702 2.85373
# Velocity P-wave (km/s) = 4.50364 5.95096 5.27715
#
# Compressibility (1/GPa) = 0.03905744
#
# Stress axis : x y z
#
# Youngs Moduli (GPa) = 14.25561 78.79912 65.17685
#
# Poissons Ratio (x) = 1.17111 0.91435
# Poissons Ratio (y) = 0.21187 0.04374
# Poissons Ratio (z) = 0.19999 0.05288
#
# Static dielectric constant tensor:
#      x y z
#    x 1.790720 0.000000 0.000000 
#    y 0.000000 1.808280 0.000000 
#    z 0.000000 0.000000 1.816470 
# 
# From -- ./inp_files/7315.got.cif
#   From: 2010.05.17/outbox.cif.g08.bks.cpg/sg41_4_cif.got.tgz:7315.got - 2010.06.03 18:54:24.
