data_PCOD9366962
_publ_section_title
;
Structure prediction by ZEFSAII (Michael W. Deem and Ramdas Pophale) SiO2 
 PCOD9366962
Probable space group: A B A 2
;
_chemical_formula_sum "Si O2"
_cell_formula_units_Z 60
_cell_length_a 10.957602
_cell_length_b 8.785659
_cell_length_c 27.991915
_cell_angle_alpha 90.000000
_cell_angle_beta 90.000000
_cell_angle_gamma 90.000000
_cell_volume 2694.774789
_symmetry_space_group_name_H-M "A B A 2"
_symmetry_group_IT_number 41
_symmetry_cell_setting 'orthorhombic'
loop_
_space_group_symop_operation_xyz
x,y,z
-x,-y,z
1/2-x,y,1/2+z
1/2+x,-y,1/2+z
x,1/2+y,1/2+z
-x,1/2-y,1/2+z
1/2-x,1/2+y,z
1/2+x,1/2-y,z
loop_
_atom_site_type_symbol
_atom_site_label
_atom_site_fract_x
_atom_site_fract_y
_atom_site_fract_z
Si Si1 0.328189 0.640337 0.707030
Si Si2 0.114613 0.907985 0.562420
Si Si3 0.000000 0.000000 0.874109
Si Si4 0.784636 0.879579 0.011047
Si Si5 0.303196 0.687393 0.818691
Si Si6 0.137532 0.481287 0.873377
Si Si7 0.840327 0.144730 0.945515
Si Si8 0.404205 0.811115 0.172092
O O1 0.299017 0.671577 0.762269
O O2 0.204468 0.689554 0.679581
O O3 0.357997 0.462568 0.699504
O O4 0.456200 0.721031 0.689847
O O5 0.139248 0.760295 0.530968
O O6 0.092100 0.857213 0.616478
O O7 0.222320 0.029775 0.554665
O O8 0.000000 0.000000 0.543822
O O9 0.103160 0.065600 0.840499
O O10 0.951932 0.132786 0.909041
O O11 0.690861 0.798609 0.973576
O O12 0.856736 0.009651 0.983520
O O13 0.183836 0.637816 0.848735
O O14 0.348878 0.854190 0.832238
O O15 0.223039 0.412678 0.914932
O O16 0.000000 0.500000 0.889591
#
# Coordination Sequence:
#
# PCOD9366962 Si02
#       8
#     8   8   4   8   8   8   8   8
#     4  11  24  44  72 101 140 175 235 276 343 408
#     4  11  23  44  68  94 133 172 219 279 347 397
#     4  10  22  36  66  88 138 168 222 272 328 392
#     4  10  24  41  64  96 125 169 227 277 329 411
#     4  11  25  43  66  99 133 184 226 275 331 400
#     4  11  26  42  68  95 139 181 228 278 335 402
#     4  10  22  41  61  97 129 175 222 273 338 384
#     4  11  24  45  71 103 136 182 218 294 343 413
#
# _framework density 22.265309999999999
#
# number of rings (size 3 to 8) (size 9 to 14) (size 15 to 20)
#    0.000    1.333    1.333    4.000    9.333    2.667 
#    0.000    0.000    0.000    0.000    0.000    0.000 
#    0.000    0.000    0.000    0.000    0.000    0.000 
#
# Total GULP energy -167661.314506 kJ/mol
# GULP energy per Si atom -5588.710484 kJ/mol
# Density = 2.221463 g / cm^3
# Si number density = 22.265310 Si / 1000 Ang^3
#
#
#
# Elastic Constant Matrix: (Units=GPa)
#
#
# Indices 1 2 3 4 5 6 
#
# 1 94.5500 -11.8935 8.8945 0.0000 0.0000 0.0000
# 2 -11.8935 62.0566 -5.3582 0.0000 0.0000 0.0000
# 3 8.8945 -5.3582 76.6920 0.0000 0.0000 0.0000
# 4 0.0000 0.0000 0.0000 18.6439 0.0000 0.0000
# 5 0.0000 0.0000 0.0000 0.0000 8.3073 0.0000
# 6 0.0000 0.0000 0.0000 0.0000 0.0000 24.6727
#
#
#
# Elastic Compliance Matrix: (Units=1/GPa)
#
#
# Indices 1 2 3 4 5 6 
#
# 1 0.010934 0.001998 -0.001128 0.000000 0.000000 0.000000
# 2 0.001998 0.016577 0.000926 0.000000 0.000000 0.000000
# 3 -0.001128 0.000926 0.013235 0.000000 0.000000 0.000000
# 4 0.000000 0.000000 0.000000 0.053637 0.000000 0.000000
# 5 0.000000 0.000000 0.000000 0.000000 0.120377 0.000000
# 6 0.000000 0.000000 0.000000 0.000000 0.000000 0.040531
#
#
# Mechanical properties :
#
#
# Convention : Reuss Voigt Hill
#
# Bulk Modulus (GPa) = 22.55395 24.06491 23.30943
# Shear Modulus (GPa) = 18.76334 26.43517 22.59925
#
# Velocity S-wave (km/s) = 2.90611 3.44943 3.18936
# Velocity P-wave (km/s) = 4.62734 5.16686 4.90452
#
# Compressibility (1/GPa) = 0.04433814
#
# Stress axis : x y z
#
# Youngs Moduli (GPa) = 91.45854 60.32354 75.55849
#
# Poissons Ratio (x) = -0.12053 0.08527
# Poissons Ratio (y) = -0.18274 -0.07000
# Poissons Ratio (z) = 0.10321 -0.05589
#
# Static dielectric constant tensor:
#      x y z
#    x 1.893880 0.000000 0.000000 
#    y 0.000000 1.832120 0.000000 
#    z 0.000000 0.000000 1.796970 
# 
# From -- ./inp_files/12706.got.cif
#   From: 2010.05.17/outbox.cif.g08.bks.cpg/sg41_7_cif.got.tgz:12706.got - 2010.06.03 18:54:24.
