data_PCOD9366240
_publ_section_title
;
Structure prediction by ZEFSAII (Michael W. Deem and Ramdas Pophale) SiO2 
 PCOD9366240
Probable space group: A B A 2
;
_chemical_formula_sum "Si O2"
_cell_formula_units_Z 56
_cell_length_a 8.603250
_cell_length_b 13.360489
_cell_length_c 22.187887
_cell_angle_alpha 90.000000
_cell_angle_beta 90.000000
_cell_angle_gamma 90.000000
_cell_volume 2550.356207
_symmetry_space_group_name_H-M "A B A 2"
_symmetry_group_IT_number 41
_symmetry_cell_setting 'orthorhombic'
loop_
_space_group_symop_operation_xyz
x,y,z
-x,-y,z
1/2-x,y,1/2+z
1/2+x,-y,1/2+z
x,1/2+y,1/2+z
-x,1/2-y,1/2+z
1/2-x,1/2+y,z
1/2+x,1/2-y,z
loop_
_atom_site_type_symbol
_atom_site_label
_atom_site_fract_x
_atom_site_fract_y
_atom_site_fract_z
Si Si1 0.250000 0.250000 0.973370
Si Si2 0.672951 0.621631 0.744715
Si Si3 0.172952 0.121631 0.744715
Si Si4 0.500000 0.380250 0.186623
Si Si5 1.000000 0.880220 0.043021
Si Si6 0.670614 0.116396 0.864048
Si Si7 0.329386 0.616396 0.364048
O O1 0.168444 0.323275 0.925504
O O2 0.331556 0.176724 0.925504
O O3 0.144647 0.178334 0.013860
O O4 0.355353 0.321666 0.013860
O O5 0.500000 0.653607 0.724353
O O6 0.672699 0.500000 0.740579
O O7 0.699601 0.646030 0.815407
O O8 0.831767 0.655047 0.711770
O O9 0.331768 0.155047 0.711770
O O10 0.199601 0.146030 0.815407
O O11 0.500000 0.500000 0.199009
O O12 0.500000 0.367128 0.114742
O O13 0.000000 0.000000 0.029773
O O14 0.500000 0.124721 0.834393
O O15 0.695939 1.000000 0.878023
#
# Coordination Sequence:
#
# PCOD9366240 Si02
#       7
#     8   8   8   8   8   8   8
#     4  12  24  44  64  96 138 180 236 282 338 414
#     4   9  17  32  62 100 131 171 223 277 350 421
#     4   9  17  32  62 100 131 171 223 277 350 421
#     4   9  18  39  64  91 133 176 224 283 341 404
#     4  11  26  47  71  97 137 188 235 289 340 404
#     4  10  20  37  63  95 134 175 218 280 351 412
#     4  10  20  37  63  95 134 175 218 280 351 412
#
# _framework density 21.957718
#
# number of rings (size 3 to 8) (size 9 to 14) (size 15 to 20)
#    0.000    2.000    2.857    0.857    2.000    0.000 
#    2.571    1.429    0.000    0.000    0.000    0.000 
#    0.000    0.000    0.000    0.000    0.000    0.000 
#
# Total GULP energy -156303.876825 kJ/mol
# GULP energy per Si atom -5582.281315 kJ/mol
# Density = 2.190774 g / cm^3
# Si number density = 21.957718 Si / 1000 Ang^3
#
#
#
# Elastic Constant Matrix: (Units=GPa)
#
#
# Indices 1 2 3 4 5 6 
#
# 1 192.7481 74.2445 95.6106 0.0000 0.0000 0.0000
# 2 74.2445 125.2242 42.9716 0.0000 0.0000 0.0000
# 3 95.6106 42.9716 112.3501 0.0000 0.0000 0.0000
# 4 0.0000 0.0000 0.0000 -47.6912 0.0000 0.0000
# 5 0.0000 0.0000 0.0000 0.0000 30.1967 0.0000
# 6 0.0000 0.0000 0.0000 0.0000 0.0000 41.1311
#
#
#
# Elastic Compliance Matrix: (Units=1/GPa)
#
#
# Indices 1 2 3 4 5 6 
#
# 1 0.010169 -0.003522 -0.007307 0.000000 0.000000 0.000000
# 2 -0.003522 0.010412 -0.000985 0.000000 0.000000 0.000000
# 3 -0.007307 -0.000985 0.015496 0.000000 0.000000 0.000000
# 4 0.000000 0.000000 0.000000 -0.020968 0.000000 0.000000
# 5 0.000000 0.000000 0.000000 0.000000 0.033116 0.000000
# 6 0.000000 0.000000 0.000000 0.000000 0.000000 0.024312
#
#
# Mechanical properties :
#
#
# Convention : Reuss Voigt Hill
#
# Bulk Modulus (GPa) = 80.32904 95.10841 87.71872
# Shear Modulus (GPa) = 49.84282 19.22705 34.53494
#
# Velocity S-wave (km/s) = 4.76956 2.96233 3.97015
# Velocity P-wave (km/s) = 8.18502 7.42354 7.81356
#
# Compressibility (1/GPa) = 0.01244880
#
# Stress axis : x y z
#
# Youngs Moduli (GPa) = 98.33527 96.04469 64.53293
#
# Poissons Ratio (x) = 0.33825 0.47155
# Poissons Ratio (y) = 0.34632 0.06358
# Poissons Ratio (z) = 0.71855 0.09463
#
# Static dielectric constant tensor:
#      x y z
#    x 1.846310 0.000000 0.000000 
#    y 0.000000 1.844770 0.000000 
#    z 0.000000 0.000000 1.738720 
# 
# From -- ./inp_files/11218.got.cif
#   From: 2010.05.17/outbox.cif.g08.bks.cpg/sg41_6_cif.got.tgz:11218.got - 2010.06.03 18:54:24.
