data_PCOD9366843
_publ_section_title
;
Structure prediction by ZEFSAII (Michael W. Deem and Ramdas Pophale) SiO2 
 PCOD9366843
Probable space group: A B A 2
;
_chemical_formula_sum "Si O2"
_cell_formula_units_Z 44
_cell_length_a 9.483094
_cell_length_b 17.487277
_cell_length_c 10.689069
_cell_angle_alpha 90.000000
_cell_angle_beta 90.000000
_cell_angle_gamma 90.000000
_cell_volume 1772.605634
_symmetry_space_group_name_H-M "A B A 2"
_symmetry_group_IT_number 41
_symmetry_cell_setting 'orthorhombic'
loop_
_space_group_symop_operation_xyz
x,y,z
-x,-y,z
1/2-x,y,1/2+z
1/2+x,-y,1/2+z
x,1/2+y,1/2+z
-x,1/2-y,1/2+z
1/2-x,1/2+y,z
1/2+x,1/2-y,z
loop_
_atom_site_type_symbol
_atom_site_label
_atom_site_fract_x
_atom_site_fract_y
_atom_site_fract_z
Si Si1 0.180635 0.033427 0.513830
Si Si2 0.071902 0.627331 0.587565
Si Si3 0.500000 0.000000 0.775916
Si Si4 0.494657 0.756765 0.911082
Si Si5 0.406266 0.878707 0.105392
Si Si6 0.734491 0.754054 0.752921
O O1 0.332159 0.070389 0.508911
O O2 0.124711 0.016598 0.374546
O O3 0.064333 0.083312 0.593143
O O4 0.189028 0.952166 0.582199
O O5 0.986751 0.681725 0.495381
O O6 0.183843 0.684633 0.652602
O O7 0.993398 0.575677 0.690120
O O8 0.650662 0.782126 0.875580
O O9 0.398642 0.746438 0.786550
O O10 0.413336 0.820681 0.988935
O O11 0.336556 0.827062 0.214429
#
# Coordination Sequence:
#
# PCOD9366843 Si02
#       6
#     8   8   4   8   8   8
#     4  10  21  42  63  94 131 167 213 273 335 398
#     4  11  23  40  65  91 127 174 220 267 336 396
#     4  10  22  40  64  92 126 168 212 270 328 382
#     4  11  23  40  62  92 126 170 222 267 321 394
#     4   9  21  37  62  90 123 164 213 264 326 391
#     4  11  23  41  64  91 128 171 216 274 326 384
#
# _framework density 24.822215
#
# number of rings (size 3 to 8) (size 9 to 14) (size 15 to 20)
#    0.000    1.818    0.000    5.455    0.000   10.182 
#    0.000    5.455    0.000    0.000    0.000    0.000 
#    0.000    0.000    0.000    0.000    0.000    0.000 
#
# Total GULP energy -122978.378212 kJ/mol
# GULP energy per Si atom -5589.926282 kJ/mol
# Density = 2.476572 g / cm^3
# Si number density = 24.822215 Si / 1000 Ang^3
#
#
#
# Elastic Constant Matrix: (Units=GPa)
#
#
# Indices 1 2 3 4 5 6 
#
# 1 72.0496 17.1205 23.2333 0.0000 0.0000 0.0000
# 2 17.1205 119.5258 32.5798 0.0000 0.0000 0.0000
# 3 23.2333 32.5798 79.2208 0.0000 0.0000 0.0000
# 4 0.0000 0.0000 0.0000 40.5457 0.0000 0.0000
# 5 0.0000 0.0000 0.0000 0.0000 19.5450 0.0000
# 6 0.0000 0.0000 0.0000 0.0000 0.0000 30.4778
#
#
#
# Elastic Compliance Matrix: (Units=1/GPa)
#
#
# Indices 1 2 3 4 5 6 
#
# 1 0.015457 -0.001102 -0.004080 0.000000 0.000000 0.000000
# 2 -0.001102 0.009501 -0.003584 0.000000 0.000000 0.000000
# 3 -0.004080 -0.003584 0.015294 0.000000 0.000000 0.000000
# 4 0.000000 0.000000 0.000000 0.024664 0.000000 0.000000
# 5 0.000000 0.000000 0.000000 0.000000 0.051164 0.000000
# 6 0.000000 0.000000 0.000000 0.000000 0.000000 0.032811
#
#
# Mechanical properties :
#
#
# Convention : Reuss Voigt Hill
#
# Bulk Modulus (GPa) = 44.01523 46.29593 45.15558
# Shear Modulus (GPa) = 28.73644 31.30452 30.02048
#
# Velocity S-wave (km/s) = 3.40618 3.55512 3.48144
# Velocity P-wave (km/s) = 5.76542 5.96182 5.86444
#
# Compressibility (1/GPa) = 0.02271941
#
# Stress axis : x y z
#
# Youngs Moduli (GPa) = 64.69652 105.24976 65.38719
#
# Poissons Ratio (x) = 0.11597 0.26677
# Poissons Ratio (y) = 0.07129 0.23436
# Poissons Ratio (z) = 0.26396 0.37724
#
# Static dielectric constant tensor:
#      x y z
#    x 1.949070 0.000000 0.000000 
#    y 0.000000 1.971460 0.000000 
#    z 0.000000 0.000000 1.989230 
# 
# From -- ./inp_files/4931.got.cif
#   From: 2010.05.17/outbox.cif.g08.bks.cpg/sg41_3_cif.got.tgz:4931.got - 2010.06.03 18:54:24.
