data_PCOD9366616
_publ_section_title
;
Structure prediction by ZEFSAII (Michael W. Deem and Ramdas Pophale) SiO2 
 PCOD9366616
Probable space group: A B A 2
;
_chemical_formula_sum "Si O2"
_cell_formula_units_Z 60
_cell_length_a 28.341317
_cell_length_b 15.696534
_cell_length_c 5.781349
_cell_angle_alpha 90.000000
_cell_angle_beta 90.000000
_cell_angle_gamma 90.000000
_cell_volume 2571.893494
_symmetry_space_group_name_H-M "A B A 2"
_symmetry_group_IT_number 41
_symmetry_cell_setting 'orthorhombic'
loop_
_space_group_symop_operation_xyz
x,y,z
-x,-y,z
1/2-x,y,1/2+z
1/2+x,-y,1/2+z
x,1/2+y,1/2+z
-x,1/2-y,1/2+z
1/2-x,1/2+y,z
1/2+x,1/2-y,z
loop_
_atom_site_type_symbol
_atom_site_label
_atom_site_fract_x
_atom_site_fract_y
_atom_site_fract_z
Si Si1 0.628848 0.124836 0.921870
Si Si2 0.233665 0.549090 0.174766
Si Si3 0.375537 0.050745 0.204549
Si Si4 0.452884 0.285252 0.660366
Si Si5 0.268236 0.346906 0.609402
Si Si6 0.448229 0.657688 0.515688
Si Si7 0.921423 0.074421 0.028605
Si Si8 0.500000 0.000000 0.855169
O O1 0.625696 0.112624 0.647579
O O2 0.583963 0.185759 0.967144
O O3 0.676308 0.157187 0.040735
O O4 0.621248 0.028576 0.021051
O O5 0.260242 0.582083 0.407941
O O6 0.179416 0.559932 0.245769
O O7 0.244488 0.447818 0.140725
O O8 0.404669 0.013156 0.417043
O O9 0.398890 0.139819 0.133909
O O10 0.508774 0.286418 0.613407
O O11 0.439995 0.194043 0.761559
O O12 0.441230 0.357459 0.850014
O O13 0.242956 0.313116 0.371113
O O14 0.471437 0.564980 0.509917
O O15 0.963528 0.052505 0.201706
#
# Coordination Sequence:
#
# PCOD9366616 Si02
#       8
#     8   8   8   8   8   8   8   4
#     4  10  21  38  61  91 123 166 209 266 323 384
#     4   9  19  33  57  91 130 160 207 274 339 390
#     4  10  22  36  62  91 121 163 219 264 323 395
#     4  11  25  40  59  87 130 166 213 261 325 399
#     4   9  19  32  57  92 127 162 212 269 329 388
#     4  12  23  43  60  91 125 169 218 262 331 393
#     4  11  21  38  60  88 124 164 210 268 322 387
#     4  12  20  38  64  84 122 164 216 266 314 382
#
# _framework density 23.329115000000002
#
# number of rings (size 3 to 8) (size 9 to 14) (size 15 to 20)
#    0.000    1.600    2.667    2.400   11.200    0.000 
#    0.000    0.000    0.000    1.600    0.000    0.000 
#    0.000    0.000    0.000    0.000    0.000    0.000 
#
# Total GULP energy -167316.245696 kJ/mol
# GULP energy per Si atom -5577.208190 kJ/mol
# Density = 2.327602 g / cm^3
# Si number density = 23.329115 Si / 1000 Ang^3
#
#
#
# Elastic Constant Matrix: (Units=GPa)
#
#
# Indices 1 2 3 4 5 6 
#
# 1 84.2930 7.3683 20.5312 0.0000 0.0000 0.0000
# 2 7.3683 40.4016 0.2507 0.0000 0.0000 0.0000
# 3 20.5312 0.2507 78.9677 0.0000 0.0000 0.0000
# 4 0.0000 0.0000 0.0000 29.6240 0.0000 0.0000
# 5 0.0000 0.0000 0.0000 0.0000 25.8844 0.0000
# 6 0.0000 0.0000 0.0000 0.0000 0.0000 5.6458
#
#
#
# Elastic Compliance Matrix: (Units=1/GPa)
#
#
# Indices 1 2 3 4 5 6 
#
# 1 0.012881 -0.002328 -0.003342 0.000000 0.000000 0.000000
# 2 -0.002328 0.025173 0.000525 0.000000 0.000000 0.000000
# 3 -0.003342 0.000525 0.013531 0.000000 0.000000 0.000000
# 4 0.000000 0.000000 0.000000 0.033756 0.000000 0.000000
# 5 0.000000 0.000000 0.000000 0.000000 0.038633 0.000000
# 6 0.000000 0.000000 0.000000 0.000000 0.000000 0.177122
#
#
# Mechanical properties :
#
#
# Convention : Reuss Voigt Hill
#
# Bulk Modulus (GPa) = 24.21589 28.88475 26.55032
# Shear Modulus (GPa) = 15.37752 23.93164 19.65458
#
# Velocity S-wave (km/s) = 2.57019 3.20633 2.90572
# Velocity P-wave (km/s) = 4.38298 5.11035 4.76058
#
# Compressibility (1/GPa) = 0.04129521
#
# Stress axis : x y z
#
# Youngs Moduli (GPa) = 77.63482 39.72523 73.90696
#
# Poissons Ratio (x) = 0.09250 0.24696
# Poissons Ratio (y) = 0.18077 -0.03884
# Poissons Ratio (z) = 0.25942 -0.02087
#
# Static dielectric constant tensor:
#      x y z
#    x 1.878080 0.000000 0.000000 
#    y 0.000000 1.890050 0.000000 
#    z 0.000000 0.000000 1.968950 
# 
# From -- ./inp_files/1211.got.cif
#   From: 2010.05.17/outbox.cif.g08.bks.cpg/sg41_1_cif.got.tgz:1211.got - 2010.06.03 18:54:24.
