data_PCOD9366449
_publ_section_title
;
Structure prediction by ZEFSAII (Michael W. Deem and Ramdas Pophale) SiO2 
 PCOD9366449
Probable space group: A B A 2
;
_chemical_formula_sum "Si O2"
_cell_formula_units_Z 64
_cell_length_a 11.249034
_cell_length_b 16.110909
_cell_length_c 14.915884
_cell_angle_alpha 90.000000
_cell_angle_beta 90.000000
_cell_angle_gamma 90.000000
_cell_volume 2703.237922
_symmetry_space_group_name_H-M "A B A 2"
_symmetry_group_IT_number 41
_symmetry_cell_setting 'orthorhombic'
loop_
_space_group_symop_operation_xyz
x,y,z
-x,-y,z
1/2-x,y,1/2+z
1/2+x,-y,1/2+z
x,1/2+y,1/2+z
-x,1/2-y,1/2+z
1/2-x,1/2+y,z
1/2+x,1/2-y,z
loop_
_atom_site_type_symbol
_atom_site_label
_atom_site_fract_x
_atom_site_fract_y
_atom_site_fract_z
Si Si1 0.227142 0.432455 0.321620
Si Si2 0.189431 0.149444 0.998926
Si Si3 0.995708 0.091445 0.323691
Si Si4 0.771803 0.538450 0.521391
Si Si5 0.567617 0.087850 0.151325
Si Si6 0.740031 0.367482 0.313867
Si Si7 0.525772 0.613425 0.126612
Si Si8 0.851611 0.285128 0.141654
O O1 0.356826 0.389401 0.324463
O O2 0.187331 0.427246 0.424926
O O3 0.142167 0.399135 0.243528
O O4 0.242413 0.532350 0.302574
O O5 0.273069 0.211783 0.052098
O O6 0.067065 0.141141 0.052006
O O7 0.251972 0.058945 0.008837
O O8 0.174554 0.163115 0.893719
O O9 0.031964 0.084670 0.218926
O O10 0.106499 0.146360 0.354137
O O11 0.000000 0.000000 0.367811
O O12 0.659316 0.581075 0.568398
O O13 0.882111 0.547593 0.587950
O O14 0.468033 0.156936 0.137010
O O15 0.500000 0.000000 0.159931
O O16 0.771910 0.320389 0.223111
O O17 0.602805 0.693118 0.153518
#
# Coordination Sequence:
#
# PCOD9366449 Si02
#       8
#     8   8   8   8   8   8   8   8
#     4  10  22  39  71 108 129 169 238 288 338 402
#     4  11  24  46  70  99 132 179 233 284 341 412
#     4  10  20  41  70  96 129 172 225 279 336 406
#     4  11  24  42  72 102 131 176 234 289 340 407
#     4  12  23  41  69  97 136 183 222 281 341 407
#     4  10  22  43  71  98 133 177 226 286 345 402
#     4  12  26  43  68  97 138 180 224 285 344 412
#     4  12  27  45  63  98 143 180 226 277 350 417
#
# _framework density 23.675312000000002
#
# number of rings (size 3 to 8) (size 9 to 14) (size 15 to 20)
#    0.000    1.000    5.000    1.125    5.250    0.500 
#    4.500    0.000    0.000    0.000    0.000    0.000 
#    0.000    0.000    0.000    0.000    0.000    0.000 
#
# Total GULP energy -178955.114847 kJ/mol
# GULP energy per Si atom -5592.347339 kJ/mol
# Density = 2.362143 g / cm^3
# Si number density = 23.675312 Si / 1000 Ang^3
#
#
#
# Elastic Constant Matrix: (Units=GPa)
#
#
# Indices 1 2 3 4 5 6 
#
# 1 69.5251 -1.1200 -2.3325 0.0000 0.0000 0.0000
# 2 -1.1200 37.1450 -0.3861 0.0000 0.0000 0.0000
# 3 -2.3325 -0.3861 69.1544 0.0000 0.0000 0.0000
# 4 0.0000 0.0000 0.0000 7.1839 0.0000 0.0000
# 5 0.0000 0.0000 0.0000 0.0000 27.5154 0.0000
# 6 0.0000 0.0000 0.0000 0.0000 0.0000 17.7582
#
#
#
# Elastic Compliance Matrix: (Units=1/GPa)
#
#
# Indices 1 2 3 4 5 6 
#
# 1 0.014407 0.000439 0.000488 0.000000 0.000000 0.000000
# 2 0.000439 0.026937 0.000165 0.000000 0.000000 0.000000
# 3 0.000488 0.000165 0.014478 0.000000 0.000000 0.000000
# 4 0.000000 0.000000 0.000000 0.139200 0.000000 0.000000
# 5 0.000000 0.000000 0.000000 0.000000 0.036343 0.000000
# 6 0.000000 0.000000 0.000000 0.000000 0.000000 0.056312
#
#
# Mechanical properties :
#
#
# Convention : Reuss Voigt Hill
#
# Bulk Modulus (GPa) = 17.23924 18.68303 17.96114
# Shear Modulus (GPa) = 16.40279 22.46904 19.43591
#
# Velocity S-wave (km/s) = 2.63501 3.08401 2.86831
# Velocity P-wave (km/s) = 4.06879 4.53761 4.30958
#
# Compressibility (1/GPa) = 0.05800719
#
# Stress axis : x y z
#
# Youngs Moduli (GPa) = 69.41183 37.12434 69.07136
#
# Poissons Ratio (x) = -0.01632 -0.03373
# Poissons Ratio (y) = -0.03050 -0.01141
# Poissons Ratio (z) = -0.03390 -0.00613
#
# Static dielectric constant tensor:
#      x y z
#    x 1.942030 0.000000 0.000000 
#    y 0.000000 1.919310 0.000000 
#    z 0.000000 0.000000 1.903400 
# 
# From -- ./inp_files/8115.got.cif
#   From: 2010.05.17/outbox.cif.g08.bks.cpg/sg41_5_cif.got.tgz:8115.got - 2010.06.03 18:54:24.
