data_PCOD9366028
_publ_section_title
;
Structure prediction by ZEFSAII (Michael W. Deem and Ramdas Pophale) SiO2 
 PCOD9366028
Probable space group: A B A 2
;
_chemical_formula_sum "Si O2"
_cell_formula_units_Z 48
_cell_length_a 13.106225
_cell_length_b 13.240545
_cell_length_c 11.749332
_cell_angle_alpha 90.000000
_cell_angle_beta 90.000000
_cell_angle_gamma 90.000000
_cell_volume 2038.903432
_symmetry_space_group_name_H-M "A B A 2"
_symmetry_group_IT_number 41
_symmetry_cell_setting 'orthorhombic'
loop_
_space_group_symop_operation_xyz
x,y,z
-x,-y,z
1/2-x,y,1/2+z
1/2+x,-y,1/2+z
x,1/2+y,1/2+z
-x,1/2-y,1/2+z
1/2-x,1/2+y,z
1/2+x,1/2-y,z
loop_
_atom_site_type_symbol
_atom_site_label
_atom_site_fract_x
_atom_site_fract_y
_atom_site_fract_z
Si Si1 0.189683 0.976975 0.935540
Si Si2 0.094240 0.078042 0.512319
Si Si3 0.798786 0.713952 0.914984
Si Si4 0.701148 0.392566 0.734871
Si Si5 0.103940 0.637222 0.589750
Si Si6 0.486934 0.380578 0.297396
O O1 0.174901 0.006175 0.803707
O O2 0.203847 0.857025 0.948633
O O3 0.299556 0.022606 0.977748
O O4 0.105198 0.042733 0.002658
O O5 0.121815 0.127345 0.633141
O O6 0.060471 0.146532 0.404901
O O7 0.000000 0.000000 0.527509
O O8 0.786366 0.806366 0.828845
O O9 0.876199 0.644308 0.844054
O O10 0.853473 0.764972 0.023607
O O11 0.810811 0.399637 0.678423
O O12 0.010921 0.662386 0.672927
O O13 0.500000 0.500000 0.283309
#
# Coordination Sequence:
#
# PCOD9366028 Si02
#       6
#     8   8   8   8   8   8
#     4  10  20  42  62  86 121 166 207 253 310 385
#     4  10  19  37  64  85 118 170 203 247 315 371
#     4  11  23  38  63  95 121 164 213 259 323 368
#     4  10  22  39  64  89 126 160 212 263 309 373
#     4  10  23  40  63  91 124 166 213 261 310 381
#     4  11  21  40  62  86 128 171 207 255 320 376
#
# _framework density 23.542065999999998
#
# number of rings (size 3 to 8) (size 9 to 14) (size 15 to 20)
#    0.000    1.667    5.000    0.000    2.333    4.000 
#    0.000    5.000    0.000    0.000    0.000    0.000 
#    0.000    0.000    0.000    0.000    0.000    0.000 
#
# Total GULP energy -133897.067227 kJ/mol
# GULP energy per Si atom -5579.044468 kJ/mol
# Density = 2.348848 g / cm^3
# Si number density = 23.542066 Si / 1000 Ang^3
#
#
#
# Elastic Constant Matrix: (Units=GPa)
#
#
# Indices 1 2 3 4 5 6 
#
# 1 46.1215 6.3860 4.9917 0.0000 0.0000 0.0000
# 2 6.3860 98.7088 34.6102 0.0000 0.0000 0.0000
# 3 4.9917 34.6102 120.8417 0.0000 0.0000 0.0000
# 4 0.0000 0.0000 0.0000 3.5822 0.0000 0.0000
# 5 0.0000 0.0000 0.0000 0.0000 -20.0295 0.0000
# 6 0.0000 0.0000 0.0000 0.0000 0.0000 24.2798
#
#
#
# Elastic Compliance Matrix: (Units=1/GPa)
#
#
# Indices 1 2 3 4 5 6 
#
# 1 0.021911 -0.001223 -0.000555 0.000000 0.000000 0.000000
# 2 -0.001223 0.011330 -0.003195 0.000000 0.000000 0.000000
# 3 -0.000555 -0.003195 0.009213 0.000000 0.000000 0.000000
# 4 0.000000 0.000000 0.000000 0.279158 0.000000 0.000000
# 5 0.000000 0.000000 0.000000 0.000000 -0.049926 0.000000
# 6 0.000000 0.000000 0.000000 0.000000 0.000000 0.041186
#
#
# Mechanical properties :
#
#
# Convention : Reuss Voigt Hill
#
# Bulk Modulus (GPa) = 30.76003 39.73864 35.24933
# Shear Modulus (GPa) = 14.98559 16.21211 15.59885
#
# Velocity S-wave (km/s) = 2.52572 2.62705 2.57688
# Velocity P-wave (km/s) = 4.64758 5.11061 4.88459
#
# Compressibility (1/GPa) = 0.03250973
#
# Stress axis : x y z
#
# Youngs Moduli (GPa) = 45.63868 88.26112 108.54060
#
# Poissons Ratio (x) = 0.10794 0.06022
# Poissons Ratio (y) = 0.05582 0.34673
# Poissons Ratio (z) = 0.02532 0.28195
#
# Static dielectric constant tensor:
#      x y z
#    x 1.978440 0.000000 0.000000 
#    y 0.000000 1.943320 0.000000 
#    z 0.000000 0.000000 1.964360 
# 
# From -- ./inp_files/5526.got.cif
#   From: 2010.05.17/outbox.cif.g08.bks.cpg/sg41_3_cif.got.tgz:5526.got - 2010.06.03 18:54:24.
