data_PCOD9366171
_publ_section_title
;
Structure prediction by ZEFSAII (Michael W. Deem and Ramdas Pophale) SiO2 
 PCOD9366171
Probable space group: A B A 2
;
_chemical_formula_sum "Si O2"
_cell_formula_units_Z 64
_cell_length_a 19.964462
_cell_length_b 20.791909
_cell_length_c 8.726097
_cell_angle_alpha 90.000000
_cell_angle_beta 90.000000
_cell_angle_gamma 90.000000
_cell_volume 3622.196557
_symmetry_space_group_name_H-M "A B A 2"
_symmetry_group_IT_number 41
_symmetry_cell_setting 'orthorhombic'
loop_
_space_group_symop_operation_xyz
x,y,z
-x,-y,z
1/2-x,y,1/2+z
1/2+x,-y,1/2+z
x,1/2+y,1/2+z
-x,1/2-y,1/2+z
1/2-x,1/2+y,z
1/2+x,1/2-y,z
loop_
_atom_site_type_symbol
_atom_site_label
_atom_site_fract_x
_atom_site_fract_y
_atom_site_fract_z
Si Si1 0.079237 0.321886 0.223550
Si Si2 0.579236 0.678114 0.358307
Si Si3 0.323977 0.928955 0.723588
Si Si4 0.323977 0.428955 0.858270
Si Si5 0.176123 0.567469 0.225131
Si Si6 0.577008 0.816929 0.856877
Si Si7 0.922992 0.316929 0.224980
Si Si8 0.176123 0.567469 0.856727
O O1 0.125307 0.373927 0.305739
O O2 0.096561 0.249566 0.275959
O O3 0.000634 0.331258 0.262704
O O4 0.086839 0.328031 0.040928
O O5 0.625307 0.626073 0.276118
O O6 0.500634 0.668743 0.319153
O O7 0.596560 0.750434 0.305898
O O8 0.319870 0.932394 0.540929
O O9 0.250000 0.915854 0.790929
O O10 0.345079 0.998430 0.789920
O O11 0.345079 0.498430 0.791937
O O12 0.124948 0.624099 0.266658
O O13 0.250000 0.581089 0.290929
O O14 0.179613 0.562911 0.040929
O O15 0.624948 0.875901 0.815199
O O16 0.580793 0.807612 0.040929
#
# Coordination Sequence:
#
# PCOD9366171 Si02
#       8
#     8   8   8   8   8   8   8   8
#     4  10  20  36  57  80 108 142 180 222 267 315
#     4  10  20  36  57  80 108 142 180 222 267 315
#     4  11  22  37  56  79 108 140 178 221 267 319
#     4  11  22  37  56  79 108 140 178 221 267 319
#     4  10  20  36  56  79 108 140 177 219 265 316
#     4   9  20  37  56  79 109 144 180 220 266 318
#     4   9  20  37  56  79 109 144 180 220 266 318
#     4  10  20  36  56  79 108 140 177 219 265 316
#
# _framework density 17.668837
#
# number of rings (size 3 to 8) (size 9 to 14) (size 15 to 20)
#    0.000    2.000    0.000    5.250    0.000    5.000 
#    0.000    7.500    0.000    0.000    0.000    0.000 
#    0.000    0.000    0.000    0.000    0.000    0.000 
#
# Total GULP energy -178717.216789 kJ/mol
# GULP energy per Si atom -5584.913025 kJ/mol
# Density = 1.762862 g / cm^3
# Si number density = 17.668837 Si / 1000 Ang^3
#
#
#
# Elastic Constant Matrix: (Units=GPa)
#
#
# Indices 1 2 3 4 5 6 
#
# 1 84.8421 110.9176 56.6348 0.0000 0.0000 0.0000
# 2 110.9176 172.5861 80.6008 0.0000 0.0000 0.0000
# 3 56.6348 80.6008 93.7733 0.0000 0.0000 0.0000
# 4 0.0000 0.0000 0.0000 36.2751 0.0000 0.0000
# 5 0.0000 0.0000 0.0000 0.0000 27.6927 0.0000
# 6 0.0000 0.0000 0.0000 0.0000 0.0000 41.1154
#
#
#
# Elastic Compliance Matrix: (Units=1/GPa)
#
#
# Indices 1 2 3 4 5 6 
#
# 1 0.076096 -0.045845 -0.006554 0.000000 0.000000 0.000000
# 2 -0.045845 0.037299 -0.004372 0.000000 0.000000 0.000000
# 3 -0.006554 -0.004372 0.018380 0.000000 0.000000 0.000000
# 4 0.000000 0.000000 0.000000 0.027567 0.000000 0.000000
# 5 0.000000 0.000000 0.000000 0.000000 0.036111 0.000000
# 6 0.000000 0.000000 0.000000 0.000000 0.000000 0.024322
#
#
# Mechanical properties :
#
#
# Convention : Reuss Voigt Hill
#
# Bulk Modulus (GPa) = 54.83991 94.16754 74.50372
# Shear Modulus (GPa) = 14.73215 27.88652 21.30933
#
# Velocity S-wave (km/s) = 2.89068 3.97708 3.47658
# Velocity P-wave (km/s) = 6.49972 8.63140 7.64027
#
# Compressibility (1/GPa) = 0.01823490
#
# Stress axis : x y z
#
# Youngs Moduli (GPa) = 13.14126 26.81006 54.40749
#
# Poissons Ratio (x) = 1.22910 0.35657
# Poissons Ratio (y) = 0.60246 0.23786
# Poissons Ratio (z) = 0.08612 0.11721
#
# Static dielectric constant tensor:
#      x y z
#    x 1.583500 0.000000 0.000000 
#    y 0.000000 1.573890 0.000000 
#    z 0.000000 0.000000 1.592880 
# 
# From -- ./inp_files/3534.got.cif
#   From: 2010.05.17/outbox.cif.g08.bks.cpg/sg41_2_cif.got.tgz:3534.got - 2010.06.03 18:54:24.
