data_PCOD9366853
_publ_section_title
;
Structure prediction by ZEFSAII (Michael W. Deem and Ramdas Pophale) SiO2 
 PCOD9366853
Probable space group: A B A 2
;
_chemical_formula_sum "Si O2"
_cell_formula_units_Z 56
_cell_length_a 15.216634
_cell_length_b 13.566919
_cell_length_c 13.163215
_cell_angle_alpha 90.000000
_cell_angle_beta 90.000000
_cell_angle_gamma 90.000000
_cell_volume 2717.451500
_symmetry_space_group_name_H-M "A B A 2"
_symmetry_group_IT_number 41
_symmetry_cell_setting 'orthorhombic'
loop_
_space_group_symop_operation_xyz
x,y,z
-x,-y,z
1/2-x,y,1/2+z
1/2+x,-y,1/2+z
x,1/2+y,1/2+z
-x,1/2-y,1/2+z
1/2-x,1/2+y,z
1/2+x,1/2-y,z
loop_
_atom_site_type_symbol
_atom_site_label
_atom_site_fract_x
_atom_site_fract_y
_atom_site_fract_z
Si Si1 0.500000 0.000000 0.580130
Si Si2 0.000000 0.000000 0.741530
Si Si3 0.870157 0.974449 0.903491
Si Si4 0.330202 0.092808 0.881249
Si Si5 0.383503 0.380786 0.429816
Si Si6 0.601247 0.673876 0.655123
Si Si7 0.196728 0.313615 0.351433
Si Si8 0.982752 0.358599 0.748860
O O1 0.420634 0.038942 0.509609
O O2 0.470520 0.915907 0.658038
O O3 0.063251 0.061180 0.816625
O O4 0.062212 0.933216 0.675299
O O5 0.860126 0.093061 0.889166
O O6 0.773979 0.930079 0.884823
O O7 0.334003 0.210750 0.902377
O O8 0.387901 0.091257 0.776970
O O9 0.370956 0.999985 0.943386
O O10 0.388780 0.322033 0.535237
O O11 0.295903 0.340439 0.376782
O O12 0.463801 0.362709 0.353416
O O13 0.684823 0.689287 0.728953
O O14 0.535194 0.751736 0.704503
#
# Coordination Sequence:
#
# PCOD9366853 Si02
#       8
#     4   4   8   8   8   8   8   8
#     4  11  22  41  66  96 128 177 226 267 350 398
#     4   9  20  41  60  92 128 167 224 277 316 400
#     4   9  21  40  66  91 129 175 219 278 333 404
#     4  10  21  42  65  89 133 171 216 287 330 386
#     4  11  23  42  68  94 135 176 218 281 334 403
#     4  10  24  41  65  97 129 174 223 267 342 400
#     4   9  22  43  61  95 131 165 227 280 328 402
#     4  11  24  42  65  99 137 170 224 278 330 415
#
# _framework density 20.607543
#
# number of rings (size 3 to 8) (size 9 to 14) (size 15 to 20)
#    0.000    2.000    1.429    0.000    6.000    5.714 
#    5.143    0.000    0.000    0.000    0.000    0.000 
#    0.000    0.000    0.000    0.000    0.000    0.000 
#
# Total GULP energy -155894.840326 kJ/mol
# GULP energy per Si atom -5567.672869 kJ/mol
# Density = 2.056064 g / cm^3
# Si number density = 20.607543 Si / 1000 Ang^3
#
#
#
# Elastic Constant Matrix: (Units=GPa)
#
#
# Indices 1 2 3 4 5 6 
#
# 1 92.2887 9.4357 56.1093 0.0000 0.0000 0.0000
# 2 9.4357 90.9484 23.7661 0.0000 0.0000 0.0000
# 3 56.1093 23.7661 130.5239 0.0000 0.0000 0.0000
# 4 0.0000 0.0000 0.0000 16.1607 0.0000 0.0000
# 5 0.0000 0.0000 0.0000 0.0000 22.8931 0.0000
# 6 0.0000 0.0000 0.0000 0.0000 0.0000 23.7667
#
#
#
# Elastic Compliance Matrix: (Units=1/GPa)
#
#
# Indices 1 2 3 4 5 6 
#
# 1 0.014671 0.000132 -0.006331 0.000000 0.000000 0.000000
# 2 0.000132 0.011546 -0.002159 0.000000 0.000000 0.000000
# 3 -0.006331 -0.002159 0.010776 0.000000 0.000000 0.000000
# 4 0.000000 0.000000 0.000000 0.061879 0.000000 0.000000
# 5 0.000000 0.000000 0.000000 0.000000 0.043681 0.000000
# 6 0.000000 0.000000 0.000000 0.000000 0.000000 0.042076
#
#
# Mechanical properties :
#
#
# Convention : Reuss Voigt Hill
#
# Bulk Modulus (GPa) = 49.31598 54.70926 52.01262
# Shear Modulus (GPa) = 24.02657 27.52742 25.77700
#
# Velocity S-wave (km/s) = 3.41825 3.65882 3.54058
# Velocity P-wave (km/s) = 6.28985 6.66746 6.48141
#
# Compressibility (1/GPa) = 0.02027740
#
# Stress axis : x y z
#
# Youngs Moduli (GPa) = 68.16149 86.61209 92.79832
#
# Poissons Ratio (x) = -0.01145 0.58749
# Poissons Ratio (y) = -0.00901 0.20036
# Poissons Ratio (z) = 0.43152 0.18701
#
# Static dielectric constant tensor:
#      x y z
#    x 1.767690 0.000000 0.000000 
#    y 0.000000 1.824280 0.000000 
#    z 0.000000 0.000000 1.726930 
# 
# From -- ./inp_files/5614.got.cif
#   From: 2010.05.17/outbox.cif.g08.bks.cpg/sg41_3_cif.got.tgz:5614.got - 2010.06.03 18:54:24.
