data_PCOD9366939
_publ_section_title
;
Structure prediction by ZEFSAII (Michael W. Deem and Ramdas Pophale) SiO2 
 PCOD9366939
Probable space group: A B A 2
;
_chemical_formula_sum "Si O2"
_cell_formula_units_Z 52
_cell_length_a 27.357087
_cell_length_b 7.098318
_cell_length_c 12.324191
_cell_angle_alpha 90.000000
_cell_angle_beta 90.000000
_cell_angle_gamma 90.000000
_cell_volume 2393.226061
_symmetry_space_group_name_H-M "A B A 2"
_symmetry_group_IT_number 41
_symmetry_cell_setting 'orthorhombic'
loop_
_space_group_symop_operation_xyz
x,y,z
-x,-y,z
1/2-x,y,1/2+z
1/2+x,-y,1/2+z
x,1/2+y,1/2+z
-x,1/2-y,1/2+z
1/2-x,1/2+y,z
1/2+x,1/2-y,z
loop_
_atom_site_type_symbol
_atom_site_label
_atom_site_fract_x
_atom_site_fract_y
_atom_site_fract_z
Si Si1 0.416163 0.209423 0.376220
Si Si2 0.355972 0.010594 0.020674
Si Si3 0.500000 0.000000 0.496577
Si Si4 0.284215 0.959539 0.830231
Si Si5 0.588401 0.148027 0.632950
Si Si6 0.670996 0.343966 0.128966
Si Si7 0.182504 0.059952 0.884348
O O1 0.393472 0.374478 0.453268
O O2 0.466633 0.135915 0.423817
O O3 0.420770 0.281960 0.254536
O O4 0.375796 0.038329 0.376439
O O5 0.337445 0.879142 0.119649
O O6 0.380129 0.197329 0.067028
O O7 0.311866 0.045119 0.935858
O O8 0.538027 0.112190 0.571279
O O9 0.308219 0.754123 0.819070
O O10 0.295949 0.079727 0.724722
O O11 0.226831 0.931365 0.848516
O O12 0.619739 0.955432 0.639035
O O13 0.692041 0.398648 0.011358
#
# Coordination Sequence:
#
# PCOD9366939 Si02
#       7
#     8   8   4   8   8   8   8
#     4  10  24  48  62 106 134 170 240 277 333 419
#     4  10  24  43  69 104 136 175 231 273 332 421
#     4  12  26  44  74  98 132 182 226 296 338 400
#     4  10  22  40  67 100 139 181 212 285 336 400
#     4  12  24  45  75  92 138 181 216 290 346 384
#     4  10  21  46  63  95 144 173 224 276 331 402
#     4  10  22  38  65  97 135 172 229 264 333 416
#
# _framework density 21.727995
#
# number of rings (size 3 to 8) (size 9 to 14) (size 15 to 20)
#    0.000    1.846    6.154    0.000    2.154    9.231 
#    0.000    0.000    0.000    0.000    0.000    0.000 
#    0.000    0.000    0.000    0.000    0.000    0.000 
#
# Total GULP energy -145296.981311 kJ/mol
# GULP energy per Si atom -5588.345435 kJ/mol
# Density = 2.167854 g / cm^3
# Si number density = 21.727995 Si / 1000 Ang^3
#
#
#
# Elastic Constant Matrix: (Units=GPa)
#
#
# Indices 1 2 3 4 5 6 
#
# 1 102.8363 27.9613 23.5272 0.0000 0.0000 0.0000
# 2 27.9613 65.3642 41.3417 0.0000 0.0000 0.0000
# 3 23.5272 41.3417 101.0898 0.0000 0.0000 0.0000
# 4 0.0000 0.0000 0.0000 32.0671 0.0000 0.0000
# 5 0.0000 0.0000 0.0000 0.0000 41.3050 0.0000
# 6 0.0000 0.0000 0.0000 0.0000 0.0000 30.6541
#
#
#
# Elastic Compliance Matrix: (Units=1/GPa)
#
#
# Indices 1 2 3 4 5 6 
#
# 1 0.011060 -0.004186 -0.000862 0.000000 0.000000 0.000000
# 2 -0.004186 0.022221 -0.008113 0.000000 0.000000 0.000000
# 3 -0.000862 -0.008113 0.013411 0.000000 0.000000 0.000000
# 4 0.000000 0.000000 0.000000 0.031185 0.000000 0.000000
# 5 0.000000 0.000000 0.000000 0.000000 0.024210 0.000000
# 6 0.000000 0.000000 0.000000 0.000000 0.000000 0.032622
#
#
# Mechanical properties :
#
#
# Convention : Reuss Voigt Hill
#
# Bulk Modulus (GPa) = 49.09423 50.55008 49.82216
# Shear Modulus (GPa) = 29.79376 32.56923 31.18150
#
# Velocity S-wave (km/s) = 3.70701 3.87583 3.79236
# Velocity P-wave (km/s) = 6.40051 6.58368 6.49274
#
# Compressibility (1/GPa) = 0.02036899
#
# Stress axis : x y z
#
# Youngs Moduli (GPa) = 90.41970 45.00251 74.56635
#
# Poissons Ratio (x) = 0.18837 0.06429
# Poissons Ratio (y) = 0.37847 0.60498
# Poissons Ratio (z) = 0.07796 0.36512
#
# Static dielectric constant tensor:
#      x y z
#    x 1.829010 0.000000 0.000000 
#    y 0.000000 1.854650 0.000000 
#    z 0.000000 0.000000 1.797070 
# 
# From -- ./inp_files/6545.got.cif
#   From: 2010.05.17/outbox.cif.g08.bks.cpg/sg41_4_cif.got.tgz:6545.got - 2010.06.03 18:54:24.
