data_PCOD9366823
_publ_section_title
;
Structure prediction by ZEFSAII (Michael W. Deem and Ramdas Pophale) SiO2 
 PCOD9366823
Probable space group: A B A 2
;
_chemical_formula_sum "Si O2"
_cell_formula_units_Z 64
_cell_length_a 8.241200
_cell_length_b 13.341158
_cell_length_c 23.940612
_cell_angle_alpha 90.000000
_cell_angle_beta 90.000000
_cell_angle_gamma 90.000000
_cell_volume 2632.202090
_symmetry_space_group_name_H-M "A B A 2"
_symmetry_group_IT_number 41
_symmetry_cell_setting 'orthorhombic'
loop_
_space_group_symop_operation_xyz
x,y,z
-x,-y,z
1/2-x,y,1/2+z
1/2+x,-y,1/2+z
x,1/2+y,1/2+z
-x,1/2-y,1/2+z
1/2-x,1/2+y,z
1/2+x,1/2-y,z
loop_
_atom_site_type_symbol
_atom_site_label
_atom_site_fract_x
_atom_site_fract_y
_atom_site_fract_z
Si Si1 0.312976 0.915329 0.752280
Si Si2 0.456826 0.746590 0.253290
Si Si3 0.201200 0.385207 0.073809
Si Si4 0.781284 0.622518 0.941638
Si Si5 0.486233 0.259358 0.133684
Si Si6 0.187800 0.528496 0.357984
Si Si7 0.820409 0.954010 0.146624
Si Si8 0.415516 0.710661 0.377213
O O1 0.206567 0.813188 0.750556
O O2 0.496572 0.872584 0.746089
O O3 0.285654 0.966156 0.811410
O O4 0.259619 0.990946 0.703349
O O5 0.541964 0.784377 0.196040
O O6 0.490913 0.753958 0.319579
O O7 0.344906 0.324023 0.105694
O O8 0.040589 0.329621 0.094198
O O9 0.217016 0.497920 0.096578
O O10 0.216507 0.375980 0.007847
O O11 0.725855 0.515443 0.918779
O O12 0.654569 0.701265 0.915293
O O13 0.952249 0.650805 0.913061
O O14 0.640383 0.336390 0.141980
O O15 0.268268 0.637832 0.358609
O O16 0.000000 0.500000 0.345643
O O17 0.000000 0.000000 0.139894
#
# Coordination Sequence:
#
# PCOD9366823 Si02
#       8
#     8   8   8   8   8   8   8   8
#     4  12  24  43  70 108 141 181 232 293 356 431
#     4  12  21  41  76  98 142 180 229 282 369 413
#     4  11  24  43  68 100 134 184 239 284 341 416
#     4  12  26  46  70 100 141 189 243 296 349 425
#     4  11  22  43  71  98 139 182 227 290 353 415
#     4  12  28  45  69 103 141 184 240 297 364 426
#     4  10  21  41  68 101 138 184 227 281 353 418
#     4  12  25  45  72 102 142 188 236 296 365 424
#
# _framework density 24.314243000000001
#
# number of rings (size 3 to 8) (size 9 to 14) (size 15 to 20)
#    0.000    0.500    6.250    2.625    1.750    2.500 
#    2.250    1.875    0.000    0.000    0.000    0.000 
#    0.000    0.000    0.000    0.000    0.000    0.000 
#
# Total GULP energy -178674.675748 kJ/mol
# GULP energy per Si atom -5583.583617 kJ/mol
# Density = 2.425890 g / cm^3
# Si number density = 24.314243 Si / 1000 Ang^3
#
#
#
# Elastic Constant Matrix: (Units=GPa)
#
#
# Indices 1 2 3 4 5 6 
#
# 1 75.8187 39.0650 30.6695 0.0000 0.0000 0.0000
# 2 39.0650 88.7296 41.1903 0.0000 0.0000 0.0000
# 3 30.6695 41.1903 190.8278 0.0000 0.0000 0.0000
# 4 0.0000 0.0000 0.0000 11.4159 0.0000 0.0000
# 5 0.0000 0.0000 0.0000 0.0000 30.5901 0.0000
# 6 0.0000 0.0000 0.0000 0.0000 0.0000 49.9653
#
#
#
# Elastic Compliance Matrix: (Units=1/GPa)
#
#
# Indices 1 2 3 4 5 6 
#
# 1 0.017330 -0.007042 -0.001265 0.000000 0.000000 0.000000
# 2 -0.007042 0.015387 -0.002189 0.000000 0.000000 0.000000
# 3 -0.001265 -0.002189 0.005916 0.000000 0.000000 0.000000
# 4 0.000000 0.000000 0.000000 0.087597 0.000000 0.000000
# 5 0.000000 0.000000 0.000000 0.000000 0.032690 0.000000
# 6 0.000000 0.000000 0.000000 0.000000 0.000000 0.020014
#
#
# Mechanical properties :
#
#
# Convention : Reuss Voigt Hill
#
# Bulk Modulus (GPa) = 56.69232 64.13619 60.41425
# Shear Modulus (GPa) = 24.29450 34.69102 29.49276
#
# Velocity S-wave (km/s) = 3.16442 3.78137 3.48657
# Velocity P-wave (km/s) = 6.05958 6.74539 6.41166
#
# Compressibility (1/GPa) = 0.01763908
#
# Stress axis : x y z
#
# Youngs Moduli (GPa) = 57.70446 64.98912 169.02608
#
# Poissons Ratio (x) = 0.45768 0.21383
# Poissons Ratio (y) = 0.40638 0.37008
# Poissons Ratio (z) = 0.07300 0.14229
#
# Static dielectric constant tensor:
#      x y z
#    x 2.037370 0.000000 0.000000 
#    y 0.000000 1.969220 0.000000 
#    z 0.000000 0.000000 1.880500 
# 
# From -- ./inp_files/12031.got.cif
#   From: 2010.05.17/outbox.cif.g08.bks.cpg/sg41_7_cif.got.tgz:12031.got - 2010.06.03 18:54:24.
