data_PCOD9366540
_publ_section_title
;
Structure prediction by ZEFSAII (Michael W. Deem and Ramdas Pophale) SiO2 
 PCOD9366540
Probable space group: A B A 2
;
_chemical_formula_sum "Si O2"
_cell_formula_units_Z 36
_cell_length_a 14.537931
_cell_length_b 9.493936
_cell_length_c 10.113972
_cell_angle_alpha 90.000000
_cell_angle_beta 90.000000
_cell_angle_gamma 90.000000
_cell_volume 1395.952530
_symmetry_space_group_name_H-M "A B A 2"
_symmetry_group_IT_number 41
_symmetry_cell_setting 'orthorhombic'
loop_
_space_group_symop_operation_xyz
x,y,z
-x,-y,z
1/2-x,y,1/2+z
1/2+x,-y,1/2+z
x,1/2+y,1/2+z
-x,1/2-y,1/2+z
1/2-x,1/2+y,z
1/2+x,1/2-y,z
loop_
_atom_site_type_symbol
_atom_site_label
_atom_site_fract_x
_atom_site_fract_y
_atom_site_fract_z
Si Si1 0.757551 0.788896 0.797800
Si Si2 0.796618 0.983405 0.546342
Si Si3 0.448500 0.681601 0.873134
Si Si4 0.000000 0.500000 0.129771
Si Si5 0.132658 0.879861 0.941895
O O1 0.771527 0.881495 0.668653
O O2 0.857391 0.729885 0.843879
O O3 0.682356 0.666104 0.805516
O O4 0.719220 0.892849 0.912846
O O5 0.903877 0.022361 0.555807
O O6 0.718350 0.105790 0.541513
O O7 0.484651 0.631092 0.730195
O O8 0.406716 0.537907 0.935355
O O9 0.540942 0.715899 0.954984
#
# Coordination Sequence:
#
# PCOD9366540 Si02
#       5
#     8   8   8   4   8
#     4  10  21  36  58  86 114 152 205 247 295 368
#     4  10  21  36  56  86 117 155 203 244 302 364
#     4   8  18  38  57  81 117 160 193 231 314 374
#     4   8  16  34  54  76 118 150 182 244 292 346
#     4   9  18  36  60  80 115 155 192 249 295 347
#
# _framework density 25.788843
#
# number of rings (size 3 to 8) (size 9 to 14) (size 15 to 20)
#    0.000    3.111    0.000    1.333    0.000    8.889 
#    0.000   20.000    0.000    0.000    0.000    0.000 
#    0.000    0.000    0.000    0.000    0.000    0.000 
#
# Total GULP energy -100422.259579 kJ/mol
# GULP energy per Si atom -5579.014421 kJ/mol
# Density = 2.573015 g / cm^3
# Si number density = 25.788843 Si / 1000 Ang^3
#
#
#
# Elastic Constant Matrix: (Units=GPa)
#
#
# Indices 1 2 3 4 5 6 
#
# 1 283.7118 33.9348 40.7738 0.0000 0.0000 0.0000
# 2 33.9348 47.6005 14.5537 0.0000 0.0000 0.0000
# 3 40.7738 14.5537 101.5382 0.0000 0.0000 0.0000
# 4 0.0000 0.0000 0.0000 34.7950 0.0000 0.0000
# 5 0.0000 0.0000 0.0000 0.0000 51.6905 0.0000
# 6 0.0000 0.0000 0.0000 0.0000 0.0000 43.8016
#
#
#
# Elastic Compliance Matrix: (Units=1/GPa)
#
#
# Indices 1 2 3 4 5 6 
#
# 1 0.004000 -0.002469 -0.001252 0.000000 0.000000 0.000000
# 2 -0.002469 0.023495 -0.002376 0.000000 0.000000 0.000000
# 3 -0.001252 -0.002376 0.010692 0.000000 0.000000 0.000000
# 4 0.000000 0.000000 0.000000 0.028740 0.000000 0.000000
# 5 0.000000 0.000000 0.000000 0.000000 0.019346 0.000000
# 6 0.000000 0.000000 0.000000 0.000000 0.000000 0.022830
#
#
# Mechanical properties :
#
#
# Convention : Reuss Voigt Hill
#
# Bulk Modulus (GPa) = 38.47332 67.93056 53.20194
# Shear Modulus (GPa) = 38.47304 48.96330 43.71817
#
# Velocity S-wave (km/s) = 3.86664 4.36205 4.12179
# Velocity P-wave (km/s) = 5.90639 7.19501 6.58231
#
# Compressibility (1/GPa) = 0.02599204
#
# Stress axis : x y z
#
# Youngs Moduli (GPa) = 250.00174 42.56292 93.52786
#
# Poissons Ratio (x) = 0.10507 0.11713
# Poissons Ratio (y) = 0.61718 0.22224
# Poissons Ratio (z) = 0.31310 0.10114
#
# Static dielectric constant tensor:
#      x y z
#    x 2.108020 0.000000 0.000000 
#    y 0.000000 2.190220 0.000000 
#    z 0.000000 0.000000 2.077580 
# 
# From -- ./inp_files/5352.got.cif
#   From: 2010.05.17/outbox.cif.g08.bks.cpg/sg41_3_cif.got.tgz:5352.got - 2010.06.03 18:54:24.
