data_PCOD9366014
_publ_section_title
;
Structure prediction by ZEFSAII (Michael W. Deem and Ramdas Pophale) SiO2 
 PCOD9366014
Probable space group: A B A 2
;
_chemical_formula_sum "Si O2"
_cell_formula_units_Z 56
_cell_length_a 8.902297
_cell_length_b 19.354219
_cell_length_c 17.119110
_cell_angle_alpha 90.000000
_cell_angle_beta 90.000000
_cell_angle_gamma 90.000000
_cell_volume 2949.571394
_symmetry_space_group_name_H-M "A B A 2"
_symmetry_group_IT_number 41
_symmetry_cell_setting 'orthorhombic'
loop_
_space_group_symop_operation_xyz
x,y,z
-x,-y,z
1/2-x,y,1/2+z
1/2+x,-y,1/2+z
x,1/2+y,1/2+z
-x,1/2-y,1/2+z
1/2-x,1/2+y,z
1/2+x,1/2-y,z
loop_
_atom_site_type_symbol
_atom_site_label
_atom_site_fract_x
_atom_site_fract_y
_atom_site_fract_z
Si Si1 0.078969 0.278397 0.739070
Si Si2 0.774868 0.604232 0.306499
Si Si3 0.161282 0.032175 0.242645
Si Si4 0.717526 0.331052 0.158208
Si Si5 0.009011 0.298901 0.389617
Si Si6 0.299508 0.195112 0.979931
Si Si7 0.985011 0.923148 0.404501
O O1 0.204950 0.337118 0.750241
O O2 0.160095 0.210167 0.708637
O O3 0.947060 0.304250 0.683359
O O4 0.007931 0.259775 0.822948
O O5 0.772517 0.530942 0.262606
O O6 0.922422 0.634451 0.346593
O O7 0.649490 0.596657 0.374100
O O8 0.219863 0.088595 0.182352
O O9 0.115823 0.068687 0.325210
O O10 0.000000 0.000000 0.216408
O O11 0.751242 0.312456 0.069171
O O12 0.120124 0.266518 0.454524
O O13 0.848165 0.312038 0.426859
O O14 0.413596 0.133456 0.959505
O O15 0.000000 0.000000 0.439173
#
# Coordination Sequence:
#
# PCOD9366014 Si02
#       7
#     8   8   8   8   8   8   8
#     4  12  20  38  65  90 115 162 223 257 302 373
#     4  10  19  36  69  87 111 157 225 260 299 364
#     4   9  18  38  63  84 114 166 214 245 308 380
#     4  12  24  38  61  97 129 166 201 269 328 384
#     4  12  21  38  65  93 121 163 218 269 304 378
#     4  12  23  38  59  96 136 162 203 266 339 381
#     4   9  18  39  64  82 114 167 207 250 307 385
#
# _framework density 18.985809
#
# number of rings (size 3 to 8) (size 9 to 14) (size 15 to 20)
#    0.000    1.429    7.143    1.714    0.000    0.000 
#    0.000   10.714    0.000    0.000    0.000    0.000 
#    0.000    0.000    0.000    0.000    0.000    0.000 
#
# Total GULP energy -156344.887438 kJ/mol
# GULP energy per Si atom -5583.745980 kJ/mol
# Density = 1.894260 g / cm^3
# Si number density = 18.985809 Si / 1000 Ang^3
#
#
#
# Elastic Constant Matrix: (Units=GPa)
#
#
# Indices 1 2 3 4 5 6 
#
# 1 57.4807 24.1528 9.7623 0.0000 0.0000 0.0000
# 2 24.1528 90.7716 10.4984 0.0000 0.0000 0.0000
# 3 9.7623 10.4984 53.8332 0.0000 0.0000 0.0000
# 4 0.0000 0.0000 0.0000 22.1156 0.0000 0.0000
# 5 0.0000 0.0000 0.0000 0.0000 25.5692 0.0000
# 6 0.0000 0.0000 0.0000 0.0000 0.0000 38.4716
#
#
#
# Elastic Compliance Matrix: (Units=1/GPa)
#
#
# Indices 1 2 3 4 5 6 
#
# 1 0.019948 -0.005002 -0.002642 0.000000 0.000000 0.000000
# 2 -0.005002 0.012525 -0.001536 0.000000 0.000000 0.000000
# 3 -0.002642 -0.001536 0.019354 0.000000 0.000000 0.000000
# 4 0.000000 0.000000 0.000000 0.045217 0.000000 0.000000
# 5 0.000000 0.000000 0.000000 0.000000 0.039110 0.000000
# 6 0.000000 0.000000 0.000000 0.000000 0.000000 0.025993
#
#
# Mechanical properties :
#
#
# Convention : Reuss Voigt Hill
#
# Bulk Modulus (GPa) = 29.87911 32.32362 31.10136
# Shear Modulus (GPa) = 26.08754 27.74274 26.91514
#
# Velocity S-wave (km/s) = 3.71085 3.82676 3.76925
# Velocity P-wave (km/s) = 5.84228 6.04876 5.94642
#
# Compressibility (1/GPa) = 0.03346820
#
# Stress axis : x y z
#
# Youngs Moduli (GPa) = 50.13103 79.83860 51.66778
#
# Poissons Ratio (x) = 0.39937 0.13650
# Poissons Ratio (y) = 0.25077 0.07934
# Poissons Ratio (z) = 0.13244 0.12259
#
# Static dielectric constant tensor:
#      x y z
#    x 1.663800 0.000000 0.000000 
#    y 0.000000 1.703650 0.000000 
#    z 0.000000 0.000000 1.645030 
# 
# From -- ./inp_files/7486.got.cif
#   From: 2010.05.17/outbox.cif.g08.bks.cpg/sg41_4_cif.got.tgz:7486.got - 2010.06.03 18:54:24.
