data_PCOD9366642
_publ_section_title
;
Structure prediction by ZEFSAII (Michael W. Deem and Ramdas Pophale) SiO2 
 PCOD9366642
Probable space group: A B A 2
;
_chemical_formula_sum "Si O2"
_cell_formula_units_Z 48
_cell_length_a 31.738567
_cell_length_b 7.958012
_cell_length_c 7.623918
_cell_angle_alpha 90.000000
_cell_angle_beta 90.000000
_cell_angle_gamma 90.000000
_cell_volume 1925.617928
_symmetry_space_group_name_H-M "A B A 2"
_symmetry_group_IT_number 41
_symmetry_cell_setting 'orthorhombic'
loop_
_space_group_symop_operation_xyz
x,y,z
-x,-y,z
1/2-x,y,1/2+z
1/2+x,-y,1/2+z
x,1/2+y,1/2+z
-x,1/2-y,1/2+z
1/2-x,1/2+y,z
1/2+x,1/2-y,z
loop_
_atom_site_type_symbol
_atom_site_label
_atom_site_fract_x
_atom_site_fract_y
_atom_site_fract_z
Si Si1 0.609646 0.250000 0.004690
Si Si2 0.816846 0.553059 0.074873
Si Si3 0.816846 0.946942 0.934508
Si Si4 0.756869 0.750000 0.504690
Si Si5 0.952055 0.299928 0.802422
Si Si6 0.547945 0.200072 0.706958
O O1 0.579990 0.212860 0.168156
O O2 0.644403 0.108663 0.956066
O O3 0.644404 0.391337 0.053314
O O4 0.579989 0.287140 0.841224
O O5 0.837885 0.500000 0.254690
O O6 0.781207 0.691203 0.138179
O O7 0.787985 0.407157 0.000386
O O8 0.781207 0.808798 0.871201
O O9 0.787985 0.092844 0.008995
O O10 0.948529 0.500000 0.754690
O O11 1.000000 0.250833 0.754690
O O12 0.944061 0.250000 0.004690
#
# Coordination Sequence:
#
# PCOD9366642 Si02
#       6
#     8   8   8   8   8   8
#     4  11  26  44  70 115 148 198 262 321 394 471
#     4  10  21  38  67 101 143 197 251 319 382 467
#     4  10  21  38  67 101 143 197 251 319 382 467
#     4   9  20  40  64  99 140 196 258 305 392 463
#     4  11  26  50  80 113 153 208 258 322 400 484
#     4  11  26  50  80 113 153 208 258 322 400 484
#
# _framework density 24.927060999999998
#
# number of rings (size 3 to 8) (size 9 to 14) (size 15 to 20)
#    0.000    1.667    1.667    1.000    4.667    2.667 
#    0.000    3.333    0.000    0.000    0.000    0.000 
#    0.000    0.000    0.000    0.000    0.000    0.000 
#
# Total GULP energy -133603.886993 kJ/mol
# GULP energy per Si atom -5566.828625 kJ/mol
# Density = 2.487033 g / cm^3
# Si number density = 24.927061 Si / 1000 Ang^3
#
#
#
# Elastic Constant Matrix: (Units=GPa)
#
#
# Indices 1 2 3 4 5 6 
#
# 1 244.5429 67.3426 79.6795 0.0000 0.0000 0.0000
# 2 67.3426 65.5437 31.2814 0.0000 0.0000 0.0000
# 3 79.6795 31.2814 141.8053 0.0000 0.0000 0.0000
# 4 0.0000 0.0000 0.0000 28.6161 0.0000 0.0000
# 5 0.0000 0.0000 0.0000 0.0000 94.9118 0.0000
# 6 0.0000 0.0000 0.0000 0.0000 0.0000 29.5699
#
#
#
# Elastic Compliance Matrix: (Units=1/GPa)
#
#
# Indices 1 2 3 4 5 6 
#
# 1 0.006348 -0.005387 -0.002378 0.000000 0.000000 0.000000
# 2 -0.005387 0.021624 -0.001743 0.000000 0.000000 0.000000
# 3 -0.002378 -0.001743 0.008773 0.000000 0.000000 0.000000
# 4 0.000000 0.000000 0.000000 0.034945 0.000000 0.000000
# 5 0.000000 0.000000 0.000000 0.000000 0.010536 0.000000
# 6 0.000000 0.000000 0.000000 0.000000 0.000000 0.033818
#
#
# Mechanical properties :
#
#
# Convention : Reuss Voigt Hill
#
# Bulk Modulus (GPa) = 56.41023 89.83319 73.12171
# Shear Modulus (GPa) = 35.46864 48.85878 42.16371
#
# Velocity S-wave (km/s) = 3.77622 4.43207 4.11723
# Velocity P-wave (km/s) = 6.45696 7.89352 7.21110
#
# Compressibility (1/GPa) = 0.01772728
#
# Stress axis : x y z
#
# Youngs Moduli (GPa) = 157.53930 46.24591 113.98750
#
# Poissons Ratio (x) = 0.24911 0.27111
# Poissons Ratio (y) = 0.84862 0.19871
# Poissons Ratio (z) = 0.37469 0.08062
#
# Static dielectric constant tensor:
#      x y z
#    x 1.831930 0.000000 0.000000 
#    y 0.000000 2.393540 0.000000 
#    z 0.000000 0.000000 2.272880 
# 
# From -- ./inp_files/3918.got.cif
#   From: 2010.05.17/outbox.cif.g08.bks.cpg/sg41_2_cif.got.tgz:3918.got - 2010.06.03 18:54:24.
