data_PCOD9366747
_publ_section_title
;
Structure prediction by ZEFSAII (Michael W. Deem and Ramdas Pophale) SiO2 
 PCOD9366747
Probable space group: A B A 2
;
_chemical_formula_sum "Si O2"
_cell_formula_units_Z 36
_cell_length_a 12.445225
_cell_length_b 22.157977
_cell_length_c 5.308521
_cell_angle_alpha 90.000000
_cell_angle_beta 90.000000
_cell_angle_gamma 90.000000
_cell_volume 1463.883109
_symmetry_space_group_name_H-M "A B A 2"
_symmetry_group_IT_number 41
_symmetry_cell_setting 'orthorhombic'
loop_
_space_group_symop_operation_xyz
x,y,z
-x,-y,z
1/2-x,y,1/2+z
1/2+x,-y,1/2+z
x,1/2+y,1/2+z
-x,1/2-y,1/2+z
1/2-x,1/2+y,z
1/2+x,1/2-y,z
loop_
_atom_site_type_symbol
_atom_site_label
_atom_site_fract_x
_atom_site_fract_y
_atom_site_fract_z
Si Si1 0.213061 0.816991 0.048580
Si Si2 0.174723 0.600943 0.800504
Si Si3 0.295839 0.952781 0.463885
Si Si4 0.487801 0.711079 0.247074
Si Si5 0.500000 0.500000 0.185066
O O1 0.276937 0.785887 0.276304
O O2 0.247684 0.884344 0.967405
O O3 0.093647 0.823457 0.149266
O O4 0.242351 0.599970 0.536480
O O5 0.106461 0.663405 0.795009
O O6 0.081282 0.548025 0.817174
O O7 0.265975 0.980516 0.199906
O O8 0.420342 0.959997 0.516096
O O9 0.478805 0.757305 0.010633
#
# Coordination Sequence:
#
# PCOD9366747 Si02
#       5
#     8   8   8   8   4
#     4  10  21  40  65  95 127 169 226 287 340 413
#     4  12  29  50  75 112 156 197 250 318 379 445
#     4  10  22  39  64  97 129 170 226 283 344 420
#     4  12  26  46  73 105 144 194 244 300 376 446
#     4  12  24  48  74 104 148 196 240 300 382 450
#
# _framework density 24.592127000000001
#
# number of rings (size 3 to 8) (size 9 to 14) (size 15 to 20)
#    0.000    0.889    2.222    4.000    0.000    8.889 
#    0.000    0.000    0.000    0.000    0.000    0.000 
#    0.000    0.000    0.000    0.000    0.000    0.000 
#
# Total GULP energy -100425.676375 kJ/mol
# GULP energy per Si atom -5579.204243 kJ/mol
# Density = 2.453615 g / cm^3
# Si number density = 24.592127 Si / 1000 Ang^3
#
#
#
# Elastic Constant Matrix: (Units=GPa)
#
#
# Indices 1 2 3 4 5 6 
#
# 1 143.2670 55.4972 76.9016 0.0000 0.0000 0.0000
# 2 55.4972 118.9274 64.0508 0.0000 0.0000 0.0000
# 3 76.9016 64.0508 192.8574 0.0000 0.0000 0.0000
# 4 0.0000 0.0000 0.0000 27.7905 0.0000 0.0000
# 5 0.0000 0.0000 0.0000 0.0000 43.2673 0.0000
# 6 0.0000 0.0000 0.0000 0.0000 0.0000 31.9207
#
#
#
# Elastic Compliance Matrix: (Units=1/GPa)
#
#
# Indices 1 2 3 4 5 6 
#
# 1 0.009670 -0.002966 -0.002871 0.000000 0.000000 0.000000
# 2 -0.002966 0.011150 -0.002520 0.000000 0.000000 0.000000
# 3 -0.002871 -0.002520 0.007167 0.000000 0.000000 0.000000
# 4 0.000000 0.000000 0.000000 0.035983 0.000000 0.000000
# 5 0.000000 0.000000 0.000000 0.000000 0.023112 0.000000
# 6 0.000000 0.000000 0.000000 0.000000 0.000000 0.031328
#
#
# Mechanical properties :
#
#
# Convention : Reuss Voigt Hill
#
# Bulk Modulus (GPa) = 88.71364 94.21678 91.46521
# Shear Modulus (GPa) = 36.00170 37.83586 36.91878
#
# Velocity S-wave (km/s) = 3.83031 3.92667 3.87879
# Velocity P-wave (km/s) = 7.46418 7.67810 7.57190
#
# Compressibility (1/GPa) = 0.01127222
#
# Stress axis : x y z
#
# Youngs Moduli (GPa) = 103.41288 89.68530 139.53065
#
# Poissons Ratio (x) = 0.26604 0.40055
# Poissons Ratio (y) = 0.30676 0.35165
# Poissons Ratio (z) = 0.29687 0.22603
#
# Static dielectric constant tensor:
#      x y z
#    x 1.958500 0.000000 0.000000 
#    y 0.000000 2.144960 0.000000 
#    z 0.000000 0.000000 2.058050 
# 
# From -- ./inp_files/108.got.cif
#   From: 2010.05.17/outbox.cif.g08.bks.cpg/sg41_1_cif.got.tgz:108.got - 2010.06.03 18:54:24.
