data_PCOD9366104
_publ_section_title
;
Structure prediction by ZEFSAII (Michael W. Deem and Ramdas Pophale) SiO2 
 PCOD9366104
Probable space group: A B A 2
;
_chemical_formula_sum "Si O2"
_cell_formula_units_Z 64
_cell_length_a 27.391058
_cell_length_b 8.802596
_cell_length_c 11.719015
_cell_angle_alpha 90.000000
_cell_angle_beta 90.000000
_cell_angle_gamma 90.000000
_cell_volume 2825.600038
_symmetry_space_group_name_H-M "A B A 2"
_symmetry_group_IT_number 41
_symmetry_cell_setting 'orthorhombic'
loop_
_space_group_symop_operation_xyz
x,y,z
-x,-y,z
1/2-x,y,1/2+z
1/2+x,-y,1/2+z
x,1/2+y,1/2+z
-x,1/2-y,1/2+z
1/2-x,1/2+y,z
1/2+x,1/2-y,z
loop_
_atom_site_type_symbol
_atom_site_label
_atom_site_fract_x
_atom_site_fract_y
_atom_site_fract_z
Si Si1 0.224414 0.229734 0.676000
Si Si2 0.651596 0.539570 0.725654
Si Si3 0.808894 0.966059 0.280699
Si Si4 0.324571 0.772999 0.454207
Si Si5 0.925738 0.106137 0.020570
Si Si6 0.004350 0.833620 0.236998
Si Si7 0.895181 0.332187 0.654090
Si Si8 0.547119 0.950350 0.299541
O O1 0.187937 0.087071 0.682527
O O2 0.275210 0.148768 0.705272
O O3 0.210550 0.363667 0.764978
O O4 0.214091 0.308126 0.553595
O O5 0.671591 0.613554 0.844872
O O6 0.636461 0.680080 0.644825
O O7 0.600157 0.460144 0.748563
O O8 0.809600 0.890903 0.404935
O O9 0.864151 0.943292 0.236870
O O10 0.379632 0.783041 0.504831
O O11 0.963034 0.150263 0.120779
O O12 0.903439 0.938899 0.046650
O O13 0.952582 0.070352 0.902873
O O14 0.948493 0.792781 0.204100
O O15 0.034381 0.724315 0.319157
O O16 0.000000 0.000000 0.288877
O O17 0.500000 0.000000 0.224020
#
# Coordination Sequence:
#
# PCOD9366104 Si02
#       8
#     8   8   8   8   8   8   8   8
#     4  12  25  49  71  99 136 174 225 287 351 412
#     4  10  23  41  69 100 136 177 230 275 343 409
#     4  11  25  43  73 100 132 176 226 281 347 411
#     4  10  23  47  70 102 135 176 222 282 337 416
#     4  10  21  41  71  94 141 183 226 275 349 395
#     4  10  21  37  67  93 136 184 221 279 336 386
#     4  10  19  42  62  96 138 176 223 281 329 400
#     4  11  20  37  64  97 131 179 225 275 333 402
#
# _framework density 22.650055999999999
#
# number of rings (size 3 to 8) (size 9 to 14) (size 15 to 20)
#    0.000    1.500    2.500    3.375    1.750    2.000 
#    4.500    0.000    8.250    0.000    0.000    0.000 
#    0.000    0.000    0.000    0.000    0.000    0.000 
#
# Total GULP energy -178465.367033 kJ/mol
# GULP energy per Si atom -5577.042720 kJ/mol
# Density = 2.259850 g / cm^3
# Si number density = 22.650056 Si / 1000 Ang^3
#
#
#
# Elastic Constant Matrix: (Units=GPa)
#
#
# Indices 1 2 3 4 5 6 
#
# 1 118.9139 38.5752 28.4843 0.0000 0.0000 0.0000
# 2 38.5752 113.1532 23.2842 0.0000 0.0000 0.0000
# 3 28.4843 23.2842 56.1099 0.0000 0.0000 0.0000
# 4 0.0000 0.0000 0.0000 29.6974 0.0000 0.0000
# 5 0.0000 0.0000 0.0000 0.0000 25.7477 0.0000
# 6 0.0000 0.0000 0.0000 0.0000 0.0000 50.4475
#
#
#
# Elastic Compliance Matrix: (Units=1/GPa)
#
#
# Indices 1 2 3 4 5 6 
#
# 1 0.010253 -0.002651 -0.004105 0.000000 0.000000 0.000000
# 2 -0.002651 0.010348 -0.002949 0.000000 0.000000 0.000000
# 3 -0.004105 -0.002949 0.021130 0.000000 0.000000 0.000000
# 4 0.000000 0.000000 0.000000 0.033673 0.000000 0.000000
# 5 0.000000 0.000000 0.000000 0.000000 0.038838 0.000000
# 6 0.000000 0.000000 0.000000 0.000000 0.000000 0.019823
#
#
# Mechanical properties :
#
#
# Convention : Reuss Voigt Hill
#
# Bulk Modulus (GPa) = 44.79851 52.09605 48.44728
# Shear Modulus (GPa) = 31.07279 34.36741 32.72010
#
# Velocity S-wave (km/s) = 3.70789 3.89951 3.80490
# Velocity P-wave (km/s) = 6.17679 6.58219 6.38271
#
# Compressibility (1/GPa) = 0.02232217
#
# Stress axis : x y z
#
# Youngs Moduli (GPa) = 97.53701 96.63782 47.32705
#
# Poissons Ratio (x) = 0.25614 0.19427
# Poissons Ratio (y) = 0.25852 0.13955
# Poissons Ratio (z) = 0.40037 0.28494
#
# Static dielectric constant tensor:
#      x y z
#    x 1.890190 0.000000 0.000000 
#    y 0.000000 1.965710 0.000000 
#    z 0.000000 0.000000 1.943990 
# 
# From -- ./inp_files/6668.got.cif
#   From: 2010.05.17/outbox.cif.g08.bks.cpg/sg41_4_cif.got.tgz:6668.got - 2010.06.03 18:54:24.
