data_PCOD9366562
_publ_section_title
;
Structure prediction by ZEFSAII (Michael W. Deem and Ramdas Pophale) SiO2 
 PCOD9366562
Probable space group: A B A 2
;
_chemical_formula_sum "Si O2"
_cell_formula_units_Z 32
_cell_length_a 18.820053
_cell_length_b 5.215490
_cell_length_c 13.753946
_cell_angle_alpha 90.000000
_cell_angle_beta 90.000000
_cell_angle_gamma 90.000000
_cell_volume 1350.029548
_symmetry_space_group_name_H-M "A B A 2"
_symmetry_group_IT_number 41
_symmetry_cell_setting 'orthorhombic'
loop_
_space_group_symop_operation_xyz
x,y,z
-x,-y,z
1/2-x,y,1/2+z
1/2+x,-y,1/2+z
x,1/2+y,1/2+z
-x,1/2-y,1/2+z
1/2-x,1/2+y,z
1/2+x,1/2-y,z
loop_
_atom_site_type_symbol
_atom_site_label
_atom_site_fract_x
_atom_site_fract_y
_atom_site_fract_z
Si Si1 0.722620 0.184592 0.205150
Si Si2 0.922908 0.027691 0.993137
Si Si3 0.922575 0.529843 0.127794
Si Si4 0.277088 0.654043 0.920433
O O1 0.724776 0.470441 0.160678
O O2 0.748725 0.263580 0.313497
O O3 0.645627 0.056315 0.196475
O O4 0.916142 0.296813 0.050271
O O5 0.924450 0.798599 0.071239
O O6 0.000000 0.000000 0.942536
O O7 0.855138 0.965309 0.926922
O O8 0.000000 0.500000 0.176597
O O9 0.226063 0.437630 0.966522
#
# Coordination Sequence:
#
# PCOD9366562 Si02
#       4
#     8   8   8   8
#     4  10  21  37  57  85 119 156 198 244 302 364
#     4  10  21  37  59  87 119 158 203 251 303 361
#     4  10  21  37  59  87 119 158 203 251 303 361
#     4  10  21  37  57  85 119 156 198 244 302 364
#
# _framework density 23.703185999999999
#
# number of rings (size 3 to 8) (size 9 to 14) (size 15 to 20)
#    0.000    2.000    0.000    3.000    0.000    6.000 
#    0.000    5.000    0.000   12.000    0.000    0.000 
#    0.000    0.000    0.000    0.000    0.000    0.000 
#
# Total GULP energy -89216.180548 kJ/mol
# GULP energy per Si atom -5576.011284 kJ/mol
# Density = 2.364924 g / cm^3
# Si number density = 23.703186 Si / 1000 Ang^3
#
#
#
# Elastic Constant Matrix: (Units=GPa)
#
#
# Indices 1 2 3 4 5 6 
#
# 1 230.6366 27.2222 33.9484 0.0000 0.0000 0.0000
# 2 27.2222 177.3444 -11.7598 0.0000 0.0000 0.0000
# 3 33.9484 -11.7598 58.9278 0.0000 0.0000 0.0000
# 4 0.0000 0.0000 0.0000 18.6967 0.0000 0.0000
# 5 0.0000 0.0000 0.0000 0.0000 33.6454 0.0000
# 6 0.0000 0.0000 0.0000 0.0000 0.0000 37.9628
#
#
#
# Elastic Compliance Matrix: (Units=1/GPa)
#
#
# Indices 1 2 3 4 5 6 
#
# 1 0.004891 -0.000950 -0.003007 0.000000 0.000000 0.000000
# 2 -0.000950 0.005899 0.001725 0.000000 0.000000 0.000000
# 3 -0.003007 0.001725 0.019046 0.000000 0.000000 0.000000
# 4 0.000000 0.000000 0.000000 0.053485 0.000000 0.000000
# 5 0.000000 0.000000 0.000000 0.000000 0.029722 0.000000
# 6 0.000000 0.000000 0.000000 0.000000 0.000000 0.026342
#
#
# Mechanical properties :
#
#
# Convention : Reuss Voigt Hill
#
# Bulk Modulus (GPa) = 39.41546 62.85895 51.13721
# Shear Modulus (GPa) = 32.82847 45.89418 39.36133
#
# Velocity S-wave (km/s) = 3.72557 4.40500 4.07946
# Velocity P-wave (km/s) = 5.93055 7.24216 6.61892
#
# Compressibility (1/GPa) = 0.02537076
#
# Stress axis : x y z
#
# Youngs Moduli (GPa) = 204.47424 169.52195 52.50317
#
# Poissons Ratio (x) = 0.16106 0.15788
# Poissons Ratio (y) = 0.19427 -0.09055
# Poissons Ratio (z) = 0.61487 -0.29235
#
# Static dielectric constant tensor:
#      x y z
#    x 1.976870 0.000000 0.000000 
#    y 0.000000 2.209580 0.000000 
#    z 0.000000 0.000000 2.233660 
# 
# From -- ./inp_files/402.got.cif
#   From: 2010.05.17/outbox.cif.g08.bks.cpg/sg41_1_cif.got.tgz:402.got - 2010.06.03 18:54:24.
