data_PCOD9366887
_publ_section_title
;
Structure prediction by ZEFSAII (Michael W. Deem and Ramdas Pophale) SiO2 
 PCOD9366887
Probable space group: A B A 2
;
_chemical_formula_sum "Si O2"
_cell_formula_units_Z 64
_cell_length_a 21.574818
_cell_length_b 9.598661
_cell_length_c 13.769160
_cell_angle_alpha 90.000000
_cell_angle_beta 90.000000
_cell_angle_gamma 90.000000
_cell_volume 2851.446589
_symmetry_space_group_name_H-M "A B A 2"
_symmetry_group_IT_number 41
_symmetry_cell_setting 'orthorhombic'
loop_
_space_group_symop_operation_xyz
x,y,z
-x,-y,z
1/2-x,y,1/2+z
1/2+x,-y,1/2+z
x,1/2+y,1/2+z
-x,1/2-y,1/2+z
1/2-x,1/2+y,z
1/2+x,1/2-y,z
loop_
_atom_site_type_symbol
_atom_site_label
_atom_site_fract_x
_atom_site_fract_y
_atom_site_fract_z
Si Si1 0.108430 0.205166 0.752230
Si Si2 0.503031 0.331768 0.147667
Si Si3 0.329442 0.026934 0.563835
Si Si4 0.809207 0.573972 0.844133
Si Si5 0.737048 0.697363 0.544251
Si Si6 0.620855 0.843256 0.766822
Si Si7 0.315544 0.931623 0.240873
Si Si8 0.448781 0.618632 0.948672
O O1 0.166472 0.303835 0.774278
O O2 0.069062 0.199353 0.852026
O O3 0.062919 0.267369 0.672133
O O4 0.134697 0.052854 0.731452
O O5 0.500000 0.500000 0.145089
O O6 0.552362 0.300994 0.232864
O O7 0.527169 0.291624 0.040696
O O8 0.273236 0.136644 0.544060
O O9 0.353617 0.077850 0.669066
O O10 0.384829 0.052065 0.488662
O O11 0.304633 0.870889 0.553668
O O12 0.793701 0.639979 0.946779
O O13 0.863104 0.458270 0.846867
O O14 0.745579 0.516077 0.797204
O O15 0.702301 0.631054 0.636623
O O16 0.656863 0.703436 0.794081
O O17 0.500000 0.500000 0.928348
#
# Coordination Sequence:
#
# PCOD9366887 Si02
#       8
#     8   8   8   8   8   8   8   8
#     4  12  25  45  69 101 135 174 231 285 333 406
#     4  10  22  45  68  91 129 185 217 273 338 401
#     4  10  21  43  65  95 135 175 221 280 330 406
#     4  12  23  43  67  97 136 178 221 280 337 412
#     4  11  24  41  65  99 140 171 225 277 343 399
#     4  10  22  41  66  90 133 170 226 267 332 397
#     4  11  26  42  65 102 132 177 220 283 341 401
#     4  10  23  44  67  97 132 179 227 274 336 410
#
# _framework density 22.444748000000001
#
# number of rings (size 3 to 8) (size 9 to 14) (size 15 to 20)
#    0.000    1.250    3.750    1.500    5.250    0.000 
#    2.250    0.000    0.000    0.000    0.000    0.000 
#    0.000    0.000    0.000    0.000    0.000    0.000 
#
# Total GULP energy -178936.843444 kJ/mol
# GULP energy per Si atom -5591.776358 kJ/mol
# Density = 2.239366 g / cm^3
# Si number density = 22.444748 Si / 1000 Ang^3
#
#
#
# Elastic Constant Matrix: (Units=GPa)
#
#
# Indices 1 2 3 4 5 6 
#
# 1 67.7288 17.1153 10.8875 0.0000 0.0000 0.0000
# 2 17.1153 67.0965 -7.8673 0.0000 0.0000 0.0000
# 3 10.8875 -7.8673 52.0846 0.0000 0.0000 0.0000
# 4 0.0000 0.0000 0.0000 17.1837 0.0000 0.0000
# 5 0.0000 0.0000 0.0000 0.0000 29.4924 0.0000
# 6 0.0000 0.0000 0.0000 0.0000 0.0000 35.6042
#
#
#
# Elastic Compliance Matrix: (Units=1/GPa)
#
#
# Indices 1 2 3 4 5 6 
#
# 1 0.016635 -0.004735 -0.004193 0.000000 0.000000 0.000000
# 2 -0.004735 0.016520 0.003485 0.000000 0.000000 0.000000
# 3 -0.004193 0.003485 0.020602 0.000000 0.000000 0.000000
# 4 0.000000 0.000000 0.000000 0.058195 0.000000 0.000000
# 5 0.000000 0.000000 0.000000 0.000000 0.033907 0.000000
# 6 0.000000 0.000000 0.000000 0.000000 0.000000 0.028087
#
#
# Mechanical properties :
#
#
# Convention : Reuss Voigt Hill
#
# Bulk Modulus (GPa) = 23.32458 25.24231 24.28345
# Shear Modulus (GPa) = 25.11019 27.57434 26.34226
#
# Velocity S-wave (km/s) = 3.34841 3.50886 3.42957
# Velocity P-wave (km/s) = 5.03624 5.26184 5.15027
#
# Compressibility (1/GPa) = 0.04287323
#
# Stress axis : x y z
#
# Youngs Moduli (GPa) = 60.11321 60.53121 48.53814
#
# Poissons Ratio (x) = 0.28662 0.20350
# Poissons Ratio (y) = 0.28464 -0.16916
# Poissons Ratio (z) = 0.25203 -0.21096
#
# Static dielectric constant tensor:
#      x y z
#    x 1.880600 0.000000 0.000000 
#    y 0.000000 1.813290 0.000000 
#    z 0.000000 0.000000 1.851940 
# 
# From -- ./inp_files/9146.got.cif
#   From: 2010.05.17/outbox.cif.g08.bks.cpg/sg41_5_cif.got.tgz:9146.got - 2010.06.03 18:54:24.
