data_PCOD9366313
_publ_section_title
;
Structure prediction by ZEFSAII (Michael W. Deem and Ramdas Pophale) SiO2 
 PCOD9366313
Probable space group: A B A 2
;
_chemical_formula_sum "Si O2"
_cell_formula_units_Z 40
_cell_length_a 12.770265
_cell_length_b 5.038047
_cell_length_c 30.027817
_cell_angle_alpha 90.000000
_cell_angle_beta 90.000000
_cell_angle_gamma 90.000000
_cell_volume 1931.905526
_symmetry_space_group_name_H-M "A B A 2"
_symmetry_group_IT_number 41
_symmetry_cell_setting 'orthorhombic'
loop_
_space_group_symop_operation_xyz
x,y,z
-x,-y,z
1/2-x,y,1/2+z
1/2+x,-y,1/2+z
x,1/2+y,1/2+z
-x,1/2-y,1/2+z
1/2-x,1/2+y,z
1/2+x,1/2-y,z
loop_
_atom_site_type_symbol
_atom_site_label
_atom_site_fract_x
_atom_site_fract_y
_atom_site_fract_z
Si Si1 0.310543 0.717890 0.152010
Si Si2 0.431141 0.265811 0.736921
Si Si3 0.323575 0.450939 0.457086
Si Si4 0.500000 0.500000 0.093719
Si Si5 0.500000 0.500000 0.820856
Si Si6 0.000000 0.000000 0.531501
Si Si7 0.000000 0.500000 0.883536
O O1 0.215092 0.521153 0.141439
O O2 0.336689 0.700813 0.204521
O O3 0.407308 0.601800 0.125121
O O4 0.500000 0.500000 0.713595
O O5 0.412092 0.398679 0.785269
O O6 0.500000 0.000000 0.743024
O O7 0.230608 0.664589 0.456504
O O8 0.399260 0.459183 0.499939
O O9 0.399342 0.518596 0.415595
O O10 0.524445 0.746826 0.061839
O O11 0.520367 0.252354 0.852266
#
# Coordination Sequence:
#
# PCOD9366313 Si02
#       7
#     8   8   8   4   4   4   4
#     4  12  26  41  66  96 130 176 221 266 329 386
#     4  10  20  40  66  85 127 180 207 270 319 367
#     4  11  24  44  68  94 132 165 210 265 324 401
#     4  12  26  44  66  97 134 163 220 280 318 386
#     4  10  20  38  70  87 132 169 216 266 318 370
#     4  11  26  43  70  95 124 175 212 259 340 391
#     4  11  22  41  66  99 124 175 208 261 336 377
#
# _framework density 20.704946
#
# number of rings (size 3 to 8) (size 9 to 14) (size 15 to 20)
#    0.600    0.400    2.000    4.800    1.400    8.000 
#    0.000    6.000    0.000    0.000    0.000    0.000 
#    0.000    0.000    0.000    0.000    0.000    0.000 
#
# Total GULP energy -111652.005635 kJ/mol
# GULP energy per Si atom -5582.600282 kJ/mol
# Density = 2.065782 g / cm^3
# Si number density = 20.704946 Si / 1000 Ang^3
#
#
#
# Elastic Constant Matrix: (Units=GPa)
#
#
# Indices 1 2 3 4 5 6 
#
# 1 53.3631 1.3771 33.9806 0.0000 0.0000 0.0000
# 2 1.3771 121.4072 34.5422 0.0000 0.0000 0.0000
# 3 33.9806 34.5422 121.0291 0.0000 0.0000 0.0000
# 4 0.0000 0.0000 0.0000 77.2651 0.0000 0.0000
# 5 0.0000 0.0000 0.0000 0.0000 43.3459 0.0000
# 6 0.0000 0.0000 0.0000 0.0000 0.0000 29.5057
#
#
#
# Elastic Compliance Matrix: (Units=1/GPa)
#
#
# Indices 1 2 3 4 5 6 
#
# 1 0.023147 0.001727 -0.006992 0.000000 0.000000 0.000000
# 2 0.001727 0.009093 -0.003080 0.000000 0.000000 0.000000
# 3 -0.006992 -0.003080 0.011105 0.000000 0.000000 0.000000
# 4 0.000000 0.000000 0.000000 0.012942 0.000000 0.000000
# 5 0.000000 0.000000 0.000000 0.000000 0.023070 0.000000
# 6 0.000000 0.000000 0.000000 0.000000 0.000000 0.033892
#
#
# Mechanical properties :
#
#
# Convention : Reuss Voigt Hill
#
# Bulk Modulus (GPa) = 37.51641 48.39989 42.95815
# Shear Modulus (GPa) = 36.01661 45.08332 40.54996
#
# Velocity S-wave (km/s) = 4.17528 4.67134 4.43026
# Velocity P-wave (km/s) = 6.43450 7.24721 6.85291
#
# Compressibility (1/GPa) = 0.02665501
#
# Stress axis : x y z
#
# Youngs Moduli (GPa) = 43.20182 109.96876 90.05304
#
# Poissons Ratio (x) = -0.18988 0.62962
# Poissons Ratio (y) = -0.07460 0.27737
# Poissons Ratio (z) = 0.30205 0.33872
#
# Static dielectric constant tensor:
#      x y z
#    x 1.687060 0.000000 0.000000 
#    y 0.000000 1.705520 0.000000 
#    z 0.000000 0.000000 1.739700 
# 
# From -- ./inp_files/12492.got.cif
#   From: 2010.05.17/outbox.cif.g08.bks.cpg/sg41_7_cif.got.tgz:12492.got - 2010.06.03 18:54:24.
