data_PCOD9366447
_publ_section_title
;
Structure prediction by ZEFSAII (Michael W. Deem and Ramdas Pophale) SiO2 
 PCOD9366447
Probable space group: A B A 2
;
_chemical_formula_sum "Si O2"
_cell_formula_units_Z 56
_cell_length_a 13.731860
_cell_length_b 15.615627
_cell_length_c 10.904783
_cell_angle_alpha 90.000000
_cell_angle_beta 90.000000
_cell_angle_gamma 90.000000
_cell_volume 2338.330108
_symmetry_space_group_name_H-M "A B A 2"
_symmetry_group_IT_number 41
_symmetry_cell_setting 'orthorhombic'
loop_
_space_group_symop_operation_xyz
x,y,z
-x,-y,z
1/2-x,y,1/2+z
1/2+x,-y,1/2+z
x,1/2+y,1/2+z
-x,1/2-y,1/2+z
1/2-x,1/2+y,z
1/2+x,1/2-y,z
loop_
_atom_site_type_symbol
_atom_site_label
_atom_site_fract_x
_atom_site_fract_y
_atom_site_fract_z
Si Si1 0.788545 0.912934 0.231890
Si Si2 0.534839 0.906590 0.917276
Si Si3 0.549330 0.287810 0.639765
Si Si4 0.203492 0.926522 0.679230
Si Si5 0.577868 0.945702 0.299278
Si Si6 0.339361 0.317069 0.320466
Si Si7 0.336207 0.245234 0.565645
O O1 0.884546 0.914620 0.312608
O O2 0.692726 0.924117 0.319184
O O3 0.788695 0.828565 0.148025
O O4 0.778772 0.997847 0.146383
O O5 0.437749 0.861259 0.867465
O O6 0.500000 0.000000 0.956385
O O7 0.576858 0.848115 0.026131
O O8 0.535722 0.355451 0.751785
O O9 0.627875 0.221509 0.689770
O O10 0.451032 0.240169 0.599567
O O11 0.251008 0.882416 0.800000
O O12 0.187032 0.844746 0.596128
O O13 0.103993 0.978784 0.700143
O O14 0.500000 0.000000 0.380047
O O15 0.314629 0.245344 0.421243
#
# Coordination Sequence:
#
# PCOD9366447 Si02
#       7
#     8   8   8   8   8   8   8
#     4  10  22  42  70 106 140 185 244 303 363 440
#     4  11  21  41  77 106 142 194 243 290 373 443
#     4  11  22  40  71 102 143 188 237 298 355 441
#     4  10  23  43  66 100 138 189 238 304 352 442
#     4  10  20  41  68  95 137 180 236 291 355 426
#     4  11  24  44  69 107 146 185 243 304 359 441
#     4  11  23  45  70 106 148 186 242 303 374 434
#
# _framework density 23.948715
#
# number of rings (size 3 to 8) (size 9 to 14) (size 15 to 20)
#    0.857    0.571    4.286    1.286    2.000    0.000 
#   12.857    0.000    0.000    5.143    0.000    0.000 
#    0.000    0.000    0.000    0.000    0.000    0.000 
#
# Total GULP energy -155998.086329 kJ/mol
# GULP energy per Si atom -5571.360226 kJ/mol
# Density = 2.389421 g / cm^3
# Si number density = 23.948715 Si / 1000 Ang^3
#
#
#
# Elastic Constant Matrix: (Units=GPa)
#
#
# Indices 1 2 3 4 5 6 
#
# 1 90.6258 22.5804 26.1978 0.0000 0.0000 0.0000
# 2 22.5804 133.8250 38.8212 0.0000 0.0000 0.0000
# 3 26.1978 38.8212 55.2354 0.0000 0.0000 0.0000
# 4 0.0000 0.0000 0.0000 26.2769 0.0000 0.0000
# 5 0.0000 0.0000 0.0000 0.0000 14.7433 0.0000
# 6 0.0000 0.0000 0.0000 0.0000 0.0000 34.1678
#
#
#
# Elastic Compliance Matrix: (Units=1/GPa)
#
#
# Indices 1 2 3 4 5 6 
#
# 1 0.012814 -0.000501 -0.005725 0.000000 0.000000 0.000000
# 2 -0.000501 0.009406 -0.006373 0.000000 0.000000 0.000000
# 3 -0.005725 -0.006373 0.025299 0.000000 0.000000 0.000000
# 4 0.000000 0.000000 0.000000 0.038056 0.000000 0.000000
# 5 0.000000 0.000000 0.000000 0.000000 0.067828 0.000000
# 6 0.000000 0.000000 0.000000 0.000000 0.000000 0.029267
#
#
# Mechanical properties :
#
#
# Convention : Reuss Voigt Hill
#
# Bulk Modulus (GPa) = 44.80331 50.54280 47.67305
# Shear Modulus (GPa) = 23.22239 27.84337 25.53288
#
# Velocity S-wave (km/s) = 3.11733 3.41343 3.26873
# Velocity P-wave (km/s) = 5.63078 6.05687 5.84771
#
# Compressibility (1/GPa) = 0.02231978
#
# Stress axis : x y z
#
# Youngs Moduli (GPa) = 78.03728 106.31803 39.52731
#
# Poissons Ratio (x) = 0.05330 0.22631
# Poissons Ratio (y) = 0.03912 0.25190
# Poissons Ratio (z) = 0.44680 0.67755
#
# Static dielectric constant tensor:
#      x y z
#    x 1.995060 0.000000 0.000000 
#    y 0.000000 1.956320 0.000000 
#    z 0.000000 0.000000 1.971980 
# 
# From -- ./inp_files/5586.got.cif
#   From: 2010.05.17/outbox.cif.g08.bks.cpg/sg41_3_cif.got.tgz:5586.got - 2010.06.03 18:54:24.
