data_PCOD9366047
_publ_section_title
;
Structure prediction by ZEFSAII (Michael W. Deem and Ramdas Pophale) SiO2 
 PCOD9366047
Probable space group: A B A 2
;
_chemical_formula_sum "Si O2"
_cell_formula_units_Z 56
_cell_length_a 7.850059
_cell_length_b 21.822642
_cell_length_c 13.105206
_cell_angle_alpha 90.000000
_cell_angle_beta 90.000000
_cell_angle_gamma 90.000000
_cell_volume 2245.040092
_symmetry_space_group_name_H-M "A B A 2"
_symmetry_group_IT_number 41
_symmetry_cell_setting 'orthorhombic'
loop_
_space_group_symop_operation_xyz
x,y,z
-x,-y,z
1/2-x,y,1/2+z
1/2+x,-y,1/2+z
x,1/2+y,1/2+z
-x,1/2-y,1/2+z
1/2-x,1/2+y,z
1/2+x,1/2-y,z
loop_
_atom_site_type_symbol
_atom_site_label
_atom_site_fract_x
_atom_site_fract_y
_atom_site_fract_z
Si Si1 0.500000 0.500000 0.278311
Si Si2 0.142720 0.569060 0.940136
Si Si3 0.298212 0.907698 0.660505
Si Si4 0.004320 0.269481 0.080789
Si Si5 0.299730 0.290837 0.778316
Si Si6 0.279001 0.368177 0.455187
Si Si7 0.308102 0.191518 0.452207
Si Si8 0.500000 0.500000 0.628586
O O1 0.345625 0.518383 0.353119
O O2 0.451735 0.443765 0.208777
O O3 0.955645 0.600020 0.918988
O O4 0.279568 0.621518 0.926192
O O5 0.121852 0.539310 0.051562
O O6 0.303647 0.837535 0.703129
O O7 0.310398 0.909060 0.538592
O O8 0.122231 0.947936 0.680471
O O9 0.054011 0.268284 0.199723
O O10 0.138283 0.313013 0.021520
O O11 0.023280 0.208787 0.013639
O O12 0.826001 0.297498 0.046833
O O13 0.332503 0.342772 0.863405
O O14 0.232123 0.234775 0.851851
#
# Coordination Sequence:
#
# PCOD9366047 Si02
#       8
#     4   8   8   8   8   8   8   4
#     4  11  20  36  65  88 114 164 219 252 297 376
#     4   9  18  37  61  80 118 164 203 245 307 366
#     4  10  20  37  62  91 115 163 210 251 310 368
#     4   9  20  35  58  86 118 160 198 243 309 370
#     4  10  19  38  63  84 123 163 200 247 315 382
#     4   8  16  35  59  80 114 158 200 240 301 371
#     4  10  21  39  58  91 122 157 205 256 309 374
#     4   9  20  40  59  80 130 162 199 254 307 370
#
# _framework density 24.943874000000001
#
# number of rings (size 3 to 8) (size 9 to 14) (size 15 to 20)
#    0.000    2.571    1.429    0.857    0.000    3.429 
#    7.714    0.714    0.000    0.000    0.000    0.000 
#    0.000    0.000    0.000    0.000    0.000    0.000 
#
# Total GULP energy -155905.767026 kJ/mol
# GULP energy per Si atom -5568.063108 kJ/mol
# Density = 2.488710 g / cm^3
# Si number density = 24.943874 Si / 1000 Ang^3
#
#
#
# Elastic Constant Matrix: (Units=GPa)
#
#
# Indices 1 2 3 4 5 6 
#
# 1 38.0850 10.7357 21.7581 0.0000 0.0000 0.0000
# 2 10.7357 100.9079 6.0962 0.0000 0.0000 0.0000
# 3 21.7581 6.0962 123.7076 0.0000 0.0000 0.0000
# 4 0.0000 0.0000 0.0000 39.7133 0.0000 0.0000
# 5 0.0000 0.0000 0.0000 0.0000 26.0276 0.0000
# 6 0.0000 0.0000 0.0000 0.0000 0.0000 36.9771
#
#
#
# Elastic Compliance Matrix: (Units=1/GPa)
#
#
# Indices 1 2 3 4 5 6 
#
# 1 0.030003 -0.002882 -0.005135 0.000000 0.000000 0.000000
# 2 -0.002882 0.010216 0.000003 0.000000 0.000000 0.000000
# 3 -0.005135 0.000003 0.008987 0.000000 0.000000 0.000000
# 4 0.000000 0.000000 0.000000 0.025180 0.000000 0.000000
# 5 0.000000 0.000000 0.000000 0.000000 0.038421 0.000000
# 6 0.000000 0.000000 0.000000 0.000000 0.000000 0.027044
#
#
# Mechanical properties :
#
#
# Convention : Reuss Voigt Hill
#
# Bulk Modulus (GPa) = 30.13937 37.76448 33.95193
# Shear Modulus (GPa) = 29.95130 35.48431 32.71781
#
# Velocity S-wave (km/s) = 3.46894 3.77578 3.62561
# Velocity P-wave (km/s) = 5.30602 5.84648 5.58280
#
# Compressibility (1/GPa) = 0.03317919
#
# Stress axis : x y z
#
# Youngs Moduli (GPa) = 33.32988 97.88160 111.27707
#
# Poissons Ratio (x) = 0.28208 0.57141
# Poissons Ratio (y) = 0.09605 -0.00038
# Poissons Ratio (z) = 0.17115 -0.00033
#
# Static dielectric constant tensor:
#      x y z
#    x 2.134640 0.000000 0.000000 
#    y 0.000000 2.130380 0.000000 
#    z 0.000000 0.000000 2.018800 
# 
# From -- ./inp_files/5108.got.cif
#   From: 2010.05.17/outbox.cif.g08.bks.cpg/sg41_3_cif.got.tgz:5108.got - 2010.06.03 18:54:24.
