data_PCOD9366973
_publ_section_title
;
Structure prediction by ZEFSAII (Michael W. Deem and Ramdas Pophale) SiO2 
 PCOD9366973
Probable space group: A B A 2
;
_chemical_formula_sum "Si O2"
_cell_formula_units_Z 64
_cell_length_a 12.380752
_cell_length_b 15.936492
_cell_length_c 14.865535
_cell_angle_alpha 90.000000
_cell_angle_beta 90.000000
_cell_angle_gamma 90.000000
_cell_volume 2933.055610
_symmetry_space_group_name_H-M "A B A 2"
_symmetry_group_IT_number 41
_symmetry_cell_setting 'orthorhombic'
loop_
_space_group_symop_operation_xyz
x,y,z
-x,-y,z
1/2-x,y,1/2+z
1/2+x,-y,1/2+z
x,1/2+y,1/2+z
-x,1/2-y,1/2+z
1/2-x,1/2+y,z
1/2+x,1/2-y,z
loop_
_atom_site_type_symbol
_atom_site_label
_atom_site_fract_x
_atom_site_fract_y
_atom_site_fract_z
Si Si1 0.393556 0.218442 0.252360
Si Si2 0.208559 0.348603 0.867940
Si Si3 0.276192 0.445131 0.181699
Si Si4 0.133233 0.232914 0.462522
Si Si5 0.518842 0.597470 0.473206
Si Si6 0.462670 0.905791 0.176728
Si Si7 0.231011 0.135882 0.116084
Si Si8 0.975546 0.153882 0.110033
O O1 0.357630 0.265810 0.339532
O O2 0.477605 0.143679 0.254952
O O3 0.287367 0.189548 0.196220
O O4 0.456824 0.286983 0.195036
O O5 0.205814 0.418256 0.787580
O O6 0.317877 0.303309 0.896857
O O7 0.143327 0.385875 0.951418
O O8 0.165013 0.393978 0.167392
O O9 0.245964 0.539000 0.147511
O O10 0.383412 0.416973 0.127463
O O11 0.061280 0.158751 0.419436
O O12 0.220012 0.181225 0.525862
O O13 0.058468 0.289815 0.526108
O O14 0.500000 0.500000 0.455912
O O15 0.493056 0.616438 0.577603
O O16 0.500000 0.000000 0.190935
O O17 0.101635 0.134188 0.107404
#
# Coordination Sequence:
#
# PCOD9366973 Si02
#       8
#     8   8   8   8   8   8   8   8
#     4  10  23  39  63  96 126 180 222 282 336 406
#     4  11  27  39  62 103 141 171 218 290 361 399
#     4  11  24  40  66  99 133 179 222 284 342 406
#     4  11  23  42  65  99 131 180 224 283 345 411
#     4  11  23  43  68  93 130 179 226 274 342 418
#     4  11  20  43  71  92 123 176 241 267 326 424
#     4  11  21  44  67  95 130 175 240 273 333 415
#     4  10  22  37  67  95 130 173 228 283 332 407
#
# _framework density 21.820249
#
# number of rings (size 3 to 8) (size 9 to 14) (size 15 to 20)
#    0.000    1.250    3.750    2.625    7.000    4.000 
#    0.000    0.000    0.000    0.000    0.000    0.000 
#    0.000    0.000    0.000    0.000    0.000    0.000 
#
# Total GULP energy -178242.087332 kJ/mol
# GULP energy per Si atom -5570.065229 kJ/mol
# Density = 2.177059 g / cm^3
# Si number density = 21.820249 Si / 1000 Ang^3
#
#
#
# Elastic Constant Matrix: (Units=GPa)
#
#
# Indices 1 2 3 4 5 6 
#
# 1 118.8309 15.0494 9.0336 0.0000 0.0000 0.0000
# 2 15.0494 69.6647 22.2786 0.0000 0.0000 0.0000
# 3 9.0336 22.2786 35.7375 0.0000 0.0000 0.0000
# 4 0.0000 0.0000 0.0000 17.4857 0.0000 0.0000
# 5 0.0000 0.0000 0.0000 0.0000 6.7102 0.0000
# 6 0.0000 0.0000 0.0000 0.0000 0.0000 41.7101
#
#
#
# Elastic Compliance Matrix: (Units=1/GPa)
#
#
# Indices 1 2 3 4 5 6 
#
# 1 0.008699 -0.001469 -0.001283 0.000000 0.000000 0.000000
# 2 -0.001469 0.018177 -0.010960 0.000000 0.000000 0.000000
# 3 -0.001283 -0.010960 0.035139 0.000000 0.000000 0.000000
# 4 0.000000 0.000000 0.000000 0.057190 0.000000 0.000000
# 5 0.000000 0.000000 0.000000 0.000000 0.149027 0.000000
# 6 0.000000 0.000000 0.000000 0.000000 0.000000 0.023975
#
#
# Mechanical properties :
#
#
# Convention : Reuss Voigt Hill
#
# Bulk Modulus (GPa) = 28.90995 35.21735 32.06365
# Shear Modulus (GPa) = 15.09844 25.03930 20.06887
#
# Velocity S-wave (km/s) = 2.63334 3.39119 3.03601
# Velocity P-wave (km/s) = 4.74593 5.61323 5.19770
#
# Compressibility (1/GPa) = 0.03459017
#
# Stress axis : x y z
#
# Youngs Moduli (GPa) = 114.95716 55.01534 28.45872
#
# Poissons Ratio (x) = 0.08081 0.03652
# Poissons Ratio (y) = 0.16885 0.31191
# Poissons Ratio (z) = 0.14751 0.60297
#
# Static dielectric constant tensor:
#      x y z
#    x 1.946290 0.000000 0.000000 
#    y 0.000000 1.863610 0.000000 
#    z 0.000000 0.000000 1.831440 
# 
# From -- ./inp_files/10132.got.cif
#   From: 2010.05.17/outbox.cif.g08.bks.cpg/sg41_6_cif.got.tgz:10132.got - 2010.06.03 18:54:24.
