data_PCOD9366759
_publ_section_title
;
Structure prediction by ZEFSAII (Michael W. Deem and Ramdas Pophale) SiO2 
 PCOD9366759
Probable space group: A B A 2
;
_chemical_formula_sum "Si O2"
_cell_formula_units_Z 52
_cell_length_a 19.208657
_cell_length_b 18.332229
_cell_length_c 6.825807
_cell_angle_alpha 90.000000
_cell_angle_beta 90.000000
_cell_angle_gamma 90.000000
_cell_volume 2403.622605
_symmetry_space_group_name_H-M "A B A 2"
_symmetry_group_IT_number 41
_symmetry_cell_setting 'orthorhombic'
loop_
_space_group_symop_operation_xyz
x,y,z
-x,-y,z
1/2-x,y,1/2+z
1/2+x,-y,1/2+z
x,1/2+y,1/2+z
-x,1/2-y,1/2+z
1/2-x,1/2+y,z
1/2+x,1/2-y,z
loop_
_atom_site_type_symbol
_atom_site_label
_atom_site_fract_x
_atom_site_fract_y
_atom_site_fract_z
Si Si1 0.250896 0.406369 0.657830
Si Si2 0.098008 0.740072 0.488959
Si Si3 0.651082 0.504402 0.404413
Si Si4 0.500000 0.000000 0.060684
Si Si5 0.515225 0.840437 0.160583
Si Si6 0.144606 0.662833 0.866460
Si Si7 0.247273 0.792311 0.403571
O O1 0.314859 0.458611 0.597427
O O2 0.181738 0.451336 0.720053
O O3 0.267553 0.384351 0.909260
O O4 0.259210 0.313344 0.654609
O O5 0.043627 0.701950 0.346680
O O6 0.123824 0.680906 0.644810
O O7 0.165367 0.771645 0.380964
O O8 0.057595 0.805620 0.595461
O O9 0.568429 0.508733 0.427348
O O10 0.671235 0.419472 0.391308
O O11 0.508238 0.926796 0.185754
O O12 0.574827 0.829619 0.995681
O O13 0.201237 0.723615 0.921226
#
# Coordination Sequence:
#
# PCOD9366759 Si02
#       7
#     8   8   8   4   8   8   8
#     4  10  21  40  67  95 129 180 219 283 338 413
#     4  12  24  44  72 103 134 181 236 282 345 419
#     4  10  24  43  67  96 139 177 228 279 354 403
#     4  10  24  46  66  96 142 182 222 292 344 416
#     4  11  24  45  70  96 139 182 227 283 348 408
#     4  11  25  43  66 101 136 178 225 289 335 411
#     4  11  22  41  68  98 132 173 230 279 339 406
#
# _framework density 21.634011000000001
#
# number of rings (size 3 to 8) (size 9 to 14) (size 15 to 20)
#    0.000    1.231    3.077    2.769    2.154    1.231 
#    5.538    3.077    0.000    0.000    0.000    0.000 
#    0.000    0.000    0.000    0.000    0.000    0.000 
#
# Total GULP energy -145073.960702 kJ/mol
# GULP energy per Si atom -5579.767719 kJ/mol
# Density = 2.158477 g / cm^3
# Si number density = 21.634011 Si / 1000 Ang^3
#
#
#
# Elastic Constant Matrix: (Units=GPa)
#
#
# Indices 1 2 3 4 5 6 
#
# 1 118.3728 62.3845 18.0008 0.0000 0.0000 0.0000
# 2 62.3845 160.2836 49.5585 0.0000 0.0000 0.0000
# 3 18.0008 49.5585 97.5801 0.0000 0.0000 0.0000
# 4 0.0000 0.0000 0.0000 40.5480 0.0000 0.0000
# 5 0.0000 0.0000 0.0000 0.0000 25.7779 0.0000
# 6 0.0000 0.0000 0.0000 0.0000 0.0000 34.6668
#
#
#
# Elastic Compliance Matrix: (Units=1/GPa)
#
#
# Indices 1 2 3 4 5 6 
#
# 1 0.010630 -0.004189 0.000166 0.000000 0.000000 0.000000
# 2 -0.004189 0.009052 -0.003824 0.000000 0.000000 0.000000
# 3 0.000166 -0.003824 0.012160 0.000000 0.000000 0.000000
# 4 0.000000 0.000000 0.000000 0.024662 0.000000 0.000000
# 5 0.000000 0.000000 0.000000 0.000000 0.038793 0.000000
# 6 0.000000 0.000000 0.000000 0.000000 0.000000 0.028846
#
#
# Mechanical properties :
#
#
# Convention : Reuss Voigt Hill
#
# Bulk Modulus (GPa) = 61.92770 70.68046 66.30408
# Shear Modulus (GPa) = 34.43074 36.61806 35.52440
#
# Velocity S-wave (km/s) = 3.99370 4.11860 4.05663
# Velocity P-wave (km/s) = 7.06778 7.44037 7.25647
#
# Compressibility (1/GPa) = 0.01614786
#
# Stress axis : x y z
#
# Youngs Moduli (GPa) = 94.07184 110.47532 82.23936
#
# Poissons Ratio (x) = 0.46277 -0.01369
# Poissons Ratio (y) = 0.39405 0.31452
# Poissons Ratio (z) = -0.01566 0.42251
#
# Static dielectric constant tensor:
#      x y z
#    x 1.712750 0.000000 0.000000 
#    y 0.000000 1.772220 0.000000 
#    z 0.000000 0.000000 1.987370 
# 
# From -- ./inp_files/3107.got.cif
#   From: 2010.05.17/outbox.cif.g08.bks.cpg/sg41_2_cif.got.tgz:3107.got - 2010.06.03 18:54:24.
