data_PCOD9366710
_publ_section_title
;
Structure prediction by ZEFSAII (Michael W. Deem and Ramdas Pophale) SiO2 
 PCOD9366710
Probable space group: A B A 2
;
_chemical_formula_sum "Si O2"
_cell_formula_units_Z 60
_cell_length_a 26.430926
_cell_length_b 12.620344
_cell_length_c 7.137090
_cell_angle_alpha 90.000000
_cell_angle_beta 90.000000
_cell_angle_gamma 90.000000
_cell_volume 2380.700400
_symmetry_space_group_name_H-M "A B A 2"
_symmetry_group_IT_number 41
_symmetry_cell_setting 'orthorhombic'
loop_
_space_group_symop_operation_xyz
x,y,z
-x,-y,z
1/2-x,y,1/2+z
1/2+x,-y,1/2+z
x,1/2+y,1/2+z
-x,1/2-y,1/2+z
1/2-x,1/2+y,z
1/2+x,1/2-y,z
loop_
_atom_site_type_symbol
_atom_site_label
_atom_site_fract_x
_atom_site_fract_y
_atom_site_fract_z
Si Si1 0.077634 0.339598 0.240430
Si Si2 0.194779 0.635297 0.167098
Si Si3 0.000000 0.000000 0.752439
Si Si4 0.938611 0.393639 0.807574
Si Si5 0.761389 0.725837 0.391282
Si Si6 0.556365 0.620987 0.185405
Si Si7 0.685155 0.594245 0.603322
Si Si8 0.415404 0.146853 0.251251
O O1 0.082471 0.213925 0.215055
O O2 0.066229 0.358829 0.463097
O O3 0.127563 0.391109 0.158535
O O4 0.031037 0.405757 0.151027
O O5 0.244984 0.669540 0.277863
O O6 0.197663 0.525772 0.056473
O O7 0.143465 0.625356 0.284914
O O8 0.194023 0.735452 0.027364
O O9 0.955796 0.930520 0.851503
O O10 0.919041 0.509422 0.746486
O O11 0.997559 0.387587 0.745697
O O12 0.926819 0.379384 0.029832
O O13 0.707932 0.682933 0.467662
O O14 0.782946 0.625102 0.286510
O O15 0.575028 0.729266 0.281435
#
# Coordination Sequence:
#
# PCOD9366710 Si02
#       8
#     8   8   4   8   8   8   8   8
#     4  11  23  39  65  95 130 174 221 267 330 404
#     4  11  23  45  69  99 132 172 220 277 344 397
#     4  12  20  40  56  92 136 168 208 272 308 390
#     4  10  21  40  59  87 127 177 222 268 318 384
#     4  10  24  44  70  98 130 168 224 286 332 400
#     4  10  21  40  59  87 127 177 222 268 318 384
#     4  11  23  45  69  99 132 172 220 277 344 397
#     4  11  23  39  65  95 130 174 221 267 330 404
#
# _framework density 25.202667000000002
#
# number of rings (size 3 to 8) (size 9 to 14) (size 15 to 20)
#    0.000    1.333    2.667    4.000    0.000    2.133 
#    4.800    6.667    0.000    0.000    0.000    0.000 
#    0.000    0.000    0.000    0.000    0.000    0.000 
#
# Total GULP energy -167500.457312 kJ/mol
# GULP energy per Si atom -5583.348577 kJ/mol
# Density = 2.514530 g / cm^3
# Si number density = 25.202667 Si / 1000 Ang^3
#
#
#
# Elastic Constant Matrix: (Units=GPa)
#
#
# Indices 1 2 3 4 5 6 
#
# 1 94.8450 5.0429 -2.6829 0.0000 0.0000 0.0000
# 2 5.0429 188.6001 7.2643 0.0000 0.0000 0.0000
# 3 -2.6829 7.2643 58.7759 0.0000 0.0000 0.0000
# 4 0.0000 0.0000 0.0000 33.3028 0.0000 0.0000
# 5 0.0000 0.0000 0.0000 0.0000 15.1959 0.0000
# 6 0.0000 0.0000 0.0000 0.0000 0.0000 36.2317
#
#
#
# Elastic Compliance Matrix: (Units=1/GPa)
#
#
# Indices 1 2 3 4 5 6 
#
# 1 0.010574 -0.000303 0.000520 0.000000 0.000000 0.000000
# 2 -0.000303 0.005336 -0.000673 0.000000 0.000000 0.000000
# 3 0.000520 -0.000673 0.017121 0.000000 0.000000 0.000000
# 4 0.000000 0.000000 0.000000 0.030028 0.000000 0.000000
# 5 0.000000 0.000000 0.000000 0.000000 0.065807 0.000000
# 6 0.000000 0.000000 0.000000 0.000000 0.000000 0.027600
#
#
# Mechanical properties :
#
#
# Convention : Reuss Voigt Hill
#
# Bulk Modulus (GPa) = 31.13394 40.16329 35.64861
# Shear Modulus (GPa) = 29.74690 39.11919 34.43305
#
# Velocity S-wave (km/s) = 3.43929 3.94405 3.70029
# Velocity P-wave (km/s) = 5.30583 6.05900 5.69488
#
# Compressibility (1/GPa) = 0.03211929
#
# Stress axis : x y z
#
# Youngs Moduli (GPa) = 94.56865 187.39734 58.40867
#
# Poissons Ratio (x) = 0.05674 -0.03038
# Poissons Ratio (y) = 0.02863 0.03933
# Poissons Ratio (z) = -0.04919 0.12618
#
# Static dielectric constant tensor:
#      x y z
#    x 1.978370 0.000000 0.000000 
#    y 0.000000 1.969770 0.000000 
#    z 0.000000 0.000000 2.202680 
# 
# From -- ./inp_files/3827.got.cif
#   From: 2010.05.17/outbox.cif.g08.bks.cpg/sg41_2_cif.got.tgz:3827.got - 2010.06.03 18:54:24.
