data_PCOD9366708
_publ_section_title
;
Structure prediction by ZEFSAII (Michael W. Deem and Ramdas Pophale) SiO2 
 PCOD9366708
Probable space group: A B A 2
;
_chemical_formula_sum "Si O2"
_cell_formula_units_Z 48
_cell_length_a 16.773825
_cell_length_b 9.028475
_cell_length_c 12.344792
_cell_angle_alpha 90.000000
_cell_angle_beta 90.000000
_cell_angle_gamma 90.000000
_cell_volume 1869.520727
_symmetry_space_group_name_H-M "A B A 2"
_symmetry_group_IT_number 41
_symmetry_cell_setting 'orthorhombic'
loop_
_space_group_symop_operation_xyz
x,y,z
-x,-y,z
1/2-x,y,1/2+z
1/2+x,-y,1/2+z
x,1/2+y,1/2+z
-x,1/2-y,1/2+z
1/2-x,1/2+y,z
1/2+x,1/2-y,z
loop_
_atom_site_type_symbol
_atom_site_label
_atom_site_fract_x
_atom_site_fract_y
_atom_site_fract_z
Si Si1 0.933964 0.393586 0.510380
Si Si2 0.264145 0.037205 0.166294
Si Si3 0.994486 0.323911 0.836687
Si Si4 0.646805 0.672653 0.235559
Si Si5 0.349780 0.362060 0.861056
Si Si6 0.196434 0.329283 0.981902
O O1 0.983345 0.265685 0.446209
O O2 0.897789 0.508291 0.422041
O O3 0.855248 0.296253 0.541411
O O4 0.000000 0.500000 0.569378
O O5 0.173321 0.975698 0.175152
O O6 0.304383 0.945193 0.264923
O O7 0.294003 0.201573 0.190730
O O8 0.299210 0.973823 0.055157
O O9 0.054750 0.279389 0.738791
O O10 0.000000 0.500000 0.849344
O O11 0.906623 0.263588 0.814099
O O12 0.658229 0.647581 0.364055
O O13 0.286843 0.292967 0.945783
#
# Coordination Sequence:
#
# PCOD9366708 Si02
#       6
#     8   8   8   8   8   8
#     4   9  19  41  66  97 141 190 238 305 383 442
#     4  11  23  40  67  99 137 181 242 299 370 442
#     4  10  21  39  68  94 138 189 232 301 382 439
#     4  10  24  42  64 102 139 180 241 301 368 446
#     4  10  21  40  66  94 139 185 239 304 369 446
#     4  10  22  38  69 101 135 184 243 300 369 440
#
# _framework density 25.67503
#
# number of rings (size 3 to 8) (size 9 to 14) (size 15 to 20)
#    0.000    2.000    3.333    0.000    7.000    1.333 
#    0.000    5.833    0.000    0.000    0.000    0.000 
#    0.000    0.000    0.000    0.000    0.000    0.000 
#
# Total GULP energy -134055.862014 kJ/mol
# GULP energy per Si atom -5585.660917 kJ/mol
# Density = 2.561659 g / cm^3
# Si number density = 25.675030 Si / 1000 Ang^3
#
#
#
# Elastic Constant Matrix: (Units=GPa)
#
#
# Indices 1 2 3 4 5 6 
#
# 1 97.2711 36.7737 -3.6929 0.0000 0.0000 0.0000
# 2 36.7737 148.2834 26.3046 0.0000 0.0000 0.0000
# 3 -3.6929 26.3046 90.7501 0.0000 0.0000 0.0000
# 4 0.0000 0.0000 0.0000 48.1045 0.0000 0.0000
# 5 0.0000 0.0000 0.0000 0.0000 -15.8652 0.0000
# 6 0.0000 0.0000 0.0000 0.0000 0.0000 31.6350
#
#
#
# Elastic Compliance Matrix: (Units=1/GPa)
#
#
# Indices 1 2 3 4 5 6 
#
# 1 0.011502 -0.003095 0.001365 0.000000 0.000000 0.000000
# 2 -0.003095 0.007942 -0.002428 0.000000 0.000000 0.000000
# 3 0.001365 -0.002428 0.011779 0.000000 0.000000 0.000000
# 4 0.000000 0.000000 0.000000 0.020788 0.000000 0.000000
# 5 0.000000 0.000000 0.000000 0.000000 -0.063031 0.000000
# 6 0.000000 0.000000 0.000000 0.000000 0.000000 0.031611
#
#
# Mechanical properties :
#
#
# Convention : Reuss Voigt Hill
#
# Bulk Modulus (GPa) = 43.65334 50.56393 47.10864
# Shear Modulus (GPa) = 136.82982 31.23614 84.03298
#
# Velocity S-wave (km/s) = 7.30812 3.49176 5.72717
# Velocity P-wave (km/s) = 9.39418 5.99942 7.88174
#
# Compressibility (1/GPa) = 0.02290775
#
# Stress axis : x y z
#
# Youngs Moduli (GPa) = 86.93892 125.91247 84.89985
#
# Poissons Ratio (x) = 0.38966 -0.11590
# Poissons Ratio (y) = 0.26905 0.20614
# Poissons Ratio (z) = -0.11868 0.30571
#
# Static dielectric constant tensor:
#      x y z
#    x 2.268590 0.000000 0.000000 
#    y 0.000000 1.978570 0.000000 
#    z 0.000000 0.000000 2.009860 
# 
# From -- ./inp_files/8945.got.cif
#   From: 2010.05.17/outbox.cif.g08.bks.cpg/sg41_5_cif.got.tgz:8945.got - 2010.06.03 18:54:24.
