data_PCOD9366555
_publ_section_title
;
Structure prediction by ZEFSAII (Michael W. Deem and Ramdas Pophale) SiO2 
 PCOD9366555
Probable space group: A B A 2
;
_chemical_formula_sum "Si O2"
_cell_formula_units_Z 60
_cell_length_a 31.504356
_cell_length_b 10.420572
_cell_length_c 8.915798
_cell_angle_alpha 90.000000
_cell_angle_beta 90.000000
_cell_angle_gamma 90.000000
_cell_volume 2926.997728
_symmetry_space_group_name_H-M "A B A 2"
_symmetry_group_IT_number 41
_symmetry_cell_setting 'orthorhombic'
loop_
_space_group_symop_operation_xyz
x,y,z
-x,-y,z
1/2-x,y,1/2+z
1/2+x,-y,1/2+z
x,1/2+y,1/2+z
-x,1/2-y,1/2+z
1/2-x,1/2+y,z
1/2+x,1/2-y,z
loop_
_atom_site_type_symbol
_atom_site_label
_atom_site_fract_x
_atom_site_fract_y
_atom_site_fract_z
Si Si1 0.706331 0.618164 0.990160
Si Si2 0.000000 0.500000 0.076472
Si Si3 0.342506 0.139625 0.487000
Si Si4 0.656864 0.351765 0.345764
Si Si5 0.798545 0.119489 0.348633
Si Si6 0.009883 0.824178 0.847286
Si Si7 0.936299 0.961292 0.999173
Si Si8 0.938709 0.433247 0.842546
O O1 0.689083 0.477118 0.947457
O O2 0.753181 0.638936 0.925991
O O3 0.675373 0.727449 0.926332
O O4 0.706577 0.625298 0.169794
O O5 0.005107 0.620488 0.187377
O O6 0.958577 0.518381 0.973585
O O7 0.339385 0.164311 0.665789
O O8 0.329979 0.268247 0.401355
O O9 0.390054 0.089810 0.457624
O O10 0.683030 0.479507 0.388194
O O11 0.607680 0.379966 0.379876
O O12 0.027902 0.683450 0.835719
O O13 0.971268 0.853066 0.960152
O O14 0.047985 0.916410 0.905247
O O15 0.936784 0.992782 0.176426
#
# Coordination Sequence:
#
# PCOD9366555 Si02
#       8
#     8   4   8   8   8   8   8   8
#     4  11  23  41  62  87 117 152 191 236 292 350
#     4  10  22  34  54  86 112 150 200 234 282 346
#     4  10  22  41  63  87 118 155 195 242 292 347
#     4  10  24  40  60  91 119 151 198 242 290 349
#     4  11  24  40  62  89 117 150 191 238 291 350
#     4  10  21  37  55  82 117 153 195 240 286 339
#     4   9  20  38  58  82 115 153 193 238 289 339
#     4  11  21  37  59  82 115 154 191 238 289 340
#
# _framework density 20.498819999999998
#
# number of rings (size 3 to 8) (size 9 to 14) (size 15 to 20)
#    0.000    1.867    0.000    4.000    0.000    9.600 
#    0.000    2.667    0.000    0.000    0.000    0.000 
#    0.000    0.000    0.000    0.000    0.000    0.000 
#
# Total GULP energy -167720.372120 kJ/mol
# GULP energy per Si atom -5590.679071 kJ/mol
# Density = 2.045216 g / cm^3
# Si number density = 20.498820 Si / 1000 Ang^3
#
#
#
# Elastic Constant Matrix: (Units=GPa)
#
#
# Indices 1 2 3 4 5 6 
#
# 1 61.3601 -18.7533 9.3707 0.0000 0.0000 0.0000
# 2 -18.7533 51.6513 5.4378 0.0000 0.0000 0.0000
# 3 9.3707 5.4378 46.4647 0.0000 0.0000 0.0000
# 4 0.0000 0.0000 0.0000 25.1742 0.0000 0.0000
# 5 0.0000 0.0000 0.0000 0.0000 27.5231 0.0000
# 6 0.0000 0.0000 0.0000 0.0000 0.0000 25.9555
#
#
#
# Elastic Compliance Matrix: (Units=1/GPa)
#
#
# Indices 1 2 3 4 5 6 
#
# 1 0.019325 0.007519 -0.004777 0.000000 0.000000 0.000000
# 2 0.007519 0.022528 -0.004153 0.000000 0.000000 0.000000
# 3 -0.004777 -0.004153 0.022971 0.000000 0.000000 0.000000
# 4 0.000000 0.000000 0.000000 0.039723 0.000000 0.000000
# 5 0.000000 0.000000 0.000000 0.000000 0.036333 0.000000
# 6 0.000000 0.000000 0.000000 0.000000 0.000000 0.038527
#
#
# Mechanical properties :
#
#
# Convention : Reuss Voigt Hill
#
# Bulk Modulus (GPa) = 16.12845 16.84294 16.48569
# Shear Modulus (GPa) = 24.64306 26.62529 25.63418
#
# Velocity S-wave (km/s) = 3.47099 3.60789 3.54011
# Velocity P-wave (km/s) = 4.89375 5.05868 4.97690
#
# Compressibility (1/GPa) = 0.06200225
#
# Stress axis : x y z
#
# Youngs Moduli (GPa) = 51.74672 44.38946 43.53284
#
# Poissons Ratio (x) = -0.33378 0.20797
# Poissons Ratio (y) = -0.38910 0.18079
# Poissons Ratio (z) = 0.24721 0.18434
#
# Static dielectric constant tensor:
#      x y z
#    x 1.704850 0.000000 0.000000 
#    y 0.000000 1.729850 0.000000 
#    z 0.000000 0.000000 1.729780 
# 
# From -- ./inp_files/3955.got.cif
#   From: 2010.05.17/outbox.cif.g08.bks.cpg/sg41_2_cif.got.tgz:3955.got - 2010.06.03 18:54:24.
