data_PCOD9366335
_publ_section_title
;
Structure prediction by ZEFSAII (Michael W. Deem and Ramdas Pophale) SiO2 
 PCOD9366335
Probable space group: A B A 2
;
_chemical_formula_sum "Si O2"
_cell_formula_units_Z 60
_cell_length_a 9.048575
_cell_length_b 24.589399
_cell_length_c 12.264030
_cell_angle_alpha 90.000000
_cell_angle_beta 90.000000
_cell_angle_gamma 90.000000
_cell_volume 2728.734669
_symmetry_space_group_name_H-M "A B A 2"
_symmetry_group_IT_number 41
_symmetry_cell_setting 'orthorhombic'
loop_
_space_group_symop_operation_xyz
x,y,z
-x,-y,z
1/2-x,y,1/2+z
1/2+x,-y,1/2+z
x,1/2+y,1/2+z
-x,1/2-y,1/2+z
1/2-x,1/2+y,z
1/2+x,1/2-y,z
loop_
_atom_site_type_symbol
_atom_site_label
_atom_site_fract_x
_atom_site_fract_y
_atom_site_fract_z
Si Si1 0.267669 0.946494 0.013850
Si Si2 0.922525 0.083980 0.819266
Si Si3 0.500000 0.000000 0.135955
Si Si4 0.357603 0.871779 0.703723
Si Si5 0.541030 0.233538 0.026485
Si Si6 0.164795 0.170303 0.884121
Si Si7 0.013125 0.627570 0.908399
Si Si8 0.796919 0.749372 0.677378
O O1 0.176555 0.908231 0.098240
O O2 0.344634 0.998632 0.069510
O O3 0.158966 0.953024 0.910966
O O4 0.418921 0.915232 0.978317
O O5 0.983738 0.050511 0.717658
O O6 0.789682 0.121403 0.775764
O O7 0.049372 0.122719 0.861363
O O8 0.488306 0.890272 0.783142
O O9 0.381336 0.807910 0.689298
O O10 0.581974 0.289138 0.967235
O O11 0.567203 0.184376 0.942701
O O12 0.375297 0.227205 0.069607
O O13 0.635976 0.230978 0.137162
O O14 0.314931 0.140423 0.921452
O O15 0.199606 0.208984 0.777905
#
# Coordination Sequence:
#
# PCOD9366335 Si02
#       8
#     8   8   4   8   8   8   8   8
#     4  10  22  45  75  97 135 184 229 297 357 425
#     4  10  24  43  70 100 133 180 232 294 355 428
#     4  10  24  46  76 104 128 176 240 296 364 410
#     4  10  20  39  63  89 132 180 230 271 342 414
#     4  12  24  36  56  91 132 182 231 273 337 404
#     4  12  26  39  61  97 142 179 231 294 334 416
#     4  11  23  40  60  94 135 179 232 288 338 415
#     4  12  23  36  59  89 133 185 230 273 334 410
#
# _framework density 21.988213999999999
#
# number of rings (size 3 to 8) (size 9 to 14) (size 15 to 20)
#    0.000    1.067    4.000    2.400    5.600    1.067 
#    0.000    1.333    0.000    3.200    0.000    0.000 
#    0.000    0.000    0.000    0.000    0.000    0.000 
#
# Total GULP energy -167301.058613 kJ/mol
# GULP energy per Si atom -5576.701954 kJ/mol
# Density = 2.193817 g / cm^3
# Si number density = 21.988214 Si / 1000 Ang^3
#
#
#
# Elastic Constant Matrix: (Units=GPa)
#
#
# Indices 1 2 3 4 5 6 
#
# 1 62.7836 10.2313 12.2312 0.0000 0.0000 0.0000
# 2 10.2313 26.7330 14.8316 0.0000 0.0000 0.0000
# 3 12.2312 14.8316 73.7264 0.0000 0.0000 0.0000
# 4 0.0000 0.0000 0.0000 20.7937 0.0000 0.0000
# 5 0.0000 0.0000 0.0000 0.0000 17.7295 0.0000
# 6 0.0000 0.0000 0.0000 0.0000 0.0000 34.0767
#
#
#
# Elastic Compliance Matrix: (Units=1/GPa)
#
#
# Indices 1 2 3 4 5 6 
#
# 1 0.017179 -0.005621 -0.001719 0.000000 0.000000 0.000000
# 2 -0.005621 0.043946 -0.007908 0.000000 0.000000 0.000000
# 3 -0.001719 -0.007908 0.015440 0.000000 0.000000 0.000000
# 4 0.000000 0.000000 0.000000 0.048091 0.000000 0.000000
# 5 0.000000 0.000000 0.000000 0.000000 0.056403 0.000000
# 6 0.000000 0.000000 0.000000 0.000000 0.000000 0.029346
#
#
# Mechanical properties :
#
#
# Convention : Reuss Voigt Hill
#
# Bulk Modulus (GPa) = 21.70712 26.42569 24.06641
# Shear Modulus (GPa) = 19.51171 22.91657 21.21414
#
# Velocity S-wave (km/s) = 2.98211 3.23185 3.10949
# Velocity P-wave (km/s) = 4.66379 5.09614 4.88475
#
# Compressibility (1/GPa) = 0.04606784
#
# Stress axis : x y z
#
# Youngs Moduli (GPa) = 58.21187 22.75539 64.76787
#
# Poissons Ratio (x) = 0.12790 0.11135
# Poissons Ratio (y) = 0.32720 0.51219
# Poissons Ratio (z) = 0.10008 0.17995
#
# Static dielectric constant tensor:
#      x y z
#    x 1.850620 0.000000 0.000000 
#    y 0.000000 1.828230 0.000000 
#    z 0.000000 0.000000 1.892310 
# 
# From -- ./inp_files/4576.got.cif
#   From: 2010.05.17/outbox.cif.g08.bks.cpg/sg41_3_cif.got.tgz:4576.got - 2010.06.03 18:54:24.
