data_PCOD9366237
_publ_section_title
;
Structure prediction by ZEFSAII (Michael W. Deem and Ramdas Pophale) SiO2 
 PCOD9366237
Probable space group: A B A 2
;
_chemical_formula_sum "Si O2"
_cell_formula_units_Z 64
_cell_length_a 11.449773
_cell_length_b 17.545182
_cell_length_c 15.778675
_cell_angle_alpha 90.000000
_cell_angle_beta 90.000000
_cell_angle_gamma 90.000000
_cell_volume 3169.752004
_symmetry_space_group_name_H-M "A B A 2"
_symmetry_group_IT_number 41
_symmetry_cell_setting 'orthorhombic'
loop_
_space_group_symop_operation_xyz
x,y,z
-x,-y,z
1/2-x,y,1/2+z
1/2+x,-y,1/2+z
x,1/2+y,1/2+z
-x,1/2-y,1/2+z
1/2-x,1/2+y,z
1/2+x,1/2-y,z
loop_
_atom_site_type_symbol
_atom_site_label
_atom_site_fract_x
_atom_site_fract_y
_atom_site_fract_z
Si Si1 0.073076 0.710677 0.077240
Si Si2 0.527874 0.145158 0.693392
Si Si3 0.071881 0.922882 0.876776
Si Si4 0.845482 0.038742 0.066360
Si Si5 0.320845 0.137905 0.594327
Si Si6 0.944003 0.781234 0.936605
Si Si7 0.666023 0.132650 0.864848
Si Si8 0.085597 0.927789 0.542981
O O1 0.069325 0.778018 0.145783
O O2 0.190292 0.665316 0.093348
O O3 0.971299 0.648152 0.081058
O O4 0.058569 0.742387 0.980604
O O5 0.572625 0.076125 0.635545
O O6 0.388282 0.148609 0.682981
O O7 0.582469 0.131369 0.783895
O O8 0.201863 0.896941 0.843277
O O9 0.986592 0.849212 0.875662
O O10 0.104020 0.937199 0.975498
O O11 0.000000 0.000000 0.847688
O O12 0.713962 0.066390 0.081599
O O13 0.833386 0.949038 0.068843
O O14 0.384850 0.184631 0.520539
O O15 0.854669 0.719718 0.897797
O O16 0.613192 0.083104 0.942558
O O17 0.000000 0.000000 0.555674
#
# Coordination Sequence:
#
# PCOD9366237 Si02
#       8
#     8   8   8   8   8   8   8   8
#     4  10  21  36  62  93 122 166 211 260 315 379
#     4  11  24  39  59  93 129 166 204 261 323 385
#     4  11  19  39  65  95 122 172 224 266 317 383
#     4  11  20  38  66  91 121 157 219 266 300 383
#     4  11  20  36  66  92 117 165 216 258 313 377
#     4  10  20  37  63  92 128 162 217 266 314 384
#     4  10  25  40  59  96 133 167 206 272 332 388
#     4  10  21  40  65  93 121 159 213 271 317 371
#
# _framework density 20.190854999999999
#
# number of rings (size 3 to 8) (size 9 to 14) (size 15 to 20)
#    0.000    1.500    5.000    1.125    5.250    2.000 
#    0.000    1.875    0.000    0.000    0.000    0.000 
#    0.000    0.000    0.000    0.000    0.000    0.000 
#
# Total GULP energy -178386.301597 kJ/mol
# GULP energy per Si atom -5574.571925 kJ/mol
# Density = 2.014490 g / cm^3
# Si number density = 20.190855 Si / 1000 Ang^3
#
#
#
# Elastic Constant Matrix: (Units=GPa)
#
#
# Indices 1 2 3 4 5 6 
#
# 1 131.6114 31.1043 13.5298 0.0000 0.0000 0.0000
# 2 31.1043 98.3014 -5.7454 0.0000 0.0000 0.0000
# 3 13.5298 -5.7454 32.1471 0.0000 0.0000 0.0000
# 4 0.0000 0.0000 0.0000 5.0658 0.0000 0.0000
# 5 0.0000 0.0000 0.0000 0.0000 12.9871 0.0000
# 6 0.0000 0.0000 0.0000 0.0000 0.0000 30.8398
#
#
#
# Elastic Compliance Matrix: (Units=1/GPa)
#
#
# Indices 1 2 3 4 5 6 
#
# 1 0.008744 -0.003013 -0.004219 0.000000 0.000000 0.000000
# 2 -0.003013 0.011319 0.003291 0.000000 0.000000 0.000000
# 3 -0.004219 0.003291 0.033471 0.000000 0.000000 0.000000
# 4 0.000000 0.000000 0.000000 0.197404 0.000000 0.000000
# 5 0.000000 0.000000 0.000000 0.000000 0.077000 0.000000
# 6 0.000000 0.000000 0.000000 0.000000 0.000000 0.032426
#
#
# Mechanical properties :
#
#
# Convention : Reuss Voigt Hill
#
# Bulk Modulus (GPa) = 21.90503 37.75970 29.83237
# Shear Modulus (GPa) = 13.03913 24.65661 18.84787
#
# Velocity S-wave (km/s) = 2.54400 3.49833 3.05861
# Velocity P-wave (km/s) = 4.41609 5.92112 5.22310
#
# Compressibility (1/GPa) = 0.04565161
#
# Stress axis : x y z
#
# Youngs Moduli (GPa) = 114.36483 88.35004 29.87687
#
# Poissons Ratio (x) = 0.26623 0.12604
# Poissons Ratio (y) = 0.34462 -0.09833
# Poissons Ratio (z) = 0.48246 -0.29077
#
# Static dielectric constant tensor:
#      x y z
#    x 1.760490 0.000000 0.000000 
#    y 0.000000 1.750960 0.000000 
#    z 0.000000 0.000000 1.703110 
# 
# From -- ./inp_files/8107.got.cif
#   From: 2010.05.17/outbox.cif.g08.bks.cpg/sg41_5_cif.got.tgz:8107.got - 2010.06.03 18:54:24.
