data_PCOD9366011
_publ_section_title
;
Structure prediction by ZEFSAII (Michael W. Deem and Ramdas Pophale) SiO2 
 PCOD9366011
Probable space group: A B A 2
;
_chemical_formula_sum "Si O2"
_cell_formula_units_Z 56
_cell_length_a 5.655476
_cell_length_b 30.480137
_cell_length_c 13.135114
_cell_angle_alpha 90.000000
_cell_angle_beta 90.000000
_cell_angle_gamma 90.000000
_cell_volume 2264.226791
_symmetry_space_group_name_H-M "A B A 2"
_symmetry_group_IT_number 41
_symmetry_cell_setting 'orthorhombic'
loop_
_space_group_symop_operation_xyz
x,y,z
-x,-y,z
1/2-x,y,1/2+z
1/2+x,-y,1/2+z
x,1/2+y,1/2+z
-x,1/2-y,1/2+z
1/2-x,1/2+y,z
1/2+x,1/2-y,z
loop_
_atom_site_type_symbol
_atom_site_label
_atom_site_fract_x
_atom_site_fract_y
_atom_site_fract_z
Si Si1 0.378158 0.089421 0.767960
Si Si2 0.394624 0.404424 0.058428
Si Si3 0.640740 0.273439 0.740756
Si Si4 0.688497 0.647147 0.389788
Si Si5 0.477910 0.866233 0.199368
Si Si6 0.500000 0.000000 0.468692
Si Si7 0.000000 0.000000 0.346359
Si Si8 0.116406 0.257047 0.969828
O O1 0.440351 0.106263 0.654110
O O2 0.471233 0.114917 0.866875
O O3 0.099074 0.094348 0.762492
O O4 0.501711 0.042929 0.777407
O O5 0.136556 0.389557 0.102442
O O6 0.392193 0.374556 0.958369
O O7 0.450229 0.454648 0.029444
O O8 0.392749 0.248967 0.717333
O O9 0.634604 0.322281 0.693296
O O10 0.629921 0.272719 0.866655
O O11 0.611820 0.692663 0.435672
O O12 0.778702 0.652882 0.274834
O O13 0.751164 0.995483 0.407701
O O14 0.368529 0.251873 0.023429
#
# Coordination Sequence:
#
# PCOD9366011 Si02
#       8
#     8   8   8   8   8   4   4   8
#     4  11  25  45  73 105 141 197 245 318 379 472
#     4  11  27  46  71 112 149 191 247 323 382 463
#     4  10  19  37  67 102 140 195 246 303 365 442
#     4  11  22  44  69 102 144 193 248 299 380 453
#     4  11  24  42  74 107 149 200 255 309 391 463
#     4  12  27  54  77 110 148 196 249 316 385 470
#     4  12  27  50  83 106 142 200 251 306 403 462
#     4  10  19  36  66  98 133 189 240 296 354 432
#
# _framework density 24.732505
#
# number of rings (size 3 to 8) (size 9 to 14) (size 15 to 20)
#    0.000    1.143    4.286    3.000    6.000    1.143 
#    0.000    1.429    0.000    0.000    0.000    0.000 
#    0.000    0.000    0.000    0.000    0.000    0.000 
#
# Total GULP energy -156221.217062 kJ/mol
# GULP energy per Si atom -5579.329181 kJ/mol
# Density = 2.467621 g / cm^3
# Si number density = 24.732505 Si / 1000 Ang^3
#
#
#
# Elastic Constant Matrix: (Units=GPa)
#
#
# Indices 1 2 3 4 5 6 
#
# 1 152.0183 36.7502 40.2337 0.0000 0.0000 0.0000
# 2 36.7502 123.0138 15.8247 0.0000 0.0000 0.0000
# 3 40.2337 15.8247 90.3861 0.0000 0.0000 0.0000
# 4 0.0000 0.0000 0.0000 17.4185 0.0000 0.0000
# 5 0.0000 0.0000 0.0000 0.0000 42.3745 0.0000
# 6 0.0000 0.0000 0.0000 0.0000 0.0000 42.4914
#
#
#
# Elastic Compliance Matrix: (Units=1/GPa)
#
#
# Indices 1 2 3 4 5 6 
#
# 1 0.007888 -0.001949 -0.003170 0.000000 0.000000 0.000000
# 2 -0.001949 0.008798 -0.000673 0.000000 0.000000 0.000000
# 3 -0.003170 -0.000673 0.012593 0.000000 0.000000 0.000000
# 4 0.000000 0.000000 0.000000 0.057410 0.000000 0.000000
# 5 0.000000 0.000000 0.000000 0.000000 0.023599 0.000000
# 6 0.000000 0.000000 0.000000 0.000000 0.000000 0.023534
#
#
# Mechanical properties :
#
#
# Convention : Reuss Voigt Hill
#
# Bulk Modulus (GPa) = 56.51247 61.22615 58.86931
# Shear Modulus (GPa) = 33.04600 38.63087 35.83843
#
# Velocity S-wave (km/s) = 3.65929 3.95644 3.81076
# Velocity P-wave (km/s) = 6.38380 6.75872 6.57393
#
# Compressibility (1/GPa) = 0.01769521
#
# Stress axis : x y z
#
# Youngs Moduli (GPa) = 126.77009 113.66311 79.41187
#
# Poissons Ratio (x) = 0.22151 0.25175
# Poissons Ratio (y) = 0.24705 0.05343
# Poissons Ratio (z) = 0.40188 0.07648
#
# Static dielectric constant tensor:
#      x y z
#    x 2.139600 0.000000 0.000000 
#    y 0.000000 1.620410 0.000000 
#    z 0.000000 0.000000 2.016540 
# 
# From -- ./inp_files/6997.got.cif
#   From: 2010.05.17/outbox.cif.g08.bks.cpg/sg41_4_cif.got.tgz:6997.got - 2010.06.03 18:54:24.
