data_PCOD9366167
_publ_section_title
;
Structure prediction by ZEFSAII (Michael W. Deem and Ramdas Pophale) SiO2 
 PCOD9366167
Probable space group: A B A 2
;
_chemical_formula_sum "Si O2"
_cell_formula_units_Z 56
_cell_length_a 17.456749
_cell_length_b 14.367998
_cell_length_c 13.311603
_cell_angle_alpha 90.000000
_cell_angle_beta 90.000000
_cell_angle_gamma 90.000000
_cell_volume 3338.796759
_symmetry_space_group_name_H-M "A B A 2"
_symmetry_group_IT_number 41
_symmetry_cell_setting 'orthorhombic'
loop_
_space_group_symop_operation_xyz
x,y,z
-x,-y,z
1/2-x,y,1/2+z
1/2+x,-y,1/2+z
x,1/2+y,1/2+z
-x,1/2-y,1/2+z
1/2-x,1/2+y,z
1/2+x,1/2-y,z
loop_
_atom_site_type_symbol
_atom_site_label
_atom_site_fract_x
_atom_site_fract_y
_atom_site_fract_z
Si Si1 0.683009 0.238187 0.503670
Si Si2 0.465226 0.750000 0.614157
Si Si3 0.536402 0.102002 0.970852
Si Si4 0.204754 0.394931 0.886621
Si Si5 0.536402 0.897998 0.757461
Si Si6 0.683009 0.761813 0.224643
Si Si7 0.295246 0.105069 0.841693
O O1 0.595260 0.212410 0.530514
O O2 0.729030 0.161490 0.442749
O O3 0.719552 0.250000 0.614157
O O4 0.685374 0.334206 0.441136
O O5 0.513991 0.671194 0.559814
O O6 0.513991 0.828806 0.668500
O O7 0.404740 0.712410 0.697799
O O8 0.627072 0.098379 0.951992
O O9 0.500000 0.133841 0.864157
O O10 0.500000 0.000000 0.988999
O O11 0.185374 0.334206 0.787178
O O12 0.228419 0.500000 0.864157
O O13 0.627072 0.901621 0.776321
O O14 0.500000 0.000000 0.739314
O O15 0.729030 0.838511 0.285565
#
# Coordination Sequence:
#
# PCOD9366167 Si02
#       7
#     8   8   8   8   8   8   8
#     4   9  21  37  51  80 110 139 174 218 272 307
#     4  10  20  36  54  78 114 132 178 230 258 314
#     4  11  19  36  58  80 104 141 184 217 263 311
#     4  11  20  36  58  79 106 143 180 218 260 322
#     4  11  19  36  58  80 104 141 184 217 263 311
#     4   9  21  37  51  80 110 139 174 218 272 307
#     4  11  20  36  58  79 106 143 180 218 260 322
#
# _framework density 16.77251
#
# number of rings (size 3 to 8) (size 9 to 14) (size 15 to 20)
#    0.857    0.857    5.714    0.000    2.000    1.143 
#    0.000    0.000    0.000    0.000    0.000    0.000 
#    0.000    0.000    0.000    0.000    0.000    0.000 
#
# Total GULP energy -155914.927508 kJ/mol
# GULP energy per Si atom -5568.390268 kJ/mol
# Density = 1.673434 g / cm^3
# Si number density = 16.772510 Si / 1000 Ang^3
#
#
#
# Elastic Constant Matrix: (Units=GPa)
#
#
# Indices 1 2 3 4 5 6 
#
# 1 46.7539 42.2514 19.5431 0.0000 0.0000 0.0000
# 2 42.2514 141.0157 73.4919 0.0000 0.0000 0.0000
# 3 19.5431 73.4919 95.4333 0.0000 0.0000 0.0000
# 4 0.0000 0.0000 0.0000 27.6489 0.0000 0.0000
# 5 0.0000 0.0000 0.0000 0.0000 8.5511 0.0000
# 6 0.0000 0.0000 0.0000 0.0000 0.0000 16.1017
#
#
#
# Elastic Compliance Matrix: (Units=1/GPa)
#
#
# Indices 1 2 3 4 5 6 
#
# 1 0.029423 -0.009480 0.001275 0.000000 0.000000 0.000000
# 2 -0.009480 0.014900 -0.009533 0.000000 0.000000 0.000000
# 3 0.001275 -0.009533 0.017559 0.000000 0.000000 0.000000
# 4 0.000000 0.000000 0.000000 0.036168 0.000000 0.000000
# 5 0.000000 0.000000 0.000000 0.000000 0.116944 0.000000
# 6 0.000000 0.000000 0.000000 0.000000 0.000000 0.062105
#
#
# Mechanical properties :
#
#
# Convention : Reuss Voigt Hill
#
# Bulk Modulus (GPa) = 37.87062 61.53063 49.70063
# Shear Modulus (GPa) = 15.55806 20.32145 17.93975
#
# Velocity S-wave (km/s) = 3.04895 3.48457 3.27401
# Velocity P-wave (km/s) = 5.91800 7.27700 6.63240
#
# Compressibility (1/GPa) = 0.02640569
#
# Stress axis : x y z
#
# Youngs Moduli (GPa) = 33.98709 67.11318 56.95226
#
# Poissons Ratio (x) = 0.63627 -0.07264
# Poissons Ratio (y) = 0.32221 0.54293
# Poissons Ratio (z) = -0.04335 0.63979
#
# Static dielectric constant tensor:
#      x y z
#    x 1.574360 0.000000 0.000000 
#    y 0.000000 1.538980 0.000000 
#    z 0.000000 0.000000 1.578390 
# 
# From -- ./inp_files/8478.got.cif
#   From: 2010.05.17/outbox.cif.g08.bks.cpg/sg41_5_cif.got.tgz:8478.got - 2010.06.03 18:54:24.
