data_PCOD9366732
_publ_section_title
;
Structure prediction by ZEFSAII (Michael W. Deem and Ramdas Pophale) SiO2 
 PCOD9366732
Probable space group: A B A 2
;
_chemical_formula_sum "Si O2"
_cell_formula_units_Z 52
_cell_length_a 8.683924
_cell_length_b 16.294228
_cell_length_c 16.310026
_cell_angle_alpha 90.000000
_cell_angle_beta 90.000000
_cell_angle_gamma 90.000000
_cell_volume 2307.833410
_symmetry_space_group_name_H-M "A B A 2"
_symmetry_group_IT_number 41
_symmetry_cell_setting 'orthorhombic'
loop_
_space_group_symop_operation_xyz
x,y,z
-x,-y,z
1/2-x,y,1/2+z
1/2+x,-y,1/2+z
x,1/2+y,1/2+z
-x,1/2-y,1/2+z
1/2-x,1/2+y,z
1/2+x,1/2-y,z
loop_
_atom_site_type_symbol
_atom_site_label
_atom_site_fract_x
_atom_site_fract_y
_atom_site_fract_z
Si Si1 0.379726 0.663626 0.015880
Si Si2 0.084370 0.627794 0.699400
Si Si3 0.000000 0.500000 0.967190
Si Si4 0.970999 0.835167 0.550207
Si Si5 0.022302 0.379413 0.350310
Si Si6 0.616766 0.268643 0.726223
Si Si7 0.235834 0.005224 0.320706
O O1 0.402318 0.617435 0.102149
O O2 0.429370 0.758246 0.022585
O O3 0.195795 0.666427 0.005783
O O4 0.487795 0.625236 0.946644
O O5 0.208455 0.698912 0.725261
O O6 0.920839 0.672831 0.713227
O O7 0.133144 0.547125 0.749418
O O8 0.859322 0.484776 0.904538
O O9 0.037184 0.422534 0.024381
O O10 0.949011 0.819003 0.647231
O O11 0.971455 0.295192 0.308201
O O12 0.187892 0.414592 0.324549
O O13 0.887738 0.439202 0.318799
#
# Coordination Sequence:
#
# PCOD9366732 Si02
#       7
#     8   8   4   8   8   8   8
#     4  10  21  40  66  94 127 173 223 275 327 406
#     4   9  20  40  61  91 130 163 217 267 323 397
#     4  12  24  40  60  94 134 168 224 276 336 394
#     4  10  23  40  62  95 129 171 219 276 333 399
#     4  10  21  40  64  91 124 168 218 268 340 399
#     4   9  20  37  64  90 121 166 212 265 323 388
#     4  10  23  40  58  91 128 168 215 270 337 397
#
# _framework density 22.531953999999999
#
# number of rings (size 3 to 8) (size 9 to 14) (size 15 to 20)
#    0.000    2.154    1.538    0.000    4.308    4.923 
#    0.000    1.538    0.000    0.000    0.000    0.000 
#    0.000    0.000    0.000    0.000    0.000    0.000 
#
# Total GULP energy -144970.756655 kJ/mol
# GULP energy per Si atom -5575.798333 kJ/mol
# Density = 2.248067 g / cm^3
# Si number density = 22.531954 Si / 1000 Ang^3
#
#
#
# Elastic Constant Matrix: (Units=GPa)
#
#
# Indices 1 2 3 4 5 6 
#
# 1 61.8900 30.3480 45.1252 0.0000 0.0000 0.0000
# 2 30.3480 42.9356 51.0362 0.0000 0.0000 0.0000
# 3 45.1252 51.0362 108.7580 0.0000 0.0000 0.0000
# 4 0.0000 0.0000 0.0000 38.9994 0.0000 0.0000
# 5 0.0000 0.0000 0.0000 0.0000 14.9628 0.0000
# 6 0.0000 0.0000 0.0000 0.0000 0.0000 33.9274
#
#
#
# Elastic Compliance Matrix: (Units=1/GPa)
#
#
# Indices 1 2 3 4 5 6 
#
# 1 0.025816 -0.012472 -0.004859 0.000000 0.000000 0.000000
# 2 -0.012472 0.058695 -0.022369 0.000000 0.000000 0.000000
# 3 -0.004859 -0.022369 0.021708 0.000000 0.000000 0.000000
# 4 0.000000 0.000000 0.000000 0.025641 0.000000 0.000000
# 5 0.000000 0.000000 0.000000 0.000000 0.066833 0.000000
# 6 0.000000 0.000000 0.000000 0.000000 0.000000 0.029475
#
#
# Mechanical properties :
#
#
# Convention : Reuss Voigt Hill
#
# Bulk Modulus (GPa) = 37.28587 51.84471 44.56529
# Shear Modulus (GPa) = 15.79746 23.38285 19.59016
#
# Velocity S-wave (km/s) = 2.65073 3.22493 2.95182
# Velocity P-wave (km/s) = 5.09435 6.07670 5.60708
#
# Compressibility (1/GPa) = 0.02681981
#
# Stress axis : x y z
#
# Youngs Moduli (GPa) = 38.73564 17.03715 46.06693
#
# Poissons Ratio (x) = 0.21249 0.22383
# Poissons Ratio (y) = 0.48311 1.03046
# Poissons Ratio (z) = 0.18821 0.38110
#
# Static dielectric constant tensor:
#      x y z
#    x 1.853670 0.000000 0.000000 
#    y 0.000000 1.861610 0.000000 
#    z 0.000000 0.000000 1.833300 
# 
# From -- ./inp_files/9745.got.cif
#   From: 2010.05.17/outbox.cif.g08.bks.cpg/sg41_5_cif.got.tgz:9745.got - 2010.06.03 18:54:24.
