data_PCOD9366982
_publ_section_title
;
Structure prediction by ZEFSAII (Michael W. Deem and Ramdas Pophale) SiO2 
 PCOD9366982
Probable space group: A B A 2
;
_chemical_formula_sum "Si O2"
_cell_formula_units_Z 56
_cell_length_a 13.623605
_cell_length_b 23.454869
_cell_length_c 8.442042
_cell_angle_alpha 90.000000
_cell_angle_beta 90.000000
_cell_angle_gamma 90.000000
_cell_volume 2697.569008
_symmetry_space_group_name_H-M "A B A 2"
_symmetry_group_IT_number 41
_symmetry_cell_setting 'orthorhombic'
loop_
_space_group_symop_operation_xyz
x,y,z
-x,-y,z
1/2-x,y,1/2+z
1/2+x,-y,1/2+z
x,1/2+y,1/2+z
-x,1/2-y,1/2+z
1/2-x,1/2+y,z
1/2+x,1/2-y,z
loop_
_atom_site_type_symbol
_atom_site_label
_atom_site_fract_x
_atom_site_fract_y
_atom_site_fract_z
Si Si1 0.000000 0.000000 0.130540
Si Si2 0.000000 0.500000 0.134803
Si Si3 0.985870 0.817021 0.104639
Si Si4 0.871754 0.897739 0.621611
Si Si5 0.478192 0.308381 0.730445
Si Si6 0.346983 0.587795 0.998960
Si Si7 0.655856 0.091281 0.148069
Si Si8 0.372276 0.402286 0.272735
O O1 0.053468 0.952370 0.231486
O O2 0.912111 0.968078 0.037101
O O3 0.062620 0.550264 0.055253
O O4 0.085400 0.459883 0.211823
O O5 0.898108 0.862710 0.103998
O O6 0.962482 0.755804 0.176208
O O7 0.077793 0.845785 0.196746
O O8 0.000885 0.808796 0.917047
O O9 0.936180 0.839323 0.623264
O O10 0.767198 0.905964 0.540455
O O11 0.858017 0.905558 0.810449
O O12 0.385186 0.349596 0.714547
O O13 0.768062 0.084115 0.193310
O O14 0.644456 0.097226 0.959753
#
# Coordination Sequence:
#
# PCOD9366982 Si02
#       8
#     4   4   8   8   8   8   8   8
#     4  10  22  38  60  86 118 154 196 242 288 344
#     4  10  22  38  60  86 118 154 196 242 288 344
#     4  10  22  41  62  86 117 154 195 243 293 346
#     4  10  22  38  59  86 117 152 191 236 289 345
#     4  10  22  41  62  86 117 154 195 243 293 346
#     4  10  22  38  59  86 117 152 191 236 289 345
#     4  11  23  39  60  88 119 155 197 242 293 350
#     4  11  23  39  60  88 119 155 197 242 293 350
#
# _framework density 20.759432
#
# number of rings (size 3 to 8) (size 9 to 14) (size 15 to 20)
#    0.000    1.714    0.000    3.429    0.000   13.714 
#    0.000    2.857    0.000    0.000    0.000    0.000 
#    0.000    0.000    0.000    0.000    0.000    0.000 
#
# Total GULP energy -156220.873905 kJ/mol
# GULP energy per Si atom -5579.316925 kJ/mol
# Density = 2.071218 g / cm^3
# Si number density = 20.759432 Si / 1000 Ang^3
#
#
#
# Elastic Constant Matrix: (Units=GPa)
#
#
# Indices 1 2 3 4 5 6 
#
# 1 125.4630 37.2229 17.8710 0.0000 0.0000 0.0000
# 2 37.2229 137.7550 23.5718 0.0000 0.0000 0.0000
# 3 17.8710 23.5718 52.1068 0.0000 0.0000 0.0000
# 4 0.0000 0.0000 0.0000 20.7350 0.0000 0.0000
# 5 0.0000 0.0000 0.0000 0.0000 28.6200 0.0000
# 6 0.0000 0.0000 0.0000 0.0000 0.0000 11.1379
#
#
#
# Elastic Compliance Matrix: (Units=1/GPa)
#
#
# Indices 1 2 3 4 5 6 
#
# 1 0.008877 -0.002035 -0.002124 0.000000 0.000000 0.000000
# 2 -0.002035 0.008335 -0.003073 0.000000 0.000000 0.000000
# 3 -0.002124 -0.003073 0.021310 0.000000 0.000000 0.000000
# 4 0.000000 0.000000 0.000000 0.048228 0.000000 0.000000
# 5 0.000000 0.000000 0.000000 0.000000 0.034941 0.000000
# 6 0.000000 0.000000 0.000000 0.000000 0.000000 0.089784
#
#
# Mechanical properties :
#
#
# Convention : Reuss Voigt Hill
#
# Bulk Modulus (GPa) = 41.56549 52.51735 47.04142
# Shear Modulus (GPa) = 21.37155 27.87585 24.62370
#
# Velocity S-wave (km/s) = 3.21204 3.66840 3.44778
# Velocity P-wave (km/s) = 5.81569 6.57996 6.20959
#
# Compressibility (1/GPa) = 0.02405842
#
# Stress axis : x y z
#
# Youngs Moduli (GPa) = 112.65311 119.97681 46.92705
#
# Poissons Ratio (x) = 0.24418 0.09966
# Poissons Ratio (y) = 0.22927 0.14418
# Poissons Ratio (z) = 0.23925 0.36863
#
# Static dielectric constant tensor:
#      x y z
#    x 1.771530 0.000000 0.000000 
#    y 0.000000 1.729200 0.000000 
#    z 0.000000 0.000000 1.766320 
# 
# From -- ./inp_files/2714.got.cif
#   From: 2010.05.17/outbox.cif.g08.bks.cpg/sg41_2_cif.got.tgz:2714.got - 2010.06.03 18:54:24.
