data_PCOD9366095
_publ_section_title
;
Structure prediction by ZEFSAII (Michael W. Deem and Ramdas Pophale) SiO2 
 PCOD9366095
Probable space group: A B A 2
;
_chemical_formula_sum "Si O2"
_cell_formula_units_Z 44
_cell_length_a 10.619098
_cell_length_b 15.138334
_cell_length_c 13.357164
_cell_angle_alpha 90.000000
_cell_angle_beta 90.000000
_cell_angle_gamma 90.000000
_cell_volume 2147.236940
_symmetry_space_group_name_H-M "A B A 2"
_symmetry_group_IT_number 41
_symmetry_cell_setting 'orthorhombic'
loop_
_space_group_symop_operation_xyz
x,y,z
-x,-y,z
1/2-x,y,1/2+z
1/2+x,-y,1/2+z
x,1/2+y,1/2+z
-x,1/2-y,1/2+z
1/2-x,1/2+y,z
1/2+x,1/2-y,z
loop_
_atom_site_type_symbol
_atom_site_label
_atom_site_fract_x
_atom_site_fract_y
_atom_site_fract_z
Si Si1 0.859033 0.924278 0.712370
Si Si2 0.869343 0.591693 0.108599
Si Si3 0.662000 0.690521 0.419709
Si Si4 0.060270 0.315198 0.493010
Si Si5 0.000000 0.000000 0.899048
Si Si6 0.820621 0.223650 0.197000
O O1 0.799281 0.827945 0.714062
O O2 0.991536 0.909845 0.653979
O O3 0.799169 0.003876 0.648438
O O4 0.894122 0.961848 0.822042
O O5 0.802719 0.676409 0.155380
O O6 0.865401 0.605964 0.990050
O O7 0.807906 0.715848 0.441697
O O8 0.561089 0.763800 0.453192
O O9 0.645613 0.679683 0.302103
O O10 0.078370 0.295263 0.610076
O O11 0.046866 0.417901 0.464293
#
# Coordination Sequence:
#
# PCOD9366095 Si02
#       6
#     8   8   8   8   4   8
#     4  10  19  40  70  84 127 184 218 252 342 411
#     4   9  21  39  60  97 128 169 224 266 322 409
#     4  11  22  42  67  97 133 174 220 277 329 392
#     4  11  24  42  68  99 135 175 225 275 334 401
#     4  10  20  42  64  92 130 182 220 260 338 408
#     4  11  22  40  68  97 129 171 228 275 327 396
#
# _framework density 20.491451999999999
#
# number of rings (size 3 to 8) (size 9 to 14) (size 15 to 20)
#    0.000    1.818    3.636    2.182    0.000    0.000 
#   13.091    1.818    0.000    0.000    0.000    0.000 
#    0.000    0.000    0.000    0.000    0.000    0.000 
#
# Total GULP energy -122731.329893 kJ/mol
# GULP energy per Si atom -5578.696813 kJ/mol
# Density = 2.044481 g / cm^3
# Si number density = 20.491452 Si / 1000 Ang^3
#
#
#
# Elastic Constant Matrix: (Units=GPa)
#
#
# Indices 1 2 3 4 5 6 
#
# 1 79.1412 24.4180 9.6206 0.0000 0.0000 0.0000
# 2 24.4180 118.6480 31.3205 0.0000 0.0000 0.0000
# 3 9.6206 31.3205 141.7499 0.0000 0.0000 0.0000
# 4 0.0000 0.0000 0.0000 30.6682 0.0000 0.0000
# 5 0.0000 0.0000 0.0000 0.0000 8.2341 0.0000
# 6 0.0000 0.0000 0.0000 0.0000 0.0000 32.5810
#
#
#
# Elastic Compliance Matrix: (Units=1/GPa)
#
#
# Indices 1 2 3 4 5 6 
#
# 1 0.013506 -0.002695 -0.000321 0.000000 0.000000 0.000000
# 2 -0.002695 0.009488 -0.001914 0.000000 0.000000 0.000000
# 3 -0.000321 -0.001914 0.007499 0.000000 0.000000 0.000000
# 4 0.000000 0.000000 0.000000 0.032607 0.000000 0.000000
# 5 0.000000 0.000000 0.000000 0.000000 0.121447 0.000000
# 6 0.000000 0.000000 0.000000 0.000000 0.000000 0.030693
#
#
# Mechanical properties :
#
#
# Convention : Reuss Voigt Hill
#
# Bulk Modulus (GPa) = 48.46296 52.25081 50.35689
# Shear Modulus (GPa) = 21.55383 32.57531 27.06457
#
# Velocity S-wave (km/s) = 3.24673 3.99143 3.63819
# Velocity P-wave (km/s) = 6.14465 6.84078 6.50204
#
# Compressibility (1/GPa) = 0.02063431
#
# Stress axis : x y z
#
# Youngs Moduli (GPa) = 74.04046 105.39608 133.34593
#
# Poissons Ratio (x) = 0.28402 0.04283
# Poissons Ratio (y) = 0.19952 0.25516
# Poissons Ratio (z) = 0.02378 0.20168
#
# Static dielectric constant tensor:
#      x y z
#    x 1.758280 0.000000 0.000000 
#    y 0.000000 1.784000 0.000000 
#    z 0.000000 0.000000 1.757730 
# 
# From -- ./inp_files/7823.got.cif
#   From: 2010.05.17/outbox.cif.g08.bks.cpg/sg41_4_cif.got.tgz:7823.got - 2010.06.03 18:54:24.
