data_PCOD9366278
_publ_section_title
;
Structure prediction by ZEFSAII (Michael W. Deem and Ramdas Pophale) SiO2 
 PCOD9366278
Probable space group: A B A 2
;
_chemical_formula_sum "Si O2"
_cell_formula_units_Z 40
_cell_length_a 11.896412
_cell_length_b 11.196407
_cell_length_c 11.902910
_cell_angle_alpha 90.000000
_cell_angle_beta 90.000000
_cell_angle_gamma 90.000000
_cell_volume 1585.432744
_symmetry_space_group_name_H-M "A B A 2"
_symmetry_group_IT_number 41
_symmetry_cell_setting 'orthorhombic'
loop_
_space_group_symop_operation_xyz
x,y,z
-x,-y,z
1/2-x,y,1/2+z
1/2+x,-y,1/2+z
x,1/2+y,1/2+z
-x,1/2-y,1/2+z
1/2-x,1/2+y,z
1/2+x,1/2-y,z
loop_
_atom_site_type_symbol
_atom_site_label
_atom_site_fract_x
_atom_site_fract_y
_atom_site_fract_z
Si Si1 0.098896 0.089047 0.818820
Si Si2 0.663952 0.961136 0.063765
Si Si3 0.773411 0.600590 0.873889
Si Si4 0.887831 0.559919 0.647699
Si Si5 0.436231 0.760421 0.445069
O O1 0.109137 0.070589 0.684953
O O2 0.049650 0.209219 0.875468
O O3 0.213184 0.031283 0.864738
O O4 0.000000 0.000000 0.857015
O O5 0.797472 0.965316 0.097397
O O6 0.596536 0.871050 0.983785
O O7 0.661636 0.086639 0.992962
O O8 0.830159 0.617727 0.754655
O O9 0.672589 0.694692 0.876079
O O10 0.926311 0.655630 0.555428
O O11 0.000000 0.500000 0.690377
#
# Coordination Sequence:
#
# PCOD9366278 Si02
#       5
#     8   8   8   8   8
#     4   9  19  39  60  84 122 161 196 251 316 369
#     4  10  21  37  61  91 121 157 205 255 307 372
#     4   9  20  38  59  86 122 159 202 251 304 368
#     4  10  21  40  62  86 120 164 208 254 307 368
#     4  10  20  38  62  87 119 159 200 253 312 367
#
# _framework density 25.229703000000001
#
# number of rings (size 3 to 8) (size 9 to 14) (size 15 to 20)
#    0.000    2.400    0.000    3.000    0.000    5.600 
#    0.000   16.000    0.000    0.000    0.000    0.000 
#    0.000    0.000    0.000    0.000    0.000    0.000 
#
# Total GULP energy -111492.204714 kJ/mol
# GULP energy per Si atom -5574.610236 kJ/mol
# Density = 2.517228 g / cm^3
# Si number density = 25.229703 Si / 1000 Ang^3
#
#
#
# Elastic Constant Matrix: (Units=GPa)
#
#
# Indices 1 2 3 4 5 6 
#
# 1 65.3067 6.8658 30.1763 0.0000 0.0000 0.0000
# 2 6.8658 40.9717 2.1404 0.0000 0.0000 0.0000
# 3 30.1763 2.1404 151.8655 0.0000 0.0000 0.0000
# 4 0.0000 0.0000 0.0000 29.1862 0.0000 0.0000
# 5 0.0000 0.0000 0.0000 0.0000 56.9427 0.0000
# 6 0.0000 0.0000 0.0000 0.0000 0.0000 21.5928
#
#
#
# Elastic Compliance Matrix: (Units=1/GPa)
#
#
# Indices 1 2 3 4 5 6 
#
# 1 0.017153 -0.002698 -0.003370 0.000000 0.000000 0.000000
# 2 -0.002698 0.024850 0.000186 0.000000 0.000000 0.000000
# 3 -0.003370 0.000186 0.007252 0.000000 0.000000 0.000000
# 4 0.000000 0.000000 0.000000 0.034263 0.000000 0.000000
# 5 0.000000 0.000000 0.000000 0.000000 0.017562 0.000000
# 6 0.000000 0.000000 0.000000 0.000000 0.000000 0.046312
#
#
# Mechanical properties :
#
#
# Convention : Reuss Voigt Hill
#
# Bulk Modulus (GPa) = 26.67440 37.38987 32.03214
# Shear Modulus (GPa) = 29.12853 36.14177 32.63515
#
# Velocity S-wave (km/s) = 3.40153 3.78896 3.60046
# Velocity P-wave (km/s) = 5.10125 5.83040 5.47797
#
# Compressibility (1/GPa) = 0.03748913
#
# Stress axis : x y z
#
# Youngs Moduli (GPa) = 58.29743 40.24213 137.89544
#
# Poissons Ratio (x) = 0.10859 0.46477
# Poissons Ratio (y) = 0.15731 -0.02564
# Poissons Ratio (z) = 0.19649 -0.00748
#
# Static dielectric constant tensor:
#      x y z
#    x 2.051590 0.000000 0.000000 
#    y 0.000000 2.104080 0.000000 
#    z 0.000000 0.000000 2.026530 
# 
# From -- ./inp_files/4849.got.cif
#   From: 2010.05.17/outbox.cif.g08.bks.cpg/sg41_3_cif.got.tgz:4849.got - 2010.06.03 18:54:24.
