data_PCOD9366501
_publ_section_title
;
Structure prediction by ZEFSAII (Michael W. Deem and Ramdas Pophale) SiO2 
 PCOD9366501
Probable space group: A B A 2
;
_chemical_formula_sum "Si O2"
_cell_formula_units_Z 60
_cell_length_a 8.030292
_cell_length_b 15.954730
_cell_length_c 17.012113
_cell_angle_alpha 90.000000
_cell_angle_beta 90.000000
_cell_angle_gamma 90.000000
_cell_volume 2179.611323
_symmetry_space_group_name_H-M "A B A 2"
_symmetry_group_IT_number 41
_symmetry_cell_setting 'orthorhombic'
loop_
_space_group_symop_operation_xyz
x,y,z
-x,-y,z
1/2-x,y,1/2+z
1/2+x,-y,1/2+z
x,1/2+y,1/2+z
-x,1/2-y,1/2+z
1/2-x,1/2+y,z
1/2+x,1/2-y,z
loop_
_atom_site_type_symbol
_atom_site_label
_atom_site_fract_x
_atom_site_fract_y
_atom_site_fract_z
Si Si1 0.109938 0.096504 0.590840
Si Si2 0.681587 0.049511 0.859228
Si Si3 0.490943 0.768426 0.203787
Si Si4 0.000000 0.500000 0.457178
Si Si5 0.510057 0.827019 0.942769
Si Si6 0.246005 0.170877 0.799057
Si Si7 0.807057 0.000259 0.200966
Si Si8 0.969362 0.332114 0.555029
O O1 0.999707 0.148525 0.651576
O O2 0.030293 0.098006 0.506257
O O3 0.182932 0.012133 0.628862
O O4 0.276614 0.151740 0.575555
O O5 0.650025 0.140511 0.896320
O O6 0.833740 0.002380 0.902644
O O7 0.500000 0.000000 0.860105
O O8 0.719694 0.068438 0.767597
O O9 0.559652 0.798157 0.290105
O O10 0.318112 0.731755 0.232046
O O11 0.548441 0.697118 0.138495
O O12 0.018594 0.417793 0.511511
O O13 0.662851 0.825207 0.881635
O O14 0.490074 0.743440 0.993313
O O15 0.274062 0.081278 0.757125
O O16 0.000000 0.000000 0.176142
#
# Coordination Sequence:
#
# PCOD9366501 Si02
#       8
#     8   8   8   4   8   8   8   8
#     4  10  23  42  71 108 149 206 257 333 406 491
#     4  11  24  50  79 114 164 212 271 343 416 497
#     4  10  22  41  66 105 145 196 268 315 398 483
#     4  12  30  46  82 122 162 216 286 340 428 510
#     4  11  25  43  77 111 163 209 263 341 426 486
#     4  11  22  41  72 104 145 204 258 328 395 489
#     4  10  20  43  76  98 152 210 258 325 413 482
#     4  11  25  44  71 113 160 206 265 344 409 496
#
# _framework density 27.527844999999999
#
# number of rings (size 3 to 8) (size 9 to 14) (size 15 to 20)
#    0.000    1.333    5.333    0.800    6.533    1.067 
#    0.000    0.000    4.400    0.000    0.000    0.000 
#    0.000    0.000    0.000    0.000    0.000    0.000 
#
# Total GULP energy -167781.443092 kJ/mol
# GULP energy per Si atom -5592.714770 kJ/mol
# Density = 2.746519 g / cm^3
# Si number density = 27.527845 Si / 1000 Ang^3
#
#
#
# Elastic Constant Matrix: (Units=GPa)
#
#
# Indices 1 2 3 4 5 6 
#
# 1 57.0114 35.3404 23.6682 0.0000 0.0000 0.0000
# 2 35.3404 127.0743 71.7760 0.0000 0.0000 0.0000
# 3 23.6682 71.7760 161.0546 0.0000 0.0000 0.0000
# 4 0.0000 0.0000 0.0000 51.8984 0.0000 0.0000
# 5 0.0000 0.0000 0.0000 0.0000 49.4769 0.0000
# 6 0.0000 0.0000 0.0000 0.0000 0.0000 -606.2482
#
#
#
# Elastic Compliance Matrix: (Units=1/GPa)
#
#
# Indices 1 2 3 4 5 6 
#
# 1 0.021245 -0.005539 -0.000653 0.000000 0.000000 0.000000
# 2 -0.005539 0.011961 -0.004517 0.000000 0.000000 0.000000
# 3 -0.000653 -0.004517 0.008318 0.000000 0.000000 0.000000
# 4 0.000000 0.000000 0.000000 0.019268 0.000000 0.000000
# 5 0.000000 0.000000 0.000000 0.000000 0.020211 0.000000
# 6 0.000000 0.000000 0.000000 0.000000 0.000000 -0.001649
#
#
# Mechanical properties :
#
#
# Convention : Reuss Voigt Hill
#
# Bulk Modulus (GPa) = 49.73741 67.41219 58.57480
# Shear Modulus (GPa) = 46.52219 -86.68419 -20.08100
#
# Velocity S-wave (km/s) = 4.11543 -5.61765 -2.70382
# Velocity P-wave (km/s) = 6.37884 4.18753 3.40251
#
# Compressibility (1/GPa) = 0.02010559
#
# Stress axis : x y z
#
# Youngs Moduli (GPa) = 47.06894 83.60445 120.22173
#
# Poissons Ratio (x) = 0.46312 0.07856
# Poissons Ratio (y) = 0.26074 0.54299
# Poissons Ratio (z) = 0.03076 0.37760
#
# Static dielectric constant tensor:
#      x y z
#    x 2.180530 0.000000 0.000000 
#    y 0.000000 2.244040 0.000000 
#    z 0.000000 0.000000 2.164520 
# 
# From -- ./inp_files/9780.got.cif
#   From: 2010.05.17/outbox.cif.g08.bks.cpg/sg41_5_cif.got.tgz:9780.got - 2010.06.03 18:54:24.
