data_PCOD9366849
_publ_section_title
;
Structure prediction by ZEFSAII (Michael W. Deem and Ramdas Pophale) SiO2 
 PCOD9366849
Probable space group: A B A 2
;
_chemical_formula_sum "Si O2"
_cell_formula_units_Z 60
_cell_length_a 16.270885
_cell_length_b 14.890240
_cell_length_c 11.665168
_cell_angle_alpha 90.000000
_cell_angle_beta 90.000000
_cell_angle_gamma 90.000000
_cell_volume 2826.206371
_symmetry_space_group_name_H-M "A B A 2"
_symmetry_group_IT_number 41
_symmetry_cell_setting 'orthorhombic'
loop_
_space_group_symop_operation_xyz
x,y,z
-x,-y,z
1/2-x,y,1/2+z
1/2+x,-y,1/2+z
x,1/2+y,1/2+z
-x,1/2-y,1/2+z
1/2-x,1/2+y,z
1/2+x,1/2-y,z
loop_
_atom_site_type_symbol
_atom_site_label
_atom_site_fract_x
_atom_site_fract_y
_atom_site_fract_z
Si Si1 0.796986 0.391443 0.341750
Si Si2 0.640472 0.447158 0.489852
Si Si3 0.876558 0.744839 0.969823
Si Si4 0.500000 0.000000 0.808777
Si Si5 0.013266 0.666787 0.133193
Si Si6 0.139311 0.437135 0.204353
Si Si7 0.753696 0.726679 0.175511
Si Si8 0.090604 0.332753 0.738745
O O1 0.721762 0.413900 0.426397
O O2 0.869244 0.341873 0.411401
O O3 0.832378 0.480482 0.282658
O O4 0.763894 0.316884 0.249193
O O5 0.573341 0.469242 0.392525
O O6 0.592682 0.376883 0.573085
O O7 0.659776 0.530342 0.574161
O O8 0.957766 0.715874 0.037133
O O9 0.802087 0.744799 0.059246
O O10 0.869903 0.674693 0.865327
O O11 0.464787 0.919628 0.733191
O O12 0.955703 0.592460 0.192918
O O13 0.036927 0.744226 0.220928
O O14 0.188805 0.347211 0.237335
O O15 0.667002 0.677430 0.154249
#
# Coordination Sequence:
#
# PCOD9366849 Si02
#       8
#     8   8   8   4   8   8   8   8
#     4  11  24  41  70  96 134 168 230 277 331 389
#     4  12  22  42  67  98 125 182 222 270 328 417
#     4  10  21  42  64  95 128 172 216 269 331 396
#     4  12  22  38  66  94 124 170 224 266 320 398
#     4  11  23  41  69  90 136 177 219 269 341 400
#     4  11  23  42  65  98 129 177 221 274 333 403
#     4  10  23  43  65  92 131 173 218 278 330 393
#     4  11  23  42  66  97 131 171 222 274 331 398
#
# _framework density 21.229873999999999
#
# number of rings (size 3 to 8) (size 9 to 14) (size 15 to 20)
#    0.000    1.067    2.667    4.800    3.733    2.133 
#    2.400    1.333    0.000    0.000    0.000    0.000 
#    0.000    0.000    0.000    0.000    0.000    0.000 
#
# Total GULP energy -167550.056866 kJ/mol
# GULP energy per Si atom -5585.001896 kJ/mol
# Density = 2.118155 g / cm^3
# Si number density = 21.229874 Si / 1000 Ang^3
#
#
#
# Elastic Constant Matrix: (Units=GPa)
#
#
# Indices 1 2 3 4 5 6 
#
# 1 83.5181 39.9088 36.9039 0.0000 0.0000 0.0000
# 2 39.9088 128.2784 52.0572 0.0000 0.0000 0.0000
# 3 36.9039 52.0572 58.7647 0.0000 0.0000 0.0000
# 4 0.0000 0.0000 0.0000 34.4747 0.0000 0.0000
# 5 0.0000 0.0000 0.0000 0.0000 28.6823 0.0000
# 6 0.0000 0.0000 0.0000 0.0000 0.0000 45.8234
#
#
#
# Elastic Compliance Matrix: (Units=1/GPa)
#
#
# Indices 1 2 3 4 5 6 
#
# 1 0.016748 -0.001471 -0.009214 0.000000 0.000000 0.000000
# 2 -0.001471 0.012300 -0.009972 0.000000 0.000000 0.000000
# 3 -0.009214 -0.009972 0.031638 0.000000 0.000000 0.000000
# 4 0.000000 0.000000 0.000000 0.029007 0.000000 0.000000
# 5 0.000000 0.000000 0.000000 0.000000 0.034865 0.000000
# 6 0.000000 0.000000 0.000000 0.000000 0.000000 0.021823
#
#
# Mechanical properties :
#
#
# Convention : Reuss Voigt Hill
#
# Bulk Modulus (GPa) = 51.62604 58.70008 55.16306
# Shear Modulus (GPa) = 25.75294 31.24216 28.49755
#
# Velocity S-wave (km/s) = 3.48667 3.84032 3.66776
# Velocity P-wave (km/s) = 6.37021 6.88287 6.63150
#
# Compressibility (1/GPa) = 0.01937007
#
# Stress axis : x y z
#
# Youngs Moduli (GPa) = 59.70873 81.29983 31.60788
#
# Poissons Ratio (x) = 0.11960 0.29125
# Poissons Ratio (y) = 0.08784 0.31520
# Poissons Ratio (z) = 0.55018 0.81075
#
# Static dielectric constant tensor:
#      x y z
#    x 1.779190 0.000000 0.000000 
#    y 0.000000 1.809210 0.000000 
#    z 0.000000 0.000000 1.786810 
# 
# From -- ./inp_files/5998.got.cif
#   From: 2010.05.17/outbox.cif.g08.bks.cpg/sg41_3_cif.got.tgz:5998.got - 2010.06.03 18:54:24.
