data_PCOD9366402
_publ_section_title
;
Structure prediction by ZEFSAII (Michael W. Deem and Ramdas Pophale) SiO2 
 PCOD9366402
Probable space group: A B A 2
;
_chemical_formula_sum "Si O2"
_cell_formula_units_Z 60
_cell_length_a 18.611066
_cell_length_b 18.389116
_cell_length_c 9.159604
_cell_angle_alpha 90.000000
_cell_angle_beta 90.000000
_cell_angle_gamma 90.000000
_cell_volume 3134.792505
_symmetry_space_group_name_H-M "A B A 2"
_symmetry_group_IT_number 41
_symmetry_cell_setting 'orthorhombic'
loop_
_space_group_symop_operation_xyz
x,y,z
-x,-y,z
1/2-x,y,1/2+z
1/2+x,-y,1/2+z
x,1/2+y,1/2+z
-x,1/2-y,1/2+z
1/2-x,1/2+y,z
1/2+x,1/2-y,z
loop_
_atom_site_type_symbol
_atom_site_label
_atom_site_fract_x
_atom_site_fract_y
_atom_site_fract_z
Si Si1 0.975702 0.221510 0.476860
Si Si2 0.006673 0.149555 0.769053
Si Si3 0.173803 0.715665 0.563848
Si Si4 0.101036 0.883056 0.247384
Si Si5 0.252461 0.806421 0.812990
Si Si6 0.887683 0.928531 0.978469
Si Si7 0.123524 0.907330 0.916307
Si Si8 0.500000 0.000000 0.692723
O O1 0.017141 0.178624 0.604569
O O2 0.908726 0.257432 0.562924
O O3 0.942292 0.170834 0.351369
O O4 0.011606 0.283851 0.379531
O O5 0.937531 0.098118 0.791411
O O6 0.076272 0.110548 0.838035
O O7 0.216983 0.755186 0.691300
O O8 0.210464 0.750073 0.422084
O O9 0.167131 0.628601 0.551310
O O10 0.184348 0.862785 0.268681
O O11 0.062354 0.959600 0.282463
O O12 0.092947 0.880386 0.072470
O O13 0.189710 0.856065 0.878324
O O14 0.856983 0.007801 0.939004
O O15 0.953741 0.946278 0.088732
#
# Coordination Sequence:
#
# PCOD9366402 Si02
#       8
#     8   8   8   8   8   8   8   4
#     4  10  22  34  61  92 122 158 211 273 308 379
#     4  11  19  36  60  91 121 161 213 261 322 367
#     4  10  22  39  59  88 122 158 217 255 311 377
#     4  10  21  39  60  91 119 162 215 258 316 383
#     4  11  21  40  63  87 121 168 205 264 311 386
#     4  10  21  39  61  89 123 162 213 263 316 377
#     4  11  20  38  66  83 122 177 205 249 328 385
#     4  10  20  40  66  86 120 174 200 258 330 382
#
# _framework density 19.140021999999998
#
# number of rings (size 3 to 8) (size 9 to 14) (size 15 to 20)
#    0.000    1.600    5.333    0.800    1.867    0.000 
#    7.200    0.000    0.000    0.000    0.000    0.000 
#    0.000    0.000    0.000    0.000    0.000    0.000 
#
# Total GULP energy -167034.474843 kJ/mol
# GULP energy per Si atom -5567.815828 kJ/mol
# Density = 1.909646 g / cm^3
# Si number density = 19.140022 Si / 1000 Ang^3
#
#
#
# Elastic Constant Matrix: (Units=GPa)
#
#
# Indices 1 2 3 4 5 6 
#
# 1 65.0271 41.2676 15.0521 0.0000 0.0000 0.0000
# 2 41.2676 99.8033 53.0461 0.0000 0.0000 0.0000
# 3 15.0521 53.0461 63.7486 0.0000 0.0000 0.0000
# 4 0.0000 0.0000 0.0000 10.8843 0.0000 0.0000
# 5 0.0000 0.0000 0.0000 0.0000 14.7358 0.0000
# 6 0.0000 0.0000 0.0000 0.0000 0.0000 33.1955
#
#
#
# Elastic Compliance Matrix: (Units=1/GPa)
#
#
# Indices 1 2 3 4 5 6 
#
# 1 0.021445 -0.011073 0.004151 0.000000 0.000000 0.000000
# 2 -0.011073 0.023683 -0.017093 0.000000 0.000000 0.000000
# 3 0.004151 -0.017093 0.028930 0.000000 0.000000 0.000000
# 4 0.000000 0.000000 0.000000 0.091875 0.000000 0.000000
# 5 0.000000 0.000000 0.000000 0.000000 0.067862 0.000000
# 6 0.000000 0.000000 0.000000 0.000000 0.000000 0.030125
#
#
# Mechanical properties :
#
#
# Convention : Reuss Voigt Hill
#
# Bulk Modulus (GPa) = 38.42111 49.70119 44.06115
# Shear Modulus (GPa) = 15.59453 19.71068 17.65260
#
# Velocity S-wave (km/s) = 2.85750 3.21255 3.04021
# Velocity P-wave (km/s) = 5.56815 6.30747 5.94931
#
# Compressibility (1/GPa) = 0.02602736
#
# Stress axis : x y z
#
# Youngs Moduli (GPa) = 46.63129 42.22382 34.56676
#
# Poissons Ratio (x) = 0.46756 -0.14348
# Poissons Ratio (y) = 0.51637 0.59084
# Poissons Ratio (z) = -0.19356 0.72172
#
# Static dielectric constant tensor:
#      x y z
#    x 1.702790 0.000000 0.000000 
#    y 0.000000 1.751660 0.000000 
#    z 0.000000 0.000000 1.681420 
# 
# From -- ./inp_files/3160.got.cif
#   From: 2010.05.17/outbox.cif.g08.bks.cpg/sg41_2_cif.got.tgz:3160.got - 2010.06.03 18:54:24.
