data_PCOD9366883
_publ_section_title
;
Structure prediction by ZEFSAII (Michael W. Deem and Ramdas Pophale) SiO2 
 PCOD9366883
Probable space group: A B A 2
;
_chemical_formula_sum "Si O2"
_cell_formula_units_Z 32
_cell_length_a 12.904231
_cell_length_b 8.302383
_cell_length_c 11.793378
_cell_angle_alpha 90.000000
_cell_angle_beta 90.000000
_cell_angle_gamma 90.000000
_cell_volume 1263.493790
_symmetry_space_group_name_H-M "A B A 2"
_symmetry_group_IT_number 41
_symmetry_cell_setting 'orthorhombic'
loop_
_space_group_symop_operation_xyz
x,y,z
-x,-y,z
1/2-x,y,1/2+z
1/2+x,-y,1/2+z
x,1/2+y,1/2+z
-x,1/2-y,1/2+z
1/2-x,1/2+y,z
1/2+x,1/2-y,z
loop_
_atom_site_type_symbol
_atom_site_label
_atom_site_fract_x
_atom_site_fract_y
_atom_site_fract_z
Si Si1 0.639570 0.566961 0.162990
Si Si2 0.535282 0.232443 0.210081
Si Si3 0.659643 0.557757 0.530927
Si Si4 0.147035 0.799835 0.932541
O O1 0.594738 0.403521 0.209493
O O2 0.585676 0.720658 0.221678
O O3 0.761021 0.549552 0.139360
O O4 0.602596 0.592866 0.033945
O O5 0.564409 0.145465 0.092273
O O6 0.585580 0.155127 0.320511
O O7 0.639481 0.386806 0.472243
O O8 0.729376 0.658872 0.440781
#
# Coordination Sequence:
#
# PCOD9366883 Si02
#       4
#     8   8   8   8
#     4   9  22  42  58  96 127 156 218 256 305 392
#     4  11  22  41  66  88 131 167 203 270 322 366
#     4  10  21  43  62  92 128 157 221 259 303 393
#     4  10  23  41  64  93 122 172 204 263 323 366
#
# _framework density 25.326599000000002
#
# number of rings (size 3 to 8) (size 9 to 14) (size 15 to 20)
#    1.500    0.500    2.500    0.000    3.500    5.000 
#    0.000    5.000    0.000    0.000    0.000    0.000 
#    0.000    0.000    0.000    0.000    0.000    0.000 
#
# Total GULP energy -89180.004819 kJ/mol
# GULP energy per Si atom -5573.750301 kJ/mol
# Density = 2.526895 g / cm^3
# Si number density = 25.326599 Si / 1000 Ang^3
#
#
#
# Elastic Constant Matrix: (Units=GPa)
#
#
# Indices 1 2 3 4 5 6 
#
# 1 89.5686 30.3702 28.8700 0.0000 0.0000 0.0000
# 2 30.3702 58.6482 -1.0333 0.0000 0.0000 0.0000
# 3 28.8700 -1.0333 92.2052 0.0000 0.0000 0.0000
# 4 0.0000 0.0000 0.0000 24.9108 0.0000 0.0000
# 5 0.0000 0.0000 0.0000 0.0000 20.9556 0.0000
# 6 0.0000 0.0000 0.0000 0.0000 0.0000 37.2292
#
#
#
# Elastic Compliance Matrix: (Units=1/GPa)
#
#
# Indices 1 2 3 4 5 6 
#
# 1 0.015513 -0.008120 -0.004948 0.000000 0.000000 0.000000
# 2 -0.008120 0.021305 0.002781 0.000000 0.000000 0.000000
# 3 -0.004948 0.002781 0.012426 0.000000 0.000000 0.000000
# 4 0.000000 0.000000 0.000000 0.040143 0.000000 0.000000
# 5 0.000000 0.000000 0.000000 0.000000 0.047720 0.000000
# 6 0.000000 0.000000 0.000000 0.000000 0.000000 0.026861
#
#
# Mechanical properties :
#
#
# Convention : Reuss Voigt Hill
#
# Bulk Modulus (GPa) = 34.88077 39.64843 37.26460
# Shear Modulus (GPa) = 25.76014 28.76679 27.26347
#
# Velocity S-wave (km/s) = 3.19269 3.37387 3.28453
# Velocity P-wave (km/s) = 5.23386 5.55573 5.39720
#
# Compressibility (1/GPa) = 0.02866909
#
# Stress axis : x y z
#
# Youngs Moduli (GPa) = 64.46242 46.93774 80.47738
#
# Poissons Ratio (x) = 0.38115 0.39822
# Poissons Ratio (y) = 0.52346 -0.22383
# Poissons Ratio (z) = 0.31897 -0.13055
#
# Static dielectric constant tensor:
#      x y z
#    x 2.125210 0.000000 0.000000 
#    y 0.000000 1.980090 0.000000 
#    z 0.000000 0.000000 1.986430 
# 
# From -- ./inp_files/2883.got.cif
#   From: 2010.05.17/outbox.cif.g08.bks.cpg/sg41_2_cif.got.tgz:2883.got - 2010.06.03 18:54:24.
