data_PCOD9366711
_publ_section_title
;
Structure prediction by ZEFSAII (Michael W. Deem and Ramdas Pophale) SiO2 
 PCOD9366711
Probable space group: A B A 2
;
_chemical_formula_sum "Si O2"
_cell_formula_units_Z 56
_cell_length_a 32.878740
_cell_length_b 5.264887
_cell_length_c 13.996944
_cell_angle_alpha 90.000000
_cell_angle_beta 90.000000
_cell_angle_gamma 90.000000
_cell_volume 2422.910909
_symmetry_space_group_name_H-M "A B A 2"
_symmetry_group_IT_number 41
_symmetry_cell_setting 'orthorhombic'
loop_
_space_group_symop_operation_xyz
x,y,z
-x,-y,z
1/2-x,y,1/2+z
1/2+x,-y,1/2+z
x,1/2+y,1/2+z
-x,1/2-y,1/2+z
1/2-x,1/2+y,z
1/2+x,1/2-y,z
loop_
_atom_site_type_symbol
_atom_site_label
_atom_site_fract_x
_atom_site_fract_y
_atom_site_fract_z
Si Si1 0.042536 0.950765 0.886720
Si Si2 0.268824 0.889427 0.968041
Si Si3 0.954929 0.049247 0.262833
Si Si4 0.649019 0.862646 0.985024
Si Si5 0.876485 0.363622 0.466675
Si Si6 0.775717 0.080269 0.237897
Si Si7 0.868058 0.049602 0.158535
O O1 0.043902 0.162345 0.802467
O O2 0.045099 0.667594 0.845566
O O3 0.079168 0.026102 0.953905
O O4 0.000000 0.000000 0.937353
O O5 0.233971 0.093960 0.993536
O O6 0.307323 0.032049 0.009314
O O7 0.274405 0.908687 0.853569
O O8 0.911027 0.021186 0.211846
O O9 0.000000 0.000000 0.215026
O O10 0.650755 0.595617 0.927519
O O11 0.627773 0.783691 0.083569
O O12 0.628306 0.085870 0.924641
O O13 0.865548 0.331113 0.577708
O O14 0.749844 0.830738 0.207284
O O15 0.823639 0.070503 0.208177
#
# Coordination Sequence:
#
# PCOD9366711 Si02
#       7
#     8   8   8   8   8   8   8
#     4  10  22  41  66  93 123 163 209 264 305 374
#     4  10  21  40  60  85 118 161 211 262 305 363
#     4  10  23  42  67  97 125 163 214 258 319 371
#     4  10  23  39  56  95 117 165 205 247 313 377
#     4  10  23  39  59  93 124 158 214 240 323 368
#     4  10  24  40  60  90 124 164 213 257 312 372
#     4  10  26  39  66  91 133 168 202 260 322 378
#
# _framework density 23.112694000000001
#
# number of rings (size 3 to 8) (size 9 to 14) (size 15 to 20)
#    0.857    1.143    0.000    1.714    8.000    1.714 
#    0.000    0.000    0.000    0.000    0.000    0.000 
#    0.000    0.000    0.000    0.000    0.000    0.000 
#
# Total GULP energy -155879.793482 kJ/mol
# GULP energy per Si atom -5567.135482 kJ/mol
# Density = 2.306009 g / cm^3
# Si number density = 23.112694 Si / 1000 Ang^3
#
#
#
# Elastic Constant Matrix: (Units=GPa)
#
#
# Indices 1 2 3 4 5 6 
#
# 1 171.4508 50.6308 14.4898 0.0000 0.0000 0.0000
# 2 50.6308 152.0899 6.2353 0.0000 0.0000 0.0000
# 3 14.4898 6.2353 39.6885 0.0000 0.0000 0.0000
# 4 0.0000 0.0000 0.0000 8.8002 0.0000 0.0000
# 5 0.0000 0.0000 0.0000 0.0000 30.2848 0.0000
# 6 0.0000 0.0000 0.0000 0.0000 0.0000 37.1633
#
#
#
# Elastic Compliance Matrix: (Units=1/GPa)
#
#
# Indices 1 2 3 4 5 6 
#
# 1 0.006636 -0.002124 -0.002089 0.000000 0.000000 0.000000
# 2 -0.002124 0.007297 -0.000371 0.000000 0.000000 0.000000
# 3 -0.002089 -0.000371 0.026017 0.000000 0.000000 0.000000
# 4 0.000000 0.000000 0.000000 0.113634 0.000000 0.000000
# 5 0.000000 0.000000 0.000000 0.000000 0.033020 0.000000
# 6 0.000000 0.000000 0.000000 0.000000 0.000000 0.026908
#
#
# Mechanical properties :
#
#
# Convention : Reuss Voigt Hill
#
# Bulk Modulus (GPa) = 32.48555 56.21565 44.35060
# Shear Modulus (GPa) = 21.46462 34.70788 28.08625
#
# Velocity S-wave (km/s) = 3.05075 3.87936 3.48974
# Velocity P-wave (km/s) = 5.14735 6.66641 5.95552
#
# Compressibility (1/GPa) = 0.03078292
#
# Stress axis : x y z
#
# Youngs Moduli (GPa) = 150.68764 137.03877 38.43604
#
# Poissons Ratio (x) = 0.29101 0.08030
# Poissons Ratio (y) = 0.31999 0.01427
# Poissons Ratio (z) = 0.31482 0.05086
#
# Static dielectric constant tensor:
#      x y z
#    x 1.966420 0.000000 0.000000 
#    y 0.000000 2.012140 0.000000 
#    z 0.000000 0.000000 1.897230 
# 
# From -- ./inp_files/9270.got.cif
#   From: 2010.05.17/outbox.cif.g08.bks.cpg/sg41_5_cif.got.tgz:9270.got - 2010.06.03 18:54:24.
