data_PCOD9366463
_publ_section_title
;
Structure prediction by ZEFSAII (Michael W. Deem and Ramdas Pophale) SiO2 
 PCOD9366463
Probable space group: A B A 2
;
_chemical_formula_sum "Si O2"
_cell_formula_units_Z 64
_cell_length_a 5.110274
_cell_length_b 26.521691
_cell_length_c 20.184467
_cell_angle_alpha 90.000000
_cell_angle_beta 90.000000
_cell_angle_gamma 90.000000
_cell_volume 2735.663545
_symmetry_space_group_name_H-M "A B A 2"
_symmetry_group_IT_number 41
_symmetry_cell_setting 'orthorhombic'
loop_
_space_group_symop_operation_xyz
x,y,z
-x,-y,z
1/2-x,y,1/2+z
1/2+x,-y,1/2+z
x,1/2+y,1/2+z
-x,1/2-y,1/2+z
1/2-x,1/2+y,z
1/2+x,1/2-y,z
loop_
_atom_site_type_symbol
_atom_site_label
_atom_site_fract_x
_atom_site_fract_y
_atom_site_fract_z
Si Si1 0.357497 0.822956 0.145500
Si Si2 0.893631 0.950914 0.784131
Si Si3 0.661327 0.456264 0.413625
Si Si4 0.255167 0.094109 0.033669
Si Si5 0.250805 0.776901 0.277807
Si Si6 0.771937 0.654344 0.508776
Si Si7 0.720816 0.128045 0.860250
Si Si8 0.359849 0.609533 0.170168
O O1 0.272283 0.781485 0.198526
O O2 0.642933 0.845547 0.163292
O O3 0.149794 0.868428 0.160850
O O4 0.328043 0.808656 0.067870
O O5 0.763989 0.979254 0.846358
O O6 0.698203 0.920274 0.737096
O O7 0.073863 0.908896 0.822088
O O8 0.000000 0.000000 0.744980
O O9 0.500000 0.500000 0.447941
O O10 0.849433 0.437506 0.471264
O O11 0.507718 0.408197 0.385586
O O12 0.206936 0.074332 0.106814
O O13 0.557597 0.109212 0.022076
O O14 0.069169 0.142774 0.029244
O O15 0.544647 0.764919 0.299913
O O16 0.152534 0.829317 0.307423
O O17 0.786798 0.658519 0.428938
#
# Coordination Sequence:
#
# PCOD9366463 Si02
#       8
#     8   8   8   8   8   8   8   8
#     4  10  20  42  65  90 121 163 212 266 318 384
#     4  12  23  36  61  93 130 172 219 257 318 379
#     4  11  22  37  62  92 130 178 218 258 315 383
#     4   9  19  35  57  89 124 162 215 253 305 375
#     4  12  27  43  66  97 125 168 215 265 333 392
#     4   9  19  36  65  90 116 165 206 252 327 372
#     4  11  23  42  63  91 135 168 209 276 315 382
#     4  10  21  37  63  90 125 170 206 262 320 366
#
# _framework density 23.394687000000001
#
# number of rings (size 3 to 8) (size 9 to 14) (size 15 to 20)
#    0.000    1.500    3.750    1.500    1.750    0.500 
#    0.000    1.250    0.000    5.250    0.000    0.000 
#    0.000    0.000    0.000    0.000    0.000    0.000 
#
# Total GULP energy -178137.967076 kJ/mol
# GULP energy per Si atom -5566.811471 kJ/mol
# Density = 2.334144 g / cm^3
# Si number density = 23.394687 Si / 1000 Ang^3
#
#
#
# Elastic Constant Matrix: (Units=GPa)
#
#
# Indices 1 2 3 4 5 6 
#
# 1 78.6268 6.4045 2.0971 0.0000 0.0000 0.0000
# 2 6.4045 36.9633 -2.8210 0.0000 0.0000 0.0000
# 3 2.0971 -2.8210 114.1948 0.0000 0.0000 0.0000
# 4 0.0000 0.0000 0.0000 239.2440 0.0000 0.0000
# 5 0.0000 0.0000 0.0000 0.0000 24.9832 0.0000
# 6 0.0000 0.0000 0.0000 0.0000 0.0000 28.6620
#
#
#
# Elastic Compliance Matrix: (Units=1/GPa)
#
#
# Indices 1 2 3 4 5 6 
#
# 1 0.012910 -0.002259 -0.000293 0.000000 0.000000 0.000000
# 2 -0.002259 0.027500 0.000721 0.000000 0.000000 0.000000
# 3 -0.000293 0.000721 0.008780 0.000000 0.000000 0.000000
# 4 0.000000 0.000000 0.000000 0.004180 0.000000 0.000000
# 5 0.000000 0.000000 0.000000 0.000000 0.040027 0.000000
# 6 0.000000 0.000000 0.000000 0.000000 0.000000 0.034889
#
#
# Mechanical properties :
#
#
# Convention : Reuss Voigt Hill
#
# Bulk Modulus (GPa) = 21.96448 26.79400 24.37924
# Shear Modulus (GPa) = 33.98458 73.51812 53.75135
#
# Velocity S-wave (km/s) = 3.81552 5.61189 4.79852
# Velocity P-wave (km/s) = 5.36842 7.31225 6.41440
#
# Compressibility (1/GPa) = 0.04552804
#
# Stress axis : x y z
#
# Youngs Moduli (GPa) = 77.45840 36.36316 113.89328
#
# Poissons Ratio (x) = 0.08215 0.03336
# Poissons Ratio (y) = 0.17500 -0.08210
# Poissons Ratio (z) = 0.02269 -0.02621
#
# Static dielectric constant tensor:
#      x y z
#    x 2.010520 0.000000 0.000000 
#    y 0.000000 1.603240 0.000000 
#    z 0.000000 0.000000 1.983110 
# 
# From -- ./inp_files/11036.got.cif
#   From: 2010.05.17/outbox.cif.g08.bks.cpg/sg41_6_cif.got.tgz:11036.got - 2010.06.03 18:54:24.
