data_PCOD9366301
_publ_section_title
;
Structure prediction by ZEFSAII (Michael W. Deem and Ramdas Pophale) SiO2 
 PCOD9366301
Probable space group: A B A 2
;
_chemical_formula_sum "Si O2"
_cell_formula_units_Z 60
_cell_length_a 18.824072
_cell_length_b 22.683433
_cell_length_c 5.709520
_cell_angle_alpha 90.000000
_cell_angle_beta 90.000000
_cell_angle_gamma 90.000000
_cell_volume 2437.934072
_symmetry_space_group_name_H-M "A B A 2"
_symmetry_group_IT_number 41
_symmetry_cell_setting 'orthorhombic'
loop_
_space_group_symop_operation_xyz
x,y,z
-x,-y,z
1/2-x,y,1/2+z
1/2+x,-y,1/2+z
x,1/2+y,1/2+z
-x,1/2-y,1/2+z
1/2-x,1/2+y,z
1/2+x,1/2-y,z
loop_
_atom_site_type_symbol
_atom_site_label
_atom_site_fract_x
_atom_site_fract_y
_atom_site_fract_z
Si Si1 0.789724 0.621246 0.856870
Si Si2 0.534595 0.831521 0.620347
Si Si3 0.500000 0.500000 0.799679
Si Si4 0.410852 0.288031 0.815166
Si Si5 0.374374 0.078449 0.402971
Si Si6 0.257185 0.529986 0.620268
Si Si7 0.944768 0.604373 0.972318
Si Si8 0.255174 0.252241 0.874482
O O1 0.747332 0.609702 0.612631
O O2 0.868724 0.593672 0.850852
O O3 0.799790 0.693337 0.867270
O O4 0.575405 0.778539 0.738669
O O5 0.462144 0.803406 0.527633
O O6 0.584083 0.860623 0.422698
O O7 0.508598 0.882175 0.795303
O O8 0.433955 0.528237 0.937075
O O9 0.532942 0.551581 0.640989
O O10 0.432511 0.336689 0.625128
O O11 0.328851 0.288228 0.875538
O O12 0.331296 0.063578 0.165186
O O13 0.310445 0.073209 0.589671
O O14 0.255200 0.498129 0.369264
O O15 0.250522 0.219730 0.623971
#
# Coordination Sequence:
#
# PCOD9366301 Si02
#       8
#     8   8   4   8   8   8   8   8
#     4  10  20  40  70  99 146 189 239 313 375 454
#     4  12  26  45  75 107 151 202 254 317 392 464
#     4  12  28  48  76 114 150 208 262 330 378 476
#     4  12  24  44  72 106 149 197 248 319 384 462
#     4  10  24  48  74 112 151 202 265 318 388 463
#     4   8  20  45  75 101 155 196 253 323 376 463
#     4  12  26  46  70 108 153 195 260 312 392 455
#     4  10  20  38  66 100 145 182 239 303 375 452
#
# _framework density 24.611000000000001
#
# number of rings (size 3 to 8) (size 9 to 14) (size 15 to 20)
#    0.800    0.533    5.333    1.600    1.867    0.533 
#    4.800    0.000    0.000    0.000    0.000    0.000 
#    0.000    0.000    0.000    0.000    0.000    0.000 
#
# Total GULP energy -167548.271300 kJ/mol
# GULP energy per Si atom -5584.942377 kJ/mol
# Density = 2.455498 g / cm^3
# Si number density = 24.611000 Si / 1000 Ang^3
#
#
#
# Elastic Constant Matrix: (Units=GPa)
#
#
# Indices 1 2 3 4 5 6 
#
# 1 100.1549 27.4978 8.0384 0.0000 0.0000 0.0000
# 2 27.4978 77.7948 26.8568 0.0000 0.0000 0.0000
# 3 8.0384 26.8568 154.1155 0.0000 0.0000 0.0000
# 4 0.0000 0.0000 0.0000 -49.4970 0.0000 0.0000
# 5 0.0000 0.0000 0.0000 0.0000 61.8559 0.0000
# 6 0.0000 0.0000 0.0000 0.0000 0.0000 18.3804
#
#
#
# Elastic Compliance Matrix: (Units=1/GPa)
#
#
# Indices 1 2 3 4 5 6 
#
# 1 0.011059 -0.003947 0.000111 0.000000 0.000000 0.000000
# 2 -0.003947 0.015086 -0.002423 0.000000 0.000000 0.000000
# 3 0.000111 -0.002423 0.006905 0.000000 0.000000 0.000000
# 4 0.000000 0.000000 0.000000 -0.020203 0.000000 0.000000
# 5 0.000000 0.000000 0.000000 0.000000 0.016167 0.000000
# 6 0.000000 0.000000 0.000000 0.000000 0.000000 0.054406
#
#
# Mechanical properties :
#
#
# Convention : Reuss Voigt Hill
#
# Bulk Modulus (GPa) = 48.70520 50.76123 49.73322
# Shear Modulus (GPa) = 48.64641 24.12602 36.38621
#
# Velocity S-wave (km/s) = 4.45073 3.13436 3.84924
# Velocity P-wave (km/s) = 6.80037 5.81112 6.32512
#
# Compressibility (1/GPa) = 0.02053169
#
# Stress axis : x y z
#
# Youngs Moduli (GPa) = 90.42079 66.28603 144.82045
#
# Poissons Ratio (x) = 0.26166 -0.01608
# Poissons Ratio (y) = 0.35693 0.35091
# Poissons Ratio (z) = -0.01004 0.16062
#
# Static dielectric constant tensor:
#      x y z
#    x 1.970860 0.000000 0.000000 
#    y 0.000000 2.075480 0.000000 
#    z 0.000000 0.000000 2.002540 
# 
# From -- ./inp_files/785.got.cif
#   From: 2010.05.17/outbox.cif.g08.bks.cpg/sg41_1_cif.got.tgz:785.got - 2010.06.03 18:54:24.
