data_PCOD9366575
_publ_section_title
;
Structure prediction by ZEFSAII (Michael W. Deem and Ramdas Pophale) SiO2 
 PCOD9366575
Probable space group: A B A 2
;
_chemical_formula_sum "Si O2"
_cell_formula_units_Z 44
_cell_length_a 12.094962
_cell_length_b 16.629618
_cell_length_c 8.337657
_cell_angle_alpha 90.000000
_cell_angle_beta 90.000000
_cell_angle_gamma 90.000000
_cell_volume 1676.991287
_symmetry_space_group_name_H-M "A B A 2"
_symmetry_group_IT_number 41
_symmetry_cell_setting 'orthorhombic'
loop_
_space_group_symop_operation_xyz
x,y,z
-x,-y,z
1/2-x,y,1/2+z
1/2+x,-y,1/2+z
x,1/2+y,1/2+z
-x,1/2-y,1/2+z
1/2-x,1/2+y,z
1/2+x,1/2-y,z
loop_
_atom_site_type_symbol
_atom_site_label
_atom_site_fract_x
_atom_site_fract_y
_atom_site_fract_z
Si Si1 0.421890 0.190606 0.426770
Si Si2 0.566164 0.825820 0.062858
Si Si3 0.856218 0.569073 0.738567
Si Si4 0.852469 0.091528 0.879708
Si Si5 0.500000 0.000000 0.161058
Si Si6 0.887103 0.887088 0.251331
O O1 0.383270 0.196075 0.238987
O O2 0.460467 0.270611 0.520688
O O3 0.541721 0.148292 0.393473
O O4 0.360030 0.140257 0.568354
O O5 0.524178 0.917640 0.073151
O O6 0.638300 0.826769 0.898544
O O7 0.827876 0.560579 0.553975
O O8 0.762192 0.624209 0.814157
O O9 0.850002 0.477193 0.797681
O O10 0.978537 0.604628 0.745229
O O11 0.894577 0.018600 0.770678
#
# Coordination Sequence:
#
# PCOD9366575 Si02
#       6
#     8   8   8   8   4   8
#     4  10  21  38  63  95 126 165 215 266 325 385
#     4  11  20  37  68  90 123 165 216 258 324 381
#     4  10  21  37  62  92 127 162 221 257 321 382
#     4  10  22  38  63  92 129 169 209 273 317 386
#     4  10  22  38  66  90 128 170 222 256 322 380
#     4  10  21  39  62  93 121 173 210 266 313 383
#
# _framework density 26.237465
#
# number of rings (size 3 to 8) (size 9 to 14) (size 15 to 20)
#    0.000    1.818    1.818    4.364    7.636    0.000 
#    0.000    0.000   12.000    0.000    0.000    0.000 
#    0.000    0.000    0.000    0.000    0.000    0.000 
#
# Total GULP energy -122840.030418 kJ/mol
# GULP energy per Si atom -5583.637746 kJ/mol
# Density = 2.617775 g / cm^3
# Si number density = 26.237465 Si / 1000 Ang^3
#
#
#
# Elastic Constant Matrix: (Units=GPa)
#
#
# Indices 1 2 3 4 5 6 
#
# 1 96.7058 -6.1979 24.2468 0.0000 0.0000 0.0000
# 2 -6.1979 97.5789 23.6778 0.0000 0.0000 0.0000
# 3 24.2468 23.6778 214.5002 0.0000 0.0000 0.0000
# 4 0.0000 0.0000 0.0000 26.3209 0.0000 0.0000
# 5 0.0000 0.0000 0.0000 0.0000 43.6383 0.0000
# 6 0.0000 0.0000 0.0000 0.0000 0.0000 12.6933
#
#
#
# Elastic Compliance Matrix: (Units=1/GPa)
#
#
# Indices 1 2 3 4 5 6 
#
# 1 0.010737 0.001003 -0.001324 0.000000 0.000000 0.000000
# 2 0.001003 0.010624 -0.001286 0.000000 0.000000 0.000000
# 3 -0.001324 -0.001286 0.004954 0.000000 0.000000 0.000000
# 4 0.000000 0.000000 0.000000 0.037993 0.000000 0.000000
# 5 0.000000 0.000000 0.000000 0.000000 0.022916 0.000000
# 6 0.000000 0.000000 0.000000 0.000000 0.000000 0.078782
#
#
# Mechanical properties :
#
#
# Convention : Reuss Voigt Hill
#
# Bulk Modulus (GPa) = 43.28975 54.69315 48.99145
# Shear Modulus (GPa) = 28.26147 41.00106 34.63126
#
# Velocity S-wave (km/s) = 3.28554 3.95738 3.63701
# Velocity P-wave (km/s) = 5.56130 6.46311 6.02909
#
# Compressibility (1/GPa) = 0.02310016
#
# Stress axis : x y z
#
# Youngs Moduli (GPa) = 93.13570 94.12712 201.86975
#
# Poissons Ratio (x) = -0.09444 0.26737
# Poissons Ratio (y) = -0.09345 0.25963
# Poissons Ratio (z) = 0.12335 0.12106
#
# Static dielectric constant tensor:
#      x y z
#    x 2.068050 0.000000 0.000000 
#    y 0.000000 2.061490 0.000000 
#    z 0.000000 0.000000 2.149490 
# 
# From -- ./inp_files/2480.got.cif
#   From: 2010.05.17/outbox.cif.g08.bks.cpg/sg41_2_cif.got.tgz:2480.got - 2010.06.03 18:54:24.
