data_PCOD9366673
_publ_section_title
;
Structure prediction by ZEFSAII (Michael W. Deem and Ramdas Pophale) SiO2 
 PCOD9366673
Probable space group: A B A 2
;
_chemical_formula_sum "Si O2"
_cell_formula_units_Z 64
_cell_length_a 14.110908
_cell_length_b 21.745250
_cell_length_c 8.548896
_cell_angle_alpha 90.000000
_cell_angle_beta 90.000000
_cell_angle_gamma 90.000000
_cell_volume 2623.187893
_symmetry_space_group_name_H-M "A B A 2"
_symmetry_group_IT_number 41
_symmetry_cell_setting 'orthorhombic'
loop_
_space_group_symop_operation_xyz
x,y,z
-x,-y,z
1/2-x,y,1/2+z
1/2+x,-y,1/2+z
x,1/2+y,1/2+z
-x,1/2-y,1/2+z
1/2-x,1/2+y,z
1/2+x,1/2-y,z
loop_
_atom_site_type_symbol
_atom_site_label
_atom_site_fract_x
_atom_site_fract_y
_atom_site_fract_z
Si Si1 0.835555 0.920892 0.096950
Si Si2 0.564840 0.114632 0.286276
Si Si3 0.120659 0.455854 0.742469
Si Si4 0.364970 0.741926 0.751642
Si Si5 0.187367 0.798445 0.564594
Si Si6 0.001339 0.656759 0.630838
Si Si7 0.761078 0.577404 0.458193
Si Si8 0.633584 0.403987 0.733048
O O1 0.725657 0.925259 0.139318
O O2 0.887786 0.858399 0.153197
O O3 0.895556 0.977017 0.172573
O O4 0.845533 0.922756 0.911500
O O5 0.613284 0.165076 0.174337
O O6 0.525862 0.145704 0.448130
O O7 0.645172 0.069149 0.353688
O O8 0.476722 0.080522 0.204173
O O9 0.050658 0.398781 0.725375
O O10 0.207414 0.433936 0.633240
O O11 0.168540 0.459887 0.910782
O O12 0.271723 0.768443 0.664312
O O13 0.455304 0.780445 0.689545
O O14 0.368899 0.670127 0.717029
O O15 0.357913 0.752854 0.938039
O O16 0.233464 0.851220 0.454467
#
# Coordination Sequence:
#
# PCOD9366673 Si02
#       8
#     8   8   8   8   8   8   8   8
#     4  11  25  46  62  90 135 176 218 260 330 404
#     4  10  21  39  62  92 133 157 214 266 320 390
#     4  11  20  38  68  96 123 166 209 274 326 384
#     4  12  22  38  66  95 129 169 219 272 320 390
#     4  12  19  38  64  98 126 154 214 279 322 375
#     4  10  21  41  66  96 122 169 224 271 329 377
#     4  11  18  36  66  95 124 153 213 268 327 377
#     4  11  27  44  60  90 134 184 213 259 329 393
#
# _framework density 24.397794999999999
#
# number of rings (size 3 to 8) (size 9 to 14) (size 15 to 20)
#    0.000    1.000    6.250    1.875    0.000    4.000 
#    0.000    1.875    0.000    0.000    0.000    0.000 
#    0.000    0.000    0.000    0.000    0.000    0.000 
#
# Total GULP energy -178867.505536 kJ/mol
# GULP energy per Si atom -5589.609548 kJ/mol
# Density = 2.434226 g / cm^3
# Si number density = 24.397795 Si / 1000 Ang^3
#
#
#
# Elastic Constant Matrix: (Units=GPa)
#
#
# Indices 1 2 3 4 5 6 
#
# 1 115.7851 13.5145 30.4204 0.0000 0.0000 0.0000
# 2 13.5145 93.5618 -2.7797 0.0000 0.0000 0.0000
# 3 30.4204 -2.7797 36.3345 0.0000 0.0000 0.0000
# 4 0.0000 0.0000 0.0000 26.8975 0.0000 0.0000
# 5 0.0000 0.0000 0.0000 0.0000 27.0356 0.0000
# 6 0.0000 0.0000 0.0000 0.0000 0.0000 16.8158
#
#
#
# Elastic Compliance Matrix: (Units=1/GPa)
#
#
# Indices 1 2 3 4 5 6 
#
# 1 0.011412 -0.001937 -0.009703 0.000000 0.000000 0.000000
# 2 -0.001937 0.011041 0.002466 0.000000 0.000000 0.000000
# 3 -0.009703 0.002466 0.035834 0.000000 0.000000 0.000000
# 4 0.000000 0.000000 0.000000 0.037178 0.000000 0.000000
# 5 0.000000 0.000000 0.000000 0.000000 0.036988 0.000000
# 6 0.000000 0.000000 0.000000 0.000000 0.000000 0.059468
#
#
# Mechanical properties :
#
#
# Convention : Reuss Voigt Hill
#
# Bulk Modulus (GPa) = 25.03702 36.44353 30.74028
# Shear Modulus (GPa) = 22.36322 27.78486 25.07404
#
# Velocity S-wave (km/s) = 3.03084 3.37831 3.20928
# Velocity P-wave (km/s) = 4.74682 5.49427 5.13416
#
# Compressibility (1/GPa) = 0.03994086
#
# Stress axis : x y z
#
# Youngs Moduli (GPa) = 87.62774 90.57048 27.90640
#
# Poissons Ratio (x) = 0.17540 0.27076
# Poissons Ratio (y) = 0.16970 -0.06882
# Poissons Ratio (z) = 0.85022 -0.22336
#
# Static dielectric constant tensor:
#      x y z
#    x 2.075750 0.000000 0.000000 
#    y 0.000000 1.993000 0.000000 
#    z 0.000000 0.000000 1.912430 
# 
# From -- ./inp_files/2787.got.cif
#   From: 2010.05.17/outbox.cif.g08.bks.cpg/sg41_2_cif.got.tgz:2787.got - 2010.06.03 18:54:24.
