data_PCOD9366633
_publ_section_title
;
Structure prediction by ZEFSAII (Michael W. Deem and Ramdas Pophale) SiO2 
 PCOD9366633
Probable space group: A B A 2
;
_chemical_formula_sum "Si O2"
_cell_formula_units_Z 64
_cell_length_a 17.898823
_cell_length_b 11.056671
_cell_length_c 16.145525
_cell_angle_alpha 90.000000
_cell_angle_beta 90.000000
_cell_angle_gamma 90.000000
_cell_volume 3195.221956
_symmetry_space_group_name_H-M "A B A 2"
_symmetry_group_IT_number 41
_symmetry_cell_setting 'orthorhombic'
loop_
_space_group_symop_operation_xyz
x,y,z
-x,-y,z
1/2-x,y,1/2+z
1/2+x,-y,1/2+z
x,1/2+y,1/2+z
-x,1/2-y,1/2+z
1/2-x,1/2+y,z
1/2+x,1/2-y,z
loop_
_atom_site_type_symbol
_atom_site_label
_atom_site_fract_x
_atom_site_fract_y
_atom_site_fract_z
Si Si1 0.159279 0.700540 0.143830
Si Si2 0.097315 0.749046 0.306651
Si Si3 0.162322 0.389395 0.510491
Si Si4 0.923513 0.028282 0.592488
Si Si5 0.671262 0.169906 0.971958
Si Si6 0.911918 0.023261 0.849125
Si Si7 0.328636 0.129744 0.612645
Si Si8 0.932969 0.228131 0.730697
O O1 0.141999 0.780431 0.223762
O O2 0.137827 0.771105 0.060397
O O3 0.108888 0.580930 0.146141
O O4 0.245943 0.667063 0.141377
O O5 0.125844 0.819767 0.386969
O O6 0.119536 0.608924 0.327680
O O7 0.009850 0.760863 0.279140
O O8 0.240517 0.355384 0.465727
O O9 0.105921 0.438883 0.442409
O O10 0.172154 0.493390 0.579702
O O11 0.860672 0.062719 0.527997
O O12 0.945739 0.137379 0.653481
O O13 0.000000 0.000000 0.546278
O O14 0.657362 0.287332 0.030530
O O15 0.888753 0.138157 0.793079
O O16 0.000000 0.000000 0.836919
O O17 0.386411 0.164488 0.686431
#
# Coordination Sequence:
#
# PCOD9366633 Si02
#       8
#     8   8   8   8   8   8   8   8
#     4  11  23  38  64  93 127 165 220 261 321 393
#     4  11  21  41  64  95 125 165 215 270 320 382
#     4  11  23  41  61  96 129 171 212 264 333 384
#     4  11  19  39  66  89 123 170 210 265 317 391
#     4  10  23  39  65  93 132 166 220 266 323 390
#     4  10  21  38  64  92 126 165 216 264 319 390
#     4  10  22  42  62  93 130 174 209 268 324 393
#     4  10  21  38  66  93 121 164 223 255 321 392
#
# _framework density 20.029907999999999
#
# number of rings (size 3 to 8) (size 9 to 14) (size 15 to 20)
#    0.000    1.500    5.000    0.375    1.750    3.000 
#    0.000    2.500    0.000    0.000    0.000    0.000 
#    0.000    0.000    0.000    0.000    0.000    0.000 
#
# Total GULP energy -178347.459213 kJ/mol
# GULP energy per Si atom -5573.358100 kJ/mol
# Density = 1.998432 g / cm^3
# Si number density = 20.029908 Si / 1000 Ang^3
#
#
#
# Elastic Constant Matrix: (Units=GPa)
#
#
# Indices 1 2 3 4 5 6 
#
# 1 31.6779 2.2461 17.6722 0.0000 0.0000 0.0000
# 2 2.2461 39.3723 5.9483 0.0000 0.0000 0.0000
# 3 17.6722 5.9483 71.2718 0.0000 0.0000 0.0000
# 4 0.0000 0.0000 0.0000 25.4840 0.0000 0.0000
# 5 0.0000 0.0000 0.0000 0.0000 36.4489 0.0000
# 6 0.0000 0.0000 0.0000 0.0000 0.0000 15.2388
#
#
#
# Elastic Compliance Matrix: (Units=1/GPa)
#
#
# Indices 1 2 3 4 5 6 
#
# 1 0.036656 -0.000727 -0.009028 0.000000 0.000000 0.000000
# 2 -0.000727 0.025737 -0.001968 0.000000 0.000000 0.000000
# 3 -0.009028 -0.001968 0.016434 0.000000 0.000000 0.000000
# 4 0.000000 0.000000 0.000000 0.039240 0.000000 0.000000
# 5 0.000000 0.000000 0.000000 0.000000 0.027436 0.000000
# 6 0.000000 0.000000 0.000000 0.000000 0.000000 0.065622
#
#
# Mechanical properties :
#
#
# Convention : Reuss Voigt Hill
#
# Bulk Modulus (GPa) = 18.05687 21.56167 19.80927
# Shear Modulus (GPa) = 19.76038 23.19803 21.47921
#
# Velocity S-wave (km/s) = 3.14434 3.40688 3.27824
# Velocity P-wave (km/s) = 4.71349 5.12483 4.92346
#
# Compressibility (1/GPa) = 0.05538058
#
# Stress axis : x y z
#
# Youngs Moduli (GPa) = 27.28070 38.85408 60.85080
#
# Poissons Ratio (x) = 0.02825 0.54938
# Poissons Ratio (y) = 0.01984 0.11974
# Poissons Ratio (z) = 0.24630 0.07645
#
# Static dielectric constant tensor:
#      x y z
#    x 1.724060 0.000000 0.000000 
#    y 0.000000 1.743060 0.000000 
#    z 0.000000 0.000000 1.695080 
# 
# From -- ./inp_files/8836.got.cif
#   From: 2010.05.17/outbox.cif.g08.bks.cpg/sg41_5_cif.got.tgz:8836.got - 2010.06.03 18:54:24.
