data_PCOD9366534
_publ_section_title
;
Structure prediction by ZEFSAII (Michael W. Deem and Ramdas Pophale) SiO2 
 PCOD9366534
Probable space group: A B A 2
;
_chemical_formula_sum "Si O2"
_cell_formula_units_Z 48
_cell_length_a 13.743373
_cell_length_b 12.454787
_cell_length_c 11.143707
_cell_angle_alpha 90.000000
_cell_angle_beta 90.000000
_cell_angle_gamma 90.000000
_cell_volume 1907.477057
_symmetry_space_group_name_H-M "A B A 2"
_symmetry_group_IT_number 41
_symmetry_cell_setting 'orthorhombic'
loop_
_space_group_symop_operation_xyz
x,y,z
-x,-y,z
1/2-x,y,1/2+z
1/2+x,-y,1/2+z
x,1/2+y,1/2+z
-x,1/2-y,1/2+z
1/2-x,1/2+y,z
1/2+x,1/2-y,z
loop_
_atom_site_type_symbol
_atom_site_label
_atom_site_fract_x
_atom_site_fract_y
_atom_site_fract_z
Si Si1 0.000000 0.000000 0.581220
Si Si2 0.168546 0.358395 0.072626
Si Si3 0.500000 0.000000 0.703063
Si Si4 0.408481 0.661178 0.390075
Si Si5 0.734761 0.817651 0.229793
Si Si6 0.327867 0.511410 0.046719
Si Si7 0.570233 0.812936 0.394131
O O1 0.938182 0.915163 0.499954
O O2 0.084615 0.928245 0.637747
O O3 0.227329 0.290497 0.169161
O O4 0.246031 0.431132 0.001406
O O5 0.117271 0.280628 0.977265
O O6 0.459857 0.097999 0.780771
O O7 0.410074 0.955747 0.627398
O O8 0.295981 0.666338 0.353655
O O9 0.458039 0.778086 0.395911
O O10 0.768938 0.909028 0.137031
O O11 0.622237 0.812708 0.264905
O O12 0.393225 0.577823 0.954050
#
# Coordination Sequence:
#
# PCOD9366534 Si02
#       7
#     4   8   4   8   8   8   8
#     4   9  18  34  54  75 104 142 180 219 264 313
#     4  10  21  36  55  80 109 141 177 218 264 314
#     4   9  18  34  54  75 104 142 180 219 264 313
#     4   9  18  34  54  75 104 142 180 219 264 313
#     4  10  21  36  55  80 109 141 177 218 264 314
#     4  10  21  36  55  80 109 141 177 218 264 314
#     4  10  21  36  55  80 109 141 177 218 264 314
#
# _framework density 25.164128000000002
#
# number of rings (size 3 to 8) (size 9 to 14) (size 15 to 20)
#    0.000    2.333    0.000    2.000    0.000    6.667 
#    0.000    6.667    0.000    0.000    0.000    0.000 
#    0.000    0.000    0.000    0.000    0.000    0.000 
#
# Total GULP energy -134245.096654 kJ/mol
# GULP energy per Si atom -5593.545694 kJ/mol
# Density = 2.510685 g / cm^3
# Si number density = 25.164128 Si / 1000 Ang^3
#
#
#
# Elastic Constant Matrix: (Units=GPa)
#
#
# Indices 1 2 3 4 5 6 
#
# 1 69.0419 11.4062 -1.0117 0.0000 0.0000 0.0000
# 2 11.4062 54.5286 5.7648 0.0000 0.0000 0.0000
# 3 -1.0117 5.7648 43.1573 0.0000 0.0000 0.0000
# 4 0.0000 0.0000 0.0000 8.5312 0.0000 0.0000
# 5 0.0000 0.0000 0.0000 0.0000 38.9217 0.0000
# 6 0.0000 0.0000 0.0000 0.0000 0.0000 36.5797
#
#
#
# Elastic Compliance Matrix: (Units=1/GPa)
#
#
# Indices 1 2 3 4 5 6 
#
# 1 0.015028 -0.003226 0.000783 0.000000 0.000000 0.000000
# 2 -0.003226 0.019294 -0.002653 0.000000 0.000000 0.000000
# 3 0.000783 -0.002653 0.023544 0.000000 0.000000 0.000000
# 4 0.000000 0.000000 0.000000 0.117216 0.000000 0.000000
# 5 0.000000 0.000000 0.000000 0.000000 0.025693 0.000000
# 6 0.000000 0.000000 0.000000 0.000000 0.000000 0.027338
#
#
# Mechanical properties :
#
#
# Convention : Reuss Voigt Hill
#
# Bulk Modulus (GPa) = 20.97560 22.11628 21.54594
# Shear Modulus (GPa) = 19.66981 26.84443 23.25712
#
# Velocity S-wave (km/s) = 2.79885 3.26969 3.04339
# Velocity P-wave (km/s) = 4.33571 4.80233 4.57498
#
# Compressibility (1/GPa) = 0.04767444
#
# Stress axis : x y z
#
# Youngs Moduli (GPa) = 66.54038 51.82854 42.47409
#
# Poissons Ratio (x) = 0.16722 -0.03327
# Poissons Ratio (y) = 0.21469 0.11268
# Poissons Ratio (z) = -0.05212 0.13750
#
# Static dielectric constant tensor:
#      x y z
#    x 1.976000 0.000000 0.000000 
#    y 0.000000 2.011900 0.000000 
#    z 0.000000 0.000000 2.029870 
# 
# From -- ./inp_files/5553.got.cif
#   From: 2010.05.17/outbox.cif.g08.bks.cpg/sg41_3_cif.got.tgz:5553.got - 2010.06.03 18:54:24.
