data_PCOD9366637
_publ_section_title
;
Structure prediction by ZEFSAII (Michael W. Deem and Ramdas Pophale) SiO2 
 PCOD9366637
Probable space group: A B A 2
;
_chemical_formula_sum "Si O2"
_cell_formula_units_Z 60
_cell_length_a 17.645742
_cell_length_b 18.613913
_cell_length_c 8.888048
_cell_angle_alpha 90.000000
_cell_angle_beta 90.000000
_cell_angle_gamma 90.000000
_cell_volume 2919.335417
_symmetry_space_group_name_H-M "A B A 2"
_symmetry_group_IT_number 41
_symmetry_cell_setting 'orthorhombic'
loop_
_space_group_symop_operation_xyz
x,y,z
-x,-y,z
1/2-x,y,1/2+z
1/2+x,-y,1/2+z
x,1/2+y,1/2+z
-x,1/2-y,1/2+z
1/2-x,1/2+y,z
1/2+x,1/2-y,z
loop_
_atom_site_type_symbol
_atom_site_label
_atom_site_fract_x
_atom_site_fract_y
_atom_site_fract_z
Si Si1 0.390359 0.535216 0.126260
Si Si2 0.000000 0.000000 0.682536
Si Si3 0.874621 0.525880 0.940065
Si Si4 0.022286 0.130835 0.908205
Si Si5 0.143339 0.390824 0.459190
Si Si6 0.216534 0.353767 0.778351
Si Si7 0.672375 0.309469 0.802447
Si Si8 0.236885 0.598395 0.047135
O O1 0.412219 0.503757 0.286619
O O2 0.381722 0.472109 0.001294
O O3 0.306528 0.567832 0.145061
O O4 0.446637 0.594548 0.061340
O O5 0.976021 0.932997 0.785162
O O6 0.066838 0.972228 0.575447
O O7 0.837258 0.600380 0.889113
O O8 0.810193 0.469309 0.989125
O O9 0.084615 0.187984 0.853784
O O10 0.934969 0.151798 0.932382
O O11 0.189638 0.367395 0.607690
O O12 0.199329 0.381658 0.318436
O O13 0.206523 0.269687 0.805910
O O14 0.684591 0.347620 0.641802
O O15 0.720044 0.358634 0.916894
#
# Coordination Sequence:
#
# PCOD9366637 Si02
#       8
#     8   4   8   8   8   8   8   8
#     4  10  21  38  65  98 130 166 218 276 334 375
#     4  12  24  38  68  98 134 164 232 282 336 388
#     4  11  24  39  65 101 126 176 224 283 318 400
#     4  11  24  42  67  95 138 170 216 279 342 387
#     4  11  23  42  67  93 131 173 220 279 328 398
#     4  11  26  43  66  96 136 174 230 270 339 407
#     4  11  24  45  64 100 134 180 218 273 342 407
#     4  11  20  40  68  92 131 172 225 271 321 398
#
# _framework density 20.552624000000002
#
# number of rings (size 3 to 8) (size 9 to 14) (size 15 to 20)
#    0.000    1.067    5.333    0.800    5.600    0.000 
#    2.400    1.333    0.000    0.000    0.000    0.000 
#    0.000    0.000    0.000    0.000    0.000    0.000 
#
# Total GULP energy -167670.673072 kJ/mol
# GULP energy per Si atom -5589.022436 kJ/mol
# Density = 2.050584 g / cm^3
# Si number density = 20.552624 Si / 1000 Ang^3
#
#
#
# Elastic Constant Matrix: (Units=GPa)
#
#
# Indices 1 2 3 4 5 6 
#
# 1 114.0764 -7.1810 25.8808 0.0000 0.0000 0.0000
# 2 -7.1810 47.3242 3.3377 0.0000 0.0000 0.0000
# 3 25.8808 3.3377 64.9590 0.0000 0.0000 0.0000
# 4 0.0000 0.0000 0.0000 15.1915 0.0000 0.0000
# 5 0.0000 0.0000 0.0000 0.0000 31.1555 0.0000
# 6 0.0000 0.0000 0.0000 0.0000 0.0000 8.4824
#
#
#
# Elastic Compliance Matrix: (Units=1/GPa)
#
#
# Indices 1 2 3 4 5 6 
#
# 1 0.009782 0.001766 -0.003988 0.000000 0.000000 0.000000
# 2 0.001766 0.021526 -0.001810 0.000000 0.000000 0.000000
# 3 -0.003988 -0.001810 0.017076 0.000000 0.000000 0.000000
# 4 0.000000 0.000000 0.000000 0.065826 0.000000 0.000000
# 5 0.000000 0.000000 0.000000 0.000000 0.032097 0.000000
# 6 0.000000 0.000000 0.000000 0.000000 0.000000 0.117892
#
#
# Mechanical properties :
#
#
# Convention : Reuss Voigt Hill
#
# Bulk Modulus (GPa) = 24.80118 30.04829 27.42474
# Shear Modulus (GPa) = 17.50066 24.58735 21.04401
#
# Velocity S-wave (km/s) = 2.92122 3.46253 3.20333
# Velocity P-wave (km/s) = 4.84473 5.53510 5.20138
#
# Compressibility (1/GPa) = 0.04032067
#
# Stress axis : x y z
#
# Youngs Moduli (GPa) = 102.22893 46.45460 58.56104
#
# Poissons Ratio (x) = -0.08202 0.23354
# Poissons Ratio (y) = -0.18049 0.10597
# Poissons Ratio (z) = 0.40769 0.08406
#
# Static dielectric constant tensor:
#      x y z
#    x 1.761090 0.000000 0.000000 
#    y 0.000000 1.692270 0.000000 
#    z 0.000000 0.000000 1.745590 
# 
# From -- ./inp_files/3153.got.cif
#   From: 2010.05.17/outbox.cif.g08.bks.cpg/sg41_2_cif.got.tgz:3153.got - 2010.06.03 18:54:24.
