data_PCOD9366908
_publ_section_title
;
Structure prediction by ZEFSAII (Michael W. Deem and Ramdas Pophale) SiO2 
 PCOD9366908
Probable space group: A B A 2
;
_chemical_formula_sum "Si O2"
_cell_formula_units_Z 60
_cell_length_a 15.790885
_cell_length_b 17.560958
_cell_length_c 10.986140
_cell_angle_alpha 90.000000
_cell_angle_beta 90.000000
_cell_angle_gamma 90.000000
_cell_volume 3046.490330
_symmetry_space_group_name_H-M "A B A 2"
_symmetry_group_IT_number 41
_symmetry_cell_setting 'orthorhombic'
loop_
_space_group_symop_operation_xyz
x,y,z
-x,-y,z
1/2-x,y,1/2+z
1/2+x,-y,1/2+z
x,1/2+y,1/2+z
-x,1/2-y,1/2+z
1/2-x,1/2+y,z
1/2+x,1/2-y,z
loop_
_atom_site_type_symbol
_atom_site_label
_atom_site_fract_x
_atom_site_fract_y
_atom_site_fract_z
Si Si1 0.500000 0.500000 0.505851
Si Si2 0.228610 0.499997 0.505845
Si Si3 0.137130 0.066379 0.671267
Si Si4 0.691607 0.762808 0.121930
Si Si5 0.691608 0.737195 0.389760
Si Si6 0.408903 0.113346 0.438081
Si Si7 0.362866 0.433618 0.340427
Si Si8 0.591095 0.613351 0.073613
O O1 0.443491 0.550274 0.591202
O O2 0.443480 0.449737 0.420499
O O3 0.291191 0.506767 0.623138
O O4 0.166650 0.572935 0.513327
O O5 0.291181 0.493228 0.388540
O O6 0.166651 0.427059 0.498371
O O7 0.165855 0.149989 0.631286
O O8 0.105232 0.068657 0.810161
O O9 0.732323 0.749997 0.255843
O O10 0.615905 0.700895 0.104384
O O11 0.749997 0.750003 0.005843
O O12 0.615910 0.799112 0.407305
O O13 0.665850 0.649993 0.380417
O O14 0.499999 0.106396 0.505846
O O15 0.394769 0.431335 0.201535
#
# Coordination Sequence:
#
# PCOD9366908 Si02
#       8
#     4   8   8   8   8   8   8   8
#     4  10  24  40  64  88 134 158 206 274 320 374
#     4  11  21  41  69  92 128 170 217 261 329 389
#     4  10  23  43  63  93 128 168 216 260 327 386
#     4  10  21  44  65  92 125 169 220 259 317 393
#     4  10  21  44  65  92 125 169 220 259 317 393
#     4  11  24  40  66  98 129 165 215 274 322 386
#     4  10  23  43  63  93 128 168 216 260 327 386
#     4  11  24  40  66  98 129 165 215 274 322 386
#
# _framework density 19.694794000000002
#
# number of rings (size 3 to 8) (size 9 to 14) (size 15 to 20)
#    0.000    1.600    2.667    1.200    5.600    0.000 
#    4.800    0.000    0.000    0.000    0.000    0.000 
#    0.000    0.000    0.000    0.000    0.000    0.000 
#
# Total GULP energy -167038.756007 kJ/mol
# GULP energy per Si atom -5567.958534 kJ/mol
# Density = 1.964997 g / cm^3
# Si number density = 19.694794 Si / 1000 Ang^3
#
#
#
# Elastic Constant Matrix: (Units=GPa)
#
#
# Indices 1 2 3 4 5 6 
#
# 1 117.2335 11.7907 77.6034 0.0000 0.0000 0.0000
# 2 11.7907 54.5924 10.0467 0.0000 0.0000 0.0000
# 3 77.6034 10.0467 153.7330 0.0000 0.0000 0.0000
# 4 0.0000 0.0000 0.0000 205.4292 0.0000 0.0000
# 5 0.0000 0.0000 0.0000 0.0000 36.7798 0.0000
# 6 0.0000 0.0000 0.0000 0.0000 0.0000 10.2953
#
#
#
# Elastic Compliance Matrix: (Units=1/GPa)
#
#
# Indices 1 2 3 4 5 6 
#
# 1 0.012950 -0.001613 -0.006431 0.000000 0.000000 0.000000
# 2 -0.001613 0.018742 -0.000410 0.000000 0.000000 0.000000
# 3 -0.006431 -0.000410 0.009778 0.000000 0.000000 0.000000
# 4 0.000000 0.000000 0.000000 0.004868 0.000000 0.000000
# 5 0.000000 0.000000 0.000000 0.000000 0.027189 0.000000
# 6 0.000000 0.000000 0.000000 0.000000 0.000000 0.097132
#
#
# Mechanical properties :
#
#
# Convention : Reuss Voigt Hill
#
# Bulk Modulus (GPa) = 40.71820 58.27116 49.49468
# Shear Modulus (GPa) = 25.54219 65.57540 45.55880
#
# Velocity S-wave (km/s) = 3.60516 5.77651 4.81483
# Velocity P-wave (km/s) = 6.16839 8.61058 7.48970
#
# Compressibility (1/GPa) = 0.02455904
#
# Stress axis : x y z
#
# Youngs Moduli (GPa) = 77.22284 53.35748 102.26895
#
# Poissons Ratio (x) = 0.08608 0.65773
# Poissons Ratio (y) = 0.12458 0.04198
# Poissons Ratio (z) = 0.49665 0.02190
#
# Static dielectric constant tensor:
#      x y z
#    x 1.675100 0.000000 0.000000 
#    y 0.000000 1.695800 0.000000 
#    z 0.000000 0.000000 1.777560 
# 
# From -- ./inp_files/5695.got.cif
#   From: 2010.05.17/outbox.cif.g08.bks.cpg/sg41_3_cif.got.tgz:5695.got - 2010.06.03 18:54:24.
