data_PCOD9366187
_publ_section_title
;
Structure prediction by ZEFSAII (Michael W. Deem and Ramdas Pophale) SiO2 
 PCOD9366187
Probable space group: A B A 2
;
_chemical_formula_sum "Si O2"
_cell_formula_units_Z 56
_cell_length_a 7.901182
_cell_length_b 22.109034
_cell_length_c 17.334088
_cell_angle_alpha 90.000000
_cell_angle_beta 90.000000
_cell_angle_gamma 90.000000
_cell_volume 3028.048523
_symmetry_space_group_name_H-M "A B A 2"
_symmetry_group_IT_number 41
_symmetry_cell_setting 'orthorhombic'
loop_
_space_group_symop_operation_xyz
x,y,z
-x,-y,z
1/2-x,y,1/2+z
1/2+x,-y,1/2+z
x,1/2+y,1/2+z
-x,1/2-y,1/2+z
1/2-x,1/2+y,z
1/2+x,1/2-y,z
loop_
_atom_site_type_symbol
_atom_site_label
_atom_site_fract_x
_atom_site_fract_y
_atom_site_fract_z
Si Si1 0.750000 0.857195 0.974460
Si Si2 0.183415 0.834537 0.313400
Si Si3 0.183422 0.834538 0.135519
Si Si4 0.085049 0.743092 0.889691
Si Si5 0.428820 0.433440 0.019024
Si Si6 0.071176 0.933440 0.429895
Si Si7 0.414954 0.243092 0.559227
O O1 0.721850 0.810784 0.903400
O O2 0.580207 0.897655 0.974540
O O3 0.919797 0.897653 0.974381
O O4 0.778148 0.810783 0.045518
O O5 0.225742 0.842526 0.224460
O O6 0.334929 0.805740 0.363385
O O7 0.113126 0.894543 0.353805
O O8 0.040020 0.783563 0.326268
O O9 0.334939 0.805740 0.085536
O O10 0.040024 0.783566 0.122647
O O11 0.113138 0.894546 0.095114
O O12 0.999998 0.749999 0.974458
O O13 0.500000 0.500000 0.034941
O O14 0.249999 0.436917 0.974458
O O15 0.000000 0.000000 0.413975
#
# Coordination Sequence:
#
# PCOD9366187 Si02
#       7
#     8   8   8   8   8   8   8
#     4  10  20  36  60  90 118 148 206 266 288 350
#     4  11  23  36  58  93 128 158 190 251 324 372
#     4  11  23  36  58  93 128 158 190 251 324 372
#     4  11  19  37  62  89 122 160 203 245 302 371
#     4  11  23  40  64  88 112 162 219 261 297 358
#     4  11  23  40  64  88 112 162 219 261 297 358
#     4  11  19  37  62  89 122 160 203 245 302 371
#
# _framework density 18.493759000000001
#
# number of rings (size 3 to 8) (size 9 to 14) (size 15 to 20)
#    0.000    1.143    4.286    4.286    0.000    0.571 
#    0.000    0.000    0.000    0.857    0.000    0.000 
#    0.000    0.000    0.000    0.000    0.000    0.000 
#
# Total GULP energy -156077.444332 kJ/mol
# GULP energy per Si atom -5574.194440 kJ/mol
# Density = 1.845167 g / cm^3
# Si number density = 18.493759 Si / 1000 Ang^3
#
#
#
# Elastic Constant Matrix: (Units=GPa)
#
#
# Indices 1 2 3 4 5 6 
#
# 1 109.7262 57.8026 52.7804 0.0000 0.0000 0.0000
# 2 57.8026 142.4968 52.4447 0.0000 0.0000 0.0000
# 3 52.7804 52.4447 106.0844 0.0000 0.0000 0.0000
# 4 0.0000 0.0000 0.0000 14.0006 0.0000 0.0000
# 5 0.0000 0.0000 0.0000 0.0000 22.1685 0.0000
# 6 0.0000 0.0000 0.0000 0.0000 0.0000 49.2504
#
#
#
# Elastic Compliance Matrix: (Units=1/GPa)
#
#
# Indices 1 2 3 4 5 6 
#
# 1 0.013362 -0.003635 -0.004851 0.000000 0.000000 0.000000
# 2 -0.003635 0.009567 -0.002921 0.000000 0.000000 0.000000
# 3 -0.004851 -0.002921 0.013284 0.000000 0.000000 0.000000
# 4 0.000000 0.000000 0.000000 0.071425 0.000000 0.000000
# 5 0.000000 0.000000 0.000000 0.000000 0.045109 0.000000
# 6 0.000000 0.000000 0.000000 0.000000 0.000000 0.020304
#
#
# Mechanical properties :
#
#
# Convention : Reuss Voigt Hill
#
# Bulk Modulus (GPa) = 74.63209 76.04032 75.33620
# Shear Modulus (GPa) = 24.95851 30.10255 27.53053
#
# Velocity S-wave (km/s) = 3.67763 4.03887 3.86247
# Velocity P-wave (km/s) = 7.64697 7.93448 7.79205
#
# Compressibility (1/GPa) = 0.01339906
#
# Stress axis : x y z
#
# Youngs Moduli (GPa) = 74.84053 104.52301 75.27726
#
# Poissons Ratio (x) = 0.37991 0.36517
# Poissons Ratio (y) = 0.27202 0.21991
# Poissons Ratio (z) = 0.36305 0.30535
#
# Static dielectric constant tensor:
#      x y z
#    x 1.771660 0.000000 0.000000 
#    y 0.000000 1.650180 0.000000 
#    z 0.000000 0.000000 1.609110 
# 
# From -- ./inp_files/9790.got.cif
#   From: 2010.05.17/outbox.cif.g08.bks.cpg/sg41_5_cif.got.tgz:9790.got - 2010.06.03 18:54:24.
