data_PCOD9366403
_publ_section_title
;
Structure prediction by ZEFSAII (Michael W. Deem and Ramdas Pophale) SiO2 
 PCOD9366403
Probable space group: A B A 2
;
_chemical_formula_sum "Si O2"
_cell_formula_units_Z 44
_cell_length_a 17.652009
_cell_length_b 9.087538
_cell_length_c 13.500813
_cell_angle_alpha 90.000000
_cell_angle_beta 90.000000
_cell_angle_gamma 90.000000
_cell_volume 2165.710001
_symmetry_space_group_name_H-M "A B A 2"
_symmetry_group_IT_number 41
_symmetry_cell_setting 'orthorhombic'
loop_
_space_group_symop_operation_xyz
x,y,z
-x,-y,z
1/2-x,y,1/2+z
1/2+x,-y,1/2+z
x,1/2+y,1/2+z
-x,1/2-y,1/2+z
1/2-x,1/2+y,z
1/2+x,1/2-y,z
loop_
_atom_site_type_symbol
_atom_site_label
_atom_site_fract_x
_atom_site_fract_y
_atom_site_fract_z
Si Si1 0.471923 0.230813 0.574420
Si Si2 0.827877 0.696919 0.188724
Si Si3 0.763631 0.939762 0.573917
Si Si4 0.861906 0.822244 0.389045
Si Si5 0.500000 0.500000 0.426322
Si Si6 0.104618 0.931105 0.023901
O O1 0.415950 0.272989 0.662868
O O2 0.476596 0.367596 0.500077
O O3 0.555245 0.167565 0.601137
O O4 0.432809 0.091239 0.520386
O O5 0.809274 0.529976 0.157962
O O6 0.813936 0.764764 0.296764
O O7 0.776350 0.796374 0.117547
O O8 0.692293 0.041481 0.544322
O O9 0.814283 0.894614 0.479293
O O10 0.900221 0.671790 0.428366
O O11 0.928327 0.939028 0.365567
#
# Coordination Sequence:
#
# PCOD9366403 Si02
#       6
#     8   8   8   8   4   8
#     4   9  19  40  65  89 123 175 206 265 326 381
#     4  11  24  39  65  93 128 170 224 260 337 398
#     4  11  22  41  59  93 130 169 208 281 321 386
#     4  11  23  39  65  94 128 173 222 268 333 399
#     4  10  20  40  66  90 132 172 212 274 326 388
#     4   9  20  39  65  84 131 168 206 266 328 371
#
# _framework density 20.316661
#
# number of rings (size 3 to 8) (size 9 to 14) (size 15 to 20)
#    0.000    1.818    3.636    0.000    2.545    2.909 
#    0.000    3.636    4.000    0.000    0.000    0.000 
#    0.000    0.000    0.000    0.000    0.000    0.000 
#
# Total GULP energy -122502.398813 kJ/mol
# GULP energy per Si atom -5568.290855 kJ/mol
# Density = 2.027042 g / cm^3
# Si number density = 20.316661 Si / 1000 Ang^3
#
#
#
# Elastic Constant Matrix: (Units=GPa)
#
#
# Indices 1 2 3 4 5 6 
#
# 1 54.4378 7.0100 18.2639 0.0000 0.0000 0.0000
# 2 7.0100 74.8149 3.8526 0.0000 0.0000 0.0000
# 3 18.2639 3.8526 46.6284 0.0000 0.0000 0.0000
# 4 0.0000 0.0000 0.0000 28.3358 0.0000 0.0000
# 5 0.0000 0.0000 0.0000 0.0000 15.2558 0.0000
# 6 0.0000 0.0000 0.0000 0.0000 0.0000 5.9840
#
#
#
# Elastic Compliance Matrix: (Units=1/GPa)
#
#
# Indices 1 2 3 4 5 6 
#
# 1 0.021332 -0.001575 -0.008225 0.000000 0.000000 0.000000
# 2 -0.001575 0.013540 -0.000502 0.000000 0.000000 0.000000
# 3 -0.008225 -0.000502 0.024709 0.000000 0.000000 0.000000
# 4 0.000000 0.000000 0.000000 0.035291 0.000000 0.000000
# 5 0.000000 0.000000 0.000000 0.000000 0.065549 0.000000
# 6 0.000000 0.000000 0.000000 0.000000 0.000000 0.167113
#
#
# Mechanical properties :
#
#
# Convention : Reuss Voigt Hill
#
# Bulk Modulus (GPa) = 25.65641 26.01488 25.83564
# Shear Modulus (GPa) = 13.84541 19.69876 16.77209
#
# Velocity S-wave (km/s) = 2.61335 3.11720 2.87633
# Velocity P-wave (km/s) = 4.66496 5.07823 4.87597
#
# Compressibility (1/GPa) = 0.03897661
#
# Stress axis : x y z
#
# Youngs Moduli (GPa) = 46.87778 73.85657 40.47040
#
# Poissons Ratio (x) = 0.11634 0.33289
# Poissons Ratio (y) = 0.07384 0.02030
# Poissons Ratio (z) = 0.38559 0.03705
#
# Static dielectric constant tensor:
#      x y z
#    x 1.816960 0.000000 0.000000 
#    y 0.000000 1.735370 0.000000 
#    z 0.000000 0.000000 1.746150 
# 
# From -- ./inp_files/8662.got.cif
#   From: 2010.05.17/outbox.cif.g08.bks.cpg/sg41_5_cif.got.tgz:8662.got - 2010.06.03 18:54:24.
