data_PCOD9366724
_publ_section_title
;
Structure prediction by ZEFSAII (Michael W. Deem and Ramdas Pophale) SiO2 
 PCOD9366724
Probable space group: A B A 2
;
_chemical_formula_sum "Si O2"
_cell_formula_units_Z 52
_cell_length_a 15.967558
_cell_length_b 8.973461
_cell_length_c 16.207015
_cell_angle_alpha 90.000000
_cell_angle_beta 90.000000
_cell_angle_gamma 90.000000
_cell_volume 2322.210135
_symmetry_space_group_name_H-M "A B A 2"
_symmetry_group_IT_number 41
_symmetry_cell_setting 'orthorhombic'
loop_
_space_group_symop_operation_xyz
x,y,z
-x,-y,z
1/2-x,y,1/2+z
1/2+x,-y,1/2+z
x,1/2+y,1/2+z
-x,1/2-y,1/2+z
1/2-x,1/2+y,z
1/2+x,1/2-y,z
loop_
_atom_site_type_symbol
_atom_site_label
_atom_site_fract_x
_atom_site_fract_y
_atom_site_fract_z
Si Si1 0.735208 0.893783 0.614250
Si Si2 0.000398 0.755441 0.516181
Si Si3 0.162476 0.492960 0.782560
Si Si4 0.329571 0.325789 0.820774
Si Si5 0.000000 0.000000 0.377629
Si Si6 0.877133 0.020098 0.987529
Si Si7 0.370523 0.391437 0.642169
O O1 0.676612 0.965560 0.686664
O O2 0.708177 0.964542 0.528091
O O3 0.830026 0.944912 0.631448
O O4 0.705427 0.722841 0.616988
O O5 0.979788 0.865759 0.440942
O O6 0.064640 0.625820 0.487405
O O7 0.050152 0.845989 0.587080
O O8 0.920303 0.654648 0.539197
O O9 0.235528 0.380279 0.804243
O O10 0.175565 0.649402 0.829660
O O11 0.073171 0.444597 0.816710
O O12 0.364601 0.413134 0.897935
O O13 0.383383 0.362144 0.738893
#
# Coordination Sequence:
#
# PCOD9366724 Si02
#       7
#     8   8   8   8   4   8   8
#     4   9  20  37  61  88 117 163 206 255 309 382
#     4  10  23  40  58  89 125 162 206 262 325 382
#     4  10  23  39  61  91 127 164 213 263 324 381
#     4  10  21  40  63  93 123 167 215 264 313 393
#     4  12  24  40  60  94 128 162 216 270 324 378
#     4  10  21  40  63  88 121 165 211 254 328 382
#     4   9  20  39  61  87 125 160 208 257 316 381
#
# _framework density 22.392458999999999
#
# number of rings (size 3 to 8) (size 9 to 14) (size 15 to 20)
#    0.000    2.154    1.538    0.000    4.308    6.154 
#    0.000    1.538    0.000    0.000    0.000    0.000 
#    0.000    0.000    0.000    0.000    0.000    0.000 
#
# Total GULP energy -145148.199573 kJ/mol
# GULP energy per Si atom -5582.623061 kJ/mol
# Density = 2.234149 g / cm^3
# Si number density = 22.392459 Si / 1000 Ang^3
#
#
#
# Elastic Constant Matrix: (Units=GPa)
#
#
# Indices 1 2 3 4 5 6 
#
# 1 33.2556 -7.5294 23.9199 0.0000 0.0000 0.0000
# 2 -7.5294 56.8240 13.8889 0.0000 0.0000 0.0000
# 3 23.9199 13.8889 90.9879 0.0000 0.0000 0.0000
# 4 0.0000 0.0000 0.0000 24.6709 0.0000 0.0000
# 5 0.0000 0.0000 0.0000 0.0000 25.8591 0.0000
# 6 0.0000 0.0000 0.0000 0.0000 0.0000 19.1213
#
#
#
# Elastic Compliance Matrix: (Units=1/GPa)
#
#
# Indices 1 2 3 4 5 6 
#
# 1 0.040515 0.008281 -0.011915 0.000000 0.000000 0.000000
# 2 0.008281 0.019973 -0.005226 0.000000 0.000000 0.000000
# 3 -0.011915 -0.005226 0.014921 0.000000 0.000000 0.000000
# 4 0.000000 0.000000 0.000000 0.040534 0.000000 0.000000
# 5 0.000000 0.000000 0.000000 0.000000 0.038671 0.000000
# 6 0.000000 0.000000 0.000000 0.000000 0.000000 0.052298
#
#
# Mechanical properties :
#
#
# Convention : Reuss Voigt Hill
#
# Bulk Modulus (GPa) = 17.33458 26.84738 22.09098
# Shear Modulus (GPa) = 20.50355 23.98280 22.24317
#
# Velocity S-wave (km/s) = 3.02925 3.27620 3.15514
# Velocity P-wave (km/s) = 4.47137 5.13096 4.81248
#
# Compressibility (1/GPa) = 0.05768815
#
# Stress axis : x y z
#
# Youngs Moduli (GPa) = 24.68214 50.06846 67.02178
#
# Poissons Ratio (x) = -0.41460 0.79857
# Poissons Ratio (y) = -0.20438 0.35023
# Poissons Ratio (z) = 0.29409 0.26164
#
# Static dielectric constant tensor:
#      x y z
#    x 1.876000 0.000000 0.000000 
#    y 0.000000 1.847280 0.000000 
#    z 0.000000 0.000000 1.818850 
# 
# From -- ./inp_files/10568.got.cif
#   From: 2010.05.17/outbox.cif.g08.bks.cpg/sg41_6_cif.got.tgz:10568.got - 2010.06.03 18:54:24.
