data_PCOD9366334
_publ_section_title
;
Structure prediction by ZEFSAII (Michael W. Deem and Ramdas Pophale) SiO2 
 PCOD9366334
Probable space group: A B A 2
;
_chemical_formula_sum "Si O2"
_cell_formula_units_Z 52
_cell_length_a 25.111294
_cell_length_b 7.649608
_cell_length_c 12.558332
_cell_angle_alpha 90.000000
_cell_angle_beta 90.000000
_cell_angle_gamma 90.000000
_cell_volume 2412.349528
_symmetry_space_group_name_H-M "A B A 2"
_symmetry_group_IT_number 41
_symmetry_cell_setting 'orthorhombic'
loop_
_space_group_symop_operation_xyz
x,y,z
-x,-y,z
1/2-x,y,1/2+z
1/2+x,-y,1/2+z
x,1/2+y,1/2+z
-x,1/2-y,1/2+z
1/2-x,1/2+y,z
1/2+x,1/2-y,z
loop_
_atom_site_type_symbol
_atom_site_label
_atom_site_fract_x
_atom_site_fract_y
_atom_site_fract_z
Si Si1 0.678858 0.793356 0.384350
Si Si2 0.000000 0.000000 0.516252
Si Si3 0.804538 0.230858 0.619219
Si Si4 0.548363 0.809278 0.820630
Si Si5 0.739215 0.008854 0.757366
Si Si6 0.589916 0.540094 0.669268
Si Si7 0.424942 0.308945 0.270426
O O1 0.693416 0.824706 0.506186
O O2 0.705658 0.937772 0.307398
O O3 0.710704 0.622594 0.345664
O O4 0.617193 0.749636 0.361232
O O5 0.037798 0.119725 0.440649
O O6 0.958839 0.097189 0.593433
O O7 0.801340 0.361582 0.718763
O O8 0.855870 0.109764 0.621756
O O9 0.753545 0.113461 0.649502
O O10 0.579926 0.637799 0.782935
O O11 0.486912 0.772104 0.790914
O O12 0.573823 0.979776 0.761009
O O13 0.590247 0.329775 0.679036
#
# Coordination Sequence:
#
# PCOD9366334 Si02
#       7
#     8   4   8   8   8   8   8
#     4  11  21  41  61  89 126 157 208 256 306 369
#     4  10  22  40  66  90 122 170 202 254 318 368
#     4  11  22  38  64  87 119 165 200 252 315 365
#     4  10  22  40  61  90 126 157 208 259 309 368
#     4  10  23  39  61  90 122 159 203 258 308 362
#     4  12  21  41  65  91 126 163 211 256 310 376
#     4  10  20  39  63  87 124 162 199 260 303 365
#
# _framework density 21.55575
#
# number of rings (size 3 to 8) (size 9 to 14) (size 15 to 20)
#    0.000    1.538    3.077    3.692    0.000    0.000 
#    0.000    9.231    0.000    0.000    0.000    0.000 
#    0.000    0.000    0.000    0.000    0.000    0.000 
#
# Total GULP energy -144746.738326 kJ/mol
# GULP energy per Si atom -5567.182243 kJ/mol
# Density = 2.150669 g / cm^3
# Si number density = 21.555750 Si / 1000 Ang^3
#
#
#
# Elastic Constant Matrix: (Units=GPa)
#
#
# Indices 1 2 3 4 5 6 
#
# 1 52.4515 3.5513 5.4323 0.0000 0.0000 0.0000
# 2 3.5513 46.1717 5.5061 0.0000 0.0000 0.0000
# 3 5.4323 5.5061 78.8111 0.0000 0.0000 0.0000
# 4 0.0000 0.0000 0.0000 27.3886 0.0000 0.0000
# 5 0.0000 0.0000 0.0000 0.0000 27.9318 0.0000
# 6 0.0000 0.0000 0.0000 0.0000 0.0000 27.2302
#
#
#
# Elastic Compliance Matrix: (Units=1/GPa)
#
#
# Indices 1 2 3 4 5 6 
#
# 1 0.019284 -0.001336 -0.001236 0.000000 0.000000 0.000000
# 2 -0.001336 0.021933 -0.001440 0.000000 0.000000 0.000000
# 3 -0.001236 -0.001440 0.012874 0.000000 0.000000 0.000000
# 4 0.000000 0.000000 0.000000 0.036512 0.000000 0.000000
# 5 0.000000 0.000000 0.000000 0.000000 0.035802 0.000000
# 6 0.000000 0.000000 0.000000 0.000000 0.000000 0.036724
#
#
# Mechanical properties :
#
#
# Convention : Reuss Voigt Hill
#
# Bulk Modulus (GPa) = 21.70753 22.93485 22.32119
# Shear Modulus (GPa) = 26.80859 27.37308 27.09083
#
# Velocity S-wave (km/s) = 3.53042 3.56739 3.54896
# Velocity P-wave (km/s) = 5.16824 5.25655 5.21258
#
# Compressibility (1/GPa) = 0.04606697
#
# Stress axis : x y z
#
# Youngs Moduli (GPa) = 51.85730 45.59388 77.67363
#
# Poissons Ratio (x) = 0.06091 0.09599
# Poissons Ratio (y) = 0.06927 0.11187
# Poissons Ratio (z) = 0.06409 0.06567
#
# Static dielectric constant tensor:
#      x y z
#    x 1.792370 0.000000 0.000000 
#    y 0.000000 1.891270 0.000000 
#    z 0.000000 0.000000 1.808610 
# 
# From -- ./inp_files/6549.got.cif
#   From: 2010.05.17/outbox.cif.g08.bks.cpg/sg41_4_cif.got.tgz:6549.got - 2010.06.03 18:54:24.
