data_PCOD9366201
_publ_section_title
;
Structure prediction by ZEFSAII (Michael W. Deem and Ramdas Pophale) SiO2 
 PCOD9366201
Probable space group: A B A 2
;
_chemical_formula_sum "Si O2"
_cell_formula_units_Z 60
_cell_length_a 14.094057
_cell_length_b 8.853676
_cell_length_c 23.248523
_cell_angle_alpha 90.000000
_cell_angle_beta 90.000000
_cell_angle_gamma 90.000000
_cell_volume 2901.048674
_symmetry_space_group_name_H-M "A B A 2"
_symmetry_group_IT_number 41
_symmetry_cell_setting 'orthorhombic'
loop_
_space_group_symop_operation_xyz
x,y,z
-x,-y,z
1/2-x,y,1/2+z
1/2+x,-y,1/2+z
x,1/2+y,1/2+z
-x,1/2-y,1/2+z
1/2-x,1/2+y,z
1/2+x,1/2-y,z
loop_
_atom_site_type_symbol
_atom_site_label
_atom_site_fract_x
_atom_site_fract_y
_atom_site_fract_z
Si Si1 0.000000 0.500000 0.215531
Si Si2 0.168787 0.092398 0.783984
Si Si3 0.285976 0.823769 0.359352
Si Si4 0.289775 0.540607 0.173208
Si Si5 0.713505 0.413275 0.443465
Si Si6 0.940903 0.739880 0.128453
Si Si7 0.662939 0.241750 0.610172
Si Si8 0.690024 0.175882 0.020183
O O1 0.931654 0.390846 0.252144
O O2 0.936334 0.603055 0.173842
O O3 0.204792 0.223713 0.827117
O O4 0.250034 0.076722 0.735698
O O5 0.159720 0.926715 0.813549
O O6 0.339089 0.704779 0.401242
O O7 0.248420 0.953832 0.401734
O O8 0.389701 0.619558 0.158946
O O9 0.215698 0.603289 0.125448
O O10 0.301950 0.364821 0.162080
O O11 0.795396 0.311060 0.473752
O O12 0.665099 0.513818 0.492720
O O13 0.883537 0.712866 0.070015
O O14 0.050784 0.754981 0.112236
O O15 0.706815 0.174547 0.551710
#
# Coordination Sequence:
#
# PCOD9366201 Si02
#       8
#     4   8   8   8   8   8   8   8
#     4  12  24  36  60  94 140 162 202 254 314 382
#     4  11  20  38  64  89 119 168 203 257 320 364
#     4   9  20  38  67  85 111 157 223 259 310 362
#     4  11  22  38  60  92 127 168 207 247 311 381
#     4   9  19  38  64  89 110 158 214 267 305 367
#     4  11  24  36  59  95 135 167 206 246 305 400
#     4  11  22  38  58  92 130 167 208 250 302 398
#     4  10  20  36  64  85 127 164 204 252 326 361
#
# _framework density 20.682175000000001
#
# number of rings (size 3 to 8) (size 9 to 14) (size 15 to 20)
#    0.000    1.600    1.333    5.200    1.867    0.000 
#    0.000    0.000   29.333    0.000    0.000    0.000 
#    0.000    0.000    0.000    0.000    0.000    0.000 
#
# Total GULP energy -167273.367366 kJ/mol
# GULP energy per Si atom -5575.778912 kJ/mol
# Density = 2.063510 g / cm^3
# Si number density = 20.682175 Si / 1000 Ang^3
#
#
#
# Elastic Constant Matrix: (Units=GPa)
#
#
# Indices 1 2 3 4 5 6 
#
# 1 97.3351 14.6617 21.4801 0.0000 0.0000 0.0000
# 2 14.6617 106.7744 35.9944 0.0000 0.0000 0.0000
# 3 21.4801 35.9944 95.7129 0.0000 0.0000 0.0000
# 4 0.0000 0.0000 0.0000 46.6850 0.0000 0.0000
# 5 0.0000 0.0000 0.0000 0.0000 14.1350 0.0000
# 6 0.0000 0.0000 0.0000 0.0000 0.0000 20.6630
#
#
#
# Elastic Compliance Matrix: (Units=1/GPa)
#
#
# Indices 1 2 3 4 5 6 
#
# 1 0.010864 -0.000767 -0.002150 0.000000 0.000000 0.000000
# 2 -0.000767 0.010779 -0.003882 0.000000 0.000000 0.000000
# 3 -0.002150 -0.003882 0.012390 0.000000 0.000000 0.000000
# 4 0.000000 0.000000 0.000000 0.021420 0.000000 0.000000
# 5 0.000000 0.000000 0.000000 0.000000 0.070746 0.000000
# 6 0.000000 0.000000 0.000000 0.000000 0.000000 0.048396
#
#
# Mechanical properties :
#
#
# Convention : Reuss Voigt Hill
#
# Bulk Modulus (GPa) = 48.93186 49.34387 49.13787
# Shear Modulus (GPa) = 25.64047 31.47566 28.55806
#
# Velocity S-wave (km/s) = 3.52481 3.90535 3.71995
# Velocity P-wave (km/s) = 6.34634 6.65174 6.50083
#
# Compressibility (1/GPa) = 0.02043658
#
# Stress axis : x y z
#
# Youngs Moduli (GPa) = 92.04958 92.76953 80.70973
#
# Poissons Ratio (x) = 0.07116 0.17349
# Poissons Ratio (y) = 0.07061 0.31328
# Poissons Ratio (z) = 0.19787 0.36010
#
# Static dielectric constant tensor:
#      x y z
#    x 1.712290 0.000000 0.000000 
#    y 0.000000 1.805050 0.000000 
#    z 0.000000 0.000000 1.828830 
# 
# From -- ./inp_files/12202.got.cif
#   From: 2010.05.17/outbox.cif.g08.bks.cpg/sg41_7_cif.got.tgz:12202.got - 2010.06.03 18:54:24.
