data_PCOD9366226
_publ_section_title
;
Structure prediction by ZEFSAII (Michael W. Deem and Ramdas Pophale) SiO2 
 PCOD9366226
Probable space group: A B A 2
;
_chemical_formula_sum "Si O2"
_cell_formula_units_Z 64
_cell_length_a 15.441347
_cell_length_b 11.431002
_cell_length_c 17.256981
_cell_angle_alpha 90.000000
_cell_angle_beta 90.000000
_cell_angle_gamma 90.000000
_cell_volume 3046.030897
_symmetry_space_group_name_H-M "A B A 2"
_symmetry_group_IT_number 41
_symmetry_cell_setting 'orthorhombic'
loop_
_space_group_symop_operation_xyz
x,y,z
-x,-y,z
1/2-x,y,1/2+z
1/2+x,-y,1/2+z
x,1/2+y,1/2+z
-x,1/2-y,1/2+z
1/2-x,1/2+y,z
1/2+x,1/2-y,z
loop_
_atom_site_type_symbol
_atom_site_label
_atom_site_fract_x
_atom_site_fract_y
_atom_site_fract_z
Si Si1 0.364036 0.818376 0.635010
Si Si2 0.591711 0.130421 0.465282
Si Si3 0.121430 0.249766 0.314043
Si Si4 0.663968 0.229122 0.089343
Si Si5 0.927840 0.337588 0.273269
Si Si6 0.347380 0.948628 0.205988
Si Si7 0.613490 0.365596 0.939496
Si Si8 0.162442 0.061363 0.202718
O O1 0.409573 0.824668 0.552548
O O2 0.264354 0.797378 0.609291
O O3 0.394247 0.724008 0.696077
O O4 0.380779 0.940537 0.679039
O O5 0.633718 0.219108 0.403576
O O6 0.490794 0.125538 0.443268
O O7 0.637063 0.001987 0.457783
O O8 0.177414 0.340182 0.262212
O O9 0.141948 0.119573 0.285283
O O10 0.022653 0.284752 0.290619
O O11 0.620418 0.112695 0.126483
O O12 0.636156 0.339870 0.141115
O O13 0.647779 0.272706 0.002334
O O14 0.915215 0.473657 0.252441
O O15 0.870003 0.325233 0.351324
O O16 0.263610 0.029326 0.194367
#
# Coordination Sequence:
#
# PCOD9366226 Si02
#       8
#     8   8   8   8   8   8   8   8
#     4  11  23  38  63  92 121 159 207 259 304 371
#     4  10  21  38  61  92 119 157 214 248 300 371
#     4  10  22  39  62  89 123 166 204 256 313 374
#     4  10  21  39  60  87 126 161 201 252 309 366
#     4  11  22  39  63  94 123 160 209 256 314 369
#     4  10  20  37  61  87 121 160 205 252 303 375
#     4  10  21  40  62  87 126 162 203 254 302 372
#     4  10  21  39  60  90 124 160 205 251 317 369
#
# _framework density 21.010949
#
# number of rings (size 3 to 8) (size 9 to 14) (size 15 to 20)
#    0.000    1.750    3.750    0.375    3.500    1.500 
#    0.000    1.250    0.000    1.500    0.000    0.000 
#    0.000    0.000    0.000    0.000    0.000    0.000 
#
# Total GULP energy -178387.984557 kJ/mol
# GULP energy per Si atom -5574.624517 kJ/mol
# Density = 2.096313 g / cm^3
# Si number density = 21.010949 Si / 1000 Ang^3
#
#
#
# Elastic Constant Matrix: (Units=GPa)
#
#
# Indices 1 2 3 4 5 6 
#
# 1 19.8416 4.4878 11.7874 0.0000 0.0000 0.0000
# 2 4.4878 73.7187 60.0598 0.0000 0.0000 0.0000
# 3 11.7874 60.0598 152.5612 0.0000 0.0000 0.0000
# 4 0.0000 0.0000 0.0000 35.7763 0.0000 0.0000
# 5 0.0000 0.0000 0.0000 0.0000 13.0651 0.0000
# 6 0.0000 0.0000 0.0000 0.0000 0.0000 17.5636
#
#
#
# Elastic Compliance Matrix: (Units=1/GPa)
#
#
# Indices 1 2 3 4 5 6 
#
# 1 0.052825 0.000161 -0.004145 0.000000 0.000000 0.000000
# 2 0.000161 0.019971 -0.007874 0.000000 0.000000 0.000000
# 3 -0.004145 -0.007874 0.009975 0.000000 0.000000 0.000000
# 4 0.000000 0.000000 0.000000 0.027951 0.000000 0.000000
# 5 0.000000 0.000000 0.000000 0.000000 0.076540 0.000000
# 6 0.000000 0.000000 0.000000 0.000000 0.000000 0.056936
#
#
# Mechanical properties :
#
#
# Convention : Reuss Voigt Hill
#
# Bulk Modulus (GPa) = 16.93361 44.31015 30.62188
# Shear Modulus (GPa) = 17.38534 24.60013 20.99273
#
# Velocity S-wave (km/s) = 2.87965 3.42544 3.16434
# Velocity P-wave (km/s) = 4.37418 6.06463 5.28740
#
# Compressibility (1/GPa) = 0.05905417
#
# Stress axis : x y z
#
# Youngs Moduli (GPa) = 18.93044 50.07335 100.25096
#
# Poissons Ratio (x) = -0.00806 0.41552
# Poissons Ratio (y) = -0.00305 0.78942
# Poissons Ratio (z) = 0.07846 0.39430
#
# Static dielectric constant tensor:
#      x y z
#    x 1.847170 0.000000 0.000000 
#    y 0.000000 1.804650 0.000000 
#    z 0.000000 0.000000 1.795990 
# 
# From -- ./inp_files/10405.got.cif
#   From: 2010.05.17/outbox.cif.g08.bks.cpg/sg41_6_cif.got.tgz:10405.got - 2010.06.03 18:54:24.
