data_PCOD9366663
_publ_section_title
;
Structure prediction by ZEFSAII (Michael W. Deem and Ramdas Pophale) SiO2 
 PCOD9366663
Probable space group: A B A 2
;
_chemical_formula_sum "Si O2"
_cell_formula_units_Z 48
_cell_length_a 8.819875
_cell_length_b 18.771374
_cell_length_c 16.077850
_cell_angle_alpha 90.000000
_cell_angle_beta 90.000000
_cell_angle_gamma 90.000000
_cell_volume 2661.867693
_symmetry_space_group_name_H-M "A B A 2"
_symmetry_group_IT_number 41
_symmetry_cell_setting 'orthorhombic'
loop_
_space_group_symop_operation_xyz
x,y,z
-x,-y,z
1/2-x,y,1/2+z
1/2+x,-y,1/2+z
x,1/2+y,1/2+z
-x,1/2-y,1/2+z
1/2-x,1/2+y,z
1/2+x,1/2-y,z
loop_
_atom_site_type_symbol
_atom_site_label
_atom_site_fract_x
_atom_site_fract_y
_atom_site_fract_z
Si Si1 0.465323 0.321230 0.542190
Si Si2 0.435303 0.924841 0.890450
Si Si3 0.148728 0.547465 0.111189
Si Si4 0.561247 0.421942 0.207900
Si Si5 0.153920 0.962950 0.967805
Si Si6 0.381825 0.328029 0.078444
O O1 0.445049 0.356956 0.450922
O O2 0.579114 0.378276 0.581353
O O3 0.300599 0.319022 0.587123
O O4 0.540999 0.244304 0.547680
O O5 0.519509 0.912564 0.804305
O O6 0.258679 0.945209 0.888936
O O7 0.500000 0.000000 0.926242
O O8 0.262995 0.569334 0.184850
O O9 0.000000 0.500000 0.131627
O O10 0.250404 0.507235 0.039170
O O11 0.500000 0.500000 0.182778
O O12 0.472903 0.361172 0.156427
O O13 0.106855 0.889241 0.009835
O O14 0.000000 0.000000 0.944103
#
# Coordination Sequence:
#
# PCOD9366663 Si02
#       6
#     8   8   8   8   8   8
#     4  11  22  37  63  86 121 165 214 253 306 380
#     4  10  21  39  61  91 130 156 199 267 319 353
#     4  12  18  37  65  91 120 162 218 249 299 376
#     4  11  21  38  63  92 129 156 203 267 316 356
#     4  11  19  37  64  91 119 162 215 252 299 378
#     4  11  21  37  59  93 119 166 216 251 304 374
#
# _framework density 18.032451999999999
#
# number of rings (size 3 to 8) (size 9 to 14) (size 15 to 20)
#    0.000    1.000    8.333    1.000    0.000    0.000 
#    0.000   13.333    0.000    0.000    0.000    0.000 
#    0.000    0.000    0.000    0.000    0.000    0.000 
#
# Total GULP energy -133632.042158 kJ/mol
# GULP energy per Si atom -5568.001757 kJ/mol
# Density = 1.799141 g / cm^3
# Si number density = 18.032452 Si / 1000 Ang^3
#
#
#
# Elastic Constant Matrix: (Units=GPa)
#
#
# Indices 1 2 3 4 5 6 
#
# 1 144.9031 53.3046 65.8544 0.0000 0.0000 0.0000
# 2 53.3046 130.2493 24.2909 0.0000 0.0000 0.0000
# 3 65.8544 24.2909 78.7973 0.0000 0.0000 0.0000
# 4 0.0000 0.0000 0.0000 19.9345 0.0000 0.0000
# 5 0.0000 0.0000 0.0000 0.0000 18.9156 0.0000
# 6 0.0000 0.0000 0.0000 0.0000 0.0000 44.3078
#
#
#
# Elastic Compliance Matrix: (Units=1/GPa)
#
#
# Indices 1 2 3 4 5 6 
#
# 1 0.012347 -0.003319 -0.009295 0.000000 0.000000 0.000000
# 2 -0.003319 0.009038 -0.000012 0.000000 0.000000 0.000000
# 3 -0.009295 -0.000012 0.020463 0.000000 0.000000 0.000000
# 4 0.000000 0.000000 0.000000 0.050164 0.000000 0.000000
# 5 0.000000 0.000000 0.000000 0.000000 0.052867 0.000000
# 6 0.000000 0.000000 0.000000 0.000000 0.000000 0.022569
#
#
# Mechanical properties :
#
#
# Convention : Reuss Voigt Hill
#
# Bulk Modulus (GPa) = 60.26154 71.20550 65.73352
# Shear Modulus (GPa) = 25.22273 30.66488 27.94380
#
# Velocity S-wave (km/s) = 3.74403 4.12823 3.94082
# Velocity P-wave (km/s) = 7.22366 7.89279 7.56563
#
# Compressibility (1/GPa) = 0.01659433
#
# Stress axis : x y z
#
# Youngs Moduli (GPa) = 80.99279 110.64037 48.86828
#
# Poissons Ratio (x) = 0.36725 0.45425
# Poissons Ratio (y) = 0.26884 0.00059
# Poissons Ratio (z) = 0.75287 0.00134
#
# Static dielectric constant tensor:
#      x y z
#    x 1.730380 0.000000 0.000000 
#    y 0.000000 1.992130 0.000000 
#    z 0.000000 0.000000 1.654090 
# 
# From -- ./inp_files/9697.got.cif
#   From: 2010.05.17/outbox.cif.g08.bks.cpg/sg41_5_cif.got.tgz:9697.got - 2010.06.03 18:54:24.
