data_PCOD9366054
_publ_section_title
;
Structure prediction by ZEFSAII (Michael W. Deem and Ramdas Pophale) SiO2 
 PCOD9366054
Probable space group: A B A 2
;
_chemical_formula_sum "Si O2"
_cell_formula_units_Z 52
_cell_length_a 22.674967
_cell_length_b 11.884323
_cell_length_c 8.527935
_cell_angle_alpha 90.000000
_cell_angle_beta 90.000000
_cell_angle_gamma 90.000000
_cell_volume 2298.079200
_symmetry_space_group_name_H-M "A B A 2"
_symmetry_group_IT_number 41
_symmetry_cell_setting 'orthorhombic'
loop_
_space_group_symop_operation_xyz
x,y,z
-x,-y,z
1/2-x,y,1/2+z
1/2+x,-y,1/2+z
x,1/2+y,1/2+z
-x,1/2-y,1/2+z
1/2-x,1/2+y,z
1/2+x,1/2-y,z
loop_
_atom_site_type_symbol
_atom_site_label
_atom_site_fract_x
_atom_site_fract_y
_atom_site_fract_z
Si Si1 0.921616 0.748932 0.468340
Si Si2 0.666131 0.788000 0.394049
Si Si3 0.169528 0.071627 0.347396
Si Si4 0.376089 0.485201 0.045287
Si Si5 0.736523 0.328896 0.609185
Si Si6 0.957740 0.229643 0.315556
Si Si7 0.000000 0.000000 0.172674
O O1 0.886312 0.848492 0.383772
O O2 0.881264 0.637234 0.470282
O O3 0.940116 0.780296 0.646223
O O4 0.983474 0.717692 0.386962
O O5 0.657531 0.920162 0.444141
O O6 0.685406 0.775724 0.214138
O O7 0.722727 0.751423 0.497381
O O8 0.601757 0.734753 0.418828
O O9 0.148411 0.977314 0.224867
O O10 0.217195 0.131552 0.237575
O O11 0.205153 0.070211 0.510978
O O12 0.443174 0.528429 0.068132
O O13 0.978312 0.103117 0.277648
#
# Coordination Sequence:
#
# PCOD9366054 Si02
#       7
#     8   8   8   8   8   8   4
#     4  11  23  40  65 100 133 178 219 278 349 410
#     4  10  19  38  64  93 128 173 218 283 330 408
#     4  10  19  41  62  89 128 170 219 273 334 393
#     4  10  21  38  66  89 133 172 215 270 342 401
#     4   9  20  36  66  88 127 173 221 274 334 393
#     4  11  22  38  67  95 136 173 223 277 352 416
#     4  10  20  38  60  98 126 178 206 280 344 412
#
# _framework density 22.627590999999999
#
# number of rings (size 3 to 8) (size 9 to 14) (size 15 to 20)
#    0.000    1.846    3.077    1.846    2.154    0.000 
#    0.000   10.769    0.000    0.000    0.000    0.000 
#    0.000    0.000    0.000    0.000    0.000    0.000 
#
# Total GULP energy -144841.538180 kJ/mol
# GULP energy per Si atom -5570.828392 kJ/mol
# Density = 2.257609 g / cm^3
# Si number density = 22.627591 Si / 1000 Ang^3
#
#
#
# Elastic Constant Matrix: (Units=GPa)
#
#
# Indices 1 2 3 4 5 6 
#
# 1 137.6836 16.3571 39.6740 0.0000 0.0000 0.0000
# 2 16.3571 54.7171 19.3419 0.0000 0.0000 0.0000
# 3 39.6740 19.3419 81.7494 0.0000 0.0000 0.0000
# 4 0.0000 0.0000 0.0000 19.3350 0.0000 0.0000
# 5 0.0000 0.0000 0.0000 0.0000 56.2194 0.0000
# 6 0.0000 0.0000 0.0000 0.0000 0.0000 7.5697
#
#
#
# Elastic Compliance Matrix: (Units=1/GPa)
#
#
# Indices 1 2 3 4 5 6 
#
# 1 0.008514 -0.001183 -0.003852 0.000000 0.000000 0.000000
# 2 -0.001183 0.020108 -0.004183 0.000000 0.000000 0.000000
# 3 -0.003852 -0.004183 0.015092 0.000000 0.000000 0.000000
# 4 0.000000 0.000000 0.000000 0.051720 0.000000 0.000000
# 5 0.000000 0.000000 0.000000 0.000000 0.017787 0.000000
# 6 0.000000 0.000000 0.000000 0.000000 0.000000 0.132106
#
#
# Mechanical properties :
#
#
# Convention : Reuss Voigt Hill
#
# Bulk Modulus (GPa) = 39.56245 47.21068 43.38656
# Shear Modulus (GPa) = 18.36960 29.87664 24.12312
#
# Velocity S-wave (km/s) = 2.85234 3.63762 3.26865
# Velocity P-wave (km/s) = 5.32634 6.20907 5.78457
#
# Compressibility (1/GPa) = 0.02527649
#
# Stress axis : x y z
#
# Youngs Moduli (GPa) = 117.46033 49.73054 66.26224
#
# Poissons Ratio (x) = 0.05886 0.25522
# Poissons Ratio (y) = 0.13901 0.27719
# Poissons Ratio (z) = 0.45242 0.20804
#
# Static dielectric constant tensor:
#      x y z
#    x 1.952380 0.000000 0.000000 
#    y 0.000000 1.862500 0.000000 
#    z 0.000000 0.000000 1.902720 
# 
# From -- ./inp_files/3654.got.cif
#   From: 2010.05.17/outbox.cif.g08.bks.cpg/sg41_2_cif.got.tgz:3654.got - 2010.06.03 18:54:24.
