data_PCOD9366418
_publ_section_title
;
Structure prediction by ZEFSAII (Michael W. Deem and Ramdas Pophale) SiO2 
 PCOD9366418
Probable space group: A B A 2
;
_chemical_formula_sum "Si O2"
_cell_formula_units_Z 56
_cell_length_a 28.517222
_cell_length_b 5.538531
_cell_length_c 14.563599
_cell_angle_alpha 90.000000
_cell_angle_beta 90.000000
_cell_angle_gamma 90.000000
_cell_volume 2300.226062
_symmetry_space_group_name_H-M "A B A 2"
_symmetry_group_IT_number 41
_symmetry_cell_setting 'orthorhombic'
loop_
_space_group_symop_operation_xyz
x,y,z
-x,-y,z
1/2-x,y,1/2+z
1/2+x,-y,1/2+z
x,1/2+y,1/2+z
-x,1/2-y,1/2+z
1/2-x,1/2+y,z
1/2+x,1/2-y,z
loop_
_atom_site_type_symbol
_atom_site_label
_atom_site_fract_x
_atom_site_fract_y
_atom_site_fract_z
Si Si1 0.365805 0.114207 0.519990
Si Si2 0.772522 0.206021 0.477331
Si Si3 0.045919 0.116298 0.773201
Si Si4 0.727478 0.293978 0.758201
Si Si5 0.454081 0.383702 0.462332
Si Si6 0.865805 0.114207 0.215543
Si Si7 0.114942 0.750000 0.867767
O O1 0.327294 0.318925 0.502395
O O2 0.419667 0.203224 0.515491
O O3 0.357242 0.000000 0.617767
O O4 0.357969 0.928474 0.435490
O O5 0.753271 0.465269 0.511633
O O6 0.767803 0.250000 0.367766
O O7 0.030656 0.250000 0.867766
O O8 0.080333 0.296775 0.720042
O O9 0.080975 0.905956 0.803607
O O10 0.000000 0.000000 0.729143
O O11 0.753271 0.534731 0.723900
O O12 0.672706 0.318925 0.733138
O O13 0.500000 0.500000 0.506390
O O14 0.419025 0.594045 0.431927
O O15 0.857969 0.928474 0.300044
#
# Coordination Sequence:
#
# PCOD9366418 Si02
#       7
#     8   8   8   8   8   8   8
#     4  11  26  43  67 106 143 187 237 299 369 443
#     4  10  23  43  73 106 145 193 250 305 369 443
#     4  10  20  40  71  97 130 182 232 292 357 433
#     4  10  23  43  73 106 145 193 250 305 369 443
#     4  10  20  40  71  97 130 182 232 292 357 433
#     4  11  26  43  67 106 143 187 237 299 369 443
#     4  10  22  42  70  92 136 182 234 294 358 436
#
# _framework density 24.345434999999998
#
# number of rings (size 3 to 8) (size 9 to 14) (size 15 to 20)
#    0.000    1.714    1.429    2.571   10.000    2.286 
#    0.000    4.286    0.000    0.000    0.000    0.000 
#    0.000    0.000    0.000    0.000    0.000    0.000 
#
# Total GULP energy -156662.440380 kJ/mol
# GULP energy per Si atom -5595.087156 kJ/mol
# Density = 2.429002 g / cm^3
# Si number density = 24.345435 Si / 1000 Ang^3
#
#
#
# Elastic Constant Matrix: (Units=GPa)
#
#
# Indices 1 2 3 4 5 6 
#
# 1 123.3406 46.5853 34.0873 0.0000 0.0000 0.0000
# 2 46.5853 104.6755 15.6714 0.0000 0.0000 0.0000
# 3 34.0873 15.6714 77.1983 0.0000 0.0000 0.0000
# 4 0.0000 0.0000 0.0000 3.0442 0.0000 0.0000
# 5 0.0000 0.0000 0.0000 0.0000 2.7609 0.0000
# 6 0.0000 0.0000 0.0000 0.0000 0.0000 46.1589
#
#
#
# Elastic Compliance Matrix: (Units=1/GPa)
#
#
# Indices 1 2 3 4 5 6 
#
# 1 0.010777 -0.004212 -0.003904 0.000000 0.000000 0.000000
# 2 -0.004212 0.011499 -0.000474 0.000000 0.000000 0.000000
# 3 -0.003904 -0.000474 0.014774 0.000000 0.000000 0.000000
# 4 0.000000 0.000000 0.000000 0.328499 0.000000 0.000000
# 5 0.000000 0.000000 0.000000 0.000000 0.362196 0.000000
# 6 0.000000 0.000000 0.000000 0.000000 0.000000 0.021664
#
#
# Mechanical properties :
#
#
# Convention : Reuss Voigt Hill
#
# Bulk Modulus (GPa) = 50.32832 55.32249 52.82540
# Shear Modulus (GPa) = 6.46653 24.31749 15.39201
#
# Velocity S-wave (km/s) = 1.63154 3.16389 2.51715
# Velocity P-wave (km/s) = 4.92612 6.01001 5.49486
#
# Compressibility (1/GPa) = 0.01986953
#
# Stress axis : x y z
#
# Youngs Moduli (GPa) = 92.78728 86.96493 67.68789
#
# Poissons Ratio (x) = 0.36629 0.26424
# Poissons Ratio (y) = 0.39082 0.03212
# Poissons Ratio (z) = 0.36222 0.04126
#
# Static dielectric constant tensor:
#      x y z
#    x 1.887250 0.000000 0.000000 
#    y 0.000000 2.141350 0.000000 
#    z 0.000000 0.000000 1.898930 
# 
# From -- ./inp_files/9274.got.cif
#   From: 2010.05.17/outbox.cif.g08.bks.cpg/sg41_5_cif.got.tgz:9274.got - 2010.06.03 18:54:24.
