data_PCOD9366863
_publ_section_title
;
Structure prediction by ZEFSAII (Michael W. Deem and Ramdas Pophale) SiO2 
 PCOD9366863
Probable space group: A B A 2
;
_chemical_formula_sum "Si O2"
_cell_formula_units_Z 60
_cell_length_a 18.514297
_cell_length_b 17.314481
_cell_length_c 8.297012
_cell_angle_alpha 90.000000
_cell_angle_beta 90.000000
_cell_angle_gamma 90.000000
_cell_volume 2659.735333
_symmetry_space_group_name_H-M "A B A 2"
_symmetry_group_IT_number 41
_symmetry_cell_setting 'orthorhombic'
loop_
_space_group_symop_operation_xyz
x,y,z
-x,-y,z
1/2-x,y,1/2+z
1/2+x,-y,1/2+z
x,1/2+y,1/2+z
-x,1/2-y,1/2+z
1/2-x,1/2+y,z
1/2+x,1/2-y,z
loop_
_atom_site_type_symbol
_atom_site_label
_atom_site_fract_x
_atom_site_fract_y
_atom_site_fract_z
Si Si1 0.811563 0.726225 0.035840
Si Si2 0.754418 0.825696 0.315806
Si Si3 0.138555 0.976129 0.308623
Si Si4 0.891540 0.375375 0.966900
Si Si5 0.646864 0.964997 0.292805
Si Si6 0.000000 0.500000 0.283133
Si Si7 0.724053 0.575046 0.992320
Si Si8 0.451904 0.871242 0.024144
O O1 0.792519 0.796203 0.154544
O O2 0.888666 0.688022 0.068602
O O3 0.806951 0.763801 0.859599
O O4 0.748547 0.661572 0.031853
O O5 0.821590 0.823828 0.439914
O O6 0.713729 0.907491 0.330731
O O7 0.199274 0.963254 0.448030
O O8 0.076552 0.917597 0.366549
O O9 0.110264 0.063049 0.320748
O O10 0.178468 0.957979 0.141500
O O11 0.877719 0.428875 0.122862
O O12 0.969185 0.336824 0.986338
O O13 0.568280 0.965939 0.379949
O O14 0.678178 0.050214 0.333694
O O15 0.966007 0.565967 0.165852
#
# Coordination Sequence:
#
# PCOD9366863 Si02
#       8
#     8   8   8   8   8   4   8   8
#     4  11  26  43  64 101 138 179 228 278 356 413
#     4  12  25  44  67  98 137 183 228 283 346 425
#     4  11  20  37  66 100 127 170 227 285 344 388
#     4  11  22  42  69  95 133 181 230 276 348 418
#     4  11  23  44  69 101 131 181 233 292 340 416
#     4  10  22  42  72 100 130 182 226 286 354 404
#     4  11  24  38  71  97 134 173 233 295 326 411
#     4  10  21  42  67  92 135 179 220 280 352 414
#
# _framework density 22.558636
#
# number of rings (size 3 to 8) (size 9 to 14) (size 15 to 20)
#    0.000    1.067    5.333    2.400    5.600    0.000 
#    7.200    0.000    0.000    0.000    0.000    0.000 
#    0.000    0.000    0.000    0.000    0.000    0.000 
#
# Total GULP energy -167088.998912 kJ/mol
# GULP energy per Si atom -5569.633297 kJ/mol
# Density = 2.250729 g / cm^3
# Si number density = 22.558636 Si / 1000 Ang^3
#
#
#
# Elastic Constant Matrix: (Units=GPa)
#
#
# Indices 1 2 3 4 5 6 
#
# 1 172.4457 40.0670 29.5765 0.0000 0.0000 0.0000
# 2 40.0670 60.8335 11.9354 0.0000 0.0000 0.0000
# 3 29.5765 11.9354 49.2026 0.0000 0.0000 0.0000
# 4 0.0000 0.0000 0.0000 12.6597 0.0000 0.0000
# 5 0.0000 0.0000 0.0000 0.0000 25.9777 0.0000
# 6 0.0000 0.0000 0.0000 0.0000 0.0000 37.2453
#
#
#
# Elastic Compliance Matrix: (Units=1/GPa)
#
#
# Indices 1 2 3 4 5 6 
#
# 1 0.007353 -0.004175 -0.003408 0.000000 0.000000 0.000000
# 2 -0.004175 0.019630 -0.002252 0.000000 0.000000 0.000000
# 3 -0.003408 -0.002252 0.022919 0.000000 0.000000 0.000000
# 4 0.000000 0.000000 0.000000 0.078991 0.000000 0.000000
# 5 0.000000 0.000000 0.000000 0.000000 0.038495 0.000000
# 6 0.000000 0.000000 0.000000 0.000000 0.000000 0.026849
#
#
# Mechanical properties :
#
#
# Convention : Reuss Voigt Hill
#
# Bulk Modulus (GPa) = 33.07644 49.51551 41.29598
# Shear Modulus (GPa) = 22.32314 28.57007 25.44661
#
# Velocity S-wave (km/s) = 3.14914 3.56263 3.36225
# Velocity P-wave (km/s) = 5.28366 6.23862 5.78089
#
# Compressibility (1/GPa) = 0.03023300
#
# Stress axis : x y z
#
# Youngs Moduli (GPa) = 135.99325 50.94308 43.63223
#
# Poissons Ratio (x) = 0.21267 0.14868
# Poissons Ratio (y) = 0.56772 0.09827
# Poissons Ratio (z) = 0.46340 0.11474
#
# Static dielectric constant tensor:
#      x y z
#    x 1.918950 0.000000 0.000000 
#    y 0.000000 1.874180 0.000000 
#    z 0.000000 0.000000 2.002690 
# 
# From -- ./inp_files/3176.got.cif
#   From: 2010.05.17/outbox.cif.g08.bks.cpg/sg41_2_cif.got.tgz:3176.got - 2010.06.03 18:54:24.
