data_PCOD9366344
_publ_section_title
;
Structure prediction by ZEFSAII (Michael W. Deem and Ramdas Pophale) SiO2 
 PCOD9366344
Probable space group: A B A 2
;
_chemical_formula_sum "Si O2"
_cell_formula_units_Z 48
_cell_length_a 7.102704
_cell_length_b 14.868304
_cell_length_c 17.131911
_cell_angle_alpha 90.000000
_cell_angle_beta 90.000000
_cell_angle_gamma 90.000000
_cell_volume 1809.218242
_symmetry_space_group_name_H-M "A B A 2"
_symmetry_group_IT_number 41
_symmetry_cell_setting 'orthorhombic'
loop_
_space_group_symop_operation_xyz
x,y,z
-x,-y,z
1/2-x,y,1/2+z
1/2+x,-y,1/2+z
x,1/2+y,1/2+z
-x,1/2-y,1/2+z
1/2-x,1/2+y,z
1/2+x,1/2-y,z
loop_
_atom_site_type_symbol
_atom_site_label
_atom_site_fract_x
_atom_site_fract_y
_atom_site_fract_z
Si Si1 0.000000 0.000000 0.421330
Si Si2 0.715366 0.596292 0.543837
Si Si3 0.245379 0.903786 0.210383
Si Si4 0.339029 0.717226 0.542559
Si Si5 0.244014 0.149834 0.875632
Si Si6 0.862050 0.789640 0.209989
Si Si7 0.000000 0.000000 0.827945
O O1 0.821584 0.027152 0.475111
O O2 0.069609 0.086853 0.376552
O O3 0.739271 0.548292 0.626545
O O4 0.523808 0.655678 0.542203
O O5 0.869854 0.674733 0.542300
O O6 0.388626 0.818751 0.208755
O O7 0.320893 0.971409 0.275194
O O8 0.042991 0.854977 0.215141
O O9 0.248387 0.702413 0.456864
O O10 0.237228 0.695711 0.625408
O O11 0.253841 0.199106 0.792681
O O12 0.061605 0.086969 0.874672
#
# Coordination Sequence:
#
# PCOD9366344 Si02
#       7
#     4   8   8   8   8   8   4
#     4  10  23  40  59  90 130 168 206 260 318 370
#     4  10  20  39  64  92 126 163 211 261 313 372
#     4  11  23  41  68  95 128 168 213 264 316 378
#     4  10  22  40  66  94 122 164 216 259 310 376
#     4  11  25  42  63  94 129 168 213 259 315 377
#     4  11  23  44  68  93 126 169 217 261 312 377
#     4  12  25  40  61  94 132 170 210 262 322 374
#
# _framework density 26.530797
#
# number of rings (size 3 to 8) (size 9 to 14) (size 15 to 20)
#    0.000    1.333    0.000    7.500    0.000   10.667 
#    0.000    0.833    0.000    0.000    0.000    0.000 
#    0.000    0.000    0.000    0.000    0.000    0.000 
#
# Total GULP energy -134189.434048 kJ/mol
# GULP energy per Si atom -5591.226419 kJ/mol
# Density = 2.647041 g / cm^3
# Si number density = 26.530797 Si / 1000 Ang^3
#
#
#
# Elastic Constant Matrix: (Units=GPa)
#
#
# Indices 1 2 3 4 5 6 
#
# 1 60.0261 -5.7100 32.1759 0.0000 0.0000 0.0000
# 2 -5.7100 51.7293 37.6342 0.0000 0.0000 0.0000
# 3 32.1759 37.6342 202.8014 0.0000 0.0000 0.0000
# 4 0.0000 0.0000 0.0000 39.5811 0.0000 0.0000
# 5 0.0000 0.0000 0.0000 0.0000 28.9972 0.0000
# 6 0.0000 0.0000 0.0000 0.0000 0.0000 44.5104
#
#
#
# Elastic Compliance Matrix: (Units=1/GPa)
#
#
# Indices 1 2 3 4 5 6 
#
# 1 0.019278 0.005033 -0.003993 0.000000 0.000000 0.000000
# 2 0.005033 0.023662 -0.005190 0.000000 0.000000 0.000000
# 3 -0.003993 -0.005190 0.006527 0.000000 0.000000 0.000000
# 4 0.000000 0.000000 0.000000 0.025265 0.000000 0.000000
# 5 0.000000 0.000000 0.000000 0.000000 0.034486 0.000000
# 6 0.000000 0.000000 0.000000 0.000000 0.000000 0.022467
#
#
# Mechanical properties :
#
#
# Convention : Reuss Voigt Hill
#
# Bulk Modulus (GPa) = 24.28998 49.19521 36.74259
# Shear Modulus (GPa) = 32.52935 39.31488 35.92211
#
# Velocity S-wave (km/s) = 3.50537 3.85367 3.68364
# Velocity P-wave (km/s) = 5.05556 6.19548 5.65432
#
# Compressibility (1/GPa) = 0.04116924
#
# Stress axis : x y z
#
# Youngs Moduli (GPa) = 51.87185 42.26110 153.20008
#
# Poissons Ratio (x) = -0.21269 0.61166
# Poissons Ratio (y) = -0.26105 0.79504
# Poissons Ratio (z) = 0.20710 0.21932
#
# Static dielectric constant tensor:
#      x y z
#    x 2.217790 0.000000 0.000000 
#    y 0.000000 2.005710 0.000000 
#    z 0.000000 0.000000 2.043260 
# 
# From -- ./inp_files/7360.got.cif
#   From: 2010.05.17/outbox.cif.g08.bks.cpg/sg41_4_cif.got.tgz:7360.got - 2010.06.03 18:54:24.
