data_PCOD9366525
_publ_section_title
;
Structure prediction by ZEFSAII (Michael W. Deem and Ramdas Pophale) SiO2 
 PCOD9366525
Probable space group: A B A 2
;
_chemical_formula_sum "Si O2"
_cell_formula_units_Z 64
_cell_length_a 9.129261
_cell_length_b 13.966178
_cell_length_c 22.960759
_cell_angle_alpha 90.000000
_cell_angle_beta 90.000000
_cell_angle_gamma 90.000000
_cell_volume 2927.517073
_symmetry_space_group_name_H-M "A B A 2"
_symmetry_group_IT_number 41
_symmetry_cell_setting 'orthorhombic'
loop_
_space_group_symop_operation_xyz
x,y,z
-x,-y,z
1/2-x,y,1/2+z
1/2+x,-y,1/2+z
x,1/2+y,1/2+z
-x,1/2-y,1/2+z
1/2-x,1/2+y,z
1/2+x,1/2-y,z
loop_
_atom_site_type_symbol
_atom_site_label
_atom_site_fract_x
_atom_site_fract_y
_atom_site_fract_z
Si Si1 0.769608 0.736477 0.177380
Si Si2 0.880809 0.164124 0.997586
Si Si3 0.914659 0.098401 0.745163
Si Si4 0.504509 0.880779 0.622368
Si Si5 0.169363 0.997566 0.314839
Si Si6 0.831540 0.801445 0.804977
Si Si7 0.836609 0.991650 0.922018
Si Si8 0.350992 0.227973 0.434623
O O1 0.899317 0.659071 0.186610
O O2 0.633344 0.675568 0.152166
O O3 0.724305 0.761273 0.243713
O O4 0.845101 0.829375 0.146459
O O5 0.851768 0.056124 0.977963
O O6 0.726454 0.215472 0.986920
O O7 0.978009 0.220097 0.949689
O O8 0.973224 0.152360 0.055994
O O9 0.758471 0.065884 0.769709
O O10 0.003758 0.161754 0.791872
O O11 0.000000 0.000000 0.735630
O O12 0.500000 0.000000 0.628583
O O13 0.214696 0.966616 0.379615
O O14 0.233980 0.104074 0.312812
O O15 0.000000 0.000000 0.303038
O O16 0.828956 0.745572 0.866322
O O17 0.803386 0.883204 0.937194
O O18 0.000000 0.000000 0.892810
#
# Coordination Sequence:
#
# PCOD9366525 Si02
#       8
#     8   8   8   8   8   8   8   8
#     4  12  27  45  72 103 144 189 244 297 369 439
#     4  11  23  44  70  95 131 180 231 292 353 421
#     4  10  22  42  65  94 143 192 226 288 362 439
#     4  12  29  49  75 104 141 195 257 311 360 438
#     4  10  21  34  64 102 144 180 225 285 352 442
#     4  10  23  41  62 103 142 181 224 286 370 447
#     4   9  19  40  63  93 133 183 220 277 358 431
#     4  10  22  39  68  98 133 172 222 284 360 432
#
# _framework density 21.861529999999998
#
# number of rings (size 3 to 8) (size 9 to 14) (size 15 to 20)
#    0.000    1.500    1.250    4.500    8.750    2.000 
#    0.000    0.000    0.000    3.000    0.000    0.000 
#    0.000    0.000    0.000    0.000    0.000    0.000 
#
# Total GULP energy -178337.544722 kJ/mol
# GULP energy per Si atom -5573.048273 kJ/mol
# Density = 2.181177 g / cm^3
# Si number density = 21.861530 Si / 1000 Ang^3
#
#
#
# Elastic Constant Matrix: (Units=GPa)
#
#
# Indices 1 2 3 4 5 6 
#
# 1 98.4241 39.4463 22.4704 0.0000 0.0000 0.0000
# 2 39.4463 95.7105 41.1226 0.0000 0.0000 0.0000
# 3 22.4704 41.1226 100.4886 0.0000 0.0000 0.0000
# 4 0.0000 0.0000 0.0000 40.1552 0.0000 0.0000
# 5 0.0000 0.0000 0.0000 0.0000 26.6468 0.0000
# 6 0.0000 0.0000 0.0000 0.0000 0.0000 23.4717
#
#
#
# Elastic Compliance Matrix: (Units=1/GPa)
#
#
# Indices 1 2 3 4 5 6 
#
# 1 0.012225 -0.004688 -0.000815 0.000000 0.000000 0.000000
# 2 -0.004688 0.014475 -0.004875 0.000000 0.000000 0.000000
# 3 -0.000815 -0.004875 0.012129 0.000000 0.000000 0.000000
# 4 0.000000 0.000000 0.000000 0.024903 0.000000 0.000000
# 5 0.000000 0.000000 0.000000 0.000000 0.037528 0.000000
# 6 0.000000 0.000000 0.000000 0.000000 0.000000 0.042605
#
#
# Mechanical properties :
#
#
# Convention : Reuss Voigt Hill
#
# Bulk Modulus (GPa) = 55.33513 55.63354 55.48434
# Shear Modulus (GPa) = 29.30041 30.82699 30.06370
#
# Velocity S-wave (km/s) = 3.66495 3.75921 3.71238
# Velocity P-wave (km/s) = 6.57843 6.65925 6.61896
#
# Compressibility (1/GPa) = 0.01807170
#
# Stress axis : x y z
#
# Youngs Moduli (GPa) = 81.79848 69.08420 82.44894
#
# Poissons Ratio (x) = 0.32389 0.06721
# Poissons Ratio (y) = 0.38349 0.40196
# Poissons Ratio (z) = 0.06668 0.33680
#
# Static dielectric constant tensor:
#      x y z
#    x 1.865980 0.000000 0.000000 
#    y 0.000000 1.838530 0.000000 
#    z 0.000000 0.000000 1.874210 
# 
# From -- ./inp_files/12011.got.cif
#   From: 2010.05.17/outbox.cif.g08.bks.cpg/sg41_7_cif.got.tgz:12011.got - 2010.06.03 18:54:24.
