data_PCOD9366130
_publ_section_title
;
Structure prediction by ZEFSAII (Michael W. Deem and Ramdas Pophale) SiO2 
 PCOD9366130
Probable space group: A B A 2
;
_chemical_formula_sum "Si O2"
_cell_formula_units_Z 60
_cell_length_a 30.209026
_cell_length_b 20.925086
_cell_length_c 5.085082
_cell_angle_alpha 90.000000
_cell_angle_beta 90.000000
_cell_angle_gamma 90.000000
_cell_volume 3214.414919
_symmetry_space_group_name_H-M "A B A 2"
_symmetry_group_IT_number 41
_symmetry_cell_setting 'orthorhombic'
loop_
_space_group_symop_operation_xyz
x,y,z
-x,-y,z
1/2-x,y,1/2+z
1/2+x,-y,1/2+z
x,1/2+y,1/2+z
-x,1/2-y,1/2+z
1/2-x,1/2+y,z
1/2+x,1/2-y,z
loop_
_atom_site_type_symbol
_atom_site_label
_atom_site_fract_x
_atom_site_fract_y
_atom_site_fract_z
Si Si1 0.069885 0.600407 0.107670
Si Si2 0.067997 0.396403 0.361427
Si Si3 0.377019 0.424030 0.342204
Si Si4 0.500000 0.500000 0.738744
Si Si5 0.276051 0.418569 0.254104
Si Si6 0.124053 0.570200 0.625521
Si Si7 0.724395 0.426163 0.230045
Si Si8 0.999383 0.291785 0.179700
O O1 0.032349 0.545678 0.074236
O O2 0.103119 0.577531 0.337580
O O3 0.043688 0.663258 0.193435
O O4 0.095232 0.609040 0.835711
O O5 0.093846 0.385818 0.630878
O O6 0.031760 0.452847 0.400745
O O7 0.040867 0.335438 0.263038
O O8 0.101478 0.418446 0.129816
O O9 0.326043 0.402196 0.333041
O O10 0.377917 0.497032 0.232385
O O11 0.240653 0.396762 0.470565
O O12 0.274876 0.496220 0.242395
O O13 0.175111 0.590910 0.640788
O O14 0.739550 0.404566 0.516902
O O15 0.995632 0.234479 0.386255
#
# Coordination Sequence:
#
# PCOD9366130 Si02
#       8
#     8   8   8   4   8   8   8   8
#     4  11  22  34  55  78 106 140 178 220 263 322
#     4  11  22  34  55  78 106 140 178 220 263 322
#     4  11  19  32  50  80 113 138 176 215 258 316
#     4  10  20  34  48  78 104 132 168 204 280 304
#     4   9  17  28  44  67 105 150 174 195 243 312
#     4  11  19  32  50  80 113 138 176 215 258 316
#     4   9  17  28  44  67 105 150 174 195 243 312
#     4  11  24  43  56  73 104 143 184 228 264 307
#
# _framework density 18.665917
#
# number of rings (size 3 to 8) (size 9 to 14) (size 15 to 20)
#    0.000    1.600    2.667    3.200    0.000    8.533 
#    0.000    0.000    0.000    0.000    0.000    0.000 
#    0.000   74.667    0.000    0.000    0.000    0.000 
#
# Total GULP energy -167490.376452 kJ/mol
# GULP energy per Si atom -5583.012548 kJ/mol
# Density = 1.862343 g / cm^3
# Si number density = 18.665917 Si / 1000 Ang^3
#
#
#
# Elastic Constant Matrix: (Units=GPa)
#
#
# Indices 1 2 3 4 5 6 
#
# 1 111.3111 10.2045 23.6341 0.0000 0.0000 0.0000
# 2 10.2045 23.4581 -9.3495 0.0000 0.0000 0.0000
# 3 23.6341 -9.3495 80.4147 0.0000 0.0000 0.0000
# 4 0.0000 0.0000 0.0000 22.2053 0.0000 0.0000
# 5 0.0000 0.0000 0.0000 0.0000 26.1684 0.0000
# 6 0.0000 0.0000 0.0000 0.0000 0.0000 8.6930
#
#
#
# Elastic Compliance Matrix: (Units=1/GPa)
#
#
# Indices 1 2 3 4 5 6 
#
# 1 0.010324 -0.005977 -0.003729 0.000000 0.000000 0.000000
# 2 -0.005977 0.048161 0.007356 0.000000 0.000000 0.000000
# 3 -0.003729 0.007356 0.014387 0.000000 0.000000 0.000000
# 4 0.000000 0.000000 0.000000 0.045034 0.000000 0.000000
# 5 0.000000 0.000000 0.000000 0.000000 0.038214 0.000000
# 6 0.000000 0.000000 0.000000 0.000000 0.000000 0.115035
#
#
# Mechanical properties :
#
#
# Convention : Reuss Voigt Hill
#
# Bulk Modulus (GPa) = 14.66886 29.35135 22.01011
# Shear Modulus (GPa) = 16.74598 24.12632 20.43615
#
# Velocity S-wave (km/s) = 2.99848 3.59908 3.31242
# Velocity P-wave (km/s) = 4.45686 5.74716 5.14264
#
# Compressibility (1/GPa) = 0.06817160
#
# Stress axis : x y z
#
# Youngs Moduli (GPa) = 96.86583 20.76361 69.50814
#
# Poissons Ratio (x) = 0.12411 0.25920
# Poissons Ratio (y) = 0.57898 -0.51132
# Poissons Ratio (z) = 0.36122 -0.15274
#
# Static dielectric constant tensor:
#      x y z
#    x 1.653710 0.000000 0.000000 
#    y 0.000000 1.645610 0.000000 
#    z 0.000000 0.000000 1.633190 
# 
# From -- ./inp_files/1185.got.cif
#   From: 2010.05.17/outbox.cif.g08.bks.cpg/sg41_1_cif.got.tgz:1185.got - 2010.06.03 18:54:24.
