data_PCOD9366318
_publ_section_title
;
Structure prediction by ZEFSAII (Michael W. Deem and Ramdas Pophale) SiO2 
 PCOD9366318
Probable space group: A B A 2
;
_chemical_formula_sum "Si O2"
_cell_formula_units_Z 32
_cell_length_a 13.988559
_cell_length_b 18.858739
_cell_length_c 5.043238
_cell_angle_alpha 90.000000
_cell_angle_beta 90.000000
_cell_angle_gamma 90.000000
_cell_volume 1330.439385
_symmetry_space_group_name_H-M "A B A 2"
_symmetry_group_IT_number 41
_symmetry_cell_setting 'orthorhombic'
loop_
_space_group_symop_operation_xyz
x,y,z
-x,-y,z
1/2-x,y,1/2+z
1/2+x,-y,1/2+z
x,1/2+y,1/2+z
-x,1/2-y,1/2+z
1/2-x,1/2+y,z
1/2+x,1/2-y,z
loop_
_atom_site_type_symbol
_atom_site_label
_atom_site_fract_x
_atom_site_fract_y
_atom_site_fract_z
Si Si1 0.084094 0.836278 0.728630
Si Si2 0.190837 0.478932 0.306713
Si Si3 0.108204 0.688283 0.511017
Si Si4 0.398057 0.108759 0.020630
O O1 0.131285 0.765970 0.613523
O O2 0.010405 0.872829 0.523382
O O3 0.155739 0.898347 0.798066
O O4 0.007831 0.813315 0.956855
O O5 0.218861 0.490080 0.611436
O O6 0.118033 0.534480 0.170189
O O7 0.147754 0.665665 0.225869
O O8 0.133531 0.628977 0.727602
#
# Coordination Sequence:
#
# PCOD9366318 Si02
#       4
#     8   8   8   8
#     4  10  22  42  69  98 118 166 221 271 311 374
#     4  12  28  43  60  94 141 174 208 259 333 392
#     4  10  20  38  74  92 119 149 228 271 313 354
#     4  10  21  42  65  93 121 168 213 264 305 385
#
# _framework density 24.052201
#
# number of rings (size 3 to 8) (size 9 to 14) (size 15 to 20)
#    1.500    0.000    2.500    2.250    3.500    0.000 
#    4.500    7.500    0.000    0.000    0.000    0.000 
#    0.000    0.000    0.000    0.000    0.000    0.000 
#
# Total GULP energy -89224.301285 kJ/mol
# GULP energy per Si atom -5576.518830 kJ/mol
# Density = 2.399746 g / cm^3
# Si number density = 24.052201 Si / 1000 Ang^3
#
#
#
# Elastic Constant Matrix: (Units=GPa)
#
#
# Indices 1 2 3 4 5 6 
#
# 1 24.4796 9.7702 -7.0018 0.0000 0.0000 0.0000
# 2 9.7702 162.2791 1.9333 0.0000 0.0000 0.0000
# 3 -7.0018 1.9333 71.4486 0.0000 0.0000 0.0000
# 4 0.0000 0.0000 0.0000 23.6470 0.0000 0.0000
# 5 0.0000 0.0000 0.0000 0.0000 19.0683 0.0000
# 6 0.0000 0.0000 0.0000 0.0000 0.0000 27.1012
#
#
#
# Elastic Compliance Matrix: (Units=1/GPa)
#
#
# Indices 1 2 3 4 5 6 
#
# 1 0.043137 -0.002648 0.004299 0.000000 0.000000 0.000000
# 2 -0.002648 0.006327 -0.000431 0.000000 0.000000 0.000000
# 3 0.004299 -0.000431 0.014429 0.000000 0.000000 0.000000
# 4 0.000000 0.000000 0.000000 0.042289 0.000000 0.000000
# 5 0.000000 0.000000 0.000000 0.000000 0.052443 0.000000
# 6 0.000000 0.000000 0.000000 0.000000 0.000000 0.036899
#
#
# Mechanical properties :
#
#
# Convention : Reuss Voigt Hill
#
# Bulk Modulus (GPa) = 15.07553 29.73453 22.40503
# Shear Modulus (GPa) = 23.23482 30.86367 27.04924
#
# Velocity S-wave (km/s) = 3.11145 3.58606 3.35715
# Velocity P-wave (km/s) = 4.38060 5.43468 4.93586
#
# Compressibility (1/GPa) = 0.06633268
#
# Stress axis : x y z
#
# Youngs Moduli (GPa) = 23.18197 158.05783 69.30477
#
# Poissons Ratio (x) = 0.41859 -0.29794
# Poissons Ratio (y) = 0.06139 0.02985
# Poissons Ratio (z) = -0.09966 0.06808
#
# Static dielectric constant tensor:
#      x y z
#    x 2.000670 0.000000 0.000000 
#    y 0.000000 1.894920 0.000000 
#    z 0.000000 0.000000 1.908640 
# 
# From -- ./inp_files/190.got.cif
#   From: 2010.05.17/outbox.cif.g08.bks.cpg/sg41_1_cif.got.tgz:190.got - 2010.06.03 18:54:24.
