data_PCOD9366125
_publ_section_title
;
Structure prediction by ZEFSAII (Michael W. Deem and Ramdas Pophale) SiO2 
 PCOD9366125
Probable space group: A B A 2
;
_chemical_formula_sum "Si O2"
_cell_formula_units_Z 52
_cell_length_a 13.287748
_cell_length_b 17.478139
_cell_length_c 9.180577
_cell_angle_alpha 90.000000
_cell_angle_beta 90.000000
_cell_angle_gamma 90.000000
_cell_volume 2132.144083
_symmetry_space_group_name_H-M "A B A 2"
_symmetry_group_IT_number 41
_symmetry_cell_setting 'orthorhombic'
loop_
_space_group_symop_operation_xyz
x,y,z
-x,-y,z
1/2-x,y,1/2+z
1/2+x,-y,1/2+z
x,1/2+y,1/2+z
-x,1/2-y,1/2+z
1/2-x,1/2+y,z
1/2+x,1/2-y,z
loop_
_atom_site_type_symbol
_atom_site_label
_atom_site_fract_x
_atom_site_fract_y
_atom_site_fract_z
Si Si1 0.212333 0.007812 0.790170
Si Si2 0.285674 0.261379 0.154046
Si Si3 0.700342 0.592377 0.526799
Si Si4 0.059215 0.297840 0.181890
Si Si5 0.500000 0.500000 0.954989
Si Si6 0.776928 0.833262 0.911068
Si Si7 0.494046 0.658230 0.008022
O O1 0.208794 0.983587 0.623625
O O2 0.254704 0.092114 0.822090
O O3 0.273194 0.938632 0.868268
O O4 0.098202 0.008909 0.852287
O O5 0.283171 0.343987 0.077119
O O6 0.167144 0.258157 0.203614
O O7 0.325396 0.233614 0.308662
O O8 0.301090 0.200158 0.026024
O O9 0.594525 0.634583 0.569113
O O10 0.027630 0.328588 0.339755
O O11 0.988527 0.232472 0.109134
O O12 0.527449 0.573563 0.051173
O O13 0.874312 0.854606 0.004160
#
# Coordination Sequence:
#
# PCOD9366125 Si02
#       7
#     8   8   8   8   4   8   8
#     4  11  21  37  62  84 121 153 201 242 300 357
#     4   9  19  35  53  81 111 143 196 235 289 346
#     4  10  21  37  58  87 113 154 197 249 285 359
#     4   9  21  36  58  79 117 148 198 242 290 352
#     4  10  20  38  60  86 116 170 188 240 310 364
#     4  10  20  33  56  82 110 148 187 238 290 346
#     4  10  20  38  57  83 115 151 198 236 298 360
#
# _framework density 24.388594999999999
#
# number of rings (size 3 to 8) (size 9 to 14) (size 15 to 20)
#    0.923    1.231    1.538    1.846    0.000    2.462 
#    0.000    0.000    0.000    0.923    0.000    0.000 
#    0.000    0.000    0.000    0.000    0.000    0.000 
#
# Total GULP energy -144781.127352 kJ/mol
# GULP energy per Si atom -5568.504898 kJ/mol
# Density = 2.433309 g / cm^3
# Si number density = 24.388595 Si / 1000 Ang^3
#
#
#
# Elastic Constant Matrix: (Units=GPa)
#
#
# Indices 1 2 3 4 5 6 
#
# 1 21.9580 18.3685 0.0425 0.0000 0.0000 0.0000
# 2 18.3685 114.8888 18.1485 0.0000 0.0000 0.0000
# 3 0.0425 18.1485 60.3213 0.0000 0.0000 0.0000
# 4 0.0000 0.0000 0.0000 41.4536 0.0000 0.0000
# 5 0.0000 0.0000 0.0000 0.0000 18.2117 0.0000
# 6 0.0000 0.0000 0.0000 0.0000 0.0000 20.7157
#
#
#
# Elastic Compliance Matrix: (Units=1/GPa)
#
#
# Indices 1 2 3 4 5 6 
#
# 1 0.052969 -0.008885 0.002636 0.000000 0.000000 0.000000
# 2 -0.008885 0.010629 -0.003192 0.000000 0.000000 0.000000
# 3 0.002636 -0.003192 0.017536 0.000000 0.000000 0.000000
# 4 0.000000 0.000000 0.000000 0.024123 0.000000 0.000000
# 5 0.000000 0.000000 0.000000 0.000000 0.054910 0.000000
# 6 0.000000 0.000000 0.000000 0.000000 0.000000 0.048273
#
#
# Mechanical properties :
#
#
# Convention : Reuss Voigt Hill
#
# Bulk Modulus (GPa) = 16.06361 30.03189 23.04775
# Shear Modulus (GPa) = 20.15544 26.78345 23.46945
#
# Velocity S-wave (km/s) = 2.87789 3.31750 3.10548
# Velocity P-wave (km/s) = 4.20045 5.19760 4.72540
#
# Compressibility (1/GPa) = 0.06225252
#
# Stress axis : x y z
#
# Youngs Moduli (GPa) = 18.87897 94.08424 57.02473
#
# Poissons Ratio (x) = 0.83595 -0.15031
# Poissons Ratio (y) = 0.16774 0.18200
# Poissons Ratio (z) = -0.04976 0.30027
#
# Static dielectric constant tensor:
#      x y z
#    x 2.054550 0.000000 0.000000 
#    y 0.000000 2.102160 0.000000 
#    z 0.000000 0.000000 2.013600 
# 
# From -- ./inp_files/3124.got.cif
#   From: 2010.05.17/outbox.cif.g08.bks.cpg/sg41_2_cif.got.tgz:3124.got - 2010.06.03 18:54:24.
