data_PCOD9366523
_publ_section_title
;
Structure prediction by ZEFSAII (Michael W. Deem and Ramdas Pophale) SiO2 
 PCOD9366523
Probable space group: A B A 2
;
_chemical_formula_sum "Si O2"
_cell_formula_units_Z 40
_cell_length_a 16.175136
_cell_length_b 17.512601
_cell_length_c 5.398354
_cell_angle_alpha 90.000000
_cell_angle_beta 90.000000
_cell_angle_gamma 90.000000
_cell_volume 1529.184735
_symmetry_space_group_name_H-M "A B A 2"
_symmetry_group_IT_number 41
_symmetry_cell_setting 'orthorhombic'
loop_
_space_group_symop_operation_xyz
x,y,z
-x,-y,z
1/2-x,y,1/2+z
1/2+x,-y,1/2+z
x,1/2+y,1/2+z
-x,1/2-y,1/2+z
1/2-x,1/2+y,z
1/2+x,1/2-y,z
loop_
_atom_site_type_symbol
_atom_site_label
_atom_site_fract_x
_atom_site_fract_y
_atom_site_fract_z
Si Si1 0.226363 0.770569 0.365210
Si Si2 0.094271 0.476558 0.676733
Si Si3 0.441801 0.927182 0.176796
Si Si4 0.289510 0.102669 0.869076
Si Si5 0.463814 0.720607 0.850478
O O1 0.248973 0.812546 0.616261
O O2 0.286947 0.694732 0.364439
O O3 0.133517 0.737892 0.363173
O O4 0.117732 0.441540 0.411152
O O5 0.135800 0.555820 0.756440
O O6 0.000000 0.500000 0.634465
O O7 0.101874 0.419112 0.909587
O O8 0.504469 0.859924 0.246076
O O9 0.500000 0.000000 0.136118
O O10 0.221725 0.081678 0.656845
O O11 0.501195 0.773485 0.630342
#
# Coordination Sequence:
#
# PCOD9366523 Si02
#       5
#     8   8   8   8   8
#     4  10  23  38  70 100 136 179 247 295 342 413
#     4  10  21  34  61  95 142 170 216 282 352 400
#     4  10  23  38  68  98 138 172 233 280 349 400
#     4  10  21  34  59  95 142 168 226 284 349 396
#     4  12  26  46  72 106 146 191 246 297 362 437
#
# _framework density 26.157727999999999
#
# number of rings (size 3 to 8) (size 9 to 14) (size 15 to 20)
#    0.000    1.600    0.000    3.600   22.400    0.000 
#    0.000    0.000    0.000   24.000    0.000    0.000 
#    0.000    0.000    0.000    0.000    0.000    0.000 
#
# Total GULP energy -111809.179974 kJ/mol
# GULP energy per Si atom -5590.458999 kJ/mol
# Density = 2.609819 g / cm^3
# Si number density = 26.157728 Si / 1000 Ang^3
#
#
#
# Elastic Constant Matrix: (Units=GPa)
#
#
# Indices 1 2 3 4 5 6 
#
# 1 59.7481 4.0200 29.5771 0.0000 0.0000 0.0000
# 2 4.0200 60.8831 -3.0178 0.0000 0.0000 0.0000
# 3 29.5771 -3.0178 247.4253 0.0000 0.0000 0.0000
# 4 0.0000 0.0000 0.0000 5.4217 0.0000 0.0000
# 5 0.0000 0.0000 0.0000 0.0000 31.1537 0.0000
# 6 0.0000 0.0000 0.0000 0.0000 0.0000 35.6330
#
#
#
# Elastic Compliance Matrix: (Units=1/GPa)
#
#
# Indices 1 2 3 4 5 6 
#
# 1 0.017890 -0.001288 -0.002154 0.000000 0.000000 0.000000
# 2 -0.001288 0.016528 0.000356 0.000000 0.000000 0.000000
# 3 -0.002154 0.000356 0.004303 0.000000 0.000000 0.000000
# 4 0.000000 0.000000 0.000000 0.184442 0.000000 0.000000
# 5 0.000000 0.000000 0.000000 0.000000 0.032099 0.000000
# 6 0.000000 0.000000 0.000000 0.000000 0.000000 0.028064
#
#
# Mechanical properties :
#
#
# Convention : Reuss Voigt Hill
#
# Bulk Modulus (GPa) = 30.72424 47.69059 39.20741
# Shear Modulus (GPa) = 16.64730 36.94017 26.79374
#
# Velocity S-wave (km/s) = 2.52547 3.76201 3.20396
# Velocity P-wave (km/s) = 4.50281 6.09441 5.35804
#
# Compressibility (1/GPa) = 0.03254759
#
# Stress axis : x y z
#
# Youngs Moduli (GPa) = 55.89703 60.50487 232.37003
#
# Poissons Ratio (x) = 0.07793 0.50059
# Poissons Ratio (y) = 0.07200 -0.08262
# Poissons Ratio (z) = 0.12042 -0.02151
#
# Static dielectric constant tensor:
#      x y z
#    x 2.039580 0.000000 0.000000 
#    y 0.000000 2.167850 0.000000 
#    z 0.000000 0.000000 2.195750 
# 
# From -- ./inp_files/245.got.cif
#   From: 2010.05.17/outbox.cif.g08.bks.cpg/sg41_1_cif.got.tgz:245.got - 2010.06.03 18:54:24.
