data_PCOD9366785
_publ_section_title
;
Structure prediction by ZEFSAII (Michael W. Deem and Ramdas Pophale) SiO2 
 PCOD9366785
Probable space group: A B A 2
;
_chemical_formula_sum "Si O2"
_cell_formula_units_Z 52
_cell_length_a 11.990803
_cell_length_b 8.639189
_cell_length_c 25.140515
_cell_angle_alpha 90.000000
_cell_angle_beta 90.000000
_cell_angle_gamma 90.000000
_cell_volume 2604.326398
_symmetry_space_group_name_H-M "A B A 2"
_symmetry_group_IT_number 41
_symmetry_cell_setting 'orthorhombic'
loop_
_space_group_symop_operation_xyz
x,y,z
-x,-y,z
1/2-x,y,1/2+z
1/2+x,-y,1/2+z
x,1/2+y,1/2+z
-x,1/2-y,1/2+z
1/2-x,1/2+y,z
1/2+x,1/2-y,z
loop_
_atom_site_type_symbol
_atom_site_label
_atom_site_fract_x
_atom_site_fract_y
_atom_site_fract_z
Si Si1 0.762934 0.664176 0.655950
Si Si2 0.614157 0.927836 0.212093
Si Si3 0.096414 0.292667 0.406323
Si Si4 0.000000 0.500000 0.315634
Si Si5 0.097183 0.214485 0.993641
Si Si6 0.105424 0.582017 0.607309
Si Si7 0.292442 0.003668 0.948568
O O1 0.856590 0.767876 0.684051
O O2 0.712893 0.544665 0.698025
O O3 0.806758 0.560865 0.606630
O O4 0.666866 0.781040 0.637825
O O5 0.500000 0.000000 0.188948
O O6 0.591165 0.928752 0.275070
O O7 0.208045 0.391818 0.417174
O O8 0.045300 0.362891 0.352775
O O9 0.003216 0.317059 0.452410
O O10 0.133037 0.113800 0.411093
O O11 0.132235 0.393509 0.985645
O O12 0.208782 0.116691 0.980165
O O13 0.065833 0.156135 0.051996
O O14 0.000000 0.500000 0.634264
#
# Coordination Sequence:
#
# PCOD9366785 Si02
#       7
#     8   8   8   4   8   8   8
#     4  10  21  41  63  90 125 161 211 256 317 369
#     4   9  21  40  63  88 123 155 208 269 306 372
#     4  11  21  41  60  91 128 162 205 264 300 375
#     4  10  22  40  68  84 124 160 208 264 328 350
#     4  11  21  39  58  92 129 164 207 251 299 377
#     4  11  22  36  65  92 126 168 202 253 313 370
#     4  10  22  36  63  82 131 165 204 246 308 355
#
# _framework density 19.966774000000001
#
# number of rings (size 3 to 8) (size 9 to 14) (size 15 to 20)
#    0.462    1.231    1.538    3.231    0.000    2.462 
#    0.000    4.615    6.769    0.000    0.000    0.000 
#    0.000    0.000    0.000    0.000    0.000    0.000 
#
# Total GULP energy -144916.713441 kJ/mol
# GULP energy per Si atom -5573.719748 kJ/mol
# Density = 1.992133 g / cm^3
# Si number density = 19.966774 Si / 1000 Ang^3
#
#
#
# Elastic Constant Matrix: (Units=GPa)
#
#
# Indices 1 2 3 4 5 6 
#
# 1 72.5306 41.7470 28.9827 0.0000 0.0000 0.0000
# 2 41.7470 140.8673 42.1848 0.0000 0.0000 0.0000
# 3 28.9827 42.1848 91.9461 0.0000 0.0000 0.0000
# 4 0.0000 0.0000 0.0000 -21.3203 0.0000 0.0000
# 5 0.0000 0.0000 0.0000 0.0000 22.6758 0.0000
# 6 0.0000 0.0000 0.0000 0.0000 0.0000 50.2839
#
#
#
# Elastic Compliance Matrix: (Units=1/GPa)
#
#
# Indices 1 2 3 4 5 6 
#
# 1 0.017626 -0.004127 -0.003663 0.000000 0.000000 0.000000
# 2 -0.004127 0.009196 -0.002918 0.000000 0.000000 0.000000
# 3 -0.003663 -0.002918 0.013369 0.000000 0.000000 0.000000
# 4 0.000000 0.000000 0.000000 -0.046904 0.000000 0.000000
# 5 0.000000 0.000000 0.000000 0.000000 0.044100 0.000000
# 6 0.000000 0.000000 0.000000 0.000000 0.000000 0.019887
#
#
# Mechanical properties :
#
#
# Convention : Reuss Voigt Hill
#
# Bulk Modulus (GPa) = 53.25950 59.01920 56.13935
# Shear Modulus (GPa) = 58.85926 23.15652 41.00789
#
# Velocity S-wave (km/s) = 5.43531 3.40921 4.53681
# Velocity P-wave (km/s) = 8.13155 6.71713 7.45795
#
# Compressibility (1/GPa) = 0.01877599
#
# Stress axis : x y z
#
# Youngs Moduli (GPa) = 56.73390 108.74558 74.79818
#
# Poissons Ratio (x) = 0.44877 0.27396
# Poissons Ratio (y) = 0.23413 0.21828
# Poissons Ratio (z) = 0.20780 0.31734
#
# Static dielectric constant tensor:
#      x y z
#    x 1.738350 0.000000 0.000000 
#    y 0.000000 2.054300 0.000000 
#    z 0.000000 0.000000 1.679600 
# 
# From -- ./inp_files/12499.got.cif
#   From: 2010.05.17/outbox.cif.g08.bks.cpg/sg41_7_cif.got.tgz:12499.got - 2010.06.03 18:54:24.
