data_PCOD9366090
_publ_section_title
;
Structure prediction by ZEFSAII (Michael W. Deem and Ramdas Pophale) SiO2 
 PCOD9366090
Probable space group: A B A 2
;
_chemical_formula_sum "Si O2"
_cell_formula_units_Z 56
_cell_length_a 9.217787
_cell_length_b 24.390245
_cell_length_c 11.435513
_cell_angle_alpha 90.000000
_cell_angle_beta 90.000000
_cell_angle_gamma 90.000000
_cell_volume 2570.978727
_symmetry_space_group_name_H-M "A B A 2"
_symmetry_group_IT_number 41
_symmetry_cell_setting 'orthorhombic'
loop_
_space_group_symop_operation_xyz
x,y,z
-x,-y,z
1/2-x,y,1/2+z
1/2+x,-y,1/2+z
x,1/2+y,1/2+z
-x,1/2-y,1/2+z
1/2-x,1/2+y,z
1/2+x,1/2-y,z
loop_
_atom_site_type_symbol
_atom_site_label
_atom_site_fract_x
_atom_site_fract_y
_atom_site_fract_z
Si Si1 0.594975 0.791498 0.521850
Si Si2 0.412115 0.186410 0.061474
Si Si3 0.462227 0.611733 0.185217
Si Si4 0.000000 0.500000 0.541605
Si Si5 0.971781 0.419662 0.921277
Si Si6 0.858634 0.359232 0.292601
Si Si7 0.000000 0.500000 0.125877
Si Si8 0.189151 0.023504 0.841750
O O1 0.754798 0.786355 0.576800
O O2 0.517928 0.733433 0.519315
O O3 0.508346 0.837228 0.598819
O O4 0.625068 0.814581 0.392687
O O5 0.455777 0.160357 0.185088
O O6 0.398896 0.135454 0.973036
O O7 0.466015 0.554331 0.116078
O O8 0.554139 0.601403 0.304837
O O9 0.299220 0.626859 0.233487
O O10 0.132360 0.489459 0.451505
O O11 0.855611 0.462884 0.867204
O O12 0.025935 0.449441 0.037920
O O13 0.893884 0.417780 0.348855
O O14 0.862478 0.496079 0.214382
#
# Coordination Sequence:
#
# PCOD9366090 Si02
#       8
#     8   8   8   4   8   8   4   8
#     4  11  23  41  66  97 129 176 227 279 329 406
#     4  11  23  39  69  94 130 175 231 272 335 404
#     4  10  21  36  62  95 124 167 217 270 334 400
#     4  11  19  34  60  98 119 155 220 266 322 405
#     4  11  22  41  64  93 129 175 223 273 344 412
#     4  10  19  40  67  88 122 173 222 261 334 408
#     4  11  23  38  66 100 125 167 232 282 320 423
#     4  10  20  37  67  89 125 172 219 270 338 403
#
# _framework density 21.781587999999999
#
# number of rings (size 3 to 8) (size 9 to 14) (size 15 to 20)
#    0.000    1.429    5.714    1.286    4.000    0.000 
#    0.000    1.429    0.000    0.000    0.000    0.000 
#    0.000    0.000    0.000    0.000    0.000    0.000 
#
# Total GULP energy -155944.893261 kJ/mol
# GULP energy per Si atom -5569.460474 kJ/mol
# Density = 2.173201 g / cm^3
# Si number density = 21.781588 Si / 1000 Ang^3
#
#
#
# Elastic Constant Matrix: (Units=GPa)
#
#
# Indices 1 2 3 4 5 6 
#
# 1 34.5552 35.9085 22.1724 0.0000 0.0000 0.0000
# 2 35.9085 94.1020 46.1688 0.0000 0.0000 0.0000
# 3 22.1724 46.1688 149.2989 0.0000 0.0000 0.0000
# 4 0.0000 0.0000 0.0000 32.0524 0.0000 0.0000
# 5 0.0000 0.0000 0.0000 0.0000 27.6159 0.0000
# 6 0.0000 0.0000 0.0000 0.0000 0.0000 33.6838
#
#
#
# Elastic Compliance Matrix: (Units=1/GPa)
#
#
# Indices 1 2 3 4 5 6 
#
# 1 0.048335 -0.017591 -0.001738 0.000000 0.000000 0.000000
# 2 -0.017591 0.018930 -0.003241 0.000000 0.000000 0.000000
# 3 -0.001738 -0.003241 0.007958 0.000000 0.000000 0.000000
# 4 0.000000 0.000000 0.000000 0.031199 0.000000 0.000000
# 5 0.000000 0.000000 0.000000 0.000000 0.036211 0.000000
# 6 0.000000 0.000000 0.000000 0.000000 0.000000 0.029688
#
#
# Mechanical properties :
#
#
# Convention : Reuss Voigt Hill
#
# Bulk Modulus (GPa) = 33.24335 54.05063 43.64699
# Shear Modulus (GPa) = 21.97900 30.25083 26.11491
#
# Velocity S-wave (km/s) = 3.18002 3.73074 3.46633
# Velocity P-wave (km/s) = 5.36457 6.58988 6.00854
#
# Compressibility (1/GPa) = 0.03008121
#
# Stress axis : x y z
#
# Youngs Moduli (GPa) = 20.68899 52.82699 125.65249
#
# Poissons Ratio (x) = 0.92930 0.21842
# Poissons Ratio (y) = 0.36395 0.40728
# Poissons Ratio (z) = 0.03596 0.17123
#
# Static dielectric constant tensor:
#      x y z
#    x 1.866930 0.000000 0.000000 
#    y 0.000000 1.815430 0.000000 
#    z 0.000000 0.000000 1.891960 
# 
# From -- ./inp_files/5170.got.cif
#   From: 2010.05.17/outbox.cif.g08.bks.cpg/sg41_3_cif.got.tgz:5170.got - 2010.06.03 18:54:24.
