data_PCOD9366151
_publ_section_title
;
Structure prediction by ZEFSAII (Michael W. Deem and Ramdas Pophale) SiO2 
 PCOD9366151
Probable space group: A B A 2
;
_chemical_formula_sum "Si O2"
_cell_formula_units_Z 56
_cell_length_a 24.833875
_cell_length_b 22.855459
_cell_length_c 5.056523
_cell_angle_alpha 90.000000
_cell_angle_beta 90.000000
_cell_angle_gamma 90.000000
_cell_volume 2870.029927
_symmetry_space_group_name_H-M "A B A 2"
_symmetry_group_IT_number 41
_symmetry_cell_setting 'orthorhombic'
loop_
_space_group_symop_operation_xyz
x,y,z
-x,-y,z
1/2-x,y,1/2+z
1/2+x,-y,1/2+z
x,1/2+y,1/2+z
-x,1/2-y,1/2+z
1/2-x,1/2+y,z
1/2+x,1/2-y,z
loop_
_atom_site_type_symbol
_atom_site_label
_atom_site_fract_x
_atom_site_fract_y
_atom_site_fract_z
Si Si1 0.713132 0.853685 0.924940
Si Si2 0.714384 0.206559 0.809899
Si Si3 0.485915 0.711528 0.968062
Si Si4 0.629622 0.270837 0.154809
Si Si5 0.359510 0.403568 0.314106
Si Si6 0.713533 0.990862 0.932092
Si Si7 0.415133 0.854432 0.310566
O O1 0.760336 0.843051 0.709429
O O2 0.663230 0.814132 0.838995
O O3 0.699018 0.922426 0.910342
O O4 0.763667 0.214282 0.014953
O O5 0.667263 0.248233 0.916033
O O6 0.690594 0.141445 0.840223
O O7 0.512036 0.742398 0.225770
O O8 0.424352 0.699746 0.042424
O O9 0.522919 0.657439 0.881663
O O10 0.610623 0.211119 0.300857
O O11 0.336089 0.467169 0.369696
O O12 0.384781 0.392495 0.028474
O O13 0.403300 0.382983 0.528694
O O14 0.760751 0.002276 0.718482
#
# Coordination Sequence:
#
# PCOD9366151 Si02
#       7
#     8   8   8   8   8   8   8
#     4  10  22  37  54  79 110 144 180 214 252 314
#     4  11  20  29  44  72 105 132 163 203 250 305
#     4  10  20  35  53  76 107 139 176 215 261 322
#     4  10  21  35  54  77 108 142 171 210 267 314
#     4  11  20  34  53  76 106 138 171 215 268 305
#     4  10  20  36  55  77 106 143 182 213 252 315
#     4  10  21  34  53  81 104 133 175 222 266 311
#
# _framework density 19.511990999999998
#
# number of rings (size 3 to 8) (size 9 to 14) (size 15 to 20)
#    0.000    1.714    0.000    6.857    0.000    5.714 
#    0.000    0.000    0.000    0.857    0.000    6.000 
#    0.000    0.000    0.000    0.000    0.000    0.000 
#
# Total GULP energy -156608.250544 kJ/mol
# GULP energy per Si atom -5593.151805 kJ/mol
# Density = 1.946758 g / cm^3
# Si number density = 19.511991 Si / 1000 Ang^3
#
#
#
# Elastic Constant Matrix: (Units=GPa)
#
#
# Indices 1 2 3 4 5 6 
#
# 1 84.4612 17.5889 9.4057 0.0000 0.0000 0.0000
# 2 17.5889 59.4302 3.1623 0.0000 0.0000 0.0000
# 3 9.4057 3.1623 67.4096 0.0000 0.0000 0.0000
# 4 0.0000 0.0000 0.0000 19.2627 0.0000 0.0000
# 5 0.0000 0.0000 0.0000 0.0000 28.6510 0.0000
# 6 0.0000 0.0000 0.0000 0.0000 0.0000 18.0877
#
#
#
# Elastic Compliance Matrix: (Units=1/GPa)
#
#
# Indices 1 2 3 4 5 6 
#
# 1 0.012790 -0.003699 -0.001611 0.000000 0.000000 0.000000
# 2 -0.003699 0.017939 -0.000325 0.000000 0.000000 0.000000
# 3 -0.001611 -0.000325 0.015075 0.000000 0.000000 0.000000
# 4 0.000000 0.000000 0.000000 0.051914 0.000000 0.000000
# 5 0.000000 0.000000 0.000000 0.000000 0.034903 0.000000
# 6 0.000000 0.000000 0.000000 0.000000 0.000000 0.055286
#
#
# Mechanical properties :
#
#
# Convention : Reuss Voigt Hill
#
# Bulk Modulus (GPa) = 28.95919 30.17943 29.56931
# Shear Modulus (GPa) = 23.73182 25.27656 24.50419
#
# Velocity S-wave (km/s) = 3.49129 3.60312 3.54765
# Velocity P-wave (km/s) = 5.57908 5.72806 5.65406
#
# Compressibility (1/GPa) = 0.03453136
#
# Stress axis : x y z
#
# Youngs Moduli (GPa) = 78.18875 55.74548 66.33621
#
# Poissons Ratio (x) = 0.20623 0.10687
# Poissons Ratio (y) = 0.28926 0.02158
# Poissons Ratio (z) = 0.12596 0.01814
#
# Static dielectric constant tensor:
#      x y z
#    x 1.686300 0.000000 0.000000 
#    y 0.000000 1.691400 0.000000 
#    z 0.000000 0.000000 1.695940 
# 
# From -- ./inp_files/980.got.cif
#   From: 2010.05.17/outbox.cif.g08.bks.cpg/sg41_1_cif.got.tgz:980.got - 2010.06.03 18:54:24.
