data_PCOD9366394
_publ_section_title
;
Structure prediction by ZEFSAII (Michael W. Deem and Ramdas Pophale) SiO2 
 PCOD9366394
Probable space group: A B A 2
;
_chemical_formula_sum "Si O2"
_cell_formula_units_Z 64
_cell_length_a 7.896795
_cell_length_b 20.357445
_cell_length_c 17.071639
_cell_angle_alpha 90.000000
_cell_angle_beta 90.000000
_cell_angle_gamma 90.000000
_cell_volume 2744.412271
_symmetry_space_group_name_H-M "A B A 2"
_symmetry_group_IT_number 41
_symmetry_cell_setting 'orthorhombic'
loop_
_space_group_symop_operation_xyz
x,y,z
-x,-y,z
1/2-x,y,1/2+z
1/2+x,-y,1/2+z
x,1/2+y,1/2+z
-x,1/2-y,1/2+z
1/2-x,1/2+y,z
1/2+x,1/2-y,z
loop_
_atom_site_type_symbol
_atom_site_label
_atom_site_fract_x
_atom_site_fract_y
_atom_site_fract_z
Si Si1 0.802544 0.253600 0.024730
Si Si2 0.909349 0.895571 0.579825
Si Si3 0.525809 0.569213 0.419308
Si Si4 0.999405 0.673923 0.305631
Si Si5 0.222691 0.346276 0.154770
Si Si6 0.905897 0.613210 0.460184
Si Si7 0.835354 0.806598 0.357510
Si Si8 0.045402 0.572329 0.622364
O O1 0.889960 0.318537 0.057875
O O2 0.715362 0.220037 0.101194
O O3 0.893854 0.187486 0.994734
O O4 0.743308 0.283602 0.939856
O O5 0.913884 0.934389 0.498554
O O6 0.745054 0.913986 0.629591
O O7 0.096743 0.900102 0.615581
O O8 0.500000 0.500000 0.377377
O O9 0.716999 0.586132 0.445012
O O10 0.451262 0.630932 0.373470
O O11 0.866750 0.662021 0.237492
O O12 0.985198 0.620181 0.374579
O O13 0.949569 0.745848 0.335057
O O14 0.198552 0.678623 0.290578
O O15 0.413279 0.374429 0.157559
O O16 0.004663 0.575945 0.528406
O O17 0.000000 0.500000 0.651302
#
# Coordination Sequence:
#
# PCOD9366394 Si02
#       8
#     8   8   8   8   8   8   8   8
#     4   9  20  36  65  99 131 172 228 286 346 414
#     4  11  23  38  69 101 134 174 229 294 348 404
#     4  11  21  40  71  98 133 179 234 290 340 409
#     4  11  24  41  64  99 145 176 227 299 365 424
#     4  11  26  42  65 107 140 183 231 290 364 425
#     4  10  20  40  64  98 135 171 232 290 340 408
#     4  10  22  40  65 100 137 183 225 290 361 421
#     4  11  24  44  74  99 133 185 244 287 340 420
#
# _framework density 23.32011
#
# number of rings (size 3 to 8) (size 9 to 14) (size 15 to 20)
#    0.000    1.500    2.500    3.750    8.750    0.000 
#    2.250    0.625    5.500    0.000    0.000    0.000 
#    0.000    0.000    0.000    0.000    0.000    0.000 
#
# Total GULP energy -178471.390051 kJ/mol
# GULP energy per Si atom -5577.230939 kJ/mol
# Density = 2.326703 g / cm^3
# Si number density = 23.320110 Si / 1000 Ang^3
#
#
#
# Elastic Constant Matrix: (Units=GPa)
#
#
# Indices 1 2 3 4 5 6 
#
# 1 60.7329 -14.6639 -31.3008 0.0000 0.0000 0.0000
# 2 -14.6639 67.5946 -1.4710 0.0000 0.0000 0.0000
# 3 -31.3008 -1.4710 37.1258 0.0000 0.0000 0.0000
# 4 0.0000 0.0000 0.0000 -5.2148 0.0000 0.0000
# 5 0.0000 0.0000 0.0000 0.0000 23.6427 0.0000
# 6 0.0000 0.0000 0.0000 0.0000 0.0000 2.8986
#
#
#
# Elastic Compliance Matrix: (Units=1/GPa)
#
#
# Indices 1 2 3 4 5 6 
#
# 1 0.032682 0.007696 0.027859 0.000000 0.000000 0.000000
# 2 0.007696 0.016619 0.007147 0.000000 0.000000 0.000000
# 3 0.027859 0.007147 0.050707 0.000000 0.000000 0.000000
# 4 0.000000 0.000000 0.000000 -0.191762 0.000000 0.000000
# 5 0.000000 0.000000 0.000000 0.000000 0.042296 0.000000
# 6 0.000000 0.000000 0.000000 0.000000 0.000000 0.344998
#
#
# Mechanical properties :
#
#
# Convention : Reuss Voigt Hill
#
# Bulk Modulus (GPa) = 5.39337 7.84244 6.61790
# Shear Modulus (GPa) = 18.38645 18.45790 18.42217
#
# Velocity S-wave (km/s) = 2.81096 2.81642 2.81369
# Velocity P-wave (km/s) = 3.58512 3.73450 3.66057
#
# Compressibility (1/GPa) = 0.18541286
#
# Stress axis : x y z
#
# Youngs Moduli (GPa) = 30.59795 60.17126 19.72129
#
# Poissons Ratio (x) = -0.46309 -0.54942
# Poissons Ratio (y) = -0.23549 -0.14095
# Poissons Ratio (z) = -0.85243 -0.43006
#
# Static dielectric constant tensor:
#      x y z
#    x 1.921420 0.000000 0.000000 
#    y 0.000000 1.849510 0.000000 
#    z 0.000000 0.000000 1.960930 
# 
# From -- ./inp_files/9848.got.cif
#   From: 2010.05.17/outbox.cif.g08.bks.cpg/sg41_5_cif.got.tgz:9848.got - 2010.06.03 18:54:24.
