data_PCOD9366788
_publ_section_title
;
Structure prediction by ZEFSAII (Michael W. Deem and Ramdas Pophale) SiO2 
 PCOD9366788
Probable space group: A B A 2
;
_chemical_formula_sum "Si O2"
_cell_formula_units_Z 60
_cell_length_a 21.030196
_cell_length_b 23.833814
_cell_length_c 5.322227
_cell_angle_alpha 90.000000
_cell_angle_beta 90.000000
_cell_angle_gamma 90.000000
_cell_volume 2667.658668
_symmetry_space_group_name_H-M "A B A 2"
_symmetry_group_IT_number 41
_symmetry_cell_setting 'orthorhombic'
loop_
_space_group_symop_operation_xyz
x,y,z
-x,-y,z
1/2-x,y,1/2+z
1/2+x,-y,1/2+z
x,1/2+y,1/2+z
-x,1/2-y,1/2+z
1/2-x,1/2+y,z
1/2+x,1/2-y,z
loop_
_atom_site_type_symbol
_atom_site_label
_atom_site_fract_x
_atom_site_fract_y
_atom_site_fract_z
Si Si1 0.500000 0.000000 0.207991
Si Si2 0.478138 0.303003 0.418575
Si Si3 0.894644 0.347254 0.124598
Si Si4 0.876873 0.464363 0.962655
Si Si5 0.005343 0.329040 0.415285
Si Si6 0.376305 0.970593 0.450834
Si Si7 0.710655 0.127370 0.631223
Si Si8 0.211676 0.741598 0.115896
O O1 0.451321 0.965254 0.382086
O O2 0.452689 0.034206 0.028204
O O3 0.552552 0.321305 0.437134
O O4 0.456774 0.332776 0.168530
O O5 0.477457 0.235809 0.415678
O O6 0.450123 0.328709 0.671161
O O7 0.941713 0.364065 0.357010
O O8 0.858825 0.400337 0.011610
O O9 0.846104 0.298574 0.184351
O O10 0.867212 0.486649 0.683624
O O11 0.849472 0.503632 0.187803
O O12 0.344148 0.914389 0.544206
O O13 0.764388 0.117554 0.414801
O O14 0.693678 0.193049 0.624518
O O15 0.235966 0.731268 0.832685
#
# Coordination Sequence:
#
# PCOD9366788 Si02
#       8
#     4   8   8   8   8   8   8   8
#     4   8  22  40  62  92 126 168 206 254 324 378
#     4   8  16  29  49  73 112 145 187 226 276 344
#     4  10  22  36  61  83 129 160 192 245 314 373
#     4  10  22  37  63  93 125 166 202 252 318 387
#     4   8  16  30  47  76 108 149 185 227 274 345
#     4  10  21  41  63  93 123 166 217 262 319 374
#     4  10  21  43  69  92 118 161 218 277 312 363
#     4  10  24  42  62  89 123 162 209 257 317 369
#
# _framework density 22.491633
#
# number of rings (size 3 to 8) (size 9 to 14) (size 15 to 20)
#    1.600    1.067    0.000    1.200    3.733    0.000 
#    2.400    6.667    0.000    0.000    0.000    0.000 
#    0.000    0.000    0.000    0.000    0.000    0.000 
#
# Total GULP energy -167091.595117 kJ/mol
# GULP energy per Si atom -5569.719837 kJ/mol
# Density = 2.244044 g / cm^3
# Si number density = 22.491633 Si / 1000 Ang^3
#
#
#
# Elastic Constant Matrix: (Units=GPa)
#
#
# Indices 1 2 3 4 5 6 
#
# 1 29.6829 19.0240 -5.6669 0.0000 0.0000 0.0000
# 2 19.0240 52.2384 -7.9166 0.0000 0.0000 0.0000
# 3 -5.6669 -7.9166 117.6813 0.0000 0.0000 0.0000
# 4 0.0000 0.0000 0.0000 -45.9921 0.0000 0.0000
# 5 0.0000 0.0000 0.0000 0.0000 13.6498 0.0000
# 6 0.0000 0.0000 0.0000 0.0000 0.0000 26.0574
#
#
#
# Elastic Compliance Matrix: (Units=1/GPa)
#
#
# Indices 1 2 3 4 5 6 
#
# 1 0.044076 -0.015892 0.001053 0.000000 0.000000 0.000000
# 2 -0.015892 0.025070 0.000921 0.000000 0.000000 0.000000
# 3 0.001053 0.000921 0.008610 0.000000 0.000000 0.000000
# 4 0.000000 0.000000 0.000000 -0.021743 0.000000 0.000000
# 5 0.000000 0.000000 0.000000 0.000000 0.073261 0.000000
# 6 0.000000 0.000000 0.000000 0.000000 0.000000 0.038377
#
#
# Mechanical properties :
#
#
# Convention : Reuss Voigt Hill
#
# Bulk Modulus (GPa) = 20.03133 23.38707 21.70920
# Shear Modulus (GPa) = 23.57095 11.68716 17.62906
#
# Velocity S-wave (km/s) = 3.24078 2.28200 2.80269
# Velocity P-wave (km/s) = 4.78842 4.16702 4.48848
#
# Compressibility (1/GPa) = 0.04992181
#
# Stress axis : x y z
#
# Youngs Moduli (GPa) = 22.68824 39.88837 116.14102
#
# Poissons Ratio (x) = 0.63389 -0.12234
# Poissons Ratio (y) = 0.36055 -0.10699
# Poissons Ratio (z) = -0.02390 -0.03675
#
# Static dielectric constant tensor:
#      x y z
#    x 1.814510 0.000000 0.000000 
#    y 0.000000 1.965510 0.000000 
#    z 0.000000 0.000000 1.954520 
# 
# From -- ./inp_files/791.got.cif
#   From: 2010.05.17/outbox.cif.g08.bks.cpg/sg41_1_cif.got.tgz:791.got - 2010.06.03 18:54:24.
