data_PCOD9366064
_publ_section_title
;
Structure prediction by ZEFSAII (Michael W. Deem and Ramdas Pophale) SiO2 
 PCOD9366064
Probable space group: A B A 2
;
_chemical_formula_sum "Si O2"
_cell_formula_units_Z 60
_cell_length_a 29.767007
_cell_length_b 14.915417
_cell_length_c 5.316579
_cell_angle_alpha 90.000000
_cell_angle_beta 90.000000
_cell_angle_gamma 90.000000
_cell_volume 2360.493674
_symmetry_space_group_name_H-M "A B A 2"
_symmetry_group_IT_number 41
_symmetry_cell_setting 'orthorhombic'
loop_
_space_group_symop_operation_xyz
x,y,z
-x,-y,z
1/2-x,y,1/2+z
1/2+x,-y,1/2+z
x,1/2+y,1/2+z
-x,1/2-y,1/2+z
1/2-x,1/2+y,z
1/2+x,1/2-y,z
loop_
_atom_site_type_symbol
_atom_site_label
_atom_site_fract_x
_atom_site_fract_y
_atom_site_fract_z
Si Si1 0.430328 0.379421 0.944380
Si Si2 0.076249 0.581907 0.143760
Si Si3 0.500000 0.000000 0.513585
Si Si4 0.262089 0.486023 0.547399
Si Si5 0.627947 0.248354 0.745359
Si Si6 0.635406 0.072124 0.080121
Si Si7 0.725659 0.714617 0.036744
Si Si8 0.502019 0.193238 0.061577
O O1 0.468437 0.422499 0.124160
O O2 0.384144 0.428636 0.865246
O O3 0.455688 0.360134 0.679144
O O4 0.410049 0.291265 0.062499
O O5 0.110674 0.650199 0.281716
O O6 0.104122 0.509313 0.982366
O O7 0.039870 0.633034 0.973018
O O8 0.040325 0.541309 0.343413
O O9 0.251067 0.537631 0.295766
O O10 0.313404 0.455914 0.555671
O O11 0.231284 0.394976 0.539797
O O12 0.676075 0.245118 0.609455
O O13 0.631312 0.172086 0.963455
O O14 0.758964 0.743073 0.260783
O O15 0.488079 0.241586 0.329050
#
# Coordination Sequence:
#
# PCOD9366064 Si02
#       8
#     8   8   4   8   8   8   8   8
#     4  10  21  38  65  94 130 181 228 290 352 428
#     4  10  23  45  65 108 136 187 246 305 361 448
#     4   8  20  44  62  88 144 170 240 288 366 422
#     4  10  19  38  66  95 135 188 229 283 371 435
#     4  12  22  40  71 100 136 187 244 296 368 443
#     4  11  23  41  67  98 143 181 241 303 361 435
#     4  10  20  38  67  99 137 183 234 293 364 441
#     4  11  22  44  67  97 140 186 233 289 366 433
#
# _framework density 25.418412
#
# number of rings (size 3 to 8) (size 9 to 14) (size 15 to 20)
#    0.000    1.600    4.000    2.400    0.000    0.000 
#    7.200    2.000    0.000    0.000    0.000    0.000 
#    0.000    0.000    0.000    0.000    0.000    0.000 
#
# Total GULP energy -167325.612789 kJ/mol
# GULP energy per Si atom -5577.520426 kJ/mol
# Density = 2.536056 g / cm^3
# Si number density = 25.418412 Si / 1000 Ang^3
#
#
#
# Elastic Constant Matrix: (Units=GPa)
#
#
# Indices 1 2 3 4 5 6 
#
# 1 139.5231 34.3039 25.8641 0.0000 0.0000 0.0000
# 2 34.3039 80.0435 9.8835 0.0000 0.0000 0.0000
# 3 25.8641 9.8835 103.9462 0.0000 0.0000 0.0000
# 4 0.0000 0.0000 0.0000 13.1732 0.0000 0.0000
# 5 0.0000 0.0000 0.0000 0.0000 40.5165 0.0000
# 6 0.0000 0.0000 0.0000 0.0000 0.0000 23.8072
#
#
#
# Elastic Compliance Matrix: (Units=1/GPa)
#
#
# Indices 1 2 3 4 5 6 
#
# 1 0.008315 -0.003347 -0.001751 0.000000 0.000000 0.000000
# 2 -0.003347 0.013989 -0.000497 0.000000 0.000000 0.000000
# 3 -0.001751 -0.000497 0.010103 0.000000 0.000000 0.000000
# 4 0.000000 0.000000 0.000000 0.075912 0.000000 0.000000
# 5 0.000000 0.000000 0.000000 0.000000 0.024681 0.000000
# 6 0.000000 0.000000 0.000000 0.000000 0.000000 0.042004
#
#
# Mechanical properties :
#
#
# Convention : Reuss Voigt Hill
#
# Bulk Modulus (GPa) = 47.13236 51.51286 49.32261
# Shear Modulus (GPa) = 25.87095 32.39680 29.13388
#
# Velocity S-wave (km/s) = 3.19376 3.57394 3.38919
# Velocity P-wave (km/s) = 5.67301 6.11071 5.89592
#
# Compressibility (1/GPa) = 0.02121685
#
# Stress axis : x y z
#
# Youngs Moduli (GPa) = 120.26783 71.48408 98.97818
#
# Poissons Ratio (x) = 0.23928 0.17327
# Poissons Ratio (y) = 0.40257 0.04922
# Poissons Ratio (z) = 0.21054 0.03555
#
# Static dielectric constant tensor:
#      x y z
#    x 1.975800 0.000000 0.000000 
#    y 0.000000 2.404120 0.000000 
#    z 0.000000 0.000000 2.098540 
# 
# From -- ./inp_files/1386.got.cif
#   From: 2010.05.17/outbox.cif.g08.bks.cpg/sg41_1_cif.got.tgz:1386.got - 2010.06.03 18:54:24.
