data_PCOD9366258
_publ_section_title
;
Structure prediction by ZEFSAII (Michael W. Deem and Ramdas Pophale) SiO2 
 PCOD9366258
Probable space group: A B A 2
;
_chemical_formula_sum "Si O2"
_cell_formula_units_Z 60
_cell_length_a 23.087093
_cell_length_b 5.252494
_cell_length_c 23.914344
_cell_angle_alpha 90.000000
_cell_angle_beta 90.000000
_cell_angle_gamma 90.000000
_cell_volume 2899.968560
_symmetry_space_group_name_H-M "A B A 2"
_symmetry_group_IT_number 41
_symmetry_cell_setting 'orthorhombic'
loop_
_space_group_symop_operation_xyz
x,y,z
-x,-y,z
1/2-x,y,1/2+z
1/2+x,-y,1/2+z
x,1/2+y,1/2+z
-x,1/2-y,1/2+z
1/2-x,1/2+y,z
1/2+x,1/2-y,z
loop_
_atom_site_type_symbol
_atom_site_label
_atom_site_fract_x
_atom_site_fract_y
_atom_site_fract_z
Si Si1 0.604445 0.137475 0.636290
Si Si2 0.223564 0.199634 0.506086
Si Si3 0.459155 0.753194 0.750775
Si Si4 0.500000 0.500000 0.952339
Si Si5 0.403772 0.119231 0.976875
Si Si6 0.437965 0.857320 0.872047
Si Si7 0.270151 0.618002 0.133550
Si Si8 0.062365 0.368864 0.080407
O O1 0.581541 0.211190 0.697409
O O2 0.603705 0.410540 0.605765
O O3 0.666974 0.006506 0.634544
O O4 0.566654 0.909160 0.607784
O O5 0.259780 0.429082 0.480423
O O6 0.155494 0.243985 0.498096
O O7 0.246042 0.170982 0.570469
O O8 0.500000 0.500000 0.748960
O O9 0.424289 0.771414 0.809415
O O10 0.500000 0.000000 0.748844
O O11 0.461314 0.293086 0.984713
O O12 0.452741 0.618284 0.910486
O O13 0.399569 0.035923 0.912067
O O14 0.417350 0.873488 0.015903
O O15 0.500000 0.000000 0.868168
O O16 0.230782 0.397251 0.160270
O O17 0.000000 0.500000 0.088981
#
# Coordination Sequence:
#
# PCOD9366258 Si02
#       8
#     8   8   8   4   8   8   8   8
#     4  12  24  39  62  88 124 167 212 265 324 389
#     4  10  21  38  58  85 118 167 217 267 317 387
#     4  11  22  41  65  92 129 168 216 263 325 398
#     4  10  20  38  60  96 126 174 212 274 344 404
#     4  11  24  37  63  91 132 171 221 270 339 409
#     4   9  20  38  60  92 125 168 213 266 324 397
#     4  10  20  38  58  82 111 156 214 262 310 371
#     4  12  24  37  54  91 132 165 196 253 329 404
#
# _framework density 20.689881
#
# number of rings (size 3 to 8) (size 9 to 14) (size 15 to 20)
#    0.000    1.333    0.667    7.600    5.600    0.000 
#    0.000    0.000    0.000    1.600    0.000    0.000 
#    0.000    0.000    0.000    0.000    0.000    0.000 
#
# Total GULP energy -167286.039557 kJ/mol
# GULP energy per Si atom -5576.201319 kJ/mol
# Density = 2.064279 g / cm^3
# Si number density = 20.689881 Si / 1000 Ang^3
#
#
#
# Elastic Constant Matrix: (Units=GPa)
#
#
# Indices 1 2 3 4 5 6 
#
# 1 78.6167 8.4736 25.1251 0.0000 0.0000 0.0000
# 2 8.4736 132.2565 30.0873 0.0000 0.0000 0.0000
# 3 25.1251 30.0873 130.0049 0.0000 0.0000 0.0000
# 4 0.0000 0.0000 0.0000 28.6967 0.0000 0.0000
# 5 0.0000 0.0000 0.0000 0.0000 18.6050 0.0000
# 6 0.0000 0.0000 0.0000 0.0000 0.0000 31.0642
#
#
#
# Elastic Compliance Matrix: (Units=1/GPa)
#
#
# Indices 1 2 3 4 5 6 
#
# 1 0.013568 -0.000288 -0.002555 0.000000 0.000000 0.000000
# 2 -0.000288 0.007987 -0.001793 0.000000 0.000000 0.000000
# 3 -0.002555 -0.001793 0.008601 0.000000 0.000000 0.000000
# 4 0.000000 0.000000 0.000000 0.034847 0.000000 0.000000
# 5 0.000000 0.000000 0.000000 0.000000 0.053749 0.000000
# 6 0.000000 0.000000 0.000000 0.000000 0.000000 0.032191
#
#
# Mechanical properties :
#
#
# Convention : Reuss Voigt Hill
#
# Bulk Modulus (GPa) = 47.88516 52.02777 49.95646
# Shear Modulus (GPa) = 29.90839 34.15266 32.03052
#
# Velocity S-wave (km/s) = 3.80617 4.06728 3.93889
# Velocity P-wave (km/s) = 6.52000 6.87445 6.69957
#
# Compressibility (1/GPa) = 0.02088330
#
# Stress axis : x y z
#
# Youngs Moduli (GPa) = 73.70451 125.19747 116.26784
#
# Poissons Ratio (x) = 0.03605 0.29712
# Poissons Ratio (y) = 0.02122 0.20846
# Poissons Ratio (z) = 0.18835 0.22447
#
# Static dielectric constant tensor:
#      x y z
#    x 1.480080 0.000000 0.000000 
#    y 0.000000 1.463190 0.000000 
#    z 0.000000 0.000000 1.818340 
# 
# From -- ./inp_files/12326.got.cif
#   From: 2010.05.17/outbox.cif.g08.bks.cpg/sg41_7_cif.got.tgz:12326.got - 2010.06.03 18:54:24.
