data_PCOD9366783
_publ_section_title
;
Structure prediction by ZEFSAII (Michael W. Deem and Ramdas Pophale) SiO2 
 PCOD9366783
Probable space group: A B A 2
;
_chemical_formula_sum "Si O2"
_cell_formula_units_Z 64
_cell_length_a 11.754539
_cell_length_b 19.979570
_cell_length_c 12.879951
_cell_angle_alpha 90.000000
_cell_angle_beta 90.000000
_cell_angle_gamma 90.000000
_cell_volume 3024.864668
_symmetry_space_group_name_H-M "A B A 2"
_symmetry_group_IT_number 41
_symmetry_cell_setting 'orthorhombic'
loop_
_space_group_symop_operation_xyz
x,y,z
-x,-y,z
1/2-x,y,1/2+z
1/2+x,-y,1/2+z
x,1/2+y,1/2+z
-x,1/2-y,1/2+z
1/2-x,1/2+y,z
1/2+x,1/2-y,z
loop_
_atom_site_type_symbol
_atom_site_label
_atom_site_fract_x
_atom_site_fract_y
_atom_site_fract_z
Si Si1 0.959369 0.312363 0.665640
Si Si2 0.388258 0.696452 0.930297
Si Si3 0.168648 0.327548 0.800432
Si Si4 0.328828 0.051951 0.420353
Si Si5 0.574796 0.173732 0.266164
Si Si6 0.923141 0.940511 0.692587
Si Si7 0.839788 0.950734 0.149708
Si Si8 0.117278 0.969035 0.352143
O O1 0.924198 0.294213 0.548763
O O2 0.915294 0.250486 0.732417
O O3 0.900431 0.383228 0.690024
O O4 0.092263 0.317016 0.697213
O O5 0.339294 0.760538 0.869932
O O6 0.305450 0.632110 0.922251
O O7 0.504263 0.674524 0.872521
O O8 0.296775 0.350378 0.776509
O O9 0.115423 0.389746 0.861801
O O10 0.399416 0.042614 0.314745
O O11 0.381719 0.037282 0.532689
O O12 0.220320 0.004974 0.409531
O O13 0.496329 0.127839 0.191723
O O14 0.796347 0.937227 0.646424
O O15 0.000000 0.000000 0.648646
O O16 0.865014 0.009711 0.230628
O O17 0.000000 0.000000 0.387506
#
# Coordination Sequence:
#
# PCOD9366783 Si02
#       8
#     8   8   8   8   8   8   8   8
#     4  10  22  41  64  92 124 167 211 259 317 377
#     4   9  22  43  63  92 121 172 213 258 315 382
#     4  11  23  41  63  97 130 158 215 270 318 374
#     4   9  21  40  66  86 121 169 214 252 316 380
#     4  10  22  38  64  91 123 163 206 264 314 366
#     4  10  21  41  63  89 126 164 209 258 319 378
#     4  10  21  41  65  89 123 171 212 250 319 388
#     4  11  22  40  61  94 130 166 199 265 323 374
#
# _framework density 21.157972999999998
#
# number of rings (size 3 to 8) (size 9 to 14) (size 15 to 20)
#    0.000    2.000    1.250    1.500    7.000    2.000 
#   13.500    0.000    0.000    0.000    0.000    0.000 
#    0.000    0.000    0.000    0.000    0.000    0.000 
#
# Total GULP energy -178587.214320 kJ/mol
# GULP energy per Si atom -5580.850447 kJ/mol
# Density = 2.110982 g / cm^3
# Si number density = 21.157973 Si / 1000 Ang^3
#
#
#
# Elastic Constant Matrix: (Units=GPa)
#
#
# Indices 1 2 3 4 5 6 
#
# 1 80.2641 15.6879 -7.5261 0.0000 0.0000 0.0000
# 2 15.6879 51.0526 2.5998 0.0000 0.0000 0.0000
# 3 -7.5261 2.5998 49.9817 0.0000 0.0000 0.0000
# 4 0.0000 0.0000 0.0000 12.2453 0.0000 0.0000
# 5 0.0000 0.0000 0.0000 0.0000 -0.3988 0.0000
# 6 0.0000 0.0000 0.0000 0.0000 0.0000 30.5433
#
#
#
# Elastic Compliance Matrix: (Units=1/GPa)
#
#
# Indices 1 2 3 4 5 6 
#
# 1 0.013504 -0.004264 0.002255 0.000000 0.000000 0.000000
# 2 -0.004264 0.020986 -0.001734 0.000000 0.000000 0.000000
# 3 0.002255 -0.001734 0.020437 0.000000 0.000000 0.000000
# 4 0.000000 0.000000 0.000000 0.081664 0.000000 0.000000
# 5 0.000000 0.000000 0.000000 0.000000 -2.507625 0.000000
# 6 0.000000 0.000000 0.000000 0.000000 0.000000 0.032740
#
#
# Mechanical properties :
#
#
# Convention : Reuss Voigt Hill
#
# Bulk Modulus (GPa) = 21.07869 22.53574 21.80722
# Shear Modulus (GPa) = -2.15983 19.84710 8.84363
#
# Velocity S-wave (km/s) = -1.01145 3.06607 2.04668
# Velocity P-wave (km/s) = 2.93600 4.81754 3.98929
#
# Compressibility (1/GPa) = 0.04744128
#
# Stress axis : x y z
#
# Youngs Moduli (GPa) = 74.05310 47.65009 48.93066
#
# Poissons Ratio (x) = 0.20320 -0.11035
# Poissons Ratio (y) = 0.31579 0.08483
# Poissons Ratio (z) = -0.16700 0.08261
#
# Static dielectric constant tensor:
#      x y z
#    x 1.771970 0.000000 0.000000 
#    y 0.000000 1.772150 0.000000 
#    z 0.000000 0.000000 1.756870 
# 
# From -- ./inp_files/8087.got.cif
#   From: 2010.05.17/outbox.cif.g08.bks.cpg/sg41_5_cif.got.tgz:8087.got - 2010.06.03 18:54:24.
