data_PCOD9366139
_publ_section_title
;
Structure prediction by ZEFSAII (Michael W. Deem and Ramdas Pophale) SiO2 
 PCOD9366139
Probable space group: A B A 2
;
_chemical_formula_sum "Si O2"
_cell_formula_units_Z 60
_cell_length_a 32.998211
_cell_length_b 8.108666
_cell_length_c 11.829203
_cell_angle_alpha 90.000000
_cell_angle_beta 90.000000
_cell_angle_gamma 90.000000
_cell_volume 3165.157255
_symmetry_space_group_name_H-M "A B A 2"
_symmetry_group_IT_number 41
_symmetry_cell_setting 'orthorhombic'
loop_
_space_group_symop_operation_xyz
x,y,z
-x,-y,z
1/2-x,y,1/2+z
1/2+x,-y,1/2+z
x,1/2+y,1/2+z
-x,1/2-y,1/2+z
1/2-x,1/2+y,z
1/2+x,1/2-y,z
loop_
_atom_site_type_symbol
_atom_site_label
_atom_site_fract_x
_atom_site_fract_y
_atom_site_fract_z
Si Si1 0.934912 0.255658 0.141930
Si Si2 0.732903 0.507659 0.240026
Si Si3 0.870580 0.002234 0.739589
Si Si4 0.799688 0.818830 0.863340
Si Si5 0.525423 0.738635 0.363078
Si Si6 0.302061 0.803369 0.117711
Si Si7 0.440062 0.895446 0.395271
Si Si8 0.500000 0.500000 0.548939
O O1 0.895181 0.358459 0.175166
O O2 0.952276 0.164386 0.253221
O O3 0.931148 0.157352 0.024698
O O4 0.970479 0.389219 0.121972
O O5 0.707214 0.662714 0.281259
O O6 0.761111 0.437303 0.340921
O O7 0.706418 0.358370 0.193266
O O8 0.765090 0.572164 0.146777
O O9 0.843390 0.108917 0.654885
O O10 0.902180 0.111643 0.811055
O O11 0.839460 0.917227 0.826553
O O12 0.801975 0.752757 0.989261
O O13 0.477779 0.785108 0.351557
O O14 0.526859 0.614649 0.467543
O O15 0.546353 0.913026 0.392230
#
# Coordination Sequence:
#
# PCOD9366139 Si02
#       8
#     8   8   8   8   8   8   8   4
#     4  10  20  37  55  75 110 143 172 222 266 305
#     4   9  20  37  58  82 101 134 185 219 256 317
#     4  10  22  35  50  81 113 140 175 210 263 327
#     4  10  20  36  56  79 107 137 176 219 260 314
#     4   9  19  36  57  80 100 135 188 221 256 313
#     4  10  20  36  58  79 108 142 172 221 269 305
#     4   9  19  37  55  75 110 143 172 219 266 310
#     4  10  20  34  58  80  98 136 184 222 260 306
#
# _framework density 18.956405
#
# number of rings (size 3 to 8) (size 9 to 14) (size 15 to 20)
#    0.000    2.400    0.000    2.400    0.000    6.400 
#    0.000    9.333    0.000    0.000    0.000    0.000 
#    0.000    0.000    0.000    0.000    0.000    0.000 
#
# Total GULP energy -167413.879559 kJ/mol
# GULP energy per Si atom -5580.462652 kJ/mol
# Density = 1.891326 g / cm^3
# Si number density = 18.956405 Si / 1000 Ang^3
#
#
#
# Elastic Constant Matrix: (Units=GPa)
#
#
# Indices 1 2 3 4 5 6 
#
# 1 51.1451 -0.3731 24.1961 0.0000 0.0000 0.0000
# 2 -0.3731 28.8825 1.1203 0.0000 0.0000 0.0000
# 3 24.1961 1.1203 89.6597 0.0000 0.0000 0.0000
# 4 0.0000 0.0000 0.0000 25.9017 0.0000 0.0000
# 5 0.0000 0.0000 0.0000 0.0000 19.6046 0.0000
# 6 0.0000 0.0000 0.0000 0.0000 0.0000 14.0765
#
#
#
# Elastic Compliance Matrix: (Units=1/GPa)
#
#
# Indices 1 2 3 4 5 6 
#
# 1 0.022422 0.000525 -0.006057 0.000000 0.000000 0.000000
# 2 0.000525 0.034652 -0.000575 0.000000 0.000000 0.000000
# 3 -0.006057 -0.000575 0.012795 0.000000 0.000000 0.000000
# 4 0.000000 0.000000 0.000000 0.038608 0.000000 0.000000
# 5 0.000000 0.000000 0.000000 0.000000 0.051008 0.000000
# 6 0.000000 0.000000 0.000000 0.000000 0.000000 0.071040
#
#
# Mechanical properties :
#
#
# Convention : Reuss Voigt Hill
#
# Bulk Modulus (GPa) = 17.34476 24.39710 20.87093
# Shear Modulus (GPa) = 19.08703 21.56616 20.32660
#
# Velocity S-wave (km/s) = 3.17660 3.37660 3.27812
# Velocity P-wave (km/s) = 4.75647 5.30094 5.03607
#
# Compressibility (1/GPa) = 0.05765430
#
# Stress axis : x y z
#
# Youngs Moduli (GPa) = 44.59964 28.85824 78.15461
#
# Poissons Ratio (x) = -0.01514 0.47341
# Poissons Ratio (y) = -0.02340 0.04490
# Poissons Ratio (z) = 0.27016 0.01658
#
# Static dielectric constant tensor:
#      x y z
#    x 1.651290 0.000000 0.000000 
#    y 0.000000 1.659340 0.000000 
#    z 0.000000 0.000000 1.650480 
# 
# From -- ./inp_files/6637.got.cif
#   From: 2010.05.17/outbox.cif.g08.bks.cpg/sg41_4_cif.got.tgz:6637.got - 2010.06.03 18:54:24.
