data_PCOD9366421
_publ_section_title
;
Structure prediction by ZEFSAII (Michael W. Deem and Ramdas Pophale) SiO2 
 PCOD9366421
Probable space group: A B A 2
;
_chemical_formula_sum "Si O2"
_cell_formula_units_Z 60
_cell_length_a 15.154281
_cell_length_b 16.206528
_cell_length_c 9.592765
_cell_angle_alpha 90.000000
_cell_angle_beta 90.000000
_cell_angle_gamma 90.000000
_cell_volume 2355.966578
_symmetry_space_group_name_H-M "A B A 2"
_symmetry_group_IT_number 41
_symmetry_cell_setting 'orthorhombic'
loop_
_space_group_symop_operation_xyz
x,y,z
-x,-y,z
1/2-x,y,1/2+z
1/2+x,-y,1/2+z
x,1/2+y,1/2+z
-x,1/2-y,1/2+z
1/2-x,1/2+y,z
1/2+x,1/2-y,z
loop_
_atom_site_type_symbol
_atom_site_label
_atom_site_fract_x
_atom_site_fract_y
_atom_site_fract_z
Si Si1 0.924409 0.411631 0.748560
Si Si2 0.746925 0.743457 0.091927
Si Si3 0.318563 0.665644 0.825617
Si Si4 0.075542 0.861606 0.049709
Si Si5 0.861671 0.608922 0.048805
Si Si6 0.500000 0.500000 0.509075
Si Si7 0.813398 0.496910 0.503317
Si Si8 0.480437 0.269616 0.368398
O O1 0.852751 0.455262 0.647215
O O2 0.014988 0.410388 0.658802
O O3 0.933384 0.457089 0.897619
O O4 0.936008 0.314800 0.796027
O O5 0.732694 0.823329 0.183217
O O6 0.661759 0.685651 0.104395
O O7 0.824526 0.683023 0.139666
O O8 0.771581 0.773617 0.937879
O O9 0.416142 0.702169 0.797441
O O10 0.312651 0.576266 0.892051
O O11 0.116687 0.933255 0.955942
O O12 0.017740 0.787677 0.990132
O O13 0.779133 0.547407 0.018109
O O14 0.914036 0.657290 0.922386
O O15 0.941863 0.557030 0.105696
#
# Coordination Sequence:
#
# PCOD9366421 Si02
#       8
#     8   8   8   8   8   4   8   8
#     4  11  20  38  75 110 145 202 257 321 399 476
#     4  10  24  44  69 105 154 202 255 315 399 472
#     4  11  23  43  67 105 147 201 257 320 387 474
#     4  11  21  43  72 108 147 200 258 325 385 481
#     4   9  23  42  66 109 154 196 255 326 387 471
#     4  10  20  40  74 110 150 208 264 328 410 468
#     4  11  23  40  72 114 151 190 265 327 394 460
#     4  10  22  41  70 104 152 199 255 308 398 472
#
# _framework density 25.467254000000001
#
# number of rings (size 3 to 8) (size 9 to 14) (size 15 to 20)
#    0.000    1.600    4.000    0.000    0.000    4.267 
#    0.000    1.333    0.000    0.000    0.000    0.000 
#    0.000    0.000    0.000    0.000    0.000    0.000 
#
# Total GULP energy -167202.400594 kJ/mol
# GULP energy per Si atom -5573.413353 kJ/mol
# Density = 2.540929 g / cm^3
# Si number density = 25.467254 Si / 1000 Ang^3
#
#
#
# Elastic Constant Matrix: (Units=GPa)
#
#
# Indices 1 2 3 4 5 6 
#
# 1 100.8636 62.1680 28.4401 0.0000 0.0000 0.0000
# 2 62.1680 120.4044 6.8701 0.0000 0.0000 0.0000
# 3 28.4401 6.8701 35.9067 0.0000 0.0000 0.0000
# 4 0.0000 0.0000 0.0000 20.1973 0.0000 0.0000
# 5 0.0000 0.0000 0.0000 0.0000 22.6261 0.0000
# 6 0.0000 0.0000 0.0000 0.0000 0.0000 53.1908
#
#
#
# Elastic Compliance Matrix: (Units=1/GPa)
#
#
# Indices 1 2 3 4 5 6 
#
# 1 0.019487 -0.009282 -0.013659 0.000000 0.000000 0.000000
# 2 -0.009282 0.012818 0.004899 0.000000 0.000000 0.000000
# 3 -0.013659 0.004899 0.037731 0.000000 0.000000 0.000000
# 4 0.000000 0.000000 0.000000 0.049512 0.000000 0.000000
# 5 0.000000 0.000000 0.000000 0.000000 0.044197 0.000000
# 6 0.000000 0.000000 0.000000 0.000000 0.000000 0.018800
#
#
# Mechanical properties :
#
#
# Convention : Reuss Voigt Hill
#
# Bulk Modulus (GPa) = 29.45219 50.23681 39.84450
# Shear Modulus (GPa) = 21.74429 29.84927 25.79678
#
# Velocity S-wave (km/s) = 2.92518 3.42726 3.18612
# Velocity P-wave (km/s) = 4.79570 5.95234 5.40505
#
# Compressibility (1/GPa) = 0.03395333
#
# Stress axis : x y z
#
# Youngs Moduli (GPa) = 51.31678 78.01259 26.50347
#
# Poissons Ratio (x) = 0.72413 0.36200
# Poissons Ratio (y) = 0.47633 -0.12985
# Poissons Ratio (z) = 0.70092 -0.38222
#
# Static dielectric constant tensor:
#      x y z
#    x 2.067090 0.000000 0.000000 
#    y 0.000000 2.040540 0.000000 
#    z 0.000000 0.000000 2.014630 
# 
# From -- ./inp_files/5693.got.cif
#   From: 2010.05.17/outbox.cif.g08.bks.cpg/sg41_3_cif.got.tgz:5693.got - 2010.06.03 18:54:24.
