data_PCOD9366365
_publ_section_title
;
Structure prediction by ZEFSAII (Michael W. Deem and Ramdas Pophale) SiO2 
 PCOD9366365
Probable space group: A B A 2
;
_chemical_formula_sum "Si O2"
_cell_formula_units_Z 40
_cell_length_a 18.634439
_cell_length_b 11.526431
_cell_length_c 8.287568
_cell_angle_alpha 90.000000
_cell_angle_beta 90.000000
_cell_angle_gamma 90.000000
_cell_volume 1780.074924
_symmetry_space_group_name_H-M "A B A 2"
_symmetry_group_IT_number 41
_symmetry_cell_setting 'orthorhombic'
loop_
_space_group_symop_operation_xyz
x,y,z
-x,-y,z
1/2-x,y,1/2+z
1/2+x,-y,1/2+z
x,1/2+y,1/2+z
-x,1/2-y,1/2+z
1/2-x,1/2+y,z
1/2+x,1/2-y,z
loop_
_atom_site_type_symbol
_atom_site_label
_atom_site_fract_x
_atom_site_fract_y
_atom_site_fract_z
Si Si1 0.845898 0.144249 0.775220
Si Si2 0.019091 0.260164 0.415692
Si Si3 0.792101 0.715226 0.949410
Si Si4 0.887654 0.929524 0.985247
Si Si5 0.915719 0.632348 0.724920
O O1 0.920839 0.213702 0.780442
O O2 0.810524 0.134733 0.601147
O O3 0.789009 0.207893 0.891898
O O4 0.864054 0.020642 0.850272
O O5 0.060060 0.276735 0.585025
O O6 0.957510 0.358834 0.428308
O O7 0.975517 0.146254 0.364607
O O8 0.822582 0.839585 0.005629
O O9 0.841275 0.672735 0.801673
O O10 0.906957 0.008275 0.139961
#
# Coordination Sequence:
#
# PCOD9366365 Si02
#       5
#     8   8   8   8   8
#     4  11  22  41  66  94 131 170 219 270 324 389
#     4  10  20  39  67  96 128 169 215 271 327 388
#     4  11  25  42  64  95 134 178 219 271 327 393
#     4  10  23  44  66  94 132 173 216 272 334 392
#     4  10  20  40  65  93 131 170 215 266 324 390
#
# _framework density 22.470963999999999
#
# number of rings (size 3 to 8) (size 9 to 14) (size 15 to 20)
#    0.000    1.600    0.000    7.200    0.000    3.200 
#    0.000   20.000    0.000    0.000    0.000    0.000 
#    0.000    0.000    0.000    0.000    0.000    0.000 
#
# Total GULP energy -111812.624214 kJ/mol
# GULP energy per Si atom -5590.631211 kJ/mol
# Density = 2.241982 g / cm^3
# Si number density = 22.470964 Si / 1000 Ang^3
#
#
#
# Elastic Constant Matrix: (Units=GPa)
#
#
# Indices 1 2 3 4 5 6 
#
# 1 126.5156 46.6493 41.2662 0.0000 0.0000 0.0000
# 2 46.6493 105.7205 41.4745 0.0000 0.0000 0.0000
# 3 41.2662 41.4745 91.2025 0.0000 0.0000 0.0000
# 4 0.0000 0.0000 0.0000 31.2795 0.0000 0.0000
# 5 0.0000 0.0000 0.0000 0.0000 46.0892 0.0000
# 6 0.0000 0.0000 0.0000 0.0000 0.0000 -2.7140
#
#
#
# Elastic Compliance Matrix: (Units=1/GPa)
#
#
# Indices 1 2 3 4 5 6 
#
# 1 0.010112 -0.003246 -0.003099 0.000000 0.000000 0.000000
# 2 -0.003246 0.012555 -0.004241 0.000000 0.000000 0.000000
# 3 -0.003099 -0.004241 0.014295 0.000000 0.000000 0.000000
# 4 0.000000 0.000000 0.000000 0.031970 0.000000 0.000000
# 5 0.000000 0.000000 0.000000 0.000000 0.021697 0.000000
# 6 0.000000 0.000000 0.000000 0.000000 0.000000 -0.368459
#
#
# Mechanical properties :
#
#
# Convention : Reuss Voigt Hill
#
# Bulk Modulus (GPa) = 63.32961 64.69095 64.01028
# Shear Modulus (GPa) = -19.88903 27.86750 3.98924
#
# Velocity S-wave (km/s) = -2.97829 3.52541 1.33384
# Velocity P-wave (km/s) = 4.05180 6.73962 5.56056
#
# Compressibility (1/GPa) = 0.01579040
#
# Stress axis : x y z
#
# Youngs Moduli (GPa) = 98.89287 79.65055 69.95306
#
# Poissons Ratio (x) = 0.25855 0.21680
# Poissons Ratio (y) = 0.32102 0.29664
# Poissons Ratio (z) = 0.30649 0.33776
#
# Static dielectric constant tensor:
#      x y z
#    x 1.822410 0.000000 0.000000 
#    y 0.000000 1.825480 0.000000 
#    z 0.000000 0.000000 1.887570 
# 
# From -- ./inp_files/3326.got.cif
#   From: 2010.05.17/outbox.cif.g08.bks.cpg/sg41_2_cif.got.tgz:3326.got - 2010.06.03 18:54:24.
