data_PCOD9366067
_publ_section_title
;
Structure prediction by ZEFSAII (Michael W. Deem and Ramdas Pophale) SiO2 
 PCOD9366067
Probable space group: A B A 2
;
_chemical_formula_sum "Si O2"
_cell_formula_units_Z 60
_cell_length_a 28.956563
_cell_length_b 15.197324
_cell_length_c 5.129151
_cell_angle_alpha 90.000000
_cell_angle_beta 90.000000
_cell_angle_gamma 90.000000
_cell_volume 2257.145831
_symmetry_space_group_name_H-M "A B A 2"
_symmetry_group_IT_number 41
_symmetry_cell_setting 'orthorhombic'
loop_
_space_group_symop_operation_xyz
x,y,z
-x,-y,z
1/2-x,y,1/2+z
1/2+x,-y,1/2+z
x,1/2+y,1/2+z
-x,1/2-y,1/2+z
1/2-x,1/2+y,z
1/2+x,1/2-y,z
loop_
_atom_site_type_symbol
_atom_site_label
_atom_site_fract_x
_atom_site_fract_y
_atom_site_fract_z
Si Si1 0.000000 0.000000 0.457211
Si Si2 0.263264 0.126842 0.815621
Si Si3 0.310754 0.285289 0.307856
Si Si4 0.074463 0.592807 0.581697
Si Si5 0.366279 0.431049 0.112863
Si Si6 0.353713 0.213799 0.804664
Si Si7 0.970258 0.763673 0.809220
Si Si8 0.581572 0.112474 0.114103
O O1 0.034397 0.942914 0.635106
O O2 0.966180 0.947973 0.257352
O O3 0.238664 0.078301 0.585020
O O4 0.235558 0.223304 0.830364
O O5 0.315356 0.139427 0.740006
O O6 0.316815 0.381972 0.169755
O O7 0.335272 0.284293 0.589063
O O8 0.342433 0.231979 0.104288
O O9 0.115104 0.524634 0.506274
O O10 0.098065 0.670589 0.747669
O O11 0.053204 0.641351 0.331580
O O12 0.385657 0.436682 0.407746
O O13 0.394805 0.372110 0.895867
O O14 0.935139 0.693534 0.933612
O O15 0.011423 0.761843 0.025604
#
# Coordination Sequence:
#
# PCOD9366067 Si02
#       8
#     4   8   8   8   8   8   8   8
#     4  10  24  44  58  86 122 178 202 268 316 366
#     4   8  16  32  61  91 118 152 192 243 305 373
#     4  10  19  39  64  93 123 155 200 248 317 375
#     4  11  25  42  61  88 125 162 215 258 313 360
#     4  11  24  38  62  88 120 161 198 257 308 372
#     4  10  21  38  65  92 121 159 209 258 301 375
#     4  12  25  40  60  84 110 158 211 257 293 354
#     4  11  24  42  60  83 119 159 217 250 312 359
#
# _framework density 26.582243999999999
#
# number of rings (size 3 to 8) (size 9 to 14) (size 15 to 20)
#    0.000    1.600    1.333    3.200    3.733    3.733 
#    0.000    0.000    0.000   14.400    0.000    0.000 
#    0.000    0.000    0.000    0.000    0.000    0.000 
#
# Total GULP energy -167203.285301 kJ/mol
# GULP energy per Si atom -5573.442843 kJ/mol
# Density = 2.652174 g / cm^3
# Si number density = 26.582244 Si / 1000 Ang^3
#
#
#
# Elastic Constant Matrix: (Units=GPa)
#
#
# Indices 1 2 3 4 5 6 
#
# 1 86.4137 11.3455 20.8830 0.0000 0.0000 0.0000
# 2 11.3455 44.8680 -2.7139 0.0000 0.0000 0.0000
# 3 20.8830 -2.7139 119.8516 0.0000 0.0000 0.0000
# 4 0.0000 0.0000 0.0000 19.2561 0.0000 0.0000
# 5 0.0000 0.0000 0.0000 0.0000 45.2388 0.0000
# 6 0.0000 0.0000 0.0000 0.0000 0.0000 41.4693
#
#
#
# Elastic Compliance Matrix: (Units=1/GPa)
#
#
# Indices 1 2 3 4 5 6 
#
# 1 0.012554 -0.003311 -0.002262 0.000000 0.000000 0.000000
# 2 -0.003311 0.023192 0.001102 0.000000 0.000000 0.000000
# 3 -0.002262 0.001102 0.008763 0.000000 0.000000 0.000000
# 4 0.000000 0.000000 0.000000 0.051932 0.000000 0.000000
# 5 0.000000 0.000000 0.000000 0.000000 0.022105 0.000000
# 6 0.000000 0.000000 0.000000 0.000000 0.000000 0.024114
#
#
# Mechanical properties :
#
#
# Convention : Reuss Voigt Hill
#
# Bulk Modulus (GPa) = 28.11744 34.46250 31.28997
# Shear Modulus (GPa) = 30.58911 35.96742 33.27826
#
# Velocity S-wave (km/s) = 3.39593 3.68239 3.54206
# Velocity P-wave (km/s) = 5.09676 5.57428 5.34086
#
# Compressibility (1/GPa) = 0.03556512
#
# Stress axis : x y z
#
# Youngs Moduli (GPa) = 79.65776 43.11913 114.11877
#
# Poissons Ratio (x) = 0.14278 0.25818
# Poissons Ratio (y) = 0.26377 -0.12577
# Poissons Ratio (z) = 0.18021 -0.04752
#
# Static dielectric constant tensor:
#      x y z
#    x 2.173720 0.000000 0.000000 
#    y 0.000000 2.373350 0.000000 
#    z 0.000000 0.000000 2.081460 
# 
# From -- ./inp_files/1389.got.cif
#   From: 2010.05.17/outbox.cif.g08.bks.cpg/sg41_1_cif.got.tgz:1389.got - 2010.06.03 18:54:24.
