data_PCOD9366889
_publ_section_title
;
Structure prediction by ZEFSAII (Michael W. Deem and Ramdas Pophale) SiO2 
 PCOD9366889
Probable space group: A B A 2
;
_chemical_formula_sum "Si O2"
_cell_formula_units_Z 52
_cell_length_a 17.285657
_cell_length_b 28.189584
_cell_length_c 5.219445
_cell_angle_alpha 90.000000
_cell_angle_beta 90.000000
_cell_angle_gamma 90.000000
_cell_volume 2543.307568
_symmetry_space_group_name_H-M "A B A 2"
_symmetry_group_IT_number 41
_symmetry_cell_setting 'orthorhombic'
loop_
_space_group_symop_operation_xyz
x,y,z
-x,-y,z
1/2-x,y,1/2+z
1/2+x,-y,1/2+z
x,1/2+y,1/2+z
-x,1/2-y,1/2+z
1/2-x,1/2+y,z
1/2+x,1/2-y,z
loop_
_atom_site_type_symbol
_atom_site_label
_atom_site_fract_x
_atom_site_fract_y
_atom_site_fract_z
Si Si1 0.296400 0.639345 0.922310
Si Si2 0.055745 0.917220 0.416711
Si Si3 0.803164 0.015341 0.461136
Si Si4 0.000000 0.500000 0.548903
Si Si5 0.519667 0.186973 0.779243
Si Si6 0.422987 0.709776 0.780827
Si Si7 0.903717 0.941727 0.702786
O O1 0.226208 0.636522 0.719172
O O2 0.353084 0.596487 0.848433
O O3 0.341026 0.687256 0.846851
O O4 0.137706 0.940395 0.487294
O O5 0.022521 0.954296 0.210092
O O6 0.059812 0.863486 0.320632
O O7 0.986043 0.919546 0.623018
O O8 0.756429 0.015860 0.196984
O O9 0.853821 0.966771 0.480545
O O10 0.927383 0.485874 0.377886
O O11 0.573807 0.233293 0.798578
O O12 0.455329 0.194172 0.003259
O O13 0.479810 0.189912 0.501924
#
# Coordination Sequence:
#
# PCOD9366889 Si02
#       7
#     8   8   8   4   8   8   8
#     4  12  26  41  66 101 139 176 214 281 353 406
#     4  12  24  41  69  98 125 179 232 278 319 398
#     4  12  26  43  59  91 137 174 213 266 337 392
#     4  12  22  40  70  96 136 168 240 284 316 378
#     4  10  22  40  72  95 126 166 228 279 321 388
#     4  10  21  43  65  99 130 166 215 280 336 398
#     4  12  24  42  65  96 129 179 228 276 328 400
#
# _framework density 20.445815
#
# number of rings (size 3 to 8) (size 9 to 14) (size 15 to 20)
#    0.000    0.615    4.615    3.692    2.154    0.000 
#    0.000    1.538    0.000    0.000    0.000    0.000 
#    0.000    0.000    0.000    0.000    0.000    0.000 
#
# Total GULP energy -145406.095605 kJ/mol
# GULP energy per Si atom -5592.542139 kJ/mol
# Density = 2.039928 g / cm^3
# Si number density = 20.445815 Si / 1000 Ang^3
#
#
#
# Elastic Constant Matrix: (Units=GPa)
#
#
# Indices 1 2 3 4 5 6 
#
# 1 80.7210 29.9064 10.2074 0.0000 0.0000 0.0000
# 2 29.9064 120.2007 9.0418 0.0000 0.0000 0.0000
# 3 10.2074 9.0418 65.1825 0.0000 0.0000 0.0000
# 4 0.0000 0.0000 0.0000 17.0345 0.0000 0.0000
# 5 0.0000 0.0000 0.0000 0.0000 22.8929 0.0000
# 6 0.0000 0.0000 0.0000 0.0000 0.0000 39.6758
#
#
#
# Elastic Compliance Matrix: (Units=1/GPa)
#
#
# Indices 1 2 3 4 5 6 
#
# 1 0.013832 -0.003313 -0.001706 0.000000 0.000000 0.000000
# 2 -0.003313 0.009201 -0.000757 0.000000 0.000000 0.000000
# 3 -0.001706 -0.000757 0.015714 0.000000 0.000000 0.000000
# 4 0.000000 0.000000 0.000000 0.058704 0.000000 0.000000
# 5 0.000000 0.000000 0.000000 0.000000 0.043682 0.000000
# 6 0.000000 0.000000 0.000000 0.000000 0.000000 0.025204
#
#
# Mechanical properties :
#
#
# Convention : Reuss Voigt Hill
#
# Bulk Modulus (GPa) = 36.77508 40.49060 38.63284
# Shear Modulus (GPa) = 26.74451 30.38388 28.56419
#
# Velocity S-wave (km/s) = 3.62065 3.85914 3.74179
# Velocity P-wave (km/s) = 5.95856 6.30112 6.13223
#
# Compressibility (1/GPa) = 0.02719232
#
# Stress axis : x y z
#
# Youngs Moduli (GPa) = 72.29845 108.68758 63.63823
#
# Poissons Ratio (x) = 0.36008 0.10859
# Poissons Ratio (y) = 0.23952 0.04820
# Poissons Ratio (z) = 0.12337 0.08233
#
# Static dielectric constant tensor:
#      x y z
#    x 1.751350 0.000000 0.000000 
#    y 0.000000 1.721280 0.000000 
#    z 0.000000 0.000000 1.773990 
# 
# From -- ./inp_files/526.got.cif
#   From: 2010.05.17/outbox.cif.g08.bks.cpg/sg41_1_cif.got.tgz:526.got - 2010.06.03 18:54:24.
