data_PCOD9366053
_publ_section_title
;
Structure prediction by ZEFSAII (Michael W. Deem and Ramdas Pophale) SiO2 
 PCOD9366053
Probable space group: A B A 2
;
_chemical_formula_sum "Si O2"
_cell_formula_units_Z 60
_cell_length_a 9.379446
_cell_length_b 17.419083
_cell_length_c 16.476912
_cell_angle_alpha 90.000000
_cell_angle_beta 90.000000
_cell_angle_gamma 90.000000
_cell_volume 2692.020100
_symmetry_space_group_name_H-M "A B A 2"
_symmetry_group_IT_number 41
_symmetry_cell_setting 'orthorhombic'
loop_
_space_group_symop_operation_xyz
x,y,z
-x,-y,z
1/2-x,y,1/2+z
1/2+x,-y,1/2+z
x,1/2+y,1/2+z
-x,1/2-y,1/2+z
1/2-x,1/2+y,z
1/2+x,1/2-y,z
loop_
_atom_site_type_symbol
_atom_site_label
_atom_site_fract_x
_atom_site_fract_y
_atom_site_fract_z
Si Si1 0.178098 0.546749 0.005190
Si Si2 0.000000 0.000000 0.656302
Si Si3 0.861793 0.833479 0.362244
Si Si4 0.135968 0.842494 0.676591
Si Si5 0.035032 0.119329 0.036668
Si Si6 0.964331 0.184718 0.208021
Si Si7 0.098824 0.235795 0.909795
Si Si8 0.714770 0.120643 0.988878
O O1 0.106583 0.545034 0.094186
O O2 0.346924 0.555913 0.020914
O O3 0.150918 0.462390 0.971345
O O4 0.132599 0.610493 0.939945
O O5 0.078967 0.928498 0.701189
O O6 0.950508 0.853409 0.282814
O O7 0.694680 0.815127 0.350327
O O8 0.938488 0.753464 0.386026
O O9 0.291906 0.820455 0.713432
O O10 0.027007 0.771785 0.694543
O O11 0.163778 0.852600 0.579075
O O12 0.005850 0.135741 0.129481
O O13 0.884202 0.111416 0.993277
O O14 0.104360 0.194613 0.996154
O O15 0.165189 0.318887 0.923267
#
# Coordination Sequence:
#
# PCOD9366053 Si02
#       8
#     8   4   8   8   8   8   8   8
#     4  10  22  37  65  93 128 168 215 274 326 400
#     4  10  22  42  68  98 124 176 224 280 330 376
#     4  11  23  38  61  94 130 169 210 270 336 386
#     4  10  22  38  68  94 133 173 224 280 327 393
#     4  10  21  36  66  94 120 164 223 276 318 383
#     4  11  23  39  65 100 132 175 218 278 329 400
#     4  11  20  37  63  90 120 169 216 268 311 390
#     4  10  19  38  64  93 122 165 225 271 319 375
#
# _framework density 22.288094999999998
#
# number of rings (size 3 to 8) (size 9 to 14) (size 15 to 20)
#    0.000    1.600    2.667    2.800    1.867    0.000 
#    0.000    0.000   32.267    0.000    0.000    0.000 
#    0.000    0.000    0.000    0.000    0.000    0.000 
#
# Total GULP energy -167314.758108 kJ/mol
# GULP energy per Si atom -5577.158604 kJ/mol
# Density = 2.223737 g / cm^3
# Si number density = 22.288095 Si / 1000 Ang^3
#
#
#
# Elastic Constant Matrix: (Units=GPa)
#
#
# Indices 1 2 3 4 5 6 
#
# 1 131.2172 51.2695 12.8569 0.0000 0.0000 0.0000
# 2 51.2695 85.0366 9.0240 0.0000 0.0000 0.0000
# 3 12.8569 9.0240 52.4488 0.0000 0.0000 0.0000
# 4 0.0000 0.0000 0.0000 9.0170 0.0000 0.0000
# 5 0.0000 0.0000 0.0000 0.0000 29.0002 0.0000
# 6 0.0000 0.0000 0.0000 0.0000 0.0000 37.0328
#
#
#
# Elastic Compliance Matrix: (Units=1/GPa)
#
#
# Indices 1 2 3 4 5 6 
#
# 1 0.010077 -0.005921 -0.001451 0.000000 0.000000 0.000000
# 2 -0.005921 0.015458 -0.001208 0.000000 0.000000 0.000000
# 3 -0.001451 -0.001208 0.019630 0.000000 0.000000 0.000000
# 4 0.000000 0.000000 0.000000 0.110901 0.000000 0.000000
# 5 0.000000 0.000000 0.000000 0.000000 0.034482 0.000000
# 6 0.000000 0.000000 0.000000 0.000000 0.000000 0.027003
#
#
# Mechanical properties :
#
#
# Convention : Reuss Voigt Hill
#
# Bulk Modulus (GPa) = 35.71054 46.11147 40.91101
# Shear Modulus (GPa) = 20.48784 28.04684 24.26734
#
# Velocity S-wave (km/s) = 3.03517 3.55121 3.30328
# Velocity P-wave (km/s) = 5.32353 6.12769 5.73971
#
# Compressibility (1/GPa) = 0.02800293
#
# Stress axis : x y z
#
# Youngs Moduli (GPa) = 99.23815 64.69183 50.94288
#
# Poissons Ratio (x) = 0.38306 0.07394
# Poissons Ratio (y) = 0.58763 0.06154
# Poissons Ratio (z) = 0.14403 0.07815
#
# Static dielectric constant tensor:
#      x y z
#    x 1.889090 0.000000 0.000000 
#    y 0.000000 1.843320 0.000000 
#    z 0.000000 0.000000 1.817680 
# 
# From -- ./inp_files/9764.got.cif
#   From: 2010.05.17/outbox.cif.g08.bks.cpg/sg41_5_cif.got.tgz:9764.got - 2010.06.03 18:54:24.
