data_PCOD9366955
_publ_section_title
;
Structure prediction by ZEFSAII (Michael W. Deem and Ramdas Pophale) SiO2 
 PCOD9366955
Probable space group: A B A 2
;
_chemical_formula_sum "Si O2"
_cell_formula_units_Z 52
_cell_length_a 21.143499
_cell_length_b 22.715266
_cell_length_c 5.633420
_cell_angle_alpha 90.000000
_cell_angle_beta 90.000000
_cell_angle_gamma 90.000000
_cell_volume 2705.620107
_symmetry_space_group_name_H-M "A B A 2"
_symmetry_group_IT_number 41
_symmetry_cell_setting 'orthorhombic'
loop_
_space_group_symop_operation_xyz
x,y,z
-x,-y,z
1/2-x,y,1/2+z
1/2+x,-y,1/2+z
x,1/2+y,1/2+z
-x,1/2-y,1/2+z
1/2-x,1/2+y,z
1/2+x,1/2-y,z
loop_
_atom_site_type_symbol
_atom_site_label
_atom_site_fract_x
_atom_site_fract_y
_atom_site_fract_z
Si Si1 0.545707 0.190846 0.557880
Si Si2 0.992684 0.395618 0.945645
Si Si3 0.581357 0.808776 0.263019
Si Si4 0.287755 0.637674 0.878269
Si Si5 0.500000 0.000000 0.655208
Si Si6 0.285707 0.498794 0.865793
Si Si7 0.590133 0.575623 0.822891
O O1 0.524135 0.156103 0.792786
O O2 0.478501 0.203782 0.433179
O O3 0.583685 0.250270 0.603747
O O4 0.585184 0.143359 0.406653
O O5 0.963557 0.448791 0.796764
O O6 0.051003 0.425881 0.080587
O O7 0.941994 0.365609 0.115707
O O8 0.647739 0.824631 0.380024
O O9 0.250560 0.648740 0.626231
O O10 0.304252 0.567993 0.866057
O O11 0.548745 0.036874 0.501841
O O12 0.241422 0.489768 0.632789
O O13 0.342345 0.453636 0.820747
#
# Coordination Sequence:
#
# PCOD9366955 Si02
#       7
#     8   8   8   8   4   8   8
#     4  10  22  39  62 100 120 172 211 264 338 385
#     4  10  22  36  61  94 127 161 206 265 334 388
#     4  11  22  40  67  89 135 167 216 273 326 385
#     4  10  25  43  64  95 126 175 224 266 322 395
#     4  10  22  34  60  96 126 156 202 272 330 390
#     4  10  24  43  66  91 129 177 216 267 331 396
#     4  10  23  39  59  95 127 160 218 264 323 401
#
# _framework density 19.219253999999999
#
# number of rings (size 3 to 8) (size 9 to 14) (size 15 to 20)
#    0.000    1.846    1.538    0.462   15.077    1.231 
#    0.000    1.538    0.000    0.000    0.000    0.000 
#    0.000    0.000    0.000    0.000    0.000    0.000 
#
# Total GULP energy -144985.990476 kJ/mol
# GULP energy per Si atom -5576.384249 kJ/mol
# Density = 1.917551 g / cm^3
# Si number density = 19.219254 Si / 1000 Ang^3
#
#
#
# Elastic Constant Matrix: (Units=GPa)
#
#
# Indices 1 2 3 4 5 6 
#
# 1 54.6778 47.0266 5.0269 0.0000 0.0000 0.0000
# 2 47.0266 80.4326 12.4807 0.0000 0.0000 0.0000
# 3 5.0269 12.4807 60.4318 0.0000 0.0000 0.0000
# 4 0.0000 0.0000 0.0000 25.6242 0.0000 0.0000
# 5 0.0000 0.0000 0.0000 0.0000 -25.1714 0.0000
# 6 0.0000 0.0000 0.0000 0.0000 0.0000 28.4906
#
#
#
# Elastic Compliance Matrix: (Units=1/GPa)
#
#
# Indices 1 2 3 4 5 6 
#
# 1 0.036908 -0.021801 0.001432 0.000000 0.000000 0.000000
# 2 -0.021801 0.025722 -0.003499 0.000000 0.000000 0.000000
# 3 0.001432 -0.003499 0.017151 0.000000 0.000000 0.000000
# 4 0.000000 0.000000 0.000000 0.039026 0.000000 0.000000
# 5 0.000000 0.000000 0.000000 0.000000 -0.039728 0.000000
# 6 0.000000 0.000000 0.000000 0.000000 0.000000 0.035099
#
#
# Mechanical properties :
#
#
# Convention : Reuss Voigt Hill
#
# Bulk Modulus (GPa) = 31.20535 36.06785 33.63660
# Shear Modulus (GPa) = 28.96956 14.52255 21.74606
#
# Velocity S-wave (km/s) = 3.88663 2.75185 3.36739
# Velocity P-wave (km/s) = 6.03432 5.37626 5.71477
#
# Compressibility (1/GPa) = 0.03204579
#
# Stress axis : x y z
#
# Youngs Moduli (GPa) = 27.09465 38.87704 58.30564
#
# Poissons Ratio (x) = 0.84756 -0.08351
# Poissons Ratio (y) = 0.59069 0.20400
# Poissons Ratio (z) = -0.03881 0.13602
#
# Static dielectric constant tensor:
#      x y z
#    x 1.653270 0.000000 0.000000 
#    y 0.000000 1.658530 0.000000 
#    z 0.000000 0.000000 1.761290 
# 
# From -- ./inp_files/723.got.cif
#   From: 2010.05.17/outbox.cif.g08.bks.cpg/sg41_1_cif.got.tgz:723.got - 2010.06.03 18:54:24.
