data_PCOD9366614
_publ_section_title
;
Structure prediction by ZEFSAII (Michael W. Deem and Ramdas Pophale) SiO2 
 PCOD9366614
Probable space group: A B A 2
;
_chemical_formula_sum "Si O2"
_cell_formula_units_Z 48
_cell_length_a 8.295600
_cell_length_b 18.009617
_cell_length_c 15.164912
_cell_angle_alpha 90.000000
_cell_angle_beta 90.000000
_cell_angle_gamma 90.000000
_cell_volume 2265.646630
_symmetry_space_group_name_H-M "A B A 2"
_symmetry_group_IT_number 41
_symmetry_cell_setting 'orthorhombic'
loop_
_space_group_symop_operation_xyz
x,y,z
-x,-y,z
1/2-x,y,1/2+z
1/2+x,-y,1/2+z
x,1/2+y,1/2+z
-x,1/2-y,1/2+z
1/2-x,1/2+y,z
1/2+x,1/2-y,z
loop_
_atom_site_type_symbol
_atom_site_label
_atom_site_fract_x
_atom_site_fract_y
_atom_site_fract_z
Si Si1 0.492450 0.643206 0.045260
Si Si2 0.926453 0.924520 0.865914
Si Si3 0.082717 0.856692 0.236436
Si Si4 0.950051 0.422662 0.905975
Si Si5 0.378425 0.696444 0.546780
Si Si6 0.449075 0.803065 0.233656
O O1 0.537466 0.611082 0.140766
O O2 0.308339 0.673063 0.050025
O O3 0.601633 0.716090 0.028876
O O4 0.502676 0.589012 0.962648
O O5 0.735319 0.929089 0.876704
O O6 0.967905 0.853388 0.807265
O O7 0.000000 0.000000 0.827345
O O8 0.263261 0.825788 0.230807
O O9 0.057156 0.909674 0.319151
O O10 0.969850 0.784383 0.251795
O O11 0.000000 0.500000 0.950139
O O12 0.961354 0.353413 0.971912
O O13 0.464221 0.683032 0.640275
#
# Coordination Sequence:
#
# PCOD9366614 Si02
#       6
#     8   8   8   8   8   8
#     4  10  21  38  61  87 115 149 193 241 288 341
#     4  11  24  40  59  85 118 155 194 237 288 345
#     4  11  22  38  62  88 117 152 193 240 287 340
#     4  11  24  40  59  85 118 155 194 237 288 345
#     4  10  21  38  61  87 115 149 193 241 288 341
#     4  11  22  38  62  88 117 152 193 240 287 340
#
# _framework density 21.186005999999999
#
# number of rings (size 3 to 8) (size 9 to 14) (size 15 to 20)
#    0.000    1.333    0.000    8.000    0.000    9.333 
#    0.000    3.333    0.000    0.000    0.000    0.000 
#    0.000    0.000    0.000    0.000    0.000    0.000 
#
# Total GULP energy -134298.747267 kJ/mol
# GULP energy per Si atom -5595.781136 kJ/mol
# Density = 2.113779 g / cm^3
# Si number density = 21.186006 Si / 1000 Ang^3
#
#
#
# Elastic Constant Matrix: (Units=GPa)
#
#
# Indices 1 2 3 4 5 6 
#
# 1 56.6996 -16.3102 -10.2979 0.0000 0.0000 0.0000
# 2 -16.3102 35.4860 22.7719 0.0000 0.0000 0.0000
# 3 -10.2979 22.7719 55.5249 0.0000 0.0000 0.0000
# 4 0.0000 0.0000 0.0000 -0.4148 0.0000 0.0000
# 5 0.0000 0.0000 0.0000 0.0000 10.6429 0.0000
# 6 0.0000 0.0000 0.0000 0.0000 0.0000 22.0689
#
#
#
# Elastic Compliance Matrix: (Units=1/GPa)
#
#
# Indices 1 2 3 4 5 6 
#
# 1 0.020324 0.009395 -0.000084 0.000000 0.000000 0.000000
# 2 0.009395 0.042589 -0.015724 0.000000 0.000000 0.000000
# 3 -0.000084 -0.015724 0.024443 0.000000 0.000000 0.000000
# 4 0.000000 0.000000 0.000000 -2.410720 0.000000 0.000000
# 5 0.000000 0.000000 0.000000 0.000000 0.093960 0.000000
# 6 0.000000 0.000000 0.000000 0.000000 0.000000 0.045313
#
#
# Mechanical properties :
#
#
# Convention : Reuss Voigt Hill
#
# Bulk Modulus (GPa) = 13.41725 15.55980 14.48853
# Shear Modulus (GPa) = -2.32946 16.56251 7.11653
#
# Velocity S-wave (km/s) = -1.04972 2.79904 1.83476
# Velocity P-wave (km/s) = 2.20853 4.21978 3.36780
#
# Compressibility (1/GPa) = 0.07453091
#
# Stress axis : x y z
#
# Youngs Moduli (GPa) = 49.20241 23.48044 40.91130
#
# Poissons Ratio (x) = -0.22060 0.00343
# Poissons Ratio (y) = -0.46227 0.64329
# Poissons Ratio (z) = 0.00412 0.36921
#
# Static dielectric constant tensor:
#      x y z
#    x 1.757470 0.000000 0.000000 
#    y 0.000000 1.746860 0.000000 
#    z 0.000000 0.000000 1.759220 
# 
# From -- ./inp_files/7307.got.cif
#   From: 2010.05.17/outbox.cif.g08.bks.cpg/sg41_4_cif.got.tgz:7307.got - 2010.06.03 18:54:24.
