data_PCOD9366309
_publ_section_title
;
Structure prediction by ZEFSAII (Michael W. Deem and Ramdas Pophale) SiO2 
 PCOD9366309
Probable space group: A B A 2
;
_chemical_formula_sum "Si O2"
_cell_formula_units_Z 44
_cell_length_a 14.764776
_cell_length_b 17.467368
_cell_length_c 8.103211
_cell_angle_alpha 90.000000
_cell_angle_beta 90.000000
_cell_angle_gamma 90.000000
_cell_volume 2089.832507
_symmetry_space_group_name_H-M "A B A 2"
_symmetry_group_IT_number 41
_symmetry_cell_setting 'orthorhombic'
loop_
_space_group_symop_operation_xyz
x,y,z
-x,-y,z
1/2-x,y,1/2+z
1/2+x,-y,1/2+z
x,1/2+y,1/2+z
-x,1/2-y,1/2+z
1/2-x,1/2+y,z
1/2+x,1/2-y,z
loop_
_atom_site_type_symbol
_atom_site_label
_atom_site_fract_x
_atom_site_fract_y
_atom_site_fract_z
Si Si1 0.934949 0.647495 0.404640
Si Si2 0.500000 0.500000 0.107338
Si Si3 0.411899 0.405883 0.540552
Si Si4 0.609360 0.441929 0.408722
Si Si5 0.379035 0.238944 0.446908
Si Si6 0.313187 0.216935 0.825826
O O1 0.955372 0.572154 0.513423
O O2 0.903577 0.613604 0.230407
O O3 0.860118 0.714572 0.432806
O O4 0.030271 0.693657 0.399032
O O5 0.576611 0.464431 0.225837
O O6 0.517197 0.423057 0.506504
O O7 0.354273 0.479823 0.488262
O O8 0.392753 0.329989 0.437551
O O9 0.665692 0.365503 0.403064
O O10 0.353175 0.221163 0.639249
O O11 0.294429 0.222257 0.330944
#
# Coordination Sequence:
#
# PCOD9366309 Si02
#       6
#     8   4   8   8   8   8
#     4  11  22  43  67  92 128 169 221 261 321 383
#     4  10  20  38  68  92 120 166 216 262 316 380
#     4   9  21  38  66  93 122 165 209 263 321 374
#     4  10  20  40  65  94 123 164 210 265 327 365
#     4  11  24  41  64  98 125 175 215 262 325 380
#     4  11  25  42  65  93 133 172 212 270 318 386
#
# _framework density 21.054321000000002
#
# number of rings (size 3 to 8) (size 9 to 14) (size 15 to 20)
#    0.000    1.818    3.636    1.091    2.545    2.909 
#    3.273    1.818    0.000    0.000    0.000    0.000 
#    0.000    0.000    0.000    0.000    0.000    0.000 
#
# Total GULP energy -122728.294742 kJ/mol
# GULP energy per Si atom -5578.558852 kJ/mol
# Density = 2.100640 g / cm^3
# Si number density = 21.054321 Si / 1000 Ang^3
#
#
#
# Elastic Constant Matrix: (Units=GPa)
#
#
# Indices 1 2 3 4 5 6 
#
# 1 27.2356 -2.5103 -8.9349 0.0000 0.0000 0.0000
# 2 -2.5103 160.2864 37.0346 0.0000 0.0000 0.0000
# 3 -8.9349 37.0346 40.1197 0.0000 0.0000 0.0000
# 4 0.0000 0.0000 0.0000 59.6020 0.0000 0.0000
# 5 0.0000 0.0000 0.0000 0.0000 10.0631 0.0000
# 6 0.0000 0.0000 0.0000 0.0000 0.0000 13.1478
#
#
#
# Elastic Compliance Matrix: (Units=1/GPa)
#
#
# Indices 1 2 3 4 5 6 
#
# 1 0.040024 -0.001821 0.010595 0.000000 0.000000 0.000000
# 2 -0.001821 0.008013 -0.007802 0.000000 0.000000 0.000000
# 3 0.010595 -0.007802 0.034487 0.000000 0.000000 0.000000
# 4 0.000000 0.000000 0.000000 0.016778 0.000000 0.000000
# 5 0.000000 0.000000 0.000000 0.000000 0.099373 0.000000
# 6 0.000000 0.000000 0.000000 0.000000 0.000000 0.076058
#
#
# Mechanical properties :
#
#
# Convention : Reuss Voigt Hill
#
# Bulk Modulus (GPa) = 11.83890 30.98006 21.40948
# Shear Modulus (GPa) = 16.61416 30.03273 23.32345
#
# Velocity S-wave (km/s) = 2.81216 3.78092 3.33194
# Velocity P-wave (km/s) = 4.02238 5.81436 4.99932
#
# Compressibility (1/GPa) = 0.08446728
#
# Stress axis : x y z
#
# Youngs Moduli (GPa) = 24.98472 124.79570 28.99608
#
# Poissons Ratio (x) = 0.22726 -0.30721
# Poissons Ratio (y) = 0.04550 0.22624
# Poissons Ratio (z) = -0.26471 0.97372
#
# Static dielectric constant tensor:
#      x y z
#    x 1.738180 0.000000 0.000000 
#    y 0.000000 1.841950 0.000000 
#    z 0.000000 0.000000 1.793700 
# 
# From -- ./inp_files/2478.got.cif
#   From: 2010.05.17/outbox.cif.g08.bks.cpg/sg41_2_cif.got.tgz:2478.got - 2010.06.03 18:54:24.
