data_PCOD9366388
_publ_section_title
;
Structure prediction by ZEFSAII (Michael W. Deem and Ramdas Pophale) SiO2 
 PCOD9366388
Probable space group: A B A 2
;
_chemical_formula_sum "Si O2"
_cell_formula_units_Z 56
_cell_length_a 10.014032
_cell_length_b 22.078525
_cell_length_c 11.667688
_cell_angle_alpha 90.000000
_cell_angle_beta 90.000000
_cell_angle_gamma 90.000000
_cell_volume 2579.668130
_symmetry_space_group_name_H-M "A B A 2"
_symmetry_group_IT_number 41
_symmetry_cell_setting 'orthorhombic'
loop_
_space_group_symop_operation_xyz
x,y,z
-x,-y,z
1/2-x,y,1/2+z
1/2+x,-y,1/2+z
x,1/2+y,1/2+z
-x,1/2-y,1/2+z
1/2-x,1/2+y,z
1/2+x,1/2-y,z
loop_
_atom_site_type_symbol
_atom_site_label
_atom_site_fract_x
_atom_site_fract_y
_atom_site_fract_z
Si Si1 0.411016 0.442339 0.140220
Si Si2 0.375713 0.339933 0.312857
Si Si3 0.847394 0.990728 0.716402
Si Si4 0.816423 0.746171 0.611350
Si Si5 0.900615 0.857388 0.758760
Si Si6 0.862616 0.087447 0.891083
Si Si7 0.437857 0.231510 0.459995
O O1 0.500000 0.500000 0.162882
O O2 0.440831 0.391604 0.234909
O O3 0.259500 0.468519 0.148792
O O4 0.432145 0.417384 0.012970
O O5 0.301182 0.298121 0.219327
O O6 0.273303 0.374951 0.394832
O O7 0.461035 0.292310 0.384742
O O8 0.821666 0.918924 0.727761
O O9 0.840512 0.019674 0.843856
O O10 0.000000 0.000000 0.673570
O O11 0.880342 0.808710 0.658648
O O12 0.674469 0.756541 0.554177
O O13 0.922096 0.718391 0.521251
O O14 0.875879 0.819083 0.875258
O O15 0.047969 0.881842 0.791519
#
# Coordination Sequence:
#
# PCOD9366388 Si02
#       7
#     8   8   8   8   8   8   8
#     4  11  22  37  63  92 119 158 203 247 298 356
#     4  10  22  39  60  85 120 159 202 241 292 370
#     4   9  21  39  58  85 119 157 199 246 298 355
#     4  11  24  39  62  89 119 158 201 247 301 357
#     4  10  21  37  61  89 120 151 200 258 297 343
#     4  10  20  40  63  84 117 166 203 237 299 370
#     4  11  23  39  60  88 119 159 199 248 304 353
#
# _framework density 21.708219
#
# number of rings (size 3 to 8) (size 9 to 14) (size 15 to 20)
#    0.000    1.714    0.000    4.714    0.000   10.286 
#    0.000    4.286    0.000    1.714    0.000    0.000 
#    0.000    0.000    0.000    0.000    0.000    0.000 
#
# Total GULP energy -156256.258716 kJ/mol
# GULP energy per Si atom -5580.580668 kJ/mol
# Density = 2.165881 g / cm^3
# Si number density = 21.708219 Si / 1000 Ang^3
#
#
#
# Elastic Constant Matrix: (Units=GPa)
#
#
# Indices 1 2 3 4 5 6 
#
# 1 45.3843 -2.2424 -5.2890 0.0000 0.0000 0.0000
# 2 -2.2424 143.8987 29.2166 0.0000 0.0000 0.0000
# 3 -5.2890 29.2166 48.7668 0.0000 0.0000 0.0000
# 4 0.0000 0.0000 0.0000 26.7429 0.0000 0.0000
# 5 0.0000 0.0000 0.0000 0.0000 16.8433 0.0000
# 6 0.0000 0.0000 0.0000 0.0000 0.0000 27.3140
#
#
#
# Elastic Compliance Matrix: (Units=1/GPa)
#
#
# Indices 1 2 3 4 5 6 
#
# 1 0.022319 -0.000164 0.002519 0.000000 0.000000 0.000000
# 2 -0.000164 0.007913 -0.004758 0.000000 0.000000 0.000000
# 3 0.002519 -0.004758 0.023630 0.000000 0.000000 0.000000
# 4 0.000000 0.000000 0.000000 0.037393 0.000000 0.000000
# 5 0.000000 0.000000 0.000000 0.000000 0.059371 0.000000
# 6 0.000000 0.000000 0.000000 0.000000 0.000000 0.036611
#
#
# Mechanical properties :
#
#
# Convention : Reuss Voigt Hill
#
# Bulk Modulus (GPa) = 20.38511 31.26892 25.82702
# Shear Modulus (GPa) = 23.99280 28.60434 26.29857
#
# Velocity S-wave (km/s) = 3.32812 3.63391 3.48437
# Velocity P-wave (km/s) = 4.91726 5.66062 5.30198
#
# Compressibility (1/GPa) = 0.04905540
#
# Stress axis : x y z
#
# Youngs Moduli (GPa) = 44.80393 126.37564 42.31958
#
# Poissons Ratio (x) = 0.02067 -0.10659
# Poissons Ratio (y) = 0.00733 0.20138
# Poissons Ratio (z) = -0.11285 0.60135
#
# Static dielectric constant tensor:
#      x y z
#    x 1.801310 0.000000 0.000000 
#    y 0.000000 1.852320 0.000000 
#    z 0.000000 0.000000 1.786870 
# 
# From -- ./inp_files/5059.got.cif
#   From: 2010.05.17/outbox.cif.g08.bks.cpg/sg41_3_cif.got.tgz:5059.got - 2010.06.03 18:54:24.
