data_PCOD9366960
_publ_section_title
;
Structure prediction by ZEFSAII (Michael W. Deem and Ramdas Pophale) SiO2 
 PCOD9366960
Probable space group: A B A 2
;
_chemical_formula_sum "Si O2"
_cell_formula_units_Z 60
_cell_length_a 19.261095
_cell_length_b 15.048398
_cell_length_c 9.152350
_cell_angle_alpha 90.000000
_cell_angle_beta 90.000000
_cell_angle_gamma 90.000000
_cell_volume 2652.796049
_symmetry_space_group_name_H-M "A B A 2"
_symmetry_group_IT_number 41
_symmetry_cell_setting 'orthorhombic'
loop_
_space_group_symop_operation_xyz
x,y,z
-x,-y,z
1/2-x,y,1/2+z
1/2+x,-y,1/2+z
x,1/2+y,1/2+z
-x,1/2-y,1/2+z
1/2-x,1/2+y,z
1/2+x,1/2-y,z
loop_
_atom_site_type_symbol
_atom_site_label
_atom_site_fract_x
_atom_site_fract_y
_atom_site_fract_z
Si Si1 0.158015 0.774772 0.393100
Si Si2 0.029064 0.675202 0.255739
Si Si3 0.877315 0.221616 0.721144
Si Si4 0.703859 0.542487 0.395475
Si Si5 0.261141 0.639172 0.256034
Si Si6 0.000000 0.500000 0.452514
Si Si7 0.863073 0.933452 0.624435
Si Si8 0.857184 0.052020 0.920983
O O1 0.085387 0.737245 0.334505
O O2 0.150537 0.803767 0.560901
O O3 0.185224 0.864990 0.319268
O O4 0.212866 0.696072 0.366854
O O5 0.008773 0.590516 0.357174
O O6 0.069881 0.628969 0.121565
O O7 0.960346 0.727936 0.213459
O O8 0.832919 0.309070 0.747166
O O9 0.863694 0.148895 0.846489
O O10 0.717840 0.460528 0.290695
O O11 0.643980 0.506813 0.501830
O O12 0.778511 0.550162 0.478075
O O13 0.205966 0.627739 0.123051
O O14 0.076842 0.479008 0.519341
O O15 0.862478 0.984261 0.781216
#
# Coordination Sequence:
#
# PCOD9366960 Si02
#       8
#     8   8   8   8   8   4   8   8
#     4  11  22  39  63  89 123 167 206 254 320 378
#     4   9  21  37  60  86 120 158 215 255 296 381
#     4  11  20  38  60  85 123 167 201 254 317 374
#     4  11  20  35  62  92 118 157 206 262 315 360
#     4  10  22  36  56  91 127 152 204 263 313 372
#     4   8  16  34  58  78 114 152 196 246 300 356
#     4   9  18  36  56  86 115 157 204 253 301 369
#     4   9  17  32  57  87 113 153 200 253 300 367
#
# _framework density 22.617645
#
# number of rings (size 3 to 8) (size 9 to 14) (size 15 to 20)
#    0.000    2.133    2.667    1.600    0.000    1.067 
#    0.000    2.000   14.667    0.000    0.000    0.000 
#    0.000    0.000    0.000    0.000    0.000    0.000 
#
# Total GULP energy -167158.672455 kJ/mol
# GULP energy per Si atom -5571.955748 kJ/mol
# Density = 2.256617 g / cm^3
# Si number density = 22.617645 Si / 1000 Ang^3
#
#
#
# Elastic Constant Matrix: (Units=GPa)
#
#
# Indices 1 2 3 4 5 6 
#
# 1 111.9130 69.5355 0.0626 0.0000 0.0000 0.0000
# 2 69.5355 110.9818 3.2319 0.0000 0.0000 0.0000
# 3 0.0626 3.2319 8.9269 0.0000 0.0000 0.0000
# 4 0.0000 0.0000 0.0000 3.9118 0.0000 0.0000
# 5 0.0000 0.0000 0.0000 0.0000 15.7513 0.0000
# 6 0.0000 0.0000 0.0000 0.0000 0.0000 34.5824
#
#
#
# Elastic Compliance Matrix: (Units=1/GPa)
#
#
# Indices 1 2 3 4 5 6 
#
# 1 0.014725 -0.009321 0.003272 0.000000 0.000000 0.000000
# 2 -0.009321 0.015007 -0.005368 0.000000 0.000000 0.000000
# 3 0.003272 -0.005368 0.113941 0.000000 0.000000 0.000000
# 4 0.000000 0.000000 0.000000 0.255638 0.000000 0.000000
# 5 0.000000 0.000000 0.000000 0.000000 0.063487 0.000000
# 6 0.000000 0.000000 0.000000 0.000000 0.000000 0.028916
#
#
# Mechanical properties :
#
#
# Convention : Reuss Voigt Hill
#
# Bulk Modulus (GPa) = 8.27555 41.94241 25.10898
# Shear Modulus (GPa) = 9.01177 21.44853 15.23015
#
# Velocity S-wave (km/s) = 1.99826 3.08280 2.59776
# Velocity P-wave (km/s) = 2.99848 5.59070 4.48591
#
# Compressibility (1/GPa) = 0.12083788
#
# Stress axis : x y z
#
# Youngs Moduli (GPa) = 67.90965 66.63481 8.77648
#
# Poissons Ratio (x) = 0.62114 -0.02871
# Poissons Ratio (y) = 0.63302 0.04711
# Poissons Ratio (z) = -0.22217 0.35769
#
# Static dielectric constant tensor:
#      x y z
#    x 1.921980 0.000000 0.000000 
#    y 0.000000 1.871750 0.000000 
#    z 0.000000 0.000000 1.918590 
# 
# From -- ./inp_files/6013.got.cif
#   From: 2010.05.17/outbox.cif.g08.bks.cpg/sg41_4_cif.got.tgz:6013.got - 2010.06.03 18:54:24.
