data_PCOD9366432
_publ_section_title
;
Structure prediction by ZEFSAII (Michael W. Deem and Ramdas Pophale) SiO2 
 PCOD9366432
Probable space group: A B A 2
;
_chemical_formula_sum "Si O2"
_cell_formula_units_Z 64
_cell_length_a 27.876602
_cell_length_b 11.869377
_cell_length_c 8.177492
_cell_angle_alpha 90.000000
_cell_angle_beta 90.000000
_cell_angle_gamma 90.000000
_cell_volume 2705.751369
_symmetry_space_group_name_H-M "A B A 2"
_symmetry_group_IT_number 41
_symmetry_cell_setting 'orthorhombic'
loop_
_space_group_symop_operation_xyz
x,y,z
-x,-y,z
1/2-x,y,1/2+z
1/2+x,-y,1/2+z
x,1/2+y,1/2+z
-x,1/2-y,1/2+z
1/2-x,1/2+y,z
1/2+x,1/2-y,z
loop_
_atom_site_type_symbol
_atom_site_label
_atom_site_fract_x
_atom_site_fract_y
_atom_site_fract_z
Si Si1 0.902437 0.262433 0.065420
Si Si2 0.226645 0.668194 0.202458
Si Si3 0.808759 0.705693 0.016387
Si Si4 0.873475 0.034399 0.144564
Si Si5 0.292901 0.533089 0.402995
Si Si6 0.501899 0.869309 0.548348
Si Si7 0.600152 0.315784 0.938644
Si Si8 0.452197 0.546683 0.373920
O O1 0.866668 0.154203 0.054847
O O2 0.893350 0.308736 0.246306
O O3 0.913107 0.373574 0.959356
O O4 0.952742 0.196062 0.038235
O O5 0.202395 0.748689 0.333725
O O6 0.243159 0.562153 0.313086
O O7 0.276167 0.725406 0.141600
O O8 0.199327 0.632605 0.036644
O O9 0.793392 0.577597 0.013161
O O10 0.865354 0.728417 0.033294
O O11 0.830166 0.992547 0.258034
O O12 0.918743 0.041404 0.272461
O O13 0.885786 0.936930 0.015005
O O14 0.543932 0.800353 0.463127
O O15 0.521464 0.882608 0.732180
O O16 0.500000 0.000000 0.486029
O O17 0.500000 0.500000 0.468082
#
# Coordination Sequence:
#
# PCOD9366432 Si02
#       8
#     8   8   8   8   8   8   8   8
#     4  12  22  40  66  85 125 169 205 263 312 365
#     4  10  24  41  66  96 126 161 212 260 318 380
#     4  11  22  42  65  96 127 166 213 258 321 383
#     4  11  23  43  60  89 129 163 202 261 311 367
#     4  11  22  41  68  88 128 164 199 259 318 370
#     4  10  20  41  65  85 127 167 207 260 322 360
#     4  11  23  39  65  93 125 167 214 260 308 381
#     4  10  22  41  59  90 121 161 214 250 303 375
#
# _framework density 23.653317999999999
#
# number of rings (size 3 to 8) (size 9 to 14) (size 15 to 20)
#    0.000    1.250    6.250    1.500    1.750    0.500 
#    2.250    2.500    0.000    0.000    0.000    0.000 
#    0.000    0.000    0.000    0.000    0.000    0.000 
#
# Total GULP energy -178549.506328 kJ/mol
# GULP energy per Si atom -5579.672073 kJ/mol
# Density = 2.359948 g / cm^3
# Si number density = 23.653318 Si / 1000 Ang^3
#
#
#
# Elastic Constant Matrix: (Units=GPa)
#
#
# Indices 1 2 3 4 5 6 
#
# 1 43.4358 1.4135 -11.2249 0.0000 0.0000 0.0000
# 2 1.4135 99.1420 15.6562 0.0000 0.0000 0.0000
# 3 -11.2249 15.6562 23.0599 0.0000 0.0000 0.0000
# 4 0.0000 0.0000 0.0000 41.0708 0.0000 0.0000
# 5 0.0000 0.0000 0.0000 0.0000 35.4859 0.0000
# 6 0.0000 0.0000 0.0000 0.0000 0.0000 24.1669
#
#
#
# Elastic Compliance Matrix: (Units=1/GPa)
#
#
# Indices 1 2 3 4 5 6 
#
# 1 0.026991 -0.002755 0.015009 0.000000 0.000000 0.000000
# 2 -0.002755 0.011579 -0.009202 0.000000 0.000000 0.000000
# 3 0.015009 -0.009202 0.056919 0.000000 0.000000 0.000000
# 4 0.000000 0.000000 0.000000 0.024348 0.000000 0.000000
# 5 0.000000 0.000000 0.000000 0.000000 0.028180 0.000000
# 6 0.000000 0.000000 0.000000 0.000000 0.000000 0.041379
#
#
# Mechanical properties :
#
#
# Convention : Reuss Voigt Hill
#
# Bulk Modulus (GPa) = 9.84335 19.70305 14.77320
# Shear Modulus (GPa) = 23.02476 30.79756 26.91116
#
# Velocity S-wave (km/s) = 3.12336 3.61229 3.37669
# Velocity P-wave (km/s) = 4.14460 5.07407 4.63271
#
# Compressibility (1/GPa) = 0.10159146
#
# Stress axis : x y z
#
# Youngs Moduli (GPa) = 37.04969 86.36280 17.56881
#
# Poissons Ratio (x) = 0.23793 -0.26369
# Poissons Ratio (y) = 0.10207 0.16168
# Poissons Ratio (z) = -0.55607 0.79475
#
# Static dielectric constant tensor:
#      x y z
#    x 2.026310 0.000000 0.000000 
#    y 0.000000 1.958430 0.000000 
#    z 0.000000 0.000000 1.877470 
# 
# From -- ./inp_files/3972.got.cif
#   From: 2010.05.17/outbox.cif.g08.bks.cpg/sg41_2_cif.got.tgz:3972.got - 2010.06.03 18:54:24.
