data_PCOD9366456
_publ_section_title
;
Structure prediction by ZEFSAII (Michael W. Deem and Ramdas Pophale) SiO2 
 PCOD9366456
Probable space group: A B A 2
;
_chemical_formula_sum "Si O2"
_cell_formula_units_Z 60
_cell_length_a 20.804030
_cell_length_b 9.459115
_cell_length_c 12.044731
_cell_angle_alpha 90.000000
_cell_angle_beta 90.000000
_cell_angle_gamma 90.000000
_cell_volume 2370.255058
_symmetry_space_group_name_H-M "A B A 2"
_symmetry_group_IT_number 41
_symmetry_cell_setting 'orthorhombic'
loop_
_space_group_symop_operation_xyz
x,y,z
-x,-y,z
1/2-x,y,1/2+z
1/2+x,-y,1/2+z
x,1/2+y,1/2+z
-x,1/2-y,1/2+z
1/2-x,1/2+y,z
1/2+x,1/2-y,z
loop_
_atom_site_type_symbol
_atom_site_label
_atom_site_fract_x
_atom_site_fract_y
_atom_site_fract_z
Si Si1 0.638659 0.936413 0.195890
Si Si2 0.306734 0.159103 0.633290
Si Si3 0.500000 0.000000 0.864231
Si Si4 0.929520 0.663333 0.678935
Si Si5 0.412510 0.751753 0.437194
Si Si6 0.211204 0.580196 0.965974
Si Si7 0.437156 0.816772 0.192756
Si Si8 0.743909 0.592147 0.269163
O O1 0.619644 0.779328 0.226538
O O2 0.678573 0.950196 0.083125
O O3 0.686141 0.015162 0.278482
O O4 0.575113 0.022020 0.163248
O O5 0.278279 0.146026 0.509145
O O6 0.376866 0.226697 0.644970
O O7 0.260194 0.260906 0.708618
O O8 0.301108 0.003725 0.688394
O O9 0.555157 0.052050 0.776206
O O10 0.464464 0.121207 0.936030
O O11 0.910392 0.652304 0.548280
O O12 0.998982 0.736538 0.664320
O O13 0.340667 0.689554 0.416182
O O14 0.433731 0.827948 0.326160
O O15 0.216492 0.442081 0.890355
#
# Coordination Sequence:
#
# PCOD9366456 Si02
#       8
#     8   8   4   8   8   8   8   8
#     4   9  21  39  63  94 124 173 213 270 328 392
#     4  10  22  40  60  96 128 168 219 266 329 394
#     4  10  24  44  66 102 130 168 230 278 340 406
#     4  10  22  43  65  94 126 172 219 276 330 399
#     4  10  22  41  67  91 128 174 212 275 340 391
#     4  10  21  39  65  92 125 176 214 267 337 398
#     4  10  20  42  62  93 136 161 218 275 327 392
#     4  10  21  40  62  91 132 168 217 273 324 400
#
# _framework density 25.313731000000001
#
# number of rings (size 3 to 8) (size 9 to 14) (size 15 to 20)
#    0.000    2.133    1.333    0.400    3.733    6.400 
#    9.600    0.000    0.000    0.000    0.000    0.000 
#    0.000    0.000    0.000    0.000    0.000    0.000 
#
# Total GULP energy -167437.807952 kJ/mol
# GULP energy per Si atom -5581.260265 kJ/mol
# Density = 2.525612 g / cm^3
# Si number density = 25.313731 Si / 1000 Ang^3
#
#
#
# Elastic Constant Matrix: (Units=GPa)
#
#
# Indices 1 2 3 4 5 6 
#
# 1 74.1808 -8.2781 2.1841 0.0000 0.0000 0.0000
# 2 -8.2781 58.3803 28.9654 0.0000 0.0000 0.0000
# 3 2.1841 28.9654 101.0614 0.0000 0.0000 0.0000
# 4 0.0000 0.0000 0.0000 36.5343 0.0000 0.0000
# 5 0.0000 0.0000 0.0000 0.0000 33.4386 0.0000
# 6 0.0000 0.0000 0.0000 0.0000 0.0000 42.1490
#
#
#
# Elastic Compliance Matrix: (Units=1/GPa)
#
#
# Indices 1 2 3 4 5 6 
#
# 1 0.013784 0.002451 -0.001000 0.000000 0.000000 0.000000
# 2 0.002451 0.020404 -0.005901 0.000000 0.000000 0.000000
# 3 -0.001000 -0.005901 0.011608 0.000000 0.000000 0.000000
# 4 0.000000 0.000000 0.000000 0.027372 0.000000 0.000000
# 5 0.000000 0.000000 0.000000 0.000000 0.029906 0.000000
# 6 0.000000 0.000000 0.000000 0.000000 0.000000 0.023725
#
#
# Mechanical properties :
#
#
# Convention : Reuss Voigt Hill
#
# Bulk Modulus (GPa) = 27.10429 31.04059 29.07244
# Shear Modulus (GPa) = 33.78430 36.47446 35.12938
#
# Velocity S-wave (km/s) = 3.65721 3.80003 3.72931
# Velocity P-wave (km/s) = 5.34455 5.61628 5.48210
#
# Compressibility (1/GPa) = 0.03689452
#
# Stress axis : x y z
#
# Youngs Moduli (GPa) = 72.55046 49.00907 86.14813
#
# Poissons Ratio (x) = -0.12011 0.08617
# Poissons Ratio (y) = -0.17780 0.50837
# Poissons Ratio (z) = 0.07257 0.28921
#
# Static dielectric constant tensor:
#      x y z
#    x 2.150910 0.000000 0.000000 
#    y 0.000000 2.121620 0.000000 
#    z 0.000000 0.000000 2.034760 
# 
# From -- ./inp_files/6279.got.cif
#   From: 2010.05.17/outbox.cif.g08.bks.cpg/sg41_4_cif.got.tgz:6279.got - 2010.06.03 18:54:24.
