data_PCOD9366909
_publ_section_title
;
Structure prediction by ZEFSAII (Michael W. Deem and Ramdas Pophale) SiO2 
 PCOD9366909
Probable space group: A B A 2
;
_chemical_formula_sum "Si O2"
_cell_formula_units_Z 48
_cell_length_a 8.955534
_cell_length_b 11.038145
_cell_length_c 23.644304
_cell_angle_alpha 90.000000
_cell_angle_beta 90.000000
_cell_angle_gamma 90.000000
_cell_volume 2337.298156
_symmetry_space_group_name_H-M "A B A 2"
_symmetry_group_IT_number 41
_symmetry_cell_setting 'orthorhombic'
loop_
_space_group_symop_operation_xyz
x,y,z
-x,-y,z
1/2-x,y,1/2+z
1/2+x,-y,1/2+z
x,1/2+y,1/2+z
-x,1/2-y,1/2+z
1/2-x,1/2+y,z
1/2+x,1/2-y,z
loop_
_atom_site_type_symbol
_atom_site_label
_atom_site_fract_x
_atom_site_fract_y
_atom_site_fract_z
Si Si1 0.268661 0.251289 0.467730
Si Si2 0.522948 0.358723 0.544082
Si Si3 0.522093 0.639376 0.891015
Si Si4 0.126620 0.790207 0.769143
Si Si5 0.174765 0.029503 0.235802
Si Si6 0.579026 0.870028 0.167469
O O1 0.374624 0.306866 0.515602
O O2 0.156920 0.162788 0.500466
O O3 0.161606 0.341044 0.433186
O O4 0.378001 0.192401 0.422116
O O5 0.500000 0.500000 0.551200
O O6 0.558733 0.308203 0.606708
O O7 0.500000 0.500000 0.881149
O O8 0.552417 0.694315 0.829907
O O9 0.192026 0.653221 0.772548
O O10 0.003730 0.797874 0.718196
O O11 0.237281 0.907036 0.756711
O O12 0.252004 0.086315 0.179666
O O13 0.000000 0.000000 0.230979
O O14 0.500000 0.000000 0.168160
#
# Coordination Sequence:
#
# PCOD9366909 Si02
#       6
#     8   8   8   8   8   8
#     4  10  24  41  65  95 122 179 221 269 331 389
#     4  10  21  44  65  93 130 169 220 273 325 394
#     4  11  24  42  66  94 134 171 219 279 327 401
#     4  11  25  44  67 102 138 172 220 273 341 399
#     4  11  24  42  67 104 133 174 220 267 340 406
#     4   9  21  41  65  94 133 171 210 276 330 392
#
# _framework density 20.536532999999999
#
# number of rings (size 3 to 8) (size 9 to 14) (size 15 to 20)
#    0.000    1.667    0.000    3.500    9.333    0.000 
#    3.000    0.833    0.000    0.000    0.000    0.000 
#    0.000    0.000    0.000    0.000    0.000    0.000 
#
# Total GULP energy -133780.600337 kJ/mol
# GULP energy per Si atom -5574.191681 kJ/mol
# Density = 2.048979 g / cm^3
# Si number density = 20.536533 Si / 1000 Ang^3
#
#
#
# Elastic Constant Matrix: (Units=GPa)
#
#
# Indices 1 2 3 4 5 6 
#
# 1 117.0005 23.5278 38.7904 0.0000 0.0000 0.0000
# 2 23.5278 88.6988 13.2569 0.0000 0.0000 0.0000
# 3 38.7904 13.2569 128.9083 0.0000 0.0000 0.0000
# 4 0.0000 0.0000 0.0000 34.0733 0.0000 0.0000
# 5 0.0000 0.0000 0.0000 0.0000 22.3870 0.0000
# 6 0.0000 0.0000 0.0000 0.0000 0.0000 12.6212
#
#
#
# Elastic Compliance Matrix: (Units=1/GPa)
#
#
# Indices 1 2 3 4 5 6 
#
# 1 0.009905 -0.002216 -0.002753 0.000000 0.000000 0.000000
# 2 -0.002216 0.011946 -0.000562 0.000000 0.000000 0.000000
# 3 -0.002753 -0.000562 0.008644 0.000000 0.000000 0.000000
# 4 0.000000 0.000000 0.000000 0.029349 0.000000 0.000000
# 5 0.000000 0.000000 0.000000 0.000000 0.044669 0.000000
# 6 0.000000 0.000000 0.000000 0.000000 0.000000 0.079232
#
#
# Mechanical properties :
#
#
# Convention : Reuss Voigt Hill
#
# Bulk Modulus (GPa) = 51.45668 53.97309 52.71489
# Shear Modulus (GPa) = 24.84070 31.08511 27.96291
#
# Velocity S-wave (km/s) = 3.48168 3.89479 3.69401
# Velocity P-wave (km/s) = 6.42444 6.82381 6.62713
#
# Compressibility (1/GPa) = 0.01943382
#
# Stress axis : x y z
#
# Youngs Moduli (GPa) = 100.95667 83.71100 115.69305
#
# Poissons Ratio (x) = 0.18550 0.31847
# Poissons Ratio (y) = 0.22372 0.06498
# Poissons Ratio (z) = 0.27791 0.04702
#
# Static dielectric constant tensor:
#      x y z
#    x 1.774310 0.000000 0.000000 
#    y 0.000000 1.710560 0.000000 
#    z 0.000000 0.000000 1.756570 
# 
# From -- ./inp_files/11956.got.cif
#   From: 2010.05.17/outbox.cif.g08.bks.cpg/sg41_6_cif.got.tgz:11956.got - 2010.06.03 18:54:24.
