data_PCOD9366035
_publ_section_title
;
Structure prediction by ZEFSAII (Michael W. Deem and Ramdas Pophale) SiO2 
 PCOD9366035
Probable space group: A B A 2
;
_chemical_formula_sum "Si O2"
_cell_formula_units_Z 56
_cell_length_a 22.014885
_cell_length_b 25.183005
_cell_length_c 5.287172
_cell_angle_alpha 90.000000
_cell_angle_beta 90.000000
_cell_angle_gamma 90.000000
_cell_volume 2931.213227
_symmetry_space_group_name_H-M "A B A 2"
_symmetry_group_IT_number 41
_symmetry_cell_setting 'orthorhombic'
loop_
_space_group_symop_operation_xyz
x,y,z
-x,-y,z
1/2-x,y,1/2+z
1/2+x,-y,1/2+z
x,1/2+y,1/2+z
-x,1/2-y,1/2+z
1/2-x,1/2+y,z
1/2+x,1/2-y,z
loop_
_atom_site_type_symbol
_atom_site_label
_atom_site_fract_x
_atom_site_fract_y
_atom_site_fract_z
Si Si1 0.589104 0.412207 0.359820
Si Si2 0.545935 0.805200 0.660569
Si Si3 0.407228 0.479633 0.085753
Si Si4 0.457821 0.925997 0.095023
Si Si5 0.216933 0.562793 0.092520
Si Si6 0.536859 0.689445 0.659163
Si Si7 0.732010 0.555171 0.066296
O O1 0.588205 0.355086 0.223899
O O2 0.587462 0.458374 0.149324
O O3 0.529173 0.418492 0.533535
O O4 0.648886 0.422141 0.524604
O O5 0.572108 0.745392 0.677210
O O6 0.511048 0.812253 0.393531
O O7 0.497076 0.807249 0.889102
O O8 0.431294 0.450218 0.337308
O O9 0.442761 0.461956 0.835892
O O10 0.337065 0.463616 0.054187
O O11 0.431080 0.867553 0.156330
O O12 0.259987 0.581764 0.863464
O O13 0.226207 0.498557 0.084876
O O14 0.753725 0.585435 0.821354
#
# Coordination Sequence:
#
# PCOD9366035 Si02
#       7
#     8   8   8   8   8   8   8
#     4  11  23  38  56  86 119 144 190 224 300 337
#     4   9  19  33  59  77 103 150 179 235 253 334
#     4  12  24  37  54  83 121 148 181 223 292 341
#     4  11  25  36  53  84 121 158 174 231 276 354
#     4  10  21  36  56  74 107 147 186 239 265 335
#     4   9  18  38  52  76 112 145 195 205 268 324
#     4  10  19  38  56  72 103 148 193 230 259 328
#
# _framework density 19.104717999999998
#
# number of rings (size 3 to 8) (size 9 to 14) (size 15 to 20)
#    0.000    1.714    2.857    3.000    2.000    9.143 
#    0.000    0.000    0.000    0.000    0.000    6.000 
#    0.000    0.000    0.000    0.000    0.000    0.000 
#
# Total GULP energy -156279.657120 kJ/mol
# GULP energy per Si atom -5581.416326 kJ/mol
# Density = 1.906123 g / cm^3
# Si number density = 19.104718 Si / 1000 Ang^3
#
#
#
# Elastic Constant Matrix: (Units=GPa)
#
#
# Indices 1 2 3 4 5 6 
#
# 1 75.5541 25.8623 26.3490 0.0000 0.0000 0.0000
# 2 25.8623 97.8916 20.7103 0.0000 0.0000 0.0000
# 3 26.3490 20.7103 133.3573 0.0000 0.0000 0.0000
# 4 0.0000 0.0000 0.0000 25.4241 0.0000 0.0000
# 5 0.0000 0.0000 0.0000 0.0000 17.0149 0.0000
# 6 0.0000 0.0000 0.0000 0.0000 0.0000 3.2936
#
#
#
# Elastic Compliance Matrix: (Units=1/GPa)
#
#
# Indices 1 2 3 4 5 6 
#
# 1 0.015304 -0.003519 -0.002477 0.000000 0.000000 0.000000
# 2 -0.003519 0.011372 -0.001071 0.000000 0.000000 0.000000
# 3 -0.002477 -0.001071 0.008154 0.000000 0.000000 0.000000
# 4 0.000000 0.000000 0.000000 0.039333 0.000000 0.000000
# 5 0.000000 0.000000 0.000000 0.000000 0.058772 0.000000
# 6 0.000000 0.000000 0.000000 0.000000 0.000000 0.303621
#
#
# Mechanical properties :
#
#
# Convention : Reuss Voigt Hill
#
# Bulk Modulus (GPa) = 48.31878 50.29403 49.30641
# Shear Modulus (GPa) = 10.92684 24.73861 17.83273
#
# Velocity S-wave (km/s) = 2.39413 3.60237 3.05851
# Velocity P-wave (km/s) = 5.74360 6.60949 6.19170
#
# Compressibility (1/GPa) = 0.02069589
#
# Stress axis : x y z
#
# Youngs Moduli (GPa) = 65.34200 87.93816 122.63327
#
# Poissons Ratio (x) = 0.30947 0.30380
# Poissons Ratio (y) = 0.22995 0.13130
# Poissons Ratio (z) = 0.16187 0.09415
#
# Static dielectric constant tensor:
#      x y z
#    x 1.663480 0.000000 0.000000 
#    y 0.000000 1.711360 0.000000 
#    z 0.000000 0.000000 1.747840 
# 
# From -- ./inp_files/755.got.cif
#   From: 2010.05.17/outbox.cif.g08.bks.cpg/sg41_1_cif.got.tgz:755.got - 2010.06.03 18:54:24.
