data_PCOD9366810
_publ_section_title
;
Structure prediction by ZEFSAII (Michael W. Deem and Ramdas Pophale) SiO2 
 PCOD9366810
Probable space group: A B A 2
;
_chemical_formula_sum "Si O2"
_cell_formula_units_Z 64
_cell_length_a 20.063244
_cell_length_b 9.554304
_cell_length_c 15.142279
_cell_angle_alpha 90.000000
_cell_angle_beta 90.000000
_cell_angle_gamma 90.000000
_cell_volume 2902.628495
_symmetry_space_group_name_H-M "A B A 2"
_symmetry_group_IT_number 41
_symmetry_cell_setting 'orthorhombic'
loop_
_space_group_symop_operation_xyz
x,y,z
-x,-y,z
1/2-x,y,1/2+z
1/2+x,-y,1/2+z
x,1/2+y,1/2+z
-x,1/2-y,1/2+z
1/2-x,1/2+y,z
1/2+x,1/2-y,z
loop_
_atom_site_type_symbol
_atom_site_label
_atom_site_fract_x
_atom_site_fract_y
_atom_site_fract_z
Si Si1 0.036249 0.856425 0.442820
Si Si2 0.700053 0.708558 0.023576
Si Si3 0.280745 0.535068 0.291641
Si Si4 0.111133 0.477078 0.648615
Si Si5 0.325848 0.328514 0.816207
Si Si6 0.987236 0.281658 0.622382
Si Si7 0.679567 0.527238 0.494941
Si Si8 0.983413 0.153357 0.800359
O O1 0.001879 0.773719 0.523859
O O2 0.107150 0.905644 0.481283
O O3 0.028861 0.759486 0.356780
O O4 0.000000 0.000000 0.420113
O O5 0.687215 0.685569 0.920126
O O6 0.774091 0.646611 0.038263
O O7 0.686547 0.873950 0.041807
O O8 0.652702 0.599740 0.072973
O O9 0.340840 0.474338 0.233152
O O10 0.208327 0.467403 0.277452
O O11 0.285336 0.699698 0.274289
O O12 0.296807 0.505553 0.394392
O O13 0.082396 0.631979 0.627816
O O14 0.045000 0.385178 0.654213
O O15 0.404942 0.314235 0.809554
O O16 0.992254 0.161997 0.695353
O O17 0.000000 0.000000 0.834533
#
# Coordination Sequence:
#
# PCOD9366810 Si02
#       8
#     8   8   8   8   8   8   8   8
#     4  12  26  45  74 101 142 191 239 295 368 436
#     4  10  23  40  66  98 140 176 233 298 340 438
#     4  10  21  41  66  94 132 180 225 294 336 436
#     4  11  23  41  69  99 137 183 234 287 368 410
#     4  10  22  42  64  97 135 177 232 278 357 414
#     4  11  26  43  68 101 145 180 238 297 352 437
#     4  10  23  42  68  98 135 184 237 283 367 424
#     4  12  27  44  73 105 144 184 238 304 363 429
#
# _framework density 22.048981000000001
#
# number of rings (size 3 to 8) (size 9 to 14) (size 15 to 20)
#    0.000    1.250    1.250    4.125    7.000    6.000 
#    0.000    0.000    0.000    0.000    0.000    0.000 
#    0.000    0.000    0.000    0.000    0.000    0.000 
#
# Total GULP energy -178617.051464 kJ/mol
# GULP energy per Si atom -5581.782858 kJ/mol
# Density = 2.199880 g / cm^3
# Si number density = 22.048981 Si / 1000 Ang^3
#
#
#
# Elastic Constant Matrix: (Units=GPa)
#
#
# Indices 1 2 3 4 5 6 
#
# 1 76.2457 34.3483 -5.4464 0.0000 0.0000 0.0000
# 2 34.3483 121.4113 30.2741 0.0000 0.0000 0.0000
# 3 -5.4464 30.2741 51.6374 0.0000 0.0000 0.0000
# 4 0.0000 0.0000 0.0000 21.6351 0.0000 0.0000
# 5 0.0000 0.0000 0.0000 0.0000 26.3965 0.0000
# 6 0.0000 0.0000 0.0000 0.0000 0.0000 27.3422
#
#
#
# Elastic Compliance Matrix: (Units=1/GPa)
#
#
# Indices 1 2 3 4 5 6 
#
# 1 0.016109 -0.005834 0.005120 0.000000 0.000000 0.000000
# 2 -0.005834 0.011760 -0.007510 0.000000 0.000000 0.000000
# 3 0.005120 -0.007510 0.024309 0.000000 0.000000 0.000000
# 4 0.000000 0.000000 0.000000 0.046221 0.000000 0.000000
# 5 0.000000 0.000000 0.000000 0.000000 0.037884 0.000000
# 6 0.000000 0.000000 0.000000 0.000000 0.000000 0.036574
#
#
# Mechanical properties :
#
#
# Convention : Reuss Voigt Hill
#
# Bulk Modulus (GPa) = 27.98842 40.84957 34.41900
# Shear Modulus (GPa) = 24.84913 27.74932 26.29922
#
# Velocity S-wave (km/s) = 3.36072 3.55143 3.45739
# Velocity P-wave (km/s) = 5.27073 5.94843 5.61980
#
# Compressibility (1/GPa) = 0.03572906
#
# Stress axis : x y z
#
# Youngs Moduli (GPa) = 62.07550 85.03735 41.13763
#
# Poissons Ratio (x) = 0.49611 -0.21061
# Poissons Ratio (y) = 0.36215 0.30893
# Poissons Ratio (z) = -0.31780 0.63861
#
# Static dielectric constant tensor:
#      x y z
#    x 1.828050 0.000000 0.000000 
#    y 0.000000 1.864230 0.000000 
#    z 0.000000 0.000000 1.799440 
# 
# From -- ./inp_files/10687.got.cif
#   From: 2010.05.17/outbox.cif.g08.bks.cpg/sg41_6_cif.got.tgz:10687.got - 2010.06.03 18:54:24.
