data_PCOD9366544
_publ_section_title
;
Structure prediction by ZEFSAII (Michael W. Deem and Ramdas Pophale) SiO2 
 PCOD9366544
Probable space group: A B A 2
;
_chemical_formula_sum "Si O2"
_cell_formula_units_Z 60
_cell_length_a 11.290054
_cell_length_b 14.357025
_cell_length_c 19.759998
_cell_angle_alpha 90.000000
_cell_angle_beta 90.000000
_cell_angle_gamma 90.000000
_cell_volume 3202.929445
_symmetry_space_group_name_H-M "A B A 2"
_symmetry_group_IT_number 41
_symmetry_cell_setting 'orthorhombic'
loop_
_space_group_symop_operation_xyz
x,y,z
-x,-y,z
1/2-x,y,1/2+z
1/2+x,-y,1/2+z
x,1/2+y,1/2+z
-x,1/2-y,1/2+z
1/2-x,1/2+y,z
1/2+x,1/2-y,z
loop_
_atom_site_type_symbol
_atom_site_label
_atom_site_fract_x
_atom_site_fract_y
_atom_site_fract_z
Si Si1 0.000000 0.500000 0.766280
Si Si2 0.899632 0.832621 0.176157
Si Si3 0.830165 0.433701 0.122106
Si Si4 0.597594 0.638033 0.634803
Si Si5 0.011824 0.395460 0.543604
Si Si6 0.237203 0.826501 0.496177
Si Si7 0.768611 0.886916 0.976895
Si Si8 0.370303 0.972137 0.897278
O O1 0.041315 0.591312 0.725327
O O2 0.103994 0.467310 0.817687
O O3 0.770330 0.873309 0.158547
O O4 0.888141 0.721886 0.188765
O O5 0.978925 0.833099 0.107645
O O6 0.838279 0.539210 0.149600
O O7 0.959447 0.387914 0.126736
O O8 0.789399 0.434303 0.043610
O O9 0.655376 0.669887 0.563206
O O10 0.139850 0.375713 0.514925
O O11 0.000000 0.500000 0.570664
O O12 0.909646 0.387426 0.487488
O O13 0.266269 0.720666 0.477220
O O14 0.174499 0.880556 0.435053
O O15 0.720591 0.945576 0.914687
O O16 0.500000 0.000000 0.926693
#
# Coordination Sequence:
#
# PCOD9366544 Si02
#       8
#     4   8   8   8   8   8   8   8
#     4  10  26  42  66  82 124 184 220 250 304 404
#     4  11  22  39  61  92 123 166 221 254 322 394
#     4  10  21  36  58  99 131 158 197 278 339 379
#     4  11  21  34  61  97 130 163 196 271 341 379
#     4  11  20  33  57  94 125 150 190 284 328 360
#     4  12  21  34  62  99 127 160 208 264 342 386
#     4  11  21  34  59  92 130 156 207 260 330 386
#     4  10  23  42  60  82 122 178 213 255 310 392
#
# _framework density 18.732849999999999
#
# number of rings (size 3 to 8) (size 9 to 14) (size 15 to 20)
#    0.400    0.800    6.000    2.400    1.867    0.000 
#    0.000    2.667    0.000    3.200    0.000    0.000 
#    0.000    0.000    0.000    0.000    0.000    0.000 
#
# Total GULP energy -167321.186618 kJ/mol
# GULP energy per Si atom -5577.372887 kJ/mol
# Density = 1.869021 g / cm^3
# Si number density = 18.732850 Si / 1000 Ang^3
#
#
#
# Elastic Constant Matrix: (Units=GPa)
#
#
# Indices 1 2 3 4 5 6 
#
# 1 85.4268 31.5690 44.4147 0.0000 0.0000 0.0000
# 2 31.5690 137.5615 30.7354 0.0000 0.0000 0.0000
# 3 44.4147 30.7354 53.8876 0.0000 0.0000 0.0000
# 4 0.0000 0.0000 0.0000 17.2955 0.0000 0.0000
# 5 0.0000 0.0000 0.0000 0.0000 26.2747 0.0000
# 6 0.0000 0.0000 0.0000 0.0000 0.0000 23.8044
#
#
#
# Elastic Compliance Matrix: (Units=1/GPa)
#
#
# Indices 1 2 3 4 5 6 
#
# 1 0.020620 -0.001071 -0.016384 0.000000 0.000000 0.000000
# 2 -0.001071 0.008387 -0.003900 0.000000 0.000000 0.000000
# 3 -0.016384 -0.003900 0.034286 0.000000 0.000000 0.000000
# 4 0.000000 0.000000 0.000000 0.057819 0.000000 0.000000
# 5 0.000000 0.000000 0.000000 0.000000 0.038059 0.000000
# 6 0.000000 0.000000 0.000000 0.000000 0.000000 0.042009
#
#
# Mechanical properties :
#
#
# Convention : Reuss Voigt Hill
#
# Bulk Modulus (GPa) = 48.58933 54.47934 51.53434
# Shear Modulus (GPa) = 19.93992 24.81870 22.37931
#
# Velocity S-wave (km/s) = 3.26611 3.64383 3.46013
# Velocity P-wave (km/s) = 6.34174 6.84461 6.59797
#
# Compressibility (1/GPa) = 0.02058065
#
# Stress axis : x y z
#
# Youngs Moduli (GPa) = 48.49572 119.23454 29.16638
#
# Poissons Ratio (x) = 0.12775 0.47787
# Poissons Ratio (y) = 0.05196 0.11376
# Poissons Ratio (z) = 0.79458 0.46507
#
# Static dielectric constant tensor:
#      x y z
#    x 1.659820 0.000000 0.000000 
#    y 0.000000 1.737770 0.000000 
#    z 0.000000 0.000000 1.630220 
# 
# From -- ./inp_files/11443.got.cif
#   From: 2010.05.17/outbox.cif.g08.bks.cpg/sg41_6_cif.got.tgz:11443.got - 2010.06.03 18:54:24.
