data_PCOD9366795
_publ_section_title
;
Structure prediction by ZEFSAII (Michael W. Deem and Ramdas Pophale) SiO2 
 PCOD9366795
Probable space group: A B A 2
;
_chemical_formula_sum "Si O2"
_cell_formula_units_Z 60
_cell_length_a 13.689627
_cell_length_b 22.963499
_cell_length_c 6.850434
_cell_angle_alpha 90.000000
_cell_angle_beta 90.000000
_cell_angle_gamma 90.000000
_cell_volume 2153.514324
_symmetry_space_group_name_H-M "A B A 2"
_symmetry_group_IT_number 41
_symmetry_cell_setting 'orthorhombic'
loop_
_space_group_symop_operation_xyz
x,y,z
-x,-y,z
1/2-x,y,1/2+z
1/2+x,-y,1/2+z
x,1/2+y,1/2+z
-x,1/2-y,1/2+z
1/2-x,1/2+y,z
1/2+x,1/2-y,z
loop_
_atom_site_type_symbol
_atom_site_label
_atom_site_fract_x
_atom_site_fract_y
_atom_site_fract_z
Si Si1 0.823216 0.397175 0.151680
Si Si2 0.119206 0.259502 0.450667
Si Si3 0.927029 0.206898 0.398397
Si Si4 0.500000 0.500000 0.954486
Si Si5 0.851698 0.465656 0.794498
Si Si6 0.164782 0.906614 0.322010
Si Si7 0.109288 0.390553 0.373421
Si Si8 0.317895 0.691351 0.953096
O O1 0.761858 0.450667 0.244063
O O2 0.871546 0.352472 0.301545
O O3 0.878500 0.418960 0.960567
O O4 0.731989 0.355579 0.091543
O O5 0.111894 0.273851 0.683414
O O6 0.091562 0.321329 0.353084
O O7 0.225789 0.233951 0.402593
O O8 0.042092 0.208787 0.410532
O O9 0.879161 0.145710 0.446436
O O10 0.893813 0.261700 0.528513
O O11 0.582187 0.471899 0.100826
O O12 0.460070 0.445679 0.826389
O O13 0.857410 0.528956 0.891191
O O14 0.117183 0.899352 0.109441
O O15 0.280456 0.900685 0.301068
#
# Coordination Sequence:
#
# PCOD9366795 Si02
#       8
#     8   8   8   4   8   8   8   8
#     4  10  23  38  69  87 129 170 223 265 335 401
#     4  11  25  41  67 102 137 178 228 277 351 406
#     4  11  25  41  65 101 133 178 223 282 336 406
#     4  10  22  38  66  96 136 172 232 282 344 398
#     4  10  21  41  64  95 122 177 219 278 337 404
#     4  10  21  41  68  93 131 171 227 266 345 404
#     4  10  22  41  67  96 133 181 221 282 336 414
#     4  11  22  43  63  96 133 175 220 274 336 403
#
# _framework density 27.861436000000001
#
# number of rings (size 3 to 8) (size 9 to 14) (size 15 to 20)
#    0.000    1.600    2.667    1.600    3.733    6.400 
#    0.000    0.000    0.000    2.400    0.000    0.000 
#    0.000    0.000    0.000    0.000    0.000    0.000 
#
# Total GULP energy -167921.837881 kJ/mol
# GULP energy per Si atom -5597.394596 kJ/mol
# Density = 2.779802 g / cm^3
# Si number density = 27.861436 Si / 1000 Ang^3
#
#
#
# Elastic Constant Matrix: (Units=GPa)
#
#
# Indices 1 2 3 4 5 6 
#
# 1 108.9569 59.7573 10.3681 0.0000 0.0000 0.0000
# 2 59.7573 238.6560 42.5834 0.0000 0.0000 0.0000
# 3 10.3681 42.5834 64.3645 0.0000 0.0000 0.0000
# 4 0.0000 0.0000 0.0000 40.6979 0.0000 0.0000
# 5 0.0000 0.0000 0.0000 0.0000 0.8266 0.0000
# 6 0.0000 0.0000 0.0000 0.0000 0.0000 85.7653
#
#
#
# Elastic Compliance Matrix: (Units=1/GPa)
#
#
# Indices 1 2 3 4 5 6 
#
# 1 0.010639 -0.002674 0.000055 0.000000 0.000000 0.000000
# 2 -0.002674 0.005423 -0.003157 0.000000 0.000000 0.000000
# 3 0.000055 -0.003157 0.017616 0.000000 0.000000 0.000000
# 4 0.000000 0.000000 0.000000 0.024571 0.000000 0.000000
# 5 0.000000 0.000000 0.000000 0.000000 1.209781 0.000000
# 6 0.000000 0.000000 0.000000 0.000000 0.000000 0.011660
#
#
# Mechanical properties :
#
#
# Convention : Reuss Voigt Hill
#
# Bulk Modulus (GPa) = 45.19365 70.82166 58.00765
# Shear Modulus (GPa) = 3.85025 45.40920 24.62972
#
# Velocity S-wave (km/s) = 1.17683 4.04149 2.97645
# Velocity P-wave (km/s) = 4.25472 6.87405 5.71643
#
# Compressibility (1/GPa) = 0.02212700
#
# Stress axis : x y z
#
# Youngs Moduli (GPa) = 93.99266 184.40163 56.76547
#
# Poissons Ratio (x) = 0.49305 -0.00313
# Poissons Ratio (y) = 0.25132 0.17921
# Poissons Ratio (z) = -0.00519 0.58217
#
# Static dielectric constant tensor:
#      x y z
#    x 2.102290 0.000000 0.000000 
#    y 0.000000 2.121020 0.000000 
#    z 0.000000 0.000000 2.272600 
# 
# From -- ./inp_files/2758.got.cif
#   From: 2010.05.17/outbox.cif.g08.bks.cpg/sg41_2_cif.got.tgz:2758.got - 2010.06.03 18:54:24.
