data_PCOD9366406
_publ_section_title
;
Structure prediction by ZEFSAII (Michael W. Deem and Ramdas Pophale) SiO2 
 PCOD9366406
Probable space group: A B A 2
;
_chemical_formula_sum "Si O2"
_cell_formula_units_Z 60
_cell_length_a 11.976604
_cell_length_b 25.790959
_cell_length_c 8.892419
_cell_angle_alpha 90.000000
_cell_angle_beta 90.000000
_cell_angle_gamma 90.000000
_cell_volume 2746.762434
_symmetry_space_group_name_H-M "A B A 2"
_symmetry_group_IT_number 41
_symmetry_cell_setting 'orthorhombic'
loop_
_space_group_symop_operation_xyz
x,y,z
-x,-y,z
1/2-x,y,1/2+z
1/2+x,-y,1/2+z
x,1/2+y,1/2+z
-x,1/2-y,1/2+z
1/2-x,1/2+y,z
1/2+x,1/2-y,z
loop_
_atom_site_type_symbol
_atom_site_label
_atom_site_fract_x
_atom_site_fract_y
_atom_site_fract_z
Si Si1 0.627251 0.572052 0.290160
Si Si2 0.913968 0.163559 0.815754
Si Si3 0.387397 0.237587 0.332299
Si Si4 0.222944 0.683847 0.623518
Si Si5 0.500000 0.000000 0.981591
Si Si6 0.747006 0.128398 0.060899
Si Si7 0.913432 0.393703 0.125692
Si Si8 0.487085 0.160727 0.824296
O O1 0.594744 0.519014 0.365416
O O2 0.673548 0.605050 0.429423
O O3 0.712771 0.578247 0.156278
O O4 0.521734 0.606989 0.243358
O O5 0.823715 0.161955 0.680008
O O6 0.988141 0.214377 0.825372
O O7 0.008605 0.120921 0.768645
O O8 0.849240 0.154629 0.971898
O O9 0.317089 0.222482 0.186485
O O10 0.323056 0.207791 0.467433
O O11 0.411475 0.298466 0.336693
O O12 0.285193 0.626997 0.636423
O O13 0.117087 0.682655 0.733347
O O14 0.551984 0.951999 0.075986
O O15 0.952119 0.355961 0.990563
#
# Coordination Sequence:
#
# PCOD9366406 Si02
#       8
#     8   8   8   8   4   8   8   8
#     4  10  22  40  64  93 129 163 219 275 330 404
#     4  10  21  42  64  95 134 168 224 283 337 410
#     4  11  26  40  65  96 136 180 231 272 347 413
#     4  11  24  44  64  97 136 185 228 283 342 412
#     4  10  20  44  70  90 136 178 212 290 346 400
#     4  10  20  40  66  93 126 165 211 281 332 390
#     4  10  22  46  63  97 137 177 227 288 336 408
#     4  11  23  41  62  93 138 174 222 282 336 407
#
# _framework density 21.843897999999999
#
# number of rings (size 3 to 8) (size 9 to 14) (size 15 to 20)
#    0.000    1.600    4.000    0.800    3.733    3.200 
#    7.200    0.667    0.000    0.000    0.000    0.000 
#    0.000    0.000    0.000    0.000    0.000    0.000 
#
# Total GULP energy -167293.906841 kJ/mol
# GULP energy per Si atom -5576.463561 kJ/mol
# Density = 2.179418 g / cm^3
# Si number density = 21.843898 Si / 1000 Ang^3
#
#
#
# Elastic Constant Matrix: (Units=GPa)
#
#
# Indices 1 2 3 4 5 6 
#
# 1 94.7933 31.7336 39.6429 0.0000 0.0000 0.0000
# 2 31.7336 105.8254 30.0774 0.0000 0.0000 0.0000
# 3 39.6429 30.0774 86.0514 0.0000 0.0000 0.0000
# 4 0.0000 0.0000 0.0000 1.6615 0.0000 0.0000
# 5 0.0000 0.0000 0.0000 0.0000 45.7045 0.0000
# 6 0.0000 0.0000 0.0000 0.0000 0.0000 25.5809
#
#
#
# Elastic Compliance Matrix: (Units=1/GPa)
#
#
# Indices 1 2 3 4 5 6 
#
# 1 0.013665 -0.002563 -0.005400 0.000000 0.000000 0.000000
# 2 -0.002563 0.010973 -0.002654 0.000000 0.000000 0.000000
# 3 -0.005400 -0.002654 0.015036 0.000000 0.000000 0.000000
# 4 0.000000 0.000000 0.000000 0.601866 0.000000 0.000000
# 5 0.000000 0.000000 0.000000 0.000000 0.021880 0.000000
# 6 0.000000 0.000000 0.000000 0.000000 0.000000 0.039092
#
#
# Mechanical properties :
#
#
# Convention : Reuss Voigt Hill
#
# Bulk Modulus (GPa) = 54.23011 54.39756 54.31383
# Shear Modulus (GPa) = 6.85032 26.93713 16.89373
#
# Velocity S-wave (km/s) = 1.77281 3.51545 2.78400
# Velocity P-wave (km/s) = 5.39171 6.43699 5.93740
#
# Compressibility (1/GPa) = 0.01843994
#
# Stress axis : x y z
#
# Youngs Moduli (GPa) = 73.17714 91.13645 66.50573
#
# Poissons Ratio (x) = 0.23360 0.35911
# Poissons Ratio (y) = 0.18757 0.17653
# Poissons Ratio (z) = 0.39513 0.24191
#
# Static dielectric constant tensor:
#      x y z
#    x 1.956280 0.000000 0.000000 
#    y 0.000000 1.855810 0.000000 
#    z 0.000000 0.000000 1.817050 
# 
# From -- ./inp_files/2181.got.cif
#   From: 2010.05.17/outbox.cif.g08.bks.cpg/sg41_2_cif.got.tgz:2181.got - 2010.06.03 18:54:24.
