data_PCOD9366144
_publ_section_title
;
Structure prediction by ZEFSAII (Michael W. Deem and Ramdas Pophale) SiO2 
 PCOD9366144
Probable space group: A B A 2
;
_chemical_formula_sum "Si O2"
_cell_formula_units_Z 36
_cell_length_a 16.767226
_cell_length_b 22.051983
_cell_length_c 4.764247
_cell_angle_alpha 90.000000
_cell_angle_beta 90.000000
_cell_angle_gamma 90.000000
_cell_volume 1761.583104
_symmetry_space_group_name_H-M "A B A 2"
_symmetry_group_IT_number 41
_symmetry_cell_setting 'orthorhombic'
loop_
_space_group_symop_operation_xyz
x,y,z
-x,-y,z
1/2-x,y,1/2+z
1/2+x,-y,1/2+z
x,1/2+y,1/2+z
-x,1/2-y,1/2+z
1/2-x,1/2+y,z
1/2+x,1/2-y,z
loop_
_atom_site_type_symbol
_atom_site_label
_atom_site_fract_x
_atom_site_fract_y
_atom_site_fract_z
Si Si1 0.473247 0.289865 0.290820
Si Si2 0.303115 0.621740 0.882400
Si Si3 0.961754 0.421398 0.636626
Si Si4 0.804340 0.236447 0.492092
Si Si5 0.000000 0.000000 0.659382
O O1 0.524944 0.254879 0.524726
O O2 0.510229 0.354270 0.215187
O O3 0.383909 0.297853 0.406343
O O4 0.223260 0.611733 0.065025
O O5 0.376587 0.582269 0.983910
O O6 0.323503 0.692342 0.940751
O O7 0.021821 0.449371 0.398629
O O8 0.954010 0.459933 0.923517
O O9 0.773585 0.224626 0.802973
#
# Coordination Sequence:
#
# PCOD9366144 Si02
#       5
#     8   8   8   8   4
#     4  12  23  36  63  95 122 157 196 253 309 376
#     4  10  20  34  59  89 123 154 192 255 317 356
#     4  11  22  41  61  89 123 159 212 252 300 357
#     4  10  21  36  54  88 132 160 187 237 316 382
#     4  10  24  40  62  80 116 164 206 254 296 340
#
# _framework density 20.436164000000002
#
# number of rings (size 3 to 8) (size 9 to 14) (size 15 to 20)
#    0.000    1.333    2.222    4.000    6.222    0.000 
#    0.000    0.000    0.000   26.667    0.000    0.000 
#    0.000    0.000    0.000    0.000    0.000    0.000 
#
# Total GULP energy -100322.371752 kJ/mol
# GULP energy per Si atom -5573.465097 kJ/mol
# Density = 2.038965 g / cm^3
# Si number density = 20.436164 Si / 1000 Ang^3
#
#
#
# Elastic Constant Matrix: (Units=GPa)
#
#
# Indices 1 2 3 4 5 6 
#
# 1 64.4228 32.0067 7.5087 0.0000 0.0000 0.0000
# 2 32.0067 54.9796 10.4228 0.0000 0.0000 0.0000
# 3 7.5087 10.4228 86.9875 0.0000 0.0000 0.0000
# 4 0.0000 0.0000 0.0000 35.5098 0.0000 0.0000
# 5 0.0000 0.0000 0.0000 0.0000 2.2942 0.0000
# 6 0.0000 0.0000 0.0000 0.0000 0.0000 5.1922
#
#
#
# Elastic Compliance Matrix: (Units=1/GPa)
#
#
# Indices 1 2 3 4 5 6 
#
# 1 0.021851 -0.012650 -0.000370 0.000000 0.000000 0.000000
# 2 -0.012650 0.025935 -0.002016 0.000000 0.000000 0.000000
# 3 -0.000370 -0.002016 0.011769 0.000000 0.000000 0.000000
# 4 0.000000 0.000000 0.000000 0.028161 0.000000 0.000000
# 5 0.000000 0.000000 0.000000 0.000000 0.435881 0.000000
# 6 0.000000 0.000000 0.000000 0.000000 0.000000 0.192598
#
#
# Mechanical properties :
#
#
# Convention : Reuss Voigt Hill
#
# Bulk Modulus (GPa) = 33.91824 34.02959 33.97391
# Shear Modulus (GPa) = 6.61293 19.02934 12.82113
#
# Velocity S-wave (km/s) = 1.80081 3.05480 2.50746
# Velocity P-wave (km/s) = 4.57789 5.39724 5.00436
#
# Compressibility (1/GPa) = 0.02948267
#
# Stress axis : x y z
#
# Youngs Moduli (GPa) = 45.76550 38.55787 84.96619
#
# Poissons Ratio (x) = 0.48776 0.03147
# Poissons Ratio (y) = 0.57894 0.17126
# Poissons Ratio (z) = 0.01695 0.07772
#
# Static dielectric constant tensor:
#      x y z
#    x 1.743860 0.000000 0.000000 
#    y 0.000000 1.739570 0.000000 
#    z 0.000000 0.000000 1.757000 
# 
# From -- ./inp_files/217.got.cif
#   From: 2010.05.17/outbox.cif.g08.bks.cpg/sg41_1_cif.got.tgz:217.got - 2010.06.03 18:54:24.
