data_PCOD9366725
_publ_section_title
;
Structure prediction by ZEFSAII (Michael W. Deem and Ramdas Pophale) SiO2 
 PCOD9366725
Probable space group: A B A 2
;
_chemical_formula_sum "Si O2"
_cell_formula_units_Z 40
_cell_length_a 13.623198
_cell_length_b 14.162492
_cell_length_c 10.205399
_cell_angle_alpha 90.000000
_cell_angle_beta 90.000000
_cell_angle_gamma 90.000000
_cell_volume 1969.013688
_symmetry_space_group_name_H-M "A B A 2"
_symmetry_group_IT_number 41
_symmetry_cell_setting 'orthorhombic'
loop_
_space_group_symop_operation_xyz
x,y,z
-x,-y,z
1/2-x,y,1/2+z
1/2+x,-y,1/2+z
x,1/2+y,1/2+z
-x,1/2-y,1/2+z
1/2-x,1/2+y,z
1/2+x,1/2-y,z
loop_
_atom_site_type_symbol
_atom_site_label
_atom_site_fract_x
_atom_site_fract_y
_atom_site_fract_z
Si Si1 0.597886 0.284395 0.157780
Si Si2 0.916529 0.253074 0.963627
Si Si3 0.608114 0.489088 0.203383
Si Si4 0.604635 0.464699 0.512020
Si Si5 0.244564 0.871571 0.081379
O O1 0.561002 0.269450 0.308782
O O2 0.511263 0.275946 0.050102
O O3 0.645148 0.388922 0.149318
O O4 0.679856 0.206559 0.129776
O O5 0.828060 0.177560 0.976297
O O6 0.882923 0.352661 0.029424
O O7 0.500000 0.500000 0.143467
O O8 0.597767 0.474784 0.356539
O O9 0.669118 0.583518 0.184123
O O10 0.500000 0.500000 0.569972
O O11 0.690557 0.536647 0.547608
#
# Coordination Sequence:
#
# PCOD9366725 Si02
#       5
#     8   8   8   8   8
#     4  11  24  42  67  97 131 171 216 268 323 388
#     4  11  24  42  67  97 131 171 216 268 323 388
#     4  10  21  40  63  89 128 171 207 259 328 382
#     4  10  21  40  63  89 128 171 207 259 328 382
#     4  12  22  40  68  96 122 170 226 266 314 382
#
# _framework density 20.314738999999999
#
# number of rings (size 3 to 8) (size 9 to 14) (size 15 to 20)
#    0.000    1.200    4.000    2.400    0.000    1.600 
#    0.000    6.000    0.000    0.000    0.000    0.000 
#    0.000    0.000    0.000    0.000    0.000    0.000 
#
# Total GULP energy -111425.861557 kJ/mol
# GULP energy per Si atom -5571.293078 kJ/mol
# Density = 2.026850 g / cm^3
# Si number density = 20.314739 Si / 1000 Ang^3
#
#
#
# Elastic Constant Matrix: (Units=GPa)
#
#
# Indices 1 2 3 4 5 6 
#
# 1 94.4523 14.1229 16.8682 0.0000 0.0000 0.0000
# 2 14.1229 44.7065 -12.1903 0.0000 0.0000 0.0000
# 3 16.8682 -12.1903 49.3124 0.0000 0.0000 0.0000
# 4 0.0000 0.0000 0.0000 24.3175 0.0000 0.0000
# 5 0.0000 0.0000 0.0000 0.0000 16.6894 0.0000
# 6 0.0000 0.0000 0.0000 0.0000 0.0000 46.0605
#
#
#
# Elastic Compliance Matrix: (Units=1/GPa)
#
#
# Indices 1 2 3 4 5 6 
#
# 1 0.012398 -0.005440 -0.005586 0.000000 0.000000 0.000000
# 2 -0.005440 0.026372 0.008380 0.000000 0.000000 0.000000
# 3 -0.005586 0.008380 0.024261 0.000000 0.000000 0.000000
# 4 0.000000 0.000000 0.000000 0.041123 0.000000 0.000000
# 5 0.000000 0.000000 0.000000 0.000000 0.059918 0.000000
# 6 0.000000 0.000000 0.000000 0.000000 0.000000 0.021711
#
#
# Mechanical properties :
#
#
# Convention : Reuss Voigt Hill
#
# Bulk Modulus (GPa) = 17.31906 25.11918 21.21912
# Shear Modulus (GPa) = 23.77328 28.72485 26.24907
#
# Velocity S-wave (km/s) = 3.42460 3.76439 3.59851
# Velocity P-wave (km/s) = 4.91742 5.59339 5.26626
#
# Compressibility (1/GPa) = 0.05773985
#
# Stress axis : x y z
#
# Youngs Moduli (GPa) = 80.65632 37.91968 41.21812
#
# Poissons Ratio (x) = 0.20627 0.23024
# Poissons Ratio (y) = 0.43875 -0.34541
# Poissons Ratio (z) = 0.45053 -0.31777
#
# Static dielectric constant tensor:
#      x y z
#    x 1.799390 0.000000 0.000000 
#    y 0.000000 1.777220 0.000000 
#    z 0.000000 0.000000 1.700510 
# 
# From -- ./inp_files/2400.got.cif
#   From: 2010.05.17/outbox.cif.g08.bks.cpg/sg41_2_cif.got.tgz:2400.got - 2010.06.03 18:54:24.
