data_PCOD9366306
_publ_section_title
;
Structure prediction by ZEFSAII (Michael W. Deem and Ramdas Pophale) SiO2 
 PCOD9366306
Probable space group: A B A 2
;
_chemical_formula_sum "Si O2"
_cell_formula_units_Z 48
_cell_length_a 5.064897
_cell_length_b 23.288775
_cell_length_c 17.893038
_cell_angle_alpha 90.000000
_cell_angle_beta 90.000000
_cell_angle_gamma 90.000000
_cell_volume 2110.577710
_symmetry_space_group_name_H-M "A B A 2"
_symmetry_group_IT_number 41
_symmetry_cell_setting 'orthorhombic'
loop_
_space_group_symop_operation_xyz
x,y,z
-x,-y,z
1/2-x,y,1/2+z
1/2+x,-y,1/2+z
x,1/2+y,1/2+z
-x,1/2-y,1/2+z
1/2-x,1/2+y,z
1/2+x,1/2-y,z
loop_
_atom_site_type_symbol
_atom_site_label
_atom_site_fract_x
_atom_site_fract_y
_atom_site_fract_z
Si Si1 0.596648 0.820061 0.580980
Si Si2 0.000000 0.500000 0.786419
Si Si3 0.768507 0.282272 0.735987
Si Si4 0.000000 0.000000 0.679985
Si Si5 0.623108 0.607212 0.576677
Si Si6 0.086540 0.623687 0.845381
Si Si7 0.107169 0.853047 0.939189
O O1 0.710401 0.780939 0.646001
O O2 0.845193 0.861362 0.563924
O O3 0.482706 0.803782 0.499105
O O4 0.342210 0.852514 0.616349
O O5 0.748223 0.491222 0.733571
O O6 0.015344 0.440981 0.832899
O O7 0.983447 0.236627 0.762693
O O8 0.840695 0.344311 0.768328
O O9 0.934016 0.052872 0.626423
O O10 0.771468 0.599513 0.497252
O O11 0.352919 0.626123 0.894326
O O12 0.852211 0.658906 0.885620
#
# Coordination Sequence:
#
# PCOD9366306 Si02
#       7
#     8   4   8   4   8   8   8
#     4  10  21  44  65  96 129 168 236 276 354 390
#     4  12  28  41  68 103 140 196 216 290 338 415
#     4  12  26  44  72 103 136 182 231 294 346 411
#     4  12  22  39  60 103 132 174 236 278 340 405
#     4  10  20  38  67  92 129 175 222 280 343 391
#     4  12  24  47  67 100 147 178 240 269 357 421
#     4  10  22  43  69  94 135 184 219 298 335 416
#
# _framework density 22.74259
#
# number of rings (size 3 to 8) (size 9 to 14) (size 15 to 20)
#    1.000    0.000    1.667    6.000    0.000    0.667 
#    3.000    5.000    0.000    0.000    0.000    0.000 
#    0.000    0.000    0.000    0.000    0.000    0.000 
#
# Total GULP energy -133922.561269 kJ/mol
# GULP energy per Si atom -5580.106720 kJ/mol
# Density = 2.269083 g / cm^3
# Si number density = 22.742590 Si / 1000 Ang^3
#
#
#
# Elastic Constant Matrix: (Units=GPa)
#
#
# Indices 1 2 3 4 5 6 
#
# 1 141.9947 12.9805 37.6067 0.0000 0.0000 0.0000
# 2 12.9805 53.6513 27.2784 0.0000 0.0000 0.0000
# 3 37.6067 27.2784 96.0236 0.0000 0.0000 0.0000
# 4 0.0000 0.0000 0.0000 18.0758 0.0000 0.0000
# 5 0.0000 0.0000 0.0000 0.0000 42.7413 0.0000
# 6 0.0000 0.0000 0.0000 0.0000 0.0000 23.3998
#
#
#
# Elastic Compliance Matrix: (Units=1/GPa)
#
#
# Indices 1 2 3 4 5 6 
#
# 1 0.007865 -0.000394 -0.002968 0.000000 0.000000 0.000000
# 2 -0.000394 0.021805 -0.006040 0.000000 0.000000 0.000000
# 3 -0.002968 -0.006040 0.013293 0.000000 0.000000 0.000000
# 4 0.000000 0.000000 0.000000 0.055323 0.000000 0.000000
# 5 0.000000 0.000000 0.000000 0.000000 0.023397 0.000000
# 6 0.000000 0.000000 0.000000 0.000000 0.000000 0.042735
#
#
# Mechanical properties :
#
#
# Convention : Reuss Voigt Hill
#
# Bulk Modulus (GPa) = 41.39406 49.71120 45.55263
# Shear Modulus (GPa) = 26.14053 31.09699 28.61876
#
# Velocity S-wave (km/s) = 3.39397 3.70178 3.55121
# Velocity P-wave (km/s) = 5.79649 6.33849 6.07354
#
# Compressibility (1/GPa) = 0.02415806
#
# Stress axis : x y z
#
# Youngs Moduli (GPa) = 127.15144 45.86061 75.23025
#
# Poissons Ratio (x) = 0.01805 0.22331
# Poissons Ratio (y) = 0.05005 0.45441
# Poissons Ratio (z) = 0.37742 0.27701
#
# Static dielectric constant tensor:
#      x y z
#    x 1.843890 0.000000 0.000000 
#    y 0.000000 1.815060 0.000000 
#    z 0.000000 0.000000 1.907350 
# 
# From -- ./inp_files/9435.got.cif
#   From: 2010.05.17/outbox.cif.g08.bks.cpg/sg41_5_cif.got.tgz:9435.got - 2010.06.03 18:54:24.
