data_PCOD9366608
_publ_section_title
;
Structure prediction by ZEFSAII (Michael W. Deem and Ramdas Pophale) SiO2 
 PCOD9366608
Probable space group: A B A 2
;
_chemical_formula_sum "Si O2"
_cell_formula_units_Z 40
_cell_length_a 24.309292
_cell_length_b 4.891447
_cell_length_c 13.403794
_cell_angle_alpha 90.000000
_cell_angle_beta 90.000000
_cell_angle_gamma 90.000000
_cell_volume 1593.813155
_symmetry_space_group_name_H-M "A B A 2"
_symmetry_group_IT_number 41
_symmetry_cell_setting 'orthorhombic'
loop_
_space_group_symop_operation_xyz
x,y,z
-x,-y,z
1/2-x,y,1/2+z
1/2+x,-y,1/2+z
x,1/2+y,1/2+z
-x,1/2-y,1/2+z
1/2-x,1/2+y,z
1/2+x,1/2-y,z
loop_
_atom_site_type_symbol
_atom_site_label
_atom_site_fract_x
_atom_site_fract_y
_atom_site_fract_z
Si Si1 0.371530 0.008769 0.225660
Si Si2 0.137195 0.984787 0.954751
Si Si3 0.215200 0.597287 0.627560
Si Si4 0.938499 0.547475 0.948697
Si Si5 0.440604 0.001492 0.714687
O O1 0.351822 0.053968 0.338870
O O2 0.329895 0.790480 0.177909
O O3 0.425225 0.817080 0.226837
O O4 0.392760 0.292891 0.177111
O O5 0.107906 0.688935 0.957608
O O6 0.089876 0.187551 0.994401
O O7 0.192317 0.052569 0.015479
O O8 0.231098 0.284887 0.651469
O O9 0.946028 0.600604 0.830054
O O10 0.000000 0.500000 0.988140
O O11 0.500000 0.000000 0.664778
#
# Coordination Sequence:
#
# PCOD9366608 Si02
#       5
#     8   8   8   8   8
#     4  10  21  38  60  87 119 154 197 249 305 369
#     4  10  21  38  60  87 119 154 197 249 305 369
#     4  12  26  42  60  82 114 158 210 264 308 350
#     4   9  17  33  60  91 121 154 190 234 299 377
#     4   9  17  33  60  91 121 154 190 234 299 377
#
# _framework density 25.097041999999998
#
# number of rings (size 3 to 8) (size 9 to 14) (size 15 to 20)
#    0.000    2.000    0.000    3.600    0.000    6.400 
#    0.000    4.000    0.000    0.000    0.000    0.000 
#    0.000    0.000    0.000    0.000    0.000    0.000 
#
# Total GULP energy -111562.118738 kJ/mol
# GULP energy per Si atom -5578.105937 kJ/mol
# Density = 2.503992 g / cm^3
# Si number density = 25.097042 Si / 1000 Ang^3
#
#
#
# Elastic Constant Matrix: (Units=GPa)
#
#
# Indices 1 2 3 4 5 6 
#
# 1 51.7477 27.8876 1.9631 0.0000 0.0000 0.0000
# 2 27.8876 158.9224 -3.6258 0.0000 0.0000 0.0000
# 3 1.9631 -3.6258 76.5560 0.0000 0.0000 0.0000
# 4 0.0000 0.0000 0.0000 17.4825 0.0000 0.0000
# 5 0.0000 0.0000 0.0000 0.0000 23.2909 0.0000
# 6 0.0000 0.0000 0.0000 0.0000 0.0000 34.2000
#
#
#
# Elastic Compliance Matrix: (Units=1/GPa)
#
#
# Indices 1 2 3 4 5 6 
#
# 1 0.021383 -0.003769 -0.000727 0.000000 0.000000 0.000000
# 2 -0.003769 0.006963 0.000426 0.000000 0.000000 0.000000
# 3 -0.000727 0.000426 0.013101 0.000000 0.000000 0.000000
# 4 0.000000 0.000000 0.000000 0.057200 0.000000 0.000000
# 5 0.000000 0.000000 0.000000 0.000000 0.042935 0.000000
# 6 0.000000 0.000000 0.000000 0.000000 0.000000 0.029240
#
#
# Mechanical properties :
#
#
# Convention : Reuss Voigt Hill
#
# Bulk Modulus (GPa) = 30.02164 37.74175 33.88170
# Shear Modulus (GPa) = 26.30687 32.39477 29.35082
#
# Velocity S-wave (km/s) = 3.24111 3.59664 3.42350
# Velocity P-wave (km/s) = 5.09849 5.68496 5.39969
#
# Compressibility (1/GPa) = 0.03330930
#
# Stress axis : x y z
#
# Youngs Moduli (GPa) = 46.76569 143.60658 76.32903
#
# Poissons Ratio (x) = 0.54124 0.05548
# Poissons Ratio (y) = 0.17625 -0.03255
# Poissons Ratio (z) = 0.03399 -0.06124
#
# Static dielectric constant tensor:
#      x y z
#    x 2.130970 0.000000 0.000000 
#    y 0.000000 1.997820 0.000000 
#    z 0.000000 0.000000 2.061970 
# 
# From -- ./inp_files/9082.got.cif
#   From: 2010.05.17/outbox.cif.g08.bks.cpg/sg41_5_cif.got.tgz:9082.got - 2010.06.03 18:54:24.
