data_PCOD9366894
_publ_section_title
;
Structure prediction by ZEFSAII (Michael W. Deem and Ramdas Pophale) SiO2 
 PCOD9366894
Probable space group: A B A 2
;
_chemical_formula_sum "Si O2"
_cell_formula_units_Z 60
_cell_length_a 16.930806
_cell_length_b 12.357293
_cell_length_c 13.112221
_cell_angle_alpha 90.000000
_cell_angle_beta 90.000000
_cell_angle_gamma 90.000000
_cell_volume 2743.324854
_symmetry_space_group_name_H-M "A B A 2"
_symmetry_group_IT_number 41
_symmetry_cell_setting 'orthorhombic'
loop_
_space_group_symop_operation_xyz
x,y,z
-x,-y,z
1/2-x,y,1/2+z
1/2+x,-y,1/2+z
x,1/2+y,1/2+z
-x,1/2-y,1/2+z
1/2-x,1/2+y,z
1/2+x,1/2-y,z
loop_
_atom_site_type_symbol
_atom_site_label
_atom_site_fract_x
_atom_site_fract_y
_atom_site_fract_z
Si Si1 0.924974 0.420018 0.031260
Si Si2 0.648307 0.211864 0.939650
Si Si3 0.000000 0.500000 0.476741
Si Si4 0.165717 0.046153 0.908865
Si Si5 0.488961 0.723041 0.098898
Si Si6 0.438703 0.099224 0.789307
Si Si7 0.695721 0.550964 0.276931
Si Si8 0.763996 0.556598 0.069706
O O1 0.845669 0.486248 0.061993
O O2 0.000000 0.500000 0.045598
O O3 0.941046 0.310541 0.094009
O O4 0.926192 0.385045 0.911086
O O5 0.666386 0.326740 0.891955
O O6 0.639917 0.126264 0.847434
O O7 0.578341 0.227477 0.022302
O O8 0.720735 0.161665 0.001398
O O9 0.923294 0.493451 0.406184
O O10 0.006450 0.393241 0.547152
O O11 0.228237 0.987077 0.839127
O O12 0.197280 0.019752 0.021855
O O13 0.463587 0.697092 0.215127
O O14 0.500000 0.000000 0.777280
O O15 0.355551 0.053546 0.750084
O O16 0.732449 0.599344 0.176146
#
# Coordination Sequence:
#
# PCOD9366894 Si02
#       8
#     8   8   4   8   8   8   8   8
#     4  11  22  46  69  99 138 180 234 293 348 424
#     4  10  21  43  68  96 136 179 227 290 339 419
#     4  10  22  44  64 100 144 174 232 292 346 412
#     4  10  23  44  65  98 138 181 231 294 349 414
#     4  11  22  42  73 103 136 181 234 291 347 425
#     4  11  22  44  73 100 132 187 234 283 354 429
#     4  11  23  44  70  99 140 184 230 283 357 431
#     4  11  23  44  67  99 139 176 236 296 348 422
#
# _framework density 21.871269999999999
#
# number of rings (size 3 to 8) (size 9 to 14) (size 15 to 20)
#    0.000    1.333    4.667    2.400    0.000    4.267 
#   10.800    0.000    0.000    0.000    0.000    0.000 
#    0.000    0.000    0.000    0.000    0.000    0.000 
#
# Total GULP energy -167473.553163 kJ/mol
# GULP energy per Si atom -5582.451772 kJ/mol
# Density = 2.182149 g / cm^3
# Si number density = 21.871270 Si / 1000 Ang^3
#
#
#
# Elastic Constant Matrix: (Units=GPa)
#
#
# Indices 1 2 3 4 5 6 
#
# 1 110.9992 27.7700 18.3136 0.0000 0.0000 0.0000
# 2 27.7700 78.1864 11.6701 0.0000 0.0000 0.0000
# 3 18.3136 11.6701 78.8775 0.0000 0.0000 0.0000
# 4 0.0000 0.0000 0.0000 31.8775 0.0000 0.0000
# 5 0.0000 0.0000 0.0000 0.0000 21.1668 0.0000
# 6 0.0000 0.0000 0.0000 0.0000 0.0000 24.1313
#
#
#
# Elastic Compliance Matrix: (Units=1/GPa)
#
#
# Indices 1 2 3 4 5 6 
#
# 1 0.010149 -0.003326 -0.001864 0.000000 0.000000 0.000000
# 2 -0.003326 0.014169 -0.001324 0.000000 0.000000 0.000000
# 3 -0.001864 -0.001324 0.013307 0.000000 0.000000 0.000000
# 4 0.000000 0.000000 0.000000 0.031370 0.000000 0.000000
# 5 0.000000 0.000000 0.000000 0.000000 0.047244 0.000000
# 6 0.000000 0.000000 0.000000 0.000000 0.000000 0.041440
#
#
# Mechanical properties :
#
#
# Convention : Reuss Voigt Hill
#
# Bulk Modulus (GPa) = 40.65822 42.61894 41.63858
# Shear Modulus (GPa) = 27.94765 29.45576 28.70170
#
# Velocity S-wave (km/s) = 3.57855 3.67383 3.62650
# Velocity P-wave (km/s) = 5.97535 6.12573 6.05101
#
# Compressibility (1/GPa) = 0.02459527
#
# Stress axis : x y z
#
# Youngs Moduli (GPa) = 98.53337 70.57647 75.15071
#
# Poissons Ratio (x) = 0.23476 0.14009
# Poissons Ratio (y) = 0.32776 0.09950
# Poissons Ratio (z) = 0.18368 0.09344
#
# Static dielectric constant tensor:
#      x y z
#    x 1.806630 0.000000 0.000000 
#    y 0.000000 1.787590 0.000000 
#    z 0.000000 0.000000 1.875430 
# 
# From -- ./inp_files/8808.got.cif
#   From: 2010.05.17/outbox.cif.g08.bks.cpg/sg41_5_cif.got.tgz:8808.got - 2010.06.03 18:54:24.
