data_PCOD9366152
_publ_section_title
;
Structure prediction by ZEFSAII (Michael W. Deem and Ramdas Pophale) SiO2 
 PCOD9366152
Probable space group: A B A 2
;
_chemical_formula_sum "Si O2"
_cell_formula_units_Z 64
_cell_length_a 7.283438
_cell_length_b 17.854652
_cell_length_c 21.073512
_cell_angle_alpha 90.000000
_cell_angle_beta 90.000000
_cell_angle_gamma 90.000000
_cell_volume 2740.468007
_symmetry_space_group_name_H-M "A B A 2"
_symmetry_group_IT_number 41
_symmetry_cell_setting 'orthorhombic'
loop_
_space_group_symop_operation_xyz
x,y,z
-x,-y,z
1/2-x,y,1/2+z
1/2+x,-y,1/2+z
x,1/2+y,1/2+z
-x,1/2-y,1/2+z
1/2-x,1/2+y,z
1/2+x,1/2-y,z
loop_
_atom_site_type_symbol
_atom_site_label
_atom_site_fract_x
_atom_site_fract_y
_atom_site_fract_z
Si Si1 0.265524 0.441377 0.873400
Si Si2 0.693184 0.644639 0.994794
Si Si3 0.379032 0.184422 0.978139
Si Si4 0.344450 0.101995 0.855198
Si Si5 0.235009 0.929845 0.620789
Si Si6 0.205483 0.102195 0.602254
Si Si7 0.252734 0.679831 0.728217
Si Si8 0.675905 0.647104 0.746323
O O1 0.285792 0.529241 0.857999
O O2 0.318489 0.388520 0.815357
O O3 0.046090 0.426214 0.874477
O O4 0.352742 0.414397 0.939415
O O5 0.613301 0.726720 0.985120
O O6 0.662088 0.615020 0.065579
O O7 0.912220 0.656987 0.985994
O O8 0.271422 0.142177 0.034523
O O9 0.297533 0.161674 0.909845
O O10 0.350894 0.138911 0.785856
O O11 0.270676 0.904315 0.692766
O O12 0.017035 0.910111 0.610830
O O13 0.272546 0.017215 0.609636
O O14 0.294490 0.153711 0.657147
O O15 0.461073 0.653355 0.733157
O O16 0.248467 0.768536 0.739217
#
# Coordination Sequence:
#
# PCOD9366152 Si02
#       8
#     8   8   8   8   8   8   8   8
#     4  10  21  37  57  81 109 142 180 223 271 321
#     4  10  20  35  56  80 107 140 178 220 266 317
#     4  10  20  35  56  80 107 140 178 220 266 317
#     4  10  21  37  57  81 109 142 180 223 271 321
#     4   9  18  34  56  80 105 137 179 223 267 317
#     4   9  18  34  56  80 105 137 179 223 267 317
#     4  11  22  36  56  81 110 144 181 222 269 320
#     4  11  22  36  56  81 110 144 181 222 269 320
#
# _framework density 23.353677000000001
#
# number of rings (size 3 to 8) (size 9 to 14) (size 15 to 20)
#    0.000    2.000    0.000    3.750    0.000    7.500 
#    0.000    1.250    0.000    5.250    0.000    0.000 
#    0.000    0.000    0.000    0.000    0.000    0.000 
#
# Total GULP energy -178935.332274 kJ/mol
# GULP energy per Si atom -5591.729134 kJ/mol
# Density = 2.330052 g / cm^3
# Si number density = 23.353677 Si / 1000 Ang^3
#
#
#
# Elastic Constant Matrix: (Units=GPa)
#
#
# Indices 1 2 3 4 5 6 
#
# 1 35.4587 -10.4550 2.2665 0.0000 0.0000 0.0000
# 2 -10.4550 107.7737 31.2709 0.0000 0.0000 0.0000
# 3 2.2665 31.2709 126.5804 0.0000 0.0000 0.0000
# 4 0.0000 0.0000 0.0000 41.3598 0.0000 0.0000
# 5 0.0000 0.0000 0.0000 0.0000 24.6425 0.0000
# 6 0.0000 0.0000 0.0000 0.0000 0.0000 26.2617
#
#
#
# Elastic Compliance Matrix: (Units=1/GPa)
#
#
# Indices 1 2 3 4 5 6 
#
# 1 0.029235 0.003219 -0.001319 0.000000 0.000000 0.000000
# 2 0.003219 0.010350 -0.002614 0.000000 0.000000 0.000000
# 3 -0.001319 -0.002614 0.008570 0.000000 0.000000 0.000000
# 4 0.000000 0.000000 0.000000 0.024178 0.000000 0.000000
# 5 0.000000 0.000000 0.000000 0.000000 0.040580 0.000000
# 6 0.000000 0.000000 0.000000 0.000000 0.000000 0.038078
#
#
# Mechanical properties :
#
#
# Convention : Reuss Voigt Hill
#
# Bulk Modulus (GPa) = 21.40158 35.10861 28.25510
# Shear Modulus (GPa) = 29.76285 34.90151 32.33218
#
# Velocity S-wave (km/s) = 3.57380 3.87004 3.72487
# Velocity P-wave (km/s) = 5.11991 5.91909 5.53395
#
# Compressibility (1/GPa) = 0.04672551
#
# Stress axis : x y z
#
# Youngs Moduli (GPa) = 34.20544 96.62275 116.69146
#
# Poissons Ratio (x) = -0.31100 0.15387
# Poissons Ratio (y) = -0.11010 0.30508
# Poissons Ratio (z) = 0.04510 0.25261
#
# Static dielectric constant tensor:
#      x y z
#    x 1.978830 0.000000 0.000000 
#    y 0.000000 1.834000 0.000000 
#    z 0.000000 0.000000 1.871920 
# 
# From -- ./inp_files/11657.got.cif
#   From: 2010.05.17/outbox.cif.g08.bks.cpg/sg41_6_cif.got.tgz:11657.got - 2010.06.03 18:54:24.
