data_PCOD9366904
_publ_section_title
;
Structure prediction by ZEFSAII (Michael W. Deem and Ramdas Pophale) SiO2 
 PCOD9366904
Probable space group: A B A 2
;
_chemical_formula_sum "Si O2"
_cell_formula_units_Z 28
_cell_length_a 15.331723
_cell_length_b 13.543972
_cell_length_c 5.065207
_cell_angle_alpha 90.000000
_cell_angle_beta 90.000000
_cell_angle_gamma 90.000000
_cell_volume 1051.802527
_symmetry_space_group_name_H-M "A B A 2"
_symmetry_group_IT_number 41
_symmetry_cell_setting 'orthorhombic'
loop_
_space_group_symop_operation_xyz
x,y,z
-x,-y,z
1/2-x,y,1/2+z
1/2+x,-y,1/2+z
x,1/2+y,1/2+z
-x,1/2-y,1/2+z
1/2-x,1/2+y,z
1/2+x,1/2-y,z
loop_
_atom_site_type_symbol
_atom_site_label
_atom_site_fract_x
_atom_site_fract_y
_atom_site_fract_z
Si Si1 0.522466 0.189398 0.796160
Si Si2 0.689707 0.478763 0.819033
Si Si3 0.000000 0.500000 0.493156
Si Si4 0.202121 0.755185 0.408116
O O1 0.505277 0.275329 0.583476
O O2 0.625526 0.176547 0.807106
O O3 0.479326 0.091982 0.683779
O O4 0.745200 0.504110 0.559723
O O5 0.679752 0.359073 0.844027
O O6 0.590215 0.518431 0.834946
O O7 0.215588 0.770830 0.717930
#
# Coordination Sequence:
#
# PCOD9366904 Si02
#       4
#     8   8   4   8
#     4  12  27  46  71 109 144 190 247 303 368 448
#     4  10  24  44  71 107 149 191 248 309 365 439
#     4  12  28  48  80 110 152 202 246 312 378 442
#     4  10  21  43  72  99 143 192 240 307 368 434
#
# _framework density 26.620968000000001
#
# number of rings (size 3 to 8) (size 9 to 14) (size 15 to 20)
#    0.000    1.143    2.857    1.714    8.000    6.857 
#    0.000    0.000    0.000    0.000    0.000    0.000 
#    0.000    0.000    0.000    0.000    0.000    0.000 
#
# Total GULP energy -78513.289696 kJ/mol
# GULP energy per Si atom -5608.092121 kJ/mol
# Density = 2.656038 g / cm^3
# Si number density = 26.620968 Si / 1000 Ang^3
#
#
#
# Elastic Constant Matrix: (Units=GPa)
#
#
# Indices 1 2 3 4 5 6 
#
# 1 140.6099 17.2640 49.9460 0.0000 0.0000 0.0000
# 2 17.2640 70.6338 -0.9278 0.0000 0.0000 0.0000
# 3 49.9460 -0.9278 133.0489 0.0000 0.0000 0.0000
# 4 0.0000 0.0000 0.0000 24.3733 0.0000 0.0000
# 5 0.0000 0.0000 0.0000 0.0000 41.3915 0.0000
# 6 0.0000 0.0000 0.0000 0.0000 0.0000 38.6059
#
#
#
# Elastic Compliance Matrix: (Units=1/GPa)
#
#
# Indices 1 2 3 4 5 6 
#
# 1 0.008513 -0.002123 -0.003211 0.000000 0.000000 0.000000
# 2 -0.002123 0.014688 0.000899 0.000000 0.000000 0.000000
# 3 -0.003211 0.000899 0.008728 0.000000 0.000000 0.000000
# 4 0.000000 0.000000 0.000000 0.041029 0.000000 0.000000
# 5 0.000000 0.000000 0.000000 0.000000 0.024160 0.000000
# 6 0.000000 0.000000 0.000000 0.000000 0.000000 0.025903
#
#
# Mechanical properties :
#
#
# Convention : Reuss Voigt Hill
#
# Bulk Modulus (GPa) = 43.36406 52.98411 48.17408
# Shear Modulus (GPa) = 35.82317 39.40817 37.61567
#
# Velocity S-wave (km/s) = 3.67232 3.85170 3.76308
# Velocity P-wave (km/s) = 5.85714 6.30294 6.08413
#
# Compressibility (1/GPa) = 0.02306057
#
# Stress axis : x y z
#
# Youngs Moduli (GPa) = 117.46847 68.08183 114.58010
#
# Poissons Ratio (x) = 0.14453 0.36786
# Poissons Ratio (y) = 0.24937 -0.10305
# Poissons Ratio (z) = 0.37713 -0.06123
#
# Static dielectric constant tensor:
#      x y z
#    x 2.027580 0.000000 0.000000 
#    y 0.000000 2.125980 0.000000 
#    z 0.000000 0.000000 2.005630 
# 
# From -- ./inp_files/163.got.cif
#   From: 2010.05.17/outbox.cif.g08.bks.cpg/sg41_1_cif.got.tgz:163.got - 2010.06.03 18:54:24.
