data_PCOD9366862
_publ_section_title
;
Structure prediction by ZEFSAII (Michael W. Deem and Ramdas Pophale) SiO2 
 PCOD9366862
Probable space group: A B A 2
;
_chemical_formula_sum "Si O2"
_cell_formula_units_Z 48
_cell_length_a 14.199023
_cell_length_b 14.767277
_cell_length_c 10.555686
_cell_angle_alpha 90.000000
_cell_angle_beta 90.000000
_cell_angle_gamma 90.000000
_cell_volume 2213.325802
_symmetry_space_group_name_H-M "A B A 2"
_symmetry_group_IT_number 41
_symmetry_cell_setting 'orthorhombic'
loop_
_space_group_symop_operation_xyz
x,y,z
-x,-y,z
1/2-x,y,1/2+z
1/2+x,-y,1/2+z
x,1/2+y,1/2+z
-x,1/2-y,1/2+z
1/2-x,1/2+y,z
1/2+x,1/2-y,z
loop_
_atom_site_type_symbol
_atom_site_label
_atom_site_fract_x
_atom_site_fract_y
_atom_site_fract_z
Si Si1 0.962669 0.730707 0.056120
Si Si2 0.906931 0.538607 0.939189
Si Si3 0.270274 0.363169 0.893460
Si Si4 0.763791 0.252735 0.651606
Si Si5 0.885046 0.892560 0.662124
Si Si6 0.512708 0.092294 0.403912
O O1 0.932392 0.641105 0.978967
O O2 0.876909 0.754806 0.147540
O O3 0.056469 0.697512 0.123814
O O4 0.981879 0.816696 0.971703
O O5 0.896947 0.472576 0.060700
O O6 0.000000 0.500000 0.868364
O O7 0.801558 0.551798 0.887743
O O8 0.237442 0.298409 0.780016
O O9 0.377602 0.393614 0.870540
O O10 0.264662 0.306610 0.026448
O O11 0.719772 0.352848 0.659165
O O12 0.938585 0.920879 0.789135
O O13 0.500000 0.000000 0.483120
#
# Coordination Sequence:
#
# PCOD9366862 Si02
#       6
#     8   8   8   8   8   8
#     4  10  21  42  66  96 140 184 236 292 366 418
#     4   9  21  41  69 100 137 187 239 288 359 438
#     4  11  24  44  70 103 144 188 245 299 364 436
#     4  11  23  44  72 101 142 193 235 302 366 441
#     4  11  21  41  72 102 137 191 243 296 368 439
#     4  12  25  42  70 104 145 191 242 308 363 445
#
# _framework density 21.686820999999998
#
# number of rings (size 3 to 8) (size 9 to 14) (size 15 to 20)
#    0.000    1.333    3.333    3.500    4.667    0.000 
#    0.000    0.833    3.667    0.000    0.000    0.000 
#    0.000    0.000    0.000    0.000    0.000    0.000 
#
# Total GULP energy -133866.348586 kJ/mol
# GULP energy per Si atom -5577.764524 kJ/mol
# Density = 2.163746 g / cm^3
# Si number density = 21.686821 Si / 1000 Ang^3
#
#
#
# Elastic Constant Matrix: (Units=GPa)
#
#
# Indices 1 2 3 4 5 6 
#
# 1 88.3185 42.7575 10.6156 0.0000 0.0000 0.0000
# 2 42.7575 141.0568 30.5708 0.0000 0.0000 0.0000
# 3 10.6156 30.5708 71.2132 0.0000 0.0000 0.0000
# 4 0.0000 0.0000 0.0000 32.4207 0.0000 0.0000
# 5 0.0000 0.0000 0.0000 0.0000 4.8897 0.0000
# 6 0.0000 0.0000 0.0000 0.0000 0.0000 50.6393
#
#
#
# Elastic Compliance Matrix: (Units=1/GPa)
#
#
# Indices 1 2 3 4 5 6 
#
# 1 0.013275 -0.003964 -0.000277 0.000000 0.000000 0.000000
# 2 -0.003964 0.009000 -0.003273 0.000000 0.000000 0.000000
# 3 -0.000277 -0.003273 0.015489 0.000000 0.000000 0.000000
# 4 0.000000 0.000000 0.000000 0.030845 0.000000 0.000000
# 5 0.000000 0.000000 0.000000 0.000000 0.204511 0.000000
# 6 0.000000 0.000000 0.000000 0.000000 0.000000 0.019748
#
#
# Mechanical properties :
#
#
# Convention : Reuss Voigt Hill
#
# Bulk Modulus (GPa) = 43.98300 52.05291 48.01795
# Shear Modulus (GPa) = 15.84922 32.03291 23.94107
#
# Velocity S-wave (km/s) = 2.70631 3.84743 3.32617
# Velocity P-wave (km/s) = 5.48548 6.61749 6.07790
#
# Compressibility (1/GPa) = 0.02273606
#
# Stress axis : x y z
#
# Youngs Moduli (GPa) = 75.32955 111.10892 64.56351
#
# Poissons Ratio (x) = 0.44042 0.01790
# Poissons Ratio (y) = 0.29860 0.21130
# Poissons Ratio (z) = 0.02088 0.36363
#
# Static dielectric constant tensor:
#      x y z
#    x 1.869650 0.000000 0.000000 
#    y 0.000000 1.807470 0.000000 
#    z 0.000000 0.000000 1.801860 
# 
# From -- ./inp_files/5517.got.cif
#   From: 2010.05.17/outbox.cif.g08.bks.cpg/sg41_3_cif.got.tgz:5517.got - 2010.06.03 18:54:24.
