data_PCOD9366770
_publ_section_title
;
Structure prediction by ZEFSAII (Michael W. Deem and Ramdas Pophale) SiO2 
 PCOD9366770
Probable space group: A B A 2
;
_chemical_formula_sum "Si O2"
_cell_formula_units_Z 60
_cell_length_a 27.774867
_cell_length_b 16.508024
_cell_length_c 5.557796
_cell_angle_alpha 90.000000
_cell_angle_beta 90.000000
_cell_angle_gamma 90.000000
_cell_volume 2548.294879
_symmetry_space_group_name_H-M "A B A 2"
_symmetry_group_IT_number 41
_symmetry_cell_setting 'orthorhombic'
loop_
_space_group_symop_operation_xyz
x,y,z
-x,-y,z
1/2-x,y,1/2+z
1/2+x,-y,1/2+z
x,1/2+y,1/2+z
-x,1/2-y,1/2+z
1/2-x,1/2+y,z
1/2+x,1/2-y,z
loop_
_atom_site_type_symbol
_atom_site_label
_atom_site_fract_x
_atom_site_fract_y
_atom_site_fract_z
Si Si1 0.275926 0.137928 0.118150
Si Si2 0.500000 0.000000 0.884203
Si Si3 0.544965 0.742700 0.312016
Si Si4 0.369566 0.226436 0.967123
Si Si5 0.948614 0.854268 0.170218
Si Si6 0.085184 0.401237 0.044697
Si Si7 0.759929 0.544562 0.592498
Si Si8 0.860762 0.092273 0.029358
O O1 0.250922 0.164830 0.369283
O O2 0.330589 0.169855 0.100208
O O3 0.269342 0.039711 0.111629
O O4 0.535628 0.943966 0.731560
O O5 0.465533 0.944609 0.036638
O O6 0.581938 0.740622 0.096042
O O7 0.545366 0.835494 0.389292
O O8 0.493908 0.701188 0.268550
O O9 0.571697 0.693761 0.526821
O O10 0.343640 0.315179 0.957889
O O11 0.395603 0.169681 0.766062
O O12 0.110090 0.427790 0.288570
O O13 0.112988 0.413007 0.789566
O O14 0.743227 0.588226 0.349478
O O15 0.816232 0.531834 0.552802
#
# Coordination Sequence:
#
# PCOD9366770 Si02
#       8
#     8   4   8   8   8   8   8   8
#     4  10  25  44  64  94 135 173 227 288 354 414
#     4  10  26  40  62 104 142 186 228 286 350 408
#     4  10  21  40  70  95 138 181 234 284 349 416
#     4  11  24  40  70 100 127 188 234 291 346 427
#     4  11  21  43  66 100 142 183 236 293 353 422
#     4  10  23  44  64 101 133 178 226 280 334 417
#     4  10  22  43  66  90 129 174 213 281 354 408
#     4  11  23  41  71  93 129 174 232 276 345 411
#
# _framework density 23.545155999999999
#
# number of rings (size 3 to 8) (size 9 to 14) (size 15 to 20)
#    0.000    1.600    2.667    0.800    1.867    5.867 
#    4.800    0.000    0.000    0.000    0.000    0.000 
#    0.000    0.000    0.000    0.000    0.000    0.000 
#
# Total GULP energy -167021.069253 kJ/mol
# GULP energy per Si atom -5567.368975 kJ/mol
# Density = 2.349157 g / cm^3
# Si number density = 23.545156 Si / 1000 Ang^3
#
#
#
# Elastic Constant Matrix: (Units=GPa)
#
#
# Indices 1 2 3 4 5 6 
#
# 1 87.8052 23.4210 20.3624 0.0000 0.0000 0.0000
# 2 23.4210 54.8961 5.4540 0.0000 0.0000 0.0000
# 3 20.3624 5.4540 116.4223 0.0000 0.0000 0.0000
# 4 0.0000 0.0000 0.0000 -7.3961 0.0000 0.0000
# 5 0.0000 0.0000 0.0000 0.0000 23.5308 0.0000
# 6 0.0000 0.0000 0.0000 0.0000 0.0000 28.9317
#
#
#
# Elastic Compliance Matrix: (Units=1/GPa)
#
#
# Indices 1 2 3 4 5 6 
#
# 1 0.013332 -0.005482 -0.002075 0.000000 0.000000 0.000000
# 2 -0.005482 0.020555 -0.000004 0.000000 0.000000 0.000000
# 3 -0.002075 -0.000004 0.008953 0.000000 0.000000 0.000000
# 4 0.000000 0.000000 0.000000 -0.135206 0.000000 0.000000
# 5 0.000000 0.000000 0.000000 0.000000 0.042497 0.000000
# 6 0.000000 0.000000 0.000000 0.000000 0.000000 0.034564
#
#
# Mechanical properties :
#
#
# Convention : Reuss Voigt Hill
#
# Bulk Modulus (GPa) = 36.07759 39.73315 37.90537
# Shear Modulus (GPa) = 552.04617 23.00569 287.52593
#
# Velocity S-wave (km/s) = 15.32879 3.12923 11.06264
# Velocity P-wave (km/s) = 18.12875 5.47431 13.39066
#
# Compressibility (1/GPa) = 0.02771804
#
# Stress axis : x y z
#
# Youngs Moduli (GPa) = 75.00576 48.64887 111.70013
#
# Poissons Ratio (x) = 0.26669 0.23178
# Poissons Ratio (y) = 0.41118 0.00046
# Poissons Ratio (z) = 0.15564 0.00020
#
# Static dielectric constant tensor:
#      x y z
#    x 2.095090 0.000000 0.000000 
#    y 0.000000 2.088600 0.000000 
#    z 0.000000 0.000000 2.009930 
# 
# From -- ./inp_files/1208.got.cif
#   From: 2010.05.17/outbox.cif.g08.bks.cpg/sg41_1_cif.got.tgz:1208.got - 2010.06.03 18:54:24.
