data_PCOD9366879
_publ_section_title
;
Structure prediction by ZEFSAII (Michael W. Deem and Ramdas Pophale) SiO2 
 PCOD9366879
Probable space group: A B A 2
;
_chemical_formula_sum "Si O2"
_cell_formula_units_Z 60
_cell_length_a 15.578153
_cell_length_b 13.871399
_cell_length_c 11.106989
_cell_angle_alpha 90.000000
_cell_angle_beta 90.000000
_cell_angle_gamma 90.000000
_cell_volume 2400.117871
_symmetry_space_group_name_H-M "A B A 2"
_symmetry_group_IT_number 41
_symmetry_cell_setting 'orthorhombic'
loop_
_space_group_symop_operation_xyz
x,y,z
-x,-y,z
1/2-x,y,1/2+z
1/2+x,-y,1/2+z
x,1/2+y,1/2+z
-x,1/2-y,1/2+z
1/2-x,1/2+y,z
1/2+x,1/2-y,z
loop_
_atom_site_type_symbol
_atom_site_label
_atom_site_fract_x
_atom_site_fract_y
_atom_site_fract_z
Si Si1 0.500000 0.000000 0.965940
Si Si2 0.049222 0.612490 0.412918
Si Si3 0.175660 0.710166 0.868749
Si Si4 0.280515 0.841693 0.163141
Si Si5 0.511859 0.677420 0.307561
Si Si6 0.105154 0.854395 0.059382
Si Si7 0.711322 0.363130 0.048930
Si Si8 0.130894 0.537210 0.167774
O O1 0.461055 0.917223 0.881458
O O2 0.430731 0.050229 0.052770
O O3 0.040732 0.726631 0.377901
O O4 0.118234 0.597139 0.518964
O O5 0.082404 0.068623 0.788001
O O6 0.954975 0.588877 0.465979
O O7 0.227068 0.790311 0.792858
O O8 0.092209 0.675264 0.797336
O O9 0.134932 0.761188 0.985109
O O10 0.238961 0.630896 0.920783
O O11 0.194865 0.892336 0.112347
O O12 0.301257 0.749976 0.079871
O O13 0.351592 0.922966 0.172234
O O14 0.550712 0.675467 0.175050
O O15 0.778515 0.408130 0.143779
#
# Coordination Sequence:
#
# PCOD9366879 Si02
#       8
#     4   8   8   8   8   8   8   8
#     4  12  28  48  74 114 160 206 274 322 402 478
#     4  11  25  44  81 110 155 204 264 327 393 478
#     4  10  21  42  74 105 150 205 254 314 386 468
#     4  11  25  47  74 107 156 203 256 324 399 467
#     4  11  23  46  73 113 157 210 258 332 390 463
#     4  10  24  44  71 110 150 195 256 320 391 455
#     4  11  22  47  72 111 154 206 262 323 393 467
#     4  12  28  48  78 114 155 210 267 324 399 476
#
# _framework density 24.998771999999999
#
# number of rings (size 3 to 8) (size 9 to 14) (size 15 to 20)
#    0.000    1.067    1.333    4.800    5.600    4.267 
#    7.200    0.000    0.000    0.000    0.000    0.000 
#    0.000    0.000    0.000    0.000    0.000    0.000 
#
# Total GULP energy -167897.675609 kJ/mol
# GULP energy per Si atom -5596.589187 kJ/mol
# Density = 2.494187 g / cm^3
# Si number density = 24.998772 Si / 1000 Ang^3
#
#
#
# Elastic Constant Matrix: (Units=GPa)
#
#
# Indices 1 2 3 4 5 6 
#
# 1 106.6326 34.9825 45.5525 0.0000 0.0000 0.0000
# 2 34.9825 98.9767 33.4945 0.0000 0.0000 0.0000
# 3 45.5525 33.4945 149.0630 0.0000 0.0000 0.0000
# 4 0.0000 0.0000 0.0000 25.4384 0.0000 0.0000
# 5 0.0000 0.0000 0.0000 0.0000 53.3490 0.0000
# 6 0.0000 0.0000 0.0000 0.0000 0.0000 40.3933
#
#
#
# Elastic Compliance Matrix: (Units=1/GPa)
#
#
# Indices 1 2 3 4 5 6 
#
# 1 0.011626 -0.003146 -0.002846 0.000000 0.000000 0.000000
# 2 -0.003146 0.011786 -0.001687 0.000000 0.000000 0.000000
# 3 -0.002846 -0.001687 0.007957 0.000000 0.000000 0.000000
# 4 0.000000 0.000000 0.000000 0.039311 0.000000 0.000000
# 5 0.000000 0.000000 0.000000 0.000000 0.018744 0.000000
# 6 0.000000 0.000000 0.000000 0.000000 0.000000 0.024757
#
#
# Mechanical properties :
#
#
# Convention : Reuss Voigt Hill
#
# Bulk Modulus (GPa) = 62.45440 64.74793 63.60116
# Shear Modulus (GPa) = 37.07108 39.87897 38.47503
#
# Velocity S-wave (km/s) = 3.85504 3.99837 3.92736
# Velocity P-wave (km/s) = 6.69719 6.87551 6.78694
#
# Compressibility (1/GPa) = 0.01601168
#
# Stress axis : x y z
#
# Youngs Moduli (GPa) = 86.01546 84.84498 125.67061
#
# Poissons Ratio (x) = 0.26692 0.35764
# Poissons Ratio (y) = 0.27060 0.21200
# Poissons Ratio (z) = 0.24479 0.14313
#
# Static dielectric constant tensor:
#      x y z
#    x 2.011360 0.000000 0.000000 
#    y 0.000000 2.000420 0.000000 
#    z 0.000000 0.000000 1.976910 
# 
# From -- ./inp_files/6001.got.cif
#   From: 2010.05.17/outbox.cif.g08.bks.cpg/sg41_4_cif.got.tgz:6001.got - 2010.06.03 18:54:24.
