data_PCOD9366348
_publ_section_title
;
Structure prediction by ZEFSAII (Michael W. Deem and Ramdas Pophale) SiO2 
 PCOD9366348
Probable space group: A B A 2
;
_chemical_formula_sum "Si O2"
_cell_formula_units_Z 60
_cell_length_a 16.181874
_cell_length_b 20.018045
_cell_length_c 9.025286
_cell_angle_alpha 90.000000
_cell_angle_beta 90.000000
_cell_angle_gamma 90.000000
_cell_volume 2923.556218
_symmetry_space_group_name_H-M "A B A 2"
_symmetry_group_IT_number 41
_symmetry_cell_setting 'orthorhombic'
loop_
_space_group_symop_operation_xyz
x,y,z
-x,-y,z
1/2-x,y,1/2+z
1/2+x,-y,1/2+z
x,1/2+y,1/2+z
-x,1/2-y,1/2+z
1/2-x,1/2+y,z
1/2+x,1/2-y,z
loop_
_atom_site_type_symbol
_atom_site_label
_atom_site_fract_x
_atom_site_fract_y
_atom_site_fract_z
Si Si1 0.352567 0.860267 0.730960
Si Si2 0.818556 0.719957 0.250379
Si Si3 0.200305 0.165963 0.713543
Si Si4 0.554065 0.147472 0.037741
Si Si5 0.342076 0.010092 0.763105
Si Si6 0.000000 0.500000 0.971338
Si Si7 0.585701 0.745449 0.048430
Si Si8 0.728375 0.921328 0.488314
O O1 0.263636 0.824463 0.732962
O O2 0.387208 0.857672 0.896165
O O3 0.338197 0.936897 0.695359
O O4 0.420232 0.827831 0.620031
O O5 0.785396 0.792021 0.193537
O O6 0.848995 0.735382 0.416282
O O7 0.892105 0.680647 0.169015
O O8 0.125860 0.215437 0.686547
O O9 0.197649 0.111731 0.583217
O O10 0.195706 0.133019 0.873007
O O11 0.486477 0.204888 0.000724
O O12 0.520887 0.070392 0.057394
O O13 0.423845 0.017136 0.861634
O O14 0.332509 0.057147 0.619745
O O15 0.267036 0.023264 0.878906
#
# Coordination Sequence:
#
# PCOD9366348 Si02
#       8
#     8   8   8   8   8   4   8   8
#     4  10  23  41  65  92 132 174 222 273 330 387
#     4  11  23  39  65  93 129 167 224 272 324 394
#     4  10  20  39  64  97 126 170 216 273 319 389
#     4  11  24  43  66  92 130 177 214 279 339 406
#     4  10  23  41  67  94 131 177 222 273 335 396
#     4  10  24  44  64  96 138 176 212 284 346 406
#     4  11  22  40  62  94 130 168 219 273 329 391
#     4  10  21  38  67  94 128 175 220 270 322 402
#
# _framework density 20.522950000000002
#
# number of rings (size 3 to 8) (size 9 to 14) (size 15 to 20)
#    0.000    1.600    1.333    3.200    9.333    0.000 
#    0.000    0.000    0.000    2.400    0.000    0.000 
#    0.000    0.000    0.000    0.000    0.000    0.000 
#
# Total GULP energy -167070.423997 kJ/mol
# GULP energy per Si atom -5569.014133 kJ/mol
# Density = 2.047624 g / cm^3
# Si number density = 20.522950 Si / 1000 Ang^3
#
#
#
# Elastic Constant Matrix: (Units=GPa)
#
#
# Indices 1 2 3 4 5 6 
#
# 1 52.6350 26.6960 8.3316 0.0000 0.0000 0.0000
# 2 26.6960 125.7326 32.3586 0.0000 0.0000 0.0000
# 3 8.3316 32.3586 73.5168 0.0000 0.0000 0.0000
# 4 0.0000 0.0000 0.0000 62.6401 0.0000 0.0000
# 5 0.0000 0.0000 0.0000 0.0000 -4.3587 0.0000
# 6 0.0000 0.0000 0.0000 0.0000 0.0000 20.9377
#
#
#
# Elastic Compliance Matrix: (Units=1/GPa)
#
#
# Indices 1 2 3 4 5 6 
#
# 1 0.021306 -0.004401 -0.000478 0.000000 0.000000 0.000000
# 2 -0.004401 0.009878 -0.003849 0.000000 0.000000 0.000000
# 3 -0.000478 -0.003849 0.015351 0.000000 0.000000 0.000000
# 4 0.000000 0.000000 0.000000 0.015964 0.000000 0.000000
# 5 0.000000 0.000000 0.000000 0.000000 -0.229425 0.000000
# 6 0.000000 0.000000 0.000000 0.000000 0.000000 0.047761
#
#
# Mechanical properties :
#
#
# Convention : Reuss Voigt Hill
#
# Bulk Modulus (GPa) = 34.38777 42.96187 38.67482
# Shear Modulus (GPa) = -54.33853 28.14369 -13.09742
#
# Velocity S-wave (km/s) = -5.15116 3.70716 -2.52897
# Velocity P-wave (km/s) = 4.31128 6.26922 3.21838
#
# Compressibility (1/GPa) = 0.02908010
#
# Stress axis : x y z
#
# Youngs Moduli (GPa) = 46.93404 101.23028 65.14356
#
# Poissons Ratio (x) = 0.44551 0.03111
# Poissons Ratio (y) = 0.20656 0.25076
# Poissons Ratio (z) = 0.02241 0.38966
#
# Static dielectric constant tensor:
#      x y z
#    x 1.763170 0.000000 0.000000 
#    y 0.000000 1.610800 0.000000 
#    z 0.000000 0.000000 1.720780 
# 
# From -- ./inp_files/3243.got.cif
#   From: 2010.05.17/outbox.cif.g08.bks.cpg/sg41_2_cif.got.tgz:3243.got - 2010.06.03 18:54:24.
