data_PCOD9366132
_publ_section_title
;
Structure prediction by ZEFSAII (Michael W. Deem and Ramdas Pophale) SiO2 
 PCOD9366132
Probable space group: A B A 2
;
_chemical_formula_sum "Si O2"
_cell_formula_units_Z 48
_cell_length_a 17.807107
_cell_length_b 15.128323
_cell_length_c 10.511539
_cell_angle_alpha 90.000000
_cell_angle_beta 90.000000
_cell_angle_gamma 90.000000
_cell_volume 2831.721008
_symmetry_space_group_name_H-M "A B A 2"
_symmetry_group_IT_number 41
_symmetry_cell_setting 'orthorhombic'
loop_
_space_group_symop_operation_xyz
x,y,z
-x,-y,z
1/2-x,y,1/2+z
1/2+x,-y,1/2+z
x,1/2+y,1/2+z
-x,1/2-y,1/2+z
1/2-x,1/2+y,z
1/2+x,1/2-y,z
loop_
_atom_site_type_symbol
_atom_site_label
_atom_site_fract_x
_atom_site_fract_y
_atom_site_fract_z
Si Si1 0.173430 0.498940 0.090330
Si Si2 0.086204 0.818059 0.590330
Si Si3 0.834174 0.271399 0.352320
Si Si4 0.592784 0.810019 0.090330
Si Si5 0.834174 0.271399 0.828341
Si Si6 0.750000 0.445845 0.840330
O O1 0.116852 0.417742 0.090330
O O2 0.128785 0.591840 0.090330
O O3 0.223606 0.500274 0.218000
O O4 0.223606 0.500275 0.962660
O O5 0.119841 0.770413 0.466138
O O6 0.119841 0.770413 0.714523
O O7 0.996581 0.814229 0.590330
O O8 0.876112 0.264593 0.218049
O O9 0.750000 0.231965 0.340331
O O10 0.815979 0.375710 0.377427
O O11 0.623888 0.764593 0.962612
O O12 0.815979 0.375709 0.803234
#
# Coordination Sequence:
#
# PCOD9366132 Si02
#       6
#     8   8   8   8   8   8
#     4  10  20  34  51  79 105 135 167 217 261 305
#     4  12  21  30  56  85 106 126 175 227 256 293
#     4   9  19  36  57  73 101 142 180 204 247 314
#     4  10  20  38  53  76 108 142 166 208 270 312
#     4   9  19  36  57  73 101 142 180 204 247 314
#     4   8  18  36  54  68 104 142 176 202 256 312
#
# _framework density 16.950823
#
# number of rings (size 3 to 8) (size 9 to 14) (size 15 to 20)
#    1.000    1.333    0.000    3.500    2.333    0.000 
#    0.000    0.000    0.000    0.000    0.000   16.333 
#    0.000    0.000    0.000    0.000    0.000    0.000 
#
# Total GULP energy -133694.865854 kJ/mol
# GULP energy per Si atom -5570.619411 kJ/mol
# Density = 1.691224 g / cm^3
# Si number density = 16.950823 Si / 1000 Ang^3
#
#
#
# Elastic Constant Matrix: (Units=GPa)
#
#
# Indices 1 2 3 4 5 6 
#
# 1 130.7591 13.2755 100.4238 0.0000 0.0000 0.0000
# 2 13.2755 26.6804 47.2949 0.0000 0.0000 0.0000
# 3 100.4238 47.2949 183.1329 0.0000 0.0000 0.0000
# 4 0.0000 0.0000 0.0000 -0.2631 0.0000 0.0000
# 5 0.0000 0.0000 0.0000 0.0000 8.7515 0.0000
# 6 0.0000 0.0000 0.0000 0.0000 0.0000 4.2407
#
#
#
# Elastic Compliance Matrix: (Units=1/GPa)
#
#
# Indices 1 2 3 4 5 6 
#
# 1 0.015477 0.013544 -0.011985 0.000000 0.000000 0.000000
# 2 0.013544 0.080979 -0.028340 0.000000 0.000000 0.000000
# 3 -0.011985 -0.028340 0.019352 0.000000 0.000000 0.000000
# 4 0.000000 0.000000 0.000000 -3.800769 0.000000 0.000000
# 5 0.000000 0.000000 0.000000 0.000000 0.114266 0.000000
# 6 0.000000 0.000000 0.000000 0.000000 0.000000 0.235810
#
#
# Mechanical properties :
#
#
# Convention : Reuss Voigt Hill
#
# Bulk Modulus (GPa) = 16.06545 73.61786 44.84165
# Shear Modulus (GPa) = -1.53347 14.51770 6.49212
#
# Velocity S-wave (km/s) = -0.95217 2.92971 1.95915
# Velocity P-wave (km/s) = 2.87914 7.41409 5.62398
#
# Compressibility (1/GPa) = 0.06224540
#
# Stress axis : x y z
#
# Youngs Moduli (GPa) = 64.61182 12.34888 51.67523
#
# Poissons Ratio (x) = -0.16725 0.61932
# Poissons Ratio (y) = -0.87510 1.46449
# Poissons Ratio (z) = 0.77437 0.34997
#
# Static dielectric constant tensor:
#      x y z
#    x 1.551290 0.000000 0.000000 
#    y 0.000000 1.568280 0.000000 
#    z 0.000000 0.000000 1.553710 
# 
# From -- ./inp_files/3081.got.cif
#   From: 2010.05.17/outbox.cif.g08.bks.cpg/sg41_2_cif.got.tgz:3081.got - 2010.06.03 18:54:24.
