data_PCOD9366480
_publ_section_title
;
Structure prediction by ZEFSAII (Michael W. Deem and Ramdas Pophale) SiO2 
 PCOD9366480
Probable space group: A B A 2
;
_chemical_formula_sum "Si O2"
_cell_formula_units_Z 60
_cell_length_a 11.919411
_cell_length_b 15.554616
_cell_length_c 14.717103
_cell_angle_alpha 90.000000
_cell_angle_beta 90.000000
_cell_angle_gamma 90.000000
_cell_volume 2728.578285
_symmetry_space_group_name_H-M "A B A 2"
_symmetry_group_IT_number 41
_symmetry_cell_setting 'orthorhombic'
loop_
_space_group_symop_operation_xyz
x,y,z
-x,-y,z
1/2-x,y,1/2+z
1/2+x,-y,1/2+z
x,1/2+y,1/2+z
-x,1/2-y,1/2+z
1/2-x,1/2+y,z
1/2+x,1/2-y,z
loop_
_atom_site_type_symbol
_atom_site_label
_atom_site_fract_x
_atom_site_fract_y
_atom_site_fract_z
Si Si1 0.235383 0.661529 0.123780
Si Si2 0.500000 0.500000 0.411543
Si Si3 0.090034 0.182099 0.457924
Si Si4 0.720768 0.238477 0.296714
Si Si5 0.371548 0.527217 0.030129
Si Si6 0.422961 0.573244 0.750249
Si Si7 0.751057 0.044757 0.859482
Si Si8 0.071234 0.683364 0.403399
O O1 0.289737 0.730241 0.192512
O O2 0.303110 0.571279 0.112217
O O3 0.121091 0.635141 0.173955
O O4 0.191178 0.696715 0.027786
O O5 0.457411 0.585776 0.463263
O O6 0.616653 0.527188 0.361446
O O7 0.131959 0.207166 0.356615
O O8 0.992663 0.251346 0.467918
O O9 0.725987 0.137229 0.315286
O O10 0.837685 0.269606 0.341909
O O11 0.500000 0.500000 0.050910
O O12 0.302064 0.462266 0.963719
O O13 0.381996 0.610636 0.967506
O O14 0.500000 0.500000 0.710678
O O15 0.318112 0.527543 0.801792
O O16 0.491153 0.625397 0.827294
#
# Coordination Sequence:
#
# PCOD9366480 Si02
#       8
#     8   4   8   8   8   8   8   8
#     4  11  25  43  66 104 142 185 234 305 357 436
#     4  12  22  38  74 106 140 182 252 304 364 432
#     4  12  23  45  71  97 142 187 238 303 368 438
#     4  11  23  46  67  99 145 184 238 295 373 433
#     4  11  22  45  71 100 140 189 246 292 362 441
#     4  10  22  44  68  97 136 185 243 285 362 440
#     4  11  22  45  75 101 139 198 238 301 374 442
#     4  10  20  42  70  93 129 187 224 287 360 430
#
# _framework density 21.989473
#
# number of rings (size 3 to 8) (size 9 to 14) (size 15 to 20)
#    0.000    1.067    4.000    4.800    0.933    0.000 
#   16.800    0.000    0.000    0.000    0.000    0.000 
#    0.000    0.000    0.000    0.000    0.000    0.000 
#
# Total GULP energy -167150.236155 kJ/mol
# GULP energy per Si atom -5571.674538 kJ/mol
# Density = 2.193942 g / cm^3
# Si number density = 21.989473 Si / 1000 Ang^3
#
#
#
# Elastic Constant Matrix: (Units=GPa)
#
#
# Indices 1 2 3 4 5 6 
#
# 1 81.2107 6.3859 10.7857 0.0000 0.0000 0.0000
# 2 6.3859 111.4538 33.1155 0.0000 0.0000 0.0000
# 3 10.7857 33.1155 72.4516 0.0000 0.0000 0.0000
# 4 0.0000 0.0000 0.0000 21.3396 0.0000 0.0000
# 5 0.0000 0.0000 0.0000 0.0000 14.6423 0.0000
# 6 0.0000 0.0000 0.0000 0.0000 0.0000 45.1572
#
#
#
# Elastic Compliance Matrix: (Units=1/GPa)
#
#
# Indices 1 2 3 4 5 6 
#
# 1 0.012565 -0.000190 -0.001784 0.000000 0.000000 0.000000
# 2 -0.000190 0.010385 -0.004718 0.000000 0.000000 0.000000
# 3 -0.001784 -0.004718 0.016225 0.000000 0.000000 0.000000
# 4 0.000000 0.000000 0.000000 0.046861 0.000000 0.000000
# 5 0.000000 0.000000 0.000000 0.000000 0.068295 0.000000
# 6 0.000000 0.000000 0.000000 0.000000 0.000000 0.022145
#
#
# Mechanical properties :
#
#
# Convention : Reuss Voigt Hill
#
# Bulk Modulus (GPa) = 38.77352 40.63224 39.70288
# Shear Modulus (GPa) = 25.19423 30.54974 27.87199
#
# Velocity S-wave (km/s) = 3.38855 3.73136 3.56408
# Velocity P-wave (km/s) = 5.74289 6.08952 5.91874
#
# Compressibility (1/GPa) = 0.02579080
#
# Stress axis : x y z
#
# Youngs Moduli (GPa) = 79.58299 96.29105 61.63500
#
# Poissons Ratio (x) = 0.01829 0.10994
# Poissons Ratio (y) = 0.01512 0.29082
# Poissons Ratio (z) = 0.14196 0.45435
#
# Static dielectric constant tensor:
#      x y z
#    x 2.015710 0.000000 0.000000 
#    y 0.000000 1.842650 0.000000 
#    z 0.000000 0.000000 1.880310 
# 
# From -- ./inp_files/8081.got.cif
#   From: 2010.05.17/outbox.cif.g08.bks.cpg/sg41_5_cif.got.tgz:8081.got - 2010.06.03 18:54:24.
