data_PCOD9366518
_publ_section_title
;
Structure prediction by ZEFSAII (Michael W. Deem and Ramdas Pophale) SiO2 
 PCOD9366518
Probable space group: A B A 2
;
_chemical_formula_sum "Si O2"
_cell_formula_units_Z 56
_cell_length_a 7.682501
_cell_length_b 15.463703
_cell_length_c 17.781887
_cell_angle_alpha 90.000000
_cell_angle_beta 90.000000
_cell_angle_gamma 90.000000
_cell_volume 2112.486642
_symmetry_space_group_name_H-M "A B A 2"
_symmetry_group_IT_number 41
_symmetry_cell_setting 'orthorhombic'
loop_
_space_group_symop_operation_xyz
x,y,z
-x,-y,z
1/2-x,y,1/2+z
1/2+x,-y,1/2+z
x,1/2+y,1/2+z
-x,1/2-y,1/2+z
1/2-x,1/2+y,z
1/2+x,1/2-y,z
loop_
_atom_site_type_symbol
_atom_site_label
_atom_site_fract_x
_atom_site_fract_y
_atom_site_fract_z
Si Si1 0.384096 0.844740 0.882550
Si Si2 0.200234 0.596513 0.273528
Si Si3 0.500000 0.000000 0.699997
Si Si4 0.336506 0.288272 0.218254
Si Si5 0.000000 0.500000 0.973762
Si Si6 0.217840 0.075199 0.061189
Si Si7 0.517612 0.851407 0.421278
Si Si8 0.971551 0.648290 0.145596
O O1 0.755071 0.800465 0.756075
O O2 0.441264 0.750044 0.910313
O O3 0.387051 0.841375 0.791830
O O4 0.186836 0.861578 0.908060
O O5 0.345802 0.525601 0.259873
O O6 0.496359 0.583721 0.421053
O O7 0.117291 0.597345 0.355389
O O8 0.046985 0.588733 0.211956
O O9 0.604076 0.942897 0.634633
O O10 0.233054 0.350262 0.160438
O O11 0.488070 0.246740 0.169486
O O12 0.826464 0.505198 0.025893
O O13 0.391346 0.132230 0.079783
O O14 0.093162 0.115887 0.999517
#
# Coordination Sequence:
#
# PCOD9366518 Si02
#       8
#     8   8   4   8   4   8   8   8
#     4  11  22  43  76 110 156 208 261 340 393 479
#     4   8  19  36  70 103 145 197 260 317 385 473
#     4  10  20  47  70 109 160 212 254 330 411 482
#     4   9  17  39  68 102 132 186 266 316 378 459
#     4  12  28  47  68 111 170 210 258 330 423 478
#     4  11  25  44  68 107 161 206 266 323 412 486
#     4  11  22  43  77 115 150 207 275 330 398 488
#     4   9  19  38  66  97 137 186 247 320 372 462
#
# _framework density 26.509045
#
# number of rings (size 3 to 8) (size 9 to 14) (size 15 to 20)
#    0.857    1.143    1.429    1.714    0.000    4.000 
#    5.143    0.000    3.143    0.000    0.000    0.000 
#    0.000    0.000    0.000    0.000    0.000    0.000 
#
# Total GULP energy -156147.729638 kJ/mol
# GULP energy per Si atom -5576.704630 kJ/mol
# Density = 2.644871 g / cm^3
# Si number density = 26.509045 Si / 1000 Ang^3
#
#
#
# Elastic Constant Matrix: (Units=GPa)
#
#
# Indices 1 2 3 4 5 6 
#
# 1 91.6955 21.8721 14.7263 0.0000 0.0000 0.0000
# 2 21.8721 97.4669 7.6544 0.0000 0.0000 0.0000
# 3 14.7263 7.6544 86.3159 0.0000 0.0000 0.0000
# 4 0.0000 0.0000 0.0000 22.0918 0.0000 0.0000
# 5 0.0000 0.0000 0.0000 0.0000 36.9119 0.0000
# 6 0.0000 0.0000 0.0000 0.0000 0.0000 40.4588
#
#
#
# Elastic Compliance Matrix: (Units=1/GPa)
#
#
# Indices 1 2 3 4 5 6 
#
# 1 0.011791 -0.002505 -0.001789 0.000000 0.000000 0.000000
# 2 -0.002505 0.010864 -0.000536 0.000000 0.000000 0.000000
# 3 -0.001789 -0.000536 0.011938 0.000000 0.000000 0.000000
# 4 0.000000 0.000000 0.000000 0.045266 0.000000 0.000000
# 5 0.000000 0.000000 0.000000 0.000000 0.027092 0.000000
# 6 0.000000 0.000000 0.000000 0.000000 0.000000 0.024717
#
#
# Mechanical properties :
#
#
# Convention : Reuss Voigt Hill
#
# Bulk Modulus (GPa) = 40.10992 40.44265 40.27628
# Shear Modulus (GPa) = 33.41380 35.30753 34.36066
#
# Velocity S-wave (km/s) = 3.55416 3.65349 3.60416
# Velocity P-wave (km/s) = 5.65740 5.75209 5.70495
#
# Compressibility (1/GPa) = 0.02493149
#
# Stress axis : x y z
#
# Youngs Moduli (GPa) = 84.81300 92.04537 83.76492
#
# Poissons Ratio (x) = 0.23061 0.14989
# Poissons Ratio (y) = 0.21249 0.04490
# Poissons Ratio (z) = 0.15177 0.04934
#
# Static dielectric constant tensor:
#      x y z
#    x 2.125640 0.000000 0.000000 
#    y 0.000000 2.382760 0.000000 
#    z 0.000000 0.000000 2.111620 
# 
# From -- ./inp_files/9868.got.cif
#   From: 2010.05.17/outbox.cif.g08.bks.cpg/sg41_5_cif.got.tgz:9868.got - 2010.06.03 18:54:24.
