data_PCOD9366528
_publ_section_title
;
Structure prediction by ZEFSAII (Michael W. Deem and Ramdas Pophale) SiO2 
 PCOD9366528
Probable space group: A B A 2
;
_chemical_formula_sum "Si O2"
_cell_formula_units_Z 64
_cell_length_a 5.562393
_cell_length_b 29.042086
_cell_length_c 19.107778
_cell_angle_alpha 90.000000
_cell_angle_beta 90.000000
_cell_angle_gamma 90.000000
_cell_volume 3086.737256
_symmetry_space_group_name_H-M "A B A 2"
_symmetry_group_IT_number 41
_symmetry_cell_setting 'orthorhombic'
loop_
_space_group_symop_operation_xyz
x,y,z
-x,-y,z
1/2-x,y,1/2+z
1/2+x,-y,1/2+z
x,1/2+y,1/2+z
-x,1/2-y,1/2+z
1/2-x,1/2+y,z
1/2+x,1/2-y,z
loop_
_atom_site_type_symbol
_atom_site_label
_atom_site_fract_x
_atom_site_fract_y
_atom_site_fract_z
Si Si1 0.751050 0.086005 0.722430
Si Si2 0.643754 0.371518 0.797316
Si Si3 0.691350 0.612671 0.473789
Si Si4 0.506431 0.946742 0.849334
Si Si5 0.507808 0.947550 0.095664
Si Si6 0.807466 0.332970 0.499082
Si Si7 0.818300 0.274982 0.374256
Si Si8 0.860402 0.872768 0.140671
O O1 0.584469 0.054267 0.769198
O O2 0.629577 0.118339 0.664809
O O3 0.868704 0.118433 0.780541
O O4 0.920195 0.054578 0.675836
O O5 0.690912 0.324976 0.838005
O O6 0.740758 0.367237 0.717135
O O7 0.753625 0.415377 0.838826
O O8 0.651150 0.581113 0.405780
O O9 0.656263 0.580071 0.541073
O O10 0.454133 0.645743 0.478249
O O11 0.950421 0.638051 0.476501
O O12 0.500000 0.000000 0.871528
O O13 0.755641 0.918607 0.102060
O O14 0.500000 0.000000 0.072774
O O15 0.823378 0.285481 0.457303
O O16 0.819926 0.333491 0.583526
O O17 0.572144 0.248679 0.355544
#
# Coordination Sequence:
#
# PCOD9366528 Si02
#       8
#     8   8   8   8   8   8   8   8
#     4  10  21  38  63  90 131 180 221 272 332 388
#     4  10  23  44  65  98 136 177 220 283 336 406
#     4  11  22  42  64  94 134 183 215 280 330 384
#     4  11  24  37  62  96 135 184 228 271 329 394
#     4  10  21  35  58  93 134 178 233 274 316 394
#     4  11  22  45  69  96 131 171 220 279 337 406
#     4  12  27  46  75 104 129 173 224 281 353 414
#     4   9  21  39  66  94 127 185 219 272 350 390
#
# _framework density 20.733865999999999
#
# number of rings (size 3 to 8) (size 9 to 14) (size 15 to 20)
#    0.000    1.500    2.500    1.875    8.750    0.000 
#    0.000    2.500    0.000    0.000    0.000    0.000 
#    0.000    0.000    0.000    0.000    0.000    0.000 
#
# Total GULP energy -178150.771283 kJ/mol
# GULP energy per Si atom -5567.211603 kJ/mol
# Density = 2.068667 g / cm^3
# Si number density = 20.733866 Si / 1000 Ang^3
#
#
#
# Elastic Constant Matrix: (Units=GPa)
#
#
# Indices 1 2 3 4 5 6 
#
# 1 91.1446 37.0611 14.0897 0.0000 0.0000 0.0000
# 2 37.0611 69.5487 11.2950 0.0000 0.0000 0.0000
# 3 14.0897 11.2950 91.2884 0.0000 0.0000 0.0000
# 4 0.0000 0.0000 0.0000 30.9664 0.0000 0.0000
# 5 0.0000 0.0000 0.0000 0.0000 34.7886 0.0000
# 6 0.0000 0.0000 0.0000 0.0000 0.0000 10.9437
#
#
#
# Elastic Compliance Matrix: (Units=1/GPa)
#
#
# Indices 1 2 3 4 5 6 
#
# 1 0.014151 -0.007333 -0.001277 0.000000 0.000000 0.000000
# 2 -0.007333 0.018474 -0.001154 0.000000 0.000000 0.000000
# 3 -0.001277 -0.001154 0.011294 0.000000 0.000000 0.000000
# 4 0.000000 0.000000 0.000000 0.032293 0.000000 0.000000
# 5 0.000000 0.000000 0.000000 0.000000 0.028745 0.000000
# 6 0.000000 0.000000 0.000000 0.000000 0.000000 0.091377
#
#
# Mechanical properties :
#
#
# Convention : Reuss Voigt Hill
#
# Bulk Modulus (GPa) = 40.99931 41.87480 41.43706
# Shear Modulus (GPa) = 22.32223 27.97545 25.14884
#
# Velocity S-wave (km/s) = 3.28473 3.67722 3.48650
# Velocity P-wave (km/s) = 5.84833 6.18623 6.01965
#
# Compressibility (1/GPa) = 0.02439065
#
# Stress axis : x y z
#
# Youngs Moduli (GPa) = 70.66730 54.13129 88.54169
#
# Poissons Ratio (x) = 0.39696 0.11304
# Poissons Ratio (y) = 0.51823 0.10217
# Poissons Ratio (z) = 0.09022 0.06246
#
# Static dielectric constant tensor:
#      x y z
#    x 1.879190 0.000000 0.000000 
#    y 0.000000 1.740360 0.000000 
#    z 0.000000 0.000000 1.776900 
# 
# From -- ./inp_files/9507.got.cif
#   From: 2010.05.17/outbox.cif.g08.bks.cpg/sg41_5_cif.got.tgz:9507.got - 2010.06.03 18:54:24.
