data_PCOD9366856
_publ_section_title
;
Structure prediction by ZEFSAII (Michael W. Deem and Ramdas Pophale) SiO2 
 PCOD9366856
Probable space group: A B A 2
;
_chemical_formula_sum "Si O2"
_cell_formula_units_Z 60
_cell_length_a 9.821742
_cell_length_b 26.015710
_cell_length_c 10.779782
_cell_angle_alpha 90.000000
_cell_angle_beta 90.000000
_cell_angle_gamma 90.000000
_cell_volume 2754.445494
_symmetry_space_group_name_H-M "A B A 2"
_symmetry_group_IT_number 41
_symmetry_cell_setting 'orthorhombic'
loop_
_space_group_symop_operation_xyz
x,y,z
-x,-y,z
1/2-x,y,1/2+z
1/2+x,-y,1/2+z
x,1/2+y,1/2+z
-x,1/2-y,1/2+z
1/2-x,1/2+y,z
1/2+x,1/2-y,z
loop_
_atom_site_type_symbol
_atom_site_label
_atom_site_fract_x
_atom_site_fract_y
_atom_site_fract_z
Si Si1 0.061765 0.780372 0.233060
Si Si2 0.267049 0.693009 0.312651
Si Si3 0.976503 0.574830 0.992593
Si Si4 0.247105 0.129965 0.565021
Si Si5 0.240195 0.866788 0.356221
Si Si6 0.000000 0.500000 0.766971
Si Si7 0.541110 0.638553 0.030553
Si Si8 0.236428 0.447855 0.654572
O O1 0.143674 0.729140 0.266290
O O2 0.167909 0.823730 0.277179
O O3 0.029631 0.806054 0.098698
O O4 0.914564 0.780746 0.296557
O O5 0.261154 0.648402 0.207509
O O6 0.264747 0.673289 0.454895
O O7 0.876675 0.622358 0.959162
O O8 0.007979 0.547883 0.861530
O O9 0.873425 0.541441 0.077750
O O10 0.116026 0.593945 0.051415
O O11 0.397099 0.110271 0.530504
O O12 0.385508 0.848905 0.403071
O O13 0.269616 0.919686 0.283983
O O14 0.864485 0.505783 0.685697
O O15 0.642830 0.595760 0.088629
#
# Coordination Sequence:
#
# PCOD9366856 Si02
#       8
#     8   8   8   8   8   4   8   8
#     4  10  22  38  57  88 128 168 221 283 330 388
#     4  11  26  40  61  94 130 176 225 283 337 398
#     4  10  21  42  65  94 132 175 216 280 344 414
#     4  11  25  42  62  96 133 173 226 274 345 399
#     4   9  18  38  63  84 123 171 220 263 333 404
#     4  10  22  40  70  98 136 162 226 290 338 428
#     4   9  21  38  61  89 121 173 218 274 337 390
#     4   9  20  39  66  96 125 172 216 270 347 406
#
# _framework density 21.782969000000001
#
# number of rings (size 3 to 8) (size 9 to 14) (size 15 to 20)
#    0.000    2.133    1.333    0.000    7.467    4.267 
#    0.000    0.000    0.000    3.200    0.000    0.000 
#    0.000    0.000    0.000    0.000    0.000    0.000 
#
# Total GULP energy -167013.489453 kJ/mol
# GULP energy per Si atom -5567.116315 kJ/mol
# Density = 2.173339 g / cm^3
# Si number density = 21.782969 Si / 1000 Ang^3
#
#
#
# Elastic Constant Matrix: (Units=GPa)
#
#
# Indices 1 2 3 4 5 6 
#
# 1 138.2776 36.1732 35.2621 0.0000 0.0000 0.0000
# 2 36.1732 29.2263 -0.5647 0.0000 0.0000 0.0000
# 3 35.2621 -0.5647 40.2146 0.0000 0.0000 0.0000
# 4 0.0000 0.0000 0.0000 22.9921 0.0000 0.0000
# 5 0.0000 0.0000 0.0000 0.0000 24.9523 0.0000
# 6 0.0000 0.0000 0.0000 0.0000 0.0000 29.1022
#
#
#
# Elastic Compliance Matrix: (Units=1/GPa)
#
#
# Indices 1 2 3 4 5 6 
#
# 1 0.016303 -0.020459 -0.014582 0.000000 0.000000 0.000000
# 2 -0.020459 0.059901 0.018781 0.000000 0.000000 0.000000
# 3 -0.014582 0.018781 0.037917 0.000000 0.000000 0.000000
# 4 0.000000 0.000000 0.000000 0.043493 0.000000 0.000000
# 5 0.000000 0.000000 0.000000 0.000000 0.040077 0.000000
# 6 0.000000 0.000000 0.000000 0.000000 0.000000 0.034362
#
#
# Mechanical properties :
#
#
# Convention : Reuss Voigt Hill
#
# Bulk Modulus (GPa) = 12.25507 38.82887 25.54197
# Shear Modulus (GPa) = 17.13664 24.53250 20.83457
#
# Velocity S-wave (km/s) = 2.80786 3.35957 3.09603
# Velocity P-wave (km/s) = 4.01874 5.73698 4.95294
#
# Compressibility (1/GPa) = 0.08159888
#
# Stress axis : x y z
#
# Youngs Moduli (GPa) = 61.34007 16.69423 26.37363
#
# Poissons Ratio (x) = 0.34155 0.38458
# Poissons Ratio (y) = 1.25498 -0.49532
# Poissons Ratio (z) = 0.89447 -0.31353
#
# Static dielectric constant tensor:
#      x y z
#    x 1.822270 0.000000 0.000000 
#    y 0.000000 1.841410 0.000000 
#    z 0.000000 0.000000 1.916350 
# 
# From -- ./inp_files/4582.got.cif
#   From: 2010.05.17/outbox.cif.g08.bks.cpg/sg41_3_cif.got.tgz:4582.got - 2010.06.03 18:54:24.
