data_PCOD9366196
_publ_section_title
;
Structure prediction by ZEFSAII (Michael W. Deem and Ramdas Pophale) SiO2 
 PCOD9366196
Probable space group: A B A 2
;
_chemical_formula_sum "Si O2"
_cell_formula_units_Z 60
_cell_length_a 23.396115
_cell_length_b 12.385143
_cell_length_c 9.997399
_cell_angle_alpha 90.000000
_cell_angle_beta 90.000000
_cell_angle_gamma 90.000000
_cell_volume 2896.888622
_symmetry_space_group_name_H-M "A B A 2"
_symmetry_group_IT_number 41
_symmetry_cell_setting 'orthorhombic'
loop_
_space_group_symop_operation_xyz
x,y,z
-x,-y,z
1/2-x,y,1/2+z
1/2+x,-y,1/2+z
x,1/2+y,1/2+z
-x,1/2-y,1/2+z
1/2-x,1/2+y,z
1/2+x,1/2-y,z
loop_
_atom_site_type_symbol
_atom_site_label
_atom_site_fract_x
_atom_site_fract_y
_atom_site_fract_z
Si Si1 0.585460 0.994443 0.567510
Si Si2 0.201295 0.390768 0.491198
Si Si3 0.649823 0.837281 0.086573
Si Si4 0.763259 0.487219 0.229644
Si Si5 0.536042 0.221236 0.587821
Si Si6 0.000000 0.000000 0.855484
Si Si7 0.939757 0.700147 0.276481
Si Si8 0.350707 0.137004 0.792062
O O1 0.544988 0.940956 0.455870
O O2 0.609444 0.925507 0.687869
O O3 0.640259 0.048779 0.497476
O O4 0.550937 0.097604 0.620794
O O5 0.188300 0.266755 0.536195
O O6 0.227655 0.428148 0.350115
O O7 0.240916 0.444946 0.603641
O O8 0.682278 0.915941 0.186998
O O9 0.589835 0.791797 0.140318
O O10 0.638114 0.895579 0.945111
O O11 0.713797 0.398810 0.263224
O O12 0.477875 0.250581 0.659685
O O13 0.539411 0.234315 0.426386
O O14 0.041867 0.924231 0.772992
O O15 0.874131 0.740009 0.272853
#
# Coordination Sequence:
#
# PCOD9366196 Si02
#       8
#     8   8   8   8   8   4   8   8
#     4   9  19  38  63  85 116 163 201 242 314 369
#     4  10  23  38  63  87 123 161 205 257 310 376
#     4  10  22  40  60  91 125 158 208 262 308 369
#     4  11  22  40  61  89 120 164 205 257 316 375
#     4   9  20  39  62  88 121 156 203 253 303 373
#     4  10  20  36  62  92 122 164 200 250 310 376
#     4  10  20  37  61  88 122 161 201 251 305 369
#     4  10  20  38  61  87 120 158 204 252 309 367
#
# _framework density 20.711876
#
# number of rings (size 3 to 8) (size 9 to 14) (size 15 to 20)
#    0.000    2.133    1.333    2.400    3.733    0.000 
#    0.000    2.667    2.933    0.000    0.000    0.000 
#    0.000    0.000    0.000    0.000    0.000    0.000 
#
# Total GULP energy -167142.608563 kJ/mol
# GULP energy per Si atom -5571.420285 kJ/mol
# Density = 2.066474 g / cm^3
# Si number density = 20.711876 Si / 1000 Ang^3
#
#
#
# Elastic Constant Matrix: (Units=GPa)
#
#
# Indices 1 2 3 4 5 6 
#
# 1 43.5277 1.9040 7.8948 0.0000 0.0000 0.0000
# 2 1.9040 33.8068 25.0240 0.0000 0.0000 0.0000
# 3 7.8948 25.0240 52.3136 0.0000 0.0000 0.0000
# 4 0.0000 0.0000 0.0000 24.9244 0.0000 0.0000
# 5 0.0000 0.0000 0.0000 0.0000 21.0048 0.0000
# 6 0.0000 0.0000 0.0000 0.0000 0.0000 28.5117
#
#
#
# Elastic Compliance Matrix: (Units=1/GPa)
#
#
# Indices 1 2 3 4 5 6 
#
# 1 0.023710 0.002033 -0.004551 0.000000 0.000000 0.000000
# 2 0.002033 0.045969 -0.022296 0.000000 0.000000 0.000000
# 3 -0.004551 -0.022296 0.030467 0.000000 0.000000 0.000000
# 4 0.000000 0.000000 0.000000 0.040121 0.000000 0.000000
# 5 0.000000 0.000000 0.000000 0.000000 0.047608 0.000000
# 6 0.000000 0.000000 0.000000 0.000000 0.000000 0.035073
#
#
# Mechanical properties :
#
#
# Convention : Reuss Voigt Hill
#
# Bulk Modulus (GPa) = 19.79429 22.14376 20.96902
# Shear Modulus (GPa) = 17.27615 21.20985 19.24300
#
# Velocity S-wave (km/s) = 2.89124 3.20354 3.05139
# Velocity P-wave (km/s) = 4.55230 4.93944 4.74982
#
# Compressibility (1/GPa) = 0.05051963
#
# Stress axis : x y z
#
# Youngs Moduli (GPa) = 42.17567 21.75385 32.82201
#
# Poissons Ratio (x) = -0.04423 0.14936
# Poissons Ratio (y) = -0.08575 0.73179
# Poissons Ratio (z) = 0.19193 0.48502
#
# Static dielectric constant tensor:
#      x y z
#    x 1.792720 0.000000 0.000000 
#    y 0.000000 1.856050 0.000000 
#    z 0.000000 0.000000 1.748940 
# 
# From -- ./inp_files/3663.got.cif
#   From: 2010.05.17/outbox.cif.g08.bks.cpg/sg41_2_cif.got.tgz:3663.got - 2010.06.03 18:54:24.
