data_PCOD9366775
_publ_section_title
;
Structure prediction by ZEFSAII (Michael W. Deem and Ramdas Pophale) SiO2 
 PCOD9366775
Probable space group: A B A 2
;
_chemical_formula_sum "Si O2"
_cell_formula_units_Z 56
_cell_length_a 13.829650
_cell_length_b 13.652217
_cell_length_c 14.720573
_cell_angle_alpha 90.000000
_cell_angle_beta 90.000000
_cell_angle_gamma 90.000000
_cell_volume 2779.323421
_symmetry_space_group_name_H-M "A B A 2"
_symmetry_group_IT_number 41
_symmetry_cell_setting 'orthorhombic'
loop_
_space_group_symop_operation_xyz
x,y,z
-x,-y,z
1/2-x,y,1/2+z
1/2+x,-y,1/2+z
x,1/2+y,1/2+z
-x,1/2-y,1/2+z
1/2-x,1/2+y,z
1/2+x,1/2-y,z
loop_
_atom_site_type_symbol
_atom_site_label
_atom_site_fract_x
_atom_site_fract_y
_atom_site_fract_z
Si Si1 0.361023 0.842025 0.257700
Si Si2 0.313286 0.433737 0.569036
Si Si3 0.020229 0.210389 0.373582
Si Si4 0.500000 0.000000 0.950296
Si Si5 0.176152 0.268590 0.508955
Si Si6 0.500000 0.500000 0.745764
Si Si7 0.200470 0.731636 0.346945
Si Si8 0.330935 0.620466 0.669762
O O1 0.348971 0.863932 0.151707
O O2 0.423191 0.747159 0.284424
O O3 0.421040 0.934629 0.296586
O O4 0.258510 0.824260 0.304954
O O5 0.405741 0.465416 0.508458
O O6 0.230042 0.372324 0.519471
O O7 0.276908 0.532129 0.619047
O O8 0.074158 0.265357 0.457006
O O9 0.909804 0.242245 0.365164
O O10 0.027893 0.095413 0.392597
O O11 0.245282 0.207378 0.440167
O O12 0.167305 0.213820 0.604529
O O13 0.438037 0.576360 0.686538
O O14 0.206725 0.650296 0.268548
#
# Coordination Sequence:
#
# PCOD9366775 Si02
#       8
#     8   8   8   4   8   4   8   8
#     4  10  22  41  67 102 133 183 237 299 350 435
#     4  11  22  43  72 100 129 190 247 286 365 449
#     4  11  24  42  64 105 141 184 234 306 360 426
#     4  12  23  42  72 100 139 188 241 292 366 444
#     4  11  24  43  67 105 143 181 235 306 358 424
#     4  10  21  40  76  96 129 190 251 274 368 440
#     4  11  23  44  67 104 142 182 238 298 363 432
#     4  11  22  43  69 101 134 186 235 297 356 441
#
# _framework density 20.148789000000001
#
# number of rings (size 3 to 8) (size 9 to 14) (size 15 to 20)
#    0.000    1.143    5.714    1.714    0.000    0.000 
#   20.571    0.000    0.000    0.000    7.429    0.000 
#    0.000    0.000    0.000    0.000    0.000    0.000 
#
# Total GULP energy -156178.527938 kJ/mol
# GULP energy per Si atom -5577.804569 kJ/mol
# Density = 2.010293 g / cm^3
# Si number density = 20.148789 Si / 1000 Ang^3
#
#
#
# Elastic Constant Matrix: (Units=GPa)
#
#
# Indices 1 2 3 4 5 6 
#
# 1 129.6938 50.1159 25.1710 0.0000 0.0000 0.0000
# 2 50.1159 109.0888 39.2816 0.0000 0.0000 0.0000
# 3 25.1710 39.2816 62.4400 0.0000 0.0000 0.0000
# 4 0.0000 0.0000 0.0000 47.1965 0.0000 0.0000
# 5 0.0000 0.0000 0.0000 0.0000 11.4295 0.0000
# 6 0.0000 0.0000 0.0000 0.0000 0.0000 46.5519
#
#
#
# Elastic Compliance Matrix: (Units=1/GPa)
#
#
# Indices 1 2 3 4 5 6 
#
# 1 0.009468 -0.003847 -0.001397 0.000000 0.000000 0.000000
# 2 -0.003847 0.013414 -0.006888 0.000000 0.000000 0.000000
# 3 -0.001397 -0.006888 0.020912 0.000000 0.000000 0.000000
# 4 0.000000 0.000000 0.000000 0.021188 0.000000 0.000000
# 5 0.000000 0.000000 0.000000 0.000000 0.087493 0.000000
# 6 0.000000 0.000000 0.000000 0.000000 0.000000 0.021481
#
#
# Mechanical properties :
#
#
# Convention : Reuss Voigt Hill
#
# Bulk Modulus (GPa) = 51.20162 58.92884 55.06523
# Shear Modulus (GPa) = 24.42229 33.47919 28.95074
#
# Velocity S-wave (km/s) = 3.48530 4.08069 3.79469
# Velocity P-wave (km/s) = 6.45471 7.17726 6.82555
#
# Compressibility (1/GPa) = 0.01953063
#
# Stress axis : x y z
#
# Youngs Moduli (GPa) = 105.61914 74.54626 47.81927
#
# Poissons Ratio (x) = 0.28675 0.06679
# Poissons Ratio (y) = 0.40628 0.32940
# Poissons Ratio (z) = 0.14753 0.51351
#
# Static dielectric constant tensor:
#      x y z
#    x 1.748260 0.000000 0.000000 
#    y 0.000000 1.742320 0.000000 
#    z 0.000000 0.000000 1.758850 
# 
# From -- ./inp_files/8495.got.cif
#   From: 2010.05.17/outbox.cif.g08.bks.cpg/sg41_5_cif.got.tgz:8495.got - 2010.06.03 18:54:24.
