data_PCOD9366215
_publ_section_title
;
Structure prediction by ZEFSAII (Michael W. Deem and Ramdas Pophale) SiO2 
 PCOD9366215
Probable space group: A B A 2
;
_chemical_formula_sum "Si O2"
_cell_formula_units_Z 64
_cell_length_a 12.234910
_cell_length_b 25.209727
_cell_length_c 11.070463
_cell_angle_alpha 90.000000
_cell_angle_beta 90.000000
_cell_angle_gamma 90.000000
_cell_volume 3414.559670
_symmetry_space_group_name_H-M "A B A 2"
_symmetry_group_IT_number 41
_symmetry_cell_setting 'orthorhombic'
loop_
_space_group_symop_operation_xyz
x,y,z
-x,-y,z
1/2-x,y,1/2+z
1/2+x,-y,1/2+z
x,1/2+y,1/2+z
-x,1/2-y,1/2+z
1/2-x,1/2+y,z
1/2+x,1/2-y,z
loop_
_atom_site_type_symbol
_atom_site_label
_atom_site_fract_x
_atom_site_fract_y
_atom_site_fract_z
Si Si1 0.768494 0.410369 0.539410
Si Si2 0.832983 0.959581 0.782718
Si Si3 0.907934 0.319422 0.991097
Si Si4 0.078107 0.422692 0.310531
Si Si5 0.338692 0.780726 0.651859
Si Si6 0.021692 0.241366 0.838576
Si Si7 0.995827 0.352805 0.524969
Si Si8 0.391677 0.329245 0.646486
O O1 0.782434 0.441322 0.411535
O O2 0.731779 0.443210 0.659837
O O3 0.678735 0.365713 0.507170
O O4 0.885808 0.382494 0.564907
O O5 0.951527 0.931189 0.771925
O O6 0.860828 0.021535 0.801231
O O7 0.865212 0.270594 0.072035
O O8 0.026148 0.339150 0.037499
O O9 0.939806 0.289584 0.868228
O O10 0.133571 0.382459 0.218484
O O11 0.064748 0.393350 0.439736
O O12 0.363497 0.762867 0.788667
O O13 0.424522 0.827614 0.623607
O O14 0.219317 0.799809 0.618762
O O15 0.961872 0.207333 0.736457
O O16 0.037497 0.199369 0.946314
#
# Coordination Sequence:
#
# PCOD9366215 Si02
#       8
#     8   8   8   8   8   8   8   8
#     4  11  23  38  65  94 122 161 206 256 315 363
#     4  10  22  40  67  90 117 160 207 264 312 365
#     4  10  22  34  55  86 124 158 205 253 296 371
#     4   9  19  42  62  82 117 158 209 249 312 383
#     4  10  22  34  56  86 122 162 204 247 306 369
#     4   9  21  35  51  87 122 164 199 249 301 370
#     4   9  21  38  57  89 120 162 206 251 314 374
#     4  10  20  37  58  82 113 163 205 242 316 367
#
# _framework density 18.743265999999998
#
# number of rings (size 3 to 8) (size 9 to 14) (size 15 to 20)
#    0.000    2.250    1.250    0.000   10.500    3.000 
#    0.000    0.000    0.000    6.000    0.000    0.000 
#    0.000    0.000    0.000    0.000    0.000    0.000 
#
# Total GULP energy -178260.194335 kJ/mol
# GULP energy per Si atom -5570.631073 kJ/mol
# Density = 1.870061 g / cm^3
# Si number density = 18.743266 Si / 1000 Ang^3
#
#
#
# Elastic Constant Matrix: (Units=GPa)
#
#
# Indices 1 2 3 4 5 6 
#
# 1 70.5562 41.1187 8.8554 0.0000 0.0000 0.0000
# 2 41.1187 86.2801 41.3725 0.0000 0.0000 0.0000
# 3 8.8554 41.3725 47.5457 0.0000 0.0000 0.0000
# 4 0.0000 0.0000 0.0000 1.3775 0.0000 0.0000
# 5 0.0000 0.0000 0.0000 0.0000 17.1874 0.0000
# 6 0.0000 0.0000 0.0000 0.0000 0.0000 24.5498
#
#
#
# Elastic Compliance Matrix: (Units=1/GPa)
#
#
# Indices 1 2 3 4 5 6 
#
# 1 0.021412 -0.014229 0.008394 0.000000 0.000000 0.000000
# 2 -0.014229 0.029345 -0.022885 0.000000 0.000000 0.000000
# 3 0.008394 -0.022885 0.039383 0.000000 0.000000 0.000000
# 4 0.000000 0.000000 0.000000 0.725970 0.000000 0.000000
# 5 0.000000 0.000000 0.000000 0.000000 0.058182 0.000000
# 6 0.000000 0.000000 0.000000 0.000000 0.000000 0.040734
#
#
# Mechanical properties :
#
#
# Convention : Reuss Voigt Hill
#
# Bulk Modulus (GPa) = 30.58179 43.00836 36.79507
# Shear Modulus (GPa) = 5.08457 16.15861 10.62159
#
# Velocity S-wave (km/s) = 1.64883 2.93934 2.38310
# Velocity P-wave (km/s) = 4.46950 5.87499 5.21977
#
# Compressibility (1/GPa) = 0.03269920
#
# Stress axis : x y z
#
# Youngs Moduli (GPa) = 46.70231 34.07725 25.39196
#
# Poissons Ratio (x) = 0.48490 -0.21314
# Poissons Ratio (y) = 0.66455 0.58109
# Poissons Ratio (z) = -0.39202 0.77985
#
# Static dielectric constant tensor:
#      x y z
#    x 1.638640 0.000000 0.000000 
#    y 0.000000 1.649300 0.000000 
#    z 0.000000 0.000000 1.696940 
# 
# From -- ./inp_files/5190.got.cif
#   From: 2010.05.17/outbox.cif.g08.bks.cpg/sg41_3_cif.got.tgz:5190.got - 2010.06.03 18:54:24.
