data_PCOD9366116
_publ_section_title
;
Structure prediction by ZEFSAII (Michael W. Deem and Ramdas Pophale) SiO2 
 PCOD9366116
Probable space group: A B A 2
;
_chemical_formula_sum "Si O2"
_cell_formula_units_Z 64
_cell_length_a 18.717595
_cell_length_b 27.903853
_cell_length_c 5.631549
_cell_angle_alpha 90.000000
_cell_angle_beta 90.000000
_cell_angle_gamma 90.000000
_cell_volume 2941.318731
_symmetry_space_group_name_H-M "A B A 2"
_symmetry_group_IT_number 41
_symmetry_cell_setting 'orthorhombic'
loop_
_space_group_symop_operation_xyz
x,y,z
-x,-y,z
1/2-x,y,1/2+z
1/2+x,-y,1/2+z
x,1/2+y,1/2+z
-x,1/2-y,1/2+z
1/2-x,1/2+y,z
1/2+x,1/2-y,z
loop_
_atom_site_type_symbol
_atom_site_label
_atom_site_fract_x
_atom_site_fract_y
_atom_site_fract_z
Si Si1 0.405776 0.229676 0.346610
Si Si2 0.420896 0.148380 0.663589
Si Si3 0.528262 0.183497 0.064259
Si Si4 0.506724 0.087323 0.278053
Si Si5 0.422482 0.054576 0.878175
Si Si6 0.290691 0.883393 0.619323
Si Si7 0.710414 0.229546 0.573460
Si Si8 0.082006 0.456350 0.661365
O O1 0.377834 0.187874 0.518106
O O2 0.410958 0.280574 0.478906
O O3 0.358780 0.238052 0.115644
O O4 0.484382 0.212050 0.267085
O O5 0.472088 0.174400 0.852010
O O6 0.471605 0.120539 0.478945
O O7 0.384535 0.103176 0.791699
O O8 0.548964 0.129354 0.136973
O O9 0.556765 0.046707 0.387261
O O10 0.438706 0.062846 0.153136
O O11 0.506999 0.052789 0.797428
O O12 0.390956 0.006475 0.767766
O O13 0.258025 0.893396 0.354960
O O14 0.307518 0.826868 0.598225
O O15 0.360701 0.914547 0.671828
O O16 0.743510 0.238688 0.314620
#
# Coordination Sequence:
#
# PCOD9366116 Si02
#       8
#     8   8   8   8   8   8   8   8
#     4  11  21  33  61  83 126 158 205 253 307 376
#     4   9  19  36  50  87 120 149 190 250 313 369
#     4  10  20  32  54  95 119 159 198 253 322 373
#     4   9  20  34  55  86 129 153 194 248 314 387
#     4   9  20  36  57  91 123 153 200 246 322 385
#     4  10  24  44  61  89 124 166 216 260 305 364
#     4  10  25  42  60  88 124 171 216 255 302 370
#     4  10  21  36  62  89 120 165 200 252 314 380
#
# _framework density 21.758949000000001
#
# number of rings (size 3 to 8) (size 9 to 14) (size 15 to 20)
#    0.000    2.250    1.250    0.000    8.750    6.000 
#    0.000    0.000    0.000    1.500    0.000    0.000 
#    0.000    0.000    0.000    0.000    0.000    0.000 
#
# Total GULP energy -178224.692540 kJ/mol
# GULP energy per Si atom -5569.521642 kJ/mol
# Density = 2.170942 g / cm^3
# Si number density = 21.758949 Si / 1000 Ang^3
#
#
#
# Elastic Constant Matrix: (Units=GPa)
#
#
# Indices 1 2 3 4 5 6 
#
# 1 24.0929 3.0722 4.2378 0.0000 0.0000 0.0000
# 2 3.0722 82.3698 34.8695 0.0000 0.0000 0.0000
# 3 4.2378 34.8695 77.8483 0.0000 0.0000 0.0000
# 4 0.0000 0.0000 0.0000 23.2147 0.0000 0.0000
# 5 0.0000 0.0000 0.0000 0.0000 27.8034 0.0000
# 6 0.0000 0.0000 0.0000 0.0000 0.0000 23.5697
#
#
#
# Elastic Compliance Matrix: (Units=1/GPa)
#
#
# Indices 1 2 3 4 5 6 
#
# 1 0.041944 -0.000738 -0.001953 0.000000 0.000000 0.000000
# 2 -0.000738 0.014994 -0.006676 0.000000 0.000000 0.000000
# 3 -0.001953 -0.006676 0.015942 0.000000 0.000000 0.000000
# 4 0.000000 0.000000 0.000000 0.043076 0.000000 0.000000
# 5 0.000000 0.000000 0.000000 0.000000 0.035967 0.000000
# 6 0.000000 0.000000 0.000000 0.000000 0.000000 0.042427
#
#
# Mechanical properties :
#
#
# Convention : Reuss Voigt Hill
#
# Bulk Modulus (GPa) = 18.46832 29.85222 24.16027
# Shear Modulus (GPa) = 21.63268 24.39299 23.01283
#
# Velocity S-wave (km/s) = 3.15651 3.35185 3.25564
# Velocity P-wave (km/s) = 4.66807 5.35996 5.02593
#
# Compressibility (1/GPa) = 0.05414677
#
# Stress axis : x y z
#
# Youngs Moduli (GPa) = 23.84151 66.69343 62.72728
#
# Poissons Ratio (x) = 0.04920 0.12250
# Poissons Ratio (y) = 0.01759 0.41876
# Poissons Ratio (z) = 0.04656 0.44524
#
# Static dielectric constant tensor:
#      x y z
#    x 1.797900 0.000000 0.000000 
#    y 0.000000 1.832620 0.000000 
#    z 0.000000 0.000000 2.024340 
# 
# From -- ./inp_files/575.got.cif
#   From: 2010.05.17/outbox.cif.g08.bks.cpg/sg41_1_cif.got.tgz:575.got - 2010.06.03 18:54:24.
