data_PCOD9366624
_publ_section_title
;
Structure prediction by ZEFSAII (Michael W. Deem and Ramdas Pophale) SiO2 
 PCOD9366624
Probable space group: A B A 2
;
_chemical_formula_sum "Si O2"
_cell_formula_units_Z 60
_cell_length_a 16.655183
_cell_length_b 27.709702
_cell_length_c 5.745998
_cell_angle_alpha 90.000000
_cell_angle_beta 90.000000
_cell_angle_gamma 90.000000
_cell_volume 2651.836443
_symmetry_space_group_name_H-M "A B A 2"
_symmetry_group_IT_number 41
_symmetry_cell_setting 'orthorhombic'
loop_
_space_group_symop_operation_xyz
x,y,z
-x,-y,z
1/2-x,y,1/2+z
1/2+x,-y,1/2+z
x,1/2+y,1/2+z
-x,1/2-y,1/2+z
1/2-x,1/2+y,z
1/2+x,1/2-y,z
loop_
_atom_site_type_symbol
_atom_site_label
_atom_site_fract_x
_atom_site_fract_y
_atom_site_fract_z
Si Si1 0.924900 0.578229 0.023710
Si Si2 0.356254 0.158744 0.149626
Si Si3 0.002471 0.830483 0.346048
Si Si4 0.059118 0.226321 0.988097
Si Si5 0.500000 0.500000 0.180098
Si Si6 0.204828 0.992203 0.605131
Si Si7 0.773155 0.765875 0.156813
Si Si8 0.417047 0.563102 0.808568
O O1 0.931237 0.631227 0.917335
O O2 0.839228 0.559660 0.107216
O O3 0.992974 0.574889 0.222511
O O4 0.955455 0.540411 0.830276
O O5 0.416543 0.148115 0.934417
O O6 0.397252 0.205346 0.265290
O O7 0.267732 0.180685 0.116837
O O8 0.366957 0.112842 0.318483
O O9 0.022121 0.778204 0.453046
O O10 0.998481 0.816163 0.076256
O O11 0.131221 0.230749 0.173061
O O12 0.433815 0.528797 0.027425
O O13 0.247853 0.998052 0.352717
O O14 0.133131 0.031377 0.625169
O O15 0.745103 0.743069 0.401828
#
# Coordination Sequence:
#
# PCOD9366624 Si02
#       8
#     8   8   8   8   4   8   8   8
#     4  11  24  43  69  99 135 189 243 296 347 440
#     4  10  22  39  62  97 133 170 227 287 350 425
#     4  11  22  40  65  96 130 178 246 279 349 416
#     4  11  21  40  64  96 132 181 220 295 348 419
#     4  12  18  42  74  98 142 178 252 288 370 424
#     4  12  26  46  68 101 146 185 237 300 362 425
#     4  10  21  38  62  90 136 169 209 274 354 405
#     4  11  23  41  70 100 131 188 230 294 363 433
#
# _framework density 22.625827999999998
#
# number of rings (size 3 to 8) (size 9 to 14) (size 15 to 20)
#    0.000    1.067    5.333    1.600    0.000    2.133 
#    0.000    2.667    0.000    0.000    0.000    0.000 
#    0.000    0.000    0.000    0.000    0.000    0.000 
#
# Total GULP energy -167192.812515 kJ/mol
# GULP energy per Si atom -5573.093751 kJ/mol
# Density = 2.257433 g / cm^3
# Si number density = 22.625828 Si / 1000 Ang^3
#
#
#
# Elastic Constant Matrix: (Units=GPa)
#
#
# Indices 1 2 3 4 5 6 
#
# 1 49.7015 14.6969 11.3320 0.0000 0.0000 0.0000
# 2 14.6969 73.8702 20.6414 0.0000 0.0000 0.0000
# 3 11.3320 20.6414 88.8458 0.0000 0.0000 0.0000
# 4 0.0000 0.0000 0.0000 21.1248 0.0000 0.0000
# 5 0.0000 0.0000 0.0000 0.0000 42.2403 0.0000
# 6 0.0000 0.0000 0.0000 0.0000 0.0000 31.8879
#
#
#
# Elastic Compliance Matrix: (Units=1/GPa)
#
#
# Indices 1 2 3 4 5 6 
#
# 1 0.021669 -0.003785 -0.001885 0.000000 0.000000 0.000000
# 2 -0.003785 0.015138 -0.003034 0.000000 0.000000 0.000000
# 3 -0.001885 -0.003034 0.012201 0.000000 0.000000 0.000000
# 4 0.000000 0.000000 0.000000 0.047338 0.000000 0.000000
# 5 0.000000 0.000000 0.000000 0.000000 0.023674 0.000000
# 6 0.000000 0.000000 0.000000 0.000000 0.000000 0.031360
#
#
# Mechanical properties :
#
#
# Convention : Reuss Voigt Hill
#
# Bulk Modulus (GPa) = 31.64459 33.97312 32.80886
# Shear Modulus (GPa) = 27.88313 30.10042 28.99178
#
# Velocity S-wave (km/s) = 3.51430 3.65136 3.58349
# Velocity P-wave (km/s) = 5.52119 5.72926 5.62619
#
# Compressibility (1/GPa) = 0.03160098
#
# Stress axis : x y z
#
# Youngs Moduli (GPa) = 46.14910 66.05858 81.96202
#
# Poissons Ratio (x) = 0.25000 0.15446
# Poissons Ratio (y) = 0.17465 0.24870
# Poissons Ratio (z) = 0.08697 0.20044
#
# Static dielectric constant tensor:
#      x y z
#    x 1.947850 0.000000 0.000000 
#    y 0.000000 1.839730 0.000000 
#    z 0.000000 0.000000 2.033470 
# 
# From -- ./inp_files/546.got.cif
#   From: 2010.05.17/outbox.cif.g08.bks.cpg/sg41_1_cif.got.tgz:546.got - 2010.06.03 18:54:24.
