data_PCOD9366046
_publ_section_title
;
Structure prediction by ZEFSAII (Michael W. Deem and Ramdas Pophale) SiO2 
 PCOD9366046
Probable space group: A B A 2
;
_chemical_formula_sum "Si O2"
_cell_formula_units_Z 60
_cell_length_a 7.979840
_cell_length_b 27.014693
_cell_length_c 12.167599
_cell_angle_alpha 90.000000
_cell_angle_beta 90.000000
_cell_angle_gamma 90.000000
_cell_volume 2623.004941
_symmetry_space_group_name_H-M "A B A 2"
_symmetry_group_IT_number 41
_symmetry_cell_setting 'orthorhombic'
loop_
_space_group_symop_operation_xyz
x,y,z
-x,-y,z
1/2-x,y,1/2+z
1/2+x,-y,1/2+z
x,1/2+y,1/2+z
-x,1/2-y,1/2+z
1/2-x,1/2+y,z
1/2+x,1/2-y,z
loop_
_atom_site_type_symbol
_atom_site_label
_atom_site_fract_x
_atom_site_fract_y
_atom_site_fract_z
Si Si1 0.388245 0.070109 0.782490
Si Si2 0.084422 0.379549 0.213690
Si Si3 0.877563 0.396942 0.440549
Si Si4 0.593552 0.688618 0.511448
Si Si5 0.254141 0.474543 0.758906
Si Si6 0.000000 0.000000 0.953442
Si Si7 0.948752 0.663643 0.767069
Si Si8 0.488067 0.799699 0.549023
O O1 0.301383 0.082760 0.898646
O O2 0.574872 0.048182 0.790072
O O3 0.421211 0.122120 0.727068
O O4 0.279259 0.029849 0.716969
O O5 0.143907 0.435795 0.185283
O O6 0.257669 0.353700 0.251567
O O7 0.968202 0.386273 0.321010
O O8 0.026859 0.345736 0.111685
O O9 0.958174 0.445431 0.502191
O O10 0.899571 0.344975 0.502859
O O11 0.527952 0.670728 0.394618
O O12 0.545327 0.746204 0.511229
O O13 0.797041 0.686423 0.515631
O O14 0.351216 0.484461 0.871407
O O15 0.982717 0.706611 0.681511
#
# Coordination Sequence:
#
# PCOD9366046 Si02
#       8
#     8   8   8   8   8   4   8   8
#     4   9  18  33  64  91 130 168 206 273 318 393
#     4   9  19  39  64  87 125 167 219 264 332 399
#     4  10  19  38  62  96 126 168 217 274 333 405
#     4  11  25  42  63  91 123 178 219 280 338 405
#     4   8  15  33  62  95 127 170 210 263 324 391
#     4   8  16  32  64  92 130 168 214 270 328 400
#     4  10  22  42  62  89 130 163 216 271 336 401
#     4  11  26  41  63  92 128 169 225 275 342 403
#
# _framework density 22.874528999999999
#
# number of rings (size 3 to 8) (size 9 to 14) (size 15 to 20)
#    0.000    2.400    1.333    0.000    3.733    1.067 
#    0.000    4.000    0.000    4.800    0.000    0.000 
#    0.000    0.000    0.000    0.000    0.000    0.000 
#
# Total GULP energy -167063.489560 kJ/mol
# GULP energy per Si atom -5568.782985 kJ/mol
# Density = 2.282247 g / cm^3
# Si number density = 22.874529 Si / 1000 Ang^3
#
#
#
# Elastic Constant Matrix: (Units=GPa)
#
#
# Indices 1 2 3 4 5 6 
#
# 1 36.1137 14.1363 8.4366 0.0000 0.0000 0.0000
# 2 14.1363 141.1931 66.5382 0.0000 0.0000 0.0000
# 3 8.4366 66.5382 113.6527 0.0000 0.0000 0.0000
# 4 0.0000 0.0000 0.0000 26.9030 0.0000 0.0000
# 5 0.0000 0.0000 0.0000 0.0000 5.4185 0.0000
# 6 0.0000 0.0000 0.0000 0.0000 0.0000 22.2174
#
#
#
# Elastic Compliance Matrix: (Units=1/GPa)
#
#
# Indices 1 2 3 4 5 6 
#
# 1 0.028852 -0.002595 -0.000622 0.000000 0.000000 0.000000
# 2 -0.002595 0.010015 -0.005670 0.000000 0.000000 0.000000
# 3 -0.000622 -0.005670 0.012165 0.000000 0.000000 0.000000
# 4 0.000000 0.000000 0.000000 0.037171 0.000000 0.000000
# 5 0.000000 0.000000 0.000000 0.000000 0.184552 0.000000
# 6 0.000000 0.000000 0.000000 0.000000 0.000000 0.045010
#
#
# Mechanical properties :
#
#
# Convention : Reuss Voigt Hill
#
# Bulk Modulus (GPa) = 30.07084 52.13132 41.10108
# Shear Modulus (GPa) = 14.42486 24.36434 19.39460
#
# Velocity S-wave (km/s) = 2.51392 3.26717 2.91498
# Velocity P-wave (km/s) = 4.64768 6.08869 5.41632
#
# Compressibility (1/GPa) = 0.03325481
#
# Stress axis : x y z
#
# Youngs Moduli (GPa) = 34.66012 99.85464 82.20533
#
# Poissons Ratio (x) = 0.25916 0.05115
# Poissons Ratio (y) = 0.08996 0.46614
# Poissons Ratio (z) = 0.02157 0.56621
#
# Static dielectric constant tensor:
#      x y z
#    x 1.900210 0.000000 0.000000 
#    y 0.000000 1.908380 0.000000 
#    z 0.000000 0.000000 1.843120 
# 
# From -- ./inp_files/4592.got.cif
#   From: 2010.05.17/outbox.cif.g08.bks.cpg/sg41_3_cif.got.tgz:4592.got - 2010.06.03 18:54:24.
