data_PCOD9366993
_publ_section_title
;
Structure prediction by ZEFSAII (Michael W. Deem and Ramdas Pophale) SiO2 
 PCOD9366993
Probable space group: A B A 2
;
_chemical_formula_sum "Si O2"
_cell_formula_units_Z 56
_cell_length_a 21.303453
_cell_length_b 10.844423
_cell_length_c 10.904773
_cell_angle_alpha 90.000000
_cell_angle_beta 90.000000
_cell_angle_gamma 90.000000
_cell_volume 2519.260523
_symmetry_space_group_name_H-M "A B A 2"
_symmetry_group_IT_number 41
_symmetry_cell_setting 'orthorhombic'
loop_
_space_group_symop_operation_xyz
x,y,z
-x,-y,z
1/2-x,y,1/2+z
1/2+x,-y,1/2+z
x,1/2+y,1/2+z
-x,1/2-y,1/2+z
1/2-x,1/2+y,z
1/2+x,1/2-y,z
loop_
_atom_site_type_symbol
_atom_site_label
_atom_site_fract_x
_atom_site_fract_y
_atom_site_fract_z
Si Si1 0.437948 0.927426 0.013250
Si Si2 0.196047 0.069152 0.523433
Si Si3 0.157967 0.764464 0.200229
Si Si4 0.824629 0.435551 0.396351
Si Si5 0.064157 0.964078 0.233666
Si Si6 0.718828 0.123984 0.233741
Si Si7 0.877344 0.810547 0.132744
O O1 0.422754 0.800474 0.085635
O O2 0.500000 0.000000 0.060818
O O3 0.372882 0.006874 0.009823
O O4 0.449964 0.908852 0.868285
O O5 0.184972 0.204038 0.578335
O O6 0.249153 0.080820 0.419139
O O7 0.225464 0.981216 0.629623
O O8 0.145811 0.651812 0.291958
O O9 0.211358 0.841197 0.271917
O O10 0.102815 0.856738 0.170694
O O11 0.825122 0.571884 0.340941
O O12 0.859519 0.398694 0.519323
O O13 0.099373 0.095378 0.236444
O O14 0.000000 0.000000 0.168033
O O15 0.684760 0.240803 0.176195
#
# Coordination Sequence:
#
# PCOD9366993 Si02
#       7
#     8   8   8   8   8   8   8
#     4  10  23  44  66  90 127 173 215 256 316 379
#     4  10  22  38  63  94 126 170 207 259 325 373
#     4  11  22  38  62  95 131 159 217 260 313 387
#     4  11  22  38  65  92 132 163 203 268 324 376
#     4  11  25  43  65  93 126 171 219 259 308 384
#     4  10  23  38  61  98 125 163 209 259 322 382
#     4  11  23  45  64  94 129 167 207 268 317 376
#
# _framework density 22.228745
#
# number of rings (size 3 to 8) (size 9 to 14) (size 15 to 20)
#    0.000    1.429    2.857    1.714    8.000    1.143 
#    0.000    0.000    0.000    0.000    0.000    0.000 
#    0.000    0.000    0.000    0.000    0.000    0.000 
#
# Total GULP energy -156230.356564 kJ/mol
# GULP energy per Si atom -5579.655592 kJ/mol
# Density = 2.217815 g / cm^3
# Si number density = 22.228745 Si / 1000 Ang^3
#
#
#
# Elastic Constant Matrix: (Units=GPa)
#
#
# Indices 1 2 3 4 5 6 
#
# 1 34.0267 -1.7314 -19.8193 0.0000 0.0000 0.0000
# 2 -1.7314 60.8888 3.9453 0.0000 0.0000 0.0000
# 3 -19.8193 3.9453 37.1097 0.0000 0.0000 0.0000
# 4 0.0000 0.0000 0.0000 22.4661 0.0000 0.0000
# 5 0.0000 0.0000 0.0000 0.0000 17.3368 0.0000
# 6 0.0000 0.0000 0.0000 0.0000 0.0000 22.0195
#
#
#
# Elastic Compliance Matrix: (Units=1/GPa)
#
#
# Indices 1 2 3 4 5 6 
#
# 1 0.042663 -0.000265 0.022813 0.000000 0.000000 0.000000
# 2 -0.000265 0.016539 -0.001900 0.000000 0.000000 0.000000
# 3 0.022813 -0.001900 0.039333 0.000000 0.000000 0.000000
# 4 0.000000 0.000000 0.000000 0.044511 0.000000 0.000000
# 5 0.000000 0.000000 0.000000 0.000000 0.057681 0.000000
# 6 0.000000 0.000000 0.000000 0.000000 0.000000 0.045414
#
#
# Mechanical properties :
#
#
# Convention : Reuss Voigt Hill
#
# Bulk Modulus (GPa) = 7.15143 10.75717 8.95430
# Shear Modulus (GPa) = 19.88421 22.33985 21.11203
#
# Velocity S-wave (km/s) = 2.99411 3.17361 3.08517
# Velocity P-wave (km/s) = 3.89578 4.27538 4.08999
#
# Compressibility (1/GPa) = 0.13983215
#
# Stress axis : x y z
#
# Youngs Moduli (GPa) = 23.43942 60.46331 25.42383
#
# Poissons Ratio (x) = 0.01603 -0.58001
# Poissons Ratio (y) = 0.00621 0.04830
# Poissons Ratio (z) = -0.53473 0.11488
#
# Static dielectric constant tensor:
#      x y z
#    x 1.972980 0.000000 0.000000 
#    y 0.000000 1.863870 0.000000 
#    z 0.000000 0.000000 1.838970 
# 
# From -- ./inp_files/6219.got.cif
#   From: 2010.05.17/outbox.cif.g08.bks.cpg/sg41_4_cif.got.tgz:6219.got - 2010.06.03 18:54:24.
