data_PCOD9366008
_publ_section_title
;
Structure prediction by ZEFSAII (Michael W. Deem and Ramdas Pophale) SiO2 
 PCOD9366008
Probable space group: A B A 2
;
_chemical_formula_sum "Si O2"
_cell_formula_units_Z 56
_cell_length_a 14.119464
_cell_length_b 17.764805
_cell_length_c 9.613983
_cell_angle_alpha 90.000000
_cell_angle_beta 90.000000
_cell_angle_gamma 90.000000
_cell_volume 2411.470786
_symmetry_space_group_name_H-M "A B A 2"
_symmetry_group_IT_number 41
_symmetry_cell_setting 'orthorhombic'
loop_
_space_group_symop_operation_xyz
x,y,z
-x,-y,z
1/2-x,y,1/2+z
1/2+x,-y,1/2+z
x,1/2+y,1/2+z
-x,1/2-y,1/2+z
1/2-x,1/2+y,z
1/2+x,1/2-y,z
loop_
_atom_site_type_symbol
_atom_site_label
_atom_site_fract_x
_atom_site_fract_y
_atom_site_fract_z
Si Si1 0.952042 0.898201 0.490040
Si Si2 0.389157 0.829017 0.859730
Si Si3 0.687614 0.019716 0.125316
Si Si4 0.607539 0.229003 0.568017
Si Si5 0.312543 0.393138 0.887119
Si Si6 0.300438 0.200012 0.491625
Si Si7 0.309317 0.605742 0.256280
O O1 0.893335 0.960073 0.575522
O O2 0.932286 0.812954 0.542357
O O3 0.904356 0.905769 0.339725
O O4 0.062736 0.894835 0.450565
O O5 0.429653 0.806939 0.710305
O O6 0.279988 0.848231 0.835138
O O7 0.386101 0.752238 0.946964
O O8 0.755998 0.970731 0.225596
O O9 0.645245 0.074373 0.243501
O O10 0.760658 0.054856 0.008612
O O11 0.609837 0.162925 0.453570
O O12 0.720356 0.249088 0.566160
O O13 0.327676 0.140821 0.607021
O O14 0.254113 0.158893 0.357913
#
# Coordination Sequence:
#
# PCOD9366008 Si02
#       7
#     8   8   8   8   8   8   8
#     4  11  25  38  69  99 137 171 225 287 351 396
#     4  11  23  40  63 100 137 169 218 292 345 390
#     4  12  21  43  67 100 125 187 228 274 325 423
#     4  10  21  42  63  99 127 174 228 277 337 414
#     4  11  24  41  73  93 134 181 237 264 336 418
#     4  10  19  36  65  91 123 169 219 280 317 410
#     4  11  19  38  64  90 125 172 228 261 332 409
#
# _framework density 23.222341
#
# number of rings (size 3 to 8) (size 9 to 14) (size 15 to 20)
#    0.000    1.143    7.143    0.000    2.000    0.571 
#    0.000    0.000    3.143    0.000    0.000    0.000 
#    0.000    0.000    0.000    0.000    0.000    0.000 
#
# Total GULP energy -156091.283690 kJ/mol
# GULP energy per Si atom -5574.688703 kJ/mol
# Density = 2.316949 g / cm^3
# Si number density = 23.222341 Si / 1000 Ang^3
#
#
#
# Elastic Constant Matrix: (Units=GPa)
#
#
# Indices 1 2 3 4 5 6 
#
# 1 32.1187 7.0549 2.7673 0.0000 0.0000 0.0000
# 2 7.0549 89.7203 51.0872 0.0000 0.0000 0.0000
# 3 2.7673 51.0872 124.0824 0.0000 0.0000 0.0000
# 4 0.0000 0.0000 0.0000 55.9405 0.0000 0.0000
# 5 0.0000 0.0000 0.0000 0.0000 -13.4387 0.0000
# 6 0.0000 0.0000 0.0000 0.0000 0.0000 16.6177
#
#
#
# Elastic Compliance Matrix: (Units=1/GPa)
#
#
# Indices 1 2 3 4 5 6 
#
# 1 0.031698 -0.002730 0.000417 0.000000 0.000000 0.000000
# 2 -0.002730 0.014794 -0.006030 0.000000 0.000000 0.000000
# 3 0.000417 -0.006030 0.010533 0.000000 0.000000 0.000000
# 4 0.000000 0.000000 0.000000 0.017876 0.000000 0.000000
# 5 0.000000 0.000000 0.000000 0.000000 -0.074412 0.000000
# 6 0.000000 0.000000 0.000000 0.000000 0.000000 0.060177
#
#
# Mechanical properties :
#
#
# Convention : Reuss Voigt Hill
#
# Bulk Modulus (GPa) = 24.79009 40.86003 32.82506
# Shear Modulus (GPa) = 55.06716 24.15802 39.61259
#
# Velocity S-wave (km/s) = 4.87488 3.22886 4.13461
# Velocity P-wave (km/s) = 6.51032 5.61552 6.07940
#
# Compressibility (1/GPa) = 0.04033869
#
# Stress axis : x y z
#
# Youngs Moduli (GPa) = 31.54755 67.59501 94.94360
#
# Poissons Ratio (x) = 0.18453 -0.03960
# Poissons Ratio (y) = 0.08612 0.57252
# Poissons Ratio (z) = -0.01316 0.40760
#
# Static dielectric constant tensor:
#      x y z
#    x 1.886670 0.000000 0.000000 
#    y 0.000000 1.984410 0.000000 
#    z 0.000000 0.000000 1.880430 
# 
# From -- ./inp_files/2687.got.cif
#   From: 2010.05.17/outbox.cif.g08.bks.cpg/sg41_2_cif.got.tgz:2687.got - 2010.06.03 18:54:24.
