data_PCOD9366218
_publ_section_title
;
Structure prediction by ZEFSAII (Michael W. Deem and Ramdas Pophale) SiO2 
 PCOD9366218
Probable space group: A B A 2
;
_chemical_formula_sum "Si O2"
_cell_formula_units_Z 56
_cell_length_a 14.310366
_cell_length_b 13.350822
_cell_length_c 14.141329
_cell_angle_alpha 90.000000
_cell_angle_beta 90.000000
_cell_angle_gamma 90.000000
_cell_volume 2701.773722
_symmetry_space_group_name_H-M "A B A 2"
_symmetry_group_IT_number 41
_symmetry_cell_setting 'orthorhombic'
loop_
_space_group_symop_operation_xyz
x,y,z
-x,-y,z
1/2-x,y,1/2+z
1/2+x,-y,1/2+z
x,1/2+y,1/2+z
-x,1/2-y,1/2+z
1/2-x,1/2+y,z
1/2+x,1/2-y,z
loop_
_atom_site_type_symbol
_atom_site_label
_atom_site_fract_x
_atom_site_fract_y
_atom_site_fract_z
Si Si1 0.460134 0.271833 0.754640
Si Si2 0.282340 0.102273 0.343112
Si Si3 0.727625 0.914902 0.046147
Si Si4 0.935130 0.906384 0.131741
Si Si5 0.674682 0.250970 0.687806
Si Si6 0.808984 0.572275 0.190357
Si Si7 0.516792 0.379343 0.933072
O O1 0.425153 0.163287 0.722324
O O2 0.567526 0.267626 0.718044
O O3 0.396308 0.354188 0.703317
O O4 0.457993 0.309136 0.863248
O O5 0.217669 0.083669 0.433575
O O6 0.266819 0.192914 0.270845
O O7 0.378583 0.131341 0.395165
O O8 0.297145 0.003980 0.278513
O O9 0.834433 0.930908 0.085627
O O10 0.695582 0.810262 0.091437
O O11 0.674640 0.004177 0.098721
O O12 0.987989 0.852633 0.043338
O O13 0.000000 0.000000 0.155189
O O14 0.715715 0.139837 0.681980
O O15 0.500000 0.500000 0.925215
#
# Coordination Sequence:
#
# PCOD9366218 Si02
#       7
#     8   8   8   8   8   8   8
#     4  11  21  38  62  89 119 153 202 250 286 359
#     4   9  20  36  58  82 119 152 191 239 294 351
#     4  10  21  38  57  87 117 152 196 245 291 350
#     4  10  20  37  60  85 117 155 197 241 294 350
#     4  10  22  38  59  87 119 154 197 243 303 344
#     4  11  21  38  63  87 114 159 198 242 296 343
#     4   9  17  34  59  85 109 154 199 234 285 353
#
# _framework density 20.727124
#
# number of rings (size 3 to 8) (size 9 to 14) (size 15 to 20)
#    0.000    2.000    2.857    0.857    0.000    1.143 
#    5.143    0.000    0.000    2.571    0.000    0.000 
#    0.000    0.000    0.000    0.000    0.000    0.000 
#
# Total GULP energy -156100.122156 kJ/mol
# GULP energy per Si atom -5575.004363 kJ/mol
# Density = 2.067995 g / cm^3
# Si number density = 20.727124 Si / 1000 Ang^3
#
#
#
# Elastic Constant Matrix: (Units=GPa)
#
#
# Indices 1 2 3 4 5 6 
#
# 1 44.2287 -13.0900 -7.2252 0.0000 0.0000 0.0000
# 2 -13.0900 63.5577 20.6232 0.0000 0.0000 0.0000
# 3 -7.2252 20.6232 82.5432 0.0000 0.0000 0.0000
# 4 0.0000 0.0000 0.0000 15.9978 0.0000 0.0000
# 5 0.0000 0.0000 0.0000 0.0000 -5.4018 0.0000
# 6 0.0000 0.0000 0.0000 0.0000 0.0000 20.1462
#
#
#
# Elastic Compliance Matrix: (Units=1/GPa)
#
#
# Indices 1 2 3 4 5 6 
#
# 1 0.024145 0.004665 0.000948 0.000000 0.000000 0.000000
# 2 0.004665 0.018023 -0.004095 0.000000 0.000000 0.000000
# 3 0.000948 -0.004095 0.013221 0.000000 0.000000 0.000000
# 4 0.000000 0.000000 0.000000 0.062508 0.000000 0.000000
# 5 0.000000 0.000000 0.000000 0.000000 -0.185125 0.000000
# 6 0.000000 0.000000 0.000000 0.000000 0.000000 0.049637
#
#
# Mechanical properties :
#
#
# Convention : Reuss Voigt Hill
#
# Bulk Modulus (GPa) = 17.11557 21.21620 19.16589
# Shear Modulus (GPa) = -4343.72675 18.81656 -2162.45510
#
# Velocity S-wave (km/s) = -45.82818 3.01628 -32.33515
# Velocity P-wave (km/s) = 52.83958 4.73168 37.21312
#
# Compressibility (1/GPa) = 0.05842634
#
# Stress axis : x y z
#
# Youngs Moduli (GPa) = 41.41584 55.48405 75.63792
#
# Poissons Ratio (x) = -0.25885 -0.07170
# Poissons Ratio (y) = -0.19322 0.30971
# Poissons Ratio (z) = -0.03926 0.22719
#
# Static dielectric constant tensor:
#      x y z
#    x 1.850680 0.000000 0.000000 
#    y 0.000000 1.745750 0.000000 
#    z 0.000000 0.000000 1.769340 
# 
# From -- ./inp_files/8407.got.cif
#   From: 2010.05.17/outbox.cif.g08.bks.cpg/sg41_5_cif.got.tgz:8407.got - 2010.06.03 18:54:24.
