data_PCOD9366513
_publ_section_title
;
Structure prediction by ZEFSAII (Michael W. Deem and Ramdas Pophale) SiO2 
 PCOD9366513
Probable space group: A B A 2
;
_chemical_formula_sum "Si O2"
_cell_formula_units_Z 60
_cell_length_a 5.625315
_cell_length_b 27.516612
_cell_length_c 15.257671
_cell_angle_alpha 90.000000
_cell_angle_beta 90.000000
_cell_angle_gamma 90.000000
_cell_volume 2361.728947
_symmetry_space_group_name_H-M "A B A 2"
_symmetry_group_IT_number 41
_symmetry_cell_setting 'orthorhombic'
loop_
_space_group_symop_operation_xyz
x,y,z
-x,-y,z
1/2-x,y,1/2+z
1/2+x,-y,1/2+z
x,1/2+y,1/2+z
-x,1/2-y,1/2+z
1/2-x,1/2+y,z
1/2+x,1/2-y,z
loop_
_atom_site_type_symbol
_atom_site_label
_atom_site_fract_x
_atom_site_fract_y
_atom_site_fract_z
Si Si1 0.688966 0.612462 0.574920
Si Si2 0.231826 0.240448 0.328486
Si Si3 0.384151 0.400709 0.253128
Si Si4 0.500000 0.500000 0.263669
Si Si5 0.306226 0.541055 0.609156
Si Si6 0.517406 0.553228 0.943471
Si Si7 0.296747 0.273176 0.620937
Si Si8 0.876246 0.866457 0.815107
O O1 0.855654 0.589255 0.650222
O O2 0.431865 0.593207 0.604122
O O3 0.764856 0.586323 0.484041
O O4 0.708929 0.670388 0.589714
O O5 0.462800 0.270274 0.363559
O O6 0.202485 0.260199 0.226975
O O7 0.361820 0.188794 0.341716
O O8 0.391130 0.451788 0.306221
O O9 0.628617 0.372621 0.263677
O O10 0.138999 0.374138 0.275475
O O11 0.299196 0.524311 0.201904
O O12 0.500000 0.500000 0.588987
O O13 0.130965 0.540401 0.529352
O O14 0.500000 0.500000 0.896884
O O15 0.370753 0.592120 0.887731
O O16 0.548554 0.250801 0.589426
#
# Coordination Sequence:
#
# PCOD9366513 Si02
#       8
#     8   8   8   4   8   8   8   8
#     4  12  25  43  81 103 144 200 258 309 372 443
#     4  10  20  44  71  98 136 183 236 299 374 430
#     4  12  25  43  69 106 145 186 251 309 362 425
#     4  12  24  38  66 110 142 192 244 322 354 426
#     4  12  21  45  70 102 146 200 248 304 371 441
#     4  12  27  48  67 107 155 208 242 295 371 457
#     4  10  22  40  69 108 139 174 241 316 371 424
#     4  12  29  45  73 109 150 196 245 302 379 451
#
# _framework density 25.405118000000002
#
# number of rings (size 3 to 8) (size 9 to 14) (size 15 to 20)
#    0.000    0.533    4.667    4.800    5.600    0.000 
#    0.000    1.333    0.000    0.000    0.000    0.000 
#    0.000    0.000    0.000    0.000    0.000    0.000 
#
# Total GULP energy -167257.883945 kJ/mol
# GULP energy per Si atom -5575.262798 kJ/mol
# Density = 2.534729 g / cm^3
# Si number density = 25.405118 Si / 1000 Ang^3
#
#
#
# Elastic Constant Matrix: (Units=GPa)
#
#
# Indices 1 2 3 4 5 6 
#
# 1 153.3606 7.2514 6.7262 0.0000 0.0000 0.0000
# 2 7.2514 150.0889 4.1365 0.0000 0.0000 0.0000
# 3 6.7262 4.1365 55.1663 0.0000 0.0000 0.0000
# 4 0.0000 0.0000 0.0000 16.1090 0.0000 0.0000
# 5 0.0000 0.0000 0.0000 0.0000 -13.4046 0.0000
# 6 0.0000 0.0000 0.0000 0.0000 0.0000 61.9811
#
#
#
# Elastic Compliance Matrix: (Units=1/GPa)
#
#
# Indices 1 2 3 4 5 6 
#
# 1 0.006569 -0.000296 -0.000779 0.000000 0.000000 0.000000
# 2 -0.000296 0.006690 -0.000466 0.000000 0.000000 0.000000
# 3 -0.000779 -0.000466 0.018257 0.000000 0.000000 0.000000
# 4 0.000000 0.000000 0.000000 0.062077 0.000000 0.000000
# 5 0.000000 0.000000 0.000000 0.000000 -0.074601 0.000000
# 6 0.000000 0.000000 0.000000 0.000000 0.000000 0.016134
#
#
# Mechanical properties :
#
#
# Convention : Reuss Voigt Hill
#
# Bulk Modulus (GPa) = 35.16778 43.87157 39.51967
# Shear Modulus (GPa) = 104.85792 35.63722 70.24757
#
# Velocity S-wave (km/s) = 6.43148 3.74940 5.26412
# Velocity P-wave (km/s) = 8.30811 6.00419 7.24828
#
# Compressibility (1/GPa) = 0.02843512
#
# Stress axis : x y z
#
# Youngs Moduli (GPa) = 152.23653 149.48034 54.77391
#
# Poissons Ratio (x) = 0.04423 0.04265
# Poissons Ratio (y) = 0.04505 0.02550
# Poissons Ratio (z) = 0.11855 0.06959
#
# Static dielectric constant tensor:
#      x y z
#    x 2.350450 0.000000 0.000000 
#    y 0.000000 2.092590 0.000000 
#    z 0.000000 0.000000 2.088400 
# 
# From -- ./inp_files/9476.got.cif
#   From: 2010.05.17/outbox.cif.g08.bks.cpg/sg41_5_cif.got.tgz:9476.got - 2010.06.03 18:54:24.
