data_PCOD9366605
_publ_section_title
;
Structure prediction by ZEFSAII (Michael W. Deem and Ramdas Pophale) SiO2 
 PCOD9366605
Probable space group: A B A 2
;
_chemical_formula_sum "Si O2"
_cell_formula_units_Z 60
_cell_length_a 31.780678
_cell_length_b 7.680692
_cell_length_c 11.243926
_cell_angle_alpha 90.000000
_cell_angle_beta 90.000000
_cell_angle_gamma 90.000000
_cell_volume 2744.615343
_symmetry_space_group_name_H-M "A B A 2"
_symmetry_group_IT_number 41
_symmetry_cell_setting 'orthorhombic'
loop_
_space_group_symop_operation_xyz
x,y,z
-x,-y,z
1/2-x,y,1/2+z
1/2+x,-y,1/2+z
x,1/2+y,1/2+z
-x,1/2-y,1/2+z
1/2-x,1/2+y,z
1/2+x,1/2-y,z
loop_
_atom_site_type_symbol
_atom_site_label
_atom_site_fract_x
_atom_site_fract_y
_atom_site_fract_z
Si Si1 0.197924 0.163748 0.701190
Si Si2 0.500000 0.500000 0.826026
Si Si3 0.880032 0.130217 0.926706
Si Si4 0.104405 0.763959 0.183430
Si Si5 0.924817 0.635746 0.190900
Si Si6 0.075793 0.719080 0.424985
Si Si7 0.777975 0.677843 0.078148
Si Si8 0.206908 0.987098 0.950865
O O1 0.154704 0.269047 0.697264
O O2 0.238264 0.274670 0.662113
O O3 0.205635 0.091061 0.830369
O O4 0.194785 0.983554 0.624294
O O5 0.527982 0.625515 0.742900
O O6 0.467449 0.613300 0.902760
O O7 0.897122 0.208782 0.802494
O O8 0.887010 0.922933 0.914738
O O9 0.830383 0.154252 0.945497
O O10 0.904299 0.170349 0.049501
O O11 0.089535 0.564214 0.178786
O O12 0.083103 0.836163 0.305479
O O13 0.922588 0.710480 0.058538
O O14 0.799320 0.862317 0.050644
O O15 0.751934 0.601917 0.966884
#
# Coordination Sequence:
#
# PCOD9366605 Si02
#       8
#     8   4   8   8   8   8   8   8
#     4  11  20  39  55  81 114 155 199 254 298 346
#     4   8  20  40  64  92 124 144 184 248 284 344
#     4  10  21  38  60  85 124 156 197 246 292 347
#     4  10  21  38  60  85 124 156 197 246 292 347
#     4  10  22  41  64  91 118 158 191 233 296 354
#     4  10  22  41  64  91 118 158 191 233 296 354
#     4  10  24  34  58  82 112 154 210 250 306 344
#     4  11  20  39  55  81 114 155 199 254 298 346
#
# _framework density 21.860984999999999
#
# number of rings (size 3 to 8) (size 9 to 14) (size 15 to 20)
#    0.000    2.133    4.000    0.800    1.867    5.333 
#    0.000    0.000    0.000    0.000    0.000    0.000 
#    0.000    0.000    0.000    0.000    0.000    0.000 
#
# Total GULP energy -167119.936293 kJ/mol
# GULP energy per Si atom -5570.664543 kJ/mol
# Density = 2.181123 g / cm^3
# Si number density = 21.860985 Si / 1000 Ang^3
#
#
#
# Elastic Constant Matrix: (Units=GPa)
#
#
# Indices 1 2 3 4 5 6 
#
# 1 67.0387 -2.2196 17.8861 0.0000 0.0000 0.0000
# 2 -2.2196 36.4423 24.3399 0.0000 0.0000 0.0000
# 3 17.8861 24.3399 173.7091 0.0000 0.0000 0.0000
# 4 0.0000 0.0000 0.0000 38.6984 0.0000 0.0000
# 5 0.0000 0.0000 0.0000 0.0000 15.8018 0.0000
# 6 0.0000 0.0000 0.0000 0.0000 0.0000 9.1132
#
#
#
# Elastic Compliance Matrix: (Units=1/GPa)
#
#
# Indices 1 2 3 4 5 6 
#
# 1 0.015499 0.002217 -0.001907 0.000000 0.000000 0.000000
# 2 0.002217 0.030591 -0.004515 0.000000 0.000000 0.000000
# 3 -0.001907 -0.004515 0.006586 0.000000 0.000000 0.000000
# 4 0.000000 0.000000 0.000000 0.025841 0.000000 0.000000
# 5 0.000000 0.000000 0.000000 0.000000 0.063284 0.000000
# 6 0.000000 0.000000 0.000000 0.000000 0.000000 0.109731
#
#
# Mechanical properties :
#
#
# Convention : Reuss Voigt Hill
#
# Bulk Modulus (GPa) = 22.58976 39.68922 31.13949
# Shear Modulus (GPa) = 18.20200 28.53493 23.36846
#
# Velocity S-wave (km/s) = 2.88865 3.61680 3.27304
# Velocity P-wave (km/s) = 4.63482 5.96962 5.34406
#
# Compressibility (1/GPa) = 0.04426784
#
# Stress axis : x y z
#
# Youngs Moduli (GPa) = 64.52094 32.68923 151.84522
#
# Poissons Ratio (x) = -0.07248 0.28950
# Poissons Ratio (y) = -0.14307 0.68554
# Poissons Ratio (z) = 0.12301 0.14758
#
# Static dielectric constant tensor:
#      x y z
#    x 1.839060 0.000000 0.000000 
#    y 0.000000 1.849050 0.000000 
#    z 0.000000 0.000000 1.903880 
# 
# From -- ./inp_files/6636.got.cif
#   From: 2010.05.17/outbox.cif.g08.bks.cpg/sg41_4_cif.got.tgz:6636.got - 2010.06.03 18:54:24.
