data_PCOD9366438
_publ_section_title
;
Structure prediction by ZEFSAII (Michael W. Deem and Ramdas Pophale) SiO2 
 PCOD9366438
Probable space group: A B A 2
;
_chemical_formula_sum "Si O2"
_cell_formula_units_Z 52
_cell_length_a 7.408020
_cell_length_b 18.855373
_cell_length_c 16.737678
_cell_angle_alpha 90.000000
_cell_angle_beta 90.000000
_cell_angle_gamma 90.000000
_cell_volume 2337.935271
_symmetry_space_group_name_H-M "A B A 2"
_symmetry_group_IT_number 41
_symmetry_cell_setting 'orthorhombic'
loop_
_space_group_symop_operation_xyz
x,y,z
-x,-y,z
1/2-x,y,1/2+z
1/2+x,-y,1/2+z
x,1/2+y,1/2+z
-x,1/2-y,1/2+z
1/2-x,1/2+y,z
1/2+x,1/2-y,z
loop_
_atom_site_type_symbol
_atom_site_label
_atom_site_fract_x
_atom_site_fract_y
_atom_site_fract_z
Si Si1 0.409206 0.431149 0.688230
Si Si2 0.000000 0.000000 0.399799
Si Si3 0.353889 0.557895 0.993385
Si Si4 0.029882 0.895894 0.251482
Si Si5 0.735869 0.743989 0.268940
Si Si6 0.770816 0.352898 0.141264
Si Si7 0.477590 0.137841 0.341739
O O1 0.500000 0.500000 0.650300
O O2 0.196211 0.424619 0.696931
O O3 0.514353 0.366144 0.647397
O O4 0.483631 0.423761 0.778377
O O5 0.967712 0.064386 0.336409
O O6 0.176615 0.020099 0.452993
O O7 0.500000 0.500000 0.023855
O O8 0.458764 0.602029 0.925672
O O9 0.292906 0.617052 0.057194
O O10 0.071353 0.812336 0.261231
O O11 0.844811 0.902816 0.202627
O O12 0.760623 0.774872 0.178629
O O13 0.694396 0.814066 0.320399
O O14 0.869487 0.694357 0.318784
#
# Coordination Sequence:
#
# PCOD9366438 Si02
#       7
#     8   4   8   8   8   8   8
#     4  10  21  37  68  98 127 181 245 293 335 430
#     4  12  26  46  78 108 144 196 242 294 376 438
#     4  12  28  46  68 108 154 191 234 311 373 429
#     4  11  22  42  75  99 133 190 243 293 355 437
#     4  10  20  42  69  97 133 186 249 291 339 441
#     4  11  25  42  66 103 146 185 238 302 364 422
#     4  10  20  41  65  96 136 178 242 291 344 426
#
# _framework density 22.241847
#
# number of rings (size 3 to 8) (size 9 to 14) (size 15 to 20)
#    0.000    1.231    1.538    6.000    4.308    0.000 
#    2.769    0.000    0.000    0.000    0.000    0.000 
#    0.000    0.000    0.000    0.000    0.000    0.000 
#
# Total GULP energy -144847.364734 kJ/mol
# GULP energy per Si atom -5571.052490 kJ/mol
# Density = 2.219122 g / cm^3
# Si number density = 22.241847 Si / 1000 Ang^3
#
#
#
# Elastic Constant Matrix: (Units=GPa)
#
#
# Indices 1 2 3 4 5 6 
#
# 1 104.5051 7.9219 0.4583 0.0000 0.0000 0.0000
# 2 7.9219 110.7495 14.2729 0.0000 0.0000 0.0000
# 3 0.4583 14.2729 73.9358 0.0000 0.0000 0.0000
# 4 0.0000 0.0000 0.0000 19.0873 0.0000 0.0000
# 5 0.0000 0.0000 0.0000 0.0000 10.7774 0.0000
# 6 0.0000 0.0000 0.0000 0.0000 0.0000 27.6209
#
#
#
# Elastic Compliance Matrix: (Units=1/GPa)
#
#
# Indices 1 2 3 4 5 6 
#
# 1 0.009621 -0.000698 0.000075 0.000000 0.000000 0.000000
# 2 -0.000698 0.009310 -0.001793 0.000000 0.000000 0.000000
# 3 0.000075 -0.001793 0.013871 0.000000 0.000000 0.000000
# 4 0.000000 0.000000 0.000000 0.052391 0.000000 0.000000
# 5 0.000000 0.000000 0.000000 0.000000 0.092787 0.000000
# 6 0.000000 0.000000 0.000000 0.000000 0.000000 0.036205
#
#
# Mechanical properties :
#
#
# Convention : Reuss Voigt Hill
#
# Bulk Modulus (GPa) = 35.75111 37.16630 36.45871
# Shear Modulus (GPa) = 21.89716 29.26628 25.58172
#
# Velocity S-wave (km/s) = 3.14108 3.63136 3.39508
# Velocity P-wave (km/s) = 5.40961 5.85907 5.63882
#
# Compressibility (1/GPa) = 0.02797116
#
# Stress axis : x y z
#
# Youngs Moduli (GPa) = 103.93405 107.40704 72.09336
#
# Poissons Ratio (x) = 0.07496 -0.00541
# Poissons Ratio (y) = 0.07254 0.12926
# Poissons Ratio (z) = -0.00780 0.19258
#
# Static dielectric constant tensor:
#      x y z
#    x 2.036380 0.000000 0.000000 
#    y 0.000000 1.906100 0.000000 
#    z 0.000000 0.000000 1.807190 
# 
# From -- ./inp_files/7405.got.cif
#   From: 2010.05.17/outbox.cif.g08.bks.cpg/sg41_4_cif.got.tgz:7405.got - 2010.06.03 18:54:24.
