data_PCOD9366549
_publ_section_title
;
Structure prediction by ZEFSAII (Michael W. Deem and Ramdas Pophale) SiO2 
 PCOD9366549
Probable space group: A B A 2
;
_chemical_formula_sum "Si O2"
_cell_formula_units_Z 56
_cell_length_a 29.336469
_cell_length_b 14.335758
_cell_length_c 5.083149
_cell_angle_alpha 90.000000
_cell_angle_beta 90.000000
_cell_angle_gamma 90.000000
_cell_volume 2137.771787
_symmetry_space_group_name_H-M "A B A 2"
_symmetry_group_IT_number 41
_symmetry_cell_setting 'orthorhombic'
loop_
_space_group_symop_operation_xyz
x,y,z
-x,-y,z
1/2-x,y,1/2+z
1/2+x,-y,1/2+z
x,1/2+y,1/2+z
-x,1/2-y,1/2+z
1/2-x,1/2+y,z
1/2+x,1/2-y,z
loop_
_atom_site_type_symbol
_atom_site_label
_atom_site_fract_x
_atom_site_fract_y
_atom_site_fract_z
Si Si1 0.278706 0.743566 0.949030
Si Si2 0.908420 0.275895 0.129435
Si Si3 0.487739 0.310465 0.279142
Si Si4 0.391779 0.891557 0.355541
Si Si5 0.829319 0.571981 0.862004
Si Si6 0.062873 0.069564 0.028095
Si Si7 0.343477 0.628956 0.311860
O O1 0.261599 0.721014 0.656728
O O2 0.291214 0.853068 0.935878
O O3 0.320881 0.693771 0.094003
O O4 0.909302 0.215030 0.856588
O O5 0.857837 0.316794 0.076544
O O6 0.930926 0.364114 0.275275
O O7 0.932800 0.191287 0.295081
O O8 0.505233 0.264160 0.544027
O O9 0.518703 0.397440 0.192653
O O10 0.353316 0.899314 0.586524
O O11 0.431958 0.964505 0.424735
O O12 0.366620 0.922750 0.093600
O O13 0.814315 0.464543 0.848891
O O14 0.107293 0.091171 0.206292
#
# Coordination Sequence:
#
# PCOD9366549 Si02
#       7
#     8   8   8   8   8   8   8
#     4  12  28  45  69  98 131 161 214 279 340 405
#     4  11  21  38  66  94 132 179 222 270 323 390
#     4  10  21  36  60  93 135 174 217 271 322 367
#     4  11  23  37  67  95 128 173 224 261 323 384
#     4  11  24  44  65  95 128 167 210 271 324 398
#     4  10  22  40  63  98 134 177 223 272 322 396
#     4  11  23  42  72  93 129 173 225 257 336 405
#
# _framework density 26.195499999999999
#
# number of rings (size 3 to 8) (size 9 to 14) (size 15 to 20)
#    0.000    1.143    4.286    1.714    2.000    1.714 
#    0.000    0.000    0.000    3.429    0.000    0.000 
#    0.000    0.000    0.000    0.000    0.000    0.000 
#
# Total GULP energy -156203.990570 kJ/mol
# GULP energy per Si atom -5578.713949 kJ/mol
# Density = 2.613588 g / cm^3
# Si number density = 26.195500 Si / 1000 Ang^3
#
#
#
# Elastic Constant Matrix: (Units=GPa)
#
#
# Indices 1 2 3 4 5 6 
#
# 1 82.8910 -1.8973 22.6293 0.0000 0.0000 0.0000
# 2 -1.8973 125.2521 16.0673 0.0000 0.0000 0.0000
# 3 22.6293 16.0673 146.5320 0.0000 0.0000 0.0000
# 4 0.0000 0.0000 0.0000 33.2202 0.0000 0.0000
# 5 0.0000 0.0000 0.0000 0.0000 40.9691 0.0000
# 6 0.0000 0.0000 0.0000 0.0000 0.0000 39.7336
#
#
#
# Elastic Compliance Matrix: (Units=1/GPa)
#
#
# Indices 1 2 3 4 5 6 
#
# 1 0.012620 0.000447 -0.001998 0.000000 0.000000 0.000000
# 2 0.000447 0.008114 -0.000959 0.000000 0.000000 0.000000
# 3 -0.001998 -0.000959 0.007238 0.000000 0.000000 0.000000
# 4 0.000000 0.000000 0.000000 0.030102 0.000000 0.000000
# 5 0.000000 0.000000 0.000000 0.000000 0.024409 0.000000
# 6 0.000000 0.000000 0.000000 0.000000 0.000000 0.025168
#
#
# Mechanical properties :
#
#
# Convention : Reuss Voigt Hill
#
# Bulk Modulus (GPa) = 43.56733 47.58596 45.57664
# Shear Modulus (GPa) = 41.55606 43.97632 42.76619
#
# Velocity S-wave (km/s) = 3.98726 4.10173 4.04490
# Velocity P-wave (km/s) = 6.15349 6.37475 6.26509
#
# Compressibility (1/GPa) = 0.02295298
#
# Stress axis : x y z
#
# Youngs Moduli (GPa) = 79.24109 123.24881 138.15735
#
# Poissons Ratio (x) = -0.05515 0.27603
# Poissons Ratio (y) = -0.03546 0.13246
# Poissons Ratio (z) = 0.15832 0.11817
#
# Static dielectric constant tensor:
#      x y z
#    x 2.329930 0.000000 0.000000 
#    y 0.000000 2.061070 0.000000 
#    z 0.000000 0.000000 2.083370 
# 
# From -- ./inp_files/1361.got.cif
#   From: 2010.05.17/outbox.cif.g08.bks.cpg/sg41_1_cif.got.tgz:1361.got - 2010.06.03 18:54:24.
