data_PCOD9366357
_publ_section_title
;
Structure prediction by ZEFSAII (Michael W. Deem and Ramdas Pophale) SiO2 
 PCOD9366357
Probable space group: A B A 2
;
_chemical_formula_sum "Si O2"
_cell_formula_units_Z 64
_cell_length_a 10.935985
_cell_length_b 27.498900
_cell_length_c 9.575736
_cell_angle_alpha 90.000000
_cell_angle_beta 90.000000
_cell_angle_gamma 90.000000
_cell_volume 2879.687703
_symmetry_space_group_name_H-M "A B A 2"
_symmetry_group_IT_number 41
_symmetry_cell_setting 'orthorhombic'
loop_
_space_group_symop_operation_xyz
x,y,z
-x,-y,z
1/2-x,y,1/2+z
1/2+x,-y,1/2+z
x,1/2+y,1/2+z
-x,1/2-y,1/2+z
1/2-x,1/2+y,z
1/2+x,1/2-y,z
loop_
_atom_site_type_symbol
_atom_site_label
_atom_site_fract_x
_atom_site_fract_y
_atom_site_fract_z
Si Si1 0.324446 0.526355 0.526570
Si Si2 0.089304 0.925250 0.576780
Si Si3 0.138911 0.821019 0.045786
Si Si4 0.272119 0.080493 0.767423
Si Si5 0.334021 0.713449 0.638410
Si Si6 0.868815 0.818018 0.339718
Si Si7 0.864202 0.158015 0.354963
Si Si8 0.979514 0.864248 0.810787
O O1 0.319402 0.470754 0.574429
O O2 0.456957 0.549449 0.558921
O O3 0.303327 0.535183 0.364674
O O4 0.233843 0.560858 0.611859
O O5 0.110894 0.890315 0.445152
O O6 0.078102 0.893508 0.717397
O O7 0.252748 0.818321 0.939290
O O8 0.032454 0.846617 0.957479
O O9 0.117748 0.765918 0.094662
O O10 0.163400 0.848889 0.191130
O O11 0.359581 0.126437 0.786992
O O12 0.140331 0.101915 0.813744
O O13 0.211058 0.713771 0.732441
O O14 0.309640 0.685659 0.492954
O O15 0.433782 0.682645 0.723655
O O16 0.012621 0.809153 0.358887
#
# Coordination Sequence:
#
# PCOD9366357 Si02
#       8
#     8   8   8   8   8   8   8   8
#     4  10  21  37  69  98 137 167 237 282 349 420
#     4  10  21  44  66  97 133 190 216 290 354 419
#     4  12  29  44  68 100 141 195 237 287 350 430
#     4  10  20  39  66 107 128 177 225 292 347 416
#     4  11  25  44  71 104 135 181 247 295 345 410
#     4  11  23  42  73 100 142 180 227 301 351 414
#     4  12  26  45  68  97 145 187 233 286 361 422
#     4  10  23  43  70  97 145 181 234 287 363 413
#
# _framework density 22.224632
#
# number of rings (size 3 to 8) (size 9 to 14) (size 15 to 20)
#    0.000    1.250    2.500    3.000    7.000    3.000 
#    0.000    0.000    0.000    3.000    0.000    0.000 
#    0.000    0.000    0.000    0.000    0.000    0.000 
#
# Total GULP energy -178827.137002 kJ/mol
# GULP energy per Si atom -5588.348031 kJ/mol
# Density = 2.217405 g / cm^3
# Si number density = 22.224632 Si / 1000 Ang^3
#
#
#
# Elastic Constant Matrix: (Units=GPa)
#
#
# Indices 1 2 3 4 5 6 
#
# 1 37.2667 -5.4203 10.4852 0.0000 0.0000 0.0000
# 2 -5.4203 94.1357 16.1459 0.0000 0.0000 0.0000
# 3 10.4852 16.1459 123.2641 0.0000 0.0000 0.0000
# 4 0.0000 0.0000 0.0000 20.9634 0.0000 0.0000
# 5 0.0000 0.0000 0.0000 0.0000 36.7371 0.0000
# 6 0.0000 0.0000 0.0000 0.0000 0.0000 17.4681
#
#
#
# Elastic Compliance Matrix: (Units=1/GPa)
#
#
# Indices 1 2 3 4 5 6 
#
# 1 0.027876 0.002058 -0.002641 0.000000 0.000000 0.000000
# 2 0.002058 0.011019 -0.001618 0.000000 0.000000 0.000000
# 3 -0.002641 -0.001618 0.008549 0.000000 0.000000 0.000000
# 4 0.000000 0.000000 0.000000 0.047702 0.000000 0.000000
# 5 0.000000 0.000000 0.000000 0.000000 0.027220 0.000000
# 6 0.000000 0.000000 0.000000 0.000000 0.000000 0.057247
#
#
# Mechanical properties :
#
#
# Convention : Reuss Voigt Hill
#
# Bulk Modulus (GPa) = 23.23316 33.00981 28.12149
# Shear Modulus (GPa) = 25.20622 30.59743 27.90182
#
# Velocity S-wave (km/s) = 3.37138 3.71446 3.54707
# Velocity P-wave (km/s) = 5.06275 5.76900 5.42737
#
# Compressibility (1/GPa) = 0.04304192
#
# Stress axis : x y z
#
# Youngs Moduli (GPa) = 35.87325 90.75193 116.96881
#
# Poissons Ratio (x) = -0.18677 0.30889
# Poissons Ratio (y) = -0.07383 0.18930
# Poissons Ratio (z) = 0.09473 0.14687
#
# Static dielectric constant tensor:
#      x y z
#    x 1.853050 0.000000 0.000000 
#    y 0.000000 1.835570 0.000000 
#    z 0.000000 0.000000 1.789240 
# 
# From -- ./inp_files/2238.got.cif
#   From: 2010.05.17/outbox.cif.g08.bks.cpg/sg41_2_cif.got.tgz:2238.got - 2010.06.03 18:54:24.
