data_PCOD9366811
_publ_section_title
;
Structure prediction by ZEFSAII (Michael W. Deem and Ramdas Pophale) SiO2 
 PCOD9366811
Probable space group: A B A 2
;
_chemical_formula_sum "Si O2"
_cell_formula_units_Z 36
_cell_length_a 20.843724
_cell_length_b 5.360373
_cell_length_c 12.939969
_cell_angle_alpha 90.000000
_cell_angle_beta 90.000000
_cell_angle_gamma 90.000000
_cell_volume 1445.784488
_symmetry_space_group_name_H-M "A B A 2"
_symmetry_group_IT_number 41
_symmetry_cell_setting 'orthorhombic'
loop_
_space_group_symop_operation_xyz
x,y,z
-x,-y,z
1/2-x,y,1/2+z
1/2+x,-y,1/2+z
x,1/2+y,1/2+z
-x,1/2-y,1/2+z
1/2-x,1/2+y,z
1/2+x,1/2-y,z
loop_
_atom_site_type_symbol
_atom_site_label
_atom_site_fract_x
_atom_site_fract_y
_atom_site_fract_z
Si Si1 0.000000 0.000000 0.082021
Si Si2 0.630646 0.141338 0.521131
Si Si3 0.769924 0.126020 0.728049
Si Si4 0.396507 0.606663 0.226445
Si Si5 0.162440 0.870325 0.406191
O O1 0.039720 0.175060 0.163079
O O2 0.052454 0.860382 0.012690
O O3 0.661468 0.397611 0.484564
O O4 0.634695 0.079123 0.642031
O O5 0.654727 0.894639 0.460868
O O6 0.754286 0.872453 0.672037
O O7 0.845501 0.171832 0.745942
O O8 0.774969 0.622998 0.831660
O O9 0.396953 0.445905 0.330499
#
# Coordination Sequence:
#
# PCOD9366811 Si02
#       5
#     4   8   8   8   8
#     4   8  22  48  68 108 132 194 228 312 356 426
#     4  10  24  43  67 105 137 180 243 286 363 426
#     4  10  21  41  66  97 139 182 232 286 351 426
#     4   9  22  46  67 106 140 181 239 296 362 423
#     4  11  22  43  70  96 141 187 228 292 354 429
#
# _framework density 24.899974
#
# number of rings (size 3 to 8) (size 9 to 14) (size 15 to 20)
#    1.333    0.889    0.000    2.667    0.000    8.000 
#    0.000   26.667    0.000    0.000    0.000    0.000 
#    0.000    0.000    0.000    0.000    0.000    0.000 
#
# Total GULP energy -100291.699007 kJ/mol
# GULP energy per Si atom -5571.761056 kJ/mol
# Density = 2.484330 g / cm^3
# Si number density = 24.899974 Si / 1000 Ang^3
#
#
#
# Elastic Constant Matrix: (Units=GPa)
#
#
# Indices 1 2 3 4 5 6 
#
# 1 114.3267 23.1941 6.9578 0.0000 0.0000 0.0000
# 2 23.1941 150.9784 29.2151 0.0000 0.0000 0.0000
# 3 6.9578 29.2151 114.0281 0.0000 0.0000 0.0000
# 4 0.0000 0.0000 0.0000 24.0397 0.0000 0.0000
# 5 0.0000 0.0000 0.0000 0.0000 63.9310 0.0000
# 6 0.0000 0.0000 0.0000 0.0000 0.0000 26.5259
#
#
#
# Elastic Compliance Matrix: (Units=1/GPa)
#
#
# Indices 1 2 3 4 5 6 
#
# 1 0.009033 -0.001348 -0.000206 0.000000 0.000000 0.000000
# 2 -0.001348 0.007170 -0.001755 0.000000 0.000000 0.000000
# 3 -0.000206 -0.001755 0.009232 0.000000 0.000000 0.000000
# 4 0.000000 0.000000 0.000000 0.041598 0.000000 0.000000
# 5 0.000000 0.000000 0.000000 0.000000 0.015642 0.000000
# 6 0.000000 0.000000 0.000000 0.000000 0.000000 0.037699
#
#
# Mechanical properties :
#
#
# Convention : Reuss Voigt Hill
#
# Bulk Modulus (GPa) = 53.14092 55.34079 54.24086
# Shear Modulus (GPa) = 37.51974 44.23039 40.87506
#
# Velocity S-wave (km/s) = 3.88599 4.21922 4.05603
# Velocity P-wave (km/s) = 6.44380 6.78301 6.61558
#
# Compressibility (1/GPa) = 0.01881789
#
# Stress axis : x y z
#
# Youngs Moduli (GPa) = 110.70717 139.46825 108.31973
#
# Poissons Ratio (x) = 0.18798 0.02230
# Poissons Ratio (y) = 0.14922 0.19008
# Poissons Ratio (z) = 0.02279 0.24474
#
# Static dielectric constant tensor:
#      x y z
#    x 2.136610 0.000000 0.000000 
#    y 0.000000 2.027890 0.000000 
#    z 0.000000 0.000000 1.978760 
# 
# From -- ./inp_files/9077.got.cif
#   From: 2010.05.17/outbox.cif.g08.bks.cpg/sg41_5_cif.got.tgz:9077.got - 2010.06.03 18:54:24.
