data_PCOD9366243
_publ_section_title
;
Structure prediction by ZEFSAII (Michael W. Deem and Ramdas Pophale) SiO2 
 PCOD9366243
Probable space group: A B A 2
;
_chemical_formula_sum "Si O2"
_cell_formula_units_Z 48
_cell_length_a 15.105515
_cell_length_b 9.853523
_cell_length_c 13.675109
_cell_angle_alpha 90.000000
_cell_angle_beta 90.000000
_cell_angle_gamma 90.000000
_cell_volume 2035.437951
_symmetry_space_group_name_H-M "A B A 2"
_symmetry_group_IT_number 41
_symmetry_cell_setting 'orthorhombic'
loop_
_space_group_symop_operation_xyz
x,y,z
-x,-y,z
1/2-x,y,1/2+z
1/2+x,-y,1/2+z
x,1/2+y,1/2+z
-x,1/2-y,1/2+z
1/2-x,1/2+y,z
1/2+x,1/2-y,z
loop_
_atom_site_type_symbol
_atom_site_label
_atom_site_fract_x
_atom_site_fract_y
_atom_site_fract_z
Si Si1 0.775775 0.649437 0.875000
Si Si2 0.030404 0.726573 0.361233
Si Si3 0.644301 0.870758 0.863011
Si Si4 0.000000 0.000000 0.021435
Si Si5 0.500000 0.000000 0.199528
Si Si6 0.684808 0.087853 0.587845
Si Si7 0.834553 0.891658 0.597894
O O1 0.867579 0.733675 0.878692
O O2 0.699374 0.740099 0.825892
O O3 0.808701 0.508410 0.829511
O O4 0.731206 0.615634 0.980922
O O5 0.004121 0.633705 0.453806
O O6 0.960016 0.847831 0.348735
O O7 0.012314 0.629245 0.269407
O O8 0.656764 0.876726 0.980889
O O9 0.089571 0.981548 0.079944
O O10 0.415090 0.014498 0.131899
O O11 0.670886 0.236124 0.634928
O O12 0.749332 0.974888 0.629269
#
# Coordination Sequence:
#
# PCOD9366243 Si02
#       7
#     8   8   8   4   4   8   8
#     4  10  20  37  64 102 125 163 230 284 325 391
#     4  11  22  39  63  97 138 178 219 281 340 414
#     4  10  21  38  71  98 122 176 232 281 326 404
#     4  11  18  36  66 106 131 166 232 297 330 388
#     4  11  28  42  62  98 151 176 218 279 368 400
#     4  10  21  37  71  99 128 174 233 288 329 407
#     4  10  22  43  62  99 130 180 219 281 342 405
#
# _framework density 23.582148
#
# number of rings (size 3 to 8) (size 9 to 14) (size 15 to 20)
#    0.000    1.667    3.333    3.500    7.000    1.333 
#    3.000    0.000    7.333    0.000    0.000    0.000 
#    0.000    0.000    0.000    0.000    0.000    0.000 
#
# Total GULP energy -134076.611760 kJ/mol
# GULP energy per Si atom -5586.525490 kJ/mol
# Density = 2.352847 g / cm^3
# Si number density = 23.582148 Si / 1000 Ang^3
#
#
#
# Elastic Constant Matrix: (Units=GPa)
#
#
# Indices 1 2 3 4 5 6 
#
# 1 210.2976 52.3947 22.1961 0.0000 0.0000 0.0000
# 2 52.3947 100.8328 0.2027 0.0000 0.0000 0.0000
# 3 22.1961 0.2027 46.5403 0.0000 0.0000 0.0000
# 4 0.0000 0.0000 0.0000 -17.8114 0.0000 0.0000
# 5 0.0000 0.0000 0.0000 0.0000 86.7513 0.0000
# 6 0.0000 0.0000 0.0000 0.0000 0.0000 56.9548
#
#
#
# Elastic Compliance Matrix: (Units=1/GPa)
#
#
# Indices 1 2 3 4 5 6 
#
# 1 0.005794 -0.003005 -0.002750 0.000000 0.000000 0.000000
# 2 -0.003005 0.011476 0.001383 0.000000 0.000000 0.000000
# 3 -0.002750 0.001383 0.022792 0.000000 0.000000 0.000000
# 4 0.000000 0.000000 0.000000 -0.056144 0.000000 0.000000
# 5 0.000000 0.000000 0.000000 0.000000 0.011527 0.000000
# 6 0.000000 0.000000 0.000000 0.000000 0.000000 0.017558
#
#
# Mechanical properties :
#
#
# Convention : Reuss Voigt Hill
#
# Bulk Modulus (GPa) = 31.93020 56.36195 44.14607
# Shear Modulus (GPa) = 155.33762 44.03742 99.68752
#
# Velocity S-wave (km/s) = 8.12489 4.32604 6.50878
# Velocity P-wave (km/s) = 10.07908 6.99321 8.67447
#
# Compressibility (1/GPa) = 0.03131832
#
# Stress axis : x y z
#
# Youngs Moduli (GPa) = 172.58657 87.13675 43.87427
#
# Poissons Ratio (x) = 0.26187 0.12067
# Poissons Ratio (y) = 0.51867 -0.06069
# Poissons Ratio (z) = 0.47466 -0.12054
#
# Static dielectric constant tensor:
#      x y z
#    x 1.840790 0.000000 0.000000 
#    y 0.000000 1.914870 0.000000 
#    z 0.000000 0.000000 1.977450 
# 
# From -- ./inp_files/9990.got.cif
#   From: 2010.05.17/outbox.cif.g08.bks.cpg/sg41_5_cif.got.tgz:9990.got - 2010.06.03 18:54:24.
