data_PCOD9366057
_publ_section_title
;
Structure prediction by ZEFSAII (Michael W. Deem and Ramdas Pophale) SiO2 
 PCOD9366057
Probable space group: A B A 2
;
_chemical_formula_sum "Si O2"
_cell_formula_units_Z 60
_cell_length_a 14.519010
_cell_length_b 9.401539
_cell_length_c 18.499707
_cell_angle_alpha 90.000000
_cell_angle_beta 90.000000
_cell_angle_gamma 90.000000
_cell_volume 2525.229222
_symmetry_space_group_name_H-M "A B A 2"
_symmetry_group_IT_number 41
_symmetry_cell_setting 'orthorhombic'
loop_
_space_group_symop_operation_xyz
x,y,z
-x,-y,z
1/2-x,y,1/2+z
1/2+x,-y,1/2+z
x,1/2+y,1/2+z
-x,1/2-y,1/2+z
1/2-x,1/2+y,z
1/2+x,1/2-y,z
loop_
_atom_site_type_symbol
_atom_site_label
_atom_site_fract_x
_atom_site_fract_y
_atom_site_fract_z
Si Si1 0.525497 0.657651 0.404720
Si Si2 0.104261 0.149862 0.537521
Si Si3 0.967424 0.268289 0.760921
Si Si4 0.853367 0.035938 0.228850
Si Si5 0.000000 0.500000 0.163924
Si Si6 0.275364 0.049270 0.445794
Si Si7 0.609255 0.524000 0.070388
Si Si8 0.267411 0.810629 0.856322
O O1 0.500000 0.500000 0.377310
O O2 0.483092 0.664284 0.483587
O O3 0.484385 0.764577 0.345311
O O4 0.633587 0.665385 0.395018
O O5 0.074810 0.069719 0.610204
O O6 0.184346 0.067479 0.494932
O O7 0.130286 0.311616 0.553664
O O8 0.884233 0.380606 0.757176
O O9 0.057727 0.357199 0.733695
O O10 0.960322 0.127280 0.713296
O O11 0.836315 0.002067 0.145083
O O12 0.778762 0.121062 0.277190
O O13 0.255393 0.147338 0.376037
O O14 0.356336 0.072775 0.503914
O O15 0.298145 0.900567 0.407793
O O16 0.500000 0.500000 0.081838
#
# Coordination Sequence:
#
# PCOD9366057 Si02
#       8
#     8   8   8   8   4   8   8   8
#     4  11  19  40  72  92 129 187 229 273 348 428
#     4  12  23  42  67 105 138 177 235 289 353 424
#     4  10  19  38  65 101 130 171 229 282 335 418
#     4  10  19  43  67  91 132 184 226 273 351 420
#     4  12  22  38  72 110 140 172 234 302 352 418
#     4  12  25  45  66 101 142 179 234 294 348 419
#     4  12  24  45  71 100 142 186 235 291 358 429
#     4  11  23  44  69  98 136 183 232 285 348 424
#
# _framework density 23.76022
#
# number of rings (size 3 to 8) (size 9 to 14) (size 15 to 20)
#    0.000    0.800    8.667    0.800    0.000    1.067 
#    8.400    1.333    0.000    0.000    0.000    0.000 
#    0.000    0.000    0.000    0.000    0.000    0.000 
#
# Total GULP energy -167491.770483 kJ/mol
# GULP energy per Si atom -5583.059016 kJ/mol
# Density = 2.370614 g / cm^3
# Si number density = 23.760220 Si / 1000 Ang^3
#
#
#
# Elastic Constant Matrix: (Units=GPa)
#
#
# Indices 1 2 3 4 5 6 
#
# 1 40.7750 -0.3829 28.3723 0.0000 0.0000 0.0000
# 2 -0.3829 86.7616 29.6454 0.0000 0.0000 0.0000
# 3 28.3723 29.6454 134.4989 0.0000 0.0000 0.0000
# 4 0.0000 0.0000 0.0000 37.3894 0.0000 0.0000
# 5 0.0000 0.0000 0.0000 0.0000 29.9418 0.0000
# 6 0.0000 0.0000 0.0000 0.0000 0.0000 13.4516
#
#
#
# Elastic Compliance Matrix: (Units=1/GPa)
#
#
# Indices 1 2 3 4 5 6 
#
# 1 0.029205 0.002416 -0.006693 0.000000 0.000000 0.000000
# 2 0.002416 0.012664 -0.003301 0.000000 0.000000 0.000000
# 3 -0.006693 -0.003301 0.009575 0.000000 0.000000 0.000000
# 4 0.000000 0.000000 0.000000 0.026746 0.000000 0.000000
# 5 0.000000 0.000000 0.000000 0.000000 0.033398 0.000000
# 6 0.000000 0.000000 0.000000 0.000000 0.000000 0.074341
#
#
# Mechanical properties :
#
#
# Convention : Reuss Voigt Hill
#
# Bulk Modulus (GPa) = 27.55808 41.92281 34.74045
# Shear Modulus (GPa) = 23.45429 29.78326 26.61878
#
# Velocity S-wave (km/s) = 3.14526 3.54431 3.35073
# Velocity P-wave (km/s) = 4.98135 5.86787 5.44269
#
# Compressibility (1/GPa) = 0.03628700
#
# Stress axis : x y z
#
# Youngs Moduli (GPa) = 34.24094 78.96139 104.44392
#
# Poissons Ratio (x) = -0.19076 0.69906
# Poissons Ratio (y) = -0.08272 0.34477
# Poissons Ratio (z) = 0.22918 0.26065
#
# Static dielectric constant tensor:
#      x y z
#    x 1.946750 0.000000 0.000000 
#    y 0.000000 0.696780 0.000000 
#    z 0.000000 0.000000 1.908590 
# 
# From -- ./inp_files/10604.got.cif
#   From: 2010.05.17/outbox.cif.g08.bks.cpg/sg41_6_cif.got.tgz:10604.got - 2010.06.03 18:54:24.
