data_PCOD9366407
_publ_section_title
;
Structure prediction by ZEFSAII (Michael W. Deem and Ramdas Pophale) SiO2 
 PCOD9366407
Probable space group: A B A 2
;
_chemical_formula_sum "Si O2"
_cell_formula_units_Z 56
_cell_length_a 12.877703
_cell_length_b 9.336716
_cell_length_c 20.736722
_cell_angle_alpha 90.000000
_cell_angle_beta 90.000000
_cell_angle_gamma 90.000000
_cell_volume 2493.289218
_symmetry_space_group_name_H-M "A B A 2"
_symmetry_group_IT_number 41
_symmetry_cell_setting 'orthorhombic'
loop_
_space_group_symop_operation_xyz
x,y,z
-x,-y,z
1/2-x,y,1/2+z
1/2+x,-y,1/2+z
x,1/2+y,1/2+z
-x,1/2-y,1/2+z
1/2-x,1/2+y,z
1/2+x,1/2-y,z
loop_
_atom_site_type_symbol
_atom_site_label
_atom_site_fract_x
_atom_site_fract_y
_atom_site_fract_z
Si Si1 0.190990 0.594158 0.219270
Si Si2 0.036058 0.273197 0.472145
Si Si3 0.256640 0.848162 0.805649
Si Si4 0.894574 0.907186 0.135840
Si Si5 0.468276 0.149518 0.104926
Si Si6 0.339709 0.553404 0.989476
Si Si7 0.841067 0.906170 0.390806
O O1 0.183428 0.744885 0.256380
O O2 0.180760 0.457384 0.266571
O O3 0.307299 0.579414 0.189949
O O4 0.110412 0.608052 0.161187
O O5 0.074013 0.237284 0.544523
O O6 0.102974 0.415724 0.458762
O O7 0.053247 0.149543 0.421160
O O8 0.915975 0.314231 0.475018
O O9 0.200190 0.730473 0.849959
O O10 0.328947 0.954647 0.846812
O O11 0.842771 0.952184 0.067297
O O12 0.936152 0.744315 0.131027
O O13 0.000000 0.000000 0.145279
O O14 0.500000 0.000000 0.074478
O O15 0.232702 0.572384 0.953162
#
# Coordination Sequence:
#
# PCOD9366407 Si02
#       7
#     8   8   8   8   8   8   8
#     4  11  23  44  62  89 132 170 207 267 314 358
#     4  10  21  40  64  96 129 157 204 259 325 384
#     4  10  24  40  62  90 124 171 224 250 293 383
#     4  11  21  40  68  94 127 164 207 258 323 387
#     4  11  23  40  65 100 126 156 208 262 324 389
#     4  10  20  40  66  94 129 162 198 263 326 377
#     4  11  21  42  65  90 124 173 208 258 314 361
#
# _framework density 22.460291999999999
#
# number of rings (size 3 to 8) (size 9 to 14) (size 15 to 20)
#    0.000    1.429    4.286    2.571    0.000    2.286 
#    7.714   14.286    0.000    0.000    0.000    0.000 
#    0.000    0.000    0.000    0.000    0.000    0.000 
#
# Total GULP energy -156400.894634 kJ/mol
# GULP energy per Si atom -5585.746237 kJ/mol
# Density = 2.240917 g / cm^3
# Si number density = 22.460292 Si / 1000 Ang^3
#
#
#
# Elastic Constant Matrix: (Units=GPa)
#
#
# Indices 1 2 3 4 5 6 
#
# 1 25.0067 7.4744 21.0968 0.0000 0.0000 0.0000
# 2 7.4744 124.9525 25.9330 0.0000 0.0000 0.0000
# 3 21.0968 25.9330 66.6920 0.0000 0.0000 0.0000
# 4 0.0000 0.0000 0.0000 41.7453 0.0000 0.0000
# 5 0.0000 0.0000 0.0000 0.0000 0.5529 0.0000
# 6 0.0000 0.0000 0.0000 0.0000 0.0000 17.9506
#
#
#
# Elastic Compliance Matrix: (Units=1/GPa)
#
#
# Indices 1 2 3 4 5 6 
#
# 1 0.054560 0.000346 -0.017394 0.000000 0.000000 0.000000
# 2 0.000346 0.008708 -0.003496 0.000000 0.000000 0.000000
# 3 -0.017394 -0.003496 0.021856 0.000000 0.000000 0.000000
# 4 0.000000 0.000000 0.000000 0.023955 0.000000 0.000000
# 5 0.000000 0.000000 0.000000 0.000000 1.808572 0.000000
# 6 0.000000 0.000000 0.000000 0.000000 0.000000 0.055709
#
#
# Mechanical properties :
#
#
# Convention : Reuss Voigt Hill
#
# Bulk Modulus (GPa) = 22.70793 36.18441 29.44617
# Shear Modulus (GPa) = 2.46412 22.85956 12.66184
#
# Velocity S-wave (km/s) = 1.04856 3.19372 2.37690
# Velocity P-wave (km/s) = 3.40561 5.45391 4.54661
#
# Compressibility (1/GPa) = 0.04403749
#
# Stress axis : x y z
#
# Youngs Moduli (GPa) = 18.32852 114.83957 45.75474
#
# Poissons Ratio (x) = -0.03976 0.79584
# Poissons Ratio (y) = -0.00635 0.15994
# Poissons Ratio (z) = 0.31880 0.40143
#
# Static dielectric constant tensor:
#      x y z
#    x 1.840730 0.000000 0.000000 
#    y 0.000000 1.855410 0.000000 
#    z 0.000000 0.000000 1.845540 
# 
# From -- ./inp_files/11564.got.cif
#   From: 2010.05.17/outbox.cif.g08.bks.cpg/sg41_6_cif.got.tgz:11564.got - 2010.06.03 18:54:24.
