data_PCOD9366260
_publ_section_title
;
Structure prediction by ZEFSAII (Michael W. Deem and Ramdas Pophale) SiO2 
 PCOD9366260
Probable space group: A B A 2
;
_chemical_formula_sum "Si O2"
_cell_formula_units_Z 60
_cell_length_a 31.131858
_cell_length_b 9.140534
_cell_length_c 10.230101
_cell_angle_alpha 90.000000
_cell_angle_beta 90.000000
_cell_angle_gamma 90.000000
_cell_volume 2911.096022
_symmetry_space_group_name_H-M "A B A 2"
_symmetry_group_IT_number 41
_symmetry_cell_setting 'orthorhombic'
loop_
_space_group_symop_operation_xyz
x,y,z
-x,-y,z
1/2-x,y,1/2+z
1/2+x,-y,1/2+z
x,1/2+y,1/2+z
-x,1/2-y,1/2+z
1/2-x,1/2+y,z
1/2+x,1/2-y,z
loop_
_atom_site_type_symbol
_atom_site_label
_atom_site_fract_x
_atom_site_fract_y
_atom_site_fract_z
Si Si1 0.661918 0.565788 0.358980
Si Si2 0.192472 0.449680 0.152664
Si Si3 0.836740 0.404247 0.402045
Si Si4 0.000000 0.000000 0.845419
Si Si5 0.781800 0.391049 0.650383
Si Si6 0.979456 0.811480 0.274212
Si Si7 0.436359 0.947721 0.867577
Si Si8 0.928795 0.343658 0.518960
O O1 0.669387 0.531322 0.512721
O O2 0.670332 0.739665 0.347726
O O3 0.692573 0.472931 0.265651
O O4 0.612477 0.537281 0.321791
O O5 0.163700 0.486958 0.279236
O O6 0.232681 0.559912 0.158745
O O7 0.209703 0.282849 0.159842
O O8 0.800348 0.439376 0.508814
O O9 0.881280 0.395903 0.482438
O O10 0.018466 0.861267 0.771119
O O11 0.962059 0.932924 0.931265
O O12 0.028248 0.871386 0.271478
O O13 0.958116 0.895243 0.398623
O O14 0.946733 0.860410 0.163023
O O15 0.432557 0.827680 0.981711
#
# Coordination Sequence:
#
# PCOD9366260 Si02
#       8
#     8   8   8   4   8   8   8   8
#     4  10  22  41  63  91 126 165 208 257 311 370
#     4  11  24  41  63  93 127 163 207 259 314 374
#     4  10  23  41  62  91 127 160 204 259 309 370
#     4  10  22  34  56  86 112 152 200 238 292 360
#     4  11  23  40  64  91 121 163 208 254 310 372
#     4  10  20  38  59  84 120 157 200 252 300 357
#     4   9  20  38  59  85 119 157 199 250 304 359
#     4  10  21  38  58  86 120 156 198 249 304 358
#
# _framework density 20.610792
#
# number of rings (size 3 to 8) (size 9 to 14) (size 15 to 20)
#    0.000    1.867    0.000    3.200    0.000   10.667 
#    0.000   10.667    0.000    0.000    0.000    0.000 
#    0.000    0.000    0.000    0.000    0.000    0.000 
#
# Total GULP energy -167341.199105 kJ/mol
# GULP energy per Si atom -5578.039970 kJ/mol
# Density = 2.056388 g / cm^3
# Si number density = 20.610792 Si / 1000 Ang^3
#
#
#
# Elastic Constant Matrix: (Units=GPa)
#
#
# Indices 1 2 3 4 5 6 
#
# 1 102.7847 19.7864 28.0949 0.0000 0.0000 0.0000
# 2 19.7864 77.0730 27.7315 0.0000 0.0000 0.0000
# 3 28.0949 27.7315 73.2484 0.0000 0.0000 0.0000
# 4 0.0000 0.0000 0.0000 21.5635 0.0000 0.0000
# 5 0.0000 0.0000 0.0000 0.0000 34.5323 0.0000
# 6 0.0000 0.0000 0.0000 0.0000 0.0000 24.7828
#
#
#
# Elastic Compliance Matrix: (Units=1/GPa)
#
#
# Indices 1 2 3 4 5 6 
#
# 1 0.011019 -0.001514 -0.003653 0.000000 0.000000 0.000000
# 2 -0.001514 0.015229 -0.005185 0.000000 0.000000 0.000000
# 3 -0.003653 -0.005185 0.017016 0.000000 0.000000 0.000000
# 4 0.000000 0.000000 0.000000 0.046375 0.000000 0.000000
# 5 0.000000 0.000000 0.000000 0.000000 0.028958 0.000000
# 6 0.000000 0.000000 0.000000 0.000000 0.000000 0.040351
#
#
# Mechanical properties :
#
#
# Convention : Reuss Voigt Hill
#
# Bulk Modulus (GPa) = 44.32661 44.92576 44.62618
# Shear Modulus (GPa) = 26.71329 28.00860 27.36095
#
# Velocity S-wave (km/s) = 3.60402 3.69036 3.64745
# Velocity P-wave (km/s) = 6.23473 6.32478 6.27992
#
# Compressibility (1/GPa) = 0.02255981
#
# Stress axis : x y z
#
# Youngs Moduli (GPa) = 90.75116 65.66403 58.76728
#
# Poissons Ratio (x) = 0.09944 0.21468
# Poissons Ratio (y) = 0.13744 0.30469
# Poissons Ratio (z) = 0.33152 0.34045
#
# Static dielectric constant tensor:
#      x y z
#    x 1.725590 0.000000 0.000000 
#    y 0.000000 1.768280 0.000000 
#    z 0.000000 0.000000 1.751230 
# 
# From -- ./inp_files/6638.got.cif
#   From: 2010.05.17/outbox.cif.g08.bks.cpg/sg41_4_cif.got.tgz:6638.got - 2010.06.03 18:54:24.
