data_PCOD9366079
_publ_section_title
;
Structure prediction by ZEFSAII (Michael W. Deem and Ramdas Pophale) SiO2 
 PCOD9366079
Probable space group: A B A 2
;
_chemical_formula_sum "Si O2"
_cell_formula_units_Z 56
_cell_length_a 14.171562
_cell_length_b 15.879151
_cell_length_c 10.260127
_cell_angle_alpha 90.000000
_cell_angle_beta 90.000000
_cell_angle_gamma 90.000000
_cell_volume 2308.860725
_symmetry_space_group_name_H-M "A B A 2"
_symmetry_group_IT_number 41
_symmetry_cell_setting 'orthorhombic'
loop_
_space_group_symop_operation_xyz
x,y,z
-x,-y,z
1/2-x,y,1/2+z
1/2+x,-y,1/2+z
x,1/2+y,1/2+z
-x,1/2-y,1/2+z
1/2-x,1/2+y,z
1/2+x,1/2-y,z
loop_
_atom_site_type_symbol
_atom_site_label
_atom_site_fract_x
_atom_site_fract_y
_atom_site_fract_z
Si Si1 0.891775 0.789495 0.479200
Si Si2 0.397999 0.518022 0.415376
Si Si3 0.596233 0.849538 0.250912
Si Si4 0.906153 0.775885 0.022493
Si Si5 0.414391 0.546024 0.119693
Si Si6 0.789303 0.008291 0.639876
Si Si7 0.365713 0.834945 0.254980
O O1 0.869658 0.884131 0.432389
O O2 0.875405 0.786152 0.634044
O O3 0.849267 0.719529 0.384929
O O4 0.005023 0.777436 0.471303
O O5 0.500000 0.500000 0.473394
O O6 0.406076 0.504652 0.262983
O O7 0.334236 0.460877 0.504445
O O8 0.632802 0.817675 0.390563
O O9 0.480387 0.856781 0.254824
O O10 0.646706 0.935770 0.207190
O O11 0.938525 0.856071 0.110141
O O12 0.849557 0.721417 0.125834
O O13 0.500000 0.500000 0.046559
O O14 0.306669 0.531750 0.084891
O O15 0.798404 0.085078 0.739370
#
# Coordination Sequence:
#
# PCOD9366079 Si02
#       7
#     8   8   8   8   8   8   8
#     4   9  18  37  68 102 133 175 221 279 348 404
#     4  10  20  42  72  97 136 186 229 278 350 425
#     4   9  20  37  70 104 135 178 220 278 352 406
#     4  10  20  38  68  99 139 174 224 286 344 402
#     4  11  26  44  67  94 141 186 232 287 349 413
#     4  11  23  41  70  98 133 182 237 276 337 419
#     4  10  19  39  70 104 137 171 226 286 339 411
#
# _framework density 24.254384999999999
#
# number of rings (size 3 to 8) (size 9 to 14) (size 15 to 20)
#    0.000    2.000    1.429    3.000    2.000    2.286 
#    0.000    4.286   12.571    0.000    0.000    0.000 
#    0.000    0.000    0.000    0.000    0.000    0.000 
#
# Total GULP energy -156152.508145 kJ/mol
# GULP energy per Si atom -5576.875291 kJ/mol
# Density = 2.419918 g / cm^3
# Si number density = 24.254385 Si / 1000 Ang^3
#
#
#
# Elastic Constant Matrix: (Units=GPa)
#
#
# Indices 1 2 3 4 5 6 
#
# 1 59.3604 4.9063 -13.5443 0.0000 0.0000 0.0000
# 2 4.9063 95.7559 15.4746 0.0000 0.0000 0.0000
# 3 -13.5443 15.4746 113.8069 0.0000 0.0000 0.0000
# 4 0.0000 0.0000 0.0000 -33.1167 0.0000 0.0000
# 5 0.0000 0.0000 0.0000 0.0000 3.7942 0.0000
# 6 0.0000 0.0000 0.0000 0.0000 0.0000 -6.1375
#
#
#
# Elastic Compliance Matrix: (Units=1/GPa)
#
#
# Indices 1 2 3 4 5 6 
#
# 1 0.017464 -0.001258 0.002249 0.000000 0.000000 0.000000
# 2 -0.001258 0.010769 -0.001614 0.000000 0.000000 0.000000
# 3 0.002249 -0.001614 0.009274 0.000000 0.000000 0.000000
# 4 0.000000 0.000000 0.000000 -0.030196 0.000000 0.000000
# 5 0.000000 0.000000 0.000000 0.000000 0.263562 0.000000
# 6 0.000000 0.000000 0.000000 0.000000 0.000000 -0.162933
#
#
# Mechanical properties :
#
#
# Convention : Reuss Voigt Hill
#
# Bulk Modulus (GPa) = 27.57832 31.39958 29.48895
# Shear Modulus (GPa) = 41.23001 10.38043 25.80522
#
# Velocity S-wave (km/s) = 4.12746 2.07102 3.26535
# Velocity P-wave (km/s) = 5.84035 4.32352 5.13822
#
# Compressibility (1/GPa) = 0.03626037
#
# Stress axis : x y z
#
# Youngs Moduli (GPa) = 57.26222 92.86332 107.82853
#
# Poissons Ratio (x) = 0.11685 -0.24256
# Poissons Ratio (y) = 0.07205 0.17403
# Poissons Ratio (z) = -0.12881 0.14988
#
# Static dielectric constant tensor:
#      x y z
#    x 1.704510 0.000000 0.000000 
#    y 0.000000 1.981280 0.000000 
#    z 0.000000 0.000000 1.971440 
# 
# From -- ./inp_files/5589.got.cif
#   From: 2010.05.17/outbox.cif.g08.bks.cpg/sg41_3_cif.got.tgz:5589.got - 2010.06.03 18:54:24.
