data_PCOD9366945
_publ_section_title
;
Structure prediction by ZEFSAII (Michael W. Deem and Ramdas Pophale) SiO2 
 PCOD9366945
Probable space group: A B A 2
;
_chemical_formula_sum "Si O2"
_cell_formula_units_Z 60
_cell_length_a 30.223124
_cell_length_b 8.678402
_cell_length_c 10.445305
_cell_angle_alpha 90.000000
_cell_angle_beta 90.000000
_cell_angle_gamma 90.000000
_cell_volume 2739.682542
_symmetry_space_group_name_H-M "A B A 2"
_symmetry_group_IT_number 41
_symmetry_cell_setting 'orthorhombic'
loop_
_space_group_symop_operation_xyz
x,y,z
-x,-y,z
1/2-x,y,1/2+z
1/2+x,-y,1/2+z
x,1/2+y,1/2+z
-x,1/2-y,1/2+z
1/2-x,1/2+y,z
1/2+x,1/2-y,z
loop_
_atom_site_type_symbol
_atom_site_label
_atom_site_fract_x
_atom_site_fract_y
_atom_site_fract_z
Si Si1 0.126324 0.827268 0.974470
Si Si2 0.567792 0.853683 0.781231
Si Si3 0.202492 0.656943 0.836143
Si Si4 0.839230 0.841283 0.062824
Si Si5 0.791537 0.693298 0.854875
Si Si6 0.608652 0.693642 0.257349
Si Si7 0.000000 0.500000 0.949014
Si Si8 0.926916 0.223097 0.514007
O O1 0.095096 0.779442 0.855316
O O2 0.172942 0.746487 0.939808
O O3 0.103616 0.771079 0.107303
O O4 0.138440 0.005405 0.003546
O O5 0.558766 0.830481 0.631133
O O6 0.594204 0.016586 0.787467
O O7 0.522523 0.874251 0.857721
O O8 0.173790 0.636733 0.707868
O O9 0.213176 0.486243 0.883145
O O10 0.246564 0.746671 0.794031
O O11 0.874938 0.702711 0.049028
O O12 0.797057 0.793415 0.982422
O O13 0.838813 0.716831 0.783926
O O14 0.578528 0.777380 0.365689
O O15 0.959839 0.579809 0.022192
#
# Coordination Sequence:
#
# PCOD9366945 Si02
#       8
#     8   8   8   8   8   8   4   8
#     4  12  21  44  72  98 133 185 231 279 350 410
#     4  11  22  48  71  98 142 177 230 287 345 425
#     4  12  25  44  64 102 140 183 237 287 348 403
#     4  11  24  46  68  99 139 186 235 287 348 415
#     4  11  24  44  63  95 141 182 230 294 331 402
#     4  10  22  44  68  95 135 185 227 281 347 396
#     4  10  26  42  72 104 138 180 222 294 350 414
#     4  10  21  48  65  99 138 175 229 278 345 417
#
# _framework density 21.900348000000001
#
# number of rings (size 3 to 8) (size 9 to 14) (size 15 to 20)
#    0.000    1.067    5.333    0.800    1.867    3.200 
#   16.800    0.000    0.000    0.800    0.000    0.000 
#    0.000    0.000    0.000    0.000    0.000    0.000 
#
# Total GULP energy -167173.099279 kJ/mol
# GULP energy per Si atom -5572.436643 kJ/mol
# Density = 2.185050 g / cm^3
# Si number density = 21.900348 Si / 1000 Ang^3
#
#
#
# Elastic Constant Matrix: (Units=GPa)
#
#
# Indices 1 2 3 4 5 6 
#
# 1 81.0054 42.3875 11.3724 0.0000 0.0000 0.0000
# 2 42.3875 76.0854 52.1278 0.0000 0.0000 0.0000
# 3 11.3724 52.1278 111.4563 0.0000 0.0000 0.0000
# 4 0.0000 0.0000 0.0000 28.9030 0.0000 0.0000
# 5 0.0000 0.0000 0.0000 0.0000 -7.7856 0.0000
# 6 0.0000 0.0000 0.0000 0.0000 0.0000 36.1551
#
#
#
# Elastic Compliance Matrix: (Units=1/GPa)
#
#
# Indices 1 2 3 4 5 6 
#
# 1 0.018772 -0.013458 0.004379 0.000000 0.000000 0.000000
# 2 -0.013458 0.028989 -0.012185 0.000000 0.000000 0.000000
# 3 0.004379 -0.012185 0.014224 0.000000 0.000000 0.000000
# 4 0.000000 0.000000 0.000000 0.034598 0.000000 0.000000
# 5 0.000000 0.000000 0.000000 0.000000 -0.128442 0.000000
# 6 0.000000 0.000000 0.000000 0.000000 0.000000 0.027659
#
#
# Mechanical properties :
#
#
# Convention : Reuss Voigt Hill
#
# Bulk Modulus (GPa) = 51.39507 53.36917 52.38212
# Shear Modulus (GPa) = 111.57076 22.29845 66.93460
#
# Velocity S-wave (km/s) = 7.14530 3.19435 5.53440
# Velocity P-wave (km/s) = 9.57039 6.16662 8.05045
#
# Compressibility (1/GPa) = 0.01945712
#
# Stress axis : x y z
#
# Youngs Moduli (GPa) = 53.26969 34.49592 70.30301
#
# Poissons Ratio (x) = 0.46426 -0.30786
# Poissons Ratio (y) = 0.71692 0.85663
# Poissons Ratio (z) = -0.23327 0.42033
#
# Static dielectric constant tensor:
#      x y z
#    x 1.861440 0.000000 0.000000 
#    y 0.000000 1.810250 0.000000 
#    z 0.000000 0.000000 1.881530 
# 
# From -- ./inp_files/6627.got.cif
#   From: 2010.05.17/outbox.cif.g08.bks.cpg/sg41_4_cif.got.tgz:6627.got - 2010.06.03 18:54:24.
