data_PCOD9366977
_publ_section_title
;
Structure prediction by ZEFSAII (Michael W. Deem and Ramdas Pophale) SiO2 
 PCOD9366977
Probable space group: A B A 2
;
_chemical_formula_sum "Si O2"
_cell_formula_units_Z 48
_cell_length_a 21.381812
_cell_length_b 11.153509
_cell_length_c 8.987966
_cell_angle_alpha 90.000000
_cell_angle_beta 90.000000
_cell_angle_gamma 90.000000
_cell_volume 2143.470198
_symmetry_space_group_name_H-M "A B A 2"
_symmetry_group_IT_number 41
_symmetry_cell_setting 'orthorhombic'
loop_
_space_group_symop_operation_xyz
x,y,z
-x,-y,z
1/2-x,y,1/2+z
1/2+x,-y,1/2+z
x,1/2+y,1/2+z
-x,1/2-y,1/2+z
1/2-x,1/2+y,z
1/2+x,1/2-y,z
loop_
_atom_site_type_symbol
_atom_site_label
_atom_site_fract_x
_atom_site_fract_y
_atom_site_fract_z
Si Si1 0.539820 0.396501 0.197710
Si Si2 0.167096 0.170004 0.097220
Si Si3 0.001212 0.750657 0.944440
Si Si4 0.045390 0.597734 0.207301
Si Si5 0.252410 0.057428 0.847768
Si Si6 0.834411 0.551810 0.108871
O O1 0.500000 0.500000 0.274595
O O2 0.607040 0.414278 0.126513
O O3 0.550334 0.292041 0.320474
O O4 0.494287 0.356946 0.063178
O O5 0.212639 0.147433 0.236545
O O6 0.147661 0.309161 0.090240
O O7 0.203651 0.127727 0.951538
O O8 0.946939 0.795870 0.830034
O O9 0.005567 0.644656 0.065378
O O10 0.108303 0.535405 0.152269
O O11 0.000000 0.500000 0.280537
O O12 0.215681 0.964398 0.742208
O O13 0.301598 0.994125 0.957969
#
# Coordination Sequence:
#
# PCOD9366977 Si02
#       6
#     8   8   8   8   8   8
#     4  11  23  39  61  91 126 162 204 256 316 378
#     4  11  23  42  65  92 127 166 214 266 316 379
#     4  10  22  38  56  88 124 156 198 244 304 374
#     4  11  22  38  62  90 124 164 204 255 317 378
#     4  10  24  42  64  94 124 166 218 266 316 370
#     4  11  22  41  66  91 126 168 212 263 318 377
#
# _framework density 22.393592999999999
#
# number of rings (size 3 to 8) (size 9 to 14) (size 15 to 20)
#    0.000    1.333    0.000    6.000    0.000    2.667 
#    0.000   13.333    0.000    0.000    0.000    0.000 
#    0.000    0.000    0.000    0.000    0.000    0.000 
#
# Total GULP energy -133705.055335 kJ/mol
# GULP energy per Si atom -5571.043972 kJ/mol
# Density = 2.234262 g / cm^3
# Si number density = 22.393593 Si / 1000 Ang^3
#
#
#
# Elastic Constant Matrix: (Units=GPa)
#
#
# Indices 1 2 3 4 5 6 
#
# 1 75.9189 29.8315 13.5096 0.0000 0.0000 0.0000
# 2 29.8315 74.5016 31.6377 0.0000 0.0000 0.0000
# 3 13.5096 31.6377 139.2150 0.0000 0.0000 0.0000
# 4 0.0000 0.0000 0.0000 24.6587 0.0000 0.0000
# 5 0.0000 0.0000 0.0000 0.0000 27.4139 0.0000
# 6 0.0000 0.0000 0.0000 0.0000 0.0000 30.2128
#
#
#
# Elastic Compliance Matrix: (Units=1/GPa)
#
#
# Indices 1 2 3 4 5 6 
#
# 1 0.015633 -0.006215 -0.000105 0.000000 0.000000 0.000000
# 2 -0.006215 0.017327 -0.003335 0.000000 0.000000 0.000000
# 3 -0.000105 -0.003335 0.007951 0.000000 0.000000 0.000000
# 4 0.000000 0.000000 0.000000 0.040554 0.000000 0.000000
# 5 0.000000 0.000000 0.000000 0.000000 0.036478 0.000000
# 6 0.000000 0.000000 0.000000 0.000000 0.000000 0.033099
#
#
# Mechanical properties :
#
#
# Convention : Reuss Voigt Hill
#
# Bulk Modulus (GPa) = 46.29125 48.84369 47.56747
# Shear Modulus (GPa) = 28.16098 30.76753 29.46425
#
# Velocity S-wave (km/s) = 3.55004 3.71070 3.63125
# Velocity P-wave (km/s) = 6.12537 6.34175 6.23450
#
# Compressibility (1/GPa) = 0.02160235
#
# Stress axis : x y z
#
# Youngs Moduli (GPa) = 63.96831 57.71251 125.76870
#
# Poissons Ratio (x) = 0.35869 0.01315
# Poissons Ratio (y) = 0.39757 0.41939
# Poissons Ratio (z) = 0.00669 0.19245
#
# Static dielectric constant tensor:
#      x y z
#    x 1.811350 0.000000 0.000000 
#    y 0.000000 1.847620 0.000000 
#    z 0.000000 0.000000 1.809280 
# 
# From -- ./inp_files/3615.got.cif
#   From: 2010.05.17/outbox.cif.g08.bks.cpg/sg41_2_cif.got.tgz:3615.got - 2010.06.03 18:54:24.
