data_PCOD9366577
_publ_section_title
;
Structure prediction by ZEFSAII (Michael W. Deem and Ramdas Pophale) SiO2 
 PCOD9366577
Probable space group: A B A 2
;
_chemical_formula_sum "Si O2"
_cell_formula_units_Z 56
_cell_length_a 5.574631
_cell_length_b 15.139615
_cell_length_c 25.859671
_cell_angle_alpha 90.000000
_cell_angle_beta 90.000000
_cell_angle_gamma 90.000000
_cell_volume 2182.498491
_symmetry_space_group_name_H-M "A B A 2"
_symmetry_group_IT_number 41
_symmetry_cell_setting 'orthorhombic'
loop_
_space_group_symop_operation_xyz
x,y,z
-x,-y,z
1/2-x,y,1/2+z
1/2+x,-y,1/2+z
x,1/2+y,1/2+z
-x,1/2-y,1/2+z
1/2-x,1/2+y,z
1/2+x,1/2-y,z
loop_
_atom_site_type_symbol
_atom_site_label
_atom_site_fract_x
_atom_site_fract_y
_atom_site_fract_z
Si Si1 0.250436 0.199140 0.462640
Si Si2 0.250274 0.267142 0.352416
Si Si3 0.750032 0.901886 0.059354
Si Si4 0.750016 0.531675 0.884047
Si Si5 0.749421 0.696393 0.707755
Si Si6 0.749999 0.031587 0.264156
Si Si7 0.249974 0.895818 0.600702
O O1 0.500508 0.249949 0.474902
O O2 0.250363 0.196294 0.400311
O O3 0.250260 0.111995 0.497810
O O4 0.500313 0.250073 0.325128
O O5 0.250132 0.362900 0.378957
O O6 0.502790 0.859752 0.079622
O O7 0.997147 0.859744 0.079691
O O8 0.750006 0.001926 0.081412
O O9 0.500000 0.500000 0.907658
O O10 0.750014 0.499003 0.823743
O O11 0.000000 0.500000 0.907675
O O12 0.499191 0.749853 0.703962
O O13 0.749850 0.636309 0.759099
O O14 0.749760 0.624940 0.661193
O O15 0.500000 0.000000 0.240528
O O16 0.000000 0.000000 0.240528
#
# Coordination Sequence:
#
# PCOD9366577 Si02
#       7
#     8   8   8   8   8   8   8
#     4  10  21  37  63  86 123 157 204 266 321 369
#     4  10  21  38  65  94 126 167 208 264 325 376
#     4  10  21  39  62  87 116 166 219 254 313 388
#     4  10  21  40  66  98 131 172 215 255 313 389
#     4  12  26  41  62  98 132 162 216 275 322 371
#     4  10  23  41  67  93 132 178 213 256 312 387
#     4  10  23  38  61  88 118 168 213 262 316 380
#
# _framework density 25.658664000000002
#
# number of rings (size 3 to 8) (size 9 to 14) (size 15 to 20)
#    0.000    1.714    0.000    3.429    4.000    4.571 
#    0.000    0.000   75.429    0.000    0.000    0.000 
#    0.000    0.000    0.000    0.000    0.000    0.000 
#
# Total GULP energy -156482.535494 kJ/mol
# GULP energy per Si atom -5588.661982 kJ/mol
# Density = 2.560026 g / cm^3
# Si number density = 25.658664 Si / 1000 Ang^3
#
#
#
# Elastic Constant Matrix: (Units=GPa)
#
#
# Indices 1 2 3 4 5 6 
#
# 1 343.2903 76.4594 32.9520 0.0000 0.0000 0.0000
# 2 76.4594 104.2695 26.4143 0.0000 0.0000 0.0000
# 3 32.9520 26.4143 79.5125 0.0000 0.0000 0.0000
# 4 0.0000 0.0000 0.0000 48.3600 0.0000 0.0000
# 5 0.0000 0.0000 0.0000 0.0000 72.0707 0.0000
# 6 0.0000 0.0000 0.0000 0.0000 0.0000 31.3347
#
#
#
# Elastic Compliance Matrix: (Units=1/GPa)
#
#
# Indices 1 2 3 4 5 6 
#
# 1 0.003513 -0.002410 -0.000655 0.000000 0.000000 0.000000
# 2 -0.002410 0.012125 -0.003029 0.000000 0.000000 0.000000
# 3 -0.000655 -0.003029 0.013855 0.000000 0.000000 0.000000
# 4 0.000000 0.000000 0.000000 0.020678 0.000000 0.000000
# 5 0.000000 0.000000 0.000000 0.000000 0.013875 0.000000
# 6 0.000000 0.000000 0.000000 0.000000 0.000000 0.031913
#
#
# Mechanical properties :
#
#
# Convention : Reuss Voigt Hill
#
# Bulk Modulus (GPa) = 57.79136 88.74707 73.26921
# Shear Modulus (GPa) = 43.89223 56.43619 50.16421
#
# Velocity S-wave (km/s) = 4.14045 4.69497 4.42640
# Velocity P-wave (km/s) = 6.74016 8.00331 7.39874
#
# Compressibility (1/GPa) = 0.01730363
#
# Stress axis : x y z
#
# Youngs Moduli (GPa) = 284.69019 82.47434 72.17869
#
# Poissons Ratio (x) = 0.19874 0.04729
# Poissons Ratio (y) = 0.68604 0.21865
# Poissons Ratio (z) = 0.18652 0.24984
#
# Static dielectric constant tensor:
#      x y z
#    x 2.007890 0.000000 0.000000 
#    y 0.000000 2.010830 0.000000 
#    z 0.000000 0.000000 2.040740 
# 
# From -- ./inp_files/12628.got.cif
#   From: 2010.05.17/outbox.cif.g08.bks.cpg/sg41_7_cif.got.tgz:12628.got - 2010.06.03 18:54:24.
