data_PCOD9366992
_publ_section_title
;
Structure prediction by ZEFSAII (Michael W. Deem and Ramdas Pophale) SiO2 
 PCOD9366992
Probable space group: A B A 2
;
_chemical_formula_sum "Si O2"
_cell_formula_units_Z 40
_cell_length_a 18.693017
_cell_length_b 5.026064
_cell_length_c 18.439064
_cell_angle_alpha 90.000000
_cell_angle_beta 90.000000
_cell_angle_gamma 90.000000
_cell_volume 1732.392469
_symmetry_space_group_name_H-M "A B A 2"
_symmetry_group_IT_number 41
_symmetry_cell_setting 'orthorhombic'
loop_
_space_group_symop_operation_xyz
x,y,z
-x,-y,z
1/2-x,y,1/2+z
1/2+x,-y,1/2+z
x,1/2+y,1/2+z
-x,1/2-y,1/2+z
1/2-x,1/2+y,z
1/2+x,1/2-y,z
loop_
_atom_site_type_symbol
_atom_site_label
_atom_site_fract_x
_atom_site_fract_y
_atom_site_fract_z
Si Si1 0.939121 0.693209 0.818420
Si Si2 0.706966 0.397837 0.521440
Si Si3 0.500000 0.000000 0.430163
Si Si4 0.000000 0.000000 0.180581
Si Si5 0.935553 0.184840 0.565945
Si Si6 0.793733 0.907167 0.346640
O O1 0.969082 0.715591 0.737467
O O2 0.866056 0.532204 0.816525
O O3 0.000000 0.500000 0.855600
O O4 0.937726 0.956757 0.867936
O O5 0.727948 0.097655 0.540320
O O6 0.635595 0.517270 0.555211
O O7 0.698440 0.412300 0.434258
O O8 0.463476 0.195523 0.489702
O O9 0.936260 0.907766 0.127819
O O10 0.000000 0.000000 0.590755
O O11 0.730129 0.111934 0.326156
#
# Coordination Sequence:
#
# PCOD9366992 Si02
#       6
#     8   8   4   4   8   8
#     4  10  23  40  65  97 129 174 225 278 330 405
#     4  10  23  39  64  99 139 176 222 286 348 406
#     4  11  22  36  72  97 126 166 240 279 336 388
#     4   9  26  42  64  97 134 178 228 279 350 390
#     4  11  24  42  67  99 134 179 230 287 332 413
#     4  10  22  38  62  97 136 169 216 283 344 399
#
# _framework density 23.089458
#
# number of rings (size 3 to 8) (size 9 to 14) (size 15 to 20)
#    0.600    1.200    2.000    0.600    9.800    0.000 
#    0.000    2.000    0.000    0.000    0.000    0.000 
#    0.000    0.000    0.000    0.000    0.000    0.000 
#
# Total GULP energy -111392.649480 kJ/mol
# GULP energy per Si atom -5569.632474 kJ/mol
# Density = 2.303691 g / cm^3
# Si number density = 23.089458 Si / 1000 Ang^3
#
#
#
# Elastic Constant Matrix: (Units=GPa)
#
#
# Indices 1 2 3 4 5 6 
#
# 1 73.8676 -8.0810 5.2146 0.0000 0.0000 0.0000
# 2 -8.0810 54.7868 20.6634 0.0000 0.0000 0.0000
# 3 5.2146 20.6634 115.6531 0.0000 0.0000 0.0000
# 4 0.0000 0.0000 0.0000 3.8755 0.0000 0.0000
# 5 0.0000 0.0000 0.0000 0.0000 17.1914 0.0000
# 6 0.0000 0.0000 0.0000 0.0000 0.0000 34.1404
#
#
#
# Elastic Compliance Matrix: (Units=1/GPa)
#
#
# Indices 1 2 3 4 5 6 
#
# 1 0.013881 0.002448 -0.001063 0.000000 0.000000 0.000000
# 2 0.002448 0.020003 -0.003684 0.000000 0.000000 0.000000
# 3 -0.001063 -0.003684 0.009353 0.000000 0.000000 0.000000
# 4 0.000000 0.000000 0.000000 0.258030 0.000000 0.000000
# 5 0.000000 0.000000 0.000000 0.000000 0.058169 0.000000
# 6 0.000000 0.000000 0.000000 0.000000 0.000000 0.029291
#
#
# Mechanical properties :
#
#
# Convention : Reuss Voigt Hill
#
# Bulk Modulus (GPa) = 25.88109 31.10019 28.49064
# Shear Modulus (GPa) = 12.30908 26.14216 19.22562
#
# Velocity S-wave (km/s) = 2.31141 3.36849 2.88871
# Velocity P-wave (km/s) = 4.28449 5.35048 4.84688
#
# Compressibility (1/GPa) = 0.03863825
#
# Stress axis : x y z
#
# Youngs Moduli (GPa) = 72.04276 49.99181 106.92034
#
# Poissons Ratio (x) = -0.12240 0.11369
# Poissons Ratio (y) = -0.17639 0.39393
# Poissons Ratio (z) = 0.07660 0.18419
#
# Static dielectric constant tensor:
#      x y z
#    x 1.881830 0.000000 0.000000 
#    y 0.000000 2.423020 0.000000 
#    z 0.000000 0.000000 1.807990 
# 
# From -- ./inp_files/10495.got.cif
#   From: 2010.05.17/outbox.cif.g08.bks.cpg/sg41_6_cif.got.tgz:10495.got - 2010.06.03 18:54:24.
