data_PCOD9366784
_publ_section_title
;
Structure prediction by ZEFSAII (Michael W. Deem and Ramdas Pophale) SiO2 
 PCOD9366784
Probable space group: A B A 2
;
_chemical_formula_sum "Si O2"
_cell_formula_units_Z 40
_cell_length_a 9.663411
_cell_length_b 21.642970
_cell_length_c 9.868311
_cell_angle_alpha 90.000000
_cell_angle_beta 90.000000
_cell_angle_gamma 90.000000
_cell_volume 2063.907059
_symmetry_space_group_name_H-M "A B A 2"
_symmetry_group_IT_number 41
_symmetry_cell_setting 'orthorhombic'
loop_
_space_group_symop_operation_xyz
x,y,z
-x,-y,z
1/2-x,y,1/2+z
1/2+x,-y,1/2+z
x,1/2+y,1/2+z
-x,1/2-y,1/2+z
1/2-x,1/2+y,z
1/2+x,1/2-y,z
loop_
_atom_site_type_symbol
_atom_site_label
_atom_site_fract_x
_atom_site_fract_y
_atom_site_fract_z
Si Si1 0.236120 0.213918 0.448740
Si Si2 0.536225 0.174457 0.460280
Si Si3 0.159393 0.643426 0.690375
Si Si4 0.623337 0.544714 0.846602
Si Si5 0.662094 0.998137 0.648116
O O1 0.399194 0.211184 0.410634
O O2 0.165639 0.280239 0.454417
O O3 0.160541 0.170208 0.340234
O O4 0.236454 0.183709 0.597702
O O5 0.486311 0.152552 0.610339
O O6 0.564788 0.112583 0.376561
O O7 0.203535 0.572508 0.678387
O O8 0.500000 0.500000 0.798540
O O9 0.746022 0.542545 0.739501
O O10 0.673311 0.516028 0.990353
O O11 0.500000 0.000000 0.682783
#
# Coordination Sequence:
#
# PCOD9366784 Si02
#       5
#     8   8   8   8   8
#     4  10  23  37  65  88 128 169 209 262 329 369
#     4  10  23  40  63  91 131 163 215 266 316 389
#     4  10  21  41  63  89 129 160 214 264 320 378
#     4  11  22  43  64  94 130 166 210 271 326 384
#     4  11  21  41  68  90 127 168 210 268 326 383
#
# _framework density 19.380717000000001
#
# number of rings (size 3 to 8) (size 9 to 14) (size 15 to 20)
#    1.200    0.400    4.000    2.400    2.800    4.000 
#    0.000    2.000    0.000    0.000    0.000    0.000 
#    0.000    0.000    0.000    0.000    0.000    0.000 
#
# Total GULP energy -111483.836014 kJ/mol
# GULP energy per Si atom -5574.191801 kJ/mol
# Density = 1.933661 g / cm^3
# Si number density = 19.380717 Si / 1000 Ang^3
#
#
#
# Elastic Constant Matrix: (Units=GPa)
#
#
# Indices 1 2 3 4 5 6 
#
# 1 44.8884 8.3891 19.8495 0.0000 0.0000 0.0000
# 2 8.3891 89.6040 -19.2189 0.0000 0.0000 0.0000
# 3 19.8495 -19.2189 35.3887 0.0000 0.0000 0.0000
# 4 0.0000 0.0000 0.0000 46.5939 0.0000 0.0000
# 5 0.0000 0.0000 0.0000 0.0000 5.9462 0.0000
# 6 0.0000 0.0000 0.0000 0.0000 0.0000 35.0154
#
#
#
# Elastic Compliance Matrix: (Units=1/GPa)
#
#
# Indices 1 2 3 4 5 6 
#
# 1 0.034348 -0.008317 -0.023783 0.000000 0.000000 0.000000
# 2 -0.008317 0.014645 0.012619 0.000000 0.000000 0.000000
# 3 -0.023783 0.012619 0.048450 0.000000 0.000000 0.000000
# 4 0.000000 0.000000 0.000000 0.021462 0.000000 0.000000
# 5 0.000000 0.000000 0.000000 0.000000 0.168173 0.000000
# 6 0.000000 0.000000 0.000000 0.000000 0.000000 0.028559
#
#
# Mechanical properties :
#
#
# Convention : Reuss Voigt Hill
#
# Bulk Modulus (GPa) = 17.09930 20.88005 18.98968
# Shear Modulus (GPa) = 13.36559 28.23521 20.80040
#
# Velocity S-wave (km/s) = 2.62894 3.82104 3.27961
# Velocity P-wave (km/s) = 4.24936 5.50128 4.91534
#
# Compressibility (1/GPa) = 0.05848193
#
# Stress axis : x y z
#
# Youngs Moduli (GPa) = 29.11335 68.28074 20.63965
#
# Poissons Ratio (x) = 0.56789 0.49087
# Poissons Ratio (y) = 0.24213 -0.26044
# Poissons Ratio (z) = 0.69240 -0.86161
#
# Static dielectric constant tensor:
#      x y z
#    x 1.692320 0.000000 0.000000 
#    y 0.000000 1.659920 0.000000 
#    z 0.000000 0.000000 1.657700 
# 
# From -- ./inp_files/4426.got.cif
#   From: 2010.05.17/outbox.cif.g08.bks.cpg/sg41_3_cif.got.tgz:4426.got - 2010.06.03 18:54:24.
