data_PCOD9366017
_publ_section_title
;
Structure prediction by ZEFSAII (Michael W. Deem and Ramdas Pophale) SiO2 
 PCOD9366017
Probable space group: A B A 2
;
_chemical_formula_sum "Si O2"
_cell_formula_units_Z 44
_cell_length_a 5.757202
_cell_length_b 13.193228
_cell_length_c 24.520076
_cell_angle_alpha 90.000000
_cell_angle_beta 90.000000
_cell_angle_gamma 90.000000
_cell_volume 1862.448821
_symmetry_space_group_name_H-M "A B A 2"
_symmetry_group_IT_number 41
_symmetry_cell_setting 'orthorhombic'
loop_
_space_group_symop_operation_xyz
x,y,z
-x,-y,z
1/2-x,y,1/2+z
1/2+x,-y,1/2+z
x,1/2+y,1/2+z
-x,1/2-y,1/2+z
1/2-x,1/2+y,z
1/2+x,1/2-y,z
loop_
_atom_site_type_symbol
_atom_site_label
_atom_site_fract_x
_atom_site_fract_y
_atom_site_fract_z
Si Si1 0.613712 0.112164 0.313970
Si Si2 0.428080 0.804321 0.194408
Si Si3 0.000000 0.000000 0.360990
Si Si4 0.881062 0.353534 0.543850
Si Si5 0.118082 0.877002 0.583469
Si Si6 0.887852 0.389851 0.423083
O O1 0.570377 0.166124 0.257895
O O2 0.521780 0.158054 0.371189
O O3 0.500000 0.000000 0.312566
O O4 0.877798 0.081414 0.322265
O O5 0.687229 0.758637 0.186020
O O6 0.396708 0.890987 0.148564
O O7 0.855743 0.927059 0.400264
O O8 0.884103 0.245530 0.574064
O O9 0.633730 0.406858 0.558134
O O10 0.882562 0.331053 0.479126
O O11 0.128213 0.404257 0.559527
O O12 0.000000 0.500000 0.436310
#
# Coordination Sequence:
#
# PCOD9366017 Si02
#       6
#     8   8   4   8   8   8
#     4   9  22  41  63  89 122 168 206 255 312 368
#     4  12  23  42  65  91 127 162 209 260 307 363
#     4   8  18  40  60  80 118 160 206 246 312 360
#     4  10  19  37  59  82 114 154 195 235 296 353
#     4  10  20  39  59  82 117 163 186 244 300 353
#     4   9  20  37  59  86 116 160 198 249 300 361
#
# _framework density 23.62481
#
# number of rings (size 3 to 8) (size 9 to 14) (size 15 to 20)
#    0.000    2.545    3.636    0.000   10.182    0.000 
#    6.545    1.818    0.000    0.000    0.000    0.000 
#    0.000    0.000    0.000    0.000    0.000    0.000 
#
# Total GULP energy -122591.349817 kJ/mol
# GULP energy per Si atom -5572.334083 kJ/mol
# Density = 2.357104 g / cm^3
# Si number density = 23.624810 Si / 1000 Ang^3
#
#
#
# Elastic Constant Matrix: (Units=GPa)
#
#
# Indices 1 2 3 4 5 6 
#
# 1 163.3509 30.7944 38.9708 0.0000 0.0000 0.0000
# 2 30.7944 36.8075 5.1739 0.0000 0.0000 0.0000
# 3 38.9708 5.1739 189.6755 0.0000 0.0000 0.0000
# 4 0.0000 0.0000 0.0000 25.4144 0.0000 0.0000
# 5 0.0000 0.0000 0.0000 0.0000 -44.6878 0.0000
# 6 0.0000 0.0000 0.0000 0.0000 0.0000 23.3920
#
#
#
# Elastic Compliance Matrix: (Units=1/GPa)
#
#
# Indices 1 2 3 4 5 6 
#
# 1 0.007620 -0.006179 -0.001397 0.000000 0.000000 0.000000
# 2 -0.006179 0.032283 0.000389 0.000000 0.000000 0.000000
# 3 -0.001397 0.000389 0.005549 0.000000 0.000000 0.000000
# 4 0.000000 0.000000 0.000000 0.039348 0.000000 0.000000
# 5 0.000000 0.000000 0.000000 0.000000 -0.022377 0.000000
# 6 0.000000 0.000000 0.000000 0.000000 0.000000 0.042750
#
#
# Mechanical properties :
#
#
# Convention : Reuss Voigt Hill
#
# Bulk Modulus (GPa) = 32.17731 59.96800 46.07265
# Shear Modulus (GPa) = 38.48982 21.81670 30.15326
#
# Velocity S-wave (km/s) = 4.04073 3.04215 3.57646
# Velocity P-wave (km/s) = 5.95144 6.14640 6.04971
#
# Compressibility (1/GPa) = 0.03107780
#
# Stress axis : x y z
#
# Youngs Moduli (GPa) = 131.23588 30.97602 180.22596
#
# Poissons Ratio (x) = 0.19139 0.25178
# Poissons Ratio (y) = 0.81086 -0.07008
# Poissons Ratio (z) = 0.18334 -0.01205
#
# Static dielectric constant tensor:
#      x y z
#    x 2.064520 0.000000 0.000000 
#    y 0.000000 1.913680 0.000000 
#    z 0.000000 0.000000 1.849540 
# 
# From -- ./inp_files/11838.got.cif
#   From: 2010.05.17/outbox.cif.g08.bks.cpg/sg41_6_cif.got.tgz:11838.got - 2010.06.03 18:54:24.
