data_PCOD9366471
_publ_section_title
;
Structure prediction by ZEFSAII (Michael W. Deem and Ramdas Pophale) SiO2 
 PCOD9366471
Probable space group: A B A 2
;
_chemical_formula_sum "Si O2"
_cell_formula_units_Z 60
_cell_length_a 9.838263
_cell_length_b 16.204519
_cell_length_c 17.689883
_cell_angle_alpha 90.000000
_cell_angle_beta 90.000000
_cell_angle_gamma 90.000000
_cell_volume 2820.197563
_symmetry_space_group_name_H-M "A B A 2"
_symmetry_group_IT_number 41
_symmetry_cell_setting 'orthorhombic'
loop_
_space_group_symop_operation_xyz
x,y,z
-x,-y,z
1/2-x,y,1/2+z
1/2+x,-y,1/2+z
x,1/2+y,1/2+z
-x,1/2-y,1/2+z
1/2-x,1/2+y,z
1/2+x,1/2-y,z
loop_
_atom_site_type_symbol
_atom_site_label
_atom_site_fract_x
_atom_site_fract_y
_atom_site_fract_z
Si Si1 0.532888 0.681338 0.380080
Si Si2 0.000000 0.000000 0.431173
Si Si3 0.794082 0.402806 0.274506
Si Si4 0.523207 0.824227 0.711840
Si Si5 0.205914 0.951229 0.179660
Si Si6 0.301140 0.068547 0.050176
Si Si7 0.266082 0.688851 0.930642
Si Si8 0.019057 0.853631 0.660194
O O1 0.526598 0.582543 0.384622
O O2 0.541345 0.703478 0.292127
O O3 0.391340 0.709323 0.416543
O O4 0.649940 0.727957 0.423897
O O5 0.868937 0.985223 0.483928
O O6 0.677523 0.347818 0.233161
O O7 0.743065 0.495286 0.254697
O O8 0.801370 0.373211 0.360826
O O9 0.936210 0.387074 0.233069
O O10 0.434423 0.901970 0.685336
O O11 0.517091 0.745047 0.658708
O O12 0.328663 0.887224 0.165148
O O13 0.217778 0.015500 0.110230
O O14 0.431982 0.107758 0.092260
O O15 0.218435 0.140602 0.008990
#
# Coordination Sequence:
#
# PCOD9366471 Si02
#       8
#     8   4   8   8   8   8   8   8
#     4  10  23  39  68  97 126 166 215 270 312 384
#     4  10  20  42  68  86 132 176 218 248 326 392
#     4  10  21  40  63  94 128 165 207 271 317 377
#     4  11  23  37  62  99 127 159 212 271 324 364
#     4  11  23  39  66  92 127 169 216 262 318 389
#     4  10  21  41  64  90 125 175 217 250 326 389
#     4  10  22  42  66  94 132 164 221 261 321 383
#     4  11  21  41  65  90 126 169 216 261 315 392
#
# _framework density 21.275106000000001
#
# number of rings (size 3 to 8) (size 9 to 14) (size 15 to 20)
#    0.000    1.600    2.667    2.400    7.467    1.067 
#    9.600    0.000    5.867    0.000    0.000    0.000 
#    0.000    0.000    0.000    0.000    0.000    0.000 
#
# Total GULP energy -167686.569150 kJ/mol
# GULP energy per Si atom -5589.552305 kJ/mol
# Density = 2.122668 g / cm^3
# Si number density = 21.275106 Si / 1000 Ang^3
#
#
#
# Elastic Constant Matrix: (Units=GPa)
#
#
# Indices 1 2 3 4 5 6 
#
# 1 68.6222 33.8780 18.7924 0.0000 0.0000 0.0000
# 2 33.8780 108.7093 13.9275 0.0000 0.0000 0.0000
# 3 18.7924 13.9275 39.0876 0.0000 0.0000 0.0000
# 4 0.0000 0.0000 0.0000 30.6098 0.0000 0.0000
# 5 0.0000 0.0000 0.0000 0.0000 -3.1379 0.0000
# 6 0.0000 0.0000 0.0000 0.0000 0.0000 32.9334
#
#
#
# Elastic Compliance Matrix: (Units=1/GPa)
#
#
# Indices 1 2 3 4 5 6 
#
# 1 0.019060 -0.004994 -0.007384 0.000000 0.000000 0.000000
# 2 -0.004994 0.010947 -0.001500 0.000000 0.000000 0.000000
# 3 -0.007384 -0.001500 0.029668 0.000000 0.000000 0.000000
# 4 0.000000 0.000000 0.000000 0.032669 0.000000 0.000000
# 5 0.000000 0.000000 0.000000 0.000000 -0.318681 0.000000
# 6 0.000000 0.000000 0.000000 0.000000 0.000000 0.030364
#
#
# Mechanical properties :
#
#
# Convention : Reuss Voigt Hill
#
# Bulk Modulus (GPa) = 31.32854 38.84611 35.08732
# Shear Modulus (GPa) = -31.73077 22.06913 -4.83082
#
# Velocity S-wave (km/s) = -3.86612 3.22424 -1.50850
# Velocity P-wave (km/s) = 2.27415 5.67094 3.67340
#
# Compressibility (1/GPa) = 0.03191978
#
# Stress axis : x y z
#
# Youngs Moduli (GPa) = 52.46545 91.34704 33.70621
#
# Poissons Ratio (x) = 0.45617 0.24890
# Poissons Ratio (y) = 0.26200 0.05055
# Poissons Ratio (z) = 0.38742 0.13700
#
# Static dielectric constant tensor:
#      x y z
#    x 1.740610 0.000000 0.000000 
#    y 0.000000 1.792650 0.000000 
#    z 0.000000 0.000000 1.789210 
# 
# From -- ./inp_files/10087.got.cif
#   From: 2010.05.17/outbox.cif.g08.bks.cpg/sg41_6_cif.got.tgz:10087.got - 2010.06.03 18:54:24.
