data_PCOD9366738
_publ_section_title
;
Structure prediction by ZEFSAII (Michael W. Deem and Ramdas Pophale) SiO2 
 PCOD9366738
Probable space group: A B A 2
;
_chemical_formula_sum "Si O2"
_cell_formula_units_Z 44
_cell_length_a 5.207620
_cell_length_b 26.897633
_cell_length_c 14.214165
_cell_angle_alpha 90.000000
_cell_angle_beta 90.000000
_cell_angle_gamma 90.000000
_cell_volume 1991.015781
_symmetry_space_group_name_H-M "A B A 2"
_symmetry_group_IT_number 41
_symmetry_cell_setting 'orthorhombic'
loop_
_space_group_symop_operation_xyz
x,y,z
-x,-y,z
1/2-x,y,1/2+z
1/2+x,-y,1/2+z
x,1/2+y,1/2+z
-x,1/2-y,1/2+z
1/2-x,1/2+y,z
1/2+x,1/2-y,z
loop_
_atom_site_type_symbol
_atom_site_label
_atom_site_fract_x
_atom_site_fract_y
_atom_site_fract_z
Si Si1 0.500000 0.000000 0.134521
Si Si2 0.767042 0.530640 0.950715
Si Si3 0.176444 0.219210 0.577565
Si Si4 0.259440 0.630667 0.214498
Si Si5 0.256325 0.431140 0.756294
Si Si6 0.832307 0.280390 0.852910
O O1 0.282365 0.986286 0.211696
O O2 0.398340 0.960494 0.052796
O O3 0.500000 0.500000 0.963922
O O4 0.724914 0.571126 0.870294
O O5 0.000000 0.500000 0.903342
O O6 0.401292 0.257924 0.604587
O O7 0.234863 0.166999 0.625727
O O8 0.179008 0.213711 0.465141
O O9 0.512039 0.597363 0.217141
O O10 0.275312 0.668289 0.302073
O O11 0.014407 0.595768 0.221501
O O12 0.610286 0.241121 0.826545
#
# Coordination Sequence:
#
# PCOD9366738 Si02
#       6
#     4   8   8   8   8   8
#     4  10  28  44  74  88 130 182 222 264 354 388
#     4  10  23  44  71  90 121 175 223 265 326 410
#     4  10  21  40  65  90 130 174 217 255 318 400
#     4  12  25  38  64 100 132 163 212 285 326 381
#     4  12  26  42  67  97 134 165 224 280 332 400
#     4  10  21  40  65  88 127 176 212 254 321 392
#
# _framework density 22.099274000000001
#
# number of rings (size 3 to 8) (size 9 to 14) (size 15 to 20)
#    0.545    0.727    0.909    4.364    2.545    2.909 
#    0.000    0.000    0.000    0.000    0.000    0.000 
#    0.000    0.000    0.000    0.000    0.000    0.000 
#
# Total GULP energy -122539.862951 kJ/mol
# GULP energy per Si atom -5569.993770 kJ/mol
# Density = 2.204897 g / cm^3
# Si number density = 22.099274 Si / 1000 Ang^3
#
#
#
# Elastic Constant Matrix: (Units=GPa)
#
#
# Indices 1 2 3 4 5 6 
#
# 1 151.6789 43.5496 15.8685 0.0000 0.0000 0.0000
# 2 43.5496 66.6396 16.4764 0.0000 0.0000 0.0000
# 3 15.8685 16.4764 94.4289 0.0000 0.0000 0.0000
# 4 0.0000 0.0000 0.0000 -394.6465 0.0000 0.0000
# 5 0.0000 0.0000 0.0000 0.0000 47.0258 0.0000
# 6 0.0000 0.0000 0.0000 0.0000 0.0000 42.7185
#
#
#
# Elastic Compliance Matrix: (Units=1/GPa)
#
#
# Indices 1 2 3 4 5 6 
#
# 1 0.008135 -0.005203 -0.000459 0.000000 0.000000 0.000000
# 2 -0.005203 0.019010 -0.002443 0.000000 0.000000 0.000000
# 3 -0.000459 -0.002443 0.011093 0.000000 0.000000 0.000000
# 4 0.000000 0.000000 0.000000 -0.002534 0.000000 0.000000
# 5 0.000000 0.000000 0.000000 0.000000 0.021265 0.000000
# 6 0.000000 0.000000 0.000000 0.000000 0.000000 0.023409
#
#
# Mechanical properties :
#
#
# Convention : Reuss Voigt Hill
#
# Bulk Modulus (GPa) = 45.39458 51.61515 48.50487
# Shear Modulus (GPa) = 48.10936 -45.19023 1.45956
#
# Velocity S-wave (km/s) = 4.67086 -4.52693 0.81357
# Velocity P-wave (km/s) = 7.04805 1.97925 4.78318
#
# Compressibility (1/GPa) = 0.02202906
#
# Stress axis : x y z
#
# Youngs Moduli (GPa) = 122.93093 52.60410 90.14394
#
# Poissons Ratio (x) = 0.27367 0.04140
# Poissons Ratio (y) = 0.63955 0.22019
# Poissons Ratio (z) = 0.05645 0.12850
#
# Static dielectric constant tensor:
#      x y z
#    x 1.706650 0.000000 0.000000 
#    y 0.000000 2.412310 0.000000 
#    z 0.000000 0.000000 1.817410 
# 
# From -- ./inp_files/6855.got.cif
#   From: 2010.05.17/outbox.cif.g08.bks.cpg/sg41_4_cif.got.tgz:6855.got - 2010.06.03 18:54:24.
