data_PCOD9366683
_publ_section_title
;
Structure prediction by ZEFSAII (Michael W. Deem and Ramdas Pophale) SiO2 
 PCOD9366683
Probable space group: A B A 2
;
_chemical_formula_sum "Si O2"
_cell_formula_units_Z 64
_cell_length_a 8.379230
_cell_length_b 14.185787
_cell_length_c 23.317325
_cell_angle_alpha 90.000000
_cell_angle_beta 90.000000
_cell_angle_gamma 90.000000
_cell_volume 2771.636501
_symmetry_space_group_name_H-M "A B A 2"
_symmetry_group_IT_number 41
_symmetry_cell_setting 'orthorhombic'
loop_
_space_group_symop_operation_xyz
x,y,z
-x,-y,z
1/2-x,y,1/2+z
1/2+x,-y,1/2+z
x,1/2+y,1/2+z
-x,1/2-y,1/2+z
1/2-x,1/2+y,z
1/2+x,1/2-y,z
loop_
_atom_site_type_symbol
_atom_site_label
_atom_site_fract_x
_atom_site_fract_y
_atom_site_fract_z
Si Si1 0.979393 0.226694 0.926160
Si Si2 0.665056 0.538860 0.674832
Si Si3 0.175045 0.126456 0.229338
Si Si4 0.685034 0.537736 0.930398
Si Si5 0.279073 0.628623 0.363757
Si Si6 0.492305 0.669269 0.053178
Si Si7 0.758549 0.493500 0.550426
Si Si8 0.871410 0.717598 0.672656
O O1 0.836132 0.148683 0.922593
O O2 0.923547 0.323444 0.898348
O O3 0.123550 0.180751 0.890337
O O4 0.013684 0.228030 0.994446
O O5 0.500000 0.500000 0.700630
O O6 0.803359 0.479369 0.706494
O O7 0.663363 0.514030 0.607464
O O8 0.718637 0.647319 0.676418
O O9 0.201273 0.140077 0.296478
O O10 0.311866 0.183867 0.195765
O O11 0.007621 0.170326 0.210946
O O12 0.500000 0.500000 0.940472
O O13 0.752969 0.481303 0.876985
O O14 0.791348 0.504303 0.984476
O O15 0.612947 0.579990 0.050087
O O16 0.327814 0.611832 0.058691
O O17 0.552886 0.723153 0.109004
#
# Coordination Sequence:
#
# PCOD9366683 Si02
#       8
#     8   8   8   8   8   8   8   8
#     4  10  21  39  63  91 121 159 213 262 316 378
#     4  11  24  41  66  96 125 166 216 269 330 394
#     4  12  25  41  62  90 131 173 217 264 320 389
#     4   9  17  36  65  87 116 168 210 246 322 388
#     4  11  23  39  60  90 121 167 211 263 308 376
#     4   9  16  34  66  91 117 161 204 253 326 380
#     4   9  14  34  63  90 118 156 204 255 318 378
#     4  11  24  42  65  95 128 169 211 267 326 389
#
# _framework density 23.091051
#
# number of rings (size 3 to 8) (size 9 to 14) (size 15 to 20)
#    0.000    1.750    5.000    1.875    0.000    4.500 
#    0.000    6.875    0.000    0.000    0.000    0.000 
#    0.000    0.000    0.000    0.000    0.000    0.000 
#
# Total GULP energy -178736.941645 kJ/mol
# GULP energy per Si atom -5585.529426 kJ/mol
# Density = 2.303849 g / cm^3
# Si number density = 23.091051 Si / 1000 Ang^3
#
#
#
# Elastic Constant Matrix: (Units=GPa)
#
#
# Indices 1 2 3 4 5 6 
#
# 1 50.3384 -0.7321 17.7540 0.0000 0.0000 0.0000
# 2 -0.7321 64.1005 22.9422 0.0000 0.0000 0.0000
# 3 17.7540 22.9422 154.7494 0.0000 0.0000 0.0000
# 4 0.0000 0.0000 0.0000 103.1365 0.0000 0.0000
# 5 0.0000 0.0000 0.0000 0.0000 25.3053 0.0000
# 6 0.0000 0.0000 0.0000 0.0000 0.0000 19.6205
#
#
#
# Elastic Compliance Matrix: (Units=1/GPa)
#
#
# Indices 1 2 3 4 5 6 
#
# 1 0.020784 0.001152 -0.002555 0.000000 0.000000 0.000000
# 2 0.001152 0.016539 -0.002584 0.000000 0.000000 0.000000
# 3 -0.002555 -0.002584 0.007138 0.000000 0.000000 0.000000
# 4 0.000000 0.000000 0.000000 0.009696 0.000000 0.000000
# 5 0.000000 0.000000 0.000000 0.000000 0.039517 0.000000
# 6 0.000000 0.000000 0.000000 0.000000 0.000000 0.050967
#
#
# Mechanical properties :
#
#
# Convention : Reuss Voigt Hill
#
# Bulk Modulus (GPa) = 27.40805 38.79070 33.09938
# Shear Modulus (GPa) = 30.34397 44.89406 37.61902
#
# Velocity S-wave (km/s) = 3.62899 4.41411 4.04066
# Velocity P-wave (km/s) = 5.42722 6.54329 6.01121
#
# Compressibility (1/GPa) = 0.03648563
#
# Stress axis : x y z
#
# Youngs Moduli (GPa) = 48.11505 60.46495 140.08916
#
# Poissons Ratio (x) = -0.06965 0.35796
# Poissons Ratio (y) = -0.05542 0.36200
# Poissons Ratio (z) = 0.12294 0.15624
#
# Static dielectric constant tensor:
#      x y z
#    x 1.947020 0.000000 0.000000 
#    y 0.000000 1.814280 0.000000 
#    z 0.000000 0.000000 1.832330 
# 
# From -- ./inp_files/12041.got.cif
#   From: 2010.05.17/outbox.cif.g08.bks.cpg/sg41_7_cif.got.tgz:12041.got - 2010.06.03 18:54:24.
