data_PCOD9366657
_publ_section_title
;
Structure prediction by ZEFSAII (Michael W. Deem and Ramdas Pophale) SiO2 
 PCOD9366657
Probable space group: A B A 2
;
_chemical_formula_sum "Si O2"
_cell_formula_units_Z 48
_cell_length_a 8.251795
_cell_length_b 14.610147
_cell_length_c 16.747392
_cell_angle_alpha 90.000000
_cell_angle_beta 90.000000
_cell_angle_gamma 90.000000
_cell_volume 2019.064541
_symmetry_space_group_name_H-M "A B A 2"
_symmetry_group_IT_number 41
_symmetry_cell_setting 'orthorhombic'
loop_
_space_group_symop_operation_xyz
x,y,z
-x,-y,z
1/2-x,y,1/2+z
1/2+x,-y,1/2+z
x,1/2+y,1/2+z
-x,1/2-y,1/2+z
1/2-x,1/2+y,z
1/2+x,1/2-y,z
loop_
_atom_site_type_symbol
_atom_site_label
_atom_site_fract_x
_atom_site_fract_y
_atom_site_fract_z
Si Si1 0.359139 0.208259 0.547620
Si Si2 0.499937 0.778841 0.373174
Si Si3 0.334798 0.059665 0.286399
Si Si4 0.673304 0.452199 0.598403
Si Si5 0.318388 0.380257 0.313303
Si Si6 0.334223 0.368506 0.124542
O O1 0.452452 0.218823 0.465288
O O2 0.214610 0.134102 0.544202
O O3 0.288471 0.301895 0.579784
O O4 0.486931 0.168020 0.610531
O O5 0.628421 0.845249 0.328615
O O6 0.523324 0.676417 0.339164
O O7 0.327235 0.826637 0.357977
O O8 0.315973 0.076520 0.191762
O O9 0.500000 0.000000 0.294010
O O10 0.201241 0.989943 0.322754
O O11 0.500000 0.500000 0.585168
O O12 0.806902 0.531155 0.589103
O O13 0.294938 0.369210 0.218129
#
# Coordination Sequence:
#
# PCOD9366657 Si02
#       6
#     8   8   8   8   8   8
#     4  12  24  38  61  93 127 161 204 259 315 366
#     4  11  22  38  60  88 120 156 195 250 309 359
#     4   8  18  37  60  82 111 153 195 238 294 360
#     4  10  21  40  64  90 121 160 206 252 303 368
#     4  10  21  39  61  83 115 160 204 244 296 364
#     4  11  23  40  62  88 121 164 208 253 304 373
#
# _framework density 23.773385999999999
#
# number of rings (size 3 to 8) (size 9 to 14) (size 15 to 20)
#    0.000    1.667    0.000    5.500    0.000    5.333 
#    0.000    2.500    0.000    0.000    0.000    0.000 
#    0.000    0.000    0.000    0.000    0.000    0.000 
#
# Total GULP energy -134373.254686 kJ/mol
# GULP energy per Si atom -5598.885612 kJ/mol
# Density = 2.371928 g / cm^3
# Si number density = 23.773386 Si / 1000 Ang^3
#
#
#
# Elastic Constant Matrix: (Units=GPa)
#
#
# Indices 1 2 3 4 5 6 
#
# 1 70.7473 8.6965 9.0739 0.0000 0.0000 0.0000
# 2 8.6965 101.2601 27.5351 0.0000 0.0000 0.0000
# 3 9.0739 27.5351 51.7163 0.0000 0.0000 0.0000
# 4 0.0000 0.0000 0.0000 40.9511 0.0000 0.0000
# 5 0.0000 0.0000 0.0000 0.0000 19.9438 0.0000
# 6 0.0000 0.0000 0.0000 0.0000 0.0000 52.7244
#
#
#
# Elastic Compliance Matrix: (Units=1/GPa)
#
#
# Indices 1 2 3 4 5 6 
#
# 1 0.014496 -0.000647 -0.002199 0.000000 0.000000 0.000000
# 2 -0.000647 0.011576 -0.006050 0.000000 0.000000 0.000000
# 3 -0.002199 -0.006050 0.022943 0.000000 0.000000 0.000000
# 4 0.000000 0.000000 0.000000 0.024419 0.000000 0.000000
# 5 0.000000 0.000000 0.000000 0.000000 0.050141 0.000000
# 6 0.000000 0.000000 0.000000 0.000000 0.000000 0.018967
#
#
# Mechanical properties :
#
#
# Convention : Reuss Voigt Hill
#
# Bulk Modulus (GPa) = 32.02673 34.92609 33.47641
# Shear Modulus (GPa) = 29.28382 34.61839 31.95110
#
# Velocity S-wave (km/s) = 3.51349 3.82014 3.67002
# Velocity P-wave (km/s) = 5.47361 5.84646 5.66310
#
# Compressibility (1/GPa) = 0.03122392
#
# Stress axis : x y z
#
# Youngs Moduli (GPa) = 68.98268 86.38364 43.58578
#
# Poissons Ratio (x) = 0.05589 0.09584
# Poissons Ratio (y) = 0.04463 0.26369
# Poissons Ratio (z) = 0.15169 0.52262
#
# Static dielectric constant tensor:
#      x y z
#    x 1.974860 0.000000 0.000000 
#    y 0.000000 1.857700 0.000000 
#    z 0.000000 0.000000 1.840210 
# 
# From -- ./inp_files/7309.got.cif
#   From: 2010.05.17/outbox.cif.g08.bks.cpg/sg41_4_cif.got.tgz:7309.got - 2010.06.03 18:54:24.
