data_PCOD9366741
_publ_section_title
;
Structure prediction by ZEFSAII (Michael W. Deem and Ramdas Pophale) SiO2 
 PCOD9366741
Probable space group: A B A 2
;
_chemical_formula_sum "Si O2"
_cell_formula_units_Z 48
_cell_length_a 14.800363
_cell_length_b 8.111605
_cell_length_c 16.104922
_cell_angle_alpha 90.000000
_cell_angle_beta 90.000000
_cell_angle_gamma 90.000000
_cell_volume 1933.471555
_symmetry_space_group_name_H-M "A B A 2"
_symmetry_group_IT_number 41
_symmetry_cell_setting 'orthorhombic'
loop_
_space_group_symop_operation_xyz
x,y,z
-x,-y,z
1/2-x,y,1/2+z
1/2+x,-y,1/2+z
x,1/2+y,1/2+z
-x,1/2-y,1/2+z
1/2-x,1/2+y,z
1/2+x,1/2-y,z
loop_
_atom_site_type_symbol
_atom_site_label
_atom_site_fract_x
_atom_site_fract_y
_atom_site_fract_z
Si Si1 0.293546 0.147632 0.144220
Si Si2 0.772546 0.983134 0.971069
Si Si3 0.553274 0.822389 0.394148
Si Si4 0.870899 0.668759 0.219098
Si Si5 0.871449 0.793316 0.407607
Si Si6 0.549186 0.178294 0.712327
O O1 0.198087 0.212647 0.173586
O O2 0.365361 0.297541 0.152562
O O3 0.334540 0.013291 0.206862
O O4 0.274482 0.055696 0.058282
O O5 0.856846 0.865041 0.945455
O O6 0.688608 0.956414 0.908472
O O7 0.814701 0.163076 0.961949
O O8 0.475438 0.708877 0.435736
O O9 0.574042 0.734036 0.306368
O O10 0.500000 0.000000 0.382468
O O11 0.872483 0.723872 0.314448
O O12 0.970733 0.695958 0.184706
O O13 0.500000 0.000000 0.713134
#
# Coordination Sequence:
#
# PCOD9366741 Si02
#       6
#     8   8   8   8   8   8
#     4  12  24  41  64  99 139 174 216 277 345 403
#     4  11  23  39  62  93 131 169 212 271 338 400
#     4   9  20  41  66  93 129 175 224 277 332 397
#     4  11  23  42  68  96 132 178 226 278 330 400
#     4  10  21  40  65  91 124 173 223 268 324 394
#     4  11  23  41  69 102 133 179 235 283 333 400
#
# _framework density 24.825810000000001
#
# number of rings (size 3 to 8) (size 9 to 14) (size 15 to 20)
#    0.000    1.333    0.000    7.500    0.000    5.333 
#    0.000    5.000    0.000    0.000    0.000    0.000 
#    0.000    0.000    0.000    0.000    0.000    0.000 
#
# Total GULP energy -134296.363358 kJ/mol
# GULP energy per Si atom -5595.681807 kJ/mol
# Density = 2.476931 g / cm^3
# Si number density = 24.825810 Si / 1000 Ang^3
#
#
#
# Elastic Constant Matrix: (Units=GPa)
#
#
# Indices 1 2 3 4 5 6 
#
# 1 124.7050 2.1046 29.6713 0.0000 0.0000 0.0000
# 2 2.1046 66.1985 8.3838 0.0000 0.0000 0.0000
# 3 29.6713 8.3838 69.1820 0.0000 0.0000 0.0000
# 4 0.0000 0.0000 0.0000 25.6334 0.0000 0.0000
# 5 0.0000 0.0000 0.0000 0.0000 27.3841 0.0000
# 6 0.0000 0.0000 0.0000 0.0000 0.0000 41.4503
#
#
#
# Elastic Compliance Matrix: (Units=1/GPa)
#
#
# Indices 1 2 3 4 5 6 
#
# 1 0.008933 0.000204 -0.003856 0.000000 0.000000 0.000000
# 2 0.000204 0.015346 -0.001947 0.000000 0.000000 0.000000
# 3 -0.003856 -0.001947 0.016344 0.000000 0.000000 0.000000
# 4 0.000000 0.000000 0.000000 0.039012 0.000000 0.000000
# 5 0.000000 0.000000 0.000000 0.000000 0.036518 0.000000
# 6 0.000000 0.000000 0.000000 0.000000 0.000000 0.024125
#
#
# Mechanical properties :
#
#
# Convention : Reuss Voigt Hill
#
# Bulk Modulus (GPa) = 33.98409 37.82277 35.90343
# Shear Modulus (GPa) = 31.00111 33.55528 32.27819
#
# Velocity S-wave (km/s) = 3.53759 3.68044 3.60972
# Velocity P-wave (km/s) = 5.51406 5.77314 5.64509
#
# Compressibility (1/GPa) = 0.02942554
#
# Stress axis : x y z
#
# Youngs Moduli (GPa) = 111.94523 65.16271 61.18301
#
# Poissons Ratio (x) = -0.01332 0.23592
# Poissons Ratio (y) = -0.02288 0.11915
# Poissons Ratio (z) = 0.43166 0.12689
#
# Static dielectric constant tensor:
#      x y z
#    x 1.930960 0.000000 0.000000 
#    y 0.000000 2.076970 0.000000 
#    z 0.000000 0.000000 1.966600 
# 
# From -- ./inp_files/10294.got.cif
#   From: 2010.05.17/outbox.cif.g08.bks.cpg/sg41_6_cif.got.tgz:10294.got - 2010.06.03 18:54:24.
