data_PCOD9366721
_publ_section_title
;
Structure prediction by ZEFSAII (Michael W. Deem and Ramdas Pophale) SiO2 
 PCOD9366721
Probable space group: A B A 2
;
_chemical_formula_sum "Si O2"
_cell_formula_units_Z 64
_cell_length_a 17.922000
_cell_length_b 16.888662
_cell_length_c 10.387728
_cell_angle_alpha 90.000000
_cell_angle_beta 90.000000
_cell_angle_gamma 90.000000
_cell_volume 3144.142972
_symmetry_space_group_name_H-M "A B A 2"
_symmetry_group_IT_number 41
_symmetry_cell_setting 'orthorhombic'
loop_
_space_group_symop_operation_xyz
x,y,z
-x,-y,z
1/2-x,y,1/2+z
1/2+x,-y,1/2+z
x,1/2+y,1/2+z
-x,1/2-y,1/2+z
1/2-x,1/2+y,z
1/2+x,1/2-y,z
loop_
_atom_site_type_symbol
_atom_site_label
_atom_site_fract_x
_atom_site_fract_y
_atom_site_fract_z
Si Si1 0.966720 0.117632 0.483920
Si Si2 0.152898 0.223611 0.771198
Si Si3 0.877062 0.382842 0.027303
Si Si4 0.805466 0.546207 0.992131
Si Si5 0.181172 0.168418 0.263041
Si Si6 0.808136 0.019091 0.202074
Si Si7 0.068298 0.705069 0.538177
Si Si8 0.058482 0.378599 0.691947
O O1 0.883897 0.089195 0.516751
O O2 0.969566 0.209067 0.525773
O O3 0.978102 0.107911 0.331078
O O4 0.040834 0.080035 0.540707
O O5 0.138003 0.166004 0.653147
O O6 0.242264 0.216484 0.788897
O O7 0.116783 0.306916 0.725285
O O8 0.109977 0.195072 0.900743
O O9 0.865583 0.333600 0.896008
O O10 0.819752 0.453493 0.011656
O O11 0.741905 0.561569 0.094693
O O12 0.787853 0.555648 0.841751
O O13 0.131427 0.204135 0.148630
O O14 0.197102 0.076267 0.220461
O O15 0.892594 0.043566 0.166548
O O16 0.002697 0.646182 0.586540
#
# Coordination Sequence:
#
# PCOD9366721 Si02
#       8
#     8   8   8   8   8   8   8   8
#     4  10  21  40  62  92 120 164 207 247 310 374
#     4  11  23  39  64  96 124 154 209 257 307 366
#     4  11  20  39  66  87 125 160 204 254 305 366
#     4  10  22  40  63  89 124 162 207 255 305 363
#     4  11  23  40  68  89 122 165 207 253 314 365
#     4  10  23  41  63  90 123 163 209 256 299 371
#     4  11  23  40  65  91 125 162 203 255 308 371
#     4  10  22  43  62  90 127 163 206 252 307 375
#
# _framework density 20.355308999999998
#
# number of rings (size 3 to 8) (size 9 to 14) (size 15 to 20)
#    0.000    1.500    3.750    1.125    3.500    0.500 
#    4.500    0.000    2.750    0.000    0.000    0.000 
#    0.000    0.000    0.000    0.000    0.000    0.000 
#
# Total GULP energy -178454.025202 kJ/mol
# GULP energy per Si atom -5576.688288 kJ/mol
# Density = 2.030898 g / cm^3
# Si number density = 20.355309 Si / 1000 Ang^3
#
#
#
# Elastic Constant Matrix: (Units=GPa)
#
#
# Indices 1 2 3 4 5 6 
#
# 1 99.2107 1.3183 40.6851 0.0000 0.0000 0.0000
# 2 1.3183 20.5332 14.3836 0.0000 0.0000 0.0000
# 3 40.6851 14.3836 111.0124 0.0000 0.0000 0.0000
# 4 0.0000 0.0000 0.0000 19.5089 0.0000 0.0000
# 5 0.0000 0.0000 0.0000 0.0000 21.9535 0.0000
# 6 0.0000 0.0000 0.0000 0.0000 0.0000 30.2139
#
#
#
# Elastic Compliance Matrix: (Units=1/GPa)
#
#
# Indices 1 2 3 4 5 6 
#
# 1 0.011981 0.002537 -0.004720 0.000000 0.000000 0.000000
# 2 0.002537 0.054100 -0.007939 0.000000 0.000000 0.000000
# 3 -0.004720 -0.007939 0.011766 0.000000 0.000000 0.000000
# 4 0.000000 0.000000 0.000000 0.051259 0.000000 0.000000
# 5 0.000000 0.000000 0.000000 0.000000 0.045551 0.000000
# 6 0.000000 0.000000 0.000000 0.000000 0.000000 0.033097
#
#
# Mechanical properties :
#
#
# Convention : Reuss Voigt Hill
#
# Bulk Modulus (GPa) = 17.36001 38.17003 27.76502
# Shear Modulus (GPa) = 20.22650 25.95990 23.09320
#
# Velocity S-wave (km/s) = 3.15568 3.57506 3.37190
# Velocity P-wave (km/s) = 4.67169 5.98615 5.36930
#
# Compressibility (1/GPa) = 0.05760364
#
# Stress axis : x y z
#
# Youngs Moduli (GPa) = 83.46292 18.48420 84.98743
#
# Poissons Ratio (x) = -0.04689 0.40112
# Poissons Ratio (y) = -0.21174 0.67475
# Poissons Ratio (z) = 0.39393 0.14675
#
# Static dielectric constant tensor:
#      x y z
#    x 1.756970 0.000000 0.000000 
#    y 0.000000 1.751100 0.000000 
#    z 0.000000 0.000000 1.713560 
# 
# From -- ./inp_files/3235.got.cif
#   From: 2010.05.17/outbox.cif.g08.bks.cpg/sg41_2_cif.got.tgz:3235.got - 2010.06.03 18:54:24.
