data_PCOD9366873
_publ_section_title
;
Structure prediction by ZEFSAII (Michael W. Deem and Ramdas Pophale) SiO2 
 PCOD9366873
Probable space group: A B A 2
;
_chemical_formula_sum "Si O2"
_cell_formula_units_Z 56
_cell_length_a 14.236243
_cell_length_b 11.792734
_cell_length_c 13.892297
_cell_angle_alpha 90.000000
_cell_angle_beta 90.000000
_cell_angle_gamma 90.000000
_cell_volume 2332.297541
_symmetry_space_group_name_H-M "A B A 2"
_symmetry_group_IT_number 41
_symmetry_cell_setting 'orthorhombic'
loop_
_space_group_symop_operation_xyz
x,y,z
-x,-y,z
1/2-x,y,1/2+z
1/2+x,-y,1/2+z
x,1/2+y,1/2+z
-x,1/2-y,1/2+z
1/2-x,1/2+y,z
1/2+x,1/2-y,z
loop_
_atom_site_type_symbol
_atom_site_label
_atom_site_fract_x
_atom_site_fract_y
_atom_site_fract_z
Si Si1 0.318029 0.855632 0.512520
Si Si2 0.523789 0.121500 0.662117
Si Si3 0.163333 0.728297 0.283456
Si Si4 0.872358 0.244444 0.726656
Si Si5 0.909234 0.358503 0.934663
Si Si6 0.105058 0.477097 0.327392
Si Si7 0.624902 0.119615 0.965910
O O1 0.401969 0.903216 0.578207
O O2 0.343047 0.723415 0.497128
O O3 0.209950 0.873832 0.542847
O O4 0.333868 0.919619 0.410873
O O5 0.580906 0.210241 0.726290
O O6 0.425927 0.186524 0.643684
O O7 0.500000 0.000000 0.708240
O O8 0.260912 0.747158 0.229623
O O9 0.147371 0.595696 0.295712
O O10 0.160787 0.791762 0.385642
O O11 0.904929 0.307317 0.826925
O O12 0.901777 0.114241 0.741477
O O13 0.877792 0.488424 0.932868
O O14 0.014639 0.352554 0.978341
O O15 0.000000 0.500000 0.364119
#
# Coordination Sequence:
#
# PCOD9366873 Si02
#       7
#     8   8   8   8   8   8   8
#     4  11  25  43  68 101 141 188 231 296 369 415
#     4  12  27  47  66 105 148 183 231 309 371 417
#     4  12  23  41  74 106 138 185 244 285 352 435
#     4  11  23  40  69 102 136 186 233 293 349 418
#     4  10  21  42  70 102 138 183 243 289 338 433
#     4  11  21  42  70 102 133 182 242 292 340 437
#     4  11  21  40  72 101 133 184 242 290 342 426
#
# _framework density 24.010660000000001
#
# number of rings (size 3 to 8) (size 9 to 14) (size 15 to 20)
#    0.000    0.857    5.714    3.000    2.000    1.143 
#    2.571    2.857    0.000    0.000    0.000    0.000 
#    0.000    0.000    0.000    0.000    0.000    0.000 
#
# Total GULP energy -156615.628657 kJ/mol
# GULP energy per Si atom -5593.415309 kJ/mol
# Density = 2.395601 g / cm^3
# Si number density = 24.010660 Si / 1000 Ang^3
#
#
#
# Elastic Constant Matrix: (Units=GPa)
#
#
# Indices 1 2 3 4 5 6 
#
# 1 153.6865 44.3915 6.9961 0.0000 0.0000 0.0000
# 2 44.3915 196.3982 21.9165 0.0000 0.0000 0.0000
# 3 6.9961 21.9165 36.2888 0.0000 0.0000 0.0000
# 4 0.0000 0.0000 0.0000 14.7250 0.0000 0.0000
# 5 0.0000 0.0000 0.0000 0.0000 9.7988 0.0000
# 6 0.0000 0.0000 0.0000 0.0000 0.0000 34.5114
#
#
#
# Elastic Compliance Matrix: (Units=1/GPa)
#
#
# Indices 1 2 3 4 5 6 
#
# 1 0.006967 -0.001528 -0.000420 0.000000 0.000000 0.000000
# 2 -0.001528 0.005795 -0.003205 0.000000 0.000000 0.000000
# 3 -0.000420 -0.003205 0.029573 0.000000 0.000000 0.000000
# 4 0.000000 0.000000 0.000000 0.067912 0.000000 0.000000
# 5 0.000000 0.000000 0.000000 0.000000 0.102053 0.000000
# 6 0.000000 0.000000 0.000000 0.000000 0.000000 0.028976
#
#
# Mechanical properties :
#
#
# Convention : Reuss Voigt Hill
#
# Bulk Modulus (GPa) = 31.22222 59.22020 45.22121
# Shear Modulus (GPa) = 19.06512 32.67833 25.87172
#
# Velocity S-wave (km/s) = 2.82091 3.69317 3.28611
# Velocity P-wave (km/s) = 4.86228 6.55009 5.76825
#
# Compressibility (1/GPa) = 0.03202847
#
# Stress axis : x y z
#
# Youngs Moduli (GPa) = 143.52946 172.57129 33.81409
#
# Poissons Ratio (x) = 0.26367 0.01422
# Poissons Ratio (y) = 0.21929 0.10838
# Poissons Ratio (z) = 0.06035 0.55311
#
# Static dielectric constant tensor:
#      x y z
#    x 1.958140 0.000000 0.000000 
#    y 0.000000 1.872570 0.000000 
#    z 0.000000 0.000000 2.040090 
# 
# From -- ./inp_files/8405.got.cif
#   From: 2010.05.17/outbox.cif.g08.bks.cpg/sg41_5_cif.got.tgz:8405.got - 2010.06.03 18:54:24.
