data_PCOD9366565
_publ_section_title
;
Structure prediction by ZEFSAII (Michael W. Deem and Ramdas Pophale) SiO2 
 PCOD9366565
Probable space group: A B A 2
;
_chemical_formula_sum "Si O2"
_cell_formula_units_Z 56
_cell_length_a 14.047501
_cell_length_b 5.283242
_cell_length_c 35.442006
_cell_angle_alpha 90.000000
_cell_angle_beta 90.000000
_cell_angle_gamma 90.000000
_cell_volume 2630.376226
_symmetry_space_group_name_H-M "A B A 2"
_symmetry_group_IT_number 41
_symmetry_cell_setting 'orthorhombic'
loop_
_space_group_symop_operation_xyz
x,y,z
-x,-y,z
1/2-x,y,1/2+z
1/2+x,-y,1/2+z
x,1/2+y,1/2+z
-x,1/2-y,1/2+z
1/2-x,1/2+y,z
1/2+x,1/2-y,z
loop_
_atom_site_type_symbol
_atom_site_label
_atom_site_fract_x
_atom_site_fract_y
_atom_site_fract_z
Si Si1 0.857198 0.860964 0.014110
Si Si2 0.813543 0.265780 0.197540
Si Si3 0.309485 0.319279 0.279393
Si Si4 0.565761 0.749821 0.436064
Si Si5 0.436592 0.251916 0.123012
Si Si6 0.642469 0.361437 0.545023
Si Si7 0.564539 0.749700 0.352637
O O1 0.902120 0.637004 0.038892
O O2 0.750008 0.895622 0.029725
O O3 0.901626 0.136841 0.020106
O O4 0.862792 0.773045 0.971015
O O5 0.765753 0.543191 0.195328
O O6 0.859563 0.232193 0.239078
O O7 0.883407 0.228486 0.162762
O O8 0.275122 0.610283 0.279488
O O9 0.367611 0.261756 0.316860
O O10 0.500000 0.500000 0.440142
O O11 0.611668 0.746045 0.394311
O O12 0.500000 0.000000 0.437297
O O13 0.500000 0.500000 0.116799
O O14 0.363570 0.221934 0.088215
O O15 0.500000 0.000000 0.123333
O O16 0.500000 0.500000 0.351257
O O17 0.500000 0.000000 0.350431
#
# Coordination Sequence:
#
# PCOD9366565 Si02
#       7
#     8   8   8   8   8   8   8
#     4  10  21  39  58  83 112 160 205 240 300 360
#     4  10  23  41  67  88 125 165 200 244 301 359
#     4  10  21  40  61  96 123 160 207 245 289 358
#     4  10  21  37  59  86 120 156 200 250 298 350
#     4  12  26  41  62  95 123 153 204 256 304 357
#     4  10  23  38  58  83 117 150 206 242 304 358
#     4  10  21  38  61  91 126 164 196 245 310 356
#
# _framework density 21.289728
#
# number of rings (size 3 to 8) (size 9 to 14) (size 15 to 20)
#    0.000    1.714    0.000    3.429    4.000    4.571 
#    5.143    0.000    0.000    0.000    0.000    0.000 
#    0.000    0.000    0.000    0.000    0.000    0.000 
#
# Total GULP energy -156390.649428 kJ/mol
# GULP energy per Si atom -5585.380337 kJ/mol
# Density = 2.124127 g / cm^3
# Si number density = 21.289728 Si / 1000 Ang^3
#
#
#
# Elastic Constant Matrix: (Units=GPa)
#
#
# Indices 1 2 3 4 5 6 
#
# 1 42.2227 4.3995 45.3965 0.0000 0.0000 0.0000
# 2 4.3995 145.5076 3.5809 0.0000 0.0000 0.0000
# 3 45.3965 3.5809 198.0118 0.0000 0.0000 0.0000
# 4 0.0000 0.0000 0.0000 31.4977 0.0000 0.0000
# 5 0.0000 0.0000 0.0000 0.0000 -14.6612 0.0000
# 6 0.0000 0.0000 0.0000 0.0000 0.0000 18.9605
#
#
#
# Elastic Compliance Matrix: (Units=1/GPa)
#
#
# Indices 1 2 3 4 5 6 
#
# 1 0.031519 -0.000775 -0.007212 0.000000 0.000000 0.000000
# 2 -0.000775 0.006895 0.000053 0.000000 0.000000 0.000000
# 3 -0.007212 0.000053 0.006703 0.000000 0.000000 0.000000
# 4 0.000000 0.000000 0.000000 0.031748 0.000000 0.000000
# 5 0.000000 0.000000 0.000000 0.000000 -0.068207 0.000000
# 6 0.000000 0.000000 0.000000 0.000000 0.000000 0.052741
#
#
# Mechanical properties :
#
#
# Convention : Reuss Voigt Hill
#
# Bulk Modulus (GPa) = 34.19110 54.72175 44.45642
# Shear Modulus (GPa) = 57.46035 29.31709 43.38872
#
# Velocity S-wave (km/s) = 5.20080 3.71489 4.51933
# Velocity P-wave (km/s) = 7.22213 6.64528 6.93970
#
# Compressibility (1/GPa) = 0.02924738
#
# Stress axis : x y z
#
# Youngs Moduli (GPa) = 31.72695 145.04030 149.19379
#
# Poissons Ratio (x) = 0.11248 1.07599
# Poissons Ratio (y) = 0.02460 -0.00792
# Poissons Ratio (z) = 0.22882 -0.00770
#
# Static dielectric constant tensor:
#      x y z
#    x 1.612690 0.000000 0.000000 
#    y 0.000000 1.818490 0.000000 
#    z 0.000000 0.000000 1.778650 
# 
# From -- ./inp_files/12737.got.cif
#   From: 2010.05.17/outbox.cif.g08.bks.cpg/sg41_7_cif.got.tgz:12737.got - 2010.06.03 18:54:24.
