data_PCOD9366308
_publ_section_title
;
Structure prediction by ZEFSAII (Michael W. Deem and Ramdas Pophale) SiO2 
 PCOD9366308
Probable space group: A B A 2
;
_chemical_formula_sum "Si O2"
_cell_formula_units_Z 48
_cell_length_a 15.172666
_cell_length_b 17.597003
_cell_length_c 8.143120
_cell_angle_alpha 90.000000
_cell_angle_beta 90.000000
_cell_angle_gamma 90.000000
_cell_volume 2174.159695
_symmetry_space_group_name_H-M "A B A 2"
_symmetry_group_IT_number 41
_symmetry_cell_setting 'orthorhombic'
loop_
_space_group_symop_operation_xyz
x,y,z
-x,-y,z
1/2-x,y,1/2+z
1/2+x,-y,1/2+z
x,1/2+y,1/2+z
-x,1/2-y,1/2+z
1/2-x,1/2+y,z
1/2+x,1/2-y,z
loop_
_atom_site_type_symbol
_atom_site_label
_atom_site_fract_x
_atom_site_fract_y
_atom_site_fract_z
Si Si1 0.652578 0.659477 0.563690
Si Si2 0.904117 0.456314 0.893547
Si Si3 0.399398 0.208926 0.756087
Si Si4 0.456979 0.826322 0.512921
Si Si5 0.179416 0.905049 0.226229
Si Si6 0.477552 0.585253 0.721881
O O1 0.662932 0.744301 0.633847
O O2 0.725880 0.607472 0.648872
O O3 0.662523 0.656533 0.369478
O O4 0.558910 0.623635 0.619598
O O5 0.889463 0.379066 0.794035
O O6 0.835834 0.516986 0.823144
O O7 0.000000 0.500000 0.872836
O O8 0.903134 0.429676 0.084093
O O9 0.493008 0.210953 0.663579
O O10 0.404426 0.261076 0.917156
O O11 0.391468 0.890062 0.582919
O O12 0.526225 0.863427 0.384447
O O13 0.500000 0.500000 0.778145
#
# Coordination Sequence:
#
# PCOD9366308 Si02
#       6
#     8   8   8   8   8   8
#     4  11  23  42  66  96 140 182 227 283 359 413
#     4  11  21  43  70 100 137 178 236 284 345 417
#     4  11  22  39  66 101 126 179 226 278 333 424
#     4  11  22  37  69  99 136 172 238 279 344 410
#     4  12  24  45  68  99 144 184 223 302 357 419
#     4  10  20  38  68 103 131 181 230 280 337 423
#
# _framework density 22.077494999999999
#
# number of rings (size 3 to 8) (size 9 to 14) (size 15 to 20)
#    0.000    1.000    5.000    5.000    2.333    0.000 
#    0.000    3.333    0.000    0.000    0.000    0.000 
#    0.000    0.000    0.000    0.000    0.000    0.000 
#
# Total GULP energy -133938.751721 kJ/mol
# GULP energy per Si atom -5580.781322 kJ/mol
# Density = 2.202725 g / cm^3
# Si number density = 22.077495 Si / 1000 Ang^3
#
#
#
# Elastic Constant Matrix: (Units=GPa)
#
#
# Indices 1 2 3 4 5 6 
#
# 1 26.2813 15.0860 20.8656 0.0000 0.0000 0.0000
# 2 15.0860 139.5354 43.9818 0.0000 0.0000 0.0000
# 3 20.8656 43.9818 92.9311 0.0000 0.0000 0.0000
# 4 0.0000 0.0000 0.0000 -21.4167 0.0000 0.0000
# 5 0.0000 0.0000 0.0000 0.0000 12.5621 0.0000
# 6 0.0000 0.0000 0.0000 0.0000 0.0000 19.5163
#
#
#
# Elastic Compliance Matrix: (Units=1/GPa)
#
#
# Indices 1 2 3 4 5 6 
#
# 1 0.046800 -0.002054 -0.009536 0.000000 0.000000 0.000000
# 2 -0.002054 0.008513 -0.003568 0.000000 0.000000 0.000000
# 3 -0.009536 -0.003568 0.014590 0.000000 0.000000 0.000000
# 4 0.000000 0.000000 0.000000 -0.046693 0.000000 0.000000
# 5 0.000000 0.000000 0.000000 0.000000 0.079605 0.000000
# 6 0.000000 0.000000 0.000000 0.000000 0.000000 0.051239
#
#
# Mechanical properties :
#
#
# Convention : Reuss Voigt Hill
#
# Bulk Modulus (GPa) = 25.26027 46.51273 35.88650
# Shear Modulus (GPa) = 25.30801 14.05330 19.68065
#
# Velocity S-wave (km/s) = 3.38942 2.52572 2.98893
# Velocity P-wave (km/s) = 5.17533 5.44237 5.31053
#
# Compressibility (1/GPa) = 0.03958786
#
# Stress axis : x y z
#
# Youngs Moduli (GPa) = 21.36769 117.46271 68.53889
#
# Poissons Ratio (x) = 0.24129 0.65356
# Poissons Ratio (y) = 0.04389 0.24454
# Poissons Ratio (z) = 0.20375 0.41910
#
# Static dielectric constant tensor:
#      x y z
#    x 1.827260 0.000000 0.000000 
#    y 0.000000 1.946690 0.000000 
#    z 0.000000 0.000000 1.845650 
# 
# From -- ./inp_files/2552.got.cif
#   From: 2010.05.17/outbox.cif.g08.bks.cpg/sg41_2_cif.got.tgz:2552.got - 2010.06.03 18:54:24.
