data_PCOD9366291
_publ_section_title
;
Structure prediction by ZEFSAII (Michael W. Deem and Ramdas Pophale) SiO2 
 PCOD9366291
Probable space group: A B A 2
;
_chemical_formula_sum "Si O2"
_cell_formula_units_Z 64
_cell_length_a 9.559932
_cell_length_b 20.527994
_cell_length_c 16.230364
_cell_angle_alpha 90.000000
_cell_angle_beta 90.000000
_cell_angle_gamma 90.000000
_cell_volume 3185.147694
_symmetry_space_group_name_H-M "A B A 2"
_symmetry_group_IT_number 41
_symmetry_cell_setting 'orthorhombic'
loop_
_space_group_symop_operation_xyz
x,y,z
-x,-y,z
1/2-x,y,1/2+z
1/2+x,-y,1/2+z
x,1/2+y,1/2+z
-x,1/2-y,1/2+z
1/2-x,1/2+y,z
1/2+x,1/2-y,z
loop_
_atom_site_type_symbol
_atom_site_label
_atom_site_fract_x
_atom_site_fract_y
_atom_site_fract_z
Si Si1 0.162946 0.984979 0.670320
Si Si2 0.913472 0.067018 0.084704
Si Si3 0.556799 0.703600 0.667254
Si Si4 0.723424 0.367476 0.669494
Si Si5 0.432561 0.322978 0.948482
Si Si6 0.505496 0.342068 0.237197
Si Si7 0.804121 0.270119 0.519779
Si Si8 0.771850 0.128483 0.790118
O O1 0.234811 0.055320 0.668332
O O2 0.248908 0.946485 0.600304
O O3 0.191890 0.942838 0.753307
O O4 0.000000 0.000000 0.657882
O O5 0.967726 0.106484 0.164860
O O6 0.931896 0.115933 0.009962
O O7 0.000000 0.000000 0.074895
O O8 0.438529 0.649799 0.678219
O O9 0.489378 0.768778 0.704780
O O10 0.606791 0.719686 0.575696
O O11 0.690562 0.678777 0.716869
O O12 0.826529 0.346289 0.743713
O O13 0.767847 0.327348 0.586637
O O14 0.369959 0.349090 0.863769
O O15 0.590800 0.296345 0.950159
O O16 0.329822 0.266773 0.983978
O O17 0.393550 0.360810 0.306761
#
# Coordination Sequence:
#
# PCOD9366291 Si02
#       8
#     8   8   8   8   8   8   8   8
#     4  11  22  39  65  93 123 165 225 269 310 379
#     4  11  20  40  66  90 123 171 218 263 316 390
#     4  11  20  39  66  94 120 159 222 269 318 371
#     4  11  19  37  70  95 115 162 228 274 308 367
#     4  12  25  42  62  98 140 174 206 268 347 397
#     4  10  20  38  63  93 117 160 218 263 314 376
#     4  11  22  42  67  96 126 170 222 268 321 389
#     4  11  26  38  60  95 133 173 201 267 332 396
#
# _framework density 20.093260999999998
#
# number of rings (size 3 to 8) (size 9 to 14) (size 15 to 20)
#    0.000    1.000    6.250    3.000    1.750    0.500 
#    0.000    0.000    2.750    0.000    0.000    0.000 
#    0.000    0.000    0.000    0.000    0.000    0.000 
#
# Total GULP energy -178450.080314 kJ/mol
# GULP energy per Si atom -5576.565010 kJ/mol
# Density = 2.004753 g / cm^3
# Si number density = 20.093261 Si / 1000 Ang^3
#
#
#
# Elastic Constant Matrix: (Units=GPa)
#
#
# Indices 1 2 3 4 5 6 
#
# 1 90.1230 23.5070 3.9662 0.0000 0.0000 0.0000
# 2 23.5070 118.8712 15.3666 0.0000 0.0000 0.0000
# 3 3.9662 15.3666 33.5602 0.0000 0.0000 0.0000
# 4 0.0000 0.0000 0.0000 18.8912 0.0000 0.0000
# 5 0.0000 0.0000 0.0000 0.0000 16.0670 0.0000
# 6 0.0000 0.0000 0.0000 0.0000 0.0000 37.1312
#
#
#
# Elastic Compliance Matrix: (Units=1/GPa)
#
#
# Indices 1 2 3 4 5 6 
#
# 1 0.011703 -0.002270 -0.000344 0.000000 0.000000 0.000000
# 2 -0.002270 0.009382 -0.004028 0.000000 0.000000 0.000000
# 3 -0.000344 -0.004028 0.031682 0.000000 0.000000 0.000000
# 4 0.000000 0.000000 0.000000 0.052935 0.000000 0.000000
# 5 0.000000 0.000000 0.000000 0.000000 0.062240 0.000000
# 6 0.000000 0.000000 0.000000 0.000000 0.000000 0.026932
#
#
# Mechanical properties :
#
#
# Convention : Reuss Voigt Hill
#
# Bulk Modulus (GPa) = 25.32629 36.47046 30.89838
# Shear Modulus (GPa) = 22.59204 27.73218 25.16211
#
# Velocity S-wave (km/s) = 3.35678 3.71910 3.54258
# Velocity P-wave (km/s) = 5.25887 6.05246 5.66957
#
# Compressibility (1/GPa) = 0.03948466
#
# Stress axis : x y z
#
# Youngs Moduli (GPa) = 85.44719 106.58722 31.56368
#
# Poissons Ratio (x) = 0.24194 0.01085
# Poissons Ratio (y) = 0.19396 0.12713
# Poissons Ratio (z) = 0.02937 0.42929
#
# Static dielectric constant tensor:
#      x y z
#    x 1.778550 0.000000 0.000000 
#    y 0.000000 1.726800 0.000000 
#    z 0.000000 0.000000 1.692790 
# 
# From -- ./inp_files/9845.got.cif
#   From: 2010.05.17/outbox.cif.g08.bks.cpg/sg41_5_cif.got.tgz:9845.got - 2010.06.03 18:54:24.
