data_PCOD9366004
_publ_section_title
;
Structure prediction by ZEFSAII (Michael W. Deem and Ramdas Pophale) SiO2 
 PCOD9366004
Probable space group: A B A 2
;
_chemical_formula_sum "Si O2"
_cell_formula_units_Z 60
_cell_length_a 11.094959
_cell_length_b 17.741904
_cell_length_c 14.800193
_cell_angle_alpha 90.000000
_cell_angle_beta 90.000000
_cell_angle_gamma 90.000000
_cell_volume 2913.354314
_symmetry_space_group_name_H-M "A B A 2"
_symmetry_group_IT_number 41
_symmetry_cell_setting 'orthorhombic'
loop_
_space_group_symop_operation_xyz
x,y,z
-x,-y,z
1/2-x,y,1/2+z
1/2+x,-y,1/2+z
x,1/2+y,1/2+z
-x,1/2-y,1/2+z
1/2-x,1/2+y,z
1/2+x,1/2-y,z
loop_
_atom_site_type_symbol
_atom_site_label
_atom_site_fract_x
_atom_site_fract_y
_atom_site_fract_z
Si Si1 0.000000 0.000000 0.019710
Si Si2 0.688937 0.436371 0.149815
Si Si3 0.106576 0.850328 0.960295
Si Si4 0.084092 0.069056 0.535376
Si Si5 0.461265 0.214225 0.622419
Si Si6 0.611195 0.440925 0.338973
Si Si7 0.511850 0.269347 0.324433
Si Si8 0.131315 0.319952 0.984551
O O1 0.024261 0.925019 0.961478
O O2 0.883576 0.994547 0.086088
O O3 0.601383 0.364821 0.143536
O O4 0.695170 0.459806 0.254362
O O5 0.817476 0.415399 0.109954
O O6 0.247699 0.866643 0.971804
O O7 0.063734 0.802409 0.048145
O O8 0.086589 0.796464 0.873927
O O9 0.154176 0.050768 0.441707
O O10 0.987399 0.132659 0.510093
O O11 0.000000 0.000000 0.562947
O O12 0.505513 0.246499 0.718247
O O13 0.362547 0.263252 0.568673
O O14 0.500000 0.500000 0.331442
O O15 0.572046 0.352947 0.330196
O O16 0.395736 0.277656 0.389898
#
# Coordination Sequence:
#
# PCOD9366004 Si02
#       8
#     4   8   8   8   8   8   8   8
#     4  10  20  38  64  92 124 164 216 264 312 374
#     4  10  19  36  64  89 122 163 213 257 312 378
#     4  10  21  38  63  95 127 168 214 261 319 380
#     4  10  21  37  60  89 123 164 202 257 320 378
#     4   9  21  36  60  92 120 164 208 262 314 378
#     4   9  18  36  63  92 119 163 216 256 312 386
#     4   9  20  39  59  93 121 162 218 256 318 378
#     4  10  21  37  61  88 125 164 207 259 321 380
#
# _framework density 20.594818
#
# number of rings (size 3 to 8) (size 9 to 14) (size 15 to 20)
#    0.000    2.400    0.667    0.800    5.600    1.067 
#    2.400    0.000   11.733    0.000    0.000    0.000 
#    0.000    0.000    0.000    0.000    0.000    0.000 
#
# Total GULP energy -167131.630079 kJ/mol
# GULP energy per Si atom -5571.054336 kJ/mol
# Density = 2.054794 g / cm^3
# Si number density = 20.594818 Si / 1000 Ang^3
#
#
#
# Elastic Constant Matrix: (Units=GPa)
#
#
# Indices 1 2 3 4 5 6 
#
# 1 56.7598 2.5917 27.8377 0.0000 0.0000 0.0000
# 2 2.5917 72.1579 22.5594 0.0000 0.0000 0.0000
# 3 27.8377 22.5594 131.0867 0.0000 0.0000 0.0000
# 4 0.0000 0.0000 0.0000 96.3718 0.0000 0.0000
# 5 0.0000 0.0000 0.0000 0.0000 10.1760 0.0000
# 6 0.0000 0.0000 0.0000 0.0000 0.0000 20.3000
#
#
#
# Elastic Compliance Matrix: (Units=1/GPa)
#
#
# Indices 1 2 3 4 5 6 
#
# 1 0.019694 0.000634 -0.004291 0.000000 0.000000 0.000000
# 2 0.000634 0.014667 -0.002659 0.000000 0.000000 0.000000
# 3 -0.004291 -0.002659 0.008997 0.000000 0.000000 0.000000
# 4 0.000000 0.000000 0.000000 0.010376 0.000000 0.000000
# 5 0.000000 0.000000 0.000000 0.000000 0.098271 0.000000
# 6 0.000000 0.000000 0.000000 0.000000 0.000000 0.049261
#
#
# Mechanical properties :
#
#
# Convention : Reuss Voigt Hill
#
# Bulk Modulus (GPa) = 32.54523 40.66467 36.60495
# Shear Modulus (GPa) = 22.30745 39.17060 30.73902
#
# Velocity S-wave (km/s) = 3.29471 4.36588 3.86756
# Velocity P-wave (km/s) = 5.50549 6.72328 6.14463
#
# Compressibility (1/GPa) = 0.03072647
#
# Stress axis : x y z
#
# Youngs Moduli (GPa) = 50.77734 68.18044 111.14293
#
# Poissons Ratio (x) = -0.04325 0.47695
# Poissons Ratio (y) = -0.03221 0.29551
# Poissons Ratio (z) = 0.21790 0.18128
#
# Static dielectric constant tensor:
#      x y z
#    x 1.725320 0.000000 0.000000 
#    y 0.000000 0.499150 0.000000 
#    z 0.000000 0.000000 1.773140 
# 
# From -- ./inp_files/8143.got.cif
#   From: 2010.05.17/outbox.cif.g08.bks.cpg/sg41_5_cif.got.tgz:8143.got - 2010.06.03 18:54:24.
