data_PCOD9366389
_publ_section_title
;
Structure prediction by ZEFSAII (Michael W. Deem and Ramdas Pophale) SiO2 
 PCOD9366389
Probable space group: A B A 2
;
_chemical_formula_sum "Si O2"
_cell_formula_units_Z 64
_cell_length_a 13.178741
_cell_length_b 14.377400
_cell_length_c 14.535747
_cell_angle_alpha 90.000000
_cell_angle_beta 90.000000
_cell_angle_gamma 90.000000
_cell_volume 2754.175647
_symmetry_space_group_name_H-M "A B A 2"
_symmetry_group_IT_number 41
_symmetry_cell_setting 'orthorhombic'
loop_
_space_group_symop_operation_xyz
x,y,z
-x,-y,z
1/2-x,y,1/2+z
1/2+x,-y,1/2+z
x,1/2+y,1/2+z
-x,1/2-y,1/2+z
1/2-x,1/2+y,z
1/2+x,1/2-y,z
loop_
_atom_site_type_symbol
_atom_site_label
_atom_site_fract_x
_atom_site_fract_y
_atom_site_fract_z
Si Si1 0.577841 0.627791 0.879570
Si Si2 0.223787 0.790865 0.155672
Si Si3 0.892445 0.550757 0.853413
Si Si4 0.586572 0.556230 0.070166
Si Si5 0.694837 0.031794 0.240087
Si Si6 0.111419 0.228533 0.814843
Si Si7 0.807126 0.473009 0.037221
Si Si8 0.269183 0.219707 0.964194
O O1 0.536096 0.594968 0.977640
O O2 0.495784 0.679971 0.818721
O O3 0.665330 0.701373 0.912037
O O4 0.619483 0.538200 0.825337
O O5 0.130210 0.856507 0.124985
O O6 0.296207 0.858973 0.211378
O O7 0.176788 0.714955 0.222603
O O8 0.271774 0.757998 0.061124
O O9 0.805294 0.508818 0.784690
O O10 0.899997 0.660427 0.831003
O O11 0.000000 0.500000 0.844793
O O12 0.853987 0.540195 0.959366
O O13 0.500000 0.500000 0.122066
O O14 0.686617 0.496639 0.044445
O O15 0.662131 0.985170 0.144308
O O16 0.180012 0.191086 0.897250
O O17 0.829898 0.371343 0.996366
#
# Coordination Sequence:
#
# PCOD9366389 Si02
#       8
#     8   8   8   8   8   8   8   8
#     4  11  21  43  66  89 135 177 219 286 340 397
#     4   9  21  40  63  90 133 168 219 275 328 400
#     4  11  22  44  69  96 135 178 227 278 340 415
#     4  10  20  40  63  92 128 172 219 274 329 398
#     4  10  21  43  64  92 133 176 214 280 340 391
#     4  11  22  41  67  98 128 178 230 273 340 412
#     4  11  23  40  67  95 134 175 218 279 344 399
#     4  11  22  43  63  97 133 173 226 277 342 413
#
# _framework density 23.237444
#
# number of rings (size 3 to 8) (size 9 to 14) (size 15 to 20)
#    0.000    1.500    3.750    3.000    0.000    5.500 
#   18.000    0.000    0.000    0.000    0.000    0.000 
#    0.000    0.000    0.000    0.000    0.000    0.000 
#
# Total GULP energy -178764.583459 kJ/mol
# GULP energy per Si atom -5586.393233 kJ/mol
# Density = 2.318455 g / cm^3
# Si number density = 23.237444 Si / 1000 Ang^3
#
#
#
# Elastic Constant Matrix: (Units=GPa)
#
#
# Indices 1 2 3 4 5 6 
#
# 1 61.9098 4.0809 27.6284 0.0000 0.0000 0.0000
# 2 4.0809 56.1719 21.3102 0.0000 0.0000 0.0000
# 3 27.6284 21.3102 158.2336 0.0000 0.0000 0.0000
# 4 0.0000 0.0000 0.0000 30.2218 0.0000 0.0000
# 5 0.0000 0.0000 0.0000 0.0000 19.4519 0.0000
# 6 0.0000 0.0000 0.0000 0.0000 0.0000 37.6029
#
#
#
# Elastic Compliance Matrix: (Units=1/GPa)
#
#
# Indices 1 2 3 4 5 6 
#
# 1 0.017518 -0.000118 -0.003043 0.000000 0.000000 0.000000
# 2 -0.000118 0.018762 -0.002506 0.000000 0.000000 0.000000
# 3 -0.003043 -0.002506 0.007189 0.000000 0.000000 0.000000
# 4 0.000000 0.000000 0.000000 0.033089 0.000000 0.000000
# 5 0.000000 0.000000 0.000000 0.000000 0.051409 0.000000
# 6 0.000000 0.000000 0.000000 0.000000 0.000000 0.026594
#
#
# Mechanical properties :
#
#
# Convention : Reuss Voigt Hill
#
# Bulk Modulus (GPa) = 31.11956 42.48383 36.80169
# Shear Modulus (GPa) = 28.31166 32.34172 30.32669
#
# Velocity S-wave (km/s) = 3.49429 3.73472 3.61651
# Velocity P-wave (km/s) = 5.44988 6.07616 5.77152
#
# Compressibility (1/GPa) = 0.03213413
#
# Stress axis : x y z
#
# Youngs Moduli (GPa) = 57.08331 53.29971 139.10952
#
# Poissons Ratio (x) = 0.00631 0.42329
# Poissons Ratio (y) = 0.00675 0.34862
# Poissons Ratio (z) = 0.17370 0.13357
#
# Static dielectric constant tensor:
#      x y z
#    x 1.899170 0.000000 0.000000 
#    y 0.000000 1.946070 0.000000 
#    z 0.000000 0.000000 1.902630 
# 
# From -- ./inp_files/8124.got.cif
#   From: 2010.05.17/outbox.cif.g08.bks.cpg/sg41_5_cif.got.tgz:8124.got - 2010.06.03 18:54:24.
