data_PCOD9366254
_publ_section_title
;
Structure prediction by ZEFSAII (Michael W. Deem and Ramdas Pophale) SiO2 
 PCOD9366254
Probable space group: A B A 2
;
_chemical_formula_sum "Si O2"
_cell_formula_units_Z 64
_cell_length_a 12.791425
_cell_length_b 19.768294
_cell_length_c 12.266421
_cell_angle_alpha 90.000000
_cell_angle_beta 90.000000
_cell_angle_gamma 90.000000
_cell_volume 3101.744254
_symmetry_space_group_name_H-M "A B A 2"
_symmetry_group_IT_number 41
_symmetry_cell_setting 'orthorhombic'
loop_
_space_group_symop_operation_xyz
x,y,z
-x,-y,z
1/2-x,y,1/2+z
1/2+x,-y,1/2+z
x,1/2+y,1/2+z
-x,1/2-y,1/2+z
1/2-x,1/2+y,z
1/2+x,1/2-y,z
loop_
_atom_site_type_symbol
_atom_site_label
_atom_site_fract_x
_atom_site_fract_y
_atom_site_fract_z
Si Si1 0.667147 0.022439 0.672960
Si Si2 0.249211 0.510580 0.940227
Si Si3 0.258478 0.378170 0.336772
Si Si4 0.078969 0.562726 0.282172
Si Si5 0.032328 0.337020 0.439994
Si Si6 0.444763 0.073430 0.031314
Si Si7 0.530423 0.186847 0.878694
Si Si8 0.539488 0.391964 0.179733
O O1 0.751018 0.079285 0.720718
O O2 0.561105 0.061108 0.701694
O O3 0.684824 0.013313 0.544184
O O4 0.638081 0.942766 0.696801
O O5 0.194941 0.441896 0.902701
O O6 0.318038 0.535953 0.840706
O O7 0.165865 0.565682 0.972175
O O8 0.151671 0.354855 0.397997
O O9 0.347486 0.320707 0.341570
O O10 0.082796 0.584065 0.157486
O O11 0.000000 0.500000 0.289565
O O12 0.037060 0.622813 0.354186
O O13 0.006424 0.258595 0.423841
O O14 0.990404 0.362591 0.559152
O O15 0.500000 0.000000 0.024119
O O16 0.507641 0.132605 0.973782
O O17 0.464034 0.165506 0.771635
#
# Coordination Sequence:
#
# PCOD9366254 Si02
#       8
#     8   8   8   8   8   8   8   8
#     4  10  20  37  71 102 127 171 241 289 341 403
#     4  12  20  39  69 104 132 176 229 289 347 408
#     4  11  23  41  69 100 135 185 236 285 351 422
#     4  11  23  42  69 104 136 176 232 297 346 408
#     4  12  25  45  70 100 146 189 236 286 355 434
#     4  11  25  42  68 103 139 177 233 294 347 408
#     4  11  27  45  67  99 145 188 232 285 357 428
#     4  10  21  43  68 100 135 182 229 293 346 418
#
# _framework density 20.633551000000001
#
# number of rings (size 3 to 8) (size 9 to 14) (size 15 to 20)
#    0.000    1.000    5.000    1.500    5.250    1.000 
#    0.000    0.000    0.000    0.000    0.000    0.000 
#    0.000    0.000    0.000    0.000    0.000    0.000 
#
# Total GULP energy -178153.866680 kJ/mol
# GULP energy per Si atom -5567.308334 kJ/mol
# Density = 2.058659 g / cm^3
# Si number density = 20.633551 Si / 1000 Ang^3
#
#
#
# Elastic Constant Matrix: (Units=GPa)
#
#
# Indices 1 2 3 4 5 6 
#
# 1 81.9414 39.9749 51.8569 0.0000 0.0000 0.0000
# 2 39.9749 129.6150 59.9853 0.0000 0.0000 0.0000
# 3 51.8569 59.9853 147.4312 0.0000 0.0000 0.0000
# 4 0.0000 0.0000 0.0000 37.1094 0.0000 0.0000
# 5 0.0000 0.0000 0.0000 0.0000 27.6041 0.0000
# 6 0.0000 0.0000 0.0000 0.0000 0.0000 84.8830
#
#
#
# Elastic Compliance Matrix: (Units=1/GPa)
#
#
# Indices 1 2 3 4 5 6 
#
# 1 0.016580 -0.002975 -0.004621 0.000000 0.000000 0.000000
# 2 -0.002975 0.010039 -0.003038 0.000000 0.000000 0.000000
# 3 -0.004621 -0.003038 0.009644 0.000000 0.000000 0.000000
# 4 0.000000 0.000000 0.000000 0.026947 0.000000 0.000000
# 5 0.000000 0.000000 0.000000 0.000000 0.036226 0.000000
# 6 0.000000 0.000000 0.000000 0.000000 0.000000 0.011781
#
#
# Mechanical properties :
#
#
# Convention : Reuss Voigt Hill
#
# Bulk Modulus (GPa) = 66.69128 73.62465 70.15797
# Shear Modulus (GPa) = 36.36790 43.73067 40.04928
#
# Velocity S-wave (km/s) = 4.20284 4.60868 4.41043
# Velocity P-wave (km/s) = 7.47956 8.00496 7.74672
#
# Compressibility (1/GPa) = 0.01499446
#
# Stress axis : x y z
#
# Youngs Moduli (GPa) = 60.31482 99.61548 103.68652
#
# Poissons Ratio (x) = 0.29632 0.47918
# Poissons Ratio (y) = 0.17941 0.31501
# Poissons Ratio (z) = 0.27874 0.30264
#
# Static dielectric constant tensor:
#      x y z
#    x 1.781600 0.000000 0.000000 
#    y 0.000000 1.681560 0.000000 
#    z 0.000000 0.000000 1.892040 
# 
# From -- ./inp_files/5737.got.cif
#   From: 2010.05.17/outbox.cif.g08.bks.cpg/sg41_3_cif.got.tgz:5737.got - 2010.06.03 18:54:24.
