data_PCOD9366311
_publ_section_title
;
Structure prediction by ZEFSAII (Michael W. Deem and Ramdas Pophale) SiO2 
 PCOD9366311
Probable space group: A B A 2
;
_chemical_formula_sum "Si O2"
_cell_formula_units_Z 56
_cell_length_a 13.701024
_cell_length_b 15.996844
_cell_length_c 11.239247
_cell_angle_alpha 90.000000
_cell_angle_beta 90.000000
_cell_angle_gamma 90.000000
_cell_volume 2463.341096
_symmetry_space_group_name_H-M "A B A 2"
_symmetry_group_IT_number 41
_symmetry_cell_setting 'orthorhombic'
loop_
_space_group_symop_operation_xyz
x,y,z
-x,-y,z
1/2-x,y,1/2+z
1/2+x,-y,1/2+z
x,1/2+y,1/2+z
-x,1/2-y,1/2+z
1/2-x,1/2+y,z
1/2+x,1/2-y,z
loop_
_atom_site_type_symbol
_atom_site_label
_atom_site_fract_x
_atom_site_fract_y
_atom_site_fract_z
Si Si1 0.085133 0.066193 0.383780
Si Si2 0.092452 0.642429 0.146278
Si Si3 0.602201 0.683852 0.040636
Si Si4 0.894964 0.332613 0.656154
Si Si5 0.799609 0.989354 0.804427
Si Si6 0.122601 0.335503 0.258289
Si Si7 0.886281 0.001453 0.056621
O O1 0.080891 0.098626 0.518046
O O2 0.068539 0.139380 0.287231
O O3 0.190702 0.025614 0.354230
O O4 0.000000 0.000000 0.366643
O O5 0.131184 0.734452 0.113543
O O6 0.162171 0.587536 0.227663
O O7 0.988413 0.648880 0.213559
O O8 0.484953 0.680140 0.065193
O O9 0.644982 0.595604 0.086746
O O10 0.623502 0.687116 0.899449
O O11 0.844381 0.244256 0.680105
O O12 0.841923 0.416670 0.609901
O O13 0.817877 0.078770 0.742966
O O14 0.871496 0.993658 0.917186
O O15 0.000000 0.000000 0.089490
#
# Coordination Sequence:
#
# PCOD9366311 Si02
#       7
#     8   8   8   8   8   8   8
#     4  12  26  43  65  96 142 183 228 292 356 405
#     4  11  22  42  73 104 140 178 230 297 343 414
#     4   9  18  37  71 101 133 175 225 270 346 413
#     4  10  20  38  68  96 136 174 224 274 337 414
#     4  11  24  41  71  97 136 180 233 281 347 410
#     4  10  20  43  73 105 133 180 230 282 341 421
#     4   9  18  38  71 101 133 184 225 272 338 427
#
# _framework density 22.733353999999999
#
# number of rings (size 3 to 8) (size 9 to 14) (size 15 to 20)
#    0.000    1.714    1.429    5.143    2.000    0.000 
#    0.000    4.286   12.571    0.000    0.000    0.000 
#    0.000    0.000    0.000    0.000    0.000    0.000 
#
# Total GULP energy -156367.625452 kJ/mol
# GULP energy per Si atom -5584.558052 kJ/mol
# Density = 2.268161 g / cm^3
# Si number density = 22.733354 Si / 1000 Ang^3
#
#
#
# Elastic Constant Matrix: (Units=GPa)
#
#
# Indices 1 2 3 4 5 6 
#
# 1 81.6868 37.3320 26.8780 0.0000 0.0000 0.0000
# 2 37.3320 221.8829 52.2206 0.0000 0.0000 0.0000
# 3 26.8780 52.2206 69.4679 0.0000 0.0000 0.0000
# 4 0.0000 0.0000 0.0000 50.2402 0.0000 0.0000
# 5 0.0000 0.0000 0.0000 0.0000 27.3150 0.0000
# 6 0.0000 0.0000 0.0000 0.0000 0.0000 -37.3698
#
#
#
# Elastic Compliance Matrix: (Units=1/GPa)
#
#
# Indices 1 2 3 4 5 6 
#
# 1 0.014351 -0.001346 -0.004541 0.000000 0.000000 0.000000
# 2 -0.001346 0.005602 -0.003690 0.000000 0.000000 0.000000
# 3 -0.004541 -0.003690 0.018926 0.000000 0.000000 0.000000
# 4 0.000000 0.000000 0.000000 0.019904 0.000000 0.000000
# 5 0.000000 0.000000 0.000000 0.000000 0.036610 0.000000
# 6 0.000000 0.000000 0.000000 0.000000 0.000000 -0.026760
#
#
# Mechanical properties :
#
#
# Convention : Reuss Voigt Hill
#
# Bulk Modulus (GPa) = 50.69720 67.32207 59.00963
# Shear Modulus (GPa) = 52.98693 25.14422 39.06557
#
# Velocity S-wave (km/s) = 4.83307 3.32934 4.14989
# Velocity P-wave (km/s) = 7.31396 6.66764 6.99827
#
# Compressibility (1/GPa) = 0.01972495
#
# Stress axis : x y z
#
# Youngs Moduli (GPa) = 69.68109 178.51264 52.83696
#
# Poissons Ratio (x) = 0.24026 0.23993
# Poissons Ratio (y) = 0.09378 0.19498
# Poissons Ratio (z) = 0.31641 0.65876
#
# Static dielectric constant tensor:
#      x y z
#    x 1.810600 0.000000 0.000000 
#    y 0.000000 1.904870 0.000000 
#    z 0.000000 0.000000 1.847800 
# 
# From -- ./inp_files/5606.got.cif
#   From: 2010.05.17/outbox.cif.g08.bks.cpg/sg41_3_cif.got.tgz:5606.got - 2010.06.03 18:54:24.
