data_PCOD9366044
_publ_section_title
;
Structure prediction by ZEFSAII (Michael W. Deem and Ramdas Pophale) SiO2 
 PCOD9366044
Probable space group: A B A 2
;
_chemical_formula_sum "Si O2"
_cell_formula_units_Z 56
_cell_length_a 8.909559
_cell_length_b 16.020966
_cell_length_c 19.881857
_cell_angle_alpha 90.000000
_cell_angle_beta 90.000000
_cell_angle_gamma 90.000000
_cell_volume 2837.931135
_symmetry_space_group_name_H-M "A B A 2"
_symmetry_group_IT_number 41
_symmetry_cell_setting 'orthorhombic'
loop_
_space_group_symop_operation_xyz
x,y,z
-x,-y,z
1/2-x,y,1/2+z
1/2+x,-y,1/2+z
x,1/2+y,1/2+z
-x,1/2-y,1/2+z
1/2-x,1/2+y,z
1/2+x,1/2-y,z
loop_
_atom_site_type_symbol
_atom_site_label
_atom_site_fract_x
_atom_site_fract_y
_atom_site_fract_z
Si Si1 0.324516 0.470955 0.135770
Si Si2 0.121536 0.817532 0.046726
Si Si3 0.786912 0.347203 0.594431
Si Si4 0.320157 0.485615 0.289389
Si Si5 0.790025 0.145962 0.895210
Si Si6 0.959446 0.248505 0.328295
Si Si7 0.218367 0.663623 0.751638
O O1 0.500000 0.500000 0.134217
O O2 0.304288 0.385162 0.096577
O O3 0.246300 0.552752 0.100499
O O4 0.293487 0.449499 0.214149
O O5 0.171203 0.722438 0.065472
O O6 0.942502 0.830799 0.055239
O O7 0.172781 0.848695 0.973382
O O8 0.817753 0.331127 0.673543
O O9 0.500000 0.500000 0.295934
O O10 0.260545 0.435502 0.353474
O O11 0.237253 0.573277 0.278892
O O12 0.651261 0.209068 0.882629
O O13 0.939134 0.179187 0.858506
O O14 0.852971 0.275666 0.268057
O O15 0.075944 0.184896 0.296761
#
# Coordination Sequence:
#
# PCOD9366044 Si02
#       7
#     8   8   8   8   8   8   8
#     4   8  19  38  61  88 115 158 210 249 304 369
#     4  11  22  40  62  89 124 168 200 253 318 380
#     4  10  21  39  65  89 120 161 208 257 309 375
#     4  10  19  38  62  88 122 161 207 259 309 370
#     4  11  23  39  58  92 129 164 205 253 323 386
#     4  10  22  37  59  91 120 158 206 259 309 375
#     4  10  20  38  64  92 117 157 211 267 313 362
#
# _framework density 19.732683999999999
#
# number of rings (size 3 to 8) (size 9 to 14) (size 15 to 20)
#    0.000    2.000    1.429    2.571    4.000    0.571 
#   12.857    0.714    0.000    0.000    0.000    0.000 
#    0.000    0.000    0.000    0.000    0.000    0.000 
#
# Total GULP energy -155917.702755 kJ/mol
# GULP energy per Si atom -5568.489384 kJ/mol
# Density = 1.968777 g / cm^3
# Si number density = 19.732684 Si / 1000 Ang^3
#
#
#
# Elastic Constant Matrix: (Units=GPa)
#
#
# Indices 1 2 3 4 5 6 
#
# 1 47.9487 1.7853 26.6257 0.0000 0.0000 0.0000
# 2 1.7853 58.0400 32.5469 0.0000 0.0000 0.0000
# 3 26.6257 32.5469 83.6164 0.0000 0.0000 0.0000
# 4 0.0000 0.0000 0.0000 25.0160 0.0000 0.0000
# 5 0.0000 0.0000 0.0000 0.0000 -0.6980 0.0000
# 6 0.0000 0.0000 0.0000 0.0000 0.0000 22.3651
#
#
#
# Elastic Compliance Matrix: (Units=1/GPa)
#
#
# Indices 1 2 3 4 5 6 
#
# 1 0.026421 0.004996 -0.010358 0.000000 0.000000 0.000000
# 2 0.004996 0.022985 -0.010537 0.000000 0.000000 0.000000
# 3 -0.010358 -0.010537 0.019359 0.000000 0.000000 0.000000
# 4 0.000000 0.000000 0.000000 0.039974 0.000000 0.000000
# 5 0.000000 0.000000 0.000000 0.000000 -1.432564 0.000000
# 6 0.000000 0.000000 0.000000 0.000000 0.000000 0.044712
#
#
# Mechanical properties :
#
#
# Convention : Reuss Voigt Hill
#
# Bulk Modulus (GPa) = 27.05176 34.61344 30.83260
# Shear Modulus (GPa) = -4.04861 17.91309 6.93224
#
# Velocity S-wave (km/s) = -1.43394 3.01622 1.87635
# Velocity P-wave (km/s) = 3.31622 5.45063 4.51147
#
# Compressibility (1/GPa) = 0.03696617
#
# Stress axis : x y z
#
# Youngs Moduli (GPa) = 37.84835 43.50696 51.65529
#
# Poissons Ratio (x) = -0.21734 0.53503
# Poissons Ratio (y) = -0.18907 0.54431
# Poissons Ratio (z) = 0.39202 0.45845
#
# Static dielectric constant tensor:
#      x y z
#    x 1.698050 0.000000 0.000000 
#    y 0.000000 1.666380 0.000000 
#    z 0.000000 0.000000 1.716050 
# 
# From -- ./inp_files/11205.got.cif
#   From: 2010.05.17/outbox.cif.g08.bks.cpg/sg41_6_cif.got.tgz:11205.got - 2010.06.03 18:54:24.
