data_PCOD9366824
_publ_section_title
;
Structure prediction by ZEFSAII (Michael W. Deem and Ramdas Pophale) SiO2 
 PCOD9366824
Probable space group: A B A 2
;
_chemical_formula_sum "Si O2"
_cell_formula_units_Z 56
_cell_length_a 14.203077
_cell_length_b 12.705007
_cell_length_c 14.738435
_cell_angle_alpha 90.000000
_cell_angle_beta 90.000000
_cell_angle_gamma 90.000000
_cell_volume 2659.553436
_symmetry_space_group_name_H-M "A B A 2"
_symmetry_group_IT_number 41
_symmetry_cell_setting 'orthorhombic'
loop_
_space_group_symop_operation_xyz
x,y,z
-x,-y,z
1/2-x,y,1/2+z
1/2+x,-y,1/2+z
x,1/2+y,1/2+z
-x,1/2-y,1/2+z
1/2-x,1/2+y,z
1/2+x,1/2-y,z
loop_
_atom_site_type_symbol
_atom_site_label
_atom_site_fract_x
_atom_site_fract_y
_atom_site_fract_z
Si Si1 0.889158 0.481606 0.341190
Si Si2 0.362879 0.797545 0.249483
Si Si3 0.555563 0.609996 0.419389
Si Si4 0.787938 0.165285 0.107106
Si Si5 0.079835 0.743199 0.253432
Si Si6 0.735747 0.499783 0.499325
Si Si7 0.138157 0.711910 0.947498
O O1 0.859755 0.579919 0.278545
O O2 0.883865 0.369263 0.290526
O O3 0.819410 0.487122 0.426351
O O4 0.000000 0.500000 0.365728
O O5 0.300603 0.785029 0.160048
O O6 0.470588 0.771066 0.232245
O O7 0.338463 0.730898 0.341021
O O8 0.500000 0.500000 0.400728
O O9 0.592317 0.668716 0.330563
O O10 0.647464 0.578625 0.476693
O O11 0.474288 0.689948 0.455627
O O12 0.871357 0.210509 0.166187
O O13 0.773214 0.040309 0.095968
O O14 0.817463 0.194150 0.004687
O O15 0.686332 0.387602 0.494010
#
# Coordination Sequence:
#
# PCOD9366824 Si02
#       7
#     8   8   8   8   8   8   8
#     4  10  21  41  68  94 132 180 222 274 342 408
#     4  10  22  45  64  94 135 179 222 272 349 413
#     4   9  21  45  72  88 131 181 223 268 343 410
#     4  12  25  39  65 103 128 172 229 281 335 411
#     4  10  23  41  67  95 132 179 224 283 332 405
#     4  11  23  40  66 100 128 174 222 284 332 408
#     4  10  23  45  66  95 133 181 221 279 345 410
#
# _framework density 21.056166000000001
#
# number of rings (size 3 to 8) (size 9 to 14) (size 15 to 20)
#    0.000    1.714    1.429    1.714    6.000    0.000 
#   10.286    0.000    0.000    0.000    0.000    0.000 
#    0.000    0.000    0.000    0.000    0.000    0.000 
#
# Total GULP energy -156107.165856 kJ/mol
# GULP energy per Si atom -5575.255923 kJ/mol
# Density = 2.100824 g / cm^3
# Si number density = 21.056166 Si / 1000 Ang^3
#
#
#
# Elastic Constant Matrix: (Units=GPa)
#
#
# Indices 1 2 3 4 5 6 
#
# 1 36.3004 4.4771 18.0925 0.0000 0.0000 0.0000
# 2 4.4771 56.1036 19.1615 0.0000 0.0000 0.0000
# 3 18.0925 19.1615 48.7365 0.0000 0.0000 0.0000
# 4 0.0000 0.0000 0.0000 27.7399 0.0000 0.0000
# 5 0.0000 0.0000 0.0000 0.0000 9.7699 0.0000
# 6 0.0000 0.0000 0.0000 0.0000 0.0000 21.4445
#
#
#
# Elastic Compliance Matrix: (Units=1/GPa)
#
#
# Indices 1 2 3 4 5 6 
#
# 1 0.033966 0.001844 -0.013334 0.000000 0.000000 0.000000
# 2 0.001844 0.020689 -0.008819 0.000000 0.000000 0.000000
# 3 -0.013334 -0.008819 0.028936 0.000000 0.000000 0.000000
# 4 0.000000 0.000000 0.000000 0.036049 0.000000 0.000000
# 5 0.000000 0.000000 0.000000 0.000000 0.102355 0.000000
# 6 0.000000 0.000000 0.000000 0.000000 0.000000 0.046632
#
#
# Mechanical properties :
#
#
# Convention : Reuss Voigt Hill
#
# Bulk Modulus (GPa) = 23.27059 24.95585 24.11322
# Shear Modulus (GPa) = 15.45262 18.41817 16.93540
#
# Velocity S-wave (km/s) = 2.71195 2.96077 2.83909
# Velocity P-wave (km/s) = 4.56967 4.85448 4.71423
#
# Compressibility (1/GPa) = 0.04297270
#
# Stress axis : x y z
#
# Youngs Moduli (GPa) = 29.44087 48.33508 34.55940
#
# Poissons Ratio (x) = -0.08911 0.46082
# Poissons Ratio (y) = -0.05428 0.30476
# Poissons Ratio (z) = 0.39257 0.42624
#
# Static dielectric constant tensor:
#      x y z
#    x 1.937840 0.000000 0.000000 
#    y 0.000000 1.808110 0.000000 
#    z 0.000000 0.000000 1.768590 
# 
# From -- ./inp_files/8384.got.cif
#   From: 2010.05.17/outbox.cif.g08.bks.cpg/sg41_5_cif.got.tgz:8384.got - 2010.06.03 18:54:24.
