data_PCOD9366920
_publ_section_title
;
Structure prediction by ZEFSAII (Michael W. Deem and Ramdas Pophale) SiO2 
 PCOD9366920
Probable space group: A B A 2
;
_chemical_formula_sum "Si O2"
_cell_formula_units_Z 60
_cell_length_a 12.086217
_cell_length_b 9.172474
_cell_length_c 24.139092
_cell_angle_alpha 90.000000
_cell_angle_beta 90.000000
_cell_angle_gamma 90.000000
_cell_volume 2676.072079
_symmetry_space_group_name_H-M "A B A 2"
_symmetry_group_IT_number 41
_symmetry_cell_setting 'orthorhombic'
loop_
_space_group_symop_operation_xyz
x,y,z
-x,-y,z
1/2-x,y,1/2+z
1/2+x,-y,1/2+z
x,1/2+y,1/2+z
-x,1/2-y,1/2+z
1/2-x,1/2+y,z
1/2+x,1/2-y,z
loop_
_atom_site_type_symbol
_atom_site_label
_atom_site_fract_x
_atom_site_fract_y
_atom_site_fract_z
Si Si1 0.266966 0.041231 0.944170
Si Si2 0.593830 0.890777 0.045173
Si Si3 0.668922 0.804078 0.263944
Si Si4 0.689950 0.704156 0.870246
Si Si5 0.283643 0.450607 0.188262
Si Si6 0.500000 0.000000 0.326194
Si Si7 0.560515 0.849593 0.507232
Si Si8 0.796469 0.294894 0.612969
O O1 0.331854 0.147396 0.902635
O O2 0.262539 0.889534 0.912811
O O3 0.323908 0.025715 0.003601
O O4 0.145059 0.108939 0.957783
O O5 0.536548 0.769566 0.005731
O O6 0.668944 0.821374 0.093354
O O7 0.500000 0.000000 0.066187
O O8 0.748177 0.745264 0.313208
O O9 0.647861 0.667334 0.223466
O O10 0.725585 0.936159 0.230068
O O11 0.562930 0.878927 0.290299
O O12 0.588464 0.595836 0.859359
O O13 0.338658 0.562103 0.145433
O O14 0.202548 0.346774 0.151904
O O15 0.634608 0.788736 0.557297
O O16 0.500000 0.000000 0.521776
#
# Coordination Sequence:
#
# PCOD9366920 Si02
#       8
#     8   8   8   8   8   4   8   8
#     4  11  25  40  68  97 138 178 223 275 338 399
#     4  11  23  40  63  96 136 175 224 271 328 400
#     4  11  23  47  68  99 134 173 224 293 338 402
#     4  12  24  45  69  99 135 176 226 285 338 403
#     4  10  21  44  70  91 140 172 220 289 341 392
#     4  12  26  44  74  94 134 176 226 284 350 396
#     4  11  23  41  64  98 139 179 225 274 330 401
#     4  10  22  42  63  98 133 177 220 280 331 401
#
# _framework density 22.420921
#
# number of rings (size 3 to 8) (size 9 to 14) (size 15 to 20)
#    0.000    1.067    2.667    3.200    2.800    5.333 
#   12.000    3.333    0.000    0.000    0.000    0.000 
#    0.000    0.000    0.000    0.000    0.000    0.000 
#
# Total GULP energy -167595.456300 kJ/mol
# GULP energy per Si atom -5586.515210 kJ/mol
# Density = 2.236989 g / cm^3
# Si number density = 22.420921 Si / 1000 Ang^3
#
#
#
# Elastic Constant Matrix: (Units=GPa)
#
#
# Indices 1 2 3 4 5 6 
#
# 1 62.1506 23.2661 22.4641 0.0000 0.0000 0.0000
# 2 23.2661 125.3080 22.9298 0.0000 0.0000 0.0000
# 3 22.4641 22.9298 80.5657 0.0000 0.0000 0.0000
# 4 0.0000 0.0000 0.0000 50.5904 0.0000 0.0000
# 5 0.0000 0.0000 0.0000 0.0000 9.2147 0.0000
# 6 0.0000 0.0000 0.0000 0.0000 0.0000 -91.7527
#
#
#
# Elastic Compliance Matrix: (Units=1/GPa)
#
#
# Indices 1 2 3 4 5 6 
#
# 1 0.018695 -0.002656 -0.004457 0.000000 0.000000 0.000000
# 2 -0.002656 0.008796 -0.001763 0.000000 0.000000 0.000000
# 3 -0.004457 -0.001763 0.014157 0.000000 0.000000 0.000000
# 4 0.000000 0.000000 0.000000 0.019767 0.000000 0.000000
# 5 0.000000 0.000000 0.000000 0.000000 0.108522 0.000000
# 6 0.000000 0.000000 0.000000 0.000000 0.000000 -0.010899
#
#
# Mechanical properties :
#
#
# Convention : Reuss Voigt Hill
#
# Bulk Modulus (GPa) = 41.84663 45.03825 43.44244
# Shear Modulus (GPa) = 27.06305 6.90143 16.98224
#
# Velocity S-wave (km/s) = 3.47802 1.75636 2.75513
# Velocity P-wave (km/s) = 5.90199 4.92385 5.43497
#
# Compressibility (1/GPa) = 0.02389679
#
# Stress axis : x y z
#
# Youngs Moduli (GPa) = 53.49019 113.68805 70.63785
#
# Poissons Ratio (x) = 0.30191 0.31483
# Poissons Ratio (y) = 0.14205 0.12453
# Poissons Ratio (z) = 0.23840 0.20043
#
# Static dielectric constant tensor:
#      x y z
#    x 1.881390 0.000000 0.000000 
#    y 0.000000 1.828790 0.000000 
#    z 0.000000 0.000000 1.829560 
# 
# From -- ./inp_files/12515.got.cif
#   From: 2010.05.17/outbox.cif.g08.bks.cpg/sg41_7_cif.got.tgz:12515.got - 2010.06.03 18:54:24.
