data_PCOD9366181
_publ_section_title
;
Structure prediction by ZEFSAII (Michael W. Deem and Ramdas Pophale) SiO2 
 PCOD9366181
Probable space group: A B A 2
;
_chemical_formula_sum "Si O2"
_cell_formula_units_Z 56
_cell_length_a 19.719799
_cell_length_b 14.911058
_cell_length_c 8.987043
_cell_angle_alpha 90.000000
_cell_angle_beta 90.000000
_cell_angle_gamma 90.000000
_cell_volume 2642.577684
_symmetry_space_group_name_H-M "A B A 2"
_symmetry_group_IT_number 41
_symmetry_cell_setting 'orthorhombic'
loop_
_space_group_symop_operation_xyz
x,y,z
-x,-y,z
1/2-x,y,1/2+z
1/2+x,-y,1/2+z
x,1/2+y,1/2+z
-x,1/2-y,1/2+z
1/2-x,1/2+y,z
1/2+x,1/2-y,z
loop_
_atom_site_type_symbol
_atom_site_label
_atom_site_fract_x
_atom_site_fract_y
_atom_site_fract_z
Si Si1 0.405852 0.457748 0.791270
Si Si2 0.653477 0.653247 0.329404
Si Si3 0.776307 0.600266 0.135582
Si Si4 0.405851 0.542252 0.291270
Si Si5 0.776307 0.899735 0.135581
Si Si6 0.500000 0.000000 0.539057
Si Si7 0.500000 0.500000 0.539057
Si Si8 0.346523 0.653246 0.829404
O O1 0.334383 0.410725 0.762440
O O2 0.451764 0.443176 0.646568
O O3 0.391197 0.564847 0.802923
O O4 0.450780 0.440233 0.936079
O O5 0.712437 0.649616 0.205401
O O6 0.690202 0.641098 0.489096
O O7 0.608804 0.564847 0.302923
O O8 0.618635 0.750000 0.324295
O O9 0.750000 0.500000 0.097419
O O10 0.334383 0.589275 0.262440
O O11 0.451764 0.556823 0.146568
O O12 0.450780 0.559766 0.436079
O O13 0.712437 0.850385 0.205400
O O14 0.809798 0.858903 0.989095
#
# Coordination Sequence:
#
# PCOD9366181 Si02
#       8
#     8   8   8   8   8   4   4   8
#     4  10  20  37  61  84 107 148 193 234 263 339
#     4  11  22  36  56  88 119 144 177 236 294 330
#     4  10  20  36  59  84 112 147 190 229 274 338
#     4  10  20  37  61  84 107 148 193 234 263 339
#     4  10  20  36  59  84 112 147 190 229 274 338
#     4  10  20  36  62  84 104 146 204 228 266 312
#     4  10  20  36  62  84 104 146 204 228 266 312
#     4  11  22  36  56  88 119 144 177 236 294 330
#
# _framework density 21.19143
#
# number of rings (size 3 to 8) (size 9 to 14) (size 15 to 20)
#    0.000    1.714    2.857    3.429    4.000    0.000 
#    0.000    1.429    0.000    0.000    0.000    0.000 
#    0.000    0.000    0.000    0.000    0.000    0.000 
#
# Total GULP energy -156321.225256 kJ/mol
# GULP energy per Si atom -5582.900902 kJ/mol
# Density = 2.114320 g / cm^3
# Si number density = 21.191430 Si / 1000 Ang^3
#
#
#
# Elastic Constant Matrix: (Units=GPa)
#
#
# Indices 1 2 3 4 5 6 
#
# 1 64.8560 5.4357 8.2201 0.0000 0.0000 0.0000
# 2 5.4357 79.1504 5.3084 0.0000 0.0000 0.0000
# 3 8.2201 5.3084 90.5105 0.0000 0.0000 0.0000
# 4 0.0000 0.0000 0.0000 -0.9260 0.0000 0.0000
# 5 0.0000 0.0000 0.0000 0.0000 38.9436 0.0000
# 6 0.0000 0.0000 0.0000 0.0000 0.0000 2.4228
#
#
#
# Elastic Compliance Matrix: (Units=1/GPa)
#
#
# Indices 1 2 3 4 5 6 
#
# 1 0.015674 -0.000985 -0.001366 0.000000 0.000000 0.000000
# 2 -0.000985 0.012746 -0.000658 0.000000 0.000000 0.000000
# 3 -0.001366 -0.000658 0.011211 0.000000 0.000000 0.000000
# 4 0.000000 0.000000 0.000000 -1.079892 0.000000 0.000000
# 5 0.000000 0.000000 0.000000 0.000000 0.025678 0.000000
# 6 0.000000 0.000000 0.000000 0.000000 0.000000 0.412737
#
#
# Mechanical properties :
#
#
# Convention : Reuss Voigt Hill
#
# Bulk Modulus (GPa) = 29.74953 30.27171 30.01062
# Shear Modulus (GPa) = -8.55252 22.45827 6.95287
#
# Velocity S-wave (km/s) = -2.01112 3.25896 1.81331
# Velocity P-wave (km/s) = 2.94553 5.33638 4.31005
#
# Compressibility (1/GPa) = 0.03361398
#
# Stress axis : x y z
#
# Youngs Moduli (GPa) = 63.79818 78.45636 89.19752
#
# Poissons Ratio (x) = 0.07727 0.12182
# Poissons Ratio (y) = 0.06283 0.05870
# Poissons Ratio (z) = 0.08713 0.05163
#
# Static dielectric constant tensor:
#      x y z
#    x 1.776550 0.000000 0.000000 
#    y 0.000000 1.848180 0.000000 
#    z 0.000000 0.000000 1.791390 
# 
# From -- ./inp_files/3443.got.cif
#   From: 2010.05.17/outbox.cif.g08.bks.cpg/sg41_2_cif.got.tgz:3443.got - 2010.06.03 18:54:24.
