data_PCOD9366170
_publ_section_title
;
Structure prediction by ZEFSAII (Michael W. Deem and Ramdas Pophale) SiO2 
 PCOD9366170
Probable space group: A B A 2
;
_chemical_formula_sum "Si O2"
_cell_formula_units_Z 56
_cell_length_a 21.951591
_cell_length_b 5.534388
_cell_length_c 21.622291
_cell_angle_alpha 90.000000
_cell_angle_beta 90.000000
_cell_angle_gamma 90.000000
_cell_volume 2626.862334
_symmetry_space_group_name_H-M "A B A 2"
_symmetry_group_IT_number 41
_symmetry_cell_setting 'orthorhombic'
loop_
_space_group_symop_operation_xyz
x,y,z
-x,-y,z
1/2-x,y,1/2+z
1/2+x,-y,1/2+z
x,1/2+y,1/2+z
-x,1/2-y,1/2+z
1/2-x,1/2+y,z
1/2+x,1/2-y,z
loop_
_atom_site_type_symbol
_atom_site_label
_atom_site_fract_x
_atom_site_fract_y
_atom_site_fract_z
Si Si1 0.500000 0.000000 0.606180
Si Si2 0.400057 0.687039 0.657668
Si Si3 0.406306 0.321989 0.547137
Si Si4 0.280471 0.137726 0.577081
Si Si5 0.942247 0.736656 0.359671
Si Si6 0.926003 0.224514 0.405521
Si Si7 0.500000 0.500000 0.746863
Si Si8 0.733055 0.810124 0.215149
O O1 0.442724 0.917521 0.646446
O O2 0.527898 0.785592 0.565360
O O3 0.393061 0.549350 0.591941
O O4 0.442775 0.535166 0.702976
O O5 0.335944 0.717100 0.691137
O O6 0.351491 0.137254 0.562327
O O7 0.404396 0.344832 0.473708
O O8 0.251169 0.391251 0.554331
O O9 0.271690 0.159141 0.651247
O O10 0.907688 0.488466 0.378247
O O11 0.976873 0.703489 0.294567
O O12 0.000108 0.755062 0.406016
O O13 0.909154 0.993044 0.363469
O O14 0.756252 0.567371 0.247722
#
# Coordination Sequence:
#
# PCOD9366170 Si02
#       8
#     4   8   8   8   8   8   4   8
#     4  12  24  33  50  92 137 158 182 248 312 398
#     4  12  24  36  57  91 130 163 191 249 314 380
#     4  12  23  35  57  91 128 157 197 242 320 379
#     4  10  20  36  56  77 121 161 200 237 281 371
#     4   9  20  40  55  75 115 158 210 238 284 362
#     4   9  20  34  58  78 106 155 194 242 283 354
#     4  10  22  41  54  90 119 164 202 254 310 368
#     4  10  20  39  56  78 120 163 208 232 279 368
#
# _framework density 21.318209
#
# number of rings (size 3 to 8) (size 9 to 14) (size 15 to 20)
#    0.000    1.714    4.286    2.571    6.000    2.286 
#    0.000    0.000    0.000    0.000    0.000   14.000 
#    0.000    0.000    0.000    0.000    0.000    0.000 
#
# Total GULP energy -156053.547941 kJ/mol
# GULP energy per Si atom -5573.340998 kJ/mol
# Density = 2.126969 g / cm^3
# Si number density = 21.318209 Si / 1000 Ang^3
#
#
#
# Elastic Constant Matrix: (Units=GPa)
#
#
# Indices 1 2 3 4 5 6 
#
# 1 80.6321 23.0717 9.7019 0.0000 0.0000 0.0000
# 2 23.0717 177.3752 14.6315 0.0000 0.0000 0.0000
# 3 9.7019 14.6315 48.6265 0.0000 0.0000 0.0000
# 4 0.0000 0.0000 0.0000 -39.4785 0.0000 0.0000
# 5 0.0000 0.0000 0.0000 0.0000 -7.1444 0.0000
# 6 0.0000 0.0000 0.0000 0.0000 0.0000 28.0590
#
#
#
# Elastic Compliance Matrix: (Units=1/GPa)
#
#
# Indices 1 2 3 4 5 6 
#
# 1 0.013098 -0.001526 -0.002154 0.000000 0.000000 0.000000
# 2 -0.001526 0.005959 -0.001489 0.000000 0.000000 0.000000
# 3 -0.002154 -0.001489 0.021443 0.000000 0.000000 0.000000
# 4 0.000000 0.000000 0.000000 -0.025330 0.000000 0.000000
# 5 0.000000 0.000000 0.000000 0.000000 -0.139970 0.000000
# 6 0.000000 0.000000 0.000000 0.000000 0.000000 0.035639
#
#
# Mechanical properties :
#
#
# Convention : Reuss Voigt Hill
#
# Bulk Modulus (GPa) = 33.15417 44.60490 38.87954
# Shear Modulus (GPa) = -72.70637 13.56914 -29.56861
#
# Velocity S-wave (km/s) = -5.84631 2.52564 -3.72830
# Velocity P-wave (km/s) = 5.47601 5.42899 0.50630
#
# Compressibility (1/GPa) = 0.03016212
#
# Stress axis : x y z
#
# Youngs Moduli (GPa) = 76.34855 167.81208 46.63614
#
# Poissons Ratio (x) = 0.25608 0.10046
# Poissons Ratio (y) = 0.11651 0.06942
# Poissons Ratio (z) = 0.16446 0.24980
#
# Static dielectric constant tensor:
#      x y z
#    x 1.752050 0.000000 0.000000 
#    y 0.000000 2.067000 0.000000 
#    z 0.000000 0.000000 1.789920 
# 
# From -- ./inp_files/12310.got.cif
#   From: 2010.05.17/outbox.cif.g08.bks.cpg/sg41_7_cif.got.tgz:12310.got - 2010.06.03 18:54:24.
