data_PCOD9366652
_publ_section_title
;
Structure prediction by ZEFSAII (Michael W. Deem and Ramdas Pophale) SiO2 
 PCOD9366652
Probable space group: A B A 2
;
_chemical_formula_sum "Si O2"
_cell_formula_units_Z 60
_cell_length_a 15.106515
_cell_length_b 8.237875
_cell_length_c 24.072073
_cell_angle_alpha 90.000000
_cell_angle_beta 90.000000
_cell_angle_gamma 90.000000
_cell_volume 2995.663141
_symmetry_space_group_name_H-M "A B A 2"
_symmetry_group_IT_number 41
_symmetry_cell_setting 'orthorhombic'
loop_
_space_group_symop_operation_xyz
x,y,z
-x,-y,z
1/2-x,y,1/2+z
1/2+x,-y,1/2+z
x,1/2+y,1/2+z
-x,1/2-y,1/2+z
1/2-x,1/2+y,z
1/2+x,1/2-y,z
loop_
_atom_site_type_symbol
_atom_site_label
_atom_site_fract_x
_atom_site_fract_y
_atom_site_fract_z
Si Si1 0.360203 0.298493 0.532360
Si Si2 0.000000 0.500000 0.103974
Si Si3 0.178223 0.893405 0.839450
Si Si4 0.213490 0.985381 0.087630
Si Si5 0.152325 0.689726 0.155301
Si Si6 0.083677 0.092403 0.930846
Si Si7 0.990821 0.317167 0.839825
Si Si8 0.343511 0.733423 0.781408
O O1 0.438265 0.396380 0.562337
O O2 0.273993 0.412883 0.538134
O O3 0.376535 0.226529 0.471600
O O4 0.342163 0.137220 0.568001
O O5 0.942925 0.387452 0.144766
O O6 0.274998 0.825677 0.822869
O O7 0.108100 0.747204 0.830270
O O8 0.154213 0.971478 0.900447
O O9 0.158863 0.044096 0.798540
O O10 0.159498 0.839135 0.113171
O O11 0.279768 0.052656 0.134331
O O12 0.178273 0.744079 0.216735
O O13 0.034575 0.189948 0.882044
O O14 0.000000 0.000000 0.959275
O O15 0.057728 0.304047 0.788271
O O16 0.000000 0.500000 0.861356
#
# Coordination Sequence:
#
# PCOD9366652 Si02
#       8
#     8   4   8   8   8   8   8   8
#     4  10  21  40  62  87 122 170 199 266 313 379
#     4  10  24  36  58  92 122 160 222 254 316 376
#     4  10  22  39  59  92 121 158 206 259 306 390
#     4   9  21  40  58  86 129 153 217 253 307 377
#     4  10  21  39  58  90 119 168 201 265 307 376
#     4   9  21  38  61  88 121 161 202 257 323 367
#     4  10  22  40  57  90 123 152 207 259 299 385
#     4  11  21  38  65  84 125 163 203 251 323 363
#
# _framework density 20.028955
#
# number of rings (size 3 to 8) (size 9 to 14) (size 15 to 20)
#    0.000    2.133    0.000    2.800    4.667    2.133 
#    2.400    0.000    0.000    0.000    0.000    0.000 
#    0.000    0.000    0.000    0.000    0.000    0.000 
#
# Total GULP energy -167242.091623 kJ/mol
# GULP energy per Si atom -5574.736387 kJ/mol
# Density = 1.998337 g / cm^3
# Si number density = 20.028955 Si / 1000 Ang^3
#
#
#
# Elastic Constant Matrix: (Units=GPa)
#
#
# Indices 1 2 3 4 5 6 
#
# 1 63.3443 37.8292 23.3374 0.0000 0.0000 0.0000
# 2 37.8292 95.9274 -2.9602 0.0000 0.0000 0.0000
# 3 23.3374 -2.9602 61.3096 0.0000 0.0000 0.0000
# 4 0.0000 0.0000 0.0000 21.1510 0.0000 0.0000
# 5 0.0000 0.0000 0.0000 0.0000 -142.8146 0.0000
# 6 0.0000 0.0000 0.0000 0.0000 0.0000 11.4632
#
#
#
# Elastic Compliance Matrix: (Units=1/GPa)
#
#
# Indices 1 2 3 4 5 6 
#
# 1 0.025895 -0.010532 -0.010365 0.000000 0.000000 0.000000
# 2 -0.010532 0.014723 0.004720 0.000000 0.000000 0.000000
# 3 -0.010365 0.004720 0.020484 0.000000 0.000000 0.000000
# 4 0.000000 0.000000 0.000000 0.047279 0.000000 0.000000
# 5 0.000000 0.000000 0.000000 0.000000 -0.007002 0.000000
# 6 0.000000 0.000000 0.000000 0.000000 0.000000 0.087236
#
#
# Mechanical properties :
#
#
# Convention : Reuss Voigt Hill
#
# Bulk Modulus (GPa) = 34.78509 37.44376 36.11442
# Shear Modulus (GPa) = 21.68704 -11.21510 5.23597
#
# Velocity S-wave (km/s) = 3.29414 -2.36888 1.61860
# Velocity P-wave (km/s) = 5.64567 3.35459 4.64364
#
# Compressibility (1/GPa) = 0.02874795
#
# Stress axis : x y z
#
# Youngs Moduli (GPa) = 38.61740 67.91920 48.81830
#
# Poissons Ratio (x) = 0.71530 0.50602
# Poissons Ratio (y) = 0.40670 -0.23041
# Poissons Ratio (z) = 0.40028 -0.32056
#
# Static dielectric constant tensor:
#      x y z
#    x 1.841980 0.000000 0.000000 
#    y 0.000000 1.719310 0.000000 
#    z 0.000000 0.000000 1.712740 
# 
# From -- ./inp_files/12206.got.cif
#   From: 2010.05.17/outbox.cif.g08.bks.cpg/sg41_7_cif.got.tgz:12206.got - 2010.06.03 18:54:24.
