data_PCOD9366655
_publ_section_title
;
Structure prediction by ZEFSAII (Michael W. Deem and Ramdas Pophale) SiO2 
 PCOD9366655
Probable space group: A B A 2
;
_chemical_formula_sum "Si O2"
_cell_formula_units_Z 52
_cell_length_a 16.217627
_cell_length_b 16.390525
_cell_length_c 9.268811
_cell_angle_alpha 90.000000
_cell_angle_beta 90.000000
_cell_angle_gamma 90.000000
_cell_volume 2463.792896
_symmetry_space_group_name_H-M "A B A 2"
_symmetry_group_IT_number 41
_symmetry_cell_setting 'orthorhombic'
loop_
_space_group_symop_operation_xyz
x,y,z
-x,-y,z
1/2-x,y,1/2+z
1/2+x,-y,1/2+z
x,1/2+y,1/2+z
-x,1/2-y,1/2+z
1/2-x,1/2+y,z
1/2+x,1/2-y,z
loop_
_atom_site_type_symbol
_atom_site_label
_atom_site_fract_x
_atom_site_fract_y
_atom_site_fract_z
Si Si1 0.411842 0.205361 0.841630
Si Si2 0.505818 0.319742 0.047126
Si Si3 0.000000 0.500000 0.424010
Si Si4 0.773499 0.185365 0.687174
Si Si5 0.820984 0.004035 0.776356
Si Si6 0.205040 0.087579 0.481096
Si Si7 0.322871 0.240175 0.413403
O O1 0.479970 0.192628 0.717348
O O2 0.339951 0.252476 0.756012
O O3 0.377712 0.120096 0.903985
O O4 0.436851 0.263729 0.973290
O O5 0.496156 0.415596 0.013388
O O6 0.586713 0.286527 0.961121
O O7 0.085053 0.502097 0.332631
O O8 0.689977 0.223373 0.754004
O O9 0.784544 0.190928 0.516835
O O10 0.798624 0.094909 0.729062
O O11 0.809677 0.940626 0.644050
O O12 0.753798 0.982358 0.897304
O O13 0.267274 0.162931 0.458560
#
# Coordination Sequence:
#
# PCOD9366655 Si02
#       7
#     8   8   4   8   8   8   8
#     4  10  24  42  66  97 129 177 231 277 341 427
#     4  11  23  44  65  95 135 174 225 285 351 408
#     4  12  26  42  68  98 136 184 224 294 362 404
#     4  10  21  39  60  95 121 167 222 265 329 405
#     4  12  24  43  68  98 140 176 228 288 347 412
#     4  11  24  42  68  98 135 182 230 276 346 415
#     4  10  21  39  64  90 126 167 222 271 328 408
#
# _framework density 21.105671000000001
#
# number of rings (size 3 to 8) (size 9 to 14) (size 15 to 20)
#    0.000    1.231    3.077    3.692    2.154    1.231 
#    2.769    3.846    0.000    0.000    0.000    0.000 
#    0.000    0.000    0.000    0.000    0.000    0.000 
#
# Total GULP energy -145160.485233 kJ/mol
# GULP energy per Si atom -5583.095586 kJ/mol
# Density = 2.105763 g / cm^3
# Si number density = 21.105671 Si / 1000 Ang^3
#
#
#
# Elastic Constant Matrix: (Units=GPa)
#
#
# Indices 1 2 3 4 5 6 
#
# 1 37.1946 4.1324 37.1755 0.0000 0.0000 0.0000
# 2 4.1324 90.3945 14.2648 0.0000 0.0000 0.0000
# 3 37.1755 14.2648 76.6435 0.0000 0.0000 0.0000
# 4 0.0000 0.0000 0.0000 26.3865 0.0000 0.0000
# 5 0.0000 0.0000 0.0000 0.0000 30.7720 0.0000
# 6 0.0000 0.0000 0.0000 0.0000 0.0000 28.1442
#
#
#
# Elastic Compliance Matrix: (Units=1/GPa)
#
#
# Indices 1 2 3 4 5 6 
#
# 1 0.052427 0.001665 -0.025739 0.000000 0.000000 0.000000
# 2 0.001665 0.011450 -0.002939 0.000000 0.000000 0.000000
# 3 -0.025739 -0.002939 0.026079 0.000000 0.000000 0.000000
# 4 0.000000 0.000000 0.000000 0.037898 0.000000 0.000000
# 5 0.000000 0.000000 0.000000 0.000000 0.032497 0.000000
# 6 0.000000 0.000000 0.000000 0.000000 0.000000 0.035531
#
#
# Mechanical properties :
#
#
# Convention : Reuss Voigt Hill
#
# Bulk Modulus (GPa) = 27.83170 35.04200 31.43685
# Shear Modulus (GPa) = 19.09236 26.97118 23.03177
#
# Velocity S-wave (km/s) = 3.01093 3.57867 3.30701
# Velocity P-wave (km/s) = 5.03022 5.80646 5.43222
#
# Compressibility (1/GPa) = 0.03593025
#
# Stress axis : x y z
#
# Youngs Moduli (GPa) = 19.07429 87.33432 38.34504
#
# Poissons Ratio (x) = -0.14542 0.98697
# Poissons Ratio (y) = -0.03176 0.11269
# Poissons Ratio (z) = 0.49096 0.25665
#
# Static dielectric constant tensor:
#      x y z
#    x 1.821810 0.000000 0.000000 
#    y 0.000000 1.967320 0.000000 
#    z 0.000000 0.000000 1.816210 
# 
# From -- ./inp_files/3114.got.cif
#   From: 2010.05.17/outbox.cif.g08.bks.cpg/sg41_2_cif.got.tgz:3114.got - 2010.06.03 18:54:24.
