data_PCOD9366398
_publ_section_title
;
Structure prediction by ZEFSAII (Michael W. Deem and Ramdas Pophale) SiO2 
 PCOD9366398
Probable space group: A B A 2
;
_chemical_formula_sum "Si O2"
_cell_formula_units_Z 60
_cell_length_a 20.584880
_cell_length_b 9.917945
_cell_length_c 11.045402
_cell_angle_alpha 90.000000
_cell_angle_beta 90.000000
_cell_angle_gamma 90.000000
_cell_volume 2255.026043
_symmetry_space_group_name_H-M "A B A 2"
_symmetry_group_IT_number 41
_symmetry_cell_setting 'orthorhombic'
loop_
_space_group_symop_operation_xyz
x,y,z
-x,-y,z
1/2-x,y,1/2+z
1/2+x,-y,1/2+z
x,1/2+y,1/2+z
-x,1/2-y,1/2+z
1/2-x,1/2+y,z
1/2+x,1/2-y,z
loop_
_atom_site_type_symbol
_atom_site_label
_atom_site_fract_x
_atom_site_fract_y
_atom_site_fract_z
Si Si1 0.998134 0.199104 0.756110
Si Si2 0.120179 0.639283 0.100191
Si Si3 0.500000 0.000000 0.691171
Si Si4 0.170406 0.029075 0.376041
Si Si5 0.192140 0.057511 0.979562
Si Si6 0.424896 0.910137 0.469866
Si Si7 0.280418 0.336063 0.190118
Si Si8 0.140967 0.748482 0.677850
O O1 0.984027 0.132967 0.884925
O O2 0.930266 0.187360 0.681907
O O3 0.059382 0.133387 0.689796
O O4 0.007640 0.361517 0.763247
O O5 0.187706 0.691439 0.158745
O O6 0.133193 0.522651 0.003202
O O7 0.101708 0.767550 0.016094
O O8 0.557711 0.007828 0.591669
O O9 0.242542 0.084045 0.406919
O O10 0.180774 0.890930 0.305632
O O11 0.138355 0.131080 0.280671
O O12 0.208919 0.942093 0.080405
O O13 0.164819 0.185314 0.051545
O O14 0.132264 0.992841 0.906700
O O15 0.204144 0.333526 0.215090
#
# Coordination Sequence:
#
# PCOD9366398 Si02
#       8
#     8   8   4   8   8   8   8   8
#     4  11  22  39  69  93 135 186 237 288 357 453
#     4  10  22  40  63  95 136 178 231 292 352 442
#     4  10  22  40  66  96 130 184 230 286 348 432
#     4  11  22  39  67  97 137 177 227 301 357 420
#     4  10  21  40  67 100 136 178 235 303 355 430
#     4  10  20  40  65  96 131 182 233 289 365 426
#     4  10  23  40  67 102 135 179 235 294 363 429
#     4  11  21  41  69  99 132 186 240 287 362 443
#
# _framework density 26.607230999999999
#
# number of rings (size 3 to 8) (size 9 to 14) (size 15 to 20)
#    0.000    1.600    4.000    0.800    3.733    0.000 
#    2.400    4.000    2.933    3.200    0.000    0.000 
#    0.000    0.000    0.000    0.000    0.000    0.000 
#
# Total GULP energy -168042.623148 kJ/mol
# GULP energy per Si atom -5601.420772 kJ/mol
# Density = 2.654667 g / cm^3
# Si number density = 26.607231 Si / 1000 Ang^3
#
#
#
# Elastic Constant Matrix: (Units=GPa)
#
#
# Indices 1 2 3 4 5 6 
#
# 1 124.8839 14.8013 32.1457 0.0000 0.0000 0.0000
# 2 14.8013 82.0728 46.1885 0.0000 0.0000 0.0000
# 3 32.1457 46.1885 103.9639 0.0000 0.0000 0.0000
# 4 0.0000 0.0000 0.0000 34.8567 0.0000 0.0000
# 5 0.0000 0.0000 0.0000 0.0000 62.8579 0.0000
# 6 0.0000 0.0000 0.0000 0.0000 0.0000 33.6048
#
#
#
# Elastic Compliance Matrix: (Units=1/GPa)
#
#
# Indices 1 2 3 4 5 6 
#
# 1 0.008700 -0.000073 -0.002657 0.000000 0.000000 0.000000
# 2 -0.000073 0.016247 -0.007195 0.000000 0.000000 0.000000
# 3 -0.002657 -0.007195 0.013637 0.000000 0.000000 0.000000
# 4 0.000000 0.000000 0.000000 0.028689 0.000000 0.000000
# 5 0.000000 0.000000 0.000000 0.000000 0.015909 0.000000
# 6 0.000000 0.000000 0.000000 0.000000 0.000000 0.029758
#
#
# Mechanical properties :
#
#
# Convention : Reuss Voigt Hill
#
# Bulk Modulus (GPa) = 53.38563 55.24352 54.31457
# Shear Modulus (GPa) = 35.96185 40.78288 38.37237
#
# Velocity S-wave (km/s) = 3.68038 3.91931 3.80172
# Velocity P-wave (km/s) = 6.17803 6.42565 6.30306
#
# Compressibility (1/GPa) = 0.01873163
#
# Stress axis : x y z
#
# Youngs Moduli (GPa) = 114.93997 61.55006 73.32919
#
# Poissons Ratio (x) = 0.00452 0.19487
# Poissons Ratio (y) = 0.00844 0.52763
# Poissons Ratio (z) = 0.30545 0.44288
#
# Static dielectric constant tensor:
#      x y z
#    x 2.107020 0.000000 0.000000 
#    y 0.000000 2.095820 0.000000 
#    z 0.000000 0.000000 2.040150 
# 
# From -- ./inp_files/6264.got.cif
#   From: 2010.05.17/outbox.cif.g08.bks.cpg/sg41_4_cif.got.tgz:6264.got - 2010.06.03 18:54:24.
