data_PCOD9366743
_publ_section_title
;
Structure prediction by ZEFSAII (Michael W. Deem and Ramdas Pophale) SiO2 
 PCOD9366743
Probable space group: A B A 2
;
_chemical_formula_sum "Si O2"
_cell_formula_units_Z 60
_cell_length_a 17.764173
_cell_length_b 11.388859
_cell_length_c 14.424377
_cell_angle_alpha 90.000000
_cell_angle_beta 90.000000
_cell_angle_gamma 90.000000
_cell_volume 2918.248526
_symmetry_space_group_name_H-M "A B A 2"
_symmetry_group_IT_number 41
_symmetry_cell_setting 'orthorhombic'
loop_
_space_group_symop_operation_xyz
x,y,z
-x,-y,z
1/2-x,y,1/2+z
1/2+x,-y,1/2+z
x,1/2+y,1/2+z
-x,1/2-y,1/2+z
1/2-x,1/2+y,z
1/2+x,1/2-y,z
loop_
_atom_site_type_symbol
_atom_site_label
_atom_site_fract_x
_atom_site_fract_y
_atom_site_fract_z
Si Si1 0.993418 0.713479 0.497320
Si Si2 0.089891 0.386807 0.890784
Si Si3 0.500000 0.000000 0.377329
Si Si4 0.643563 0.396646 0.673507
Si Si5 0.266226 0.238828 0.329181
Si Si6 0.122734 0.869429 0.755164
Si Si7 0.012630 0.784499 0.209777
Si Si8 0.646045 0.861823 0.958690
O O1 0.045428 0.826039 0.476095
O O2 0.027603 0.607413 0.439580
O O3 0.984272 0.673491 0.603423
O O4 0.913595 0.754296 0.453817
O O5 0.166230 0.314290 0.872261
O O6 0.043226 0.364511 0.794173
O O7 0.107647 0.520791 0.917166
O O8 0.570135 0.051829 0.321714
O O9 0.702717 0.343259 0.746471
O O10 0.637292 0.536597 0.675021
O O11 0.565733 0.331838 0.703391
O O12 0.661204 0.367218 0.567920
O O13 0.202317 0.326995 0.292179
O O14 0.222335 0.161875 0.404262
O O15 0.071727 0.758187 0.729290
#
# Coordination Sequence:
#
# PCOD9366743 Si02
#       8
#     8   8   4   8   8   8   8   8
#     4  11  23  41  64  95 125 167 222 273 336 395
#     4  11  22  42  67  95 133 170 216 279 338 392
#     4  12  20  40  66  94 124 170 222 276 328 400
#     4  10  22  39  64  92 127 171 222 270 331 403
#     4  11  24  41  61  94 135 172 220 269 333 404
#     4  12  20  41  69  91 125 180 222 275 336 402
#     4  10  21  40  65  93 123 164 225 273 329 403
#     4  11  23  42  66  94 130 172 216 277 334 399
#
# _framework density 20.560278
#
# number of rings (size 3 to 8) (size 9 to 14) (size 15 to 20)
#    0.000    1.067    4.000    2.800    0.000    4.267 
#    4.800    1.333    0.000    0.000    0.000    0.000 
#    0.000    0.000    0.000    0.000    0.000    0.000 
#
# Total GULP energy -167514.313142 kJ/mol
# GULP energy per Si atom -5583.810438 kJ/mol
# Density = 2.051348 g / cm^3
# Si number density = 20.560278 Si / 1000 Ang^3
#
#
#
# Elastic Constant Matrix: (Units=GPa)
#
#
# Indices 1 2 3 4 5 6 
#
# 1 93.1559 3.4831 20.8522 0.0000 0.0000 0.0000
# 2 3.4831 51.3641 15.9366 0.0000 0.0000 0.0000
# 3 20.8522 15.9366 91.6783 0.0000 0.0000 0.0000
# 4 0.0000 0.0000 0.0000 20.7762 0.0000 0.0000
# 5 0.0000 0.0000 0.0000 0.0000 18.0623 0.0000
# 6 0.0000 0.0000 0.0000 0.0000 0.0000 30.3637
#
#
#
# Elastic Compliance Matrix: (Units=1/GPa)
#
#
# Indices 1 2 3 4 5 6 
#
# 1 0.011311 0.000033 -0.002578 0.000000 0.000000 0.000000
# 2 0.000033 0.020579 -0.003585 0.000000 0.000000 0.000000
# 3 -0.002578 -0.003585 0.012117 0.000000 0.000000 0.000000
# 4 0.000000 0.000000 0.000000 0.048132 0.000000 0.000000
# 5 0.000000 0.000000 0.000000 0.000000 0.055364 0.000000
# 6 0.000000 0.000000 0.000000 0.000000 0.000000 0.032934
#
#
# Mechanical properties :
#
#
# Convention : Reuss Voigt Hill
#
# Bulk Modulus (GPa) = 31.49951 35.19355 33.34653
# Shear Modulus (GPa) = 24.59675 26.90222 25.74948
#
# Velocity S-wave (km/s) = 3.46254 3.62118 3.54275
# Velocity P-wave (km/s) = 5.59816 5.88544 5.74360
#
# Compressibility (1/GPa) = 0.03174652
#
# Stress axis : x y z
#
# Youngs Moduli (GPa) = 88.41262 48.59364 82.52670
#
# Poissons Ratio (x) = -0.00160 0.21278
# Poissons Ratio (y) = -0.00292 0.29584
# Poissons Ratio (z) = 0.22796 0.17420
#
# Static dielectric constant tensor:
#      x y z
#    x 1.721450 0.000000 0.000000 
#    y 0.000000 1.768610 0.000000 
#    z 0.000000 0.000000 1.750980 
# 
# From -- ./inp_files/8790.got.cif
#   From: 2010.05.17/outbox.cif.g08.bks.cpg/sg41_5_cif.got.tgz:8790.got - 2010.06.03 18:54:24.
