data_PCOD9366293
_publ_section_title
;
Structure prediction by ZEFSAII (Michael W. Deem and Ramdas Pophale) SiO2 
 PCOD9366293
Probable space group: A B A 2
;
_chemical_formula_sum "Si O2"
_cell_formula_units_Z 64
_cell_length_a 7.927556
_cell_length_b 18.404913
_cell_length_c 20.921892
_cell_angle_alpha 90.000000
_cell_angle_beta 90.000000
_cell_angle_gamma 90.000000
_cell_volume 3052.629124
_symmetry_space_group_name_H-M "A B A 2"
_symmetry_group_IT_number 41
_symmetry_cell_setting 'orthorhombic'
loop_
_space_group_symop_operation_xyz
x,y,z
-x,-y,z
1/2-x,y,1/2+z
1/2+x,-y,1/2+z
x,1/2+y,1/2+z
-x,1/2-y,1/2+z
1/2-x,1/2+y,z
1/2+x,1/2-y,z
loop_
_atom_site_type_symbol
_atom_site_label
_atom_site_fract_x
_atom_site_fract_y
_atom_site_fract_z
Si Si1 0.665658 0.595822 0.518900
Si Si2 0.985720 0.085544 0.936278
Si Si3 0.675660 0.035885 0.235845
Si Si4 0.854661 0.903011 0.174499
Si Si5 0.715076 0.425147 0.537895
Si Si6 0.280605 0.354454 0.144064
Si Si7 0.704248 0.274002 0.746258
Si Si8 0.108728 0.836776 0.814763
O O1 0.796510 0.601694 0.461253
O O2 0.704562 0.513116 0.542643
O O3 0.464995 0.600011 0.509449
O O4 0.722547 0.654173 0.571963
O O5 0.996797 0.138760 0.876045
O O6 0.000000 0.000000 0.918126
O O7 0.127555 0.094966 0.991657
O O8 0.650440 0.088927 0.175490
O O9 0.716090 0.092711 0.291907
O O10 0.500000 0.000000 0.253406
O O11 0.804019 0.973959 0.214664
O O12 0.742217 0.897728 0.110226
O O13 0.828164 0.836334 0.222276
O O14 0.043414 0.897690 0.148239
O O15 0.300903 0.283882 0.188020
O O16 0.765377 0.231123 0.809566
O O17 0.529270 0.312844 0.761997
#
# Coordination Sequence:
#
# PCOD9366293 Si02
#       8
#     8   8   8   8   8   8   8   8
#     4  10  20  38  64 100 134 162 214 274 339 391
#     4  10  22  42  68  94 126 171 228 275 325 390
#     4  11  21  34  64  96 124 168 216 269 331 387
#     4  12  21  37  64 100 135 167 214 276 342 402
#     4  10  21  36  66 102 129 166 207 284 340 388
#     4  11  22  37  61  99 137 168 209 271 338 410
#     4  11  25  41  64  90 133 176 217 270 335 395
#     4  11  24  46  62  91 130 181 223 269 326 402
#
# _framework density 20.965534999999999
#
# number of rings (size 3 to 8) (size 9 to 14) (size 15 to 20)
#    0.000    1.250    5.000    1.500    1.750    0.000 
#    2.250    1.250   11.000    0.000    0.000    0.000 
#    0.000    0.000    0.000    0.000    0.000    0.000 
#
# Total GULP energy -178434.310362 kJ/mol
# GULP energy per Si atom -5576.072199 kJ/mol
# Density = 2.091782 g / cm^3
# Si number density = 20.965535 Si / 1000 Ang^3
#
#
#
# Elastic Constant Matrix: (Units=GPa)
#
#
# Indices 1 2 3 4 5 6 
#
# 1 103.5935 30.0773 22.8453 0.0000 0.0000 0.0000
# 2 30.0773 83.9212 39.6967 0.0000 0.0000 0.0000
# 3 22.8453 39.6967 70.1991 0.0000 0.0000 0.0000
# 4 0.0000 0.0000 0.0000 30.6119 0.0000 0.0000
# 5 0.0000 0.0000 0.0000 0.0000 23.9478 0.0000
# 6 0.0000 0.0000 0.0000 0.0000 0.0000 28.3917
#
#
#
# Elastic Compliance Matrix: (Units=1/GPa)
#
#
# Indices 1 2 3 4 5 6 
#
# 1 0.010945 -0.003055 -0.001834 0.000000 0.000000 0.000000
# 2 -0.003055 0.017120 -0.008687 0.000000 0.000000 0.000000
# 3 -0.001834 -0.008687 0.019754 0.000000 0.000000 0.000000
# 4 0.000000 0.000000 0.000000 0.032667 0.000000 0.000000
# 5 0.000000 0.000000 0.000000 0.000000 0.041757 0.000000
# 6 0.000000 0.000000 0.000000 0.000000 0.000000 0.035222
#
#
# Mechanical properties :
#
#
# Convention : Reuss Voigt Hill
#
# Bulk Modulus (GPa) = 48.38669 49.21692 48.80180
# Shear Modulus (GPa) = 26.10883 27.59659 26.85271
#
# Velocity S-wave (km/s) = 3.53274 3.63200 3.58271
# Velocity P-wave (km/s) = 6.30631 6.41207 6.35941
#
# Compressibility (1/GPa) = 0.02066684
#
# Stress axis : x y z
#
# Youngs Moduli (GPa) = 91.36945 58.41142 50.62141
#
# Poissons Ratio (x) = 0.17844 0.09285
# Poissons Ratio (y) = 0.27912 0.43975
# Poissons Ratio (z) = 0.16760 0.50742
#
# Static dielectric constant tensor:
#      x y z
#    x 1.805310 0.000000 0.000000 
#    y 0.000000 1.763160 0.000000 
#    z 0.000000 0.000000 1.781670 
# 
# From -- ./inp_files/11301.got.cif
#   From: 2010.05.17/outbox.cif.g08.bks.cpg/sg41_6_cif.got.tgz:11301.got - 2010.06.03 18:54:24.
