data_PCOD9366050
_publ_section_title
;
Structure prediction by ZEFSAII (Michael W. Deem and Ramdas Pophale) SiO2 
 PCOD9366050
Probable space group: A B A 2
;
_chemical_formula_sum "Si O2"
_cell_formula_units_Z 56
_cell_length_a 8.439309
_cell_length_b 18.658300
_cell_length_c 16.342629
_cell_angle_alpha 90.000000
_cell_angle_beta 90.000000
_cell_angle_gamma 90.000000
_cell_volume 2573.361991
_symmetry_space_group_name_H-M "A B A 2"
_symmetry_group_IT_number 41
_symmetry_cell_setting 'orthorhombic'
loop_
_space_group_symop_operation_xyz
x,y,z
-x,-y,z
1/2-x,y,1/2+z
1/2+x,-y,1/2+z
x,1/2+y,1/2+z
-x,1/2-y,1/2+z
1/2-x,1/2+y,z
1/2+x,1/2-y,z
loop_
_atom_site_type_symbol
_atom_site_label
_atom_site_fract_x
_atom_site_fract_y
_atom_site_fract_z
Si Si1 0.912488 0.063723 0.494180
Si Si2 0.034594 0.679133 0.103536
Si Si3 0.407172 0.893741 0.422565
Si Si4 0.042690 0.581168 0.820227
Si Si5 0.376834 0.131407 0.279027
Si Si6 0.842318 0.717285 0.863694
Si Si7 0.115471 0.695693 0.530609
O O1 0.739333 0.056949 0.452381
O O2 0.911022 0.131375 0.552593
O O3 0.036853 0.076461 0.419655
O O4 0.000000 0.000000 0.541070
O O5 0.046991 0.643403 0.191592
O O6 0.205993 0.679301 0.058439
O O7 0.972349 0.760527 0.101992
O O8 0.516753 0.911296 0.345171
O O9 0.319406 0.822288 0.388133
O O10 0.519191 0.873011 0.498463
O O11 0.207929 0.594498 0.777879
O O12 0.000000 0.500000 0.794308
O O13 0.937264 0.654181 0.815744
O O14 0.337156 0.211769 0.310476
O O15 0.894144 0.750764 0.951652
#
# Coordination Sequence:
#
# PCOD9366050 Si02
#       7
#     8   8   8   8   8   8   8
#     4  10  21  44  67  87 124 177 215 268 323 393
#     4  12  23  38  62  98 138 161 212 274 347 375
#     4  10  20  39  65  93 123 169 221 262 314 391
#     4  10  21  42  64  88 130 178 222 266 336 394
#     4  11  24  36  65 101 130 172 214 283 330 399
#     4  10  19  38  63  93 125 173 218 273 312 396
#     4  11  20  37  62  92 126 165 212 270 317 385
#
# _framework density 21.761416000000001
#
# number of rings (size 3 to 8) (size 9 to 14) (size 15 to 20)
#    0.000    1.429    4.286    3.429    4.000    0.000 
#    0.000   17.143    0.000    0.000    0.000    0.000 
#    0.000    0.000    0.000    0.000    0.000    0.000 
#
# Total GULP energy -155942.920903 kJ/mol
# GULP energy per Si atom -5569.390032 kJ/mol
# Density = 2.171189 g / cm^3
# Si number density = 21.761416 Si / 1000 Ang^3
#
#
#
# Elastic Constant Matrix: (Units=GPa)
#
#
# Indices 1 2 3 4 5 6 
#
# 1 72.9884 16.9595 2.6342 0.0000 0.0000 0.0000
# 2 16.9595 91.4681 12.4914 0.0000 0.0000 0.0000
# 3 2.6342 12.4914 34.5403 0.0000 0.0000 0.0000
# 4 0.0000 0.0000 0.0000 3.3407 0.0000 0.0000
# 5 0.0000 0.0000 0.0000 0.0000 10.2521 0.0000
# 6 0.0000 0.0000 0.0000 0.0000 0.0000 24.3396
#
#
#
# Elastic Compliance Matrix: (Units=1/GPa)
#
#
# Indices 1 2 3 4 5 6 
#
# 1 0.014318 -0.002636 -0.000139 0.000000 0.000000 0.000000
# 2 -0.002636 0.011986 -0.004134 0.000000 0.000000 0.000000
# 3 -0.000139 -0.004134 0.030457 0.000000 0.000000 0.000000
# 4 0.000000 0.000000 0.000000 0.299341 0.000000 0.000000
# 5 0.000000 0.000000 0.000000 0.000000 0.097541 0.000000
# 6 0.000000 0.000000 0.000000 0.000000 0.000000 0.041085
#
#
# Mechanical properties :
#
#
# Convention : Reuss Voigt Hill
#
# Bulk Modulus (GPa) = 23.28563 29.24078 26.26321
# Shear Modulus (GPa) = 9.56278 18.71391 14.13834
#
# Velocity S-wave (km/s) = 2.09855 2.93569 2.55168
# Velocity P-wave (km/s) = 4.07376 4.99571 4.55811
#
# Compressibility (1/GPa) = 0.04294493
#
# Stress axis : x y z
#
# Youngs Moduli (GPa) = 69.84078 83.43049 32.83293
#
# Poissons Ratio (x) = 0.21991 0.00456
# Poissons Ratio (y) = 0.18409 0.13572
# Poissons Ratio (z) = 0.00969 0.34488
#
# Static dielectric constant tensor:
#      x y z
#    x 1.830600 0.000000 0.000000 
#    y 0.000000 2.032270 0.000000 
#    z 0.000000 0.000000 1.808160 
# 
# From -- ./inp_files/7485.got.cif
#   From: 2010.05.17/outbox.cif.g08.bks.cpg/sg41_4_cif.got.tgz:7485.got - 2010.06.03 18:54:24.
