data_PCOD9366799
_publ_section_title
;
Structure prediction by ZEFSAII (Michael W. Deem and Ramdas Pophale) SiO2 
 PCOD9366799
Probable space group: A B A 2
;
_chemical_formula_sum "Si O2"
_cell_formula_units_Z 32
_cell_length_a 5.657301
_cell_length_b 21.510197
_cell_length_c 9.228987
_cell_angle_alpha 90.000000
_cell_angle_beta 90.000000
_cell_angle_gamma 90.000000
_cell_volume 1123.072281
_symmetry_space_group_name_H-M "A B A 2"
_symmetry_group_IT_number 41
_symmetry_cell_setting 'orthorhombic'
loop_
_space_group_symop_operation_xyz
x,y,z
-x,-y,z
1/2-x,y,1/2+z
1/2+x,-y,1/2+z
x,1/2+y,1/2+z
-x,1/2-y,1/2+z
1/2-x,1/2+y,z
1/2+x,1/2-y,z
loop_
_atom_site_type_symbol
_atom_site_label
_atom_site_fract_x
_atom_site_fract_y
_atom_site_fract_z
Si Si1 0.000000 0.000000 0.006510
Si Si2 0.890260 0.321164 0.710214
Si Si3 0.768785 0.102206 0.363908
Si Si4 0.500000 0.000000 0.037761
Si Si5 0.503387 0.197903 0.026806
O O1 0.237541 0.003668 0.102860
O O2 0.954452 0.058791 0.898201
O O3 0.941155 0.259335 0.617216
O O4 0.645704 0.343958 0.640640
O O5 0.103221 0.371001 0.721296
O O6 0.266455 0.335421 0.459574
O O7 0.144842 0.201001 0.376539
O O8 0.972884 0.059434 0.434633
#
# Coordination Sequence:
#
# PCOD9366799 Si02
#       5
#     4   8   8   4   8
#     4   8  16  40  68 116 148 204 282 338 426 486
#     4  10  21  41  65 113 164 221 278 354 444 535
#     4   8  20  36  74 106 158 212 270 361 414 524
#     4   8  16  40  68 112 152 204 278 342 422 500
#     4  10  21  41  65 113 164 221 278 354 444 535
#
# _framework density 28.493271
#
# number of rings (size 3 to 8) (size 9 to 14) (size 15 to 20)
#    3.000    0.000    0.000    1.500    0.000    0.000 
#    9.000    0.000    0.000    6.000    0.000    8.750 
#    0.000    0.000    0.000    0.000    0.000    0.000 
#
# Total GULP energy -89125.030023 kJ/mol
# GULP energy per Si atom -5570.314376 kJ/mol
# Density = 2.842842 g / cm^3
# Si number density = 28.493271 Si / 1000 Ang^3
#
#
#
# Elastic Constant Matrix: (Units=GPa)
#
#
# Indices 1 2 3 4 5 6 
#
# 1 174.0006 12.1066 8.8274 0.0000 0.0000 0.0000
# 2 12.1066 121.9136 13.6204 0.0000 0.0000 0.0000
# 3 8.8274 13.6204 97.7643 0.0000 0.0000 0.0000
# 4 0.0000 0.0000 0.0000 29.8151 0.0000 0.0000
# 5 0.0000 0.0000 0.0000 0.0000 43.8795 0.0000
# 6 0.0000 0.0000 0.0000 0.0000 0.0000 59.0768
#
#
#
# Elastic Compliance Matrix: (Units=1/GPa)
#
#
# Indices 1 2 3 4 5 6 
#
# 1 0.005807 -0.000526 -0.000451 0.000000 0.000000 0.000000
# 2 -0.000526 0.008380 -0.001120 0.000000 0.000000 0.000000
# 3 -0.000451 -0.001120 0.010425 0.000000 0.000000 0.000000
# 4 0.000000 0.000000 0.000000 0.033540 0.000000 0.000000
# 5 0.000000 0.000000 0.000000 0.000000 0.022790 0.000000
# 6 0.000000 0.000000 0.000000 0.000000 0.000000 0.016927
#
#
# Mechanical properties :
#
#
# Convention : Reuss Voigt Hill
#
# Bulk Modulus (GPa) = 48.97739 51.42081 50.19910
# Shear Modulus (GPa) = 45.92677 50.49590 48.21133
#
# Velocity S-wave (km/s) = 4.01914 4.21432 4.11789
# Velocity P-wave (km/s) = 6.22610 6.46270 6.34551
#
# Compressibility (1/GPa) = 0.02041759
#
# Stress axis : x y z
#
# Youngs Moduli (GPa) = 172.21779 119.33300 95.91929
#
# Poissons Ratio (x) = 0.06280 0.04326
# Poissons Ratio (y) = 0.09063 0.10743
# Poissons Ratio (z) = 0.07767 0.13365
#
# Static dielectric constant tensor:
#      x y z
#    x 2.597530 0.000000 0.000000 
#    y 0.000000 2.400820 0.000000 
#    z 0.000000 0.000000 2.185400 
# 
# From -- ./inp_files/4103.got.cif
#   From: 2010.05.17/outbox.cif.g08.bks.cpg/sg41_3_cif.got.tgz:4103.got - 2010.06.03 18:54:24.
