data_PCOD9366750
_publ_section_title
;
Structure prediction by ZEFSAII (Michael W. Deem and Ramdas Pophale) SiO2 
 PCOD9366750
Probable space group: A B A 2
;
_chemical_formula_sum "Si O2"
_cell_formula_units_Z 44
_cell_length_a 9.627855
_cell_length_b 13.888760
_cell_length_c 15.964532
_cell_angle_alpha 90.000000
_cell_angle_beta 90.000000
_cell_angle_gamma 90.000000
_cell_volume 2134.760734
_symmetry_space_group_name_H-M "A B A 2"
_symmetry_group_IT_number 41
_symmetry_cell_setting 'orthorhombic'
loop_
_space_group_symop_operation_xyz
x,y,z
-x,-y,z
1/2-x,y,1/2+z
1/2+x,-y,1/2+z
x,1/2+y,1/2+z
-x,1/2-y,1/2+z
1/2-x,1/2+y,z
1/2+x,1/2-y,z
loop_
_atom_site_type_symbol
_atom_site_label
_atom_site_fract_x
_atom_site_fract_y
_atom_site_fract_z
Si Si1 0.500000 0.500000 0.721860
Si Si2 0.326500 0.318299 0.182864
Si Si3 0.911267 0.191659 0.416227
Si Si4 0.968072 0.674706 0.104467
Si Si5 0.710069 0.527343 0.305062
Si Si6 0.808890 0.302939 0.835662
O O1 0.466693 0.588067 0.659170
O O2 0.627453 0.531352 0.780309
O O3 0.196940 0.328713 0.120686
O O4 0.457703 0.269290 0.140436
O O5 0.360401 0.420458 0.225384
O O6 0.260790 0.251769 0.257211
O O7 0.981347 0.171206 0.504988
O O8 0.839372 0.094263 0.381473
O O9 0.791562 0.272341 0.412243
O O10 0.034232 0.227740 0.355018
O O11 0.681335 0.416434 0.321042
#
# Coordination Sequence:
#
# PCOD9366750 Si02
#       6
#     4   8   8   8   8   8
#     4  10  22  40  66  88 130 172 224 266 328 402
#     4  10  21  40  66  88 126 170 221 262 332 392
#     4  11  25  38  65  94 133 165 221 270 352 384
#     4  11  22  41  61  94 128 169 212 282 334 389
#     4  10  22  39  66  94 121 176 222 267 320 411
#     4  11  22  42  63  93 127 172 219 277 318 419
#
# _framework density 20.611208000000001
#
# number of rings (size 3 to 8) (size 9 to 14) (size 15 to 20)
#    0.000    1.455    1.818    3.818    7.636    0.000 
#    0.000    0.000    0.000    4.364    0.000    0.000 
#    0.000    0.000    0.000    0.000    0.000    0.000 
#
# Total GULP energy -122815.834835 kJ/mol
# GULP energy per Si atom -5582.537947 kJ/mol
# Density = 2.056430 g / cm^3
# Si number density = 20.611208 Si / 1000 Ang^3
#
#
#
# Elastic Constant Matrix: (Units=GPa)
#
#
# Indices 1 2 3 4 5 6 
#
# 1 95.5549 33.5805 31.8830 0.0000 0.0000 0.0000
# 2 33.5805 102.0330 5.8209 0.0000 0.0000 0.0000
# 3 31.8830 5.8209 73.9861 0.0000 0.0000 0.0000
# 4 0.0000 0.0000 0.0000 18.9029 0.0000 0.0000
# 5 0.0000 0.0000 0.0000 0.0000 31.5354 0.0000
# 6 0.0000 0.0000 0.0000 0.0000 0.0000 36.3799
#
#
#
# Elastic Compliance Matrix: (Units=1/GPa)
#
#
# Indices 1 2 3 4 5 6 
#
# 1 0.013829 -0.004230 -0.005627 0.000000 0.000000 0.000000
# 2 -0.004230 0.011139 0.000947 0.000000 0.000000 0.000000
# 3 -0.005627 0.000947 0.015866 0.000000 0.000000 0.000000
# 4 0.000000 0.000000 0.000000 0.052902 0.000000 0.000000
# 5 0.000000 0.000000 0.000000 0.000000 0.031710 0.000000
# 6 0.000000 0.000000 0.000000 0.000000 0.000000 0.027488
#
#
# Mechanical properties :
#
#
# Convention : Reuss Voigt Hill
#
# Bulk Modulus (GPa) = 43.45226 46.01587 44.73406
# Shear Modulus (GPa) = 28.02274 30.71629 29.36951
#
# Velocity S-wave (km/s) = 3.69126 3.86459 3.77892
# Velocity P-wave (km/s) = 6.26856 6.50289 6.38680
#
# Compressibility (1/GPa) = 0.02301376
#
# Stress axis : x y z
#
# Youngs Moduli (GPa) = 72.31049 89.77435 63.02678
#
# Poissons Ratio (x) = 0.37978 0.35463
# Poissons Ratio (y) = 0.30590 -0.05966
# Poissons Ratio (z) = 0.40686 -0.08499
#
# Static dielectric constant tensor:
#      x y z
#    x 1.755700 0.000000 0.000000 
#    y 0.000000 1.740860 0.000000 
#    z 0.000000 0.000000 1.766410 
# 
# From -- ./inp_files/7856.got.cif
#   From: 2010.05.17/outbox.cif.g08.bks.cpg/sg41_4_cif.got.tgz:7856.got - 2010.06.03 18:54:24.
