data_PCOD9366210
_publ_section_title
;
Structure prediction by ZEFSAII (Michael W. Deem and Ramdas Pophale) SiO2 
 PCOD9366210
Probable space group: A B A 2
;
_chemical_formula_sum "Si O2"
_cell_formula_units_Z 60
_cell_length_a 13.275492
_cell_length_b 9.073730
_cell_length_c 24.048583
_cell_angle_alpha 90.000000
_cell_angle_beta 90.000000
_cell_angle_gamma 90.000000
_cell_volume 2896.849743
_symmetry_space_group_name_H-M "A B A 2"
_symmetry_group_IT_number 41
_symmetry_cell_setting 'orthorhombic'
loop_
_space_group_symop_operation_xyz
x,y,z
-x,-y,z
1/2-x,y,1/2+z
1/2+x,-y,1/2+z
x,1/2+y,1/2+z
-x,1/2-y,1/2+z
1/2-x,1/2+y,z
1/2+x,1/2-y,z
loop_
_atom_site_type_symbol
_atom_site_label
_atom_site_fract_x
_atom_site_fract_y
_atom_site_fract_z
Si Si1 0.391800 0.972412 0.280570
Si Si2 0.254567 0.729501 0.417715
Si Si3 0.620651 0.855325 0.745360
Si Si4 0.810227 0.518883 0.843857
Si Si5 0.500000 0.500000 0.166464
Si Si6 0.684024 0.621406 0.101625
Si Si7 0.813381 0.417909 0.167697
Si Si8 0.124045 0.985010 0.979085
O O1 0.373319 0.799161 0.274704
O O2 0.500000 0.000000 0.306265
O O3 0.300348 0.020709 0.319163
O O4 0.387946 0.042481 0.218396
O O5 0.324560 0.604183 0.390561
O O6 0.330542 0.855634 0.440119
O O7 0.179531 0.638241 0.459363
O O8 0.190143 0.822082 0.372092
O O9 0.621834 0.986947 0.790299
O O10 0.523561 0.864297 0.706626
O O11 0.716144 0.873005 0.704867
O O12 0.594977 0.531213 0.130160
O O13 0.785476 0.560574 0.130623
O O14 0.667732 0.788051 0.123239
O O15 0.668885 0.573850 0.038104
O O16 0.000000 0.000000 0.979704
#
# Coordination Sequence:
#
# PCOD9366210 Si02
#       8
#     8   8   8   8   4   8   8   8
#     4  11  21  35  61  94 131 171 218 260 323 418
#     4  10  23  44  66  93 128 176 225 295 342 393
#     4  10  20  37  54  93 127 169 201 251 318 411
#     4  10  21  40  62  86 130 168 212 267 339 396
#     4  10  22  34  60  88 132 150 204 254 318 390
#     4  11  20  40  62  90 120 172 205 270 328 386
#     4  10  21  35  61  87 133 165 206 252 326 398
#     4  11  24  46  72  96 131 174 241 291 348 408
#
# _framework density 20.712154000000002
#
# number of rings (size 3 to 8) (size 9 to 14) (size 15 to 20)
#    0.000    1.600    3.333    1.600    0.000    3.200 
#    2.400    2.000    0.000    1.600    0.000    0.000 
#    0.000    0.000    0.000    0.000    0.000    0.000 
#
# Total GULP energy -167044.699030 kJ/mol
# GULP energy per Si atom -5568.156634 kJ/mol
# Density = 2.066501 g / cm^3
# Si number density = 20.712154 Si / 1000 Ang^3
#
#
#
# Elastic Constant Matrix: (Units=GPa)
#
#
# Indices 1 2 3 4 5 6 
#
# 1 37.4221 -8.7833 9.6916 0.0000 0.0000 0.0000
# 2 -8.7833 89.2406 24.6504 0.0000 0.0000 0.0000
# 3 9.6916 24.6504 82.5666 0.0000 0.0000 0.0000
# 4 0.0000 0.0000 0.0000 29.5084 0.0000 0.0000
# 5 0.0000 0.0000 0.0000 0.0000 -61.8961 0.0000
# 6 0.0000 0.0000 0.0000 0.0000 0.0000 20.5516
#
#
#
# Elastic Compliance Matrix: (Units=1/GPa)
#
#
# Indices 1 2 3 4 5 6 
#
# 1 0.028886 0.004119 -0.004620 0.000000 0.000000 0.000000
# 2 0.004119 0.012800 -0.004305 0.000000 0.000000 0.000000
# 3 -0.004620 -0.004305 0.013939 0.000000 0.000000 0.000000
# 4 0.000000 0.000000 0.000000 0.033889 0.000000 0.000000
# 5 0.000000 0.000000 0.000000 0.000000 -0.016156 0.000000
# 6 0.000000 0.000000 0.000000 0.000000 0.000000 0.048658
#
#
# Mechanical properties :
#
#
# Convention : Reuss Voigt Hill
#
# Bulk Modulus (GPa) = 21.73319 28.92741 25.33030
# Shear Modulus (GPa) = 34.02159 9.87746 21.94953
#
# Velocity S-wave (km/s) = 4.05729 2.18616 3.25890
# Velocity P-wave (km/s) = 5.69776 4.51321 5.13973
#
# Compressibility (1/GPa) = 0.04601257
#
# Stress axis : x y z
#
# Youngs Moduli (GPa) = 34.61931 78.12344 71.74088
#
# Poissons Ratio (x) = -0.32181 0.33147
# Poissons Ratio (y) = -0.14261 0.30885
# Poissons Ratio (z) = 0.15995 0.33633
#
# Static dielectric constant tensor:
#      x y z
#    x 1.756600 0.000000 0.000000 
#    y 0.000000 1.777090 0.000000 
#    z 0.000000 0.000000 1.801560 
# 
# From -- ./inp_files/12201.got.cif
#   From: 2010.05.17/outbox.cif.g08.bks.cpg/sg41_7_cif.got.tgz:12201.got - 2010.06.03 18:54:24.
