data_PCOD9366854
_publ_section_title
;
Structure prediction by ZEFSAII (Michael W. Deem and Ramdas Pophale) SiO2 
 PCOD9366854
Probable space group: A B A 2
;
_chemical_formula_sum "Si O2"
_cell_formula_units_Z 60
_cell_length_a 25.558351
_cell_length_b 10.622267
_cell_length_c 9.307850
_cell_angle_alpha 90.000000
_cell_angle_beta 90.000000
_cell_angle_gamma 90.000000
_cell_volume 2526.966122
_symmetry_space_group_name_H-M "A B A 2"
_symmetry_group_IT_number 41
_symmetry_cell_setting 'orthorhombic'
loop_
_space_group_symop_operation_xyz
x,y,z
-x,-y,z
1/2-x,y,1/2+z
1/2+x,-y,1/2+z
x,1/2+y,1/2+z
-x,1/2-y,1/2+z
1/2-x,1/2+y,z
1/2+x,1/2-y,z
loop_
_atom_site_type_symbol
_atom_site_label
_atom_site_fract_x
_atom_site_fract_y
_atom_site_fract_z
Si Si1 0.228377 0.893406 0.050060
Si Si2 0.000000 0.500000 0.340992
Si Si3 0.635428 0.983608 0.419465
Si Si4 0.944699 0.156011 0.054758
Si Si5 0.809326 0.044690 0.333534
Si Si6 0.099319 0.944069 0.645090
Si Si7 0.091489 0.791801 0.357691
Si Si8 0.852015 0.326024 0.974432
O O1 0.233436 0.927066 0.214736
O O2 0.192031 0.769866 0.031262
O O3 0.192636 0.006128 0.984683
O O4 0.283578 0.895496 0.974593
O O5 0.993510 0.618331 0.452396
O O6 0.951892 0.508188 0.231029
O O7 0.634074 0.084326 0.286412
O O8 0.616428 0.846195 0.373448
O O9 0.592309 0.033165 0.533125
O O10 0.949713 0.192633 0.223565
O O11 0.909057 0.261117 0.977232
O O12 0.826105 0.899249 0.341616
O O13 0.861112 0.122196 0.300224
O O14 0.132964 0.053961 0.572273
O O15 0.081897 0.849133 0.518021
#
# Coordination Sequence:
#
# PCOD9366854 Si02
#       8
#     8   4   8   8   8   8   8   8
#     4  11  25  40  64  99 137 180 240 281 331 410
#     4  10  24  44  68 108 128 168 248 280 340 438
#     4  10  21  42  65  91 136 183 217 276 347 400
#     4  10  21  46  68  96 136 174 222 286 345 411
#     4  11  25  40  63  99 130 185 234 278 333 408
#     4  10  22  43  68  99 134 176 226 282 351 412
#     4  11  22  43  68  94 138 184 219 278 361 399
#     4  10  22  45  68  90 146 181 216 291 352 397
#
# _framework density 23.743887000000001
#
# number of rings (size 3 to 8) (size 9 to 14) (size 15 to 20)
#    0.000    1.600    4.000    0.000    5.600    4.800 
#    4.800    0.000    0.000    0.000    0.000    0.000 
#    0.000    0.000    0.000    0.000    0.000    0.000 
#
# Total GULP energy -167032.703759 kJ/mol
# GULP energy per Si atom -5567.756792 kJ/mol
# Density = 2.368985 g / cm^3
# Si number density = 23.743887 Si / 1000 Ang^3
#
#
#
# Elastic Constant Matrix: (Units=GPa)
#
#
# Indices 1 2 3 4 5 6 
#
# 1 39.8812 -5.7192 0.9542 0.0000 0.0000 0.0000
# 2 -5.7192 97.4883 39.6953 0.0000 0.0000 0.0000
# 3 0.9542 39.6953 124.1050 0.0000 0.0000 0.0000
# 4 0.0000 0.0000 0.0000 20.1479 0.0000 0.0000
# 5 0.0000 0.0000 0.0000 0.0000 44.6558 0.0000
# 6 0.0000 0.0000 0.0000 0.0000 0.0000 14.1426
#
#
#
# Elastic Compliance Matrix: (Units=1/GPa)
#
#
# Indices 1 2 3 4 5 6 
#
# 1 0.025351 0.001801 -0.000771 0.000000 0.000000 0.000000
# 2 0.001801 0.011922 -0.003827 0.000000 0.000000 0.000000
# 3 -0.000771 -0.003827 0.009288 0.000000 0.000000 0.000000
# 4 0.000000 0.000000 0.000000 0.049633 0.000000 0.000000
# 5 0.000000 0.000000 0.000000 0.000000 0.022394 0.000000
# 6 0.000000 0.000000 0.000000 0.000000 0.000000 0.070709
#
#
# Mechanical properties :
#
#
# Convention : Reuss Voigt Hill
#
# Bulk Modulus (GPa) = 24.40997 36.81499 30.61248
# Shear Modulus (GPa) = 23.97566 30.89220 27.43393
#
# Velocity S-wave (km/s) = 3.18112 3.61093 3.40282
# Velocity P-wave (km/s) = 4.87807 5.73793 5.32538
#
# Compressibility (1/GPa) = 0.04096687
#
# Stress axis : x y z
#
# Youngs Moduli (GPa) = 39.44580 83.88144 107.66935
#
# Poissons Ratio (x) = -0.15109 0.08302
# Poissons Ratio (y) = -0.07105 0.41205
# Poissons Ratio (z) = 0.03041 0.32101
#
# Static dielectric constant tensor:
#      x y z
#    x 1.907650 0.000000 0.000000 
#    y 0.000000 1.947200 0.000000 
#    z 0.000000 0.000000 2.050770 
# 
# From -- ./inp_files/3958.got.cif
#   From: 2010.05.17/outbox.cif.g08.bks.cpg/sg41_2_cif.got.tgz:3958.got - 2010.06.03 18:54:24.
