data_PCOD9366410
_publ_section_title
;
Structure prediction by ZEFSAII (Michael W. Deem and Ramdas Pophale) SiO2 
 PCOD9366410
Probable space group: A B A 2
;
_chemical_formula_sum "Si O2"
_cell_formula_units_Z 52
_cell_length_a 14.410689
_cell_length_b 15.082905
_cell_length_c 10.045824
_cell_angle_alpha 90.000000
_cell_angle_beta 90.000000
_cell_angle_gamma 90.000000
_cell_volume 2183.510610
_symmetry_space_group_name_H-M "A B A 2"
_symmetry_group_IT_number 41
_symmetry_cell_setting 'orthorhombic'
loop_
_space_group_symop_operation_xyz
x,y,z
-x,-y,z
1/2-x,y,1/2+z
1/2+x,-y,1/2+z
x,1/2+y,1/2+z
-x,1/2-y,1/2+z
1/2-x,1/2+y,z
1/2+x,1/2-y,z
loop_
_atom_site_type_symbol
_atom_site_label
_atom_site_fract_x
_atom_site_fract_y
_atom_site_fract_z
Si Si1 0.198477 0.492385 0.343990
Si Si2 0.338229 0.537914 0.130252
Si Si3 0.000000 0.000000 0.289095
Si Si4 0.610068 0.778665 0.497836
Si Si5 0.862092 0.189219 0.747154
Si Si6 0.575633 0.329311 0.447939
Si Si7 0.918865 0.364075 0.240243
O O1 0.271233 0.546429 0.255688
O O2 0.212629 0.500798 0.500632
O O3 0.197302 0.391288 0.301108
O O4 0.102553 0.539645 0.301210
O O5 0.417248 0.474284 0.189419
O O6 0.385254 0.628216 0.077180
O O7 0.966738 0.916903 0.377515
O O8 0.665323 0.714307 0.596295
O O9 0.507791 0.737240 0.487500
O O10 0.632501 0.798474 0.344530
O O11 0.862406 0.273017 0.846322
O O12 0.971118 0.157676 0.742302
O O13 0.617810 0.356352 0.589895
#
# Coordination Sequence:
#
# PCOD9366410 Si02
#       7
#     8   8   4   8   8   8   8
#     4  11  26  43  69 100 146 184 238 290 368 426
#     4  11  27  47  70 100 147 189 239 294 369 435
#     4  12  26  44  76 102 142 190 244 302 366 436
#     4   9  20  42  65  99 139 178 231 288 348 423
#     4  10  20  40  68 100 135 179 237 285 346 430
#     4  10  22  38  70 104 135 180 240 290 347 426
#     4   9  21  38  67 101 136 183 227 284 355 427
#
# _framework density 23.814858999999998
#
# number of rings (size 3 to 8) (size 9 to 14) (size 15 to 20)
#    0.000    1.846    1.538    0.462   12.923    0.000 
#    0.000   10.769    0.000    0.000    0.000    0.000 
#    0.000    0.000    0.000    0.000    0.000    0.000 
#
# Total GULP energy -145195.071998 kJ/mol
# GULP energy per Si atom -5584.425846 kJ/mol
# Density = 2.376066 g / cm^3
# Si number density = 23.814859 Si / 1000 Ang^3
#
#
#
# Elastic Constant Matrix: (Units=GPa)
#
#
# Indices 1 2 3 4 5 6 
#
# 1 57.0288 19.0477 32.9520 0.0000 0.0000 0.0000
# 2 19.0477 117.9005 48.4501 0.0000 0.0000 0.0000
# 3 32.9520 48.4501 190.6961 0.0000 0.0000 0.0000
# 4 0.0000 0.0000 0.0000 7.8524 0.0000 0.0000
# 5 0.0000 0.0000 0.0000 0.0000 24.7988 0.0000
# 6 0.0000 0.0000 0.0000 0.0000 0.0000 29.1998
#
#
#
# Elastic Compliance Matrix: (Units=1/GPa)
#
#
# Indices 1 2 3 4 5 6 
#
# 1 0.019898 -0.002012 -0.002927 0.000000 0.000000 0.000000
# 2 -0.002012 0.009674 -0.002110 0.000000 0.000000 0.000000
# 3 -0.002927 -0.002110 0.006286 0.000000 0.000000 0.000000
# 4 0.000000 0.000000 0.000000 0.127349 0.000000 0.000000
# 5 0.000000 0.000000 0.000000 0.000000 0.040325 0.000000
# 6 0.000000 0.000000 0.000000 0.000000 0.000000 0.034247
#
#
# Mechanical properties :
#
#
# Convention : Reuss Voigt Hill
#
# Bulk Modulus (GPa) = 45.95664 62.94721 54.45192
# Shear Modulus (GPa) = 19.29531 30.04858 24.67195
#
# Velocity S-wave (km/s) = 2.84953 3.55598 3.22217
# Velocity P-wave (km/s) = 5.49234 6.58401 6.06280
#
# Compressibility (1/GPa) = 0.02175964
#
# Stress axis : x y z
#
# Youngs Moduli (GPa) = 50.25539 103.37068 159.08588
#
# Poissons Ratio (x) = 0.20796 0.46569
# Poissons Ratio (y) = 0.10110 0.33571
# Poissons Ratio (z) = 0.14711 0.21813
#
# Static dielectric constant tensor:
#      x y z
#    x 1.971910 0.000000 0.000000 
#    y 0.000000 1.975670 0.000000 
#    z 0.000000 0.000000 1.917950 
# 
# From -- ./inp_files/3118.got.cif
#   From: 2010.05.17/outbox.cif.g08.bks.cpg/sg41_2_cif.got.tgz:3118.got - 2010.06.03 18:54:24.
