data_PCOD9366327
_publ_section_title
;
Structure prediction by ZEFSAII (Michael W. Deem and Ramdas Pophale) SiO2 
 PCOD9366327
Probable space group: A B A 2
;
_chemical_formula_sum "Si O2"
_cell_formula_units_Z 40
_cell_length_a 13.803418
_cell_length_b 9.214849
_cell_length_c 15.746029
_cell_angle_alpha 90.000000
_cell_angle_beta 90.000000
_cell_angle_gamma 90.000000
_cell_volume 2002.838401
_symmetry_space_group_name_H-M "A B A 2"
_symmetry_group_IT_number 41
_symmetry_cell_setting 'orthorhombic'
loop_
_space_group_symop_operation_xyz
x,y,z
-x,-y,z
1/2-x,y,1/2+z
1/2+x,-y,1/2+z
x,1/2+y,1/2+z
-x,1/2-y,1/2+z
1/2-x,1/2+y,z
1/2+x,1/2-y,z
loop_
_atom_site_type_symbol
_atom_site_label
_atom_site_fract_x
_atom_site_fract_y
_atom_site_fract_z
Si Si1 0.948180 0.153356 0.945850
Si Si2 0.286941 0.842229 0.312655
Si Si3 0.444772 0.847996 0.810029
Si Si4 0.116814 0.807544 0.131107
Si Si5 0.236782 0.580124 0.694368
O O1 0.844408 0.143889 0.899297
O O2 0.009857 0.254741 0.884393
O O3 0.936207 0.203084 0.042309
O O4 0.000000 0.000000 0.947060
O O5 0.171151 0.854892 0.325158
O O6 0.308570 0.691077 0.263879
O O7 0.307809 0.974542 0.248191
O O8 0.449677 0.784493 0.714237
O O9 0.500000 0.000000 0.809693
O O10 0.202109 0.688005 0.135378
O O11 0.164324 0.968769 0.146906
#
# Coordination Sequence:
#
# PCOD9366327 Si02
#       5
#     8   8   8   8   8
#     4  12  24  37  61  93 122 158 203 250 301 362
#     4  10  20  39  62  86 119 160 204 249 302 358
#     4  10  22  42  62  85 123 165 201 249 304 356
#     4  10  21  38  61  91 120 156 203 248 300 361
#     4   8  18  38  63  83 116 163 195 244 306 353
#
# _framework density 19.971657
#
# number of rings (size 3 to 8) (size 9 to 14) (size 15 to 20)
#    0.000    2.400    0.000    5.400    0.000    4.800 
#    0.000    9.000    0.000    0.000    0.000    0.000 
#    0.000    0.000    0.000    0.000    0.000    0.000 
#
# Total GULP energy -111586.076014 kJ/mol
# GULP energy per Si atom -5579.303801 kJ/mol
# Density = 1.992620 g / cm^3
# Si number density = 19.971657 Si / 1000 Ang^3
#
#
#
# Elastic Constant Matrix: (Units=GPa)
#
#
# Indices 1 2 3 4 5 6 
#
# 1 88.6135 17.0575 61.4405 0.0000 0.0000 0.0000
# 2 17.0575 94.1202 47.6135 0.0000 0.0000 0.0000
# 3 61.4405 47.6135 168.1892 0.0000 0.0000 0.0000
# 4 0.0000 0.0000 0.0000 35.9615 0.0000 0.0000
# 5 0.0000 0.0000 0.0000 0.0000 -190.3538 0.0000
# 6 0.0000 0.0000 0.0000 0.0000 0.0000 26.3535
#
#
#
# Elastic Compliance Matrix: (Units=1/GPa)
#
#
# Indices 1 2 3 4 5 6 
#
# 1 0.015113 0.000063 -0.005539 0.000000 0.000000 0.000000
# 2 0.000063 0.012401 -0.003534 0.000000 0.000000 0.000000
# 3 -0.005539 -0.003534 0.008969 0.000000 0.000000 0.000000
# 4 0.000000 0.000000 0.000000 0.027807 0.000000 0.000000
# 5 0.000000 0.000000 0.000000 0.000000 -0.005253 0.000000
# 6 0.000000 0.000000 0.000000 0.000000 0.000000 0.037946
#
#
# Mechanical properties :
#
#
# Convention : Reuss Voigt Hill
#
# Bulk Modulus (GPa) = 54.15767 67.01621 60.58694
# Shear Modulus (GPa) = 41.26878 -10.62035 15.32422
#
# Velocity S-wave (km/s) = 4.55066 -2.30852 2.77302
# Velocity P-wave (km/s) = 7.40186 5.15003 6.37614
#
# Compressibility (1/GPa) = 0.01846460
#
# Stress axis : x y z
#
# Youngs Moduli (GPa) = 66.16749 80.63933 111.49038
#
# Poissons Ratio (x) = -0.00508 0.61752
# Poissons Ratio (y) = -0.00417 0.39397
# Poissons Ratio (z) = 0.36649 0.28495
#
# Static dielectric constant tensor:
#      x y z
#    x 1.801690 0.000000 0.000000 
#    y 0.000000 1.722320 0.000000 
#    z 0.000000 0.000000 1.692340 
# 
# From -- ./inp_files/8214.got.cif
#   From: 2010.05.17/outbox.cif.g08.bks.cpg/sg41_5_cif.got.tgz:8214.got - 2010.06.03 18:54:24.
