data_PCOD9366012
_publ_section_title
;
Structure prediction by ZEFSAII (Michael W. Deem and Ramdas Pophale) SiO2 
 PCOD9366012
Probable space group: A B A 2
;
_chemical_formula_sum "Si O2"
_cell_formula_units_Z 32
_cell_length_a 14.142422
_cell_length_b 18.390922
_cell_length_c 5.137868
_cell_angle_alpha 90.000000
_cell_angle_beta 90.000000
_cell_angle_gamma 90.000000
_cell_volume 1336.319288
_symmetry_space_group_name_H-M "A B A 2"
_symmetry_group_IT_number 41
_symmetry_cell_setting 'orthorhombic'
loop_
_space_group_symop_operation_xyz
x,y,z
-x,-y,z
1/2-x,y,1/2+z
1/2+x,-y,1/2+z
x,1/2+y,1/2+z
-x,1/2-y,1/2+z
1/2-x,1/2+y,z
1/2+x,1/2-y,z
loop_
_atom_site_type_symbol
_atom_site_label
_atom_site_fract_x
_atom_site_fract_y
_atom_site_fract_z
Si Si1 0.695158 0.355594 0.535910
Si Si2 0.072809 0.932438 0.966503
Si Si3 0.386664 0.985205 0.959734
Si Si4 0.477235 0.709227 0.219060
O O1 0.782776 0.343370 0.338682
O O2 0.661678 0.439241 0.525296
O O3 0.614538 0.310089 0.390654
O O4 0.147352 0.958342 0.180418
O O5 0.021611 0.863042 0.088059
O O6 0.118202 0.925365 0.684426
O O7 0.000000 0.000000 0.924043
O O8 0.500000 0.000000 0.919501
O O9 0.539077 0.741760 0.460348
#
# Coordination Sequence:
#
# PCOD9366012 Si02
#       4
#     8   8   8   8
#     4  12  25  42  68 106 143 178 231 300 355 408
#     4  10  19  36  67  94 132 159 239 281 318 397
#     4  10  19  36  67  94 132 167 227 279 330 405
#     4  12  25  42  68 106 133 192 243 280 343 433
#
# _framework density 23.946373999999999
#
# number of rings (size 3 to 8) (size 9 to 14) (size 15 to 20)
#    0.000    1.000    5.000    4.500    7.000    0.000 
#    0.000    0.000    0.000   30.000    0.000    0.000 
#    0.000    0.000    0.000    0.000    0.000    0.000 
#
# Total GULP energy -89264.411110 kJ/mol
# GULP energy per Si atom -5579.025694 kJ/mol
# Density = 2.389187 g / cm^3
# Si number density = 23.946374 Si / 1000 Ang^3
#
#
#
# Elastic Constant Matrix: (Units=GPa)
#
#
# Indices 1 2 3 4 5 6 
#
# 1 56.4152 19.3346 -2.2326 0.0000 0.0000 0.0000
# 2 19.3346 84.2570 20.8307 0.0000 0.0000 0.0000
# 3 -2.2326 20.8307 161.7891 0.0000 0.0000 0.0000
# 4 0.0000 0.0000 0.0000 22.7816 0.0000 0.0000
# 5 0.0000 0.0000 0.0000 0.0000 25.6645 0.0000
# 6 0.0000 0.0000 0.0000 0.0000 0.0000 30.4494
#
#
#
# Elastic Compliance Matrix: (Units=1/GPa)
#
#
# Indices 1 2 3 4 5 6 
#
# 1 0.019356 -0.004656 0.000867 0.000000 0.000000 0.000000
# 2 -0.004656 0.013379 -0.001787 0.000000 0.000000 0.000000
# 3 0.000867 -0.001787 0.006423 0.000000 0.000000 0.000000
# 4 0.000000 0.000000 0.000000 0.043895 0.000000 0.000000
# 5 0.000000 0.000000 0.000000 0.000000 0.038964 0.000000
# 6 0.000000 0.000000 0.000000 0.000000 0.000000 0.032841
#
#
# Mechanical properties :
#
#
# Convention : Reuss Voigt Hill
#
# Bulk Modulus (GPa) = 35.70784 42.03630 38.87207
# Shear Modulus (GPa) = 28.51523 33.41436 30.96479
#
# Velocity S-wave (km/s) = 3.45453 3.73953 3.59986
# Velocity P-wave (km/s) = 5.55479 6.01980 5.79196
#
# Compressibility (1/GPa) = 0.02800505
#
# Stress axis : x y z
#
# Youngs Moduli (GPa) = 51.66449 74.74648 155.69309
#
# Poissons Ratio (x) = 0.34801 -0.13492
# Poissons Ratio (y) = 0.24054 0.27819
# Poissons Ratio (z) = -0.04477 0.13355
#
# Static dielectric constant tensor:
#      x y z
#    x 2.921880 0.000000 0.000000 
#    y 0.000000 2.023250 0.000000 
#    z 0.000000 0.000000 2.024330 
# 
# From -- ./inp_files/191.got.cif
#   From: 2010.05.17/outbox.cif.g08.bks.cpg/sg41_1_cif.got.tgz:191.got - 2010.06.03 18:54:24.
