data_PCOD9366944
_publ_section_title
;
Structure prediction by ZEFSAII (Michael W. Deem and Ramdas Pophale) SiO2 
 PCOD9366944
Probable space group: A B A 2
;
_chemical_formula_sum "Si O2"
_cell_formula_units_Z 52
_cell_length_a 12.365996
_cell_length_b 21.682485
_cell_length_c 8.867102
_cell_angle_alpha 90.000000
_cell_angle_beta 90.000000
_cell_angle_gamma 90.000000
_cell_volume 2377.496359
_symmetry_space_group_name_H-M "A B A 2"
_symmetry_group_IT_number 41
_symmetry_cell_setting 'orthorhombic'
loop_
_space_group_symop_operation_xyz
x,y,z
-x,-y,z
1/2-x,y,1/2+z
1/2+x,-y,1/2+z
x,1/2+y,1/2+z
-x,1/2-y,1/2+z
1/2-x,1/2+y,z
1/2+x,1/2-y,z
loop_
_atom_site_type_symbol
_atom_site_label
_atom_site_fract_x
_atom_site_fract_y
_atom_site_fract_z
Si Si1 0.500000 0.500000 0.788381
Si Si2 0.811254 0.506169 0.539102
Si Si3 0.168031 0.367924 0.620117
Si Si4 0.735502 0.218903 0.366624
Si Si5 0.942063 0.914765 0.219789
Si Si6 0.384938 0.090154 0.058946
Si Si7 0.708826 0.309895 0.108839
O O1 0.462805 0.557596 0.682201
O O2 0.605592 0.509607 0.896748
O O3 0.760337 0.573319 0.571888
O O4 0.882118 0.478040 0.677327
O O5 0.712819 0.458073 0.523098
O O6 0.203625 0.332162 0.768809
O O7 0.164242 0.317612 0.487708
O O8 0.057335 0.402262 0.649954
O O9 0.683202 0.263551 0.244783
O O10 0.804815 0.267621 0.462873
O O11 0.942204 0.902427 0.397672
O O12 0.871298 0.865308 0.129664
O O13 0.326348 0.154862 0.107112
#
# Coordination Sequence:
#
# PCOD9366944 Si02
#       7
#     4   8   8   8   8   8   8
#     4  12  26  42  70 116 134 186 246 286 376 434
#     4  11  24  45  69 105 146 184 232 294 370 425
#     4  11  25  42  66 101 144 180 228 294 349 417
#     4  10  24  43  68  97 137 190 229 284 351 410
#     4  11  23  43  72  97 138 181 231 296 346 426
#     4  11  26  43  77 102 140 189 233 300 354 431
#     4  10  21  47  70  97 136 178 246 278 347 419
#
# _framework density 21.871749000000001
#
# number of rings (size 3 to 8) (size 9 to 14) (size 15 to 20)
#    0.000    1.231    3.077    1.846    8.615    1.231 
#    2.769    0.000    0.000    0.000    0.000    0.000 
#    0.000    0.000    0.000    0.000    0.000    0.000 
#
# Total GULP energy -145008.698206 kJ/mol
# GULP energy per Si atom -5577.257623 kJ/mol
# Density = 2.182197 g / cm^3
# Si number density = 21.871749 Si / 1000 Ang^3
#
#
#
# Elastic Constant Matrix: (Units=GPa)
#
#
# Indices 1 2 3 4 5 6 
#
# 1 49.9401 25.3339 -2.0239 0.0000 0.0000 0.0000
# 2 25.3339 143.4156 19.9685 0.0000 0.0000 0.0000
# 3 -2.0239 19.9685 107.5098 0.0000 0.0000 0.0000
# 4 0.0000 0.0000 0.0000 -539.4680 0.0000 0.0000
# 5 0.0000 0.0000 0.0000 0.0000-1140.3709 0.0000
# 6 0.0000 0.0000 0.0000 0.0000 0.0000 5.9556
#
#
#
# Elastic Compliance Matrix: (Units=1/GPa)
#
#
# Indices 1 2 3 4 5 6 
#
# 1 0.022138 -0.004074 0.001173 0.000000 0.000000 0.000000
# 2 -0.004074 0.007908 -0.001545 0.000000 0.000000 0.000000
# 3 0.001173 -0.001545 0.009611 0.000000 0.000000 0.000000
# 4 0.000000 0.000000 0.000000 -0.001854 0.000000 0.000000
# 5 0.000000 0.000000 0.000000 0.000000 -0.000877 0.000000
# 6 0.000000 0.000000 0.000000 0.000000 0.000000 0.167910
#
#
# Mechanical properties :
#
#
# Convention : Reuss Voigt Hill
#
# Bulk Modulus (GPa) = 32.50509 43.04695 37.77602
# Shear Modulus (GPa) = 22.32319 -317.60421 -147.64051
#
# Velocity S-wave (km/s) = 3.19821 -12.06347 -8.22492
# Velocity P-wave (km/s) = 5.34154 13.20273 8.53757
#
# Compressibility (1/GPa) = 0.03076441
#
# Stress axis : x y z
#
# Youngs Moduli (GPa) = 45.17073 126.46085 104.05168
#
# Poissons Ratio (x) = 0.51521 -0.12210
# Poissons Ratio (y) = 0.18403 0.16080
# Poissons Ratio (z) = -0.05301 0.19544
#
# Static dielectric constant tensor:
#      x y z
#    x 1.819880 0.000000 0.000000 
#    y 0.000000 3.824620 0.000000 
#    z 0.000000 0.000000 1.840430 
# 
# From -- ./inp_files/2642.got.cif
#   From: 2010.05.17/outbox.cif.g08.bks.cpg/sg41_2_cif.got.tgz:2642.got - 2010.06.03 18:54:24.
