data_PCOD9366706
_publ_section_title
;
Structure prediction by ZEFSAII (Michael W. Deem and Ramdas Pophale) SiO2 
 PCOD9366706
Probable space group: A B A 2
;
_chemical_formula_sum "Si O2"
_cell_formula_units_Z 56
_cell_length_a 8.563993
_cell_length_b 15.301011
_cell_length_c 20.099727
_cell_angle_alpha 90.000000
_cell_angle_beta 90.000000
_cell_angle_gamma 90.000000
_cell_volume 2633.823024
_symmetry_space_group_name_H-M "A B A 2"
_symmetry_group_IT_number 41
_symmetry_cell_setting 'orthorhombic'
loop_
_space_group_symop_operation_xyz
x,y,z
-x,-y,z
1/2-x,y,1/2+z
1/2+x,-y,1/2+z
x,1/2+y,1/2+z
-x,1/2-y,1/2+z
1/2-x,1/2+y,z
1/2+x,1/2-y,z
loop_
_atom_site_type_symbol
_atom_site_label
_atom_site_fract_x
_atom_site_fract_y
_atom_site_fract_z
Si Si1 0.686306 0.016403 0.930930
Si Si2 0.188978 0.329373 0.157240
Si Si3 0.178263 0.970048 0.065588
Si Si4 0.780719 0.632490 0.309738
Si Si5 0.263218 0.671932 0.456021
Si Si6 0.164532 0.155272 0.605356
Si Si7 0.523439 0.747213 0.371604
O O1 0.730564 0.054792 0.859422
O O2 0.500000 0.000000 0.934845
O O3 0.780145 0.928142 0.946274
O O4 0.739897 0.066445 0.997604
O O5 0.307830 0.388657 0.115122
O O6 0.197309 0.369345 0.231394
O O7 0.237722 0.226856 0.148634
O O8 0.013001 0.343409 0.130616
O O9 0.268702 0.055402 0.097319
O O10 0.000000 0.000000 0.055823
O O11 0.641073 0.701779 0.321665
O O12 0.940784 0.669773 0.340184
O O13 0.326825 0.687787 0.528920
O O14 0.387057 0.685741 0.397204
O O15 0.118697 0.731085 0.437787
#
# Coordination Sequence:
#
# PCOD9366706 Si02
#       7
#     8   8   8   8   8   8   8
#     4  11  23  43  66  97 137 177 227 289 341 401
#     4  12  25  46  69 101 142 187 226 283 360 424
#     4  11  26  45  69 104 137 179 241 292 349 411
#     4  11  25  42  66  98 138 179 221 276 346 418
#     4  10  21  39  67  98 127 170 225 286 336 389
#     4  11  24  43  72 101 137 183 229 291 345 414
#     4  10  22  40  63  99 128 169 225 277 331 405
#
# _framework density 21.261869999999998
#
# number of rings (size 3 to 8) (size 9 to 14) (size 15 to 20)
#    0.000    1.143    1.429    4.714    8.000    0.571 
#   10.286    0.000    0.000    0.000    0.000    0.000 
#    0.000    0.000    0.000    0.000    0.000    0.000 
#
# Total GULP energy -156189.340145 kJ/mol
# GULP energy per Si atom -5578.190719 kJ/mol
# Density = 2.121348 g / cm^3
# Si number density = 21.261870 Si / 1000 Ang^3
#
#
#
# Elastic Constant Matrix: (Units=GPa)
#
#
# Indices 1 2 3 4 5 6 
#
# 1 80.5099 8.3254 23.2669 0.0000 0.0000 0.0000
# 2 8.3254 47.1410 16.8745 0.0000 0.0000 0.0000
# 3 23.2669 16.8745 152.4874 0.0000 0.0000 0.0000
# 4 0.0000 0.0000 0.0000 26.6710 0.0000 0.0000
# 5 0.0000 0.0000 0.0000 0.0000 4.6665 0.0000
# 6 0.0000 0.0000 0.0000 0.0000 0.0000 69.2358
#
#
#
# Elastic Compliance Matrix: (Units=1/GPa)
#
#
# Indices 1 2 3 4 5 6 
#
# 1 0.013118 -0.001666 -0.001817 0.000000 0.000000 0.000000
# 2 -0.001666 0.022300 -0.002213 0.000000 0.000000 0.000000
# 3 -0.001817 -0.002213 0.007080 0.000000 0.000000 0.000000
# 4 0.000000 0.000000 0.000000 0.037494 0.000000 0.000000
# 5 0.000000 0.000000 0.000000 0.000000 0.214295 0.000000
# 6 0.000000 0.000000 0.000000 0.000000 0.000000 0.014443
#
#
# Mechanical properties :
#
#
# Convention : Reuss Voigt Hill
#
# Bulk Modulus (GPa) = 32.15015 41.89688 37.02351
# Shear Modulus (GPa) = 15.12896 35.55944 25.34420
#
# Velocity S-wave (km/s) = 2.67039 4.09400 3.45628
# Velocity P-wave (km/s) = 4.96607 6.48812 5.77744
#
# Compressibility (1/GPa) = 0.03110406
#
# Stress axis : x y z
#
# Youngs Moduli (GPa) = 76.22934 44.84397 141.24013
#
# Poissons Ratio (x) = 0.07472 0.25667
# Poissons Ratio (y) = 0.12702 0.31263
# Poissons Ratio (z) = 0.13853 0.09926
#
# Static dielectric constant tensor:
#      x y z
#    x 1.766890 0.000000 0.000000 
#    y 0.000000 1.872660 0.000000 
#    z 0.000000 0.000000 1.790070 
# 
# From -- ./inp_files/11208.got.cif
#   From: 2010.05.17/outbox.cif.g08.bks.cpg/sg41_6_cif.got.tgz:11208.got - 2010.06.03 18:54:24.
