data_PCOD9366024
_publ_section_title
;
Structure prediction by ZEFSAII (Michael W. Deem and Ramdas Pophale) SiO2 
 PCOD9366024
Probable space group: A B A 2
;
_chemical_formula_sum "Si O2"
_cell_formula_units_Z 64
_cell_length_a 10.945784
_cell_length_b 25.851837
_cell_length_c 10.369695
_cell_angle_alpha 90.000000
_cell_angle_beta 90.000000
_cell_angle_gamma 90.000000
_cell_volume 2934.298323
_symmetry_space_group_name_H-M "A B A 2"
_symmetry_group_IT_number 41
_symmetry_cell_setting 'orthorhombic'
loop_
_space_group_symop_operation_xyz
x,y,z
-x,-y,z
1/2-x,y,1/2+z
1/2+x,-y,1/2+z
x,1/2+y,1/2+z
-x,1/2-y,1/2+z
1/2-x,1/2+y,z
1/2+x,1/2-y,z
loop_
_atom_site_type_symbol
_atom_site_label
_atom_site_fract_x
_atom_site_fract_y
_atom_site_fract_z
Si Si1 0.392002 0.875495 0.606740
Si Si2 0.530644 0.837790 0.364031
Si Si3 0.990921 0.445696 0.287340
Si Si4 0.727595 0.551627 0.920847
Si Si5 0.842189 0.733832 0.932949
Si Si6 0.819591 0.197788 0.705771
Si Si7 0.534184 0.125054 0.879641
Si Si8 0.106499 0.538487 0.998531
O O1 0.448371 0.842238 0.491765
O O2 0.350189 0.928737 0.543050
O O3 0.275304 0.845446 0.660742
O O4 0.481887 0.879885 0.726436
O O5 0.575754 0.896477 0.347163
O O6 0.614161 0.788840 0.382976
O O7 0.450067 0.826461 0.237130
O O8 0.139065 0.436158 0.297369
O O9 0.000000 0.500000 0.362218
O O10 0.923366 0.457137 0.151981
O O11 0.843377 0.591152 0.912836
O O12 0.775749 0.493663 0.950048
O O13 0.729289 0.720049 0.840331
O O14 0.935451 0.684741 0.914140
O O15 0.821087 0.736532 0.085756
O O16 0.421921 0.095733 0.946607
O O17 0.000000 0.500000 0.947872
#
# Coordination Sequence:
#
# PCOD9366024 Si02
#       8
#     8   8   8   8   8   8   8   8
#     4  10  19  37  62  91 120 164 209 268 306 382
#     4  11  24  39  63  95 125 163 218 262 329 386
#     4  10  21  39  65  87 124 166 214 266 322 388
#     4  10  20  37  64  92 119 162 220 262 313 387
#     4  11  23  38  66  93 128 171 210 271 318 382
#     4  11  21  40  61  96 125 162 220 258 321 384
#     4  10  20  34  60  94 124 161 210 264 325 374
#     4   9  20  36  61  94 119 161 209 267 327 381
#
# _framework density 21.811008000000001
#
# number of rings (size 3 to 8) (size 9 to 14) (size 15 to 20)
#    0.000    1.750    2.500    3.000   12.250    0.000 
#    0.000   10.000    0.000    0.000    0.000    0.000 
#    0.000    0.000    0.000    0.000    0.000    0.000 
#
# Total GULP energy -178235.502397 kJ/mol
# GULP energy per Si atom -5569.859450 kJ/mol
# Density = 2.176137 g / cm^3
# Si number density = 21.811008 Si / 1000 Ang^3
#
#
#
# Elastic Constant Matrix: (Units=GPa)
#
#
# Indices 1 2 3 4 5 6 
#
# 1 15.6338 18.5924 0.1987 0.0000 0.0000 0.0000
# 2 18.5924 144.7827 15.6784 0.0000 0.0000 0.0000
# 3 0.1987 15.6784 93.4824 0.0000 0.0000 0.0000
# 4 0.0000 0.0000 0.0000 14.5781 0.0000 0.0000
# 5 0.0000 0.0000 0.0000 0.0000 14.3101 0.0000
# 6 0.0000 0.0000 0.0000 0.0000 0.0000 22.6160
#
#
#
# Elastic Compliance Matrix: (Units=1/GPa)
#
#
# Indices 1 2 3 4 5 6 
#
# 1 0.075698 -0.009883 0.001497 0.000000 0.000000 0.000000
# 2 -0.009883 0.008325 -0.001375 0.000000 0.000000 0.000000
# 3 0.001497 -0.001375 0.010925 0.000000 0.000000 0.000000
# 4 0.000000 0.000000 0.000000 0.068596 0.000000 0.000000
# 5 0.000000 0.000000 0.000000 0.000000 0.069881 0.000000
# 6 0.000000 0.000000 0.000000 0.000000 0.000000 0.044216
#
#
# Mechanical properties :
#
#
# Convention : Reuss Voigt Hill
#
# Bulk Modulus (GPa) = 13.25827 35.87088 24.56457
# Shear Modulus (GPa) = 15.51323 24.92946 20.22134
#
# Velocity S-wave (km/s) = 2.66983 3.38446 3.04816
# Velocity P-wave (km/s) = 3.94917 5.63513 4.86573
#
# Compressibility (1/GPa) = 0.07542465
#
# Stress axis : x y z
#
# Youngs Moduli (GPa) = 13.21039 120.12089 91.53595
#
# Poissons Ratio (x) = 1.18714 -0.13700
# Poissons Ratio (y) = 0.13056 0.12588
# Poissons Ratio (z) = -0.01977 0.16519
#
# Static dielectric constant tensor:
#      x y z
#    x 1.913860 0.000000 0.000000 
#    y 0.000000 1.870460 0.000000 
#    z 0.000000 0.000000 1.855500 
# 
# From -- ./inp_files/5194.got.cif
#   From: 2010.05.17/outbox.cif.g08.bks.cpg/sg41_3_cif.got.tgz:5194.got - 2010.06.03 18:54:24.
