data_PCOD9366429
_publ_section_title
;
Structure prediction by ZEFSAII (Michael W. Deem and Ramdas Pophale) SiO2 
 PCOD9366429
Probable space group: A B A 2
;
_chemical_formula_sum "Si O2"
_cell_formula_units_Z 52
_cell_length_a 5.447012
_cell_length_b 22.842050
_cell_length_c 18.547492
_cell_angle_alpha 90.000000
_cell_angle_beta 90.000000
_cell_angle_gamma 90.000000
_cell_volume 2307.696027
_symmetry_space_group_name_H-M "A B A 2"
_symmetry_group_IT_number 41
_symmetry_cell_setting 'orthorhombic'
loop_
_space_group_symop_operation_xyz
x,y,z
-x,-y,z
1/2-x,y,1/2+z
1/2+x,-y,1/2+z
x,1/2+y,1/2+z
-x,1/2-y,1/2+z
1/2-x,1/2+y,z
1/2+x,1/2-y,z
loop_
_atom_site_type_symbol
_atom_site_label
_atom_site_fract_x
_atom_site_fract_y
_atom_site_fract_z
Si Si1 0.577710 0.062280 0.494310
Si Si2 0.410945 0.601520 0.428456
Si Si3 0.610372 0.934453 0.771858
Si Si4 0.264777 0.724889 0.490871
Si Si5 0.000000 0.000000 0.691149
Si Si6 0.179837 0.269130 0.154659
Si Si7 0.802931 0.603368 0.637745
O O1 0.355003 0.071896 0.439381
O O2 0.566063 0.107323 0.560677
O O3 0.848546 0.068722 0.460125
O O4 0.500000 0.000000 0.525984
O O5 0.433129 0.603342 0.342499
O O6 0.379283 0.662515 0.470303
O O7 0.485567 0.903521 0.704033
O O8 0.500000 0.000000 0.784202
O O9 0.878520 0.952205 0.744103
O O10 0.484695 0.767670 0.462664
O O11 0.228104 0.738818 0.576146
O O12 0.839665 0.041625 0.640194
O O13 0.442866 0.258492 0.191403
O O14 0.144244 0.338446 0.145879
#
# Coordination Sequence:
#
# PCOD9366429 Si02
#       7
#     8   8   8   8   4   8   8
#     4  12  25  40  65 106 137 175 232 294 350 415
#     4  12  26  43  71  99 140 184 232 293 352 420
#     4  10  24  45  66  99 140 193 229 281 358 429
#     4  10  20  41  63  94 127 176 224 281 347 405
#     4  10  24  44  70  96 144 192 236 286 360 428
#     4  10  21  39  66  96 131 177 228 284 348 405
#     4  11  25  43  70 101 142 187 240 290 353 425
#
# _framework density 22.533297999999998
#
# number of rings (size 3 to 8) (size 9 to 14) (size 15 to 20)
#    0.000    1.231    0.000    7.385   11.846    0.000 
#    0.000    1.538    0.000    0.000    0.000    0.000 
#    0.000    0.000    0.000    0.000    0.000    0.000 
#
# Total GULP energy -145011.314132 kJ/mol
# GULP energy per Si atom -5577.358236 kJ/mol
# Density = 2.248201 g / cm^3
# Si number density = 22.533298 Si / 1000 Ang^3
#
#
#
# Elastic Constant Matrix: (Units=GPa)
#
#
# Indices 1 2 3 4 5 6 
#
# 1 131.8544 10.6908 27.7065 0.0000 0.0000 0.0000
# 2 10.6908 54.6644 -6.1685 0.0000 0.0000 0.0000
# 3 27.7065 -6.1685 70.7468 0.0000 0.0000 0.0000
# 4 0.0000 0.0000 0.0000 14.2404 0.0000 0.0000
# 5 0.0000 0.0000 0.0000 0.0000 15.0749 0.0000
# 6 0.0000 0.0000 0.0000 0.0000 0.0000 19.5394
#
#
#
# Elastic Compliance Matrix: (Units=1/GPa)
#
#
# Indices 1 2 3 4 5 6 
#
# 1 0.008487 -0.002055 -0.003503 0.000000 0.000000 0.000000
# 2 -0.002055 0.018973 0.002459 0.000000 0.000000 0.000000
# 3 -0.003503 0.002459 0.015721 0.000000 0.000000 0.000000
# 4 0.000000 0.000000 0.000000 0.070223 0.000000 0.000000
# 5 0.000000 0.000000 0.000000 0.000000 0.066336 0.000000
# 6 0.000000 0.000000 0.000000 0.000000 0.000000 0.051179
#
#
# Mechanical properties :
#
#
# Convention : Reuss Voigt Hill
#
# Bulk Modulus (GPa) = 27.03935 35.74701 31.39318
# Shear Modulus (GPa) = 20.04464 24.77337 22.40901
#
# Velocity S-wave (km/s) = 2.98578 3.31934 3.15697
# Velocity P-wave (km/s) = 4.89002 5.53075 5.22022
#
# Compressibility (1/GPa) = 0.03698314
#
# Stress axis : x y z
#
# Youngs Moduli (GPa) = 117.83000 52.70692 63.60855
#
# Poissons Ratio (x) = 0.10832 0.22281
# Poissons Ratio (y) = 0.24215 -0.15642
# Poissons Ratio (z) = 0.41274 -0.12961
#
# Static dielectric constant tensor:
#      x y z
#    x 1.994380 0.000000 0.000000 
#    y 0.000000 1.895000 0.000000 
#    z 0.000000 0.000000 1.789440 
# 
# From -- ./inp_files/10970.got.cif
#   From: 2010.05.17/outbox.cif.g08.bks.cpg/sg41_6_cif.got.tgz:10970.got - 2010.06.03 18:54:24.
