data_PCOD9366719
_publ_section_title
;
Structure prediction by ZEFSAII (Michael W. Deem and Ramdas Pophale) SiO2 
 PCOD9366719
Probable space group: A B A 2
;
_chemical_formula_sum "Si O2"
_cell_formula_units_Z 64
_cell_length_a 8.725433
_cell_length_b 12.850310
_cell_length_c 28.855371
_cell_angle_alpha 90.000000
_cell_angle_beta 90.000000
_cell_angle_gamma 90.000000
_cell_volume 3235.394592
_symmetry_space_group_name_H-M "A B A 2"
_symmetry_group_IT_number 41
_symmetry_cell_setting 'orthorhombic'
loop_
_space_group_symop_operation_xyz
x,y,z
-x,-y,z
1/2-x,y,1/2+z
1/2+x,-y,1/2+z
x,1/2+y,1/2+z
-x,1/2-y,1/2+z
1/2-x,1/2+y,z
1/2+x,1/2-y,z
loop_
_atom_site_type_symbol
_atom_site_label
_atom_site_fract_x
_atom_site_fract_y
_atom_site_fract_z
Si Si1 0.489368 0.879171 0.035510
Si Si2 0.707670 0.652600 0.294972
Si Si3 0.460413 0.619962 0.425486
Si Si4 0.609742 0.803886 0.746323
Si Si5 0.494376 0.125619 0.645064
Si Si6 0.328619 0.206987 0.376674
Si Si7 0.742577 0.746410 0.088915
Si Si8 0.850209 0.443566 0.296265
O O1 0.621560 0.814218 0.060562
O O2 0.332393 0.829462 0.054005
O O3 0.500000 0.000000 0.048636
O O4 0.509830 0.872210 0.980312
O O5 0.821312 0.688731 0.253600
O O6 0.532846 0.675892 0.280860
O O7 0.757864 0.722251 0.338483
O O8 0.729762 0.533846 0.307703
O O9 0.500000 0.500000 0.411661
O O10 0.561699 0.710246 0.401394
O O11 0.287224 0.649702 0.411273
O O12 0.546995 0.835682 0.696566
O O13 0.758509 0.871825 0.760456
O O14 0.362212 0.175016 0.612783
O O15 0.651672 0.177331 0.626735
O O16 0.500000 0.000000 0.643455
O O17 0.397482 0.119215 0.342439
O O18 0.000000 0.500000 0.277483
#
# Coordination Sequence:
#
# PCOD9366719 Si02
#       8
#     8   8   8   8   8   8   8   8
#     4  10  21  40  62  88 119 156 196 244 310 373
#     4  11  21  37  56  80 117 159 199 246 301 356
#     4  11  23  39  62  88 120 156 199 253 304 363
#     4  11  23  38  59  86 119 159 207 254 302 364
#     4  11  22  39  62  91 122 157 203 254 305 364
#     4  11  22  37  57  85 116 154 202 246 295 356
#     4  10  22  39  63  89 120 156 196 249 309 373
#     4  11  22  37  57  81 117 161 204 250 301 359
#
# _framework density 19.781203999999999
#
# number of rings (size 3 to 8) (size 9 to 14) (size 15 to 20)
#    0.000    1.250    0.000    7.875    0.000    0.000 
#    0.000    1.875    0.000    7.500    0.000    0.000 
#    0.000    0.000    0.000    0.000    0.000    0.000 
#
# Total GULP energy -178639.962618 kJ/mol
# GULP energy per Si atom -5582.498832 kJ/mol
# Density = 1.973618 g / cm^3
# Si number density = 19.781204 Si / 1000 Ang^3
#
#
#
# Elastic Constant Matrix: (Units=GPa)
#
#
# Indices 1 2 3 4 5 6 
#
# 1 98.4300 36.4481 30.3994 0.0000 0.0000 0.0000
# 2 36.4481 133.0574 40.1973 0.0000 0.0000 0.0000
# 3 30.3994 40.1973 87.1211 0.0000 0.0000 0.0000
# 4 0.0000 0.0000 0.0000 26.9926 0.0000 0.0000
# 5 0.0000 0.0000 0.0000 0.0000 32.3701 0.0000
# 6 0.0000 0.0000 0.0000 0.0000 0.0000 38.0725
#
#
#
# Elastic Compliance Matrix: (Units=1/GPa)
#
#
# Indices 1 2 3 4 5 6 
#
# 1 0.011986 -0.002347 -0.003099 0.000000 0.000000 0.000000
# 2 -0.002347 0.009192 -0.003422 0.000000 0.000000 0.000000
# 3 -0.003099 -0.003422 0.014139 0.000000 0.000000 0.000000
# 4 0.000000 0.000000 0.000000 0.037047 0.000000 0.000000
# 5 0.000000 0.000000 0.000000 0.000000 0.030893 0.000000
# 6 0.000000 0.000000 0.000000 0.000000 0.000000 0.026266
#
#
# Mechanical properties :
#
#
# Convention : Reuss Voigt Hill
#
# Bulk Modulus (GPa) = 56.88411 59.18868 58.03639
# Shear Modulus (GPa) = 32.65420 33.59131 33.12276
#
# Velocity S-wave (km/s) = 4.06737 4.12532 4.09645
# Velocity P-wave (km/s) = 7.13282 7.25794 7.19565
#
# Compressibility (1/GPa) = 0.01757960
#
# Stress axis : x y z
#
# Youngs Moduli (GPa) = 83.43234 108.78597 70.72717
#
# Poissons Ratio (x) = 0.25531 0.21921
# Poissons Ratio (y) = 0.19581 0.24206
# Poissons Ratio (z) = 0.25859 0.37231
#
# Static dielectric constant tensor:
#      x y z
#    x 1.716060 0.000000 0.000000 
#    y 0.000000 1.739310 0.000000 
#    z 0.000000 0.000000 1.690930 
# 
# From -- ./inp_files/12689.got.cif
#   From: 2010.05.17/outbox.cif.g08.bks.cpg/sg41_7_cif.got.tgz:12689.got - 2010.06.03 18:54:24.
