data_PCOD9366255
_publ_section_title
;
Structure prediction by ZEFSAII (Michael W. Deem and Ramdas Pophale) SiO2 
 PCOD9366255
Probable space group: A B A 2
;
_chemical_formula_sum "Si O2"
_cell_formula_units_Z 60
_cell_length_a 5.730508
_cell_length_b 26.734384
_cell_length_c 17.738682
_cell_angle_alpha 90.000000
_cell_angle_beta 90.000000
_cell_angle_gamma 90.000000
_cell_volume 2717.594489
_symmetry_space_group_name_H-M "A B A 2"
_symmetry_group_IT_number 41
_symmetry_cell_setting 'orthorhombic'
loop_
_space_group_symop_operation_xyz
x,y,z
-x,-y,z
1/2-x,y,1/2+z
1/2+x,-y,1/2+z
x,1/2+y,1/2+z
-x,1/2-y,1/2+z
1/2-x,1/2+y,z
1/2+x,1/2-y,z
loop_
_atom_site_type_symbol
_atom_site_label
_atom_site_fract_x
_atom_site_fract_y
_atom_site_fract_z
Si Si1 0.356226 0.338015 0.277710
Si Si2 0.500000 0.500000 0.081034
Si Si3 0.105028 0.144435 0.048077
Si Si4 0.477328 0.584630 0.820794
Si Si5 0.901717 0.360720 0.920521
Si Si6 0.309854 0.587293 0.184642
Si Si7 0.172189 0.276374 0.631641
Si Si8 0.207191 0.436453 0.466551
O O1 0.116391 0.365381 0.297603
O O2 0.470396 0.326844 0.358551
O O3 0.509700 0.380546 0.234824
O O4 0.334134 0.293403 0.219119
O O5 0.430499 0.543947 0.137555
O O6 0.294080 0.483437 0.022663
O O7 0.261481 0.126753 0.119168
O O8 0.890340 0.175926 0.080165
O O9 0.260564 0.169341 0.983597
O O10 0.995261 0.097075 0.004951
O O11 0.262955 0.603594 0.870574
O O12 0.381697 0.564975 0.741381
O O13 0.636755 0.553186 0.879072
O O14 0.074310 0.399651 0.961540
O O15 0.433161 0.255775 0.618211
#
# Coordination Sequence:
#
# PCOD9366255 Si02
#       8
#     8   4   8   8   8   8   8   8
#     4   9  20  39  64  86 124 171 216 266 327 406
#     4  10  20  38  54  94 130 164 224 280 340 396
#     4   9  20  37  61  86 122 168 209 261 328 403
#     4   9  18  37  59  86 111 166 216 262 320 397
#     4   9  18  36  66  84 113 170 216 260 323 402
#     4   9  19  35  58  86 120 164 216 266 327 389
#     4  11  26  41  64 101 135 168 213 278 334 392
#     4   9  19  37  59  84 125 168 217 270 333 399
#
# _framework density 22.078348999999999
#
# number of rings (size 3 to 8) (size 9 to 14) (size 15 to 20)
#    0.000    2.667    0.000    0.000    7.467    2.133 
#    7.200   10.667    0.000    0.000    0.000    0.000 
#    0.000    0.000    0.000    0.000    0.000    0.000 
#
# Total GULP energy -167063.806547 kJ/mol
# GULP energy per Si atom -5568.793552 kJ/mol
# Density = 2.202810 g / cm^3
# Si number density = 22.078349 Si / 1000 Ang^3
#
#
#
# Elastic Constant Matrix: (Units=GPa)
#
#
# Indices 1 2 3 4 5 6 
#
# 1 47.6427 -5.1773 38.7566 0.0000 0.0000 0.0000
# 2 -5.1773 21.3136 15.9372 0.0000 0.0000 0.0000
# 3 38.7566 15.9372 130.2502 0.0000 0.0000 0.0000
# 4 0.0000 0.0000 0.0000 10.3886 0.0000 0.0000
# 5 0.0000 0.0000 0.0000 0.0000 23.0259 0.0000
# 6 0.0000 0.0000 0.0000 0.0000 0.0000 8.1924
#
#
#
# Elastic Compliance Matrix: (Units=1/GPa)
#
#
# Indices 1 2 3 4 5 6 
#
# 1 0.032228 0.016510 -0.011610 0.000000 0.000000 0.000000
# 2 0.016510 0.060101 -0.012266 0.000000 0.000000 0.000000
# 3 -0.011610 -0.012266 0.012633 0.000000 0.000000 0.000000
# 4 0.000000 0.000000 0.000000 0.096259 0.000000 0.000000
# 5 0.000000 0.000000 0.000000 0.000000 0.043429 0.000000
# 6 0.000000 0.000000 0.000000 0.000000 0.000000 0.122064
#
#
# Mechanical properties :
#
#
# Convention : Reuss Voigt Hill
#
# Bulk Modulus (GPa) = 11.08293 33.13774 22.11033
# Shear Modulus (GPa) = 12.14997 18.30071 15.22534
#
# Velocity S-wave (km/s) = 2.34842 2.88218 2.62888
# Velocity P-wave (km/s) = 3.51911 5.11055 4.38759
#
# Compressibility (1/GPa) = 0.09022885
#
# Stress axis : x y z
#
# Youngs Moduli (GPa) = 31.02902 16.63867 79.15809
#
# Poissons Ratio (x) = -0.27470 0.91900
# Poissons Ratio (y) = -0.51228 0.97098
# Poissons Ratio (z) = 0.36024 0.20410
#
# Static dielectric constant tensor:
#      x y z
#    x 1.838580 0.000000 0.000000 
#    y 0.000000 1.874140 0.000000 
#    z 0.000000 0.000000 1.836200 
# 
# From -- ./inp_files/9468.got.cif
#   From: 2010.05.17/outbox.cif.g08.bks.cpg/sg41_5_cif.got.tgz:9468.got - 2010.06.03 18:54:24.
