data_PCOD9366942
_publ_section_title
;
Structure prediction by ZEFSAII (Michael W. Deem and Ramdas Pophale) SiO2 
 PCOD9366942
Probable space group: A B A 2
;
_chemical_formula_sum "Si O2"
_cell_formula_units_Z 48
_cell_length_a 15.246080
_cell_length_b 13.149822
_cell_length_c 8.860239
_cell_angle_alpha 90.000000
_cell_angle_beta 90.000000
_cell_angle_gamma 90.000000
_cell_volume 1776.329406
_symmetry_space_group_name_H-M "A B A 2"
_symmetry_group_IT_number 41
_symmetry_cell_setting 'orthorhombic'
loop_
_space_group_symop_operation_xyz
x,y,z
-x,-y,z
1/2-x,y,1/2+z
1/2+x,-y,1/2+z
x,1/2+y,1/2+z
-x,1/2-y,1/2+z
1/2-x,1/2+y,z
1/2+x,1/2-y,z
loop_
_atom_site_type_symbol
_atom_site_label
_atom_site_fract_x
_atom_site_fract_y
_atom_site_fract_z
Si Si1 0.265469 0.789004 0.688710
Si Si2 0.418123 0.794757 0.453519
Si Si3 0.431468 0.689035 0.143950
Si Si4 0.000000 0.500000 0.341586
Si Si5 0.177696 0.099043 0.870056
Si Si6 0.500000 0.000000 0.837260
Si Si7 0.179687 0.930920 0.460309
O O1 0.332059 0.783056 0.548864
O O2 0.269677 0.675997 0.762236
O O3 0.194433 0.866107 0.611880
O O4 0.310380 0.854667 0.819954
O O5 0.402117 0.750339 0.290004
O O6 0.497565 0.746858 0.548612
O O7 0.451246 0.909892 0.432199
O O8 0.360577 0.654731 0.020197
O O9 0.476497 0.593006 0.226211
O O10 0.910901 0.442044 0.284849
O O11 0.243734 0.013517 0.931958
O O12 0.584582 0.020468 0.939817
#
# Coordination Sequence:
#
# PCOD9366942 Si02
#       7
#     8   8   8   4   8   4   8
#     4  12  28  54  86 128 179 241 304 387 461 565
#     4  11  22  46  83 132 178 227 292 366 456 553
#     4  11  24  48  89 129 178 235 298 374 464 559
#     4  10  21  46  89 128 175 229 290 372 453 547
#     4  11  26  53  89 129 180 243 303 390 474 555
#     4  12  27  52  87 130 183 241 310 388 469 551
#     4  12  29  55  86 128 179 242 314 387 467 562
#
# _framework density 27.022016000000001
#
# number of rings (size 3 to 8) (size 9 to 14) (size 15 to 20)
#    0.000    0.667    3.333    5.000    0.000    6.667 
#    0.000    4.167    0.000    0.000    0.000    0.000 
#    0.000    0.000    0.000    0.000    0.000    0.000 
#
# Total GULP energy -134435.635660 kJ/mol
# GULP energy per Si atom -5601.484819 kJ/mol
# Density = 2.696051 g / cm^3
# Si number density = 27.022016 Si / 1000 Ang^3
#
#
#
# Elastic Constant Matrix: (Units=GPa)
#
#
# Indices 1 2 3 4 5 6 
#
# 1 197.6792 59.7253 71.3308 0.0000 0.0000 0.0000
# 2 59.7253 126.3352 70.3572 0.0000 0.0000 0.0000
# 3 71.3308 70.3572 163.5043 0.0000 0.0000 0.0000
# 4 0.0000 0.0000 0.0000 32.3948 0.0000 0.0000
# 5 0.0000 0.0000 0.0000 0.0000 56.7350 0.0000
# 6 0.0000 0.0000 0.0000 0.0000 0.0000 47.3826
#
#
#
# Elastic Compliance Matrix: (Units=1/GPa)
#
#
# Indices 1 2 3 4 5 6 
#
# 1 0.006338 -0.001915 -0.001941 0.000000 0.000000 0.000000
# 2 -0.001915 0.010989 -0.003893 0.000000 0.000000 0.000000
# 3 -0.001941 -0.003893 0.008638 0.000000 0.000000 0.000000
# 4 0.000000 0.000000 0.000000 0.030869 0.000000 0.000000
# 5 0.000000 0.000000 0.000000 0.000000 0.017626 0.000000
# 6 0.000000 0.000000 0.000000 0.000000 0.000000 0.021105
#
#
# Mechanical properties :
#
#
# Convention : Reuss Voigt Hill
#
# Bulk Modulus (GPa) = 95.54406 98.92724 97.23565
# Shear Modulus (GPa) = 43.64856 46.37621 45.01238
#
# Velocity S-wave (km/s) = 4.02343 4.14724 4.08581
# Velocity P-wave (km/s) = 7.55107 7.72154 7.63678
#
# Compressibility (1/GPa) = 0.01046638
#
# Stress axis : x y z
#
# Youngs Moduli (GPa) = 157.78657 90.99995 115.76872
#
# Poissons Ratio (x) = 0.17430 0.22467
# Poissons Ratio (y) = 0.30222 0.45069
# Poissons Ratio (z) = 0.30622 0.35427
#
# Static dielectric constant tensor:
#      x y z
#    x 2.321130 0.000000 0.000000 
#    y 0.000000 2.154040 0.000000 
#    z 0.000000 0.000000 2.048610 
# 
# From -- ./inp_files/5577.got.cif
#   From: 2010.05.17/outbox.cif.g08.bks.cpg/sg41_3_cif.got.tgz:5577.got - 2010.06.03 18:54:24.
