data_PCOD9366505
_publ_section_title
;
Structure prediction by ZEFSAII (Michael W. Deem and Ramdas Pophale) SiO2 
 PCOD9366505
Probable space group: A B A 2
;
_chemical_formula_sum "Si O2"
_cell_formula_units_Z 40
_cell_length_a 13.196660
_cell_length_b 12.949670
_cell_length_c 9.384850
_cell_angle_alpha 90.000000
_cell_angle_beta 90.000000
_cell_angle_gamma 90.000000
_cell_volume 1603.799466
_symmetry_space_group_name_H-M "A B A 2"
_symmetry_group_IT_number 41
_symmetry_cell_setting 'orthorhombic'
loop_
_space_group_symop_operation_xyz
x,y,z
-x,-y,z
1/2-x,y,1/2+z
1/2+x,-y,1/2+z
x,1/2+y,1/2+z
-x,1/2-y,1/2+z
1/2-x,1/2+y,z
1/2+x,1/2-y,z
loop_
_atom_site_type_symbol
_atom_site_label
_atom_site_fract_x
_atom_site_fract_y
_atom_site_fract_z
Si Si1 0.616259 0.967459 0.686590
Si Si2 0.374796 0.280732 0.700614
Si Si3 0.306386 0.536027 0.870311
Si Si4 0.724868 0.260813 0.469314
Si Si5 0.062528 0.087820 0.613835
O O1 0.615764 0.843193 0.697483
O O2 0.658468 0.994719 0.528439
O O3 0.698189 0.001620 0.806535
O O4 0.500000 0.000000 0.699803
O O5 0.288386 0.301883 0.584035
O O6 0.480682 0.329623 0.663616
O O7 0.336190 0.307724 0.857871
O O8 0.387026 0.524563 0.743639
O O9 0.299094 0.662878 0.882168
O O10 0.649430 0.345146 0.539282
O O11 0.000000 0.000000 0.528056
#
# Coordination Sequence:
#
# PCOD9366505 Si02
#       5
#     8   8   8   8   8
#     4  10  21  43  72  98 138 187 229 291 351 413
#     4  10  24  44  72  98 141 181 229 290 348 416
#     4  10  20  44  65  95 142 170 231 287 333 422
#     4  10  21  45  68  98 137 174 232 290 336 416
#     4  12  25  44  69 103 140 186 229 287 355 415
#
# _framework density 24.940773
#
# number of rings (size 3 to 8) (size 9 to 14) (size 15 to 20)
#    0.000    1.600    6.000    0.600    5.600    3.200 
#    7.200    0.000    0.000    0.000    0.000    0.000 
#    0.000    0.000    0.000    0.000    0.000    0.000 
#
# Total GULP energy -111930.113605 kJ/mol
# GULP energy per Si atom -5596.505680 kJ/mol
# Density = 2.488401 g / cm^3
# Si number density = 24.940773 Si / 1000 Ang^3
#
#
#
# Elastic Constant Matrix: (Units=GPa)
#
#
# Indices 1 2 3 4 5 6 
#
# 1 182.9909 34.2882 84.1599 0.0000 0.0000 0.0000
# 2 34.2882 46.5349 12.7374 0.0000 0.0000 0.0000
# 3 84.1599 12.7374 157.5663 0.0000 0.0000 0.0000
# 4 0.0000 0.0000 0.0000 28.4490 0.0000 0.0000
# 5 0.0000 0.0000 0.0000 0.0000 21.8727 0.0000
# 6 0.0000 0.0000 0.0000 0.0000 0.0000 59.2728
#
#
#
# Elastic Compliance Matrix: (Units=1/GPa)
#
#
# Indices 1 2 3 4 5 6 
#
# 1 0.008235 -0.004974 -0.003996 0.000000 0.000000 0.000000
# 2 -0.004974 0.024980 0.000637 0.000000 0.000000 0.000000
# 3 -0.003996 0.000637 0.008430 0.000000 0.000000 0.000000
# 4 0.000000 0.000000 0.000000 0.035151 0.000000 0.000000
# 5 0.000000 0.000000 0.000000 0.000000 0.045719 0.000000
# 6 0.000000 0.000000 0.000000 0.000000 0.000000 0.016871
#
#
# Mechanical properties :
#
#
# Convention : Reuss Voigt Hill
#
# Bulk Modulus (GPa) = 40.03466 72.16257 56.09861
# Shear Modulus (GPa) = 30.41806 38.97932 34.69869
#
# Velocity S-wave (km/s) = 3.49608 3.95761 3.73398
# Velocity P-wave (km/s) = 5.69065 7.06257 6.41340
#
# Compressibility (1/GPa) = 0.02497836
#
# Stress axis : x y z
#
# Youngs Moduli (GPa) = 121.43848 40.03275 118.63084
#
# Poissons Ratio (x) = 0.19911 0.47408
# Poissons Ratio (y) = 0.60399 -0.07560
# Poissons Ratio (z) = 0.48530 -0.02551
#
# Static dielectric constant tensor:
#      x y z
#    x 1.968830 0.000000 0.000000 
#    y 0.000000 2.045570 0.000000 
#    z 0.000000 0.000000 2.011540 
# 
# From -- ./inp_files/2413.got.cif
#   From: 2010.05.17/outbox.cif.g08.bks.cpg/sg41_2_cif.got.tgz:2413.got - 2010.06.03 18:54:24.
