data_PCOD9366700
_publ_section_title
;
Structure prediction by ZEFSAII (Michael W. Deem and Ramdas Pophale) SiO2 
 PCOD9366700
Probable space group: A B A 2
;
_chemical_formula_sum "Si O2"
_cell_formula_units_Z 56
_cell_length_a 9.016698
_cell_length_b 15.440268
_cell_length_c 20.299883
_cell_angle_alpha 90.000000
_cell_angle_beta 90.000000
_cell_angle_gamma 90.000000
_cell_volume 2826.154453
_symmetry_space_group_name_H-M "A B A 2"
_symmetry_group_IT_number 41
_symmetry_cell_setting 'orthorhombic'
loop_
_space_group_symop_operation_xyz
x,y,z
-x,-y,z
1/2-x,y,1/2+z
1/2+x,-y,1/2+z
x,1/2+y,1/2+z
-x,1/2-y,1/2+z
1/2-x,1/2+y,z
1/2+x,1/2-y,z
loop_
_atom_site_type_symbol
_atom_site_label
_atom_site_fract_x
_atom_site_fract_y
_atom_site_fract_z
Si Si1 0.818073 0.163337 0.106930
Si Si2 0.065840 0.741372 0.688391
Si Si3 0.808220 0.356949 0.249761
Si Si4 0.672416 0.473254 0.480736
Si Si5 0.842229 0.828429 0.901053
Si Si6 0.178197 0.838699 0.954406
Si Si7 0.825507 0.480241 0.129843
O O1 0.690815 0.217669 0.142708
O O2 0.972466 0.177422 0.143134
O O3 0.768130 0.066062 0.118793
O O4 0.824113 0.189140 0.031005
O O5 0.156691 0.697715 0.746718
O O6 0.947598 0.808426 0.716518
O O7 0.845459 0.363084 0.326039
O O8 0.780407 0.433805 0.197474
O O9 0.500000 0.500000 0.473249
O O10 0.731523 0.394296 0.437758
O O11 0.760632 0.561822 0.460164
O O12 0.690479 0.439591 0.556760
O O13 0.779295 0.730358 0.913590
O O14 0.009917 0.835545 0.928237
O O15 0.000000 0.500000 0.136910
#
# Coordination Sequence:
#
# PCOD9366700 Si02
#       7
#     8   8   8   8   8   8   8
#     4  10  21  39  65  97 124 164 219 278 323 377
#     4  10  22  39  63  95 124 165 217 270 319 386
#     4  11  24  42  63  95 132 173 216 264 333 398
#     4  10  24  44  66  98 133 170 229 278 332 392
#     4  12  25  44  67  97 138 180 217 272 342 409
#     4  11  24  41  69  99 131 178 220 278 333 396
#     4  10  21  40  64  92 127 169 215 275 327 381
#
# _framework density 19.814910000000001
#
# number of rings (size 3 to 8) (size 9 to 14) (size 15 to 20)
#    0.000    1.429    1.429    3.000    6.000    1.714 
#    7.714    0.000    0.000    0.000    0.000    0.000 
#    0.000    0.000    0.000    0.000    0.000    0.000 
#
# Total GULP energy -156131.659212 kJ/mol
# GULP energy per Si atom -5576.130686 kJ/mol
# Density = 1.976981 g / cm^3
# Si number density = 19.814910 Si / 1000 Ang^3
#
#
#
# Elastic Constant Matrix: (Units=GPa)
#
#
# Indices 1 2 3 4 5 6 
#
# 1 80.5752 10.2517 26.5403 0.0000 0.0000 0.0000
# 2 10.2517 51.0910 33.7224 0.0000 0.0000 0.0000
# 3 26.5403 33.7224 133.8718 0.0000 0.0000 0.0000
# 4 0.0000 0.0000 0.0000 32.3247 0.0000 0.0000
# 5 0.0000 0.0000 0.0000 0.0000 20.9640 0.0000
# 6 0.0000 0.0000 0.0000 0.0000 0.0000 24.6200
#
#
#
# Elastic Compliance Matrix: (Units=1/GPa)
#
#
# Indices 1 2 3 4 5 6 
#
# 1 0.013331 -0.001116 -0.002362 0.000000 0.000000 0.000000
# 2 -0.001116 0.023570 -0.005716 0.000000 0.000000 0.000000
# 3 -0.002362 -0.005716 0.009378 0.000000 0.000000 0.000000
# 4 0.000000 0.000000 0.000000 0.030936 0.000000 0.000000
# 5 0.000000 0.000000 0.000000 0.000000 0.047701 0.000000
# 6 0.000000 0.000000 0.000000 0.000000 0.000000 0.040617
#
#
# Mechanical properties :
#
#
# Convention : Reuss Voigt Hill
#
# Bulk Modulus (GPa) = 35.85409 45.17411 40.51410
# Shear Modulus (GPa) = 25.87765 28.58330 27.23048
#
# Velocity S-wave (km/s) = 3.61774 3.80217 3.71110
# Velocity P-wave (km/s) = 5.96527 6.49021 6.23327
#
# Compressibility (1/GPa) = 0.02789082
#
# Stress axis : x y z
#
# Youngs Moduli (GPa) = 75.01500 42.42741 106.63371
#
# Poissons Ratio (x) = 0.04735 0.25184
# Poissons Ratio (y) = 0.08372 0.60951
# Poissons Ratio (z) = 0.17716 0.24251
#
# Static dielectric constant tensor:
#      x y z
#    x 1.665180 0.000000 0.000000 
#    y 0.000000 1.619060 0.000000 
#    z 0.000000 0.000000 1.715930 
# 
# From -- ./inp_files/11197.got.cif
#   From: 2010.05.17/outbox.cif.g08.bks.cpg/sg41_6_cif.got.tgz:11197.got - 2010.06.03 18:54:24.
