data_PCOD9366703
_publ_section_title
;
Structure prediction by ZEFSAII (Michael W. Deem and Ramdas Pophale) SiO2 
 PCOD9366703
Probable space group: A B A 2
;
_chemical_formula_sum "Si O2"
_cell_formula_units_Z 64
_cell_length_a 12.045594
_cell_length_b 13.906102
_cell_length_c 17.185100
_cell_angle_alpha 90.000000
_cell_angle_beta 90.000000
_cell_angle_gamma 90.000000
_cell_volume 2878.628993
_symmetry_space_group_name_H-M "A B A 2"
_symmetry_group_IT_number 41
_symmetry_cell_setting 'orthorhombic'
loop_
_space_group_symop_operation_xyz
x,y,z
-x,-y,z
1/2-x,y,1/2+z
1/2+x,-y,1/2+z
x,1/2+y,1/2+z
-x,1/2-y,1/2+z
1/2-x,1/2+y,z
1/2+x,1/2-y,z
loop_
_atom_site_type_symbol
_atom_site_label
_atom_site_fract_x
_atom_site_fract_y
_atom_site_fract_z
Si Si1 0.756288 0.815181 0.986360
Si Si2 0.596775 0.733060 0.097937
Si Si3 0.117422 0.629791 0.637715
Si Si4 0.582552 0.424573 0.386777
Si Si5 0.278454 0.001398 0.743331
Si Si6 0.554966 0.895822 0.218381
Si Si7 0.229549 0.291530 0.233251
Si Si8 0.580522 0.755014 0.354323
O O1 0.685887 0.889954 0.936918
O O2 0.864753 0.782625 0.937584
O O3 0.659711 0.741564 0.015638
O O4 0.796502 0.856817 0.068039
O O5 0.499585 0.656485 0.101550
O O6 0.547801 0.831542 0.139141
O O7 0.688306 0.703772 0.160123
O O8 0.138197 0.525251 0.672914
O O9 0.140939 0.711557 0.705514
O O10 0.500000 0.500000 0.427343
O O11 0.641417 0.481718 0.316319
O O12 0.506187 0.332968 0.362593
O O13 0.185152 0.082666 0.733063
O O14 0.207227 0.904206 0.744794
O O15 0.525002 0.835916 0.297564
O O16 0.500000 0.000000 0.209505
O O17 0.306473 0.269255 0.307059
#
# Coordination Sequence:
#
# PCOD9366703 Si02
#       8
#     8   8   8   8   8   8   8   8
#     4  11  23  44  62  92 137 173 212 265 329 401
#     4  10  22  42  64  95 130 175 215 266 334 388
#     4  11  22  42  66  92 133 168 219 276 325 395
#     4  12  25  42  69  96 131 179 225 271 331 404
#     4  12  21  41  68  96 129 168 225 279 319 386
#     4  11  22  40  70 101 128 167 223 281 328 380
#     4  10  21  39  66  97 120 170 219 275 328 376
#     4  11  22  43  66  96 132 174 220 272 334 392
#
# _framework density 22.232807000000001
#
# number of rings (size 3 to 8) (size 9 to 14) (size 15 to 20)
#    0.000    1.000    6.250    3.000    0.000    1.500 
#    6.750    0.000    2.750    0.000    0.000    0.000 
#    0.000    0.000    0.000    0.000    0.000    0.000 
#
# Total GULP energy -178294.665141 kJ/mol
# GULP energy per Si atom -5571.708286 kJ/mol
# Density = 2.218220 g / cm^3
# Si number density = 22.232807 Si / 1000 Ang^3
#
#
#
# Elastic Constant Matrix: (Units=GPa)
#
#
# Indices 1 2 3 4 5 6 
#
# 1 68.6189 13.0775 7.2509 0.0000 0.0000 0.0000
# 2 13.0775 77.0236 20.4869 0.0000 0.0000 0.0000
# 3 7.2509 20.4869 85.3027 0.0000 0.0000 0.0000
# 4 0.0000 0.0000 0.0000 -5.3918 0.0000 0.0000
# 5 0.0000 0.0000 0.0000 0.0000 32.4579 0.0000
# 6 0.0000 0.0000 0.0000 0.0000 0.0000 38.6816
#
#
#
# Elastic Compliance Matrix: (Units=1/GPa)
#
#
# Indices 1 2 3 4 5 6 
#
# 1 0.015101 -0.002374 -0.000713 0.000000 0.000000 0.000000
# 2 -0.002374 0.014242 -0.003219 0.000000 0.000000 0.000000
# 3 -0.000713 -0.003219 0.012557 0.000000 0.000000 0.000000
# 4 0.000000 0.000000 0.000000 -0.185468 0.000000 0.000000
# 5 0.000000 0.000000 0.000000 0.000000 0.030809 0.000000
# 6 0.000000 0.000000 0.000000 0.000000 0.000000 0.025852
#
#
# Mechanical properties :
#
#
# Convention : Reuss Voigt Hill
#
# Bulk Modulus (GPa) = 34.14445 34.73065 34.43755
# Shear Modulus (GPa) = -77.48097 25.82487 -25.82805
#
# Velocity S-wave (km/s) = -5.90978 3.41187 -3.41208
# Velocity P-wave (km/s) = 5.58357 5.58359 0.00815
#
# Compressibility (1/GPa) = 0.02928734
#
# Stress axis : x y z
#
# Youngs Moduli (GPa) = 66.22029 70.21354 79.63923
#
# Poissons Ratio (x) = 0.16670 0.05682
# Poissons Ratio (y) = 0.15722 0.25634
# Poissons Ratio (z) = 0.04724 0.22600
#
# Static dielectric constant tensor:
#      x y z
#    x 1.884300 0.000000 0.000000 
#    y 0.000000 1.902690 0.000000 
#    z 0.000000 0.000000 1.898300 
# 
# From -- ./inp_files/10144.got.cif
#   From: 2010.05.17/outbox.cif.g08.bks.cpg/sg41_6_cif.got.tgz:10144.got - 2010.06.03 18:54:24.
