data_PCOD9366451
_publ_section_title
;
Structure prediction by ZEFSAII (Michael W. Deem and Ramdas Pophale) SiO2 
 PCOD9366451
Probable space group: A B A 2
;
_chemical_formula_sum "Si O2"
_cell_formula_units_Z 56
_cell_length_a 11.909662
_cell_length_b 12.625925
_cell_length_c 14.278108
_cell_angle_alpha 90.000000
_cell_angle_beta 90.000000
_cell_angle_gamma 90.000000
_cell_volume 2147.006227
_symmetry_space_group_name_H-M "A B A 2"
_symmetry_group_IT_number 41
_symmetry_cell_setting 'orthorhombic'
loop_
_space_group_symop_operation_xyz
x,y,z
-x,-y,z
1/2-x,y,1/2+z
1/2+x,-y,1/2+z
x,1/2+y,1/2+z
-x,1/2-y,1/2+z
1/2-x,1/2+y,z
1/2+x,1/2-y,z
loop_
_atom_site_type_symbol
_atom_site_label
_atom_site_fract_x
_atom_site_fract_y
_atom_site_fract_z
Si Si1 0.686381 0.150391 0.955420
Si Si2 0.467804 0.838095 0.206242
Si Si3 0.634450 0.374952 0.289539
Si Si4 0.736855 0.084917 0.744993
Si Si5 0.886776 0.704367 0.595605
Si Si6 0.625538 0.862201 0.382667
Si Si7 0.000000 0.500000 0.517773
Si Si8 0.500000 0.500000 0.439984
O O1 0.734264 0.109913 0.855364
O O2 0.608438 0.252753 0.937607
O O3 0.607080 0.053691 0.989586
O O4 0.786703 0.193578 0.020509
O O5 0.409957 0.725219 0.233494
O O6 0.362273 0.916834 0.204432
O O7 0.543636 0.811227 0.115543
O O8 0.543825 0.869016 0.294289
O O9 0.668972 0.476743 0.227671
O O10 0.748591 0.354631 0.345767
O O11 0.545666 0.411804 0.367031
O O12 0.671216 0.178936 0.694608
O O13 0.964335 0.603688 0.573324
O O14 0.600412 0.959683 0.450836
#
# Coordination Sequence:
#
# PCOD9366451 Si02
#       8
#     8   8   8   8   8   8   4   4
#     4  11  23  45  76 111 153 195 266 315 397 467
#     4  12  22  45  75 111 148 205 253 315 396 458
#     4  11  21  41  76 103 146 196 253 316 389 466
#     4  11  24  47  73 110 151 197 264 320 386 479
#     4  12  26  46  70 111 149 204 256 320 383 476
#     4  12  24  46  75 112 149 202 251 324 385 477
#     4  12  28  45  74 115 160 202 260 319 412 459
#     4  10  20  41  72 107 136 208 244 317 388 471
#
# _framework density 26.082830000000001
#
# number of rings (size 3 to 8) (size 9 to 14) (size 15 to 20)
#    0.000    0.571    4.286    5.143    2.000    0.571 
#    2.571    1.429    0.000    0.000    0.000    0.000 
#    0.000    0.000    0.000    0.000    0.000    0.000 
#
# Total GULP energy -156910.024996 kJ/mol
# GULP energy per Si atom -5603.929464 kJ/mol
# Density = 2.602346 g / cm^3
# Si number density = 26.082830 Si / 1000 Ang^3
#
#
#
# Elastic Constant Matrix: (Units=GPa)
#
#
# Indices 1 2 3 4 5 6 
#
# 1 124.7219 13.7121 46.4776 0.0000 0.0000 0.0000
# 2 13.7121 72.4528 16.8659 0.0000 0.0000 0.0000
# 3 46.4776 16.8659 109.5900 0.0000 0.0000 0.0000
# 4 0.0000 0.0000 0.0000 -113.7006 0.0000 0.0000
# 5 0.0000 0.0000 0.0000 0.0000 48.4140 0.0000
# 6 0.0000 0.0000 0.0000 0.0000 0.0000 55.0544
#
#
#
# Elastic Compliance Matrix: (Units=1/GPa)
#
#
# Indices 1 2 3 4 5 6 
#
# 1 0.009579 -0.000899 -0.003924 0.000000 0.000000 0.000000
# 2 -0.000899 0.014399 -0.001835 0.000000 0.000000 0.000000
# 3 -0.003924 -0.001835 0.011071 0.000000 0.000000 0.000000
# 4 0.000000 0.000000 0.000000 -0.008795 0.000000 0.000000
# 5 0.000000 0.000000 0.000000 0.000000 0.020655 0.000000
# 6 0.000000 0.000000 0.000000 0.000000 0.000000 0.018164
#
#
# Mechanical properties :
#
#
# Convention : Reuss Voigt Hill
#
# Bulk Modulus (GPa) = 46.01158 51.20843 48.61001
# Shear Modulus (GPa) = 58.38754 13.26750 35.82752
#
# Velocity S-wave (km/s) = 4.73646 2.25781 3.71024
# Velocity P-wave (km/s) = 6.89862 5.14515 6.08537
#
# Compressibility (1/GPa) = 0.02173366
#
# Stress axis : x y z
#
# Youngs Moduli (GPa) = 104.39470 69.44742 90.32203
#
# Poissons Ratio (x) = 0.06246 0.35443
# Poissons Ratio (y) = 0.09389 0.16571
# Poissons Ratio (z) = 0.40965 0.12741
#
# Static dielectric constant tensor:
#      x y z
#    x 2.076950 0.000000 0.000000 
#    y 0.000000 2.085980 0.000000 
#    z 0.000000 0.000000 2.071000 
# 
# From -- ./inp_files/7995.got.cif
#   From: 2010.05.17/outbox.cif.g08.bks.cpg/sg41_4_cif.got.tgz:7995.got - 2010.06.03 18:54:24.
