data_PCOD9366159
_publ_section_title
;
Structure prediction by ZEFSAII (Michael W. Deem and Ramdas Pophale) SiO2 
 PCOD9366159
Probable space group: A B A 2
;
_chemical_formula_sum "Si O2"
_cell_formula_units_Z 64
_cell_length_a 5.036896
_cell_length_b 29.850381
_cell_length_c 19.137976
_cell_angle_alpha 90.000000
_cell_angle_beta 90.000000
_cell_angle_gamma 90.000000
_cell_volume 2877.457171
_symmetry_space_group_name_H-M "A B A 2"
_symmetry_group_IT_number 41
_symmetry_cell_setting 'orthorhombic'
loop_
_space_group_symop_operation_xyz
x,y,z
-x,-y,z
1/2-x,y,1/2+z
1/2+x,-y,1/2+z
x,1/2+y,1/2+z
-x,1/2-y,1/2+z
1/2-x,1/2+y,z
1/2+x,1/2-y,z
loop_
_atom_site_type_symbol
_atom_site_label
_atom_site_fract_x
_atom_site_fract_y
_atom_site_fract_z
Si Si1 0.465662 0.273859 0.449090
Si Si2 0.140080 0.955135 0.577509
Si Si3 0.464426 0.276234 0.617221
Si Si4 0.739860 0.869941 0.110150
Si Si5 0.327689 0.958568 0.240626
Si Si6 0.470737 0.128378 0.901077
Si Si7 0.342793 0.095712 0.755967
Si Si8 0.991295 0.600848 0.482886
O O1 0.170338 0.263780 0.423841
O O2 0.455879 0.273117 0.532998
O O3 0.574105 0.321602 0.427303
O O4 0.947490 0.911523 0.585511
O O5 0.216344 0.965833 0.657618
O O6 0.381507 0.940498 0.528292
O O7 0.000000 0.000000 0.550433
O O8 0.178387 0.260420 0.643090
O O9 0.569155 0.326401 0.629605
O O10 0.898122 0.885126 0.178850
O O11 0.935867 0.863027 0.044115
O O12 0.533410 0.917700 0.253303
O O13 0.038830 0.946488 0.268489
O O14 0.500000 0.000000 0.268038
O O15 0.421078 0.127413 0.818999
O O16 0.758141 0.115083 0.930525
O O17 0.254526 0.095879 0.937066
#
# Coordination Sequence:
#
# PCOD9366159 Si02
#       8
#     8   8   8   8   8   8   8   8
#     4  10  20  35  59  89 120 160 212 259 311 383
#     4  10  22  40  69 103 128 165 220 279 327 385
#     4  10  22  35  61  95 125 159 211 268 322 380
#     4  11  23  42  69  96 128 170 219 271 326 386
#     4  10  21  40  67  93 121 163 221 264 311 383
#     4  12  25  41  63  93 129 173 211 261 328 395
#     4  11  24  42  64  92 127 172 210 261 326 390
#     4  12  22  41  66  91 128 168 210 267 321 382
#
# _framework density 22.241862999999999
#
# number of rings (size 3 to 8) (size 9 to 14) (size 15 to 20)
#    0.000    1.250    3.750    1.875    5.250    0.500 
#    0.000    3.750    0.000    0.000    0.000    0.000 
#    0.000    0.000    0.000    0.000    0.000    0.000 
#
# Total GULP energy -178742.640384 kJ/mol
# GULP energy per Si atom -5585.707512 kJ/mol
# Density = 2.219124 g / cm^3
# Si number density = 22.241863 Si / 1000 Ang^3
#
#
#
# Elastic Constant Matrix: (Units=GPa)
#
#
# Indices 1 2 3 4 5 6 
#
# 1 90.8128 3.2010 14.5067 0.0000 0.0000 0.0000
# 2 3.2010 47.7729 -24.9397 0.0000 0.0000 0.0000
# 3 14.5067 -24.9397 47.0509 0.0000 0.0000 0.0000
# 4 0.0000 0.0000 0.0000 11.6565 0.0000 0.0000
# 5 0.0000 0.0000 0.0000 0.0000 12.8488 0.0000
# 6 0.0000 0.0000 0.0000 0.0000 0.0000 27.9386
#
#
#
# Elastic Compliance Matrix: (Units=1/GPa)
#
#
# Indices 1 2 3 4 5 6 
#
# 1 0.012062 -0.003802 -0.005734 0.000000 0.000000 0.000000
# 2 -0.003802 0.030139 0.017147 0.000000 0.000000 0.000000
# 3 -0.005734 0.017147 0.032111 0.000000 0.000000 0.000000
# 4 0.000000 0.000000 0.000000 0.085789 0.000000 0.000000
# 5 0.000000 0.000000 0.000000 0.000000 0.077828 0.000000
# 6 0.000000 0.000000 0.000000 0.000000 0.000000 0.035793
#
#
# Mechanical properties :
#
#
# Convention : Reuss Voigt Hill
#
# Bulk Modulus (GPa) = 11.16880 19.01918 15.09399
# Shear Modulus (GPa) = 17.34052 23.34669 20.34360
#
# Velocity S-wave (km/s) = 2.79522 3.24338 3.02761
# Velocity P-wave (km/s) = 3.93066 4.75349 4.36152
#
# Compressibility (1/GPa) = 0.08953516
#
# Stress axis : x y z
#
# Youngs Moduli (GPa) = 82.90770 33.17976 31.14237
#
# Poissons Ratio (x) = 0.12613 0.17857
# Poissons Ratio (y) = 0.31518 -0.53401
# Poissons Ratio (z) = 0.47538 -0.56895
#
# Static dielectric constant tensor:
#      x y z
#    x 1.875960 0.000000 0.000000 
#    y 0.000000 1.886630 0.000000 
#    z 0.000000 0.000000 1.796690 
# 
# From -- ./inp_files/11043.got.cif
#   From: 2010.05.17/outbox.cif.g08.bks.cpg/sg41_6_cif.got.tgz:11043.got - 2010.06.03 18:54:24.
