data_PCOD9366712
_publ_section_title
;
Structure prediction by ZEFSAII (Michael W. Deem and Ramdas Pophale) SiO2 
 PCOD9366712
Probable space group: A B A 2
;
_chemical_formula_sum "Si O2"
_cell_formula_units_Z 48
_cell_length_a 15.229715
_cell_length_b 8.213532
_cell_length_c 17.932398
_cell_angle_alpha 90.000000
_cell_angle_beta 90.000000
_cell_angle_gamma 90.000000
_cell_volume 2243.159210
_symmetry_space_group_name_H-M "A B A 2"
_symmetry_group_IT_number 41
_symmetry_cell_setting 'orthorhombic'
loop_
_space_group_symop_operation_xyz
x,y,z
-x,-y,z
1/2-x,y,1/2+z
1/2+x,-y,1/2+z
x,1/2+y,1/2+z
-x,1/2-y,1/2+z
1/2-x,1/2+y,z
1/2+x,1/2-y,z
loop_
_atom_site_type_symbol
_atom_site_label
_atom_site_fract_x
_atom_site_fract_y
_atom_site_fract_z
Si Si1 0.500000 0.000000 0.165841
Si Si2 0.322348 0.880842 0.121000
Si Si3 0.947183 0.227949 0.271486
Si Si4 0.313981 0.883542 0.951899
Si Si5 0.174188 0.560875 0.712527
Si Si6 0.000000 0.500000 0.896620
Si Si7 0.287660 0.107465 0.349453
O O1 0.589658 0.010754 0.120607
O O2 0.501452 0.162336 0.215679
O O3 0.342575 0.698826 0.150565
O O4 0.253970 0.955623 0.178995
O O5 0.285831 0.888414 0.037165
O O6 0.872462 0.353163 0.299795
O O7 0.000208 0.156379 0.341515
O O8 0.900836 0.071073 0.232951
O O9 0.316562 0.698508 0.925575
O O10 0.407942 0.974413 0.940019
O O11 0.247814 0.943427 0.886927
O O12 0.208972 0.640808 0.789784
#
# Coordination Sequence:
#
# PCOD9366712 Si02
#       7
#     4   8   8   8   8   4   8
#     4  12  25  38  64  98 133 166 216 270 333 392
#     4  12  24  40  62  95 133 164 213 268 331 389
#     4  11  23  38  67 100 120 174 220 274 316 374
#     4  11  24  38  63  93 127 170 204 265 329 381
#     4  12  21  43  67  93 125 167 222 268 309 388
#     4  10  21  40  60  88 135 166 208 260 335 382
#     4  11  20  40  65  90 121 164 221 256 310 381
#
# _framework density 21.398391
#
# number of rings (size 3 to 8) (size 9 to 14) (size 15 to 20)
#    0.000    0.667    6.667    2.500    0.000    0.000 
#    0.000    0.000    0.000   10.000    0.000    0.000 
#    0.000    0.000    0.000    0.000    0.000    0.000 
#
# Total GULP energy -133664.310487 kJ/mol
# GULP energy per Si atom -5569.346270 kJ/mol
# Density = 2.134969 g / cm^3
# Si number density = 21.398391 Si / 1000 Ang^3
#
#
#
# Elastic Constant Matrix: (Units=GPa)
#
#
# Indices 1 2 3 4 5 6 
#
# 1 56.3279 22.8480 8.1425 0.0000 0.0000 0.0000
# 2 22.8480 58.7592 32.4182 0.0000 0.0000 0.0000
# 3 8.1425 32.4182 108.9473 0.0000 0.0000 0.0000
# 4 0.0000 0.0000 0.0000 21.2698 0.0000 0.0000
# 5 0.0000 0.0000 0.0000 0.0000 -30.8523 0.0000
# 6 0.0000 0.0000 0.0000 0.0000 0.0000 26.0141
#
#
#
# Elastic Compliance Matrix: (Units=1/GPa)
#
#
# Indices 1 2 3 4 5 6 
#
# 1 0.021175 -0.008806 0.001038 0.000000 0.000000 0.000000
# 2 -0.008806 0.024024 -0.006490 0.000000 0.000000 0.000000
# 3 0.001038 -0.006490 0.011032 0.000000 0.000000 0.000000
# 4 0.000000 0.000000 0.000000 0.047015 0.000000 0.000000
# 5 0.000000 0.000000 0.000000 0.000000 -0.032412 0.000000
# 6 0.000000 0.000000 0.000000 0.000000 0.000000 0.038441
#
#
# Mechanical properties :
#
#
# Convention : Reuss Voigt Hill
#
# Bulk Modulus (GPa) = 36.08331 38.98355 37.53343
# Shear Modulus (GPa) = 34.00662 13.99469 24.00066
#
# Velocity S-wave (km/s) = 3.99082 2.56013 3.35268
# Velocity P-wave (km/s) = 6.17533 5.19582 5.70663
#
# Compressibility (1/GPa) = 0.02771364
#
# Stress axis : x y z
#
# Youngs Moduli (GPa) = 47.22494 41.62556 90.64190
#
# Poissons Ratio (x) = 0.36657 -0.09407
# Poissons Ratio (y) = 0.41588 0.58829
# Poissons Ratio (z) = -0.04901 0.27016
#
# Static dielectric constant tensor:
#      x y z
#    x 1.875620 0.000000 0.000000 
#    y 0.000000 1.356300 0.000000 
#    z 0.000000 0.000000 1.761460 
# 
# From -- ./inp_files/10318.got.cif
#   From: 2010.05.17/outbox.cif.g08.bks.cpg/sg41_6_cif.got.tgz:10318.got - 2010.06.03 18:54:24.
