data_PCOD9366448
_publ_section_title
;
Structure prediction by ZEFSAII (Michael W. Deem and Ramdas Pophale) SiO2 
 PCOD9366448
Probable space group: A B A 2
;
_chemical_formula_sum "Si O2"
_cell_formula_units_Z 60
_cell_length_a 16.367470
_cell_length_b 14.908860
_cell_length_c 11.557196
_cell_angle_alpha 90.000000
_cell_angle_beta 90.000000
_cell_angle_gamma 90.000000
_cell_volume 2820.190652
_symmetry_space_group_name_H-M "A B A 2"
_symmetry_group_IT_number 41
_symmetry_cell_setting 'orthorhombic'
loop_
_space_group_symop_operation_xyz
x,y,z
-x,-y,z
1/2-x,y,1/2+z
1/2+x,-y,1/2+z
x,1/2+y,1/2+z
-x,1/2-y,1/2+z
1/2-x,1/2+y,z
1/2+x,1/2-y,z
loop_
_atom_site_type_symbol
_atom_site_label
_atom_site_fract_x
_atom_site_fract_y
_atom_site_fract_z
Si Si1 0.027513 0.818594 0.619900
Si Si2 0.288233 0.878287 0.703878
Si Si3 0.424889 0.332638 0.051289
Si Si4 0.652052 0.737215 0.818740
Si Si5 0.846253 0.049241 0.554790
Si Si6 0.000000 0.000000 0.947617
Si Si7 0.794077 0.934514 0.335348
Si Si8 0.387692 0.583753 0.756992
O O1 0.086815 0.801458 0.727920
O O2 0.075452 0.886527 0.533854
O O3 0.007035 0.724362 0.561955
O O4 0.941433 0.854427 0.671032
O O5 0.371888 0.832602 0.667199
O O6 0.235893 0.814657 0.787661
O O7 0.233006 0.892395 0.588494
O O8 0.303583 0.977210 0.755491
O O9 0.374814 0.289012 0.946802
O O10 0.443843 0.435110 0.021731
O O11 0.655573 0.844811 0.808309
O O12 0.819858 0.975516 0.460328
O O13 0.871421 0.001281 0.674359
O O14 0.054140 0.060093 0.862872
O O15 0.701069 0.899471 0.313497
#
# Coordination Sequence:
#
# PCOD9366448 Si02
#       8
#     8   8   8   8   8   4   8   8
#     4  11  23  41  65  93 137 179 221 279 340 416
#     4  10  23  44  65  93 138 172 226 289 333 410
#     4  12  25  42  67  98 135 180 227 282 350 403
#     4  11  24  46  63  99 136 175 229 278 348 416
#     4  10  20  41  68  96 129 178 224 276 343 403
#     4  12  22  42  68  92 126 174 230 274 330 420
#     4  11  24  40  71 100 132 173 232 288 340 396
#     4  11  20  43  69  94 126 182 224 272 338 424
#
# _framework density 21.275157
#
# number of rings (size 3 to 8) (size 9 to 14) (size 15 to 20)
#    0.000    1.067    2.667    4.800    1.867    2.133 
#    7.200    1.333    0.000    0.000    0.000    0.000 
#    0.000    0.000    0.000    0.000    0.000    0.000 
#
# Total GULP energy -167411.691505 kJ/mol
# GULP energy per Si atom -5580.389717 kJ/mol
# Density = 2.122673 g / cm^3
# Si number density = 21.275157 Si / 1000 Ang^3
#
#
#
# Elastic Constant Matrix: (Units=GPa)
#
#
# Indices 1 2 3 4 5 6 
#
# 1 55.4055 22.6177 15.0893 0.0000 0.0000 0.0000
# 2 22.6177 109.2453 15.3901 0.0000 0.0000 0.0000
# 3 15.0893 15.3901 47.3697 0.0000 0.0000 0.0000
# 4 0.0000 0.0000 0.0000 -439.9069 0.0000 0.0000
# 5 0.0000 0.0000 0.0000 0.0000 59.8195 0.0000
# 6 0.0000 0.0000 0.0000 0.0000 0.0000 45.4239
#
#
#
# Elastic Compliance Matrix: (Units=1/GPa)
#
#
# Indices 1 2 3 4 5 6 
#
# 1 0.021014 -0.003571 -0.005534 0.000000 0.000000 0.000000
# 2 -0.003571 0.010200 -0.002176 0.000000 0.000000 0.000000
# 3 -0.005534 -0.002176 0.023580 0.000000 0.000000 0.000000
# 4 0.000000 0.000000 0.000000 -0.002273 0.000000 0.000000
# 5 0.000000 0.000000 0.000000 0.000000 0.016717 0.000000
# 6 0.000000 0.000000 0.000000 0.000000 0.000000 0.022015
#
#
# Mechanical properties :
#
#
# Convention : Reuss Voigt Hill
#
# Bulk Modulus (GPa) = 31.02523 35.35717 33.19120
# Shear Modulus (GPa) = 40.14209 -56.33782 -8.09787
#
# Velocity S-wave (km/s) = 4.34845 -5.15151 -1.95308
# Velocity P-wave (km/s) = 6.31083 4.32770 3.24789
#
# Compressibility (1/GPa) = 0.03223184
#
# Stress axis : x y z
#
# Youngs Moduli (GPa) = 47.58843 98.04285 42.40834
#
# Poissons Ratio (x) = 0.35011 0.23467
# Poissons Ratio (y) = 0.16994 0.09229
# Poissons Ratio (z) = 0.26333 0.21337
#
# Static dielectric constant tensor:
#      x y z
#    x 1.795250 0.000000 0.000000 
#    y 0.000000 1.750010 0.000000 
#    z 0.000000 0.000000 1.730810 
# 
# From -- ./inp_files/5999.got.cif
#   From: 2010.05.17/outbox.cif.g08.bks.cpg/sg41_3_cif.got.tgz:5999.got - 2010.06.03 18:54:24.
