data_PCOD9366597
_publ_section_title
;
Structure prediction by ZEFSAII (Michael W. Deem and Ramdas Pophale) SiO2 
 PCOD9366597
Probable space group: A B A 2
;
_chemical_formula_sum "Si O2"
_cell_formula_units_Z 32
_cell_length_a 10.422379
_cell_length_b 12.945342
_cell_length_c 13.124552
_cell_angle_alpha 90.000000
_cell_angle_beta 90.000000
_cell_angle_gamma 90.000000
_cell_volume 1770.781101
_symmetry_space_group_name_H-M "A B A 2"
_symmetry_group_IT_number 41
_symmetry_cell_setting 'orthorhombic'
loop_
_space_group_symop_operation_xyz
x,y,z
-x,-y,z
1/2-x,y,1/2+z
1/2+x,-y,1/2+z
x,1/2+y,1/2+z
-x,1/2-y,1/2+z
1/2-x,1/2+y,z
1/2+x,1/2-y,z
loop_
_atom_site_type_symbol
_atom_site_label
_atom_site_fract_x
_atom_site_fract_y
_atom_site_fract_z
Si Si1 0.358506 0.982436 0.938770
Si Si2 0.144439 0.156585 0.267570
Si Si3 0.614420 0.417864 0.038392
Si Si4 0.890345 0.746234 0.864063
O O1 0.345168 0.862874 0.910994
O O2 0.500000 0.000000 0.984894
O O3 0.356000 0.052223 0.836078
O O4 0.246240 0.024226 0.009683
O O5 0.125091 0.130088 0.150254
O O6 0.279017 0.212532 0.289892
O O7 0.024915 0.224053 0.308444
O O8 0.500000 0.500000 0.035049
O O9 0.593287 0.329293 0.954018
#
# Coordination Sequence:
#
# PCOD9366597 Si02
#       4
#     8   8   8   8
#     4   9  20  39  57  81 114 145 187 237 280 330
#     4  10  22  38  58  84 115 149 188 235 281 332
#     4  11  22  37  59  85 114 150 188 230 282 337
#     4  10  21  38  59  84 114 148 188 234 281 333
#
# _framework density 18.071121999999999
#
# number of rings (size 3 to 8) (size 9 to 14) (size 15 to 20)
#    0.000    2.000    0.000    3.750    0.000   10.000 
#    0.000    5.000    0.000    0.000    0.000    0.000 
#    0.000    0.000    0.000    0.000    0.000    0.000 
#
# Total GULP energy -89364.745629 kJ/mol
# GULP energy per Si atom -5585.296602 kJ/mol
# Density = 1.802999 g / cm^3
# Si number density = 18.071122 Si / 1000 Ang^3
#
#
#
# Elastic Constant Matrix: (Units=GPa)
#
#
# Indices 1 2 3 4 5 6 
#
# 1 126.6852 73.2901 100.8514 0.0000 0.0000 0.0000
# 2 73.2901 125.2772 61.8691 0.0000 0.0000 0.0000
# 3 100.8514 61.8691 133.5761 0.0000 0.0000 0.0000
# 4 0.0000 0.0000 0.0000 7.5355 0.0000 0.0000
# 5 0.0000 0.0000 0.0000 0.0000 -11.4508 0.0000
# 6 0.0000 0.0000 0.0000 0.0000 0.0000 29.8961
#
#
#
# Elastic Compliance Matrix: (Units=1/GPa)
#
#
# Indices 1 2 3 4 5 6 
#
# 1 0.023132 -0.006363 -0.014518 0.000000 0.000000 0.000000
# 2 -0.006363 0.012100 -0.000800 0.000000 0.000000 0.000000
# 3 -0.014518 -0.000800 0.018818 0.000000 0.000000 0.000000
# 4 0.000000 0.000000 0.000000 0.132705 0.000000 0.000000
# 5 0.000000 0.000000 0.000000 0.000000 -0.087330 0.000000
# 6 0.000000 0.000000 0.000000 0.000000 0.000000 0.033449
#
#
# Mechanical properties :
#
#
# Convention : Reuss Voigt Hill
#
# Bulk Modulus (GPa) = 93.56241 95.28440 94.42340
# Shear Modulus (GPa) = 27.80883 15.16469 21.48676
#
# Velocity S-wave (km/s) = 3.92708 2.89998 3.45194
# Velocity P-wave (km/s) = 8.51173 8.00344 8.26150
#
# Compressibility (1/GPa) = 0.01068805
#
# Stress axis : x y z
#
# Youngs Moduli (GPa) = 43.23019 82.64421 53.14057
#
# Poissons Ratio (x) = 0.52587 0.77148
# Poissons Ratio (y) = 0.27508 0.04253
# Poissons Ratio (z) = 0.62760 0.06613
#
# Static dielectric constant tensor:
#      x y z
#    x 1.620930 0.000000 0.000000 
#    y 0.000000 1.605140 0.000000 
#    z 0.000000 0.000000 1.578550 
# 
# From -- ./inp_files/1909.got.cif
#   From: 2010.05.17/outbox.cif.g08.bks.cpg/sg41_1_cif.got.tgz:1909.got - 2010.06.03 18:54:24.
