data_PCOD9366697
_publ_section_title
;
Structure prediction by ZEFSAII (Michael W. Deem and Ramdas Pophale) SiO2 
 PCOD9366697
Probable space group: A B A 2
;
_chemical_formula_sum "Si O2"
_cell_formula_units_Z 56
_cell_length_a 21.446799
_cell_length_b 15.937493
_cell_length_c 8.229283
_cell_angle_alpha 90.000000
_cell_angle_beta 90.000000
_cell_angle_gamma 90.000000
_cell_volume 2812.836483
_symmetry_space_group_name_H-M "A B A 2"
_symmetry_group_IT_number 41
_symmetry_cell_setting 'orthorhombic'
loop_
_space_group_symop_operation_xyz
x,y,z
-x,-y,z
1/2-x,y,1/2+z
1/2+x,-y,1/2+z
x,1/2+y,1/2+z
-x,1/2-y,1/2+z
1/2-x,1/2+y,z
1/2+x,1/2-y,z
loop_
_atom_site_type_symbol
_atom_site_label
_atom_site_fract_x
_atom_site_fract_y
_atom_site_fract_z
Si Si1 0.769639 0.192072 0.595260
Si Si2 0.951381 0.922733 0.686725
Si Si3 0.382820 0.055546 0.848110
Si Si4 0.465117 0.589317 0.044997
Si Si5 0.321370 0.212137 0.891109
Si Si6 0.345006 0.869005 0.789574
Si Si7 0.059103 0.260630 0.599979
O O1 0.734163 0.270927 0.515942
O O2 0.809171 0.224747 0.744989
O O3 0.711582 0.137035 0.659778
O O4 0.813027 0.150769 0.461189
O O5 0.906701 0.943328 0.534456
O O6 0.927545 0.915243 0.873615
O O7 0.973788 0.827172 0.647742
O O8 0.000000 0.000000 0.687185
O O9 0.428335 0.096367 0.713842
O O10 0.323059 0.115413 0.842554
O O11 0.372779 0.961129 0.793272
O O12 0.500000 0.500000 0.054947
O O13 0.512607 0.667613 0.038327
O O14 0.387852 0.235378 0.969764
O O15 0.399052 0.802643 0.743308
#
# Coordination Sequence:
#
# PCOD9366697 Si02
#       7
#     8   8   8   8   8   8   8
#     4   9  20  41  62  91 117 160 206 262 320 373
#     4  10  25  40  58  91 125 166 209 246 302 369
#     4  11  23  41  61  94 125 165 207 257 306 379
#     4  11  23  41  59  90 133 163 205 259 301 375
#     4   9  21  39  62  90 121 157 211 254 317 370
#     4  10  21  39  65  90 124 159 208 262 318 374
#     4  10  22  40  62  90 125 164 210 253 314 372
#
# _framework density 19.908728
#
# number of rings (size 3 to 8) (size 9 to 14) (size 15 to 20)
#    0.000    2.000    1.429    0.429    6.000    3.429 
#    2.571    0.000    0.000    0.000    0.000    0.000 
#    0.000    0.000    0.000    0.000    0.000    0.000 
#
# Total GULP energy -156032.198171 kJ/mol
# GULP energy per Si atom -5572.578506 kJ/mol
# Density = 1.986341 g / cm^3
# Si number density = 19.908728 Si / 1000 Ang^3
#
#
#
# Elastic Constant Matrix: (Units=GPa)
#
#
# Indices 1 2 3 4 5 6 
#
# 1 37.4364 25.0034 24.6430 0.0000 0.0000 0.0000
# 2 25.0034 124.5148 3.6132 0.0000 0.0000 0.0000
# 3 24.6430 3.6132 97.8456 0.0000 0.0000 0.0000
# 4 0.0000 0.0000 0.0000 7.0950 0.0000 0.0000
# 5 0.0000 0.0000 0.0000 0.0000 7.8254 0.0000
# 6 0.0000 0.0000 0.0000 0.0000 0.0000 21.4126
#
#
#
# Elastic Compliance Matrix: (Units=1/GPa)
#
#
# Indices 1 2 3 4 5 6 
#
# 1 0.037647 -0.007292 -0.009212 0.000000 0.000000 0.000000
# 2 -0.007292 0.009452 0.001488 0.000000 0.000000 0.000000
# 3 -0.009212 0.001488 0.012485 0.000000 0.000000 0.000000
# 4 0.000000 0.000000 0.000000 0.140944 0.000000 0.000000
# 5 0.000000 0.000000 0.000000 0.000000 0.127789 0.000000
# 6 0.000000 0.000000 0.000000 0.000000 0.000000 0.046702
#
#
# Mechanical properties :
#
#
# Convention : Reuss Voigt Hill
#
# Bulk Modulus (GPa) = 33.84062 40.70177 37.27120
# Shear Modulus (GPa) = 12.05100 21.03573 16.54336
#
# Velocity S-wave (km/s) = 2.46298 3.25408 2.88577
# Velocity P-wave (km/s) = 5.01230 5.88279 5.46491
#
# Compressibility (1/GPa) = 0.02955029
#
# Stress axis : x y z
#
# Youngs Moduli (GPa) = 26.56288 105.79370 80.09343
#
# Poissons Ratio (x) = 0.77148 0.73784
# Poissons Ratio (y) = 0.19371 -0.11914
# Poissons Ratio (z) = 0.24470 -0.15738
#
# Static dielectric constant tensor:
#      x y z
#    x 1.714310 0.000000 0.000000 
#    y 0.000000 1.713750 0.000000 
#    z 0.000000 0.000000 1.747860 
# 
# From -- ./inp_files/3416.got.cif
#   From: 2010.05.17/outbox.cif.g08.bks.cpg/sg41_2_cif.got.tgz:3416.got - 2010.06.03 18:54:24.
