data_PCOD9366395
_publ_section_title
;
Structure prediction by ZEFSAII (Michael W. Deem and Ramdas Pophale) SiO2 
 PCOD9366395
Probable space group: A B A 2
;
_chemical_formula_sum "Si O2"
_cell_formula_units_Z 60
_cell_length_a 12.192838
_cell_length_b 25.220775
_cell_length_c 8.614872
_cell_angle_alpha 90.000000
_cell_angle_beta 90.000000
_cell_angle_gamma 90.000000
_cell_volume 2649.183615
_symmetry_space_group_name_H-M "A B A 2"
_symmetry_group_IT_number 41
_symmetry_cell_setting 'orthorhombic'
loop_
_space_group_symop_operation_xyz
x,y,z
-x,-y,z
1/2-x,y,1/2+z
1/2+x,-y,1/2+z
x,1/2+y,1/2+z
-x,1/2-y,1/2+z
1/2-x,1/2+y,z
1/2+x,1/2-y,z
loop_
_atom_site_type_symbol
_atom_site_label
_atom_site_fract_x
_atom_site_fract_y
_atom_site_fract_z
Si Si1 0.554218 0.400093 0.814100
Si Si2 0.995669 0.894318 0.456762
Si Si3 0.500000 0.000000 0.532609
Si Si4 0.168602 0.441225 0.730977
Si Si5 0.791269 0.851265 0.380881
Si Si6 0.855125 0.702924 0.887676
Si Si7 0.761543 0.273099 0.140181
Si Si8 0.832277 0.616942 0.410610
O O1 0.533878 0.410324 0.631752
O O2 0.530747 0.450920 0.922186
O O3 0.670710 0.374961 0.856675
O O4 0.451392 0.363430 0.861338
O O5 0.883250 0.895307 0.360245
O O6 0.087829 0.929302 0.374710
O O7 0.043665 0.834353 0.435284
O O8 0.607152 0.011633 0.639639
O O9 0.168886 0.397748 0.591804
O O10 0.288734 0.434277 0.809516
O O11 0.806107 0.824208 0.548300
O O12 0.809714 0.801189 0.271307
O O13 0.851733 0.737231 0.728845
O O14 0.754543 0.661890 0.873427
O O15 0.816884 0.740947 0.026330
#
# Coordination Sequence:
#
# PCOD9366395 Si02
#       8
#     8   8   4   8   8   8   8   8
#     4  11  24  46  67  98 139 187 231 295 363 435
#     4  11  23  42  73  93 140 191 230 288 367 418
#     4  10  26  46  70 106 134 176 246 294 368 446
#     4  10  22  43  69 105 130 172 232 296 362 428
#     4  11  24  43  61  97 144 187 227 276 365 415
#     4  10  20  40  65 100 133 180 242 285 333 403
#     4  10  22  40  60  99 139 181 239 279 334 416
#     4  10  20  40  70  95 137 178 230 290 353 413
#
# _framework density 22.648485000000001
#
# number of rings (size 3 to 8) (size 9 to 14) (size 15 to 20)
#    0.000    1.600    1.333    4.000    3.733    1.600 
#   19.200    0.000    0.000    0.000    0.000    0.000 
#    0.000    0.000    0.000    0.000    0.000    0.000 
#
# Total GULP energy -167267.247878 kJ/mol
# GULP energy per Si atom -5575.574929 kJ/mol
# Density = 2.259694 g / cm^3
# Si number density = 22.648485 Si / 1000 Ang^3
#
#
#
# Elastic Constant Matrix: (Units=GPa)
#
#
# Indices 1 2 3 4 5 6 
#
# 1 131.1017 18.6858 16.2928 0.0000 0.0000 0.0000
# 2 18.6858 52.1830 29.0581 0.0000 0.0000 0.0000
# 3 16.2928 29.0581 102.0616 0.0000 0.0000 0.0000
# 4 0.0000 0.0000 0.0000 32.3806 0.0000 0.0000
# 5 0.0000 0.0000 0.0000 0.0000 19.5138 0.0000
# 6 0.0000 0.0000 0.0000 0.0000 0.0000 25.4314
#
#
#
# Elastic Compliance Matrix: (Units=1/GPa)
#
#
# Indices 1 2 3 4 5 6 
#
# 1 0.008064 -0.002580 -0.000553 0.000000 0.000000 0.000000
# 2 -0.002580 0.023599 -0.006307 0.000000 0.000000 0.000000
# 3 -0.000553 -0.006307 0.011682 0.000000 0.000000 0.000000
# 4 0.000000 0.000000 0.000000 0.030883 0.000000 0.000000
# 5 0.000000 0.000000 0.000000 0.000000 0.051246 0.000000
# 6 0.000000 0.000000 0.000000 0.000000 0.000000 0.039321
#
#
# Mechanical properties :
#
#
# Convention : Reuss Voigt Hill
#
# Bulk Modulus (GPa) = 40.87341 45.93554 43.40447
# Shear Modulus (GPa) = 26.06475 30.21913 28.14194
#
# Velocity S-wave (km/s) = 3.39608 3.65672 3.52881
# Velocity P-wave (km/s) = 5.78480 6.17696 5.98409
#
# Compressibility (1/GPa) = 0.02446579
#
# Stress axis : x y z
#
# Youngs Moduli (GPa) = 124.00704 42.37430 85.60195
#
# Poissons Ratio (x) = 0.10932 0.04732
# Poissons Ratio (y) = 0.31991 0.53990
# Poissons Ratio (z) = 0.06856 0.26726
#
# Static dielectric constant tensor:
#      x y z
#    x 1.857970 0.000000 0.000000 
#    y 0.000000 1.927490 0.000000 
#    z 0.000000 0.000000 1.950140 
# 
# From -- ./inp_files/2209.got.cif
#   From: 2010.05.17/outbox.cif.g08.bks.cpg/sg41_2_cif.got.tgz:2209.got - 2010.06.03 18:54:24.
