data_PCOD9366206
_publ_section_title
;
Structure prediction by ZEFSAII (Michael W. Deem and Ramdas Pophale) SiO2 
 PCOD9366206
Probable space group: A B A 2
;
_chemical_formula_sum "Si O2"
_cell_formula_units_Z 52
_cell_length_a 8.240507
_cell_length_b 14.252163
_cell_length_c 19.479939
_cell_angle_alpha 90.000000
_cell_angle_beta 90.000000
_cell_angle_gamma 90.000000
_cell_volume 2287.822390
_symmetry_space_group_name_H-M "A B A 2"
_symmetry_group_IT_number 41
_symmetry_cell_setting 'orthorhombic'
loop_
_space_group_symop_operation_xyz
x,y,z
-x,-y,z
1/2-x,y,1/2+z
1/2+x,-y,1/2+z
x,1/2+y,1/2+z
-x,1/2-y,1/2+z
1/2-x,1/2+y,z
1/2+x,1/2-y,z
loop_
_atom_site_type_symbol
_atom_site_label
_atom_site_fract_x
_atom_site_fract_y
_atom_site_fract_z
Si Si1 0.842351 0.618746 0.736630
Si Si2 0.154360 0.930601 0.090326
Si Si3 0.000000 0.500000 0.060014
Si Si4 0.463562 0.343115 0.953287
Si Si5 0.665067 0.906854 0.797587
Si Si6 0.482028 0.391439 0.799047
Si Si7 0.842295 0.866578 0.451553
O O1 0.865874 0.635188 0.656201
O O2 0.834281 0.505773 0.756231
O O3 0.668537 0.654087 0.760948
O O4 0.004220 0.648244 0.776043
O O5 0.334230 0.974381 0.099254
O O6 0.000000 0.000000 0.093690
O O7 0.142185 0.884135 0.015397
O O8 0.055897 0.583506 0.010210
O O9 0.439920 0.391693 0.879895
O O10 0.417332 0.235673 0.941075
O O11 0.653164 0.356282 0.971746
O O12 0.654026 0.922455 0.879576
O O13 0.836165 0.854182 0.787575
O O14 0.500000 0.500000 0.777802
#
# Coordination Sequence:
#
# PCOD9366206 Si02
#       7
#     8   8   4   8   8   8   8
#     4  10  20  36  66  94 129 167 215 268 327 392
#     4  12  24  41  65  98 135 179 219 272 335 403
#     4  12  26  40  70  96 126 176 228 266 332 402
#     4  11  24  43  66  99 140 169 224 282 332 395
#     4   9  19  35  60  91 122 163 213 270 312 379
#     4   9  20  36  64  93 126 167 219 271 319 389
#     4  11  24  42  69  99 130 174 225 280 333 388
#
# _framework density 22.729037999999999
#
# number of rings (size 3 to 8) (size 9 to 14) (size 15 to 20)
#    0.000    1.538    3.077    2.308   11.846    0.000 
#    0.000    0.000   10.154    0.000    0.000    0.000 
#    0.000    0.000    0.000    0.000    0.000    0.000 
#
# Total GULP energy -145245.547505 kJ/mol
# GULP energy per Si atom -5586.367212 kJ/mol
# Density = 2.267731 g / cm^3
# Si number density = 22.729038 Si / 1000 Ang^3
#
#
#
# Elastic Constant Matrix: (Units=GPa)
#
#
# Indices 1 2 3 4 5 6 
#
# 1 156.7946 11.1541 38.7334 0.0000 0.0000 0.0000
# 2 11.1541 41.5752 -10.4269 0.0000 0.0000 0.0000
# 3 38.7334 -10.4269 75.7461 0.0000 0.0000 0.0000
# 4 0.0000 0.0000 0.0000 -27.6278 0.0000 0.0000
# 5 0.0000 0.0000 0.0000 0.0000 28.9627 0.0000
# 6 0.0000 0.0000 0.0000 0.0000 0.0000 31.5152
#
#
#
# Elastic Compliance Matrix: (Units=1/GPa)
#
#
# Indices 1 2 3 4 5 6 
#
# 1 0.007679 -0.003154 -0.004361 0.000000 0.000000 0.000000
# 2 -0.003154 0.026208 0.005221 0.000000 0.000000 0.000000
# 3 -0.004361 0.005221 0.016151 0.000000 0.000000 0.000000
# 4 0.000000 0.000000 0.000000 -0.036195 0.000000 0.000000
# 5 0.000000 0.000000 0.000000 0.000000 0.034527 0.000000
# 6 0.000000 0.000000 0.000000 0.000000 0.000000 0.031731
#
#
# Mechanical properties :
#
#
# Convention : Reuss Voigt Hill
#
# Bulk Modulus (GPa) = 22.00253 39.22632 30.61442
# Shear Modulus (GPa) = 50.08008 22.21370 36.14689
#
# Velocity S-wave (km/s) = 4.69908 3.12961 3.99223
# Velocity P-wave (km/s) = 6.25645 5.50954 5.89484
#
# Compressibility (1/GPa) = 0.04544932
#
# Stress axis : x y z
#
# Youngs Moduli (GPa) = 130.21694 38.15584 61.91659
#
# Poissons Ratio (x) = 0.12035 0.27003
# Poissons Ratio (y) = 0.41071 -0.32324
# Poissons Ratio (z) = 0.56790 -0.19920
#
# Static dielectric constant tensor:
#      x y z
#    x 1.894470 0.000000 0.000000 
#    y 0.000000 1.849640 0.000000 
#    z 0.000000 0.000000 1.810260 
# 
# From -- ./inp_files/9725.got.cif
#   From: 2010.05.17/outbox.cif.g08.bks.cpg/sg41_5_cif.got.tgz:9725.got - 2010.06.03 18:54:24.
