data_PCOD9366333
_publ_section_title
;
Structure prediction by ZEFSAII (Michael W. Deem and Ramdas Pophale) SiO2 
 PCOD9366333
Probable space group: A B A 2
;
_chemical_formula_sum "Si O2"
_cell_formula_units_Z 48
_cell_length_a 8.147907
_cell_length_b 14.290713
_cell_length_c 18.163345
_cell_angle_alpha 90.000000
_cell_angle_beta 90.000000
_cell_angle_gamma 90.000000
_cell_volume 2114.929003
_symmetry_space_group_name_H-M "A B A 2"
_symmetry_group_IT_number 41
_symmetry_cell_setting 'orthorhombic'
loop_
_space_group_symop_operation_xyz
x,y,z
-x,-y,z
1/2-x,y,1/2+z
1/2+x,-y,1/2+z
x,1/2+y,1/2+z
-x,1/2-y,1/2+z
1/2-x,1/2+y,z
1/2+x,1/2-y,z
loop_
_atom_site_type_symbol
_atom_site_label
_atom_site_fract_x
_atom_site_fract_y
_atom_site_fract_z
Si Si1 0.667495 0.059582 0.233400
Si Si2 0.001004 0.276941 0.967026
Si Si3 0.816809 0.455138 0.002430
Si Si4 0.974751 0.217740 0.639852
Si Si5 0.799765 0.117358 0.900698
Si Si6 0.811087 0.397387 0.655922
O O1 0.651270 0.145237 0.176809
O O2 0.677070 0.098373 0.315309
O O3 0.500000 0.000000 0.225747
O O4 0.801693 0.981606 0.213307
O O5 0.943203 0.177646 0.937735
O O6 0.137826 0.321227 0.915402
O O7 0.853152 0.352703 0.969962
O O8 0.056714 0.275553 0.052243
O O9 0.709779 0.445170 0.075931
O O10 0.000000 0.500000 0.019764
O O11 0.730411 0.521696 0.944314
O O12 0.955870 0.323729 0.667400
O O13 0.150360 0.170902 0.656204
#
# Coordination Sequence:
#
# PCOD9366333 Si02
#       6
#     8   8   8   8   8   8
#     4  10  23  40  59  85 122 160 194 242 305 363
#     4  10  21  40  64  89 119 158 204 251 297 354
#     4   9  19  38  62  85 117 156 196 242 296 356
#     4  10  21  40  63  86 115 157 203 245 293 352
#     4  11  23  39  61  91 123 157 198 249 307 361
#     4  10  20  39  63  86 115 154 199 247 295 352
#
# _framework density 22.695798
#
# number of rings (size 3 to 8) (size 9 to 14) (size 15 to 20)
#    0.000    2.000    0.000    5.500    0.000    6.667 
#    0.000    5.833    0.000    0.000    0.000    0.000 
#    0.000    0.000    0.000    0.000    0.000    0.000 
#
# Total GULP energy -134272.741399 kJ/mol
# GULP energy per Si atom -5594.697558 kJ/mol
# Density = 2.264414 g / cm^3
# Si number density = 22.695798 Si / 1000 Ang^3
#
#
#
# Elastic Constant Matrix: (Units=GPa)
#
#
# Indices 1 2 3 4 5 6 
#
# 1 48.6127 28.2374 31.5625 0.0000 0.0000 0.0000
# 2 28.2374 148.0471 102.7119 0.0000 0.0000 0.0000
# 3 31.5625 102.7119 130.7972 0.0000 0.0000 0.0000
# 4 0.0000 0.0000 0.0000 19.9010 0.0000 0.0000
# 5 0.0000 0.0000 0.0000 0.0000 -0.7614 0.0000
# 6 0.0000 0.0000 0.0000 0.0000 0.0000 44.4933
#
#
#
# Elastic Compliance Matrix: (Units=1/GPa)
#
#
# Indices 1 2 3 4 5 6 
#
# 1 0.024498 -0.001255 -0.004926 0.000000 0.000000 0.000000
# 2 -0.001255 0.014903 -0.011400 0.000000 0.000000 0.000000
# 3 -0.004926 -0.011400 0.017787 0.000000 0.000000 0.000000
# 4 0.000000 0.000000 0.000000 0.050249 0.000000 0.000000
# 5 0.000000 0.000000 0.000000 0.000000 -1.313366 0.000000
# 6 0.000000 0.000000 0.000000 0.000000 0.000000 0.022475
#
#
# Mechanical properties :
#
#
# Convention : Reuss Voigt Hill
#
# Bulk Modulus (GPa) = 45.40283 72.49785 58.95034
# Shear Modulus (GPa) = -4.38231 23.72293 9.67031
#
# Velocity S-wave (km/s) = -1.39107 3.23655 2.06642
# Velocity P-wave (km/s) = 4.17951 6.78083 5.63240
#
# Compressibility (1/GPa) = 0.02202506
#
# Stress axis : x y z
#
# Youngs Moduli (GPa) = 40.81961 67.09914 56.22211
#
# Poissons Ratio (x) = 0.08421 0.27696
# Poissons Ratio (y) = 0.05123 0.64095
# Poissons Ratio (z) = 0.20108 0.76496
#
# Static dielectric constant tensor:
#      x y z
#    x 1.946930 0.000000 0.000000 
#    y 0.000000 1.840070 0.000000 
#    z 0.000000 0.000000 1.783970 
# 
# From -- ./inp_files/9644.got.cif
#   From: 2010.05.17/outbox.cif.g08.bks.cpg/sg41_5_cif.got.tgz:9644.got - 2010.06.03 18:54:24.
