data_PCOD9366752
_publ_section_title
;
Structure prediction by ZEFSAII (Michael W. Deem and Ramdas Pophale) SiO2 
 PCOD9366752
Probable space group: A B A 2
;
_chemical_formula_sum "Si O2"
_cell_formula_units_Z 36
_cell_length_a 18.545487
_cell_length_b 5.033456
_cell_length_c 14.518541
_cell_angle_alpha 90.000000
_cell_angle_beta 90.000000
_cell_angle_gamma 90.000000
_cell_volume 1355.275209
_symmetry_space_group_name_H-M "A B A 2"
_symmetry_group_IT_number 41
_symmetry_cell_setting 'orthorhombic'
loop_
_space_group_symop_operation_xyz
x,y,z
-x,-y,z
1/2-x,y,1/2+z
1/2+x,-y,1/2+z
x,1/2+y,1/2+z
-x,1/2-y,1/2+z
1/2-x,1/2+y,z
1/2+x,1/2-y,z
loop_
_atom_site_type_symbol
_atom_site_label
_atom_site_fract_x
_atom_site_fract_y
_atom_site_fract_z
Si Si1 0.925681 0.871070 0.354720
Si Si2 0.711418 0.213541 0.071182
Si Si3 0.211272 0.768220 0.349376
Si Si4 0.076061 0.152269 0.554964
Si Si5 0.000000 0.000000 0.190048
O O1 0.864686 0.089028 0.332722
O O2 0.904478 0.731933 0.451435
O O3 0.958733 0.784521 0.256697
O O4 0.000000 0.000000 0.388804
O O5 0.772763 0.008133 0.106271
O O6 0.637811 0.053780 0.082476
O O7 0.717656 0.243402 0.960122
O O8 0.273903 0.970932 0.315423
O O9 0.061995 0.384438 0.626213
O O10 0.000000 0.000000 0.560562
#
# Coordination Sequence:
#
# PCOD9366752 Si02
#       5
#     8   8   8   8   4
#     4   8  19  42  59  94 128 164 220 268 322 395
#     4   9  19  35  61  92 127 171 217 268 331 395
#     4   9  17  35  60  90 125 168 214 268 328 389
#     4  10  21  40  66  92 129 172 218 270 331 391
#     4  10  22  42  62  92 132 166 220 276 324 394
#
# _framework density 26.562871000000001
#
# number of rings (size 3 to 8) (size 9 to 14) (size 15 to 20)
#    0.667    2.222    0.000    0.000    3.111    0.000 
#   18.000    2.222    0.000    0.000    0.000    0.000 
#    0.000    0.000    0.000    0.000    0.000    0.000 
#
# Total GULP energy -100287.720074 kJ/mol
# GULP energy per Si atom -5571.540004 kJ/mol
# Density = 2.650241 g / cm^3
# Si number density = 26.562871 Si / 1000 Ang^3
#
#
#
# Elastic Constant Matrix: (Units=GPa)
#
#
# Indices 1 2 3 4 5 6 
#
# 1 114.7546 9.2656 0.4139 0.0000 0.0000 0.0000
# 2 9.2656 98.0466 11.2878 0.0000 0.0000 0.0000
# 3 0.4139 11.2878 143.5802 0.0000 0.0000 0.0000
# 4 0.0000 0.0000 0.0000 11.0678 0.0000 0.0000
# 5 0.0000 0.0000 0.0000 0.0000 22.7295 0.0000
# 6 0.0000 0.0000 0.0000 0.0000 0.0000 41.5621
#
#
#
# Elastic Compliance Matrix: (Units=1/GPa)
#
#
# Indices 1 2 3 4 5 6 
#
# 1 0.008781 -0.000835 0.000040 0.000000 0.000000 0.000000
# 2 -0.000835 0.010372 -0.000813 0.000000 0.000000 0.000000
# 3 0.000040 -0.000813 0.007029 0.000000 0.000000 0.000000
# 4 0.000000 0.000000 0.000000 0.090352 0.000000 0.000000
# 5 0.000000 0.000000 0.000000 0.000000 0.043996 0.000000
# 6 0.000000 0.000000 0.000000 0.000000 0.000000 0.024060
#
#
# Mechanical properties :
#
#
# Convention : Reuss Voigt Hill
#
# Bulk Modulus (GPa) = 43.54010 44.25733 43.89872
# Shear Modulus (GPa) = 25.58067 37.43283 31.50675
#
# Velocity S-wave (km/s) = 3.10663 3.75803 3.44775
# Velocity P-wave (km/s) = 5.41250 5.96052 5.69311
#
# Compressibility (1/GPa) = 0.02296733
#
# Stress axis : x y z
#
# Youngs Moduli (GPa) = 113.87598 96.41627 142.27697
#
# Poissons Ratio (x) = 0.08046 -0.00573
# Poissons Ratio (y) = 0.09503 0.11567
# Poissons Ratio (z) = -0.00459 0.07838
#
# Static dielectric constant tensor:
#      x y z
#    x 2.095480 0.000000 0.000000 
#    y 0.000000 2.151910 0.000000 
#    z 0.000000 0.000000 2.236050 
# 
# From -- ./inp_files/8913.got.cif
#   From: 2010.05.17/outbox.cif.g08.bks.cpg/sg41_5_cif.got.tgz:8913.got - 2010.06.03 18:54:24.
