data_PCOD9366427
_publ_section_title
;
Structure prediction by ZEFSAII (Michael W. Deem and Ramdas Pophale) SiO2 
 PCOD9366427
Probable space group: A B A 2
;
_chemical_formula_sum "Si O2"
_cell_formula_units_Z 56
_cell_length_a 14.975878
_cell_length_b 9.546158
_cell_length_c 18.897808
_cell_angle_alpha 90.000000
_cell_angle_beta 90.000000
_cell_angle_gamma 90.000000
_cell_volume 2701.670271
_symmetry_space_group_name_H-M "A B A 2"
_symmetry_group_IT_number 41
_symmetry_cell_setting 'orthorhombic'
loop_
_space_group_symop_operation_xyz
x,y,z
-x,-y,z
1/2-x,y,1/2+z
1/2+x,-y,1/2+z
x,1/2+y,1/2+z
-x,1/2-y,1/2+z
1/2-x,1/2+y,z
1/2+x,1/2-y,z
loop_
_atom_site_type_symbol
_atom_site_label
_atom_site_fract_x
_atom_site_fract_y
_atom_site_fract_z
Si Si1 0.742699 0.945562 0.152080
Si Si2 0.591300 0.420183 0.903993
Si Si3 0.011907 0.838265 0.337831
Si Si4 0.422015 0.608404 0.070635
Si Si5 0.345154 0.844360 0.308107
Si Si6 0.171103 0.811454 0.240703
Si Si7 0.420627 0.890585 0.147268
O O1 0.824256 0.901711 0.104218
O O2 0.690867 0.814609 0.186602
O O3 0.794020 0.041551 0.209634
O O4 0.667916 0.038941 0.114078
O O5 0.500000 0.500000 0.883325
O O6 0.574558 0.258243 0.886429
O O7 0.656348 0.512087 0.854174
O O8 0.596246 0.423960 0.988234
O O9 0.068748 0.823483 0.264633
O O10 0.914763 0.767410 0.339109
O O11 0.000000 0.000000 0.355337
O O12 0.500000 0.500000 0.093270
O O13 0.451334 0.760284 0.099804
O O14 0.244971 0.787358 0.301861
O O15 0.385347 0.862077 0.227916
O O16 0.500000 0.000000 0.153066
#
# Coordination Sequence:
#
# PCOD9366427 Si02
#       7
#     8   8   8   8   8   8   8
#     4  11  22  40  60  93 136 157 209 260 322 374
#     4   9  21  44  61  82 128 172 209 253 318 385
#     4  11  22  35  66  97 124 158 210 266 317 373
#     4  11  25  42  66  91 128 176 214 260 326 390
#     4  10  20  41  63  90 126 171 206 254 328 372
#     4  11  22  37  63  98 130 157 208 273 308 382
#     4  11  23  39  67  96 124 168 213 269 324 378
#
# _framework density 20.727917000000001
#
# number of rings (size 3 to 8) (size 9 to 14) (size 15 to 20)
#    0.000    1.429    2.857    4.714    4.000    0.571 
#    2.571    0.000    6.286    0.000    0.000    0.000 
#    0.000    0.000    0.000    0.000    0.000    0.000 
#
# Total GULP energy -155998.812604 kJ/mol
# GULP energy per Si atom -5571.386164 kJ/mol
# Density = 2.068074 g / cm^3
# Si number density = 20.727917 Si / 1000 Ang^3
#
#
#
# Elastic Constant Matrix: (Units=GPa)
#
#
# Indices 1 2 3 4 5 6 
#
# 1 69.0420 24.7719 -0.3954 0.0000 0.0000 0.0000
# 2 24.7719 124.7920 18.9439 0.0000 0.0000 0.0000
# 3 -0.3954 18.9439 23.1079 0.0000 0.0000 0.0000
# 4 0.0000 0.0000 0.0000 -0.7739 0.0000 0.0000
# 5 0.0000 0.0000 0.0000 0.0000 7.2694 0.0000
# 6 0.0000 0.0000 0.0000 0.0000 0.0000 27.6164
#
#
#
# Elastic Compliance Matrix: (Units=1/GPa)
#
#
# Indices 1 2 3 4 5 6 
#
# 1 0.015805 -0.003630 0.003247 0.000000 0.000000 0.000000
# 2 -0.003630 0.009986 -0.008249 0.000000 0.000000 0.000000
# 3 0.003247 -0.008249 0.050093 0.000000 0.000000 0.000000
# 4 0.000000 0.000000 0.000000 -1.292175 0.000000 0.000000
# 5 0.000000 0.000000 0.000000 0.000000 0.137563 0.000000
# 6 0.000000 0.000000 0.000000 0.000000 0.000000 0.036210
#
#
# Mechanical properties :
#
#
# Convention : Reuss Voigt Hill
#
# Bulk Modulus (GPa) = 17.05921 33.73141 25.39531
# Shear Modulus (GPa) = -4.97160 18.39715 6.71277
#
# Velocity S-wave (km/s) = -1.55039 2.98242 1.80154
# Velocity P-wave (km/s) = 2.24566 5.30740 4.07501
#
# Compressibility (1/GPa) = 0.05861936
#
# Stress axis : x y z
#
# Youngs Moduli (GPa) = 63.27098 100.13868 19.96281
#
# Poissons Ratio (x) = 0.36353 -0.06481
# Poissons Ratio (y) = 0.22969 0.16467
# Poissons Ratio (z) = -0.20541 0.82602
#
# Static dielectric constant tensor:
#      x y z
#    x 1.775980 0.000000 0.000000 
#    y 0.000000 1.830430 0.000000 
#    z 0.000000 0.000000 1.815440 
# 
# From -- ./inp_files/11555.got.cif
#   From: 2010.05.17/outbox.cif.g08.bks.cpg/sg41_6_cif.got.tgz:11555.got - 2010.06.03 18:54:24.
