data_PCOD9366294
_publ_section_title
;
Structure prediction by ZEFSAII (Michael W. Deem and Ramdas Pophale) SiO2 
 PCOD9366294
Probable space group: A B A 2
;
_chemical_formula_sum "Si O2"
_cell_formula_units_Z 36
_cell_length_a 16.460951
_cell_length_b 7.574323
_cell_length_c 12.892519
_cell_angle_alpha 90.000000
_cell_angle_beta 90.000000
_cell_angle_gamma 90.000000
_cell_volume 1607.446486
_symmetry_space_group_name_H-M "A B A 2"
_symmetry_group_IT_number 41
_symmetry_cell_setting 'orthorhombic'
loop_
_space_group_symop_operation_xyz
x,y,z
-x,-y,z
1/2-x,y,1/2+z
1/2+x,-y,1/2+z
x,1/2+y,1/2+z
-x,1/2-y,1/2+z
1/2-x,1/2+y,z
1/2+x,1/2-y,z
loop_
_atom_site_type_symbol
_atom_site_label
_atom_site_fract_x
_atom_site_fract_y
_atom_site_fract_z
Si Si1 0.679370 0.901254 0.886500
Si Si2 0.648392 0.784820 0.449984
Si Si3 0.365783 0.782870 0.598234
Si Si4 0.500000 0.000000 0.531578
Si Si5 0.289634 0.654243 0.162412
O O1 0.776334 0.900726 0.908315
O O2 0.672028 0.813605 0.774100
O O3 0.645132 0.100734 0.887999
O O4 0.642617 0.791405 0.981490
O O5 0.567431 0.899747 0.462640
O O6 0.676083 0.730891 0.567158
O O7 0.458123 0.849052 0.602986
O O8 0.308691 0.655443 0.665992
O O9 0.318936 0.963260 0.624928
#
# Coordination Sequence:
#
# PCOD9366294 Si02
#       5
#     8   8   8   4   8
#     4  11  21  39  67  90 111 160 215 250 294 361
#     4  10  21  38  63  90 121 159 201 252 306 361
#     4  10  21  38  62  90 121 159 202 254 308 361
#     4  10  22  40  56  88 136 160 192 258 318 370
#     4  10  20  38  64  87 115 155 208 254 289 357
#
# _framework density 22.395769999999999
#
# number of rings (size 3 to 8) (size 9 to 14) (size 15 to 20)
#    0.000    1.778    0.000    9.333    0.000    0.889 
#    0.000   17.778    0.000    0.000    0.000    0.000 
#    0.000    0.000    0.000    0.000    0.000    0.000 
#
# Total GULP energy -100230.521783 kJ/mol
# GULP energy per Si atom -5568.362321 kJ/mol
# Density = 2.234480 g / cm^3
# Si number density = 22.395770 Si / 1000 Ang^3
#
#
#
# Elastic Constant Matrix: (Units=GPa)
#
#
# Indices 1 2 3 4 5 6 
#
# 1 94.9530 12.7427 -8.2281 0.0000 0.0000 0.0000
# 2 12.7427 45.4642 -6.4208 0.0000 0.0000 0.0000
# 3 -8.2281 -6.4208 100.6303 0.0000 0.0000 0.0000
# 4 0.0000 0.0000 0.0000 28.4223 0.0000 0.0000
# 5 0.0000 0.0000 0.0000 0.0000 7.0728 0.0000
# 6 0.0000 0.0000 0.0000 0.0000 0.0000 51.0195
#
#
#
# Elastic Compliance Matrix: (Units=1/GPa)
#
#
# Indices 1 2 3 4 5 6 
#
# 1 0.010993 -0.002981 0.000709 0.000000 0.000000 0.000000
# 2 -0.002981 0.023004 0.001224 0.000000 0.000000 0.000000
# 3 0.000709 0.001224 0.010073 0.000000 0.000000 0.000000
# 4 0.000000 0.000000 0.000000 0.035184 0.000000 0.000000
# 5 0.000000 0.000000 0.000000 0.000000 0.141388 0.000000
# 6 0.000000 0.000000 0.000000 0.000000 0.000000 0.019600
#
#
# Mechanical properties :
#
#
# Convention : Reuss Voigt Hill
#
# Bulk Modulus (GPa) = 23.82460 26.35943 25.09202
# Shear Modulus (GPa) = 19.50615 33.49984 26.50299
#
# Velocity S-wave (km/s) = 2.95443 3.87177 3.44378
# Velocity P-wave (km/s) = 4.72221 5.63763 5.20010
#
# Compressibility (1/GPa) = 0.04197342
#
# Stress axis : x y z
#
# Youngs Moduli (GPa) = 90.96709 43.47124 99.27124
#
# Poissons Ratio (x) = 0.12959 -0.07035
# Poissons Ratio (y) = 0.27117 -0.12151
# Poissons Ratio (z) = -0.06446 -0.05321
#
# Static dielectric constant tensor:
#      x y z
#    x 1.902680 0.000000 0.000000 
#    y 0.000000 1.929340 0.000000 
#    z 0.000000 0.000000 1.904770 
# 
# From -- ./inp_files/8206.got.cif
#   From: 2010.05.17/outbox.cif.g08.bks.cpg/sg41_5_cif.got.tgz:8206.got - 2010.06.03 18:54:24.
