data_PCOD9366227
_publ_section_title
;
Structure prediction by ZEFSAII (Michael W. Deem and Ramdas Pophale) SiO2 
 PCOD9366227
Probable space group: A B A 2
;
_chemical_formula_sum "Si O2"
_cell_formula_units_Z 64
_cell_length_a 8.813219
_cell_length_b 16.587039
_cell_length_c 21.659929
_cell_angle_alpha 90.000000
_cell_angle_beta 90.000000
_cell_angle_gamma 90.000000
_cell_volume 3166.361210
_symmetry_space_group_name_H-M "A B A 2"
_symmetry_group_IT_number 41
_symmetry_cell_setting 'orthorhombic'
loop_
_space_group_symop_operation_xyz
x,y,z
-x,-y,z
1/2-x,y,1/2+z
1/2+x,-y,1/2+z
x,1/2+y,1/2+z
-x,1/2-y,1/2+z
1/2-x,1/2+y,z
1/2+x,1/2-y,z
loop_
_atom_site_type_symbol
_atom_site_label
_atom_site_fract_x
_atom_site_fract_y
_atom_site_fract_z
Si Si1 0.711429 0.865625 0.676480
Si Si2 0.044480 0.756736 0.134664
Si Si3 0.544481 0.743264 0.845547
Si Si4 0.179436 0.521135 0.419965
Si Si5 0.179436 0.021135 0.060246
Si Si6 0.703229 0.157115 0.918997
Si Si7 0.296770 0.842885 0.061214
Si Si8 0.711428 0.365625 0.803731
O O1 0.547142 0.823481 0.673120
O O2 0.834723 0.794333 0.672845
O O3 0.722746 0.918053 0.614436
O O4 0.750000 0.910821 0.740106
O O5 0.138855 0.801980 0.081475
O O6 0.924777 0.695670 0.104151
O O7 0.424778 0.804330 0.876060
O O8 0.638856 0.698020 0.898736
O O9 0.452857 0.676519 0.807091
O O10 0.665278 0.794333 0.807365
O O11 0.204072 0.552530 0.490106
O O12 0.273275 0.438528 0.412754
O O13 0.222745 0.581948 0.365775
O O14 0.000000 0.500000 0.414833
O O15 0.273274 0.938528 0.067457
O O16 0.000000 0.000000 0.065378
O O17 0.669512 0.175297 0.990106
#
# Coordination Sequence:
#
# PCOD9366227 Si02
#       8
#     8   8   8   8   8   8   8   8
#     4  11  23  42  62  89 120 162 203 250 303 362
#     4  10  22  38  60  89 119 157 202 252 300 358
#     4  10  22  38  60  89 119 157 202 252 300 358
#     4  10  21  40  62  88 122 160 198 250 306 359
#     4  10  21  40  62  88 122 160 198 250 306 359
#     4  10  20  37  61  89 121 156 199 247 302 360
#     4  10  20  37  61  89 121 156 199 247 302 360
#     4  11  23  42  62  89 120 162 203 250 303 362
#
# _framework density 20.212475000000001
#
# number of rings (size 3 to 8) (size 9 to 14) (size 15 to 20)
#    0.000    1.750    2.500    1.500    0.000    6.000 
#    4.500    3.750    0.000    0.000    0.000    0.000 
#    0.000    0.000    0.000    0.000    0.000    0.000 
#
# Total GULP energy -178711.725259 kJ/mol
# GULP energy per Si atom -5584.741414 kJ/mol
# Density = 2.016647 g / cm^3
# Si number density = 20.212475 Si / 1000 Ang^3
#
#
#
# Elastic Constant Matrix: (Units=GPa)
#
#
# Indices 1 2 3 4 5 6 
#
# 1 60.0489 3.8345 5.1988 0.0000 0.0000 0.0000
# 2 3.8345 45.5806 32.5224 0.0000 0.0000 0.0000
# 3 5.1988 32.5224 108.7618 0.0000 0.0000 0.0000
# 4 0.0000 0.0000 0.0000 12.4292 0.0000 0.0000
# 5 0.0000 0.0000 0.0000 0.0000 19.4469 0.0000
# 6 0.0000 0.0000 0.0000 0.0000 0.0000 21.0886
#
#
#
# Elastic Compliance Matrix: (Units=1/GPa)
#
#
# Indices 1 2 3 4 5 6 
#
# 1 0.016763 -0.001066 -0.000483 0.000000 0.000000 0.000000
# 2 -0.001066 0.027957 -0.008309 0.000000 0.000000 0.000000
# 3 -0.000483 -0.008309 0.011702 0.000000 0.000000 0.000000
# 4 0.000000 0.000000 0.000000 0.080456 0.000000 0.000000
# 5 0.000000 0.000000 0.000000 0.000000 0.051422 0.000000
# 6 0.000000 0.000000 0.000000 0.000000 0.000000 0.047419
#
#
# Mechanical properties :
#
#
# Convention : Reuss Voigt Hill
#
# Bulk Modulus (GPa) = 27.24234 33.05585 30.14910
# Shear Modulus (GPa) = 18.67973 22.11533 20.39753
#
# Velocity S-wave (km/s) = 3.04331 3.31137 3.18017
# Velocity P-wave (km/s) = 5.08490 5.56866 5.33227
#
# Compressibility (1/GPa) = 0.03670756
#
# Stress axis : x y z
#
# Youngs Moduli (GPa) = 59.65540 35.76870 85.45505
#
# Poissons Ratio (x) = 0.03813 0.04123
# Poissons Ratio (y) = 0.06359 0.71005
# Poissons Ratio (z) = 0.02879 0.29720
#
# Static dielectric constant tensor:
#      x y z
#    x 1.710310 0.000000 0.000000 
#    y 0.000000 1.705120 0.000000 
#    z 0.000000 0.000000 1.737300 
# 
# From -- ./inp_files/11300.got.cif
#   From: 2010.05.17/outbox.cif.g08.bks.cpg/sg41_6_cif.got.tgz:11300.got - 2010.06.03 18:54:24.
