data_PCOD9366558
_publ_section_title
;
Structure prediction by ZEFSAII (Michael W. Deem and Ramdas Pophale) SiO2 
 PCOD9366558
Probable space group: A B A 2
;
_chemical_formula_sum "Si O2"
_cell_formula_units_Z 64
_cell_length_a 18.840070
_cell_length_b 11.974386
_cell_length_c 11.930868
_cell_angle_alpha 90.000000
_cell_angle_beta 90.000000
_cell_angle_gamma 90.000000
_cell_volume 2691.583186
_symmetry_space_group_name_H-M "A B A 2"
_symmetry_group_IT_number 41
_symmetry_cell_setting 'orthorhombic'
loop_
_space_group_symop_operation_xyz
x,y,z
-x,-y,z
1/2-x,y,1/2+z
1/2+x,-y,1/2+z
x,1/2+y,1/2+z
-x,1/2-y,1/2+z
1/2-x,1/2+y,z
1/2+x,1/2-y,z
loop_
_atom_site_type_symbol
_atom_site_label
_atom_site_fract_x
_atom_site_fract_y
_atom_site_fract_z
Si Si1 0.690590 0.935542 0.811240
Si Si2 0.876284 0.247933 0.122100
Si Si3 0.062827 0.074845 0.460087
Si Si4 0.440050 0.926589 0.445318
Si Si5 0.252598 0.899374 0.135194
Si Si6 0.503052 0.750737 0.282820
Si Si7 0.873798 0.261099 0.634058
Si Si8 0.814203 0.925838 0.958049
O O1 0.728215 0.036233 0.746440
O O2 0.625352 0.979314 0.885992
O O3 0.658920 0.841906 0.729748
O O4 0.752620 0.877797 0.881823
O O5 0.794324 0.214157 0.128334
O O6 0.916703 0.243636 0.240381
O O7 0.895815 0.360789 0.058062
O O8 0.908331 0.154486 0.038725
O O9 0.021940 0.155887 0.370641
O O10 0.000000 0.000000 0.506960
O O11 0.479879 0.861958 0.347164
O O12 0.500000 0.000000 0.504401
O O13 0.374854 0.999771 0.400394
O O14 0.332913 0.856562 0.132158
O O15 0.227565 0.986860 0.039894
O O16 0.455453 0.747194 0.169470
O O17 0.856531 0.329396 0.522435
#
# Coordination Sequence:
#
# PCOD9366558 Si02
#       8
#     8   8   8   8   8   8   8   8
#     4  10  21  37  58  83 111 145 184 226 273 325
#     4  10  21  37  57  81 109 143 183 226 273 325
#     4  10  21  37  57  81 109 143 183 226 273 325
#     4  10  21  37  57  81 109 143 183 226 273 325
#     4  10  21  37  58  83 111 145 184 226 273 325
#     4  10  21  37  57  81 109 143 183 226 273 325
#     4  10  21  37  58  83 111 145 184 226 273 325
#     4  10  21  37  58  83 111 145 184 226 273 325
#
# _framework density 23.777828
#
# number of rings (size 3 to 8) (size 9 to 14) (size 15 to 20)
#    0.000    2.000    0.000    3.000    0.000    8.000 
#    0.000    0.000    0.000    0.000    0.000    0.000 
#    0.000    0.000    0.000    0.000    0.000    0.000 
#
# Total GULP energy -178983.333049 kJ/mol
# GULP energy per Si atom -5593.229158 kJ/mol
# Density = 2.372371 g / cm^3
# Si number density = 23.777828 Si / 1000 Ang^3
#
#
#
# Elastic Constant Matrix: (Units=GPa)
#
#
# Indices 1 2 3 4 5 6 
#
# 1 48.5825 -4.0730 -5.1488 0.0000 0.0000 0.0000
# 2 -4.0730 47.9337 -3.9231 0.0000 0.0000 0.0000
# 3 -5.1488 -3.9231 44.2524 0.0000 0.0000 0.0000
# 4 0.0000 0.0000 0.0000 3.0718 0.0000 0.0000
# 5 0.0000 0.0000 0.0000 0.0000 32.1090 0.0000
# 6 0.0000 0.0000 0.0000 0.0000 0.0000 35.3667
#
#
#
# Elastic Compliance Matrix: (Units=1/GPa)
#
#
# Indices 1 2 3 4 5 6 
#
# 1 0.021029 0.002002 0.002624 0.000000 0.000000 0.000000
# 2 0.002002 0.021205 0.002113 0.000000 0.000000 0.000000
# 3 0.002624 0.002113 0.023090 0.000000 0.000000 0.000000
# 4 0.000000 0.000000 0.000000 0.325537 0.000000 0.000000
# 5 0.000000 0.000000 0.000000 0.000000 0.031144 0.000000
# 6 0.000000 0.000000 0.000000 0.000000 0.000000 0.028275
#
#
# Mechanical properties :
#
#
# Convention : Reuss Voigt Hill
#
# Bulk Modulus (GPa) = 12.69000 12.71989 12.70495
# Shear Modulus (GPa) = 10.79747 24.37041 17.58394
#
# Velocity S-wave (km/s) = 2.13327 3.20491 2.72234
# Velocity P-wave (km/s) = 3.37880 4.36536 3.90337
#
# Compressibility (1/GPa) = 0.07880221
#
# Stress axis : x y z
#
# Youngs Moduli (GPa) = 47.55236 47.15838 43.30827
#
# Poissons Ratio (x) = -0.09440 -0.11365
# Poissons Ratio (y) = -0.09518 -0.09150
# Poissons Ratio (z) = -0.12479 -0.09963
#
# Static dielectric constant tensor:
#      x y z
#    x 1.867110 0.000000 0.000000 
#    y 0.000000 1.924210 0.000000 
#    z 0.000000 0.000000 1.917540 
# 
# From -- ./inp_files/8844.got.cif
#   From: 2010.05.17/outbox.cif.g08.bks.cpg/sg41_5_cif.got.tgz:8844.got - 2010.06.03 18:54:24.
