data_PCOD9366387
_publ_section_title
;
Structure prediction by ZEFSAII (Michael W. Deem and Ramdas Pophale) SiO2 
 PCOD9366387
Probable space group: A B A 2
;
_chemical_formula_sum "Si O2"
_cell_formula_units_Z 52
_cell_length_a 13.691779
_cell_length_b 8.866853
_cell_length_c 17.578942
_cell_angle_alpha 90.000000
_cell_angle_beta 90.000000
_cell_angle_gamma 90.000000
_cell_volume 2134.136150
_symmetry_space_group_name_H-M "A B A 2"
_symmetry_group_IT_number 41
_symmetry_cell_setting 'orthorhombic'
loop_
_space_group_symop_operation_xyz
x,y,z
-x,-y,z
1/2-x,y,1/2+z
1/2+x,-y,1/2+z
x,1/2+y,1/2+z
-x,1/2-y,1/2+z
1/2-x,1/2+y,z
1/2+x,1/2-y,z
loop_
_atom_site_type_symbol
_atom_site_label
_atom_site_fract_x
_atom_site_fract_y
_atom_site_fract_z
Si Si1 0.088606 0.088800 0.513190
Si Si2 0.902446 0.132089 0.103593
Si Si3 0.741155 0.734472 0.913723
Si Si4 0.802412 0.077138 0.649902
Si Si5 0.500000 0.500000 0.245602
Si Si6 0.108224 0.048782 0.962262
Si Si7 0.185529 0.162828 0.254627
O O1 0.049300 0.240207 0.553370
O O2 0.168759 0.147776 0.455238
O O3 0.135265 0.994498 0.582745
O O4 0.000000 0.000000 0.477079
O O5 0.788308 0.167513 0.112997
O O6 0.948884 0.113676 0.185465
O O7 0.897812 0.980104 0.053222
O O8 0.847822 0.786906 0.943704
O O9 0.687420 0.575386 0.931189
O O10 0.743124 0.763795 0.823957
O O11 0.751761 0.951424 0.704779
O O12 0.853304 0.201280 0.702029
O O13 0.409529 0.576345 0.286555
O O14 0.000000 0.000000 0.932654
#
# Coordination Sequence:
#
# PCOD9366387 Si02
#       7
#     8   8   8   8   4   8   8
#     4  11  23  39  69 101 136 177 245 294 355 426
#     4  10  20  40  63 100 125 174 223 296 344 413
#     4  11  26  46  67 105 144 187 234 298 362 433
#     4  11  21  42  67  94 134 178 230 290 354 416
#     4  10  22  38  68  88 136 168 228 274 360 416
#     4  11  24  46  74 102 142 187 237 296 362 424
#     4  11  24  43  66  96 139 185 226 293 362 431
#
# _framework density 24.365831
#
# number of rings (size 3 to 8) (size 9 to 14) (size 15 to 20)
#    0.000    1.231    3.846    1.846    1.077    2.462 
#    5.538    1.538    0.000    0.000    0.000    0.000 
#    0.000    0.000    0.000    0.000    0.000    0.000 
#
# Total GULP energy -145314.967202 kJ/mol
# GULP energy per Si atom -5589.037200 kJ/mol
# Density = 2.431037 g / cm^3
# Si number density = 24.365831 Si / 1000 Ang^3
#
#
#
# Elastic Constant Matrix: (Units=GPa)
#
#
# Indices 1 2 3 4 5 6 
#
# 1 88.2609 35.8917 -6.3707 0.0000 0.0000 0.0000
# 2 35.8917 88.2431 12.4899 0.0000 0.0000 0.0000
# 3 -6.3707 12.4899 63.7708 0.0000 0.0000 0.0000
# 4 0.0000 0.0000 0.0000 18.2738 0.0000 0.0000
# 5 0.0000 0.0000 0.0000 0.0000 20.1243 0.0000
# 6 0.0000 0.0000 0.0000 0.0000 0.0000 34.1283
#
#
#
# Elastic Compliance Matrix: (Units=1/GPa)
#
#
# Indices 1 2 3 4 5 6 
#
# 1 0.013977 -0.006050 0.002581 0.000000 0.000000 0.000000
# 2 -0.006050 0.014274 -0.003400 0.000000 0.000000 0.000000
# 3 0.002581 -0.003400 0.016605 0.000000 0.000000 0.000000
# 4 0.000000 0.000000 0.000000 0.054723 0.000000 0.000000
# 5 0.000000 0.000000 0.000000 0.000000 0.049691 0.000000
# 6 0.000000 0.000000 0.000000 0.000000 0.000000 0.029301
#
#
# Mechanical properties :
#
#
# Convention : Reuss Voigt Hill
#
# Bulk Modulus (GPa) = 32.13587 36.03297 34.08442
# Shear Modulus (GPa) = 24.66913 27.72287 26.19600
#
# Velocity S-wave (km/s) = 3.18535 3.37675 3.28245
# Velocity P-wave (km/s) = 5.17167 5.47939 5.32775
#
# Compressibility (1/GPa) = 0.03111788
#
# Stress axis : x y z
#
# Youngs Moduli (GPa) = 71.54763 70.05539 60.22301
#
# Poissons Ratio (x) = 0.42385 -0.15545
# Poissons Ratio (y) = 0.43288 0.20477
# Poissons Ratio (z) = -0.18468 0.23820
#
# Static dielectric constant tensor:
#      x y z
#    x 1.982950 0.000000 0.000000 
#    y 0.000000 2.027560 0.000000 
#    z 0.000000 0.000000 1.878050 
# 
# From -- ./inp_files/11520.got.cif
#   From: 2010.05.17/outbox.cif.g08.bks.cpg/sg41_6_cif.got.tgz:11520.got - 2010.06.03 18:54:24.
