data_PCOD9366532
_publ_section_title
;
Structure prediction by ZEFSAII (Michael W. Deem and Ramdas Pophale) SiO2 
 PCOD9366532
Probable space group: A B A 2
;
_chemical_formula_sum "Si O2"
_cell_formula_units_Z 64
_cell_length_a 5.157558
_cell_length_b 36.625344
_cell_length_c 14.557393
_cell_angle_alpha 90.000000
_cell_angle_beta 90.000000
_cell_angle_gamma 90.000000
_cell_volume 2749.852756
_symmetry_space_group_name_H-M "A B A 2"
_symmetry_group_IT_number 41
_symmetry_cell_setting 'orthorhombic'
loop_
_space_group_symop_operation_xyz
x,y,z
-x,-y,z
1/2-x,y,1/2+z
1/2+x,-y,1/2+z
x,1/2+y,1/2+z
-x,1/2-y,1/2+z
1/2-x,1/2+y,z
1/2+x,1/2-y,z
loop_
_atom_site_type_symbol
_atom_site_label
_atom_site_fract_x
_atom_site_fract_y
_atom_site_fract_z
Si Si1 0.577254 0.616364 0.931540
Si Si2 0.058880 0.461442 0.732431
Si Si3 0.939725 0.461417 0.353650
Si Si4 0.077089 0.157532 0.652192
Si Si5 0.683572 0.234894 0.184864
Si Si6 0.076513 0.156891 0.429411
Si Si7 0.178860 0.765448 0.395760
Si Si8 0.577839 0.616857 0.151814
O O1 0.495832 0.575553 0.907253
O O2 0.864087 0.626948 0.898942
O O3 0.360500 0.645002 0.896628
O O4 0.580825 0.619587 0.041652
O O5 0.352267 0.461508 0.769889
O O6 0.000000 0.500000 0.682984
O O7 0.852761 0.461326 0.816267
O O8 0.012373 0.424347 0.678091
O O9 0.000000 0.500000 0.403102
O O10 0.960846 0.196410 0.679863
O O11 0.084800 0.157572 0.540803
O O12 0.863633 0.128092 0.683957
O O13 0.359361 0.145259 0.685830
O O14 0.472348 0.262885 0.143540
O O15 0.752958 0.243523 0.290342
O O16 0.959817 0.195639 0.400568
O O17 0.466747 0.762321 0.437280
#
# Coordination Sequence:
#
# PCOD9366532 Si02
#       8
#     8   8   8   8   8   8   8   8
#     4  10  21  37  56  81 112 144 182 226 272 326
#     4  10  21  37  57  83 113 144 182 225 268 321
#     4  10  21  37  57  83 113 144 182 225 268 321
#     4  10  21  36  55  80 108 140 181 226 271 323
#     4  10  21  36  53  76 106 139 178 222 268 321
#     4  10  21  36  55  80 108 140 181 226 271 323
#     4  10  21  36  53  76 106 139 178 222 268 321
#     4  10  21  37  56  81 112 144 182 226 272 326
#
# _framework density 23.273973000000002
#
# number of rings (size 3 to 8) (size 9 to 14) (size 15 to 20)
#    0.000    2.000    0.000    3.000    0.000    4.500 
#    0.000    0.000    0.000    9.000    0.000    0.000 
#    0.000    0.000    0.000    0.000    0.000    0.000 
#
# Total GULP energy -178812.515019 kJ/mol
# GULP energy per Si atom -5587.891094 kJ/mol
# Density = 2.322100 g / cm^3
# Si number density = 23.273973 Si / 1000 Ang^3
#
#
#
# Elastic Constant Matrix: (Units=GPa)
#
#
# Indices 1 2 3 4 5 6 
#
# 1 134.0706 17.3038 8.6739 0.0000 0.0000 0.0000
# 2 17.3038 107.7322 -14.5543 0.0000 0.0000 0.0000
# 3 8.6739 -14.5543 43.2894 0.0000 0.0000 0.0000
# 4 0.0000 0.0000 0.0000 49.1424 0.0000 0.0000
# 5 0.0000 0.0000 0.0000 0.0000 6.8286 0.0000
# 6 0.0000 0.0000 0.0000 0.0000 0.0000 41.6173
#
#
#
# Elastic Compliance Matrix: (Units=1/GPa)
#
#
# Indices 1 2 3 4 5 6 
#
# 1 0.007791 -0.001532 -0.002076 0.000000 0.000000 0.000000
# 2 -0.001532 0.010025 0.003677 0.000000 0.000000 0.000000
# 3 -0.002076 0.003677 0.024753 0.000000 0.000000 0.000000
# 4 0.000000 0.000000 0.000000 0.020349 0.000000 0.000000
# 5 0.000000 0.000000 0.000000 0.000000 0.146442 0.000000
# 6 0.000000 0.000000 0.000000 0.000000 0.000000 0.024028
#
#
# Mechanical properties :
#
#
# Convention : Reuss Voigt Hill
#
# Bulk Modulus (GPa) = 23.41490 34.21544 28.81517
# Shear Modulus (GPa) = 20.20322 37.76223 28.98272
#
# Velocity S-wave (km/s) = 2.94948 4.03241 3.53269
# Velocity P-wave (km/s) = 4.65636 6.03436 5.38958
#
# Compressibility (1/GPa) = 0.04270786
#
# Stress axis : x y z
#
# Youngs Moduli (GPa) = 128.35691 99.74931 40.39957
#
# Poissons Ratio (x) = 0.15280 0.08387
# Poissons Ratio (y) = 0.19662 -0.14857
# Poissons Ratio (z) = 0.26648 -0.36683
#
# Static dielectric constant tensor:
#      x y z
#    x 1.931350 0.000000 0.000000 
#    y 0.000000 1.880610 0.000000 
#    z 0.000000 0.000000 1.884860 
# 
# From -- ./inp_files/9499.got.cif
#   From: 2010.05.17/outbox.cif.g08.bks.cpg/sg41_5_cif.got.tgz:9499.got - 2010.06.03 18:54:24.
