data_PCOD9366956
_publ_section_title
;
Structure prediction by ZEFSAII (Michael W. Deem and Ramdas Pophale) SiO2 
 PCOD9366956
Probable space group: A B A 2
;
_chemical_formula_sum "Si O2"
_cell_formula_units_Z 48
_cell_length_a 9.003874
_cell_length_b 26.871814
_cell_length_c 8.042001
_cell_angle_alpha 90.000000
_cell_angle_beta 90.000000
_cell_angle_gamma 90.000000
_cell_volume 1945.765579
_symmetry_space_group_name_H-M "A B A 2"
_symmetry_group_IT_number 41
_symmetry_cell_setting 'orthorhombic'
loop_
_space_group_symop_operation_xyz
x,y,z
-x,-y,z
1/2-x,y,1/2+z
1/2+x,-y,1/2+z
x,1/2+y,1/2+z
-x,1/2-y,1/2+z
1/2-x,1/2+y,z
1/2+x,1/2-y,z
loop_
_atom_site_type_symbol
_atom_site_label
_atom_site_fract_x
_atom_site_fract_y
_atom_site_fract_z
Si Si1 0.542052 0.079514 0.363100
Si Si2 0.500000 0.000000 0.620210
Si Si3 0.500000 0.000000 0.107829
Si Si4 0.812021 0.438217 0.853318
Si Si5 0.601799 0.830229 0.770737
Si Si6 0.109008 0.717722 0.121312
Si Si7 0.419068 0.308843 0.932993
O O1 0.359477 0.078539 0.363270
O O2 0.610972 0.134730 0.369626
O O3 0.572769 0.045213 0.519765
O O4 0.583101 0.042454 0.214566
O O5 0.635632 0.977528 0.719425
O O6 0.614721 0.965153 0.009922
O O7 0.897658 0.388459 0.803783
O O8 0.766296 0.811595 0.723602
O O9 0.521884 0.819308 0.595355
O O10 0.553933 0.809584 0.952994
O O11 0.983987 0.719197 0.267753
O O12 0.179308 0.767563 0.032869
#
# Coordination Sequence:
#
# PCOD9366956 Si02
#       7
#     8   4   4   8   8   8   8
#     4  11  21  41  65  90 137 185 220 284 356 415
#     4  10  22  34  62 100 130 164 234 284 320 414
#     4  10  24  36  66 106 130 176 248 292 336 426
#     4  11  21  40  67  99 133 176 236 284 346 421
#     4  12  23  41  72 101 132 184 238 289 355 429
#     4  12  24  40  69 108 133 177 241 300 347 427
#     4  12  24  41  69 104 143 179 236 298 354 422
#
# _framework density 24.668953999999999
#
# number of rings (size 3 to 8) (size 9 to 14) (size 15 to 20)
#    0.000    0.667    6.667    2.000    0.000    0.000 
#    0.000    0.000   14.667    0.000    0.000    0.000 
#    0.000    0.000    0.000    0.000    0.000    0.000 
#
# Total GULP energy -133607.808051 kJ/mol
# GULP energy per Si atom -5566.992002 kJ/mol
# Density = 2.461281 g / cm^3
# Si number density = 24.668954 Si / 1000 Ang^3
#
#
#
# Elastic Constant Matrix: (Units=GPa)
#
#
# Indices 1 2 3 4 5 6 
#
# 1 27.8064 13.1680 28.4933 0.0000 0.0000 0.0000
# 2 13.1680 175.3170 68.0053 0.0000 0.0000 0.0000
# 3 28.4933 68.0053 180.1854 0.0000 0.0000 0.0000
# 4 0.0000 0.0000 0.0000 -106.3064 0.0000 0.0000
# 5 0.0000 0.0000 0.0000 0.0000 38.6182 0.0000
# 6 0.0000 0.0000 0.0000 0.0000 0.0000 21.8732
#
#
#
# Elastic Compliance Matrix: (Units=1/GPa)
#
#
# Indices 1 2 3 4 5 6 
#
# 1 0.042989 -0.000693 -0.006536 0.000000 0.000000 0.000000
# 2 -0.000693 0.006693 -0.002417 0.000000 0.000000 0.000000
# 3 -0.006536 -0.002417 0.007495 0.000000 0.000000 0.000000
# 4 0.000000 0.000000 0.000000 -0.009407 0.000000 0.000000
# 5 0.000000 0.000000 0.000000 0.000000 0.025894 0.000000
# 6 0.000000 0.000000 0.000000 0.000000 0.000000 0.045718
#
#
# Mechanical properties :
#
#
# Convention : Reuss Voigt Hill
#
# Bulk Modulus (GPa) = 26.39545 66.96023 46.67784
# Shear Modulus (GPa) = 33.04589 9.07981 21.06285
#
# Velocity S-wave (km/s) = 3.66399 1.92059 2.92519
# Velocity P-wave (km/s) = 5.35003 5.66751 5.51106
#
# Compressibility (1/GPa) = 0.03788532
#
# Stress axis : x y z
#
# Youngs Moduli (GPa) = 23.26177 149.40037 133.41355
#
# Poissons Ratio (x) = 0.10361 0.87202
# Poissons Ratio (y) = 0.01613 0.32240
# Poissons Ratio (z) = 0.15204 0.36103
#
# Static dielectric constant tensor:
#      x y z
#    x 1.978850 0.000000 0.000000 
#    y 0.000000 2.007330 0.000000 
#    z 0.000000 0.000000 2.062020 
# 
# From -- ./inp_files/2116.got.cif
#   From: 2010.05.17/outbox.cif.g08.bks.cpg/sg41_2_cif.got.tgz:2116.got - 2010.06.03 18:54:24.
