data_PCOD9366382
_publ_section_title
;
Structure prediction by ZEFSAII (Michael W. Deem and Ramdas Pophale) SiO2 
 PCOD9366382
Probable space group: A B A 2
;
_chemical_formula_sum "Si O2"
_cell_formula_units_Z 52
_cell_length_a 24.876888
_cell_length_b 12.508016
_cell_length_c 8.221394
_cell_angle_alpha 90.000000
_cell_angle_beta 90.000000
_cell_angle_gamma 90.000000
_cell_volume 2558.173176
_symmetry_space_group_name_H-M "A B A 2"
_symmetry_group_IT_number 41
_symmetry_cell_setting 'orthorhombic'
loop_
_space_group_symop_operation_xyz
x,y,z
-x,-y,z
1/2-x,y,1/2+z
1/2+x,-y,1/2+z
x,1/2+y,1/2+z
-x,1/2-y,1/2+z
1/2-x,1/2+y,z
1/2+x,1/2-y,z
loop_
_atom_site_type_symbol
_atom_site_label
_atom_site_fract_x
_atom_site_fract_y
_atom_site_fract_z
Si Si1 0.015875 0.701016 0.415220
Si Si2 0.270167 0.748145 0.555491
Si Si3 0.297997 0.388640 0.335640
Si Si4 0.000000 0.500000 0.174483
Si Si5 0.408107 0.375167 0.509506
Si Si6 0.072702 0.194218 0.240192
Si Si7 0.686868 0.882624 0.760733
O O1 0.961209 0.769914 0.396324
O O2 0.013229 0.602632 0.289591
O O3 0.062666 0.789555 0.389930
O O4 0.029877 0.663480 0.598493
O O5 0.304405 0.794284 0.704115
O O6 0.249595 0.847974 0.449839
O O7 0.300687 0.668929 0.435903
O O8 0.282726 0.190449 0.628561
O O9 0.351528 0.406911 0.439216
O O10 0.287229 0.500929 0.251164
O O11 0.050125 0.466665 0.061003
O O12 0.400765 0.304122 0.672416
O O13 0.122396 0.114546 0.244492
#
# Coordination Sequence:
#
# PCOD9366382 Si02
#       7
#     8   8   8   4   8   8   8
#     4   9  20  40  59  86 125 155 201 246 293 352
#     4  10  23  42  61  87 128 147 200 263 289 355
#     4  11  22  40  64  92 115 165 199 242 311 357
#     4  10  20  40  62  82 122 172 186 250 310 338
#     4   9  21  38  59  88 121 151 203 243 291 358
#     4   9  20  40  57  86 125 151 196 252 285 353
#     4  11  22  41  63  89 117 159 199 246 305 355
#
# _framework density 20.327005
#
# number of rings (size 3 to 8) (size 9 to 14) (size 15 to 20)
#    0.923    1.231    1.538    0.923    2.154    2.462 
#    8.308    1.538    0.000    0.000    0.000    0.000 
#    0.000    0.000    0.000    0.000    0.000    0.000 
#
# Total GULP energy -144794.876333 kJ/mol
# GULP energy per Si atom -5569.033705 kJ/mol
# Density = 2.028074 g / cm^3
# Si number density = 20.327005 Si / 1000 Ang^3
#
#
#
# Elastic Constant Matrix: (Units=GPa)
#
#
# Indices 1 2 3 4 5 6 
#
# 1 48.0032 -1.0008 20.9144 0.0000 0.0000 0.0000
# 2 -1.0008 62.4194 0.2962 0.0000 0.0000 0.0000
# 3 20.9144 0.2962 64.0210 0.0000 0.0000 0.0000
# 4 0.0000 0.0000 0.0000 18.8569 0.0000 0.0000
# 5 0.0000 0.0000 0.0000 0.0000 14.1287 0.0000
# 6 0.0000 0.0000 0.0000 0.0000 0.0000 23.0511
#
#
#
# Elastic Compliance Matrix: (Units=1/GPa)
#
#
# Indices 1 2 3 4 5 6 
#
# 1 0.024300 0.000427 -0.007940 0.000000 0.000000 0.000000
# 2 0.000427 0.016029 -0.000214 0.000000 0.000000 0.000000
# 3 -0.007940 -0.000214 0.018215 0.000000 0.000000 0.000000
# 4 0.000000 0.000000 0.000000 0.053031 0.000000 0.000000
# 5 0.000000 0.000000 0.000000 0.000000 0.070778 0.000000
# 6 0.000000 0.000000 0.000000 0.000000 0.000000 0.043382
#
#
# Mechanical properties :
#
#
# Convention : Reuss Voigt Hill
#
# Bulk Modulus (GPa) = 23.20725 23.87370 23.54048
# Shear Modulus (GPa) = 19.56552 21.48960 20.52756
#
# Velocity S-wave (km/s) = 3.10585 3.25498 3.18129
# Velocity P-wave (km/s) = 4.92985 5.08889 5.01000
#
# Compressibility (1/GPa) = 0.04308998
#
# Stress axis : x y z
#
# Youngs Moduli (GPa) = 41.15160 62.38876 54.90027
#
# Poissons Ratio (x) = -0.02666 0.43593
# Poissons Ratio (y) = -0.01758 0.01173
# Poissons Ratio (z) = 0.32676 0.01334
#
# Static dielectric constant tensor:
#      x y z
#    x 1.717020 0.000000 0.000000 
#    y 0.000000 1.754470 0.000000 
#    z 0.000000 0.000000 1.750480 
# 
# From -- ./inp_files/3787.got.cif
#   From: 2010.05.17/outbox.cif.g08.bks.cpg/sg41_2_cif.got.tgz:3787.got - 2010.06.03 18:54:24.
