data_PCOD9366797
_publ_section_title
;
Structure prediction by ZEFSAII (Michael W. Deem and Ramdas Pophale) SiO2 
 PCOD9366797
Probable space group: A B A 2
;
_chemical_formula_sum "Si O2"
_cell_formula_units_Z 60
_cell_length_a 29.268585
_cell_length_b 10.790828
_cell_length_c 7.467311
_cell_angle_alpha 90.000000
_cell_angle_beta 90.000000
_cell_angle_gamma 90.000000
_cell_volume 2358.417758
_symmetry_space_group_name_H-M "A B A 2"
_symmetry_group_IT_number 41
_symmetry_cell_setting 'orthorhombic'
loop_
_space_group_symop_operation_xyz
x,y,z
-x,-y,z
1/2-x,y,1/2+z
1/2+x,-y,1/2+z
x,1/2+y,1/2+z
-x,1/2-y,1/2+z
1/2-x,1/2+y,z
1/2+x,1/2-y,z
loop_
_atom_site_type_symbol
_atom_site_label
_atom_site_fract_x
_atom_site_fract_y
_atom_site_fract_z
Si Si1 0.546379 0.660983 0.814550
Si Si2 0.806384 0.250777 0.595442
Si Si3 0.640676 0.506274 0.009595
Si Si4 0.945149 0.846508 0.978375
Si Si5 0.000000 0.500000 0.072785
Si Si6 0.926015 0.834536 0.567688
Si Si7 0.345723 0.504284 0.592443
Si Si8 0.199719 0.757775 0.020809
O O1 0.553426 0.755371 0.648288
O O2 0.498542 0.641209 0.923185
O O3 0.542856 0.537176 0.696779
O O4 0.581328 0.707201 0.961835
O O5 0.828650 0.381219 0.540553
O O6 0.808896 0.250084 0.809599
O O7 0.753614 0.227319 0.548204
O O8 0.831670 0.128689 0.518244
O O9 0.588288 0.457738 0.044005
O O10 0.641284 0.523226 0.795962
O O11 0.669112 0.624721 0.088225
O O12 0.925614 0.805207 0.780711
O O13 0.975585 0.382758 0.988396
O O14 0.888613 0.930633 0.500165
O O15 0.311167 0.620607 0.597369
#
# Coordination Sequence:
#
# PCOD9366797 Si02
#       8
#     8   8   8   8   4   8   8   8
#     4  11  21  40  65  90 130 177 221 279 343 397
#     4  11  24  42  70  97 135 176 222 278 342 404
#     4  10  24  43  66  98 139 171 228 286 327 412
#     4  10  21  41  64  96 133 174 230 279 339 404
#     4  10  22  38  68  88 130 176 222 280 330 396
#     4  10  23  42  63  95 135 171 228 283 338 406
#     4  10  24  42  66  98 132 174 222 278 337 406
#     4  11  24  44  67  99 135 178 220 275 349 408
#
# _framework density 25.440785999999999
#
# number of rings (size 3 to 8) (size 9 to 14) (size 15 to 20)
#    0.000    1.600    2.667    1.600    3.733    7.467 
#    0.000    6.000    0.000    0.000    0.000    0.000 
#    0.000    0.000    0.000    0.000    0.000    0.000 
#
# Total GULP energy -167119.649339 kJ/mol
# GULP energy per Si atom -5570.654978 kJ/mol
# Density = 2.538288 g / cm^3
# Si number density = 25.440786 Si / 1000 Ang^3
#
#
#
# Elastic Constant Matrix: (Units=GPa)
#
#
# Indices 1 2 3 4 5 6 
#
# 1 117.6365 29.7536 -5.0830 0.0000 0.0000 0.0000
# 2 29.7536 120.1636 14.9912 0.0000 0.0000 0.0000
# 3 -5.0830 14.9912 85.2971 0.0000 0.0000 0.0000
# 4 0.0000 0.0000 0.0000 25.5199 0.0000 0.0000
# 5 0.0000 0.0000 0.0000 0.0000 17.1446 0.0000
# 6 0.0000 0.0000 0.0000 0.0000 0.0000 44.0180
#
#
#
# Elastic Compliance Matrix: (Units=1/GPa)
#
#
# Indices 1 2 3 4 5 6 
#
# 1 0.009146 -0.002385 0.000964 0.000000 0.000000 0.000000
# 2 -0.002385 0.009130 -0.001747 0.000000 0.000000 0.000000
# 3 0.000964 -0.001747 0.012088 0.000000 0.000000 0.000000
# 4 0.000000 0.000000 0.000000 0.039185 0.000000 0.000000
# 5 0.000000 0.000000 0.000000 0.000000 0.058327 0.000000
# 6 0.000000 0.000000 0.000000 0.000000 0.000000 0.022718
#
#
# Mechanical properties :
#
#
# Convention : Reuss Voigt Hill
#
# Bulk Modulus (GPa) = 41.61597 44.71343 43.16470
# Shear Modulus (GPa) = 30.31415 36.23220 33.27318
#
# Velocity S-wave (km/s) = 3.45564 3.77792 3.62037
# Velocity P-wave (km/s) = 5.68466 6.05342 5.87194
#
# Compressibility (1/GPa) = 0.02402924
#
# Stress axis : x y z
#
# Youngs Moduli (GPa) = 109.34206 109.52402 82.72537
#
# Poissons Ratio (x) = 0.26120 -0.07976
# Poissons Ratio (y) = 0.26076 0.14451
# Poissons Ratio (z) = -0.10542 0.19132
#
# Static dielectric constant tensor:
#      x y z
#    x 2.092070 0.000000 0.000000 
#    y 0.000000 2.108480 0.000000 
#    z 0.000000 0.000000 1.986950 
# 
# From -- ./inp_files/3956.got.cif
#   From: 2010.05.17/outbox.cif.g08.bks.cpg/sg41_2_cif.got.tgz:3956.got - 2010.06.03 18:54:24.
