data_PCOD9366160
_publ_section_title
;
Structure prediction by ZEFSAII (Michael W. Deem and Ramdas Pophale) SiO2 
 PCOD9366160
Probable space group: A B A 2
;
_chemical_formula_sum "Si O2"
_cell_formula_units_Z 36
_cell_length_a 13.221455
_cell_length_b 18.134663
_cell_length_c 5.290754
_cell_angle_alpha 90.000000
_cell_angle_beta 90.000000
_cell_angle_gamma 90.000000
_cell_volume 1268.546261
_symmetry_space_group_name_H-M "A B A 2"
_symmetry_group_IT_number 41
_symmetry_cell_setting 'orthorhombic'
loop_
_space_group_symop_operation_xyz
x,y,z
-x,-y,z
1/2-x,y,1/2+z
1/2+x,-y,1/2+z
x,1/2+y,1/2+z
-x,1/2-y,1/2+z
1/2-x,1/2+y,z
1/2+x,1/2-y,z
loop_
_atom_site_type_symbol
_atom_site_label
_atom_site_fract_x
_atom_site_fract_y
_atom_site_fract_z
Si Si1 0.514112 0.656510 0.918490
Si Si2 0.657670 0.280964 0.647381
Si Si3 0.500000 0.500000 0.805782
Si Si4 0.201872 0.352831 0.148902
Si Si5 0.190584 0.056726 0.483222
O O1 0.401382 0.683500 0.883676
O O2 0.515196 0.570961 0.986324
O O3 0.581395 0.650338 0.658091
O O4 0.577341 0.717402 0.065848
O O5 0.755741 0.230595 0.684950
O O6 0.672399 0.354291 0.484503
O O7 0.406342 0.519046 0.618099
O O8 0.248729 0.387399 0.402865
O O9 0.222494 0.041042 0.195155
#
# Coordination Sequence:
#
# PCOD9366160 Si02
#       5
#     8   8   4   8   8
#     4  10  21  40  65 101 141 184 238 302 367 446
#     4  10  21  38  67 101 137 185 246 305 366 437
#     4  10  26  46  72 112 158 204 250 314 400 468
#     4  10  20  35  60  91 124 165 220 279 340 408
#     4  11  25  47  74 107 151 201 255 317 383 457
#
# _framework density 28.378941000000001
#
# number of rings (size 3 to 8) (size 9 to 14) (size 15 to 20)
#    0.000    1.778    0.000    4.000    0.000    9.778 
#    0.000    6.667    0.000    0.000    0.000    0.000 
#    0.000    0.000    0.000    0.000    0.000    0.000 
#
# Total GULP energy -100665.552254 kJ/mol
# GULP energy per Si atom -5592.530681 kJ/mol
# Density = 2.831435 g / cm^3
# Si number density = 28.378941 Si / 1000 Ang^3
#
#
#
# Elastic Constant Matrix: (Units=GPa)
#
#
# Indices 1 2 3 4 5 6 
#
# 1 119.9067 21.7448 0.8320 0.0000 0.0000 0.0000
# 2 21.7448 219.8972 19.4216 0.0000 0.0000 0.0000
# 3 0.8320 19.4216 134.1428 0.0000 0.0000 0.0000
# 4 0.0000 0.0000 0.0000 36.6542 0.0000 0.0000
# 5 0.0000 0.0000 0.0000 0.0000 34.5022 0.0000
# 6 0.0000 0.0000 0.0000 0.0000 0.0000 41.7450
#
#
#
# Elastic Compliance Matrix: (Units=1/GPa)
#
#
# Indices 1 2 3 4 5 6 
#
# 1 0.008493 -0.000846 0.000070 0.000000 0.000000 0.000000
# 2 -0.000846 0.004691 -0.000674 0.000000 0.000000 0.000000
# 3 0.000070 -0.000674 0.007552 0.000000 0.000000 0.000000
# 4 0.000000 0.000000 0.000000 0.027282 0.000000 0.000000
# 5 0.000000 0.000000 0.000000 0.000000 0.028984 0.000000
# 6 0.000000 0.000000 0.000000 0.000000 0.000000 0.023955
#
#
# Mechanical properties :
#
#
# Convention : Reuss Voigt Hill
#
# Bulk Modulus (GPa) = 56.06872 61.99370 59.03121
# Shear Modulus (GPa) = 45.53683 51.37683 48.45683
#
# Velocity S-wave (km/s) = 4.01009 4.25948 4.13666
# Velocity P-wave (km/s) = 6.42193 6.78847 6.60774
#
# Compressibility (1/GPa) = 0.01783525
#
# Stress axis : x y z
#
# Youngs Moduli (GPa) = 117.74747 213.18532 132.41740
#
# Poissons Ratio (x) = 0.18035 -0.00924
# Poissons Ratio (y) = 0.09961 0.08924
# Poissons Ratio (z) = -0.00822 0.14366
#
# Static dielectric constant tensor:
#      x y z
#    x 2.237290 0.000000 0.000000 
#    y 0.000000 2.251800 0.000000 
#    z 0.000000 0.000000 2.535020 
# 
# From -- ./inp_files/195.got.cif
#   From: 2010.05.17/outbox.cif.g08.bks.cpg/sg41_1_cif.got.tgz:195.got - 2010.06.03 18:54:24.
