data_PCOD9366267
_publ_section_title
;
Structure prediction by ZEFSAII (Michael W. Deem and Ramdas Pophale) SiO2 
 PCOD9366267
Probable space group: A B A 2
;
_chemical_formula_sum "Si O2"
_cell_formula_units_Z 48
_cell_length_a 9.089225
_cell_length_b 13.565792
_cell_length_c 16.820513
_cell_angle_alpha 90.000000
_cell_angle_beta 90.000000
_cell_angle_gamma 90.000000
_cell_volume 2074.011906
_symmetry_space_group_name_H-M "A B A 2"
_symmetry_group_IT_number 41
_symmetry_cell_setting 'orthorhombic'
loop_
_space_group_symop_operation_xyz
x,y,z
-x,-y,z
1/2-x,y,1/2+z
1/2+x,-y,1/2+z
x,1/2+y,1/2+z
-x,1/2-y,1/2+z
1/2-x,1/2+y,z
1/2+x,1/2-y,z
loop_
_atom_site_type_symbol
_atom_site_label
_atom_site_fract_x
_atom_site_fract_y
_atom_site_fract_z
Si Si1 0.500000 0.500000 0.979521
Si Si2 0.381050 0.892813 0.762809
Si Si3 0.989219 0.182128 0.533136
Si Si4 0.000000 0.000000 0.415792
Si Si5 0.676005 0.638921 0.096128
Si Si6 0.861858 0.830939 0.902339
Si Si7 0.383519 0.752546 0.301881
O O1 0.619791 0.441079 0.929675
O O2 0.594928 0.578839 0.027237
O O3 0.358091 0.929076 0.673635
O O4 0.243938 0.817811 0.765641
O O5 0.536102 0.834651 0.755849
O O6 0.391077 0.950685 0.847145
O O7 0.851235 0.146900 0.586118
O O8 0.912528 0.256535 0.470626
O O9 0.038739 0.088163 0.478828
O O10 0.105042 0.249381 0.584294
O O11 0.703527 0.798791 0.873526
O O12 0.981615 0.816984 0.832857
#
# Coordination Sequence:
#
# PCOD9366267 Si02
#       7
#     4   8   8   4   8   8   8
#     4  10  23  34  64  87 136 162 230 264 349 398
#     4  11  24  41  69  96 138 177 231 279 358 409
#     4  11  24  42  70 100 141 178 235 286 354 415
#     4  12  25  38  74 105 132 178 246 286 329 420
#     4  11  25  45  64 101 143 185 219 292 362 423
#     4  10  20  38  60  98 121 170 221 288 327 399
#     4  10  20  39  64  91 129 169 221 279 341 396
#
# _framework density 23.143550000000001
#
# number of rings (size 3 to 8) (size 9 to 14) (size 15 to 20)
#    0.000    1.333    3.333    3.500    2.333    1.333 
#    0.000    1.667    0.000    5.000    0.000    0.000 
#    0.000    0.000    0.000    0.000    0.000    0.000 
#
# Total GULP energy -133663.974788 kJ/mol
# GULP energy per Si atom -5569.332283 kJ/mol
# Density = 2.309087 g / cm^3
# Si number density = 23.143550 Si / 1000 Ang^3
#
#
#
# Elastic Constant Matrix: (Units=GPa)
#
#
# Indices 1 2 3 4 5 6 
#
# 1 101.7283 16.3005 5.3907 0.0000 0.0000 0.0000
# 2 16.3005 89.8339 21.1535 0.0000 0.0000 0.0000
# 3 5.3907 21.1535 61.5735 0.0000 0.0000 0.0000
# 4 0.0000 0.0000 0.0000 -1.7441 0.0000 0.0000
# 5 0.0000 0.0000 0.0000 0.0000 -55.0791 0.0000
# 6 0.0000 0.0000 0.0000 0.0000 0.0000 20.6358
#
#
#
# Elastic Compliance Matrix: (Units=1/GPa)
#
#
# Indices 1 2 3 4 5 6 
#
# 1 0.010129 -0.001772 -0.000278 0.000000 0.000000 0.000000
# 2 -0.001772 0.012422 -0.004112 0.000000 0.000000 0.000000
# 3 -0.000278 -0.004112 0.017678 0.000000 0.000000 0.000000
# 4 0.000000 0.000000 0.000000 -0.573372 0.000000 0.000000
# 5 0.000000 0.000000 0.000000 0.000000 -0.018156 0.000000
# 6 0.000000 0.000000 0.000000 0.000000 0.000000 0.048460
#
#
# Mechanical properties :
#
#
# Convention : Reuss Voigt Hill
#
# Bulk Modulus (GPa) = 35.83825 37.64725 36.74275
# Shear Modulus (GPa) = -10.39039 6.78192 -1.80423
#
# Velocity S-wave (km/s) = -2.12115 1.71369 -0.88390
# Velocity P-wave (km/s) = 3.08541 4.49642 3.85601
#
# Compressibility (1/GPa) = 0.02790315
#
# Stress axis : x y z
#
# Youngs Moduli (GPa) = 98.72797 80.50495 56.56800
#
# Poissons Ratio (x) = 0.14269 0.01572
# Poissons Ratio (y) = 0.17499 0.23262
# Poissons Ratio (z) = 0.02743 0.33106
#
# Static dielectric constant tensor:
#      x y z
#    x 1.889540 0.000000 0.000000 
#    y 0.000000 1.992530 0.000000 
#    z 0.000000 0.000000 1.971680 
# 
# From -- ./inp_files/9682.got.cif
#   From: 2010.05.17/outbox.cif.g08.bks.cpg/sg41_5_cif.got.tgz:9682.got - 2010.06.03 18:54:24.
