data_PCOD9366358
_publ_section_title
;
Structure prediction by ZEFSAII (Michael W. Deem and Ramdas Pophale) SiO2 
 PCOD9366358
Probable space group: A B A 2
;
_chemical_formula_sum "Si O2"
_cell_formula_units_Z 40
_cell_length_a 13.044492
_cell_length_b 11.442412
_cell_length_c 11.723363
_cell_angle_alpha 90.000000
_cell_angle_beta 90.000000
_cell_angle_gamma 90.000000
_cell_volume 1749.834458
_symmetry_space_group_name_H-M "A B A 2"
_symmetry_group_IT_number 41
_symmetry_cell_setting 'orthorhombic'
loop_
_space_group_symop_operation_xyz
x,y,z
-x,-y,z
1/2-x,y,1/2+z
1/2+x,-y,1/2+z
x,1/2+y,1/2+z
-x,1/2-y,1/2+z
1/2-x,1/2+y,z
1/2+x,1/2-y,z
loop_
_atom_site_type_symbol
_atom_site_label
_atom_site_fract_x
_atom_site_fract_y
_atom_site_fract_z
Si Si1 0.785285 0.101178 0.125000
Si Si2 0.640337 0.900074 0.482943
Si Si3 0.862191 0.797076 0.483849
Si Si4 0.433243 0.850032 0.058884
Si Si5 0.620659 0.590442 0.803859
O O1 0.682886 0.102229 0.042628
O O2 0.735330 0.087221 0.248274
O O3 0.840555 0.223815 0.100882
O O4 0.854141 0.994616 0.084653
O O5 0.756192 0.859914 0.457840
O O6 0.579911 0.786878 0.525617
O O7 0.602953 0.970854 0.372444
O O8 0.882775 0.697930 0.390399
O O9 0.960025 0.880034 0.498568
O O10 0.446220 0.877927 0.193006
#
# Coordination Sequence:
#
# PCOD9366358 Si02
#       5
#     8   8   8   8   8
#     4   8  20  39  57  90 119 164 218 250 327 396
#     4  10  20  39  66  81 132 166 203 277 317 385
#     4  10  20  40  61  87 130 163 213 274 325 389
#     4   9  21  40  58  96 124 157 223 268 311 396
#     4   9  21  39  60  92 120 172 215 255 338 384
#
# _framework density 22.859306
#
# number of rings (size 3 to 8) (size 9 to 14) (size 15 to 20)
#    1.200    1.600    0.000    0.000    2.800    4.000 
#   18.000    0.000    0.000    0.000    0.000    0.000 
#    0.000    0.000    0.000    0.000    0.000    0.000 
#
# Total GULP energy -111472.178862 kJ/mol
# GULP energy per Si atom -5573.608943 kJ/mol
# Density = 2.280728 g / cm^3
# Si number density = 22.859306 Si / 1000 Ang^3
#
#
#
# Elastic Constant Matrix: (Units=GPa)
#
#
# Indices 1 2 3 4 5 6 
#
# 1 98.8239 29.2137 9.7676 0.0000 0.0000 0.0000
# 2 29.2137 99.6325 37.9090 0.0000 0.0000 0.0000
# 3 9.7676 37.9090 95.3627 0.0000 0.0000 0.0000
# 4 0.0000 0.0000 0.0000 27.5462 0.0000 0.0000
# 5 0.0000 0.0000 0.0000 0.0000 21.8842 0.0000
# 6 0.0000 0.0000 0.0000 0.0000 0.0000 30.0936
#
#
#
# Elastic Compliance Matrix: (Units=1/GPa)
#
#
# Indices 1 2 3 4 5 6 
#
# 1 0.011082 -0.003320 0.000185 0.000000 0.000000 0.000000
# 2 -0.003320 0.012820 -0.004756 0.000000 0.000000 0.000000
# 3 0.000185 -0.004756 0.012358 0.000000 0.000000 0.000000
# 4 0.000000 0.000000 0.000000 0.036303 0.000000 0.000000
# 5 0.000000 0.000000 0.000000 0.000000 0.045695 0.000000
# 6 0.000000 0.000000 0.000000 0.000000 0.000000 0.033230
#
#
# Mechanical properties :
#
#
# Convention : Reuss Voigt Hill
#
# Bulk Modulus (GPa) = 48.83411 49.73330 49.28370
# Shear Modulus (GPa) = 28.71978 30.36671 29.54324
#
# Velocity S-wave (km/s) = 3.54838 3.64870 3.59889
# Velocity P-wave (km/s) = 6.18039 6.28921 6.23504
#
# Compressibility (1/GPa) = 0.02047749
#
# Stress axis : x y z
#
# Youngs Moduli (GPa) = 90.23554 78.00350 80.91868
#
# Poissons Ratio (x) = 0.25894 -0.01493
# Poissons Ratio (y) = 0.29955 0.38487
# Poissons Ratio (z) = -0.01665 0.37100
#
# Static dielectric constant tensor:
#      x y z
#    x 1.860940 0.000000 0.000000 
#    y 0.000000 1.875660 0.000000 
#    z 0.000000 0.000000 1.817320 
# 
# From -- ./inp_files/5380.got.cif
#   From: 2010.05.17/outbox.cif.g08.bks.cpg/sg41_3_cif.got.tgz:5380.got - 2010.06.03 18:54:24.
