data_PCOD9366745
_publ_section_title
;
Structure prediction by ZEFSAII (Michael W. Deem and Ramdas Pophale) SiO2 
 PCOD9366745
Probable space group: A B A 2
;
_chemical_formula_sum "Si O2"
_cell_formula_units_Z 40
_cell_length_a 14.825986
_cell_length_b 4.811824
_cell_length_c 24.688755
_cell_angle_alpha 90.000000
_cell_angle_beta 90.000000
_cell_angle_gamma 90.000000
_cell_volume 1761.296652
_symmetry_space_group_name_H-M "A B A 2"
_symmetry_group_IT_number 41
_symmetry_cell_setting 'orthorhombic'
loop_
_space_group_symop_operation_xyz
x,y,z
-x,-y,z
1/2-x,y,1/2+z
1/2+x,-y,1/2+z
x,1/2+y,1/2+z
-x,1/2-y,1/2+z
1/2-x,1/2+y,z
1/2+x,1/2-y,z
loop_
_atom_site_type_symbol
_atom_site_label
_atom_site_fract_x
_atom_site_fract_y
_atom_site_fract_z
Si Si1 0.435055 0.749135 0.062860
Si Si2 0.688523 0.710545 0.342477
Si Si3 0.940321 0.737554 0.747733
Si Si4 0.185303 0.089524 0.164151
Si Si5 0.313399 0.888865 0.961272
O O1 0.500000 0.500000 0.047172
O O2 0.364269 0.626434 0.106569
O O3 0.500000 0.000000 0.083726
O O4 0.379626 0.845225 0.010833
O O5 0.721013 0.393997 0.337618
O O6 0.627876 0.823308 0.294427
O O7 0.648285 0.711059 0.403106
O O8 0.888443 0.559189 0.702019
O O9 0.000000 0.500000 0.775464
O O10 0.000000 0.000000 0.728812
O O11 0.226272 0.396235 0.172334
O O12 0.222482 0.702872 0.964665
#
# Coordination Sequence:
#
# PCOD9366745 Si02
#       5
#     8   8   8   8   8
#     4  12  25  41  64  96 131 165 212 274 335 386
#     4  10  21  40  65  93 128 171 217 260 314 393
#     4  12  25  41  64  96 131 165 212 274 335 386
#     4  12  25  44  67  88 122 172 222 264 319 396
#     4  10  21  40  65  93 128 171 217 260 314 393
#
# _framework density 22.710542
#
# number of rings (size 3 to 8) (size 9 to 14) (size 15 to 20)
#    0.000    0.800    0.000    7.800    0.000    3.200 
#    0.000    0.000    0.000    0.000    0.000    0.000 
#    0.000    0.000    0.000    0.000    0.000    0.000 
#
# Total GULP energy -111673.067431 kJ/mol
# GULP energy per Si atom -5583.653372 kJ/mol
# Density = 2.265885 g / cm^3
# Si number density = 22.710542 Si / 1000 Ang^3
#
#
#
# Elastic Constant Matrix: (Units=GPa)
#
#
# Indices 1 2 3 4 5 6 
#
# 1 45.2475 13.7826 33.1625 0.0000 0.0000 0.0000
# 2 13.7826 95.5838 20.1043 0.0000 0.0000 0.0000
# 3 33.1625 20.1043 110.6621 0.0000 0.0000 0.0000
# 4 0.0000 0.0000 0.0000 27.0174 0.0000 0.0000
# 5 0.0000 0.0000 0.0000 0.0000 88.8779 0.0000
# 6 0.0000 0.0000 0.0000 0.0000 0.0000 24.3521
#
#
#
# Elastic Compliance Matrix: (Units=1/GPa)
#
#
# Indices 1 2 3 4 5 6 
#
# 1 0.028856 -0.002435 -0.008205 0.000000 0.000000 0.000000
# 2 -0.002435 0.011083 -0.001284 0.000000 0.000000 0.000000
# 3 -0.008205 -0.001284 0.011729 0.000000 0.000000 0.000000
# 4 0.000000 0.000000 0.000000 0.037013 0.000000 0.000000
# 5 0.000000 0.000000 0.000000 0.000000 0.011251 0.000000
# 6 0.000000 0.000000 0.000000 0.000000 0.000000 0.041064
#
#
# Mechanical properties :
#
#
# Convention : Reuss Voigt Hill
#
# Bulk Modulus (GPa) = 35.94537 42.84357 39.39447
# Shear Modulus (GPa) = 28.71625 40.34576 34.53101
#
# Velocity S-wave (km/s) = 3.55976 4.21945 3.90357
# Velocity P-wave (km/s) = 5.72345 6.53027 6.14012
#
# Compressibility (1/GPa) = 0.02781999
#
# Stress axis : x y z
#
# Youngs Moduli (GPa) = 34.65489 90.22689 85.26205
#
# Poissons Ratio (x) = 0.21971 0.69957
# Poissons Ratio (y) = 0.08439 0.10946
# Poissons Ratio (z) = 0.28434 0.11583
#
# Static dielectric constant tensor:
#      x y z
#    x 1.883550 0.000000 0.000000 
#    y 0.000000 1.814400 0.000000 
#    z 0.000000 0.000000 1.860380 
# 
# From -- ./inp_files/12485.got.cif
#   From: 2010.05.17/outbox.cif.g08.bks.cpg/sg41_7_cif.got.tgz:12485.got - 2010.06.03 18:54:24.
