data_PCOD9366009
_publ_section_title
;
Structure prediction by ZEFSAII (Michael W. Deem and Ramdas Pophale) SiO2 
 PCOD9366009
Probable space group: A B A 2
;
_chemical_formula_sum "Si O2"
_cell_formula_units_Z 60
_cell_length_a 8.870804
_cell_length_b 16.177415
_cell_length_c 18.000861
_cell_angle_alpha 90.000000
_cell_angle_beta 90.000000
_cell_angle_gamma 90.000000
_cell_volume 2583.243758
_symmetry_space_group_name_H-M "A B A 2"
_symmetry_group_IT_number 41
_symmetry_cell_setting 'orthorhombic'
loop_
_space_group_symop_operation_xyz
x,y,z
-x,-y,z
1/2-x,y,1/2+z
1/2+x,-y,1/2+z
x,1/2+y,1/2+z
-x,1/2-y,1/2+z
1/2-x,1/2+y,z
1/2+x,1/2-y,z
loop_
_atom_site_type_symbol
_atom_site_label
_atom_site_fract_x
_atom_site_fract_y
_atom_site_fract_z
Si Si1 0.765252 0.390163 0.604520
Si Si2 0.428257 0.370411 0.808653
Si Si3 0.000000 0.500000 0.839260
Si Si4 0.100540 0.380855 0.572304
Si Si5 0.214756 0.386990 0.939991
Si Si6 0.025913 0.196199 0.531301
Si Si7 0.314519 0.292887 0.669013
Si Si8 0.712790 0.454904 0.758602
O O1 0.660735 0.369996 0.533899
O O2 0.776813 0.300283 0.645634
O O3 0.703180 0.447186 0.669664
O O4 0.934117 0.414487 0.582909
O O5 0.352556 0.358097 0.888167
O O6 0.375004 0.300980 0.751354
O O7 0.605572 0.388017 0.799671
O O8 0.353086 0.455867 0.779902
O O9 0.109774 0.447214 0.891958
O O10 0.115466 0.550636 0.786855
O O11 0.211421 0.425982 0.514749
O O12 0.082391 0.289657 0.534500
O O13 0.177798 0.355419 0.650147
O O14 0.098713 0.317841 0.969056
O O15 0.942308 0.181267 0.610091
#
# Coordination Sequence:
#
# PCOD9366009 Si02
#       8
#     8   8   4   8   8   8   8   8
#     4  10  19  36  65  93 122 153 207 266 305 370
#     4  10  21  41  64  87 126 167 206 258 310 380
#     4  10  24  44  60  84 132 166 204 264 312 370
#     4   9  20  36  63  89 125 156 201 256 311 369
#     4  10  22  42  61  86 126 169 203 248 315 376
#     4   9  18  39  60  90 124 159 198 255 311 359
#     4   9  18  37  62  91 120 156 205 251 309 359
#     4  10  22  40  63  88 123 163 207 257 321 353
#
# _framework density 23.226613
#
# number of rings (size 3 to 8) (size 9 to 14) (size 15 to 20)
#    0.000    2.400    1.333    0.800    3.733    1.067 
#    9.600    0.000    0.000    0.000    0.000    0.000 
#    0.000    0.000    0.000    0.000    0.000    0.000 
#
# Total GULP energy -167538.283656 kJ/mol
# GULP energy per Si atom -5584.609455 kJ/mol
# Density = 2.317375 g / cm^3
# Si number density = 23.226613 Si / 1000 Ang^3
#
#
#
# Elastic Constant Matrix: (Units=GPa)
#
#
# Indices 1 2 3 4 5 6 
#
# 1 134.1401 15.1957 27.2363 0.0000 0.0000 0.0000
# 2 15.1957 32.3735 13.0711 0.0000 0.0000 0.0000
# 3 27.2363 13.0711 78.2808 0.0000 0.0000 0.0000
# 4 0.0000 0.0000 0.0000 12.4951 0.0000 0.0000
# 5 0.0000 0.0000 0.0000 0.0000 37.8538 0.0000
# 6 0.0000 0.0000 0.0000 0.0000 0.0000 23.9375
#
#
#
# Elastic Compliance Matrix: (Units=1/GPa)
#
#
# Indices 1 2 3 4 5 6 
#
# 1 0.008271 -0.002917 -0.002391 0.000000 0.000000 0.000000
# 2 -0.002917 0.034151 -0.004688 0.000000 0.000000 0.000000
# 3 -0.002391 -0.004688 0.014389 0.000000 0.000000 0.000000
# 4 0.000000 0.000000 0.000000 0.080031 0.000000 0.000000
# 5 0.000000 0.000000 0.000000 0.000000 0.026417 0.000000
# 6 0.000000 0.000000 0.000000 0.000000 0.000000 0.041775
#
#
# Mechanical properties :
#
#
# Convention : Reuss Voigt Hill
#
# Bulk Modulus (GPa) = 27.15856 39.53341 33.34598
# Shear Modulus (GPa) = 21.07047 27.47670 24.27359
#
# Velocity S-wave (km/s) = 3.01519 3.44318 3.23627
# Velocity P-wave (km/s) = 4.88263 5.73280 5.32471
#
# Compressibility (1/GPa) = 0.03682081
#
# Stress axis : x y z
#
# Youngs Moduli (GPa) = 120.90842 29.28145 69.49756
#
# Poissons Ratio (x) = 0.08541 0.16614
# Poissons Ratio (y) = 0.35268 0.32578
# Poissons Ratio (z) = 0.28904 0.13726
#
# Static dielectric constant tensor:
#      x y z
#    x 1.944600 0.000000 0.000000 
#    y 0.000000 1.914180 0.000000 
#    z 0.000000 0.000000 1.868840 
# 
# From -- ./inp_files/9775.got.cif
#   From: 2010.05.17/outbox.cif.g08.bks.cpg/sg41_5_cif.got.tgz:9775.got - 2010.06.03 18:54:24.
