data_PCOD9366409
_publ_section_title
;
Structure prediction by ZEFSAII (Michael W. Deem and Ramdas Pophale) SiO2 
 PCOD9366409
Probable space group: A B A 2
;
_chemical_formula_sum "Si O2"
_cell_formula_units_Z 64
_cell_length_a 15.282198
_cell_length_b 18.234517
_cell_length_c 11.602115
_cell_angle_alpha 90.000000
_cell_angle_beta 90.000000
_cell_angle_gamma 90.000000
_cell_volume 3233.085964
_symmetry_space_group_name_H-M "A B A 2"
_symmetry_group_IT_number 41
_symmetry_cell_setting 'orthorhombic'
loop_
_space_group_symop_operation_xyz
x,y,z
-x,-y,z
1/2-x,y,1/2+z
1/2+x,-y,1/2+z
x,1/2+y,1/2+z
-x,1/2-y,1/2+z
1/2-x,1/2+y,z
1/2+x,1/2-y,z
loop_
_atom_site_type_symbol
_atom_site_label
_atom_site_fract_x
_atom_site_fract_y
_atom_site_fract_z
Si Si1 0.606277 0.148498 0.142080
Si Si2 0.099612 0.009915 0.057531
Si Si3 0.798213 0.989631 0.294925
Si Si4 0.396791 0.505255 0.528326
Si Si5 0.745433 0.243630 0.528817
Si Si6 0.330019 0.388945 0.881434
Si Si7 0.904156 0.840524 0.641783
Si Si8 0.338369 0.630092 0.884171
O O1 0.635519 0.071371 0.082463
O O2 0.678846 0.208713 0.109295
O O3 0.606171 0.134912 0.278847
O O4 0.506348 0.168134 0.105782
O O5 0.161596 0.014531 0.168539
O O6 0.110846 0.081329 0.977723
O O7 0.000000 0.000000 0.095186
O O8 0.127095 0.942760 0.975045
O O9 0.733233 0.923128 0.324846
O O10 0.870050 0.988154 0.396016
O O11 0.745005 0.064253 0.316983
O O12 0.500000 0.500000 0.541250
O O13 0.371656 0.579892 0.594192
O O14 0.709383 0.179786 0.447220
O O15 0.663626 0.280149 0.595292
O O16 0.790011 0.305158 0.450029
O O17 0.897690 0.842092 0.779764
#
# Coordination Sequence:
#
# PCOD9366409 Si02
#       8
#     8   8   8   8   8   8   8   8
#     4  11  24  43  68  95 130 173 221 275 328 391
#     4  11  24  41  66  96 127 164 214 270 326 383
#     4  11  21  39  66  97 129 167 210 277 326 386
#     4  10  20  40  67  97 126 167 222 271 326 387
#     4  12  24  44  64  96 132 180 218 262 332 396
#     4  11  24  40  66  95 130 167 219 269 327 386
#     4  11  24  43  68  95 130 173 221 275 328 391
#     4  11  24  40  66  95 130 167 219 269 327 386
#
# _framework density 19.795328999999999
#
# number of rings (size 3 to 8) (size 9 to 14) (size 15 to 20)
#    0.000    1.000    2.500    4.875    3.500    3.000 
#    0.000    0.000    0.000    0.000    0.000    0.000 
#    0.000    0.000    0.000    0.000    0.000    0.000 
#
# Total GULP energy -178871.574652 kJ/mol
# GULP energy per Si atom -5589.736708 kJ/mol
# Density = 1.975027 g / cm^3
# Si number density = 19.795329 Si / 1000 Ang^3
#
#
#
# Elastic Constant Matrix: (Units=GPa)
#
#
# Indices 1 2 3 4 5 6 
#
# 1 29.3123 10.1944 2.7256 0.0000 0.0000 0.0000
# 2 10.1944 44.8689 -10.4222 0.0000 0.0000 0.0000
# 3 2.7256 -10.4222 84.0552 0.0000 0.0000 0.0000
# 4 0.0000 0.0000 0.0000 2.5422 0.0000 0.0000
# 5 0.0000 0.0000 0.0000 0.0000 38.5904 0.0000
# 6 0.0000 0.0000 0.0000 0.0000 0.0000 19.9687
#
#
#
# Elastic Compliance Matrix: (Units=1/GPa)
#
#
# Indices 1 2 3 4 5 6 
#
# 1 0.037484 -0.009060 -0.002339 0.000000 0.000000 0.000000
# 2 -0.009060 0.025138 0.003411 0.000000 0.000000 0.000000
# 3 -0.002339 0.003411 0.012396 0.000000 0.000000 0.000000
# 4 0.000000 0.000000 0.000000 0.393367 0.000000 0.000000
# 5 0.000000 0.000000 0.000000 0.000000 0.025913 0.000000
# 6 0.000000 0.000000 0.000000 0.000000 0.000000 0.050078
#
#
# Mechanical properties :
#
#
# Convention : Reuss Voigt Hill
#
# Bulk Modulus (GPa) = 16.93723 18.13687 17.53705
# Shear Modulus (GPa) = 8.62021 22.60282 15.61152
#
# Velocity S-wave (km/s) = 2.08905 3.38276 2.81133
# Velocity P-wave (km/s) = 3.79389 4.94363 4.40642
#
# Compressibility (1/GPa) = 0.05904153
#
# Stress axis : x y z
#
# Youngs Moduli (GPa) = 26.67825 39.78070 80.67325
#
# Poissons Ratio (x) = 0.36040 0.18868
# Poissons Ratio (y) = 0.24170 -0.27515
# Poissons Ratio (z) = 0.06239 -0.13568
#
# Static dielectric constant tensor:
#      x y z
#    x 1.707220 0.000000 0.000000 
#    y 0.000000 1.668360 0.000000 
#    z 0.000000 0.000000 1.678320 
# 
# From -- ./inp_files/5715.got.cif
#   From: 2010.05.17/outbox.cif.g08.bks.cpg/sg41_3_cif.got.tgz:5715.got - 2010.06.03 18:54:24.
