data_PCOD9366981
_publ_section_title
;
Structure prediction by ZEFSAII (Michael W. Deem and Ramdas Pophale) SiO2 
 PCOD9366981
Probable space group: A B A 2
;
_chemical_formula_sum "Si O2"
_cell_formula_units_Z 64
_cell_length_a 9.396300
_cell_length_b 16.829183
_cell_length_c 19.290351
_cell_angle_alpha 90.000000
_cell_angle_beta 90.000000
_cell_angle_gamma 90.000000
_cell_volume 3050.422792
_symmetry_space_group_name_H-M "A B A 2"
_symmetry_group_IT_number 41
_symmetry_cell_setting 'orthorhombic'
loop_
_space_group_symop_operation_xyz
x,y,z
-x,-y,z
1/2-x,y,1/2+z
1/2+x,-y,1/2+z
x,1/2+y,1/2+z
-x,1/2-y,1/2+z
1/2-x,1/2+y,z
1/2+x,1/2-y,z
loop_
_atom_site_type_symbol
_atom_site_label
_atom_site_fract_x
_atom_site_fract_y
_atom_site_fract_z
Si Si1 0.904549 0.882556 0.063710
Si Si2 0.352445 0.540621 0.922316
Si Si3 0.880979 0.068189 0.489808
Si Si4 0.294304 0.452856 0.110843
Si Si5 0.735258 0.837905 0.824962
Si Si6 0.388189 0.216263 0.691262
Si Si7 0.306872 0.353681 0.235792
Si Si8 0.582756 0.189643 0.873124
O O1 0.871172 0.805625 0.110258
O O2 0.068012 0.908050 0.077874
O O3 0.813657 0.954449 0.096837
O O4 0.874869 0.891131 0.981978
O O5 0.500000 0.500000 0.904427
O O6 0.257366 0.473244 0.957309
O O7 0.276187 0.578617 0.857040
O O8 0.843529 0.078801 0.570456
O O9 0.905990 0.149458 0.448293
O O10 0.000000 0.000000 0.481022
O O11 0.300096 0.432734 0.191226
O O12 0.710389 0.837373 0.742486
O O13 0.583050 0.810691 0.854831
O O14 0.849404 0.774488 0.854013
O O15 0.331128 0.302134 0.714749
O O16 0.551898 0.195655 0.710511
O O17 0.332896 0.365114 0.317017
#
# Coordination Sequence:
#
# PCOD9366981 Si02
#       8
#     8   8   8   8   8   8   8   8
#     4   9  17  35  59  80 105 150 189 229 283 348
#     4  11  21  38  60  87 120 157 196 244 299 360
#     4  11  21  38  58  87 122 151 195 252 297 349
#     4   9  18  35  57  81 109 146 188 232 287 343
#     4  10  22  38  59  86 117 155 200 244 299 351
#     4   9  19  37  59  79 113 146 190 239 280 343
#     4   9  19  38  57  81 110 148 190 235 286 341
#     4  10  22  38  59  85 116 156 196 248 295 356
#
# _framework density 20.980698
#
# number of rings (size 3 to 8) (size 9 to 14) (size 15 to 20)
#    0.000    2.250    3.750    0.000    1.750    2.000 
#    6.750    2.500    0.000    0.750    0.000    0.000 
#    0.000    0.000    0.000    0.000    0.000    0.000 
#
# Total GULP energy -178339.196747 kJ/mol
# GULP energy per Si atom -5573.099898 kJ/mol
# Density = 2.093294 g / cm^3
# Si number density = 20.980698 Si / 1000 Ang^3
#
#
#
# Elastic Constant Matrix: (Units=GPa)
#
#
# Indices 1 2 3 4 5 6 
#
# 1 56.1098 11.0373 -10.3501 0.0000 0.0000 0.0000
# 2 11.0373 19.6801 8.4506 0.0000 0.0000 0.0000
# 3 -10.3501 8.4506 53.7317 0.0000 0.0000 0.0000
# 4 0.0000 0.0000 0.0000 27.8301 0.0000 0.0000
# 5 0.0000 0.0000 0.0000 0.0000 8.3340 0.0000
# 6 0.0000 0.0000 0.0000 0.0000 0.0000 14.8406
#
#
#
# Elastic Compliance Matrix: (Units=1/GPa)
#
#
# Indices 1 2 3 4 5 6 
#
# 1 0.022039 -0.015210 0.006637 0.000000 0.000000 0.000000
# 2 -0.015210 0.064990 -0.013151 0.000000 0.000000 0.000000
# 3 0.006637 -0.013151 0.021958 0.000000 0.000000 0.000000
# 4 0.000000 0.000000 0.000000 0.035932 0.000000 0.000000
# 5 0.000000 0.000000 0.000000 0.000000 0.119991 0.000000
# 6 0.000000 0.000000 0.000000 0.000000 0.000000 0.067383
#
#
# Mechanical properties :
#
#
# Convention : Reuss Voigt Hill
#
# Bulk Modulus (GPa) = 15.25812 16.42190 15.84001
# Shear Modulus (GPa) = 12.57589 18.22653 15.40121
#
# Velocity S-wave (km/s) = 2.45093 2.95062 2.71230
# Velocity P-wave (km/s) = 3.91122 4.41048 4.16833
#
# Compressibility (1/GPa) = 0.06553889
#
# Stress axis : x y z
#
# Youngs Moduli (GPa) = 45.37511 15.38692 45.54186
#
# Poissons Ratio (x) = 0.23404 -0.30228
# Poissons Ratio (y) = 0.69016 0.59893
# Poissons Ratio (z) = -0.30117 0.20236
#
# Static dielectric constant tensor:
#      x y z
#    x 1.816330 0.000000 0.000000 
#    y 0.000000 1.759240 0.000000 
#    z 0.000000 0.000000 1.870600 
# 
# From -- ./inp_files/11293.got.cif
#   From: 2010.05.17/outbox.cif.g08.bks.cpg/sg41_6_cif.got.tgz:11293.got - 2010.06.03 18:54:24.
