data_PCOD9366175
_publ_section_title
;
Structure prediction by ZEFSAII (Michael W. Deem and Ramdas Pophale) SiO2 
 PCOD9366175
Probable space group: A B A 2
;
_chemical_formula_sum "Si O2"
_cell_formula_units_Z 48
_cell_length_a 17.530882
_cell_length_b 15.048911
_cell_length_c 8.159969
_cell_angle_alpha 90.000000
_cell_angle_beta 90.000000
_cell_angle_gamma 90.000000
_cell_volume 2152.768595
_symmetry_space_group_name_H-M "A B A 2"
_symmetry_group_IT_number 41
_symmetry_cell_setting 'orthorhombic'
loop_
_space_group_symop_operation_xyz
x,y,z
-x,-y,z
1/2-x,y,1/2+z
1/2+x,-y,1/2+z
x,1/2+y,1/2+z
-x,1/2-y,1/2+z
1/2-x,1/2+y,z
1/2+x,1/2-y,z
loop_
_atom_site_type_symbol
_atom_site_label
_atom_site_fract_x
_atom_site_fract_y
_atom_site_fract_z
Si Si1 0.138371 0.405848 0.865710
Si Si2 0.921809 0.728714 0.357243
Si Si3 0.785668 0.842212 0.769230
Si Si4 0.638371 0.405847 0.464608
Si Si5 0.714331 0.157787 0.561087
Si Si6 0.921809 0.771287 0.973074
O O1 0.105197 0.500000 0.915159
O O2 0.175520 0.409465 0.686873
O O3 0.082596 0.322253 0.874914
O O4 0.207581 0.378653 0.987958
O O5 0.917404 0.822252 0.455405
O O6 0.846271 0.677610 0.417010
O O7 0.000000 0.683134 0.415158
O O8 0.921511 0.750001 0.165159
O O9 0.707581 0.878652 0.842358
O O10 0.824479 0.909465 0.643444
O O11 0.775662 0.750000 0.665158
O O12 0.846271 0.822389 0.913307
#
# Coordination Sequence:
#
# PCOD9366175 Si02
#       6
#     8   8   8   8   8   8
#     4  11  21  35  58  86 115 144 181 234 283 329
#     4  11  22  39  59  80 109 149 191 231 277 340
#     4  10  20  36  57  83 110 148 190 225 272 335
#     4  11  21  35  58  86 115 144 181 234 283 329
#     4  10  20  36  57  83 110 148 190 225 272 335
#     4  11  22  39  59  80 109 149 191 231 277 340
#
# _framework density 22.296868
#
# number of rings (size 3 to 8) (size 9 to 14) (size 15 to 20)
#    0.000    1.333    0.000   11.000    0.000    0.667 
#    0.000    0.000    0.000    7.000    0.000    0.000 
#    0.000    0.000    0.000    0.000    0.000    0.000 
#
# Total GULP energy -134242.915778 kJ/mol
# GULP energy per Si atom -5593.454824 kJ/mol
# Density = 2.224612 g / cm^3
# Si number density = 22.296868 Si / 1000 Ang^3
#
#
#
# Elastic Constant Matrix: (Units=GPa)
#
#
# Indices 1 2 3 4 5 6 
#
# 1 78.3408 -16.4036 2.4971 0.0000 0.0000 0.0000
# 2 -16.4036 44.3411 -26.5952 0.0000 0.0000 0.0000
# 3 2.4971 -26.5952 108.6175 0.0000 0.0000 0.0000
# 4 0.0000 0.0000 0.0000 20.7689 0.0000 0.0000
# 5 0.0000 0.0000 0.0000 0.0000 33.2785 0.0000
# 6 0.0000 0.0000 0.0000 0.0000 0.0000 8.3926
#
#
#
# Elastic Compliance Matrix: (Units=1/GPa)
#
#
# Indices 1 2 3 4 5 6 
#
# 1 0.013949 0.005823 0.001105 0.000000 0.000000 0.000000
# 2 0.005823 0.028865 0.006934 0.000000 0.000000 0.000000
# 3 0.001105 0.006934 0.010879 0.000000 0.000000 0.000000
# 4 0.000000 0.000000 0.000000 0.048149 0.000000 0.000000
# 5 0.000000 0.000000 0.000000 0.000000 0.030049 0.000000
# 6 0.000000 0.000000 0.000000 0.000000 0.000000 0.119153
#
#
# Mechanical properties :
#
#
# Convention : Reuss Voigt Hill
#
# Bulk Modulus (GPa) = 12.28241 16.69957 14.49099
# Shear Modulus (GPa) = 19.96330 30.60808 25.28569
#
# Velocity S-wave (km/s) = 2.99547 3.70909 3.37121
# Velocity P-wave (km/s) = 4.18143 5.08419 4.65475
#
# Compressibility (1/GPa) = 0.08141727
#
# Stress axis : x y z
#
# Youngs Moduli (GPa) = 71.69078 34.64351 91.92035
#
# Poissons Ratio (x) = -0.20173 -0.10158
# Poissons Ratio (y) = -0.41746 -0.63736
# Poissons Ratio (z) = -0.07923 -0.24021
#
# Static dielectric constant tensor:
#      x y z
#    x 1.821850 0.000000 0.000000 
#    y 0.000000 1.844720 0.000000 
#    z 0.000000 0.000000 1.846360 
# 
# From -- ./inp_files/3026.got.cif
#   From: 2010.05.17/outbox.cif.g08.bks.cpg/sg41_2_cif.got.tgz:3026.got - 2010.06.03 18:54:24.
