data_PCOD9366126
_publ_section_title
;
Structure prediction by ZEFSAII (Michael W. Deem and Ramdas Pophale) SiO2 
 PCOD9366126
Probable space group: A B A 2
;
_chemical_formula_sum "Si O2"
_cell_formula_units_Z 64
_cell_length_a 12.412965
_cell_length_b 12.100001
_cell_length_c 22.731063
_cell_angle_alpha 90.000000
_cell_angle_beta 90.000000
_cell_angle_gamma 90.000000
_cell_volume 3414.134944
_symmetry_space_group_name_H-M "A B A 2"
_symmetry_group_IT_number 41
_symmetry_cell_setting 'orthorhombic'
loop_
_space_group_symop_operation_xyz
x,y,z
-x,-y,z
1/2-x,y,1/2+z
1/2+x,-y,1/2+z
x,1/2+y,1/2+z
-x,1/2-y,1/2+z
1/2-x,1/2+y,z
1/2+x,1/2-y,z
loop_
_atom_site_type_symbol
_atom_site_label
_atom_site_fract_x
_atom_site_fract_y
_atom_site_fract_z
Si Si1 0.469208 0.823204 0.321220
Si Si2 0.263970 0.441518 0.609783
Si Si3 0.911114 0.746082 0.609691
Si Si4 0.591851 0.213257 0.188892
Si Si5 0.673043 0.964905 0.323401
Si Si6 0.104241 0.075888 0.515714
Si Si7 0.270723 0.613795 0.696844
Si Si8 0.903117 0.410566 0.878476
O O1 0.467581 0.816579 0.249684
O O2 0.585167 0.871529 0.341060
O O3 0.441021 0.705478 0.349827
O O4 0.380274 0.916574 0.336443
O O5 0.177214 0.346994 0.598507
O O6 0.362356 0.385579 0.647419
O O7 0.305576 0.507758 0.552637
O O8 0.211340 0.527090 0.655105
O O9 0.925036 0.812120 0.549699
O O10 0.862852 0.836170 0.655409
O O11 0.019121 0.714483 0.644168
O O12 0.693504 0.284405 0.211209
O O13 0.687076 0.948287 0.253605
O O14 0.791770 0.949804 0.349069
O O15 0.124809 0.099833 0.447596
O O16 0.000000 0.000000 0.518229
O O17 0.000000 0.500000 0.871469
#
# Coordination Sequence:
#
# PCOD9366126 Si02
#       8
#     8   8   8   8   8   8   8   8
#     4  11  24  40  66  99 133 174 220 269 337 400
#     4  10  21  36  60  92 122 156 205 255 316 382
#     4  10  21  35  61  90 121 159 202 262 318 376
#     4  11  19  34  61  93 127 159 197 264 319 386
#     4  11  23  41  65  94 133 176 218 271 325 399
#     4  10  21  43  65  85 117 169 219 255 310 390
#     4  10  20  33  57  94 125 158 201 250 325 386
#     4  11  27  44  65  94 131 181 222 276 328 388
#
# _framework density 18.745598999999999
#
# number of rings (size 3 to 8) (size 9 to 14) (size 15 to 20)
#    0.000    1.500    5.000    0.000    1.750    2.500 
#    2.250    0.000    0.000    0.000    0.000    0.000 
#    0.000    0.000    0.000    0.000    0.000    0.000 
#
# Total GULP energy -178370.759993 kJ/mol
# GULP energy per Si atom -5574.086250 kJ/mol
# Density = 1.870293 g / cm^3
# Si number density = 18.745599 Si / 1000 Ang^3
#
#
#
# Elastic Constant Matrix: (Units=GPa)
#
#
# Indices 1 2 3 4 5 6 
#
# 1 79.2847 31.6641 39.3137 0.0000 0.0000 0.0000
# 2 31.6641 87.2638 47.8641 0.0000 0.0000 0.0000
# 3 39.3137 47.8641 91.6954 0.0000 0.0000 0.0000
# 4 0.0000 0.0000 0.0000 25.1036 0.0000 0.0000
# 5 0.0000 0.0000 0.0000 0.0000 22.0117 0.0000
# 6 0.0000 0.0000 0.0000 0.0000 0.0000 23.1409
#
#
#
# Elastic Compliance Matrix: (Units=1/GPa)
#
#
# Indices 1 2 3 4 5 6 
#
# 1 0.016547 -0.002960 -0.005549 0.000000 0.000000 0.000000
# 2 -0.002960 0.016586 -0.007389 0.000000 0.000000 0.000000
# 3 -0.005549 -0.007389 0.017142 0.000000 0.000000 0.000000
# 4 0.000000 0.000000 0.000000 0.039835 0.000000 0.000000
# 5 0.000000 0.000000 0.000000 0.000000 0.045430 0.000000
# 6 0.000000 0.000000 0.000000 0.000000 0.000000 0.043213
#
#
# Mechanical properties :
#
#
# Convention : Reuss Voigt Hill
#
# Bulk Modulus (GPa) = 54.11701 55.10308 54.61004
# Shear Modulus (GPa) = 23.07245 23.34471 23.20858
#
# Velocity S-wave (km/s) = 3.51211 3.53277 3.52246
# Velocity P-wave (km/s) = 6.73635 6.78967 6.76306
#
# Compressibility (1/GPa) = 0.01847848
#
# Stress axis : x y z
#
# Youngs Moduli (GPa) = 60.43562 60.29042 58.33784
#
# Poissons Ratio (x) = 0.17849 0.32371
# Poissons Ratio (y) = 0.17891 0.43104
# Poissons Ratio (z) = 0.33535 0.44547
#
# Static dielectric constant tensor:
#      x y z
#    x 1.689570 0.000000 0.000000 
#    y 0.000000 1.666030 0.000000 
#    z 0.000000 0.000000 1.649060 
# 
# From -- ./inp_files/12144.got.cif
#   From: 2010.05.17/outbox.cif.g08.bks.cpg/sg41_7_cif.got.tgz:12144.got - 2010.06.03 18:54:24.
