data_PCOD9366425
_publ_section_title
;
Structure prediction by ZEFSAII (Michael W. Deem and Ramdas Pophale) SiO2 
 PCOD9366425
Probable space group: A B A 2
;
_chemical_formula_sum "Si O2"
_cell_formula_units_Z 64
_cell_length_a 12.926101
_cell_length_b 9.695713
_cell_length_c 24.933343
_cell_angle_alpha 90.000000
_cell_angle_beta 90.000000
_cell_angle_gamma 90.000000
_cell_volume 3124.840165
_symmetry_space_group_name_H-M "A B A 2"
_symmetry_group_IT_number 41
_symmetry_cell_setting 'orthorhombic'
loop_
_space_group_symop_operation_xyz
x,y,z
-x,-y,z
1/2-x,y,1/2+z
1/2+x,-y,1/2+z
x,1/2+y,1/2+z
-x,1/2-y,1/2+z
1/2-x,1/2+y,z
1/2+x,1/2-y,z
loop_
_atom_site_type_symbol
_atom_site_label
_atom_site_fract_x
_atom_site_fract_y
_atom_site_fract_z
Si Si1 0.048961 0.857310 0.198540
Si Si2 0.601507 0.417720 0.524076
Si Si3 0.895523 0.915063 0.644685
Si Si4 0.861573 0.638045 0.396115
Si Si5 0.782846 0.863922 0.942301
Si Si6 0.380215 0.761528 0.281556
Si Si7 0.751885 0.991383 0.240007
Si Si8 0.507342 0.349462 0.998998
O O1 0.075106 0.744328 0.154205
O O2 0.151644 0.909191 0.228133
O O3 0.972394 0.785979 0.242129
O O4 0.000000 0.000000 0.177584
O O5 0.500000 0.500000 0.505604
O O6 0.633205 0.458642 0.584176
O O7 0.692081 0.423694 0.480703
O O8 0.555226 0.264503 0.530560
O O9 0.801100 0.942312 0.684908
O O10 0.000000 0.000000 0.658611
O O11 0.764746 0.733509 0.412368
O O12 0.822513 0.479930 0.400442
O O13 0.908128 0.708544 0.343130
O O14 0.946042 0.644787 0.442764
O O15 0.875017 0.820599 0.982513
O O16 0.332782 0.909536 0.266147
O O17 0.294994 0.639609 0.273170
O O18 0.500000 0.500000 0.024507
#
# Coordination Sequence:
#
# PCOD9366425 Si02
#       8
#     8   8   8   8   8   8   8   8
#     4  10  23  42  61  88 132 166 214 270 317 380
#     4  10  22  40  65  89 123 165 208 260 327 372
#     4  11  22  43  64  93 124 171 213 267 327 381
#     4  10  21  37  62  91 122 161 204 251 315 369
#     4  10  20  41  61  92 125 158 206 259 305 386
#     4  11  22  39  63  94 125 173 209 263 317 379
#     4  11  22  41  62  90 133 163 217 264 315 385
#     4   9  20  40  58  89 127 153 202 258 305 375
#
# _framework density 20.481048000000001
#
# number of rings (size 3 to 8) (size 9 to 14) (size 15 to 20)
#    0.000    1.750    2.500    1.500    0.000    1.500 
#   22.500    8.750    0.000    0.000    0.000    0.000 
#    0.000    0.000    0.000    0.000    0.000    0.000 
#
# Total GULP energy -178473.963125 kJ/mol
# GULP energy per Si atom -5577.311348 kJ/mol
# Density = 2.043443 g / cm^3
# Si number density = 20.481048 Si / 1000 Ang^3
#
#
#
# Elastic Constant Matrix: (Units=GPa)
#
#
# Indices 1 2 3 4 5 6 
#
# 1 54.6626 6.5142 -0.4073 0.0000 0.0000 0.0000
# 2 6.5142 60.3828 13.1504 0.0000 0.0000 0.0000
# 3 -0.4073 13.1504 26.4658 0.0000 0.0000 0.0000
# 4 0.0000 0.0000 0.0000 20.5718 0.0000 0.0000
# 5 0.0000 0.0000 0.0000 0.0000 -21.4440 0.0000
# 6 0.0000 0.0000 0.0000 0.0000 0.0000 28.1131
#
#
#
# Elastic Compliance Matrix: (Units=1/GPa)
#
#
# Indices 1 2 3 4 5 6 
#
# 1 0.018581 -0.002318 0.001438 0.000000 0.000000 0.000000
# 2 -0.002318 0.018860 -0.009407 0.000000 0.000000 0.000000
# 3 0.001438 -0.009407 0.042481 0.000000 0.000000 0.000000
# 4 0.000000 0.000000 0.000000 0.048610 0.000000 0.000000
# 5 0.000000 0.000000 0.000000 0.000000 -0.046633 0.000000
# 6 0.000000 0.000000 0.000000 0.000000 0.000000 0.035571
#
#
# Mechanical properties :
#
#
# Convention : Reuss Voigt Hill
#
# Bulk Modulus (GPa) = 16.84981 20.00286 18.42633
# Shear Modulus (GPa) = 31.68054 13.59842 22.63948
#
# Velocity S-wave (km/s) = 3.93723 2.57952 3.32834
# Velocity P-wave (km/s) = 5.37717 4.31968 4.87717
#
# Compressibility (1/GPa) = 0.05934786
#
# Stress axis : x y z
#
# Youngs Moduli (GPa) = 53.81853 53.02319 23.54000
#
# Poissons Ratio (x) = 0.12289 -0.03384
# Poissons Ratio (y) = 0.12473 0.22144
# Poissons Ratio (z) = -0.07737 0.49878
#
# Static dielectric constant tensor:
#      x y z
#    x 1.726540 0.000000 0.000000 
#    y 0.000000 1.706670 0.000000 
#    z 0.000000 0.000000 1.735670 
# 
# From -- ./inp_files/12719.got.cif
#   From: 2010.05.17/outbox.cif.g08.bks.cpg/sg41_7_cif.got.tgz:12719.got - 2010.06.03 18:54:24.
