data_PCOD9366134
_publ_section_title
;
Structure prediction by ZEFSAII (Michael W. Deem and Ramdas Pophale) SiO2 
 PCOD9366134
Probable space group: A B A 2
;
_chemical_formula_sum "Si O2"
_cell_formula_units_Z 48
_cell_length_a 11.169989
_cell_length_b 8.952033
_cell_length_c 16.807764
_cell_angle_alpha 90.000000
_cell_angle_beta 90.000000
_cell_angle_gamma 90.000000
_cell_volume 1680.677405
_symmetry_space_group_name_H-M "A B A 2"
_symmetry_group_IT_number 41
_symmetry_cell_setting 'orthorhombic'
loop_
_space_group_symop_operation_xyz
x,y,z
-x,-y,z
1/2-x,y,1/2+z
1/2+x,-y,1/2+z
x,1/2+y,1/2+z
-x,1/2-y,1/2+z
1/2-x,1/2+y,z
1/2+x,1/2-y,z
loop_
_atom_site_type_symbol
_atom_site_label
_atom_site_fract_x
_atom_site_fract_y
_atom_site_fract_z
Si Si1 0.788376 0.001397 0.823560
Si Si2 0.917051 0.338077 0.503738
Si Si3 0.010818 0.264552 0.346348
Si Si4 0.502527 0.761821 0.676605
Si Si5 0.245433 0.427117 0.982841
Si Si6 0.676285 0.976728 0.157603
O O1 0.859787 0.156825 0.836892
O O2 0.895755 0.878408 0.831608
O O3 0.698586 0.007266 0.898043
O O4 0.738494 0.986600 0.734622
O O5 0.994430 0.240024 0.440677
O O6 0.953783 0.337489 0.595882
O O7 0.881216 0.508276 0.482059
O O8 0.792485 0.243871 0.491590
O O9 0.003105 0.170990 0.264910
O O10 0.583211 0.609883 0.679236
O O11 0.372555 0.691972 0.659544
O O12 0.204745 0.490576 0.067349
#
# Coordination Sequence:
#
# PCOD9366134 Si02
#       6
#     8   8   8   8   8   8
#     4   8  15  31  53  74 101 140 179 216 263 320
#     4  10  20  34  54  82 112 144 180 222 274 326
#     4   8  15  31  53  74  98 139 186 218 256 319
#     4   8  15  31  53  74  98 139 186 218 256 319
#     4  10  20  34  52  82 114 142 178 224 280 326
#     4   8  15  31  53  74 101 140 179 216 263 320
#
# _framework density 28.559913000000002
#
# number of rings (size 3 to 8) (size 9 to 14) (size 15 to 20)
#    0.000    3.333    0.000    2.000    0.000    1.333 
#    0.000   18.333    0.000    0.000    0.000   25.667 
#    0.000    0.000    0.000    0.000    0.000    0.000 
#
# Total GULP energy -133749.933224 kJ/mol
# GULP energy per Si atom -5572.913884 kJ/mol
# Density = 2.849491 g / cm^3
# Si number density = 28.559913 Si / 1000 Ang^3
#
#
#
# Elastic Constant Matrix: (Units=GPa)
#
#
# Indices 1 2 3 4 5 6 
#
# 1 48.6720 23.7500 25.9116 0.0000 0.0000 0.0000
# 2 23.7500 78.8455 41.5376 0.0000 0.0000 0.0000
# 3 25.9116 41.5376 306.5346 0.0000 0.0000 0.0000
# 4 0.0000 0.0000 0.0000 27.1444 0.0000 0.0000
# 5 0.0000 0.0000 0.0000 0.0000 42.6561 0.0000
# 6 0.0000 0.0000 0.0000 0.0000 0.0000 31.2362
#
#
#
# Elastic Compliance Matrix: (Units=1/GPa)
#
#
# Indices 1 2 3 4 5 6 
#
# 1 0.024458 -0.006761 -0.001151 0.000000 0.000000 0.000000
# 2 -0.006761 0.015527 -0.001533 0.000000 0.000000 0.000000
# 3 -0.001151 -0.001533 0.003567 0.000000 0.000000 0.000000
# 4 0.000000 0.000000 0.000000 0.036840 0.000000 0.000000
# 5 0.000000 0.000000 0.000000 0.000000 0.023443 0.000000
# 6 0.000000 0.000000 0.000000 0.000000 0.000000 0.032014
#
#
# Mechanical properties :
#
#
# Convention : Reuss Voigt Hill
#
# Bulk Modulus (GPa) = 40.54695 68.49450 54.52073
# Shear Modulus (GPa) = 30.68260 43.06419 36.87340
#
# Velocity S-wave (km/s) = 3.28124 3.88732 3.59707
# Velocity P-wave (km/s) = 5.34634 6.64704 6.03186
#
# Compressibility (1/GPa) = 0.02466276
#
# Stress axis : x y z
#
# Youngs Moduli (GPa) = 40.88725 64.40458 280.32695
#
# Poissons Ratio (x) = 0.43541 0.32274
# Poissons Ratio (y) = 0.27642 0.42961
# Poissons Ratio (z) = 0.04707 0.09870
#
# Static dielectric constant tensor:
#      x y z
#    x 2.457800 0.000000 0.000000 
#    y 0.000000 2.220770 0.000000 
#    z 0.000000 0.000000 2.326650 
# 
# From -- ./inp_files/8751.got.cif
#   From: 2010.05.17/outbox.cif.g08.bks.cpg/sg41_5_cif.got.tgz:8751.got - 2010.06.03 18:54:24.
