data_PCOD9366266
_publ_section_title
;
Structure prediction by ZEFSAII (Michael W. Deem and Ramdas Pophale) SiO2 
 PCOD9366266
Probable space group: A B A 2
;
_chemical_formula_sum "Si O2"
_cell_formula_units_Z 52
_cell_length_a 14.675052
_cell_length_b 10.912663
_cell_length_c 14.994251
_cell_angle_alpha 90.000000
_cell_angle_beta 90.000000
_cell_angle_gamma 90.000000
_cell_volume 2401.237787
_symmetry_space_group_name_H-M "A B A 2"
_symmetry_group_IT_number 41
_symmetry_cell_setting 'orthorhombic'
loop_
_space_group_symop_operation_xyz
x,y,z
-x,-y,z
1/2-x,y,1/2+z
1/2+x,-y,1/2+z
x,1/2+y,1/2+z
-x,1/2-y,1/2+z
1/2-x,1/2+y,z
1/2+x,1/2-y,z
loop_
_atom_site_type_symbol
_atom_site_label
_atom_site_fract_x
_atom_site_fract_y
_atom_site_fract_z
Si Si1 0.534036 0.225189 0.405790
Si Si2 0.643790 0.505073 0.568327
Si Si3 0.993970 0.212913 0.595937
Si Si4 0.834126 0.447890 0.867603
Si Si5 0.500000 0.000000 0.302147
Si Si6 0.412747 0.839125 0.758293
Si Si7 0.816875 0.888206 0.732927
O O1 0.501920 0.209260 0.506286
O O2 0.614748 0.320975 0.388827
O O3 0.483307 0.300741 0.179624
O O4 0.553422 0.096459 0.361506
O O5 0.598494 0.633122 0.599719
O O6 0.568666 0.394562 0.572991
O O7 0.672397 0.513020 0.464597
O O8 0.714906 0.455135 0.642187
O O9 0.950541 0.219524 0.349441
O O10 0.889952 0.525399 0.792625
O O11 0.739566 0.423450 0.819195
O O12 0.578594 0.934676 0.245972
O O13 0.324532 0.759213 0.728504
#
# Coordination Sequence:
#
# PCOD9366266 Si02
#       7
#     8   8   8   8   4   8   8
#     4  10  20  39  63  92 124 169 213 269 330 393
#     4   9  17  37  62  88 119 176 218 254 335 416
#     4   9  17  35  66  88 120 168 219 260 329 403
#     4  11  22  37  64  93 130 166 225 283 324 390
#     4  10  22  42  66  88 128 176 220 262 334 402
#     4  10  20  38  60  93 122 163 225 270 325 392
#     4  10  22  39  61  88 123 171 219 273 327 396
#
# _framework density 21.655498999999999
#
# number of rings (size 3 to 8) (size 9 to 14) (size 15 to 20)
#    0.000    2.154    1.538    3.231    2.154    0.000 
#    5.538    3.077    0.000    0.000    0.000    0.000 
#    0.000    0.000    0.000    0.000    0.000    0.000 
#
# Total GULP energy -144752.690116 kJ/mol
# GULP energy per Si atom -5567.411158 kJ/mol
# Density = 2.160621 g / cm^3
# Si number density = 21.655499 Si / 1000 Ang^3
#
#
#
# Elastic Constant Matrix: (Units=GPa)
#
#
# Indices 1 2 3 4 5 6 
#
# 1 34.5935 12.9749 30.0424 0.0000 0.0000 0.0000
# 2 12.9749 50.9244 33.1922 0.0000 0.0000 0.0000
# 3 30.0424 33.1922 166.8746 0.0000 0.0000 0.0000
# 4 0.0000 0.0000 0.0000 26.7675 0.0000 0.0000
# 5 0.0000 0.0000 0.0000 0.0000 25.7168 0.0000
# 6 0.0000 0.0000 0.0000 0.0000 0.0000 10.0038
#
#
#
# Elastic Compliance Matrix: (Units=1/GPa)
#
#
# Indices 1 2 3 4 5 6 
#
# 1 0.035613 -0.005624 -0.005293 0.000000 0.000000 0.000000
# 2 -0.005624 0.023450 -0.003652 0.000000 0.000000 0.000000
# 3 -0.005293 -0.003652 0.007672 0.000000 0.000000 0.000000
# 4 0.000000 0.000000 0.000000 0.037359 0.000000 0.000000
# 5 0.000000 0.000000 0.000000 0.000000 0.038885 0.000000
# 6 0.000000 0.000000 0.000000 0.000000 0.000000 0.099962
#
#
# Mechanical properties :
#
#
# Convention : Reuss Voigt Hill
#
# Bulk Modulus (GPa) = 26.59739 44.97908 35.78824
# Shear Modulus (GPa) = 17.56789 24.24315 20.90552
#
# Velocity S-wave (km/s) = 2.85132 3.34951 3.11041
# Velocity P-wave (km/s) = 4.81132 5.98116 5.42785
#
# Compressibility (1/GPa) = 0.03759767
#
# Stress axis : x y z
#
# Youngs Moduli (GPa) = 28.07967 42.64369 130.34822
#
# Poissons Ratio (x) = 0.23983 0.68990
# Poissons Ratio (y) = 0.15792 0.47602
# Poissons Ratio (z) = 0.14862 0.15573
#
# Static dielectric constant tensor:
#      x y z
#    x 1.854260 0.000000 0.000000 
#    y 0.000000 1.861080 0.000000 
#    z 0.000000 0.000000 1.841010 
# 
# From -- ./inp_files/10352.got.cif
#   From: 2010.05.17/outbox.cif.g08.bks.cpg/sg41_6_cif.got.tgz:10352.got - 2010.06.03 18:54:24.
