data_PCOD9366249
_publ_section_title
;
Structure prediction by ZEFSAII (Michael W. Deem and Ramdas Pophale) SiO2 
 PCOD9366249
Probable space group: A B A 2
;
_chemical_formula_sum "Si O2"
_cell_formula_units_Z 56
_cell_length_a 14.525465
_cell_length_b 13.043588
_cell_length_c 14.091062
_cell_angle_alpha 90.000000
_cell_angle_beta 90.000000
_cell_angle_gamma 90.000000
_cell_volume 2669.751521
_symmetry_space_group_name_H-M "A B A 2"
_symmetry_group_IT_number 41
_symmetry_cell_setting 'orthorhombic'
loop_
_space_group_symop_operation_xyz
x,y,z
-x,-y,z
1/2-x,y,1/2+z
1/2+x,-y,1/2+z
x,1/2+y,1/2+z
-x,1/2-y,1/2+z
1/2-x,1/2+y,z
1/2+x,1/2-y,z
loop_
_atom_site_type_symbol
_atom_site_label
_atom_site_fract_x
_atom_site_fract_y
_atom_site_fract_z
Si Si1 0.573013 0.409425 0.959760
Si Si2 0.756372 0.709866 0.284463
Si Si3 0.868922 0.360461 0.920926
Si Si4 0.752839 0.042426 0.917192
Si Si5 0.801250 0.703967 0.573185
Si Si6 0.458334 0.278471 0.337098
Si Si7 0.505452 0.120464 0.645955
O O1 0.500000 0.500000 0.967716
O O2 0.671979 0.456290 0.941957
O O3 0.537731 0.335603 0.877665
O O4 0.567623 0.357243 0.063098
O O5 0.815331 0.795777 0.338536
O O6 0.788255 0.598801 0.322026
O O7 0.751191 0.722673 0.171761
O O8 0.650779 0.706084 0.323680
O O9 0.840334 0.478087 0.909857
O O10 0.977681 0.342783 0.908557
O O11 0.832767 0.306266 0.017452
O O12 0.750847 0.129275 0.998535
O O13 0.894417 0.643164 0.601497
O O14 0.501267 0.305497 0.235410
O O15 0.500000 0.000000 0.675017
#
# Coordination Sequence:
#
# PCOD9366249 Si02
#       7
#     8   8   8   8   8   8   8
#     4  11  19  41  66  85 121 163 213 252 301 372
#     4  10  24  42  60  93 126 161 213 258 310 381
#     4  11  23  39  63  93 124 163 207 263 320 360
#     4  11  22  38  62  91 119 165 206 257 310 367
#     4  10  21  41  60  88 126 160 213 255 305 385
#     4  11  23  39  63  95 128 160 208 268 309 374
#     4  10  20  37  66  90 115 168 211 248 309 380
#
# _framework density 20.975736000000001
#
# number of rings (size 3 to 8) (size 9 to 14) (size 15 to 20)
#    0.000    1.429    5.714    0.857    4.000    2.286 
#    0.000    0.000    0.000    0.857    0.000    0.000 
#    0.000    0.000    0.000    0.000    0.000    0.000 
#
# Total GULP energy -156259.328823 kJ/mol
# GULP energy per Si atom -5580.690315 kJ/mol
# Density = 2.092799 g / cm^3
# Si number density = 20.975736 Si / 1000 Ang^3
#
#
#
# Elastic Constant Matrix: (Units=GPa)
#
#
# Indices 1 2 3 4 5 6 
#
# 1 60.9270 -3.7833 9.3920 0.0000 0.0000 0.0000
# 2 -3.7833 60.6888 37.9210 0.0000 0.0000 0.0000
# 3 9.3920 37.9210 137.2588 0.0000 0.0000 0.0000
# 4 0.0000 0.0000 0.0000 3.5382 0.0000 0.0000
# 5 0.0000 0.0000 0.0000 0.0000 28.0343 0.0000
# 6 0.0000 0.0000 0.0000 0.0000 0.0000 15.8949
#
#
#
# Elastic Compliance Matrix: (Units=1/GPa)
#
#
# Indices 1 2 3 4 5 6 
#
# 1 0.016814 0.002136 -0.001741 0.000000 0.000000 0.000000
# 2 0.002136 0.020187 -0.005723 0.000000 0.000000 0.000000
# 3 -0.001741 -0.005723 0.008986 0.000000 0.000000 0.000000
# 4 0.000000 0.000000 0.000000 0.282631 0.000000 0.000000
# 5 0.000000 0.000000 0.000000 0.000000 0.035671 0.000000
# 6 0.000000 0.000000 0.000000 0.000000 0.000000 0.062913
#
#
# Mechanical properties :
#
#
# Convention : Reuss Voigt Hill
#
# Bulk Modulus (GPa) = 28.30414 38.43710 33.37062
# Shear Modulus (GPa) = 11.12014 23.84981 17.48498
#
# Velocity S-wave (km/s) = 2.30498 3.37563 2.89031
# Velocity P-wave (km/s) = 4.53949 5.79288 5.20406
#
# Compressibility (1/GPa) = 0.03533052
#
# Stress axis : x y z
#
# Youngs Moduli (GPa) = 59.47420 49.53744 111.28697
#
# Poissons Ratio (x) = -0.10580 0.19370
# Poissons Ratio (y) = -0.12702 0.63692
# Poissons Ratio (z) = 0.10352 0.28351
#
# Static dielectric constant tensor:
#      x y z
#    x 1.808690 0.000000 0.000000 
#    y 0.000000 1.785840 0.000000 
#    z 0.000000 0.000000 1.782550 
# 
# From -- ./inp_files/8394.got.cif
#   From: 2010.05.17/outbox.cif.g08.bks.cpg/sg41_5_cif.got.tgz:8394.got - 2010.06.03 18:54:24.
