data_PCOD9366320
_publ_section_title
;
Structure prediction by ZEFSAII (Michael W. Deem and Ramdas Pophale) SiO2 
 PCOD9366320
Probable space group: A B A 2
;
_chemical_formula_sum "Si O2"
_cell_formula_units_Z 52
_cell_length_a 17.968115
_cell_length_b 21.207913
_cell_length_c 5.379640
_cell_angle_alpha 90.000000
_cell_angle_beta 90.000000
_cell_angle_gamma 90.000000
_cell_volume 2049.999078
_symmetry_space_group_name_H-M "A B A 2"
_symmetry_group_IT_number 41
_symmetry_cell_setting 'orthorhombic'
loop_
_space_group_symop_operation_xyz
x,y,z
-x,-y,z
1/2-x,y,1/2+z
1/2+x,-y,1/2+z
x,1/2+y,1/2+z
-x,1/2-y,1/2+z
1/2-x,1/2+y,z
1/2+x,1/2-y,z
loop_
_atom_site_type_symbol
_atom_site_label
_atom_site_fract_x
_atom_site_fract_y
_atom_site_fract_z
Si Si1 0.432721 0.689164 0.289980
Si Si2 0.159997 0.496354 0.190237
Si Si3 0.000000 0.500000 0.920739
Si Si4 0.213350 0.128255 0.518723
Si Si5 0.910864 0.568618 0.576912
Si Si6 0.265761 0.370575 0.220131
Si Si7 0.975666 0.173904 0.784816
O O1 0.360799 0.652642 0.384584
O O2 0.423713 0.765010 0.310077
O O3 0.491887 0.675049 0.509732
O O4 0.463615 0.677930 0.010173
O O5 0.205714 0.552711 0.065053
O O6 0.212747 0.433308 0.187484
O O7 0.078282 0.503463 0.060325
O O8 0.131128 0.493717 0.477038
O O9 0.984265 0.556405 0.730568
O O10 0.226172 0.147882 0.807695
O O11 0.850444 0.606986 0.729939
O O12 0.932304 0.609946 0.339591
O O13 0.255451 0.334419 0.965111
#
# Coordination Sequence:
#
# PCOD9366320 Si02
#       7
#     8   8   4   8   8   8   8
#     4  10  23  46  69  98 132 175 231 285 345 396
#     4  11  25  40  59  96 134 175 212 272 338 402
#     4  12  24  38  64  96 132 168 232 272 314 420
#     4  12  26  43  70  96 135 182 225 279 335 412
#     4  11  24  38  63  97 130 175 217 269 330 413
#     4  10  20  39  55  78 127 164 198 238 320 383
#     4  10  23  43  71  98 135 173 221 291 345 391
#
# _framework density 25.365866
#
# number of rings (size 3 to 8) (size 9 to 14) (size 15 to 20)
#    0.000    1.231    1.538    4.154    8.615    0.000 
#    0.000    3.077    0.000    0.000    0.000    0.000 
#    0.000    0.000    0.000    0.000    0.000    0.000 
#
# Total GULP energy -145092.441712 kJ/mol
# GULP energy per Si atom -5580.478527 kJ/mol
# Density = 2.530813 g / cm^3
# Si number density = 25.365866 Si / 1000 Ang^3
#
#
#
# Elastic Constant Matrix: (Units=GPa)
#
#
# Indices 1 2 3 4 5 6 
#
# 1 77.8738 10.4920 4.6090 0.0000 0.0000 0.0000
# 2 10.4920 43.8713 20.5970 0.0000 0.0000 0.0000
# 3 4.6090 20.5970 130.6927 0.0000 0.0000 0.0000
# 4 0.0000 0.0000 0.0000 27.9022 0.0000 0.0000
# 5 0.0000 0.0000 0.0000 0.0000 41.5113 0.0000
# 6 0.0000 0.0000 0.0000 0.0000 0.0000 24.7598
#
#
#
# Elastic Compliance Matrix: (Units=1/GPa)
#
#
# Indices 1 2 3 4 5 6 
#
# 1 0.013269 -0.003190 0.000035 0.000000 0.000000 0.000000
# 2 -0.003190 0.025382 -0.003888 0.000000 0.000000 0.000000
# 3 0.000035 -0.003888 0.008263 0.000000 0.000000 0.000000
# 4 0.000000 0.000000 0.000000 0.035839 0.000000 0.000000
# 5 0.000000 0.000000 0.000000 0.000000 0.024090 0.000000
# 6 0.000000 0.000000 0.000000 0.000000 0.000000 0.040388
#
#
# Mechanical properties :
#
#
# Convention : Reuss Voigt Hill
#
# Bulk Modulus (GPa) = 30.46107 35.98153 33.22130
# Shear Modulus (GPa) = 29.02602 33.28399 31.15500
#
# Velocity S-wave (km/s) = 3.38641 3.62630 3.50841
# Velocity P-wave (km/s) = 5.22735 5.63464 5.43481
#
# Compressibility (1/GPa) = 0.03282878
#
# Stress axis : x y z
#
# Youngs Moduli (GPa) = 75.36378 39.39807 121.02131
#
# Poissons Ratio (x) = 0.12567 -0.00420
# Poissons Ratio (y) = 0.24038 0.47049
# Poissons Ratio (z) = -0.00262 0.15317
#
# Static dielectric constant tensor:
#      x y z
#    x 1.995940 0.000000 0.000000 
#    y 0.000000 2.077690 0.000000 
#    z 0.000000 0.000000 2.123170 
# 
# From -- ./inp_files/532.got.cif
#   From: 2010.05.17/outbox.cif.g08.bks.cpg/sg41_1_cif.got.tgz:532.got - 2010.06.03 18:54:24.
