data_PCOD9366947
_publ_section_title
;
Structure prediction by ZEFSAII (Michael W. Deem and Ramdas Pophale) SiO2 
 PCOD9366947
Probable space group: A B A 2
;
_chemical_formula_sum "Si O2"
_cell_formula_units_Z 48
_cell_length_a 17.054854
_cell_length_b 9.870237
_cell_length_c 12.499934
_cell_angle_alpha 90.000000
_cell_angle_beta 90.000000
_cell_angle_gamma 90.000000
_cell_volume 2104.182027
_symmetry_space_group_name_H-M "A B A 2"
_symmetry_group_IT_number 41
_symmetry_cell_setting 'orthorhombic'
loop_
_space_group_symop_operation_xyz
x,y,z
-x,-y,z
1/2-x,y,1/2+z
1/2+x,-y,1/2+z
x,1/2+y,1/2+z
-x,1/2-y,1/2+z
1/2-x,1/2+y,z
1/2+x,1/2-y,z
loop_
_atom_site_type_symbol
_atom_site_label
_atom_site_fract_x
_atom_site_fract_y
_atom_site_fract_z
Si Si1 0.582808 0.357197 0.522700
Si Si2 0.000000 0.000000 0.717813
Si Si3 0.500000 0.500000 0.186085
Si Si4 0.725770 0.994977 0.927777
Si Si5 0.163014 0.908983 0.098650
Si Si6 0.302080 0.742019 0.810539
Si Si7 0.984559 0.751871 0.842117
O O1 0.559115 0.425209 0.635070
O O2 0.636423 0.458067 0.454838
O O3 0.633262 0.221853 0.534251
O O4 0.507896 0.306504 0.456834
O O5 0.969331 0.117042 0.797393
O O6 0.417660 0.488602 0.124604
O O7 0.498691 0.632611 0.258965
O O8 0.755554 0.896086 0.833334
O O9 0.729146 0.150098 0.894897
O O10 0.778918 0.992245 0.034629
O O11 0.199749 0.830685 0.201466
O O12 0.393084 0.713047 0.835762
#
# Coordination Sequence:
#
# PCOD9366947 Si02
#       7
#     8   4   4   8   8   8   8
#     4  12  25  46  71 111 139 184 247 292 366 430
#     4  12  25  47  80 106 144 188 247 307 362 436
#     4  10  21  49  68  98 146 182 233 307 356 426
#     4  12  27  45  73 102 149 194 230 306 362 446
#     4  11  26  44  70 106 140 188 243 290 367 434
#     4  11  26  48  69 106 145 188 243 293 371 433
#     4  11  26  46  75 106 142 191 244 307 355 431
#
# _framework density 22.811713999999998
#
# number of rings (size 3 to 8) (size 9 to 14) (size 15 to 20)
#    0.000    0.667    5.000    3.500    7.000    2.667 
#    0.000    0.000    0.000    0.000    0.000    0.000 
#    0.000    0.000    0.000    0.000    0.000    0.000 
#
# Total GULP energy -134083.273921 kJ/mol
# GULP energy per Si atom -5586.803080 kJ/mol
# Density = 2.275979 g / cm^3
# Si number density = 22.811714 Si / 1000 Ang^3
#
#
#
# Elastic Constant Matrix: (Units=GPa)
#
#
# Indices 1 2 3 4 5 6 
#
# 1 43.7296 25.6684 39.9268 0.0000 0.0000 0.0000
# 2 25.6684 96.5564 5.7314 0.0000 0.0000 0.0000
# 3 39.9268 5.7314 64.6153 0.0000 0.0000 0.0000
# 4 0.0000 0.0000 0.0000 90.5087 0.0000 0.0000
# 5 0.0000 0.0000 0.0000 0.0000 38.6989 0.0000
# 6 0.0000 0.0000 0.0000 0.0000 0.0000 28.8959
#
#
#
# Elastic Compliance Matrix: (Units=1/GPa)
#
#
# Indices 1 2 3 4 5 6 
#
# 1 0.071629 -0.016501 -0.042797 0.000000 0.000000 0.000000
# 2 -0.016501 0.014213 0.008936 0.000000 0.000000 0.000000
# 3 -0.042797 0.008936 0.041129 0.000000 0.000000 0.000000
# 4 0.000000 0.000000 0.000000 0.011049 0.000000 0.000000
# 5 0.000000 0.000000 0.000000 0.000000 0.025840 0.000000
# 6 0.000000 0.000000 0.000000 0.000000 0.000000 0.034607
#
#
# Mechanical properties :
#
#
# Convention : Reuss Voigt Hill
#
# Bulk Modulus (GPa) = 38.10211 38.61715 38.35963
# Shear Modulus (GPa) = 16.23685 40.52569 28.38127
#
# Velocity S-wave (km/s) = 2.67081 4.21946 3.53108
# Velocity P-wave (km/s) = 5.12348 6.37996 5.78593
#
# Compressibility (1/GPa) = 0.02624527
#
# Stress axis : x y z
#
# Youngs Moduli (GPa) = 13.96074 70.35833 24.31392
#
# Poissons Ratio (x) = 1.16102 1.04057
# Poissons Ratio (y) = 0.23037 -0.21727
# Poissons Ratio (z) = 0.59748 -0.62871
#
# Static dielectric constant tensor:
#      x y z
#    x 1.889670 0.000000 0.000000 
#    y 0.000000 1.665900 0.000000 
#    z 0.000000 0.000000 1.905630 
# 
# From -- ./inp_files/8722.got.cif
#   From: 2010.05.17/outbox.cif.g08.bks.cpg/sg41_5_cif.got.tgz:8722.got - 2010.06.03 18:54:24.
