data_PCOD9366491
_publ_section_title
;
Structure prediction by ZEFSAII (Michael W. Deem and Ramdas Pophale) SiO2 
 PCOD9366491
Probable space group: A B A 2
;
_chemical_formula_sum "Si O2"
_cell_formula_units_Z 44
_cell_length_a 11.016849
_cell_length_b 15.275071
_cell_length_c 11.566122
_cell_angle_alpha 90.000000
_cell_angle_beta 90.000000
_cell_angle_gamma 90.000000
_cell_volume 1946.383451
_symmetry_space_group_name_H-M "A B A 2"
_symmetry_group_IT_number 41
_symmetry_cell_setting 'orthorhombic'
loop_
_space_group_symop_operation_xyz
x,y,z
-x,-y,z
1/2-x,y,1/2+z
1/2+x,-y,1/2+z
x,1/2+y,1/2+z
-x,1/2-y,1/2+z
1/2-x,1/2+y,z
1/2+x,1/2-y,z
loop_
_atom_site_type_symbol
_atom_site_label
_atom_site_fract_x
_atom_site_fract_y
_atom_site_fract_z
Si Si1 0.748586 0.548104 0.307980
Si Si2 0.905064 0.687106 0.708784
Si Si3 0.000000 0.000000 0.430750
Si Si4 0.848966 0.873457 0.788790
Si Si5 0.401055 0.170625 0.915804
Si Si6 0.932857 0.632208 0.469715
O O1 0.721056 0.637035 0.238751
O O2 0.616783 0.517839 0.350780
O O3 0.816712 0.470078 0.241114
O O4 0.825982 0.571749 0.421895
O O5 0.875752 0.791301 0.705479
O O6 0.961373 0.628887 0.604876
O O7 0.001725 0.680862 0.812175
O O8 0.040443 0.090903 0.490354
O O9 0.730279 0.850428 0.864603
O O10 0.958540 0.881298 0.880240
O O11 0.391805 0.266660 0.967341
#
# Coordination Sequence:
#
# PCOD9366491 Si02
#       6
#     8   8   4   8   8   8
#     4  10  20  43  63  96 134 168 218 279 327 397
#     4  10  22  41  65  95 129 175 219 267 342 402
#     4   8  18  38  64  82 128 176 200 256 334 384
#     4  10  21  42  63  90 134 168 214 285 330 384
#     4   9  19  40  62  88 131 168 212 271 327 388
#     4  11  22  39  68  95 128 174 221 271 332 400
#
# _framework density 22.606030000000001
#
# number of rings (size 3 to 8) (size 9 to 14) (size 15 to 20)
#    0.000    2.182    1.818    0.545    0.000    1.455 
#   26.182    0.000    0.000    0.000    0.000    0.000 
#    0.000    0.000    0.000    0.000    0.000    0.000 
#
# Total GULP energy -122536.622318 kJ/mol
# GULP energy per Si atom -5569.846469 kJ/mol
# Density = 2.255458 g / cm^3
# Si number density = 22.606030 Si / 1000 Ang^3
#
#
#
# Elastic Constant Matrix: (Units=GPa)
#
#
# Indices 1 2 3 4 5 6 
#
# 1 87.4126 40.6453 12.8148 0.0000 0.0000 0.0000
# 2 40.6453 125.0364 21.1083 0.0000 0.0000 0.0000
# 3 12.8148 21.1083 36.8180 0.0000 0.0000 0.0000
# 4 0.0000 0.0000 0.0000 10.3350 0.0000 0.0000
# 5 0.0000 0.0000 0.0000 0.0000 -0.4672 0.0000
# 6 0.0000 0.0000 0.0000 0.0000 0.0000 34.3051
#
#
#
# Elastic Compliance Matrix: (Units=1/GPa)
#
#
# Indices 1 2 3 4 5 6 
#
# 1 0.013673 -0.004032 -0.002448 0.000000 0.000000 0.000000
# 2 -0.004032 0.010043 -0.004355 0.000000 0.000000 0.000000
# 3 -0.002448 -0.004355 0.030509 0.000000 0.000000 0.000000
# 4 0.000000 0.000000 0.000000 0.096759 0.000000 0.000000
# 5 0.000000 0.000000 0.000000 0.000000 -2.140182 0.000000
# 6 0.000000 0.000000 0.000000 0.000000 0.000000 0.029150
#
#
# Mechanical properties :
#
#
# Convention : Reuss Voigt Hill
#
# Bulk Modulus (GPa) = 30.71460 44.26709 37.49084
# Shear Modulus (GPa) = -2.59400 20.48112 8.94356
#
# Velocity S-wave (km/s) = -1.07237 3.01325 1.99120
# Velocity P-wave (km/s) = 3.47608 5.63301 4.68048
#
# Compressibility (1/GPa) = 0.03255781
#
# Stress axis : x y z
#
# Youngs Moduli (GPa) = 73.13436 99.56811 32.77689
#
# Poissons Ratio (x) = 0.40142 0.08023
# Poissons Ratio (y) = 0.29485 0.14274
# Poissons Ratio (z) = 0.17902 0.43360
#
# Static dielectric constant tensor:
#      x y z
#    x 1.783980 0.000000 0.000000 
#    y 0.000000 2.019130 0.000000 
#    z 0.000000 0.000000 1.889430 
# 
# From -- ./inp_files/4933.got.cif
#   From: 2010.05.17/outbox.cif.g08.bks.cpg/sg41_3_cif.got.tgz:4933.got - 2010.06.03 18:54:24.
