data_PCOD9366705
_publ_section_title
;
Structure prediction by ZEFSAII (Michael W. Deem and Ramdas Pophale) SiO2 
 PCOD9366705
Probable space group: A B A 2
;
_chemical_formula_sum "Si O2"
_cell_formula_units_Z 64
_cell_length_a 22.713729
_cell_length_b 8.573361
_cell_length_c 14.817627
_cell_angle_alpha 90.000000
_cell_angle_beta 90.000000
_cell_angle_gamma 90.000000
_cell_volume 2885.480934
_symmetry_space_group_name_H-M "A B A 2"
_symmetry_group_IT_number 41
_symmetry_cell_setting 'orthorhombic'
loop_
_space_group_symop_operation_xyz
x,y,z
-x,-y,z
1/2-x,y,1/2+z
1/2+x,-y,1/2+z
x,1/2+y,1/2+z
-x,1/2-y,1/2+z
1/2-x,1/2+y,z
1/2+x,1/2-y,z
loop_
_atom_site_type_symbol
_atom_site_label
_atom_site_fract_x
_atom_site_fract_y
_atom_site_fract_z
Si Si1 0.817951 0.044697 0.320460
Si Si2 0.833820 0.988374 0.530425
Si Si3 0.872193 0.977746 0.145992
Si Si4 0.689704 0.403756 0.842022
Si Si5 0.930771 0.307302 0.121795
Si Si6 0.778263 0.817638 0.046272
Si Si7 0.465618 0.167093 0.521103
Si Si8 0.940328 0.400441 0.325093
O O1 0.838125 0.011034 0.422760
O O2 0.865873 0.971603 0.253325
O O3 0.750086 0.985737 0.311112
O O4 0.815847 0.229999 0.301352
O O5 0.892403 0.949691 0.584332
O O6 0.790967 0.841192 0.545606
O O7 0.800995 0.144324 0.562938
O O8 0.806908 0.936321 0.115418
O O9 0.913717 0.856481 0.093438
O O10 0.894685 0.145692 0.114390
O O11 0.625183 0.480017 0.827094
O O12 0.699309 0.374605 0.948348
O O13 0.944252 0.320046 0.227834
O O14 0.988367 0.288924 0.060610
O O15 0.442421 0.196194 0.419563
O O16 0.500000 0.000000 0.519102
O O17 0.000000 0.500000 0.328987
#
# Coordination Sequence:
#
# PCOD9366705 Si02
#       8
#     8   8   8   8   8   8   8   8
#     4  10  23  41  69 100 134 172 217 282 337 399
#     4  10  23  42  62 100 133 174 217 279 336 397
#     4  11  21  40  68  96 130 177 216 267 336 397
#     4  10  21  45  66  99 136 172 222 275 338 401
#     4  11  24  43  68  97 134 168 234 279 328 395
#     4  10  21  39  67  94 138 174 217 272 342 401
#     4   9  22  43  66  92 130 181 220 268 332 401
#     4  11  23  45  67  95 133 181 222 277 334 405
#
# _framework density 22.180011
#
# number of rings (size 3 to 8) (size 9 to 14) (size 15 to 20)
#    0.000    1.750    2.500    0.750    1.750    4.000 
#    2.250    0.000    0.000    0.000    0.000    0.000 
#    0.000    0.000    0.000    0.000    0.000    0.000 
#
# Total GULP energy -178617.309978 kJ/mol
# GULP energy per Si atom -5581.790937 kJ/mol
# Density = 2.212953 g / cm^3
# Si number density = 22.180011 Si / 1000 Ang^3
#
#
#
# Elastic Constant Matrix: (Units=GPa)
#
#
# Indices 1 2 3 4 5 6 
#
# 1 114.5715 41.9329 58.9912 0.0000 0.0000 0.0000
# 2 41.9329 64.0684 31.2899 0.0000 0.0000 0.0000
# 3 58.9912 31.2899 98.3505 0.0000 0.0000 0.0000
# 4 0.0000 0.0000 0.0000 13.6252 0.0000 0.0000
# 5 0.0000 0.0000 0.0000 0.0000 36.7715 0.0000
# 6 0.0000 0.0000 0.0000 0.0000 0.0000 36.3768
#
#
#
# Elastic Compliance Matrix: (Units=1/GPa)
#
#
# Indices 1 2 3 4 5 6 
#
# 1 0.014436 -0.006180 -0.006693 0.000000 0.000000 0.000000
# 2 -0.006180 0.021125 -0.003014 0.000000 0.000000 0.000000
# 3 -0.006693 -0.003014 0.015141 0.000000 0.000000 0.000000
# 4 0.000000 0.000000 0.000000 0.073393 0.000000 0.000000
# 5 0.000000 0.000000 0.000000 0.000000 0.027195 0.000000
# 6 0.000000 0.000000 0.000000 0.000000 0.000000 0.027490
#
#
# Mechanical properties :
#
#
# Convention : Reuss Voigt Hill
#
# Bulk Modulus (GPa) = 52.82989 60.15760 56.49374
# Shear Modulus (GPa) = 23.05601 27.00645 25.03123
#
# Velocity S-wave (km/s) = 3.22762 3.49320 3.36303
# Velocity P-wave (km/s) = 6.14495 6.59176 6.37227
#
# Compressibility (1/GPa) = 0.01892868
#
# Stress axis : x y z
#
# Youngs Moduli (GPa) = 69.27165 47.33706 66.04585
#
# Poissons Ratio (x) = 0.29253 0.44202
# Poissons Ratio (y) = 0.42808 0.19908
# Poissons Ratio (z) = 0.46361 0.14268
#
# Static dielectric constant tensor:
#      x y z
#    x 1.850850 0.000000 0.000000 
#    y 0.000000 1.824410 0.000000 
#    z 0.000000 0.000000 1.827430 
# 
# From -- ./inp_files/9157.got.cif
#   From: 2010.05.17/outbox.cif.g08.bks.cpg/sg41_5_cif.got.tgz:9157.got - 2010.06.03 18:54:24.
