data_PCOD9366517
_publ_section_title
;
Structure prediction by ZEFSAII (Michael W. Deem and Ramdas Pophale) SiO2 
 PCOD9366517
Probable space group: A B A 2
;
_chemical_formula_sum "Si O2"
_cell_formula_units_Z 56
_cell_length_a 15.756355
_cell_length_b 5.568712
_cell_length_c 28.841737
_cell_angle_alpha 90.000000
_cell_angle_beta 90.000000
_cell_angle_gamma 90.000000
_cell_volume 2530.649084
_symmetry_space_group_name_H-M "A B A 2"
_symmetry_group_IT_number 41
_symmetry_cell_setting 'orthorhombic'
loop_
_space_group_symop_operation_xyz
x,y,z
-x,-y,z
1/2-x,y,1/2+z
1/2+x,-y,1/2+z
x,1/2+y,1/2+z
-x,1/2-y,1/2+z
1/2-x,1/2+y,z
1/2+x,1/2-y,z
loop_
_atom_site_type_symbol
_atom_site_label
_atom_site_fract_x
_atom_site_fract_y
_atom_site_fract_z
Si Si1 0.793369 0.384686 0.108320
Si Si2 0.328414 0.664660 0.499755
Si Si3 0.701476 0.475745 0.245529
Si Si4 0.500000 0.000000 0.243746
Si Si5 0.076425 0.361758 0.671452
Si Si6 0.000000 0.000000 0.893886
Si Si7 0.423581 0.182686 0.814490
Si Si8 0.637246 0.833511 0.466456
O O1 0.767142 0.656371 0.120357
O O2 0.801215 0.370527 0.052789
O O3 0.876877 0.309561 0.135685
O O4 0.381638 0.429865 0.486401
O O5 0.242124 0.674355 0.467699
O O6 0.376057 0.917904 0.494558
O O7 0.740651 0.740830 0.241168
O O8 0.637917 0.466392 0.201315
O O9 0.659307 0.455665 0.297002
O O10 0.464711 0.204859 0.211741
O O11 0.571618 0.100191 0.277750
O O12 0.000000 0.500000 0.647155
O O13 0.052517 0.806440 0.862895
O O14 0.925178 0.870381 0.922925
O O15 0.500000 0.000000 0.804988
#
# Coordination Sequence:
#
# PCOD9366517 Si02
#       8
#     8   8   8   4   8   4   8   8
#     4  12  24  45  72 108 143 192 247 295 359 428
#     4  10  20  46  74  95 142 190 222 293 375 425
#     4  12  25  45  70 103 136 196 250 291 364 428
#     4  11  20  46  70  90 142 202 240 284 374 421
#     4  12  26  42  70 104 149 198 246 304 354 428
#     4  11  28  42  74 110 140 184 250 306 368 441
#     4  11  24  47  72  95 148 193 236 306 369 433
#     4  10  21  44  71 100 134 182 234 283 372 433
#
# _framework density 22.128708
#
# number of rings (size 3 to 8) (size 9 to 14) (size 15 to 20)
#    0.000    0.857    5.714    1.714    6.000    0.000 
#    6.429    0.000    0.000    0.000    0.000    0.000 
#    0.000    0.000    0.000    0.000    0.000    0.000 
#
# Total GULP energy -156092.039380 kJ/mol
# GULP energy per Si atom -5574.715692 kJ/mol
# Density = 2.207834 g / cm^3
# Si number density = 22.128708 Si / 1000 Ang^3
#
#
#
# Elastic Constant Matrix: (Units=GPa)
#
#
# Indices 1 2 3 4 5 6 
#
# 1 63.1770 21.0844 41.5047 0.0000 0.0000 0.0000
# 2 21.0844 120.1892 14.0138 0.0000 0.0000 0.0000
# 3 41.5047 14.0138 76.9344 0.0000 0.0000 0.0000
# 4 0.0000 0.0000 0.0000 14.0681 0.0000 0.0000
# 5 0.0000 0.0000 0.0000 0.0000 13.5010 0.0000
# 6 0.0000 0.0000 0.0000 0.0000 0.0000 24.7748
#
#
#
# Elastic Compliance Matrix: (Units=1/GPa)
#
#
# Indices 1 2 3 4 5 6 
#
# 1 0.025490 -0.002930 -0.013218 0.000000 0.000000 0.000000
# 2 -0.002930 0.008838 -0.000029 0.000000 0.000000 0.000000
# 3 -0.013218 -0.000029 0.020134 0.000000 0.000000 0.000000
# 4 0.000000 0.000000 0.000000 0.071083 0.000000 0.000000
# 5 0.000000 0.000000 0.000000 0.000000 0.074069 0.000000
# 6 0.000000 0.000000 0.000000 0.000000 0.000000 0.040364
#
#
# Mechanical properties :
#
#
# Convention : Reuss Voigt Hill
#
# Bulk Modulus (GPa) = 45.23295 45.94514 45.58905
# Shear Modulus (GPa) = 17.87629 22.71528 20.29578
#
# Velocity S-wave (km/s) = 2.84532 3.20739 3.03177
# Velocity P-wave (km/s) = 5.59283 5.87573 5.73602
#
# Compressibility (1/GPa) = 0.02210778
#
# Stress axis : x y z
#
# Youngs Moduli (GPa) = 39.23114 113.15208 49.66724
#
# Poissons Ratio (x) = 0.33159 0.65648
# Poissons Ratio (y) = 0.11497 0.00143
# Poissons Ratio (z) = 0.51854 0.00327
#
# Static dielectric constant tensor:
#      x y z
#    x 1.920770 0.000000 0.000000 
#    y 0.000000 1.856130 0.000000 
#    z 0.000000 0.000000 1.802310 
# 
# From -- ./inp_files/12748.got.cif
#   From: 2010.05.17/outbox.cif.g08.bks.cpg/sg41_7_cif.got.tgz:12748.got - 2010.06.03 18:54:24.
