data_PCOD9366696
_publ_section_title
;
Structure prediction by ZEFSAII (Michael W. Deem and Ramdas Pophale) SiO2 
 PCOD9366696
Probable space group: A B A 2
;
_chemical_formula_sum "Si O2"
_cell_formula_units_Z 40
_cell_length_a 18.514936
_cell_length_b 11.558384
_cell_length_c 8.204446
_cell_angle_alpha 90.000000
_cell_angle_beta 90.000000
_cell_angle_gamma 90.000000
_cell_volume 1755.773924
_symmetry_space_group_name_H-M "A B A 2"
_symmetry_group_IT_number 41
_symmetry_cell_setting 'orthorhombic'
loop_
_space_group_symop_operation_xyz
x,y,z
-x,-y,z
1/2-x,y,1/2+z
1/2+x,-y,1/2+z
x,1/2+y,1/2+z
-x,1/2-y,1/2+z
1/2-x,1/2+y,z
1/2+x,1/2-y,z
loop_
_atom_site_type_symbol
_atom_site_label
_atom_site_fract_x
_atom_site_fract_y
_atom_site_fract_z
Si Si1 0.659839 0.653513 0.722830
Si Si2 0.847170 0.460374 0.965729
Si Si3 0.098256 0.322773 0.773136
Si Si4 0.043491 0.250155 0.440612
Si Si5 0.228028 0.224655 0.917715
O O1 0.660476 0.531695 0.632853
O O2 0.581215 0.685980 0.788621
O O3 0.714145 0.674268 0.873550
O O4 0.688861 0.744097 0.586811
O O5 0.868824 0.555843 0.830867
O O6 0.911780 0.367934 0.967833
O O7 0.774194 0.391197 0.925648
O O8 0.059076 0.325354 0.600506
O O9 0.165645 0.234360 0.781754
O O10 0.038314 0.279875 0.900905
#
# Coordination Sequence:
#
# PCOD9366696 Si02
#       5
#     8   8   8   8   8
#     4  10  22  41  67  98 131 171 220 269 326 390
#     4  10  23  44  68  95 133 177 218 269 335 394
#     4  11  23  43  70  98 135 175 221 275 331 393
#     4  11  24  45  69  99 135 173 221 279 331 393
#     4  10  21  39  64  98 134 172 217 270 322 392
#
# _framework density 22.781976
#
# number of rings (size 3 to 8) (size 9 to 14) (size 15 to 20)
#    0.000    1.600    0.000    5.400    0.000    9.600 
#    0.000   20.000    0.000    0.000    0.000    0.000 
#    0.000    0.000    0.000    0.000    0.000    0.000 
#
# Total GULP energy -111907.376472 kJ/mol
# GULP energy per Si atom -5595.368824 kJ/mol
# Density = 2.273012 g / cm^3
# Si number density = 22.781976 Si / 1000 Ang^3
#
#
#
# Elastic Constant Matrix: (Units=GPa)
#
#
# Indices 1 2 3 4 5 6 
#
# 1 119.0718 36.6646 1.1187 0.0000 0.0000 0.0000
# 2 36.6646 114.5259 22.9720 0.0000 0.0000 0.0000
# 3 1.1187 22.9720 76.9846 0.0000 0.0000 0.0000
# 4 0.0000 0.0000 0.0000 38.7720 0.0000 0.0000
# 5 0.0000 0.0000 0.0000 0.0000 47.4865 0.0000
# 6 0.0000 0.0000 0.0000 0.0000 0.0000 21.6848
#
#
#
# Elastic Compliance Matrix: (Units=1/GPa)
#
#
# Indices 1 2 3 4 5 6 
#
# 1 0.009364 -0.003159 0.000807 0.000000 0.000000 0.000000
# 2 -0.003159 0.010354 -0.003044 0.000000 0.000000 0.000000
# 3 0.000807 -0.003044 0.013886 0.000000 0.000000 0.000000
# 4 0.000000 0.000000 0.000000 0.025792 0.000000 0.000000
# 5 0.000000 0.000000 0.000000 0.000000 0.021059 0.000000
# 6 0.000000 0.000000 0.000000 0.000000 0.000000 0.046115
#
#
# Mechanical properties :
#
#
# Convention : Reuss Voigt Hill
#
# Bulk Modulus (GPa) = 43.83932 48.01034 45.92483
# Shear Modulus (GPa) = 34.49102 38.24380 36.36741
#
# Velocity S-wave (km/s) = 3.89519 4.10162 3.99974
# Velocity P-wave (km/s) = 6.28607 6.59929 6.44459
#
# Compressibility (1/GPa) = 0.02281057
#
# Stress axis : x y z
#
# Youngs Moduli (GPa) = 106.79670 96.58448 72.01457
#
# Poissons Ratio (x) = 0.30516 -0.05810
# Poissons Ratio (y) = 0.33742 0.21918
# Poissons Ratio (z) = -0.08616 0.29396
#
# Static dielectric constant tensor:
#      x y z
#    x 1.839440 0.000000 0.000000 
#    y 0.000000 1.831050 0.000000 
#    z 0.000000 0.000000 1.913810 
# 
# From -- ./inp_files/2896.got.cif
#   From: 2010.05.17/outbox.cif.g08.bks.cpg/sg41_2_cif.got.tgz:2896.got - 2010.06.03 18:54:24.
