data_PCOD9366548
_publ_section_title
;
Structure prediction by ZEFSAII (Michael W. Deem and Ramdas Pophale) SiO2 
 PCOD9366548
Probable space group: A B A 2
;
_chemical_formula_sum "Si O2"
_cell_formula_units_Z 60
_cell_length_a 25.288166
_cell_length_b 23.240481
_cell_length_c 5.103612
_cell_angle_alpha 90.000000
_cell_angle_beta 90.000000
_cell_angle_gamma 90.000000
_cell_volume 2999.439427
_symmetry_space_group_name_H-M "A B A 2"
_symmetry_group_IT_number 41
_symmetry_cell_setting 'orthorhombic'
loop_
_space_group_symop_operation_xyz
x,y,z
-x,-y,z
1/2-x,y,1/2+z
1/2+x,-y,1/2+z
x,1/2+y,1/2+z
-x,1/2-y,1/2+z
1/2-x,1/2+y,z
1/2+x,1/2-y,z
loop_
_atom_site_type_symbol
_atom_site_label
_atom_site_fract_x
_atom_site_fract_y
_atom_site_fract_z
Si Si1 0.604795 0.012599 0.390480
Si Si2 0.889932 0.825222 0.545506
Si Si3 0.279462 0.646754 0.638544
Si Si4 0.000000 0.500000 0.048871
Si Si5 0.531767 0.732113 0.253408
Si Si6 0.077208 0.604687 0.538819
Si Si7 0.215970 0.008416 0.630586
Si Si8 0.964445 0.600704 0.666015
O O1 0.554001 0.996670 0.212246
O O2 0.659221 0.015043 0.229868
O O3 0.586306 0.070430 0.537580
O O4 0.603465 0.957863 0.587527
O O5 0.827792 0.818253 0.518427
O O6 0.920040 0.768459 0.635704
O O7 0.914247 0.854943 0.289710
O O8 0.895100 0.869197 0.786835
O O9 0.231137 0.658869 0.441888
O O10 0.289154 0.577945 0.620021
O O11 0.010658 0.444198 0.871544
O O12 0.513674 0.756034 0.535033
O O13 0.544424 0.664525 0.271493
O O14 0.014615 0.604942 0.471518
O O15 0.239448 0.992301 0.347308
#
# Coordination Sequence:
#
# PCOD9366548 Si02
#       8
#     8   8   8   4   8   8   8   8
#     4  12  25  39  64  97 136 171 208 270 318 396
#     4  12  23  40  64  88 130 167 199 260 316 367
#     4  10  21  36  60  90 119 157 210 263 313 367
#     4  12  24  40  64  96 136 166 210 268 322 394
#     4  12  26  42  62  90 130 168 209 254 303 385
#     4  12  22  38  63  93 129 168 200 246 324 380
#     4  10  24  39  60  90 126 168 213 262 318 374
#     4  12  25  38  62  95 132 172 210 249 323 385
#
# _framework density 20.003736
#
# number of rings (size 3 to 8) (size 9 to 14) (size 15 to 20)
#    0.000    0.533    6.667    1.600    7.467    0.000 
#    0.000    0.000    0.000    1.600    0.000    0.000 
#    0.000    0.000    0.000    0.000    0.000    0.000 
#
# Total GULP energy -167579.255681 kJ/mol
# GULP energy per Si atom -5585.975189 kJ/mol
# Density = 1.995821 g / cm^3
# Si number density = 20.003736 Si / 1000 Ang^3
#
#
#
# Elastic Constant Matrix: (Units=GPa)
#
#
# Indices 1 2 3 4 5 6 
#
# 1 87.8452 19.6861 9.5673 0.0000 0.0000 0.0000
# 2 19.6861 110.4914 18.4712 0.0000 0.0000 0.0000
# 3 9.5673 18.4712 71.2341 0.0000 0.0000 0.0000
# 4 0.0000 0.0000 0.0000 9.5218 0.0000 0.0000
# 5 0.0000 0.0000 0.0000 0.0000 23.8267 0.0000
# 6 0.0000 0.0000 0.0000 0.0000 0.0000 24.0896
#
#
#
# Elastic Compliance Matrix: (Units=1/GPa)
#
#
# Indices 1 2 3 4 5 6 
#
# 1 0.011939 -0.001943 -0.001100 0.000000 0.000000 0.000000
# 2 -0.001943 0.009777 -0.002274 0.000000 0.000000 0.000000
# 3 -0.001100 -0.002274 0.014776 0.000000 0.000000 0.000000
# 4 0.000000 0.000000 0.000000 0.105022 0.000000 0.000000
# 5 0.000000 0.000000 0.000000 0.000000 0.041970 0.000000
# 6 0.000000 0.000000 0.000000 0.000000 0.000000 0.041512
#
#
# Mechanical properties :
#
#
# Convention : Reuss Voigt Hill
#
# Bulk Modulus (GPa) = 38.67385 40.55777 39.61581
# Shear Modulus (GPa) = 20.47098 26.27736 23.37417
#
# Velocity S-wave (km/s) = 3.20247 3.62833 3.42203
# Velocity P-wave (km/s) = 5.74888 6.15403 5.95490
#
# Compressibility (1/GPa) = 0.02585727
#
# Stress axis : x y z
#
# Youngs Moduli (GPa) = 83.75970 102.28198 67.67917
#
# Poissons Ratio (x) = 0.19877 0.07442
# Poissons Ratio (y) = 0.16277 0.15391
# Poissons Ratio (z) = 0.09210 0.23261
#
# Static dielectric constant tensor:
#      x y z
#    x 1.760830 0.000000 0.000000 
#    y 0.000000 1.757490 0.000000 
#    z 0.000000 0.000000 1.753650 
# 
# From -- ./inp_files/1013.got.cif
#   From: 2010.05.17/outbox.cif.g08.bks.cpg/sg41_1_cif.got.tgz:1013.got - 2010.06.03 18:54:24.
