data_PCOD9366896
_publ_section_title
;
Structure prediction by ZEFSAII (Michael W. Deem and Ramdas Pophale) SiO2 
 PCOD9366896
Probable space group: A B A 2
;
_chemical_formula_sum "Si O2"
_cell_formula_units_Z 64
_cell_length_a 8.983060
_cell_length_b 14.476761
_cell_length_c 22.719867
_cell_angle_alpha 90.000000
_cell_angle_beta 90.000000
_cell_angle_gamma 90.000000
_cell_volume 2954.619024
_symmetry_space_group_name_H-M "A B A 2"
_symmetry_group_IT_number 41
_symmetry_cell_setting 'orthorhombic'
loop_
_space_group_symop_operation_xyz
x,y,z
-x,-y,z
1/2-x,y,1/2+z
1/2+x,-y,1/2+z
x,1/2+y,1/2+z
-x,1/2-y,1/2+z
1/2-x,1/2+y,z
1/2+x,1/2-y,z
loop_
_atom_site_type_symbol
_atom_site_label
_atom_site_fract_x
_atom_site_fract_y
_atom_site_fract_z
Si Si1 0.653400 0.799657 0.841820
Si Si2 0.657837 0.643457 0.397435
Si Si3 0.221665 0.261518 0.213727
Si Si4 0.327804 0.520783 0.842309
Si Si5 0.422219 0.402674 0.525753
Si Si6 0.876546 0.569724 0.598992
Si Si7 0.454728 0.217286 0.128183
Si Si8 0.658777 0.542627 0.232051
O O1 0.709029 0.709702 0.876273
O O2 0.492589 0.833259 0.862258
O O3 0.655131 0.782322 0.771932
O O4 0.780763 0.875014 0.853897
O O5 0.719017 0.542522 0.381282
O O6 0.615982 0.649578 0.465642
O O7 0.316063 0.196127 0.170801
O O8 0.324172 0.346433 0.235581
O O9 0.095093 0.298955 0.170516
O O10 0.500000 0.500000 0.852828
O O11 0.284006 0.497856 0.774631
O O12 0.500000 0.500000 0.512374
O O13 0.266965 0.421089 0.558738
O O14 0.524514 0.342990 0.570071
O O15 0.939273 0.673622 0.611272
O O16 0.830484 0.526368 0.662255
O O17 0.000000 0.500000 0.573918
O O18 0.500000 0.500000 0.250915
#
# Coordination Sequence:
#
# PCOD9366896 Si02
#       8
#     8   8   8   8   8   8   8   8
#     4  12  26  45  79 100 147 192 236 305 367 439
#     4  12  28  52  71 108 139 194 252 297 365 424
#     4  11  24  42  74 108 144 187 236 293 371 437
#     4  12  27  45  70 107 144 187 244 300 363 442
#     4  12  28  48  74 103 145 193 247 304 354 432
#     4  10  25  45  72 105 143 195 237 297 369 429
#     4  11  24  46  68 109 149 183 243 298 358 437
#     4  10  21  43  69 104 150 185 231 297 367 436
#
# _framework density 21.660999
#
# number of rings (size 3 to 8) (size 9 to 14) (size 15 to 20)
#    0.000    0.750    3.750    3.375   12.250    1.000 
#    2.250    0.000    0.000    0.000    0.000    0.000 
#    0.000    0.000    0.000    0.000    0.000    0.000 
#
# Total GULP energy -179022.204886 kJ/mol
# GULP energy per Si atom -5594.443903 kJ/mol
# Density = 2.161170 g / cm^3
# Si number density = 21.660999 Si / 1000 Ang^3
#
#
#
# Elastic Constant Matrix: (Units=GPa)
#
#
# Indices 1 2 3 4 5 6 
#
# 1 85.9011 -9.4674 33.3626 0.0000 0.0000 0.0000
# 2 -9.4674 55.0653 4.2696 0.0000 0.0000 0.0000
# 3 33.3626 4.2696 120.3879 0.0000 0.0000 0.0000
# 4 0.0000 0.0000 0.0000 -8.3484 0.0000 0.0000
# 5 0.0000 0.0000 0.0000 0.0000 27.3123 0.0000
# 6 0.0000 0.0000 0.0000 0.0000 0.0000 28.3398
#
#
#
# Elastic Compliance Matrix: (Units=1/GPa)
#
#
# Indices 1 2 3 4 5 6 
#
# 1 0.013407 0.002600 -0.003808 0.000000 0.000000 0.000000
# 2 0.002600 0.018715 -0.001384 0.000000 0.000000 0.000000
# 3 -0.003808 -0.001384 0.009411 0.000000 0.000000 0.000000
# 4 0.000000 0.000000 0.000000 -0.119784 0.000000 0.000000
# 5 0.000000 0.000000 0.000000 0.000000 0.036614 0.000000
# 6 0.000000 0.000000 0.000000 0.000000 0.000000 0.035286
#
#
# Mechanical properties :
#
#
# Convention : Reuss Voigt Hill
#
# Bulk Modulus (GPa) = 27.51124 35.29822 31.40473
# Shear Modulus (GPa) = 456.72316 25.00671 240.86494
#
# Velocity S-wave (km/s) = 14.53644 3.40142 10.55646
# Velocity P-wave (km/s) = 17.16021 5.63536 12.77165
#
# Compressibility (1/GPa) = 0.03634878
#
# Stress axis : x y z
#
# Youngs Moduli (GPa) = 74.58978 53.43411 106.26146
#
# Poissons Ratio (x) = -0.13894 0.40460
# Poissons Ratio (y) = -0.19395 0.14710
# Poissons Ratio (z) = 0.28400 0.07397
#
# Static dielectric constant tensor:
#      x y z
#    x 1.799420 0.000000 0.000000 
#    y 0.000000 1.806890 0.000000 
#    z 0.000000 0.000000 1.772900 
# 
# From -- ./inp_files/12056.got.cif
#   From: 2010.05.17/outbox.cif.g08.bks.cpg/sg41_7_cif.got.tgz:12056.got - 2010.06.03 18:54:24.
