data_PCOD9366433
_publ_section_title
;
Structure prediction by ZEFSAII (Michael W. Deem and Ramdas Pophale) SiO2 
 PCOD9366433
Probable space group: A B A 2
;
_chemical_formula_sum "Si O2"
_cell_formula_units_Z 40
_cell_length_a 5.021776
_cell_length_b 13.691255
_cell_length_c 26.995088
_cell_angle_alpha 90.000000
_cell_angle_beta 90.000000
_cell_angle_gamma 90.000000
_cell_volume 1856.031504
_symmetry_space_group_name_H-M "A B A 2"
_symmetry_group_IT_number 41
_symmetry_cell_setting 'orthorhombic'
loop_
_space_group_symop_operation_xyz
x,y,z
-x,-y,z
1/2-x,y,1/2+z
1/2+x,-y,1/2+z
x,1/2+y,1/2+z
-x,1/2-y,1/2+z
1/2-x,1/2+y,z
1/2+x,1/2-y,z
loop_
_atom_site_type_symbol
_atom_site_label
_atom_site_fract_x
_atom_site_fract_y
_atom_site_fract_z
Si Si1 0.764426 0.064389 0.682790
Si Si2 0.759818 0.065847 0.367239
Si Si3 0.239715 0.810460 0.274521
Si Si4 0.201041 0.313489 0.461684
Si Si5 0.000000 0.500000 0.523082
Si Si6 0.000000 0.000000 0.589200
O O1 0.706398 0.153730 0.718338
O O2 0.886271 0.080915 0.628021
O O3 0.500000 0.000000 0.677296
O O4 0.000000 0.000000 0.707935
O O5 0.835370 0.106359 0.313486
O O6 0.701245 0.155290 0.404070
O O7 0.500000 0.000000 0.363901
O O8 0.000000 0.000000 0.387952
O O9 0.542838 0.779523 0.283171
O O10 0.493031 0.272661 0.472752
O O11 0.110832 0.410301 0.490750
O O12 0.749433 0.467521 0.556638
#
# Coordination Sequence:
#
# PCOD9366433 Si02
#       6
#     8   8   8   8   4   4
#     4  10  20  41  65  90 119 178 218 270 325 402
#     4  12  24  43  68  99 133 184 229 268 342 413
#     4  12  24  39  62  99 140 173 215 279 336 403
#     4  12  26  45  70 104 140 176 230 288 341 417
#     4  12  24  46  71 100 133 186 228 282 370 396
#     4  10  22  42  73  88 129 174 228 282 338 418
#
# _framework density 21.551356999999999
#
# number of rings (size 3 to 8) (size 9 to 14) (size 15 to 20)
#    0.600    0.000    2.000    7.200    1.400    0.000 
#    0.000    6.000    0.000    0.000    0.000    0.000 
#    0.000    0.000    0.000    0.000    0.000    0.000 
#
# Total GULP energy -111761.494833 kJ/mol
# GULP energy per Si atom -5588.074742 kJ/mol
# Density = 2.150230 g / cm^3
# Si number density = 21.551357 Si / 1000 Ang^3
#
#
#
# Elastic Constant Matrix: (Units=GPa)
#
#
# Indices 1 2 3 4 5 6 
#
# 1 115.9909 13.9635 23.5857 0.0000 0.0000 0.0000
# 2 13.9635 51.7351 18.2444 0.0000 0.0000 0.0000
# 3 23.5857 18.2444 86.0692 0.0000 0.0000 0.0000
# 4 0.0000 0.0000 0.0000 11.8242 0.0000 0.0000
# 5 0.0000 0.0000 0.0000 0.0000 17.0653 0.0000
# 6 0.0000 0.0000 0.0000 0.0000 0.0000 34.3504
#
#
#
# Elastic Compliance Matrix: (Units=1/GPa)
#
#
# Indices 1 2 3 4 5 6 
#
# 1 0.009272 -0.001736 -0.002173 0.000000 0.000000 0.000000
# 2 -0.001736 0.021216 -0.004021 0.000000 0.000000 0.000000
# 3 -0.002173 -0.004021 0.013066 0.000000 0.000000 0.000000
# 4 0.000000 0.000000 0.000000 0.084573 0.000000 0.000000
# 5 0.000000 0.000000 0.000000 0.000000 0.058598 0.000000
# 6 0.000000 0.000000 0.000000 0.000000 0.000000 0.029112
#
#
# Mechanical properties :
#
#
# Convention : Reuss Voigt Hill
#
# Bulk Modulus (GPa) = 36.10961 40.59805 38.35383
# Shear Modulus (GPa) = 20.75295 25.84809 23.30052
#
# Velocity S-wave (km/s) = 3.10652 3.46695 3.29167
# Velocity P-wave (km/s) = 5.44599 5.90805 5.68172
#
# Compressibility (1/GPa) = 0.02769346
#
# Stress axis : x y z
#
# Youngs Moduli (GPa) = 107.84898 47.13415 76.53213
#
# Poissons Ratio (x) = 0.08184 0.16629
# Poissons Ratio (y) = 0.18727 0.30777
# Poissons Ratio (z) = 0.23434 0.18955
#
# Static dielectric constant tensor:
#      x y z
#    x 1.747940 0.000000 0.000000 
#    y 0.000000 1.691940 0.000000 
#    z 0.000000 0.000000 1.780130 
# 
# From -- ./inp_files/12361.got.cif
#   From: 2010.05.17/outbox.cif.g08.bks.cpg/sg41_7_cif.got.tgz:12361.got - 2010.06.03 18:54:24.
