data_PCOD9366098
_publ_section_title
;
Structure prediction by ZEFSAII (Michael W. Deem and Ramdas Pophale) SiO2 
 PCOD9366098
Probable space group: A B A 2
;
_chemical_formula_sum "Si O2"
_cell_formula_units_Z 40
_cell_length_a 15.001676
_cell_length_b 12.188220
_cell_length_c 8.667234
_cell_angle_alpha 90.000000
_cell_angle_beta 90.000000
_cell_angle_gamma 90.000000
_cell_volume 1584.749371
_symmetry_space_group_name_H-M "A B A 2"
_symmetry_group_IT_number 41
_symmetry_cell_setting 'orthorhombic'
loop_
_space_group_symop_operation_xyz
x,y,z
-x,-y,z
1/2-x,y,1/2+z
1/2+x,-y,1/2+z
x,1/2+y,1/2+z
-x,1/2-y,1/2+z
1/2-x,1/2+y,z
1/2+x,1/2-y,z
loop_
_atom_site_type_symbol
_atom_site_label
_atom_site_fract_x
_atom_site_fract_y
_atom_site_fract_z
Si Si1 0.626773 0.427323 0.987840
Si Si2 0.526294 0.234567 0.879274
Si Si3 0.878001 0.686398 0.552249
Si Si4 0.734920 0.959939 0.760831
Si Si5 0.315689 0.381061 0.526630
O O1 0.546601 0.361925 0.916213
O O2 0.707529 0.390144 0.877179
O O3 0.618455 0.558776 0.996449
O O4 0.658447 0.404121 0.161418
O O5 0.564573 0.202665 0.710899
O O6 0.589069 0.174880 0.007148
O O7 0.423109 0.230309 0.929718
O O8 0.770170 0.695873 0.564828
O O9 0.697179 0.059460 0.862155
O O10 0.805687 0.019102 0.646650
#
# Coordination Sequence:
#
# PCOD9366098 Si02
#       5
#     8   8   8   8   8
#     4  10  21  40  63  94 132 165 217 271 323 393
#     4  12  24  40  71  90 132 175 217 270 330 395
#     4  10  25  42  60 102 129 173 217 272 332 387
#     4   8  18  37  62  90 129 160 213 269 318 378
#     4  10  19  41  64  87 132 171 207 270 330 377
#
# _framework density 25.240583999999998
#
# number of rings (size 3 to 8) (size 9 to 14) (size 15 to 20)
#    0.000    2.400    4.000    0.600    8.400    0.000 
#    0.000    0.000    0.000    0.000    0.000    0.000 
#    0.000    0.000    0.000    0.000    0.000    0.000 
#
# Total GULP energy -111493.385403 kJ/mol
# GULP energy per Si atom -5574.669270 kJ/mol
# Density = 2.518314 g / cm^3
# Si number density = 25.240584 Si / 1000 Ang^3
#
#
#
# Elastic Constant Matrix: (Units=GPa)
#
#
# Indices 1 2 3 4 5 6 
#
# 1 40.1138 -12.5384 -5.3632 0.0000 0.0000 0.0000
# 2 -12.5384 39.8998 8.7299 0.0000 0.0000 0.0000
# 3 -5.3632 8.7299 122.7744 0.0000 0.0000 0.0000
# 4 0.0000 0.0000 0.0000 40.5445 0.0000 0.0000
# 5 0.0000 0.0000 0.0000 0.0000 28.0581 0.0000
# 6 0.0000 0.0000 0.0000 0.0000 0.0000 19.1680
#
#
#
# Elastic Compliance Matrix: (Units=1/GPa)
#
#
# Indices 1 2 3 4 5 6 
#
# 1 0.027688 0.008570 0.000600 0.000000 0.000000 0.000000
# 2 0.008570 0.028111 -0.001625 0.000000 0.000000 0.000000
# 3 0.000600 -0.001625 0.008287 0.000000 0.000000 0.000000
# 4 0.000000 0.000000 0.000000 0.024664 0.000000 0.000000
# 5 0.000000 0.000000 0.000000 0.000000 0.035640 0.000000
# 6 0.000000 0.000000 0.000000 0.000000 0.000000 0.052170
#
#
# Mechanical properties :
#
#
# Convention : Reuss Voigt Hill
#
# Bulk Modulus (GPa) = 12.63006 20.49386 16.56196
# Shear Modulus (GPa) = 26.61522 31.68477 29.15000
#
# Velocity S-wave (km/s) = 3.25077 3.54688 3.40205
# Velocity P-wave (km/s) = 4.37090 4.99108 4.69125
#
# Compressibility (1/GPa) = 0.07917617
#
# Stress axis : x y z
#
# Youngs Moduli (GPa) = 36.11683 35.57309 120.67461
#
# Poissons Ratio (x) = -0.30484 -0.07242
# Poissons Ratio (y) = -0.30950 0.19604
# Poissons Ratio (z) = -0.02168 0.05779
#
# Static dielectric constant tensor:
#      x y z
#    x 2.270270 0.000000 0.000000 
#    y 0.000000 2.037050 0.000000 
#    z 0.000000 0.000000 2.048080 
# 
# From -- ./inp_files/2954.got.cif
#   From: 2010.05.17/outbox.cif.g08.bks.cpg/sg41_2_cif.got.tgz:2954.got - 2010.06.03 18:54:24.
