data_PCOD9366940
_publ_section_title
;
Structure prediction by ZEFSAII (Michael W. Deem and Ramdas Pophale) SiO2 
 PCOD9366940
Probable space group: A B A 2
;
_chemical_formula_sum "Si O2"
_cell_formula_units_Z 40
_cell_length_a 14.503232
_cell_length_b 11.316660
_cell_length_c 10.554228
_cell_angle_alpha 90.000000
_cell_angle_beta 90.000000
_cell_angle_gamma 90.000000
_cell_volume 1732.245868
_symmetry_space_group_name_H-M "A B A 2"
_symmetry_group_IT_number 41
_symmetry_cell_setting 'orthorhombic'
loop_
_space_group_symop_operation_xyz
x,y,z
-x,-y,z
1/2-x,y,1/2+z
1/2+x,-y,1/2+z
x,1/2+y,1/2+z
-x,1/2-y,1/2+z
1/2-x,1/2+y,z
1/2+x,1/2-y,z
loop_
_atom_site_type_symbol
_atom_site_label
_atom_site_fract_x
_atom_site_fract_y
_atom_site_fract_z
Si Si1 0.067260 0.684010 0.831290
Si Si2 0.583719 0.425140 0.593321
Si Si3 0.378510 0.318745 0.198820
Si Si4 0.902996 0.565107 0.431582
Si Si5 0.790081 0.502744 0.879519
O O1 0.086791 0.822052 0.839596
O O2 0.156222 0.603155 0.807898
O O3 0.983928 0.656800 0.739682
O O4 0.037009 0.643480 0.973026
O O5 0.500000 0.500000 0.651450
O O6 0.626593 0.321453 0.676850
O O7 0.662465 0.499253 0.519606
O O8 0.314846 0.377242 0.305431
O O9 0.366866 0.381352 0.064219
O O10 0.818452 0.485855 0.385633
O O11 0.000000 0.500000 0.446793
#
# Coordination Sequence:
#
# PCOD9366940 Si02
#       5
#     8   8   8   8   8
#     4   9  20  43  68  97 143 191 226 315 364 421
#     4   9  19  41  72 107 139 185 239 297 363 442
#     4  11  21  45  77  98 137 204 231 300 395 405
#     4  11  25  43  68 107 139 190 259 293 360 462
#     4  10  21  46  67 101 151 184 239 313 355 432
#
# _framework density 23.09141
#
# number of rings (size 3 to 8) (size 9 to 14) (size 15 to 20)
#    1.200    0.800    2.000    1.800    0.000    2.400 
#   14.400    0.000    0.000    0.000    0.000    0.000 
#    0.000    0.000    0.000    0.000    0.000    0.000 
#
# Total GULP energy -111694.670977 kJ/mol
# GULP energy per Si atom -5584.733549 kJ/mol
# Density = 2.303885 g / cm^3
# Si number density = 23.091410 Si / 1000 Ang^3
#
#
#
# Elastic Constant Matrix: (Units=GPa)
#
#
# Indices 1 2 3 4 5 6 
#
# 1 134.5970 39.0641 24.0485 0.0000 0.0000 0.0000
# 2 39.0641 100.8785 51.9655 0.0000 0.0000 0.0000
# 3 24.0485 51.9655 69.3502 0.0000 0.0000 0.0000
# 4 0.0000 0.0000 0.0000 185.0860 0.0000 0.0000
# 5 0.0000 0.0000 0.0000 0.0000 0.7196 0.0000
# 6 0.0000 0.0000 0.0000 0.0000 0.0000 9.1939
#
#
#
# Elastic Compliance Matrix: (Units=1/GPa)
#
#
# Indices 1 2 3 4 5 6 
#
# 1 0.008396 -0.002852 -0.000774 0.000000 0.000000 0.000000
# 2 -0.002852 0.017114 -0.011835 0.000000 0.000000 0.000000
# 3 -0.000774 -0.011835 0.023556 0.000000 0.000000 0.000000
# 4 0.000000 0.000000 0.000000 0.005403 0.000000 0.000000
# 5 0.000000 0.000000 0.000000 0.000000 1.389687 0.000000
# 6 0.000000 0.000000 0.000000 0.000000 0.000000 0.108768
#
#
# Mechanical properties :
#
#
# Convention : Reuss Voigt Hill
#
# Bulk Modulus (GPa) = 55.11657 59.44246 57.27951
# Shear Modulus (GPa) = 3.14487 51.64974 27.39730
#
# Velocity S-wave (km/s) = 1.16828 4.73456 3.44826
# Velocity P-wave (km/s) = 5.07351 7.46232 6.38070
#
# Compressibility (1/GPa) = 0.01814337
#
# Stress axis : x y z
#
# Youngs Moduli (GPa) = 119.10797 58.43211 42.45222
#
# Poissons Ratio (x) = 0.16668 0.03286
# Poissons Ratio (y) = 0.33975 0.50241
# Poissons Ratio (z) = 0.09219 0.69152
#
# Static dielectric constant tensor:
#      x y z
#    x 1.819140 0.000000 0.000000 
#    y 0.000000 1.817120 0.000000 
#    z 0.000000 0.000000 1.883420 
# 
# From -- ./inp_files/5385.got.cif
#   From: 2010.05.17/outbox.cif.g08.bks.cpg/sg41_3_cif.got.tgz:5385.got - 2010.06.03 18:54:24.
