data_PCOD9366384
_publ_section_title
;
Structure prediction by ZEFSAII (Michael W. Deem and Ramdas Pophale) SiO2 
 PCOD9366384
Probable space group: A B A 2
;
_chemical_formula_sum "Si O2"
_cell_formula_units_Z 60
_cell_length_a 5.544093
_cell_length_b 28.663492
_cell_length_c 16.470773
_cell_angle_alpha 90.000000
_cell_angle_beta 90.000000
_cell_angle_gamma 90.000000
_cell_volume 2617.421026
_symmetry_space_group_name_H-M "A B A 2"
_symmetry_group_IT_number 41
_symmetry_cell_setting 'orthorhombic'
loop_
_space_group_symop_operation_xyz
x,y,z
-x,-y,z
1/2-x,y,1/2+z
1/2+x,-y,1/2+z
x,1/2+y,1/2+z
-x,1/2-y,1/2+z
1/2-x,1/2+y,z
1/2+x,1/2-y,z
loop_
_atom_site_type_symbol
_atom_site_label
_atom_site_fract_x
_atom_site_fract_y
_atom_site_fract_z
Si Si1 0.000000 0.500000 0.319670
Si Si2 0.525460 0.587428 0.723329
Si Si3 0.830921 0.040834 0.455491
Si Si4 0.621512 0.860117 0.702568
Si Si5 0.324874 0.775483 0.428903
Si Si6 0.856649 0.225762 0.125120
Si Si7 0.620754 0.628644 0.359958
Si Si8 0.410119 0.949098 0.614261
O O1 0.899339 0.456001 0.269210
O O2 0.786283 0.517422 0.376816
O O3 0.406032 0.635194 0.691664
O O4 0.709155 0.604814 0.792354
O O5 0.646231 0.561637 0.648213
O O6 0.947452 0.089518 0.426216
O O7 0.616538 0.053475 0.517697
O O8 0.000000 0.000000 0.491372
O O9 0.453644 0.822496 0.661327
O O10 0.595626 0.857187 0.800086
O O11 0.558678 0.909257 0.659258
O O12 0.590544 0.756192 0.403531
O O13 0.342236 0.776230 0.527157
O O14 0.254774 0.827026 0.398040
O O15 0.585974 0.241131 0.149920
O O16 0.500000 0.000000 0.636535
#
# Coordination Sequence:
#
# PCOD9366384 Si02
#       8
#     4   8   8   8   8   8   8   8
#     4  10  20  40  62  86 132 168 220 276 338 404
#     4  10  23  39  64  93 130 179 222 278 352 411
#     4  11  23  40  63  93 130 173 225 276 338 408
#     4  11  24  42  66  96 136 179 226 287 348 424
#     4  10  23  46  71 102 136 180 230 290 351 413
#     4  10  24  45  72 101 139 180 231 289 352 414
#     4  10  24  42  63  99 133 175 228 279 347 416
#     4  11  24  40  62  97 132 173 235 280 344 419
#
# _framework density 22.923328000000001
#
# number of rings (size 3 to 8) (size 9 to 14) (size 15 to 20)
#    0.000    1.600    0.667    2.400    8.400    4.800 
#    2.400    0.000    0.000    0.000    0.000    0.000 
#    0.000    0.000    0.000    0.000    0.000    0.000 
#
# Total GULP energy -167184.458377 kJ/mol
# GULP energy per Si atom -5572.815279 kJ/mol
# Density = 2.287115 g / cm^3
# Si number density = 22.923328 Si / 1000 Ang^3
#
#
#
# Elastic Constant Matrix: (Units=GPa)
#
#
# Indices 1 2 3 4 5 6 
#
# 1 72.0785 36.1285 19.5133 0.0000 0.0000 0.0000
# 2 36.1285 123.9044 28.0502 0.0000 0.0000 0.0000
# 3 19.5133 28.0502 24.3256 0.0000 0.0000 0.0000
# 4 0.0000 0.0000 0.0000 39.8407 0.0000 0.0000
# 5 0.0000 0.0000 0.0000 0.0000 -1.1380 0.0000
# 6 0.0000 0.0000 0.0000 0.0000 0.0000 38.9158
#
#
#
# Elastic Compliance Matrix: (Units=1/GPa)
#
#
# Indices 1 2 3 4 5 6 
#
# 1 0.018383 -0.002736 -0.011592 0.000000 0.000000 0.000000
# 2 -0.002736 0.011329 -0.010869 0.000000 0.000000 0.000000
# 3 -0.011592 -0.010869 0.062941 0.000000 0.000000 0.000000
# 4 0.000000 0.000000 0.000000 0.025100 0.000000 0.000000
# 5 0.000000 0.000000 0.000000 0.000000 -0.878725 0.000000
# 6 0.000000 0.000000 0.000000 0.000000 0.000000 0.025696
#
#
# Mechanical properties :
#
#
# Convention : Reuss Voigt Hill
#
# Bulk Modulus (GPa) = 23.66313 43.07693 33.37003
# Shear Modulus (GPa) = -7.45384 24.63145 8.58881
#
# Velocity S-wave (km/s) = -1.80519 3.28154 1.93775
# Velocity P-wave (km/s) = 2.44953 5.76112 4.42666
#
# Compressibility (1/GPa) = 0.04225983
#
# Stress axis : x y z
#
# Youngs Moduli (GPa) = 54.39718 88.26806 15.88800
#
# Poissons Ratio (x) = 0.24151 0.18417
# Poissons Ratio (y) = 0.14884 0.17269
# Poissons Ratio (z) = 0.63055 0.95938
#
# Static dielectric constant tensor:
#      x y z
#    x 2.104290 0.000000 0.000000 
#    y 0.000000 1.900790 0.000000 
#    z 0.000000 0.000000 1.843230 
# 
# From -- ./inp_files/9471.got.cif
#   From: 2010.05.17/outbox.cif.g08.bks.cpg/sg41_5_cif.got.tgz:9471.got - 2010.06.03 18:54:24.
