data_PCOD9366203
_publ_section_title
;
Structure prediction by ZEFSAII (Michael W. Deem and Ramdas Pophale) SiO2 
 PCOD9366203
Probable space group: A B A 2
;
_chemical_formula_sum "Si O2"
_cell_formula_units_Z 64
_cell_length_a 20.282105
_cell_length_b 10.110861
_cell_length_c 16.381584
_cell_angle_alpha 90.000000
_cell_angle_beta 90.000000
_cell_angle_gamma 90.000000
_cell_volume 3359.363968
_symmetry_space_group_name_H-M "A B A 2"
_symmetry_group_IT_number 41
_symmetry_cell_setting 'orthorhombic'
loop_
_space_group_symop_operation_xyz
x,y,z
-x,-y,z
1/2-x,y,1/2+z
1/2+x,-y,1/2+z
x,1/2+y,1/2+z
-x,1/2-y,1/2+z
1/2-x,1/2+y,z
1/2+x,1/2-y,z
loop_
_atom_site_type_symbol
_atom_site_label
_atom_site_fract_x
_atom_site_fract_y
_atom_site_fract_z
Si Si1 0.076728 0.982019 0.322120
Si Si2 0.409461 0.768608 0.395134
Si Si3 0.557224 0.283393 0.918220
Si Si4 0.310594 0.399782 0.203570
Si Si5 0.294167 0.860328 0.515823
Si Si6 0.207277 0.114141 0.763471
Si Si7 0.429463 0.506466 0.771797
Si Si8 0.194314 0.642339 0.458890
O O1 0.079231 0.860552 0.386008
O O2 0.120697 0.938504 0.245918
O O3 0.100284 0.119878 0.361891
O O4 0.000000 0.000000 0.299890
O O5 0.480498 0.774841 0.441142
O O6 0.352689 0.816530 0.455263
O O7 0.412703 0.869134 0.317938
O O8 0.556968 0.385395 0.842546
O O9 0.615915 0.337731 0.974470
O O10 0.315557 0.359244 0.109591
O O11 0.282636 0.267372 0.244811
O O12 0.262230 0.520790 0.224747
O O13 0.233322 0.767826 0.491902
O O14 0.277838 0.012755 0.500795
O O15 0.136486 0.061321 0.730260
O O16 0.203681 0.112981 0.862243
O O17 0.500000 0.500000 0.725986
#
# Coordination Sequence:
#
# PCOD9366203 Si02
#       8
#     8   8   8   8   8   8   8   8
#     4  10  21  39  63  91 117 156 203 255 292 352
#     4  10  20  36  64  91 113 154 206 245 292 351
#     4   9  18  37  63  88 115 148 209 252 280 338
#     4  12  25  41  57  91 129 157 192 249 312 351
#     4  12  25  39  59  91 125 158 191 252 305 355
#     4  11  22  40  65  85 118 162 207 246 286 361
#     4   9  17  34  62  89 112 146 205 251 283 334
#     4  11  22  40  63  88 113 161 209 240 286 352
#
# _framework density 19.051224999999999
#
# number of rings (size 3 to 8) (size 9 to 14) (size 15 to 20)
#    0.000    1.500    5.000    2.250    3.500    0.000 
#    2.250    0.000    2.750    0.000    0.000    0.000 
#    0.000    0.000    0.000    0.000    0.000    0.000 
#
# Total GULP energy -178457.367681 kJ/mol
# GULP energy per Si atom -5576.792740 kJ/mol
# Density = 1.900786 g / cm^3
# Si number density = 19.051225 Si / 1000 Ang^3
#
#
#
# Elastic Constant Matrix: (Units=GPa)
#
#
# Indices 1 2 3 4 5 6 
#
# 1 67.2115 9.3564 -0.0621 0.0000 0.0000 0.0000
# 2 9.3564 100.1963 -19.0238 0.0000 0.0000 0.0000
# 3 -0.0621 -19.0238 21.7034 0.0000 0.0000 0.0000
# 4 0.0000 0.0000 0.0000 10.8343 0.0000 0.0000
# 5 0.0000 0.0000 0.0000 0.0000 -20.3079 0.0000
# 6 0.0000 0.0000 0.0000 0.0000 0.0000 33.6597
#
#
#
# Elastic Compliance Matrix: (Units=1/GPa)
#
#
# Indices 1 2 3 4 5 6 
#
# 1 0.015111 -0.001683 -0.001432 0.000000 0.000000 0.000000
# 2 -0.001683 0.012160 0.010654 0.000000 0.000000 0.000000
# 3 -0.001432 0.010654 0.055410 0.000000 0.000000 0.000000
# 4 0.000000 0.000000 0.000000 0.092299 0.000000 0.000000
# 5 0.000000 0.000000 0.000000 0.000000 -0.049242 0.000000
# 6 0.000000 0.000000 0.000000 0.000000 0.000000 0.029709
#
#
# Mechanical properties :
#
#
# Convention : Reuss Voigt Hill
#
# Bulk Modulus (GPa) = 10.22904 18.85026 14.53965
# Shear Modulus (GPa) = 28.90892 18.09327 23.50109
#
# Velocity S-wave (km/s) = 3.89965 3.08509 3.51604
# Velocity P-wave (km/s) = 5.06530 4.75462 4.91241
#
# Compressibility (1/GPa) = 0.09776085
#
# Stress axis : x y z
#
# Youngs Moduli (GPa) = 66.17537 82.23393 18.04712
#
# Poissons Ratio (x) = 0.13840 0.02584
# Poissons Ratio (y) = 0.11137 -0.19228
# Poissons Ratio (z) = 0.09476 -0.87614
#
# Static dielectric constant tensor:
#      x y z
#    x 1.716490 0.000000 0.000000 
#    y 0.000000 1.669380 0.000000 
#    z 0.000000 0.000000 1.664290 
# 
# From -- ./inp_files/10686.got.cif
#   From: 2010.05.17/outbox.cif.g08.bks.cpg/sg41_6_cif.got.tgz:10686.got - 2010.06.03 18:54:24.
