data_PCOD9366835
_publ_section_title
;
Structure prediction by ZEFSAII (Michael W. Deem and Ramdas Pophale) SiO2 
 PCOD9366835
Probable space group: A B A 2
;
_chemical_formula_sum "Si O2"
_cell_formula_units_Z 60
_cell_length_a 11.930055
_cell_length_b 26.285491
_cell_length_c 8.923822
_cell_angle_alpha 90.000000
_cell_angle_beta 90.000000
_cell_angle_gamma 90.000000
_cell_volume 2798.397723
_symmetry_space_group_name_H-M "A B A 2"
_symmetry_group_IT_number 41
_symmetry_cell_setting 'orthorhombic'
loop_
_space_group_symop_operation_xyz
x,y,z
-x,-y,z
1/2-x,y,1/2+z
1/2+x,-y,1/2+z
x,1/2+y,1/2+z
-x,1/2-y,1/2+z
1/2-x,1/2+y,z
1/2+x,1/2-y,z
loop_
_atom_site_type_symbol
_atom_site_label
_atom_site_fract_x
_atom_site_fract_y
_atom_site_fract_z
Si Si1 0.108751 0.403692 0.032240
Si Si2 0.391529 0.583905 0.881451
Si Si3 0.898324 0.840238 0.417992
Si Si4 0.980566 0.185500 0.921381
Si Si5 0.252941 0.847569 0.296101
Si Si6 0.000000 0.500000 0.184267
Si Si7 0.228232 0.624107 0.635244
Si Si8 0.046470 0.771852 0.240507
O O1 0.177057 0.374117 0.162681
O O2 0.075265 0.460790 0.084799
O O3 0.186701 0.391603 0.887839
O O4 0.989885 0.376463 0.996034
O O5 0.481274 0.626508 0.929955
O O6 0.432952 0.534018 0.802534
O O7 0.323445 0.608571 0.747530
O O8 0.313318 0.579124 0.026755
O O9 0.866674 0.860975 0.253066
O O10 0.786165 0.836469 0.518517
O O11 0.962238 0.789630 0.372642
O O12 0.848244 0.181882 0.889666
O O13 0.048199 0.212543 0.784433
O O14 0.002484 0.213294 0.079221
O O15 0.159796 0.805020 0.254184
#
# Coordination Sequence:
#
# PCOD9366835 Si02
#       8
#     8   8   8   8   8   4   8   8
#     4  11  24  45  72 103 143 191 246 304 361 445
#     4  11  24  44  68 100 142 181 238 305 356 429
#     4  10  21  44  66 100 142 181 238 298 360 442
#     4  12  25  46  68 105 145 192 240 304 356 451
#     4  11  24  48  72 100 153 193 236 299 379 435
#     4  12  24  44  76 102 140 192 248 306 360 434
#     4  10  21  41  71  94 138 181 223 299 367 410
#     4  11  27  42  72 106 144 193 242 290 374 442
#
# _framework density 21.440840999999999
#
# number of rings (size 3 to 8) (size 9 to 14) (size 15 to 20)
#    0.000    1.067    5.333    0.000    5.600    3.200 
#    0.000    0.667    0.000    0.000    0.000    0.000 
#    0.000    0.000    0.000    0.000    0.000    0.000 
#
# Total GULP energy -167188.889624 kJ/mol
# GULP energy per Si atom -5572.962987 kJ/mol
# Density = 2.139204 g / cm^3
# Si number density = 21.440841 Si / 1000 Ang^3
#
#
#
# Elastic Constant Matrix: (Units=GPa)
#
#
# Indices 1 2 3 4 5 6 
#
# 1 84.8456 35.1245 52.6007 0.0000 0.0000 0.0000
# 2 35.1245 84.9132 32.4735 0.0000 0.0000 0.0000
# 3 52.6007 32.4735 115.1771 0.0000 0.0000 0.0000
# 4 0.0000 0.0000 0.0000 34.4029 0.0000 0.0000
# 5 0.0000 0.0000 0.0000 0.0000 10.0189 0.0000
# 6 0.0000 0.0000 0.0000 0.0000 0.0000 9.9438
#
#
#
# Elastic Compliance Matrix: (Units=1/GPa)
#
#
# Indices 1 2 3 4 5 6 
#
# 1 0.018055 -0.004837 -0.006882 0.000000 0.000000 0.000000
# 2 -0.004837 0.014496 -0.001878 0.000000 0.000000 0.000000
# 3 -0.006882 -0.001878 0.012355 0.000000 0.000000 0.000000
# 4 0.000000 0.000000 0.000000 0.029067 0.000000 0.000000
# 5 0.000000 0.000000 0.000000 0.000000 0.099812 0.000000
# 6 0.000000 0.000000 0.000000 0.000000 0.000000 0.100565
#
#
# Mechanical properties :
#
#
# Convention : Reuss Voigt Hill
#
# Bulk Modulus (GPa) = 56.45879 58.37037 57.41458
# Shear Modulus (GPa) = 16.26298 21.85558 19.05928
#
# Velocity S-wave (km/s) = 2.75708 3.19618 2.98472
# Velocity P-wave (km/s) = 6.04358 6.39561 6.22208
#
# Compressibility (1/GPa) = 0.01771203
#
# Stress axis : x y z
#
# Youngs Moduli (GPa) = 55.38673 68.98622 80.94063
#
# Poissons Ratio (x) = 0.33366 0.55703
# Poissons Ratio (y) = 0.26788 0.15202
# Poissons Ratio (z) = 0.38117 0.12957
#
# Static dielectric constant tensor:
#      x y z
#    x 1.866410 0.000000 0.000000 
#    y 0.000000 0.970560 0.000000 
#    z 0.000000 0.000000 1.809110 
# 
# From -- ./inp_files/2177.got.cif
#   From: 2010.05.17/outbox.cif.g08.bks.cpg/sg41_2_cif.got.tgz:2177.got - 2010.06.03 18:54:24.
