data_PCOD9366911
_publ_section_title
;
Structure prediction by ZEFSAII (Michael W. Deem and Ramdas Pophale) SiO2 
 PCOD9366911
Probable space group: A B A 2
;
_chemical_formula_sum "Si O2"
_cell_formula_units_Z 52
_cell_length_a 8.066832
_cell_length_b 15.911916
_cell_length_c 19.113748
_cell_angle_alpha 90.000000
_cell_angle_beta 90.000000
_cell_angle_gamma 90.000000
_cell_volume 2453.416862
_symmetry_space_group_name_H-M "A B A 2"
_symmetry_group_IT_number 41
_symmetry_cell_setting 'orthorhombic'
loop_
_space_group_symop_operation_xyz
x,y,z
-x,-y,z
1/2-x,y,1/2+z
1/2+x,-y,1/2+z
x,1/2+y,1/2+z
-x,1/2-y,1/2+z
1/2-x,1/2+y,z
1/2+x,1/2-y,z
loop_
_atom_site_type_symbol
_atom_site_label
_atom_site_fract_x
_atom_site_fract_y
_atom_site_fract_z
Si Si1 0.500000 0.000000 0.174400
Si Si2 0.341188 0.862986 0.858514
Si Si3 0.284465 0.186397 0.893264
Si Si4 0.556609 0.670200 0.203941
Si Si5 0.685310 0.489011 0.937023
Si Si6 0.831208 0.549729 0.594101
Si Si7 0.327468 0.152281 0.240434
O O1 0.340293 0.980333 0.127344
O O2 0.562760 0.926170 0.222844
O O3 0.525441 0.835670 0.879854
O O4 0.232726 0.788361 0.895866
O O5 0.343027 0.861719 0.773389
O O6 0.300605 0.955959 0.886122
O O7 0.183559 0.166596 0.822811
O O8 0.225280 0.110801 0.944893
O O9 0.631482 0.637759 0.131443
O O10 0.580286 0.769143 0.206712
O O11 0.362993 0.646971 0.213767
O O12 0.500000 0.500000 0.909117
O O13 0.687891 0.536495 0.011614
O O14 0.000000 0.500000 0.613937
#
# Coordination Sequence:
#
# PCOD9366911 Si02
#       7
#     4   8   8   8   8   8   8
#     4  12  24  40  68  96 132 176 214 276 334 398
#     4  10  22  41  70  94 130 176 218 279 338 395
#     4  10  22  41  66 100 133 168 225 275 334 405
#     4  10  21  44  65  99 137 166 227 277 334 401
#     4  11  25  42  64  95 134 178 220 276 329 400
#     4  11  25  44  63  95 137 171 226 272 326 400
#     4  10  22  39  70 102 130 175 216 284 336 397
#
# _framework density 21.194931
#
# number of rings (size 3 to 8) (size 9 to 14) (size 15 to 20)
#    0.000    1.538    1.538    2.308    5.385    2.462 
#    2.769    3.077    0.000    0.000    0.000    0.000 
#    0.000    0.000    0.000    0.000    0.000    0.000 
#
# Total GULP energy -145046.452589 kJ/mol
# GULP energy per Si atom -5578.709715 kJ/mol
# Density = 2.114669 g / cm^3
# Si number density = 21.194931 Si / 1000 Ang^3
#
#
#
# Elastic Constant Matrix: (Units=GPa)
#
#
# Indices 1 2 3 4 5 6 
#
# 1 72.6769 11.6523 1.3106 0.0000 0.0000 0.0000
# 2 11.6523 79.0394 27.9238 0.0000 0.0000 0.0000
# 3 1.3106 27.9238 45.7767 0.0000 0.0000 0.0000
# 4 0.0000 0.0000 0.0000 23.8360 0.0000 0.0000
# 5 0.0000 0.0000 0.0000 0.0000 19.5150 0.0000
# 6 0.0000 0.0000 0.0000 0.0000 0.0000 41.0847
#
#
#
# Elastic Compliance Matrix: (Units=1/GPa)
#
#
# Indices 1 2 3 4 5 6 
#
# 1 0.014136 -0.002474 0.001105 0.000000 0.000000 0.000000
# 2 -0.002474 0.016561 -0.010031 0.000000 0.000000 0.000000
# 3 0.001105 -0.010031 0.027933 0.000000 0.000000 0.000000
# 4 0.000000 0.000000 0.000000 0.041953 0.000000 0.000000
# 5 0.000000 0.000000 0.000000 0.000000 0.051243 0.000000
# 6 0.000000 0.000000 0.000000 0.000000 0.000000 0.024340
#
#
# Mechanical properties :
#
#
# Convention : Reuss Voigt Hill
#
# Bulk Modulus (GPa) = 27.91129 31.02961 29.47045
# Shear Modulus (GPa) = 23.70682 27.32755 25.51718
#
# Velocity S-wave (km/s) = 3.34805 3.59464 3.47353
# Velocity P-wave (km/s) = 5.30503 5.64805 5.47922
#
# Compressibility (1/GPa) = 0.03582780
#
# Stress axis : x y z
#
# Youngs Moduli (GPa) = 70.73986 60.38433 35.80051
#
# Poissons Ratio (x) = 0.14941 -0.03954
# Poissons Ratio (y) = 0.17503 0.35912
# Poissons Ratio (z) = -0.07814 0.60572
#
# Static dielectric constant tensor:
#      x y z
#    x 1.775860 0.000000 0.000000 
#    y 0.000000 1.911640 0.000000 
#    z 0.000000 0.000000 1.795180 
# 
# From -- ./inp_files/11174.got.cif
#   From: 2010.05.17/outbox.cif.g08.bks.cpg/sg41_6_cif.got.tgz:11174.got - 2010.06.03 18:54:24.
