data_PCOD9366658
_publ_section_title
;
Structure prediction by ZEFSAII (Michael W. Deem and Ramdas Pophale) SiO2 
 PCOD9366658
Probable space group: A B A 2
;
_chemical_formula_sum "Si O2"
_cell_formula_units_Z 48
_cell_length_a 15.670718
_cell_length_b 12.879401
_cell_length_c 12.872511
_cell_angle_alpha 90.000000
_cell_angle_beta 90.000000
_cell_angle_gamma 90.000000
_cell_volume 2598.051958
_symmetry_space_group_name_H-M "A B A 2"
_symmetry_group_IT_number 41
_symmetry_cell_setting 'orthorhombic'
loop_
_space_group_symop_operation_xyz
x,y,z
-x,-y,z
1/2-x,y,1/2+z
1/2+x,-y,1/2+z
x,1/2+y,1/2+z
-x,1/2-y,1/2+z
1/2-x,1/2+y,z
1/2+x,1/2-y,z
loop_
_atom_site_type_symbol
_atom_site_label
_atom_site_fract_x
_atom_site_fract_y
_atom_site_fract_z
Si Si1 0.670910 0.737799 0.946100
Si Si2 0.500000 0.000000 0.681631
Si Si3 0.498571 0.326360 0.356934
Si Si4 0.658951 0.829928 0.353482
Si Si5 0.000000 0.000000 0.530676
Si Si6 0.170053 0.087919 0.622343
Si Si7 0.160363 0.994526 0.028531
O O1 0.589455 0.772629 0.878315
O O2 0.758249 0.763756 0.886633
O O3 0.669506 0.809538 0.049477
O O4 0.665104 0.618386 0.977181
O O5 0.498435 0.100604 0.755950
O O6 0.583131 0.001875 0.609676
O O7 0.423892 0.242707 0.348679
O O8 0.481643 0.402876 0.454588
O O9 0.674838 0.880927 0.241811
O O10 0.647171 0.918778 0.440026
O O11 0.917262 0.972747 0.597720
O O12 0.251224 0.021177 0.586329
#
# Coordination Sequence:
#
# PCOD9366658 Si02
#       7
#     8   4   8   8   4   8   8
#     4  10  22  40  60  84 117 153 194 241 287 344
#     4  11  22  39  62  86 118 157 194 237 292 346
#     4  10  21  39  61  84 115 155 195 237 288 345
#     4  11  23  38  59  88 118 151 193 241 293 345
#     4   9  20  39  60  82 112 153 196 237 284 344
#     4  10  22  39  59  85 116 153 193 238 294 345
#     4  11  23  39  60  88 119 152 196 243 288 345
#
# _framework density 18.475380999999999
#
# number of rings (size 3 to 8) (size 9 to 14) (size 15 to 20)
#    0.000    1.667    0.000    4.000    0.000    8.667 
#    0.000    0.000    0.000    0.000    0.000    0.000 
#    0.000    0.000    0.000    0.000    0.000    0.000 
#
# Total GULP energy -134183.034435 kJ/mol
# GULP energy per Si atom -5590.959768 kJ/mol
# Density = 1.843333 g / cm^3
# Si number density = 18.475381 Si / 1000 Ang^3
#
#
#
# Elastic Constant Matrix: (Units=GPa)
#
#
# Indices 1 2 3 4 5 6 
#
# 1 162.3344 99.4594 94.4156 0.0000 0.0000 0.0000
# 2 99.4594 145.9989 69.4006 0.0000 0.0000 0.0000
# 3 94.4156 69.4006 145.6074 0.0000 0.0000 0.0000
# 4 0.0000 0.0000 0.0000 10.2104 0.0000 0.0000
# 5 0.0000 0.0000 0.0000 0.0000 -45.2725 0.0000
# 6 0.0000 0.0000 0.0000 0.0000 0.0000 34.4438
#
#
#
# Elastic Compliance Matrix: (Units=1/GPa)
#
#
# Indices 1 2 3 4 5 6 
#
# 1 0.013360 -0.006443 -0.005592 0.000000 0.000000 0.000000
# 2 -0.006443 0.011963 -0.001524 0.000000 0.000000 0.000000
# 3 -0.005592 -0.001524 0.011220 0.000000 0.000000 0.000000
# 4 0.000000 0.000000 0.000000 0.097939 0.000000 0.000000
# 5 0.000000 0.000000 0.000000 0.000000 -0.022088 0.000000
# 6 0.000000 0.000000 0.000000 0.000000 0.000000 0.029033
#
#
# Mechanical properties :
#
#
# Convention : Reuss Voigt Hill
#
# Bulk Modulus (GPa) = 106.10163 108.94356 107.52259
# Shear Modulus (GPa) = 29.12273 12.58735 20.85504
#
# Velocity S-wave (km/s) = 3.97457 2.61301 3.36341
# Velocity P-wave (km/s) = 8.86658 8.25825 8.56782
#
# Compressibility (1/GPa) = 0.00942493
#
# Stress axis : x y z
#
# Youngs Moduli (GPa) = 74.84930 83.58998 89.12479
#
# Poissons Ratio (x) = 0.53859 0.49839
# Poissons Ratio (y) = 0.48227 0.13583
# Poissons Ratio (z) = 0.41856 0.12739
#
# Static dielectric constant tensor:
#      x y z
#    x 1.606520 0.000000 0.000000 
#    y 0.000000 1.612680 0.000000 
#    z 0.000000 0.000000 1.604370 
# 
# From -- ./inp_files/5554.got.cif
#   From: 2010.05.17/outbox.cif.g08.bks.cpg/sg41_3_cif.got.tgz:5554.got - 2010.06.03 18:54:24.
