data_PCOD9366774
_publ_section_title
;
Structure prediction by ZEFSAII (Michael W. Deem and Ramdas Pophale) SiO2 
 PCOD9366774
Probable space group: A B A 2
;
_chemical_formula_sum "Si O2"
_cell_formula_units_Z 48
_cell_length_a 8.392249
_cell_length_b 10.731949
_cell_length_c 24.646724
_cell_angle_alpha 90.000000
_cell_angle_beta 90.000000
_cell_angle_gamma 90.000000
_cell_volume 2219.811837
_symmetry_space_group_name_H-M "A B A 2"
_symmetry_group_IT_number 41
_symmetry_cell_setting 'orthorhombic'
loop_
_space_group_symop_operation_xyz
x,y,z
-x,-y,z
1/2-x,y,1/2+z
1/2+x,-y,1/2+z
x,1/2+y,1/2+z
-x,1/2-y,1/2+z
1/2-x,1/2+y,z
1/2+x,1/2-y,z
loop_
_atom_site_type_symbol
_atom_site_label
_atom_site_fract_x
_atom_site_fract_y
_atom_site_fract_z
Si Si1 0.216772 0.091214 0.158030
Si Si2 0.000000 0.000000 0.068566
Si Si3 0.482926 0.306564 0.697711
Si Si4 0.409434 0.842367 0.470843
Si Si5 0.746378 0.902960 0.435696
Si Si6 0.000000 0.500000 0.851871
Si Si7 0.307523 0.903320 0.753319
O O1 0.129817 0.224068 0.159534
O O2 0.403473 0.110162 0.161156
O O3 0.149919 0.013885 0.108173
O O4 0.169771 0.022603 0.214249
O O5 0.019514 0.882326 0.029012
O O6 0.600728 0.213121 0.728176
O O7 0.377686 0.372949 0.743628
O O8 0.562107 0.854753 0.429846
O O9 0.328424 0.707848 0.470258
O O10 0.285286 0.955621 0.457532
O O11 0.874888 0.920658 0.387547
O O12 0.119016 0.425523 0.811862
#
# Coordination Sequence:
#
# PCOD9366774 Si02
#       7
#     8   4   8   8   8   4   8
#     4  11  20  42  60 100 138 174 225 281 329 428
#     4  10  21  40  74  94 140 180 229 284 362 420
#     4  10  22  37  66  86 146 179 214 285 333 387
#     4  10  24  47  68 102 140 178 233 310 345 419
#     4  10  23  44  68  98 139 177 236 296 351 407
#     4  12  23  42  72  96 136 190 229 288 358 422
#     4  11  22  42  58 102 137 172 230 278 330 423
#
# _framework density 21.623456000000001
#
# number of rings (size 3 to 8) (size 9 to 14) (size 15 to 20)
#    0.000    1.667    3.333    1.500    0.000    5.333 
#    6.000    0.000   22.000    0.000    0.000    0.000 
#    0.000    0.000    0.000    0.000    0.000    0.000 
#
# Total GULP energy -133752.814554 kJ/mol
# GULP energy per Si atom -5573.033940 kJ/mol
# Density = 2.157424 g / cm^3
# Si number density = 21.623456 Si / 1000 Ang^3
#
#
#
# Elastic Constant Matrix: (Units=GPa)
#
#
# Indices 1 2 3 4 5 6 
#
# 1 150.5092 62.8020 42.8410 0.0000 0.0000 0.0000
# 2 62.8020 76.9475 35.3913 0.0000 0.0000 0.0000
# 3 42.8410 35.3913 75.2456 0.0000 0.0000 0.0000
# 4 0.0000 0.0000 0.0000 -13.2042 0.0000 0.0000
# 5 0.0000 0.0000 0.0000 0.0000-1062.8984 0.0000
# 6 0.0000 0.0000 0.0000 0.0000 0.0000 54.5386
#
#
#
# Elastic Compliance Matrix: (Units=1/GPa)
#
#
# Indices 1 2 3 4 5 6 
#
# 1 0.010422 -0.007372 -0.002467 0.000000 0.000000 0.000000
# 2 -0.007372 0.021797 -0.006055 0.000000 0.000000 0.000000
# 3 -0.002467 -0.006055 0.017542 0.000000 0.000000 0.000000
# 4 0.000000 0.000000 0.000000 -0.075733 0.000000 0.000000
# 5 0.000000 0.000000 0.000000 0.000000 -0.000941 0.000000
# 6 0.000000 0.000000 0.000000 0.000000 0.000000 0.018336
#
#
# Mechanical properties :
#
#
# Convention : Reuss Voigt Hill
#
# Bulk Modulus (GPa) = 55.63362 64.97456 60.30409
# Shear Modulus (GPa) = 171.22021 -193.53493 -11.15736
#
# Velocity S-wave (km/s) = 8.90812 -9.47083 -2.27399
# Velocity P-wave (km/s) = 11.47128 9.45950 4.58847
#
# Compressibility (1/GPa) = 0.01797474
#
# Stress axis : x y z
#
# Youngs Moduli (GPa) = 95.94929 45.87683 57.00536
#
# Poissons Ratio (x) = 0.33819 0.14061
# Poissons Ratio (y) = 0.70731 0.34518
# Poissons Ratio (z) = 0.23667 0.27779
#
# Static dielectric constant tensor:
#      x y z
#    x 1.856090 0.000000 0.000000 
#    y 0.000000 1.877850 0.000000 
#    z 0.000000 0.000000 1.779950 
# 
# From -- ./inp_files/11978.got.cif
#   From: 2010.05.17/outbox.cif.g08.bks.cpg/sg41_6_cif.got.tgz:11978.got - 2010.06.03 18:54:24.
