data_PCOD9366142
_publ_section_title
;
Structure prediction by ZEFSAII (Michael W. Deem and Ramdas Pophale) SiO2 
 PCOD9366142
Probable space group: A B A 2
;
_chemical_formula_sum "Si O2"
_cell_formula_units_Z 28
_cell_length_a 19.615329
_cell_length_b 13.915504
_cell_length_c 4.620966
_cell_angle_alpha 90.000000
_cell_angle_beta 90.000000
_cell_angle_gamma 90.000000
_cell_volume 1261.325891
_symmetry_space_group_name_H-M "A B A 2"
_symmetry_group_IT_number 41
_symmetry_cell_setting 'orthorhombic'
loop_
_space_group_symop_operation_xyz
x,y,z
-x,-y,z
1/2-x,y,1/2+z
1/2+x,-y,1/2+z
x,1/2+y,1/2+z
-x,1/2-y,1/2+z
1/2-x,1/2+y,z
1/2+x,1/2-y,z
loop_
_atom_site_type_symbol
_atom_site_label
_atom_site_fract_x
_atom_site_fract_y
_atom_site_fract_z
Si Si1 0.296569 0.862996 0.664150
Si Si2 0.500000 0.500000 0.952182
Si Si3 0.404891 0.999857 0.952244
Si Si4 0.296566 0.136655 0.240616
O O1 0.273612 0.884050 0.339224
O O2 0.310138 0.749826 0.702383
O O3 0.358248 0.923312 0.787619
O O4 0.450128 0.451878 0.711671
O O5 0.450036 0.547925 0.192694
O O6 0.358233 0.076338 0.117062
O O7 0.273617 0.115604 0.565551
#
# Coordination Sequence:
#
# PCOD9366142 Si02
#       4
#     8   4   8   8
#     4  10  20  34  58  88 112 141 185 240 303 355
#     4  10  24  36  56  80 108 164 208 224 276 350
#     4  11  20  39  56  79 118 153 194 244 282 339
#     4  10  20  34  58  88 112 141 185 240 303 355
#
# _framework density 22.198861000000001
#
# number of rings (size 3 to 8) (size 9 to 14) (size 15 to 20)
#    0.000    1.714    0.000    5.143    0.000    0.000 
#    0.000    5.714    0.000    0.000    0.000    0.000 
#    0.000    0.000    0.000    0.000    0.000    0.000 
#
# Total GULP energy -78075.080529 kJ/mol
# GULP energy per Si atom -5576.791466 kJ/mol
# Density = 2.214834 g / cm^3
# Si number density = 22.198861 Si / 1000 Ang^3
#
#
#
# Elastic Constant Matrix: (Units=GPa)
#
#
# Indices 1 2 3 4 5 6 
#
# 1 95.4052 43.8980 36.4742 0.0000 0.0000 0.0000
# 2 43.8980 74.0432 23.7701 0.0000 0.0000 0.0000
# 3 36.4742 23.7701 121.5309 0.0000 0.0000 0.0000
# 4 0.0000 0.0000 0.0000 26.9601 0.0000 0.0000
# 5 0.0000 0.0000 0.0000 0.0000 53.8188 0.0000
# 6 0.0000 0.0000 0.0000 0.0000 0.0000 -3.0291
#
#
#
# Elastic Compliance Matrix: (Units=1/GPa)
#
#
# Indices 1 2 3 4 5 6 
#
# 1 0.015389 -0.008153 -0.003024 0.000000 0.000000 0.000000
# 2 -0.008153 0.018730 -0.001216 0.000000 0.000000 0.000000
# 3 -0.003024 -0.001216 0.009374 0.000000 0.000000 0.000000
# 4 0.000000 0.000000 0.000000 0.037092 0.000000 0.000000
# 5 0.000000 0.000000 0.000000 0.000000 0.018581 0.000000
# 6 0.000000 0.000000 0.000000 0.000000 0.000000 -0.330136
#
#
# Mechanical properties :
#
#
# Convention : Reuss Voigt Hill
#
# Bulk Modulus (GPa) = 53.45895 55.47378 54.46637
# Shear Modulus (GPa) = -25.00649 28.00576 1.49964
#
# Velocity S-wave (km/s) = -3.35994 3.55573 0.82281
# Velocity P-wave (km/s) = 3.01361 6.47313 5.04892
#
# Compressibility (1/GPa) = 0.01870594
#
# Stress axis : x y z
#
# Youngs Moduli (GPa) = 64.98129 53.39092 106.67967
#
# Poissons Ratio (x) = 0.43529 0.32260
# Poissons Ratio (y) = 0.52979 0.12977
# Poissons Ratio (z) = 0.19650 0.06495
#
# Static dielectric constant tensor:
#      x y z
#    x 1.890150 0.000000 0.000000 
#    y 0.000000 1.793110 0.000000 
#    z 0.000000 0.000000 1.821800 
# 
# From -- ./inp_files/379.got.cif
#   From: 2010.05.17/outbox.cif.g08.bks.cpg/sg41_1_cif.got.tgz:379.got - 2010.06.03 18:54:24.
