data_PCOD9366296
_publ_section_title
;
Structure prediction by ZEFSAII (Michael W. Deem and Ramdas Pophale) SiO2 
 PCOD9366296
Probable space group: A B A 2
;
_chemical_formula_sum "Si O2"
_cell_formula_units_Z 52
_cell_length_a 8.064342
_cell_length_b 17.683813
_cell_length_c 15.220027
_cell_angle_alpha 90.000000
_cell_angle_beta 90.000000
_cell_angle_gamma 90.000000
_cell_volume 2170.502418
_symmetry_space_group_name_H-M "A B A 2"
_symmetry_group_IT_number 41
_symmetry_cell_setting 'orthorhombic'
loop_
_space_group_symop_operation_xyz
x,y,z
-x,-y,z
1/2-x,y,1/2+z
1/2+x,-y,1/2+z
x,1/2+y,1/2+z
-x,1/2-y,1/2+z
1/2-x,1/2+y,z
1/2+x,1/2-y,z
loop_
_atom_site_type_symbol
_atom_site_label
_atom_site_fract_x
_atom_site_fract_y
_atom_site_fract_z
Si Si1 0.555119 0.617896 0.183050
Si Si2 0.120708 0.641483 0.036496
Si Si3 0.736062 0.983222 0.155142
Si Si4 0.887830 0.241988 0.619976
Si Si5 0.134872 0.675300 0.844969
Si Si6 0.500000 0.000000 0.313006
Si Si7 0.513910 0.170234 0.307074
O O1 0.710591 0.569895 0.150773
O O2 0.402349 0.565221 0.155770
O O3 0.537283 0.697606 0.137007
O O4 0.508345 0.637369 0.284614
O O5 0.125427 0.561594 0.085996
O O6 0.250682 0.699179 0.083360
O O7 0.944534 0.682312 0.047585
O O8 0.163124 0.631781 0.935108
O O9 0.650649 0.978419 0.249323
O O10 0.896868 0.194837 0.713874
O O11 0.313904 0.678765 0.796654
O O12 0.077416 0.760793 0.866830
O O13 0.454495 0.914467 0.346105
#
# Coordination Sequence:
#
# PCOD9366296 Si02
#       7
#     8   8   8   8   8   4   8
#     4   9  20  39  66  88 123 173 224 265 337 412
#     4  11  22  40  62  97 136 163 220 287 334 394
#     4  10  21  39  63  93 122 175 222 272 330 410
#     4  10  20  38  64  90 122 172 227 268 324 414
#     4  11  23  42  64 100 135 172 229 287 350 405
#     4  12  22  38  66  94 128 166 246 280 310 402
#     4  11  23  41  67  95 128 182 234 278 333 428
#
# _framework density 23.957585999999999
#
# number of rings (size 3 to 8) (size 9 to 14) (size 15 to 20)
#    0.000    1.538    3.077    2.769    6.462    0.000 
#    0.000    6.154    0.000    0.000    0.000    0.000 
#    0.000    0.000    0.000    0.000    0.000    0.000 
#
# Total GULP energy -144779.075346 kJ/mol
# GULP energy per Si atom -5568.425975 kJ/mol
# Density = 2.390306 g / cm^3
# Si number density = 23.957586 Si / 1000 Ang^3
#
#
#
# Elastic Constant Matrix: (Units=GPa)
#
#
# Indices 1 2 3 4 5 6 
#
# 1 48.6413 47.6149 3.2088 0.0000 0.0000 0.0000
# 2 47.6149 196.4855 26.0691 0.0000 0.0000 0.0000
# 3 3.2088 26.0691 51.6405 0.0000 0.0000 0.0000
# 4 0.0000 0.0000 0.0000 62.5471 0.0000 0.0000
# 5 0.0000 0.0000 0.0000 0.0000 19.7311 0.0000
# 6 0.0000 0.0000 0.0000 0.0000 0.0000 49.6419
#
#
#
# Elastic Compliance Matrix: (Units=1/GPa)
#
#
# Indices 1 2 3 4 5 6 
#
# 1 0.027099 -0.006799 0.001748 0.000000 0.000000 0.000000
# 2 -0.006799 0.007161 -0.003192 0.000000 0.000000 0.000000
# 3 0.001748 -0.003192 0.020868 0.000000 0.000000 0.000000
# 4 0.000000 0.000000 0.000000 0.015988 0.000000 0.000000
# 5 0.000000 0.000000 0.000000 0.000000 0.050681 0.000000
# 6 0.000000 0.000000 0.000000 0.000000 0.000000 0.020144
#
#
# Mechanical properties :
#
#
# Convention : Reuss Voigt Hill
#
# Bulk Modulus (GPa) = 25.87912 50.06144 37.97028
# Shear Modulus (GPa) = 29.18743 41.04231 35.11487
#
# Velocity S-wave (km/s) = 3.49420 4.14348 3.83261
# Velocity P-wave (km/s) = 5.20622 6.62061 5.95555
#
# Compressibility (1/GPa) = 0.03864119
#
# Stress axis : x y z
#
# Youngs Moduli (GPa) = 36.90209 139.65347 47.92123
#
# Poissons Ratio (x) = 0.94949 -0.08378
# Poissons Ratio (y) = 0.25089 0.15298
# Poissons Ratio (z) = -0.06452 0.44582
#
# Static dielectric constant tensor:
#      x y z
#    x 1.995680 0.000000 0.000000 
#    y 0.000000 1.983460 0.000000 
#    z 0.000000 0.000000 1.912930 
# 
# From -- ./inp_files/9740.got.cif
#   From: 2010.05.17/outbox.cif.g08.bks.cpg/sg41_5_cif.got.tgz:9740.got - 2010.06.03 18:54:24.
