data_PCOD9366590
_publ_section_title
;
Structure prediction by ZEFSAII (Michael W. Deem and Ramdas Pophale) SiO2 
 PCOD9366590
Probable space group: A B A 2
;
_chemical_formula_sum "Si O2"
_cell_formula_units_Z 64
_cell_length_a 21.107668
_cell_length_b 18.712140
_cell_length_c 8.451001
_cell_angle_alpha 90.000000
_cell_angle_beta 90.000000
_cell_angle_gamma 90.000000
_cell_volume 3337.888812
_symmetry_space_group_name_H-M "A B A 2"
_symmetry_group_IT_number 41
_symmetry_cell_setting 'orthorhombic'
loop_
_space_group_symop_operation_xyz
x,y,z
-x,-y,z
1/2-x,y,1/2+z
1/2+x,-y,1/2+z
x,1/2+y,1/2+z
-x,1/2-y,1/2+z
1/2-x,1/2+y,z
1/2+x,1/2-y,z
loop_
_atom_site_type_symbol
_atom_site_label
_atom_site_fract_x
_atom_site_fract_y
_atom_site_fract_z
Si Si1 0.441404 0.449604 0.377210
Si Si2 0.308914 0.211638 0.221892
Si Si3 0.815923 0.953356 0.739578
Si Si4 0.827840 0.795653 0.342970
Si Si5 0.821353 0.960402 0.358655
Si Si6 0.052699 0.296550 0.379035
Si Si7 0.062602 0.956934 0.759896
Si Si8 0.934451 0.210317 0.256068
O O1 0.500000 0.500000 0.329368
O O2 0.376817 0.485323 0.314604
O O3 0.439128 0.450430 0.568619
O O4 0.447528 0.368554 0.321395
O O5 0.319945 0.130554 0.283627
O O6 0.236848 0.231200 0.262934
O O7 0.362974 0.263110 0.290164
O O8 0.317054 0.209167 0.032303
O O9 0.818578 0.957164 0.549259
O O10 0.747767 0.980602 0.795992
O O11 0.874534 0.998871 0.803461
O O12 0.890318 0.750666 0.305338
O O13 0.835995 0.879489 0.302177
O O14 0.061417 0.378188 0.330054
O O15 0.057630 0.290032 0.567407
O O16 0.985634 0.265318 0.324503
O O17 0.000000 0.000000 0.808901
#
# Coordination Sequence:
#
# PCOD9366590 Si02
#       8
#     8   8   8   8   8   8   8   8
#     4  10  21  38  58  79 108 145 183 226 276 326
#     4   9  19  36  57  81 109 143 182 224 271 324
#     4   9  18  34  56  79 106 141 178 219 269 323
#     4   9  19  36  57  81 109 143 182 224 271 324
#     4   9  18  34  56  79 106 141 178 219 269 323
#     4  11  23  38  57  82 112 145 185 230 275 327
#     4  10  21  38  58  79 108 145 183 226 276 326
#     4  11  23  38  57  82 112 145 185 230 275 327
#
# _framework density 19.173797
#
# number of rings (size 3 to 8) (size 9 to 14) (size 15 to 20)
#    0.000    2.250    0.000    2.250    0.000    8.500 
#    0.000   10.000    0.000    0.000    0.000    0.000 
#    0.000    0.000    0.000    0.000    0.000    0.000 
#
# Total GULP energy -178700.099575 kJ/mol
# GULP energy per Si atom -5584.378112 kJ/mol
# Density = 1.913016 g / cm^3
# Si number density = 19.173797 Si / 1000 Ang^3
#
#
#
# Elastic Constant Matrix: (Units=GPa)
#
#
# Indices 1 2 3 4 5 6 
#
# 1 51.7999 -2.7323 2.2368 0.0000 0.0000 0.0000
# 2 -2.7323 35.6306 0.5381 0.0000 0.0000 0.0000
# 3 2.2368 0.5381 5.5638 0.0000 0.0000 0.0000
# 4 0.0000 0.0000 0.0000 -71.0713 0.0000 0.0000
# 5 0.0000 0.0000 0.0000 0.0000 22.2138 0.0000
# 6 0.0000 0.0000 0.0000 0.0000 0.0000 42.0534
#
#
#
# Elastic Compliance Matrix: (Units=1/GPa)
#
#
# Indices 1 2 3 4 5 6 
#
# 1 0.019741 0.001636 -0.008095 0.000000 0.000000 0.000000
# 2 0.001636 0.028242 -0.003389 0.000000 0.000000 0.000000
# 3 -0.008095 -0.003389 0.183314 0.000000 0.000000 0.000000
# 4 0.000000 0.000000 0.000000 -0.014070 0.000000 0.000000
# 5 0.000000 0.000000 0.000000 0.000000 0.045017 0.000000
# 6 0.000000 0.000000 0.000000 0.000000 0.000000 0.023779
#
#
# Mechanical properties :
#
#
# Convention : Reuss Voigt Hill
#
# Bulk Modulus (GPa) = 4.72585 10.34217 7.53401
# Shear Modulus (GPa) = 13.28895 4.83597 9.06246
#
# Velocity S-wave (km/s) = 2.63549 1.58986 2.17641
# Velocity P-wave (km/s) = 3.42508 2.96240 3.20211
#
# Compressibility (1/GPa) = 0.21160203
#
# Stress axis : x y z
#
# Youngs Moduli (GPa) = 50.65625 35.40779 5.45512
#
# Poissons Ratio (x) = -0.05793 0.04416
# Poissons Ratio (y) = -0.08288 0.01849
# Poissons Ratio (z) = 0.41004 0.12000
#
# Static dielectric constant tensor:
#      x y z
#    x 1.655290 0.000000 0.000000 
#    y 0.000000 1.647520 0.000000 
#    z 0.000000 0.000000 1.665830 
# 
# From -- ./inp_files/3490.got.cif
#   From: 2010.05.17/outbox.cif.g08.bks.cpg/sg41_2_cif.got.tgz:3490.got - 2010.06.03 18:54:24.
