data_PCOD9366485
_publ_section_title
;
Structure prediction by ZEFSAII (Michael W. Deem and Ramdas Pophale) SiO2 
 PCOD9366485
Probable space group: A B A 2
;
_chemical_formula_sum "Si O2"
_cell_formula_units_Z 64
_cell_length_a 11.595180
_cell_length_b 18.114293
_cell_length_c 14.162448
_cell_angle_alpha 90.000000
_cell_angle_beta 90.000000
_cell_angle_gamma 90.000000
_cell_volume 2974.659163
_symmetry_space_group_name_H-M "A B A 2"
_symmetry_group_IT_number 41
_symmetry_cell_setting 'orthorhombic'
loop_
_space_group_symop_operation_xyz
x,y,z
-x,-y,z
1/2-x,y,1/2+z
1/2+x,-y,1/2+z
x,1/2+y,1/2+z
-x,1/2-y,1/2+z
1/2-x,1/2+y,z
1/2+x,1/2-y,z
loop_
_atom_site_type_symbol
_atom_site_label
_atom_site_fract_x
_atom_site_fract_y
_atom_site_fract_z
Si Si1 0.430767 0.575584 0.830540
Si Si2 0.160558 0.060783 0.334310
Si Si3 0.382509 0.312241 0.125504
Si Si4 0.473800 0.656525 0.659502
Si Si5 0.590106 0.609052 0.312604
Si Si6 0.064701 0.576815 0.556773
Si Si7 0.677304 0.957647 0.055986
Si Si8 0.329293 0.867474 0.023315
O O1 0.500000 0.500000 0.808356
O O2 0.293444 0.574997 0.806653
O O3 0.488189 0.640744 0.770019
O O4 0.438358 0.583633 0.943165
O O5 0.157204 0.067360 0.448172
O O6 0.049595 0.107604 0.301094
O O7 0.132010 0.975801 0.309960
O O8 0.392730 0.225527 0.139097
O O9 0.351541 0.347631 0.226901
O O10 0.501273 0.352907 0.098699
O O11 0.295613 0.334463 0.042621
O O12 0.417796 0.581548 0.618803
O O13 0.587410 0.670033 0.599073
O O14 0.625525 0.638299 0.416343
O O15 0.196282 0.567725 0.587417
O O16 0.000000 0.500000 0.582170
O O17 0.674294 0.045897 0.050926
#
# Coordination Sequence:
#
# PCOD9366485 Si02
#       8
#     8   8   8   8   8   8   8   8
#     4  10  23  40  69 101 135 179 227 286 331 401
#     4   9  20  40  69 101 126 171 235 281 333 386
#     4  12  29  42  66 104 138 182 221 280 351 414
#     4  12  27  42  64 103 138 181 223 272 350 415
#     4  10  23  42  67  99 133 174 227 286 334 409
#     4  10  22  43  68  99 132 172 230 281 334 390
#     4  10  20  42  71  97 127 174 231 280 326 399
#     4  11  24  47  71  95 134 179 232 283 336 407
#
# _framework density 21.515070000000001
#
# number of rings (size 3 to 8) (size 9 to 14) (size 15 to 20)
#    0.000    1.500    2.500    1.125   10.500    1.000 
#    2.250    0.000    0.000    0.000    0.000    0.000 
#    0.000    0.000    0.000    0.000    0.000    0.000 
#
# Total GULP energy -178864.611280 kJ/mol
# GULP energy per Si atom -5589.519102 kJ/mol
# Density = 2.146610 g / cm^3
# Si number density = 21.515070 Si / 1000 Ang^3
#
#
#
# Elastic Constant Matrix: (Units=GPa)
#
#
# Indices 1 2 3 4 5 6 
#
# 1 72.9603 -2.7856 32.4449 0.0000 0.0000 0.0000
# 2 -2.7856 44.3016 20.4613 0.0000 0.0000 0.0000
# 3 32.4449 20.4613 76.7506 0.0000 0.0000 0.0000
# 4 0.0000 0.0000 0.0000 3.3898 0.0000 0.0000
# 5 0.0000 0.0000 0.0000 0.0000 24.5095 0.0000
# 6 0.0000 0.0000 0.0000 0.0000 0.0000 21.6807
#
#
#
# Elastic Compliance Matrix: (Units=1/GPa)
#
#
# Indices 1 2 3 4 5 6 
#
# 1 0.017896 0.005268 -0.008970 0.000000 0.000000 0.000000
# 2 0.005268 0.027293 -0.009503 0.000000 0.000000 0.000000
# 3 -0.008970 -0.009503 0.019354 0.000000 0.000000 0.000000
# 4 0.000000 0.000000 0.000000 0.295003 0.000000 0.000000
# 5 0.000000 0.000000 0.000000 0.000000 0.040800 0.000000
# 6 0.000000 0.000000 0.000000 0.000000 0.000000 0.046124
#
#
# Mechanical properties :
#
#
# Convention : Reuss Voigt Hill
#
# Bulk Modulus (GPa) = 26.22341 32.69487 29.45914
# Shear Modulus (GPa) = 10.29672 19.50879 14.90276
#
# Velocity S-wave (km/s) = 2.19002 3.01450 2.63471
# Velocity P-wave (km/s) = 4.31391 5.22929 4.79350
#
# Compressibility (1/GPa) = 0.03813387
#
# Stress axis : x y z
#
# Youngs Moduli (GPa) = 55.87864 36.63954 51.66778
#
# Poissons Ratio (x) = -0.19302 0.46344
# Poissons Ratio (y) = -0.29437 0.49100
# Poissons Ratio (z) = 0.50121 0.34819
#
# Static dielectric constant tensor:
#      x y z
#    x 1.792270 0.000000 0.000000 
#    y 0.000000 1.741890 0.000000 
#    z 0.000000 0.000000 1.797200 
# 
# From -- ./inp_files/8092.got.cif
#   From: 2010.05.17/outbox.cif.g08.bks.cpg/sg41_5_cif.got.tgz:8092.got - 2010.06.03 18:54:24.
