data_PCOD9366931
_publ_section_title
;
Structure prediction by ZEFSAII (Michael W. Deem and Ramdas Pophale) SiO2 
 PCOD9366931
Probable space group: A B A 2
;
_chemical_formula_sum "Si O2"
_cell_formula_units_Z 52
_cell_length_a 23.334043
_cell_length_b 7.960427
_cell_length_c 12.214570
_cell_angle_alpha 90.000000
_cell_angle_beta 90.000000
_cell_angle_gamma 90.000000
_cell_volume 2268.843502
_symmetry_space_group_name_H-M "A B A 2"
_symmetry_group_IT_number 41
_symmetry_cell_setting 'orthorhombic'
loop_
_space_group_symop_operation_xyz
x,y,z
-x,-y,z
1/2-x,y,1/2+z
1/2+x,-y,1/2+z
x,1/2+y,1/2+z
-x,1/2-y,1/2+z
1/2-x,1/2+y,z
1/2+x,1/2-y,z
loop_
_atom_site_type_symbol
_atom_site_label
_atom_site_fract_x
_atom_site_fract_y
_atom_site_fract_z
Si Si1 0.669298 0.430922 0.259260
Si Si2 0.500000 0.500000 0.999748
Si Si3 0.580585 0.769813 0.611953
Si Si4 0.114839 0.573372 0.397278
Si Si5 0.322538 0.760081 0.469032
Si Si6 0.760700 0.636454 0.145282
Si Si7 0.627670 0.911554 0.155681
O O1 0.607358 0.388733 0.206882
O O2 0.673861 0.397021 0.387588
O O3 0.704195 0.588426 0.214465
O O4 0.706473 0.282584 0.205546
O O5 0.445366 0.480176 0.921502
O O6 0.519130 0.343050 0.075460
O O7 0.586810 0.574419 0.639673
O O8 0.618737 0.804013 0.501642
O O9 0.161932 0.428508 0.403125
O O10 0.116314 0.652907 0.277963
O O11 0.263044 0.802523 0.528514
O O12 0.371455 0.726465 0.560879
O O13 0.807854 0.488868 0.142583
#
# Coordination Sequence:
#
# PCOD9366931 Si02
#       7
#     8   4   8   8   8   8   8
#     4  11  23  38  62  91 130 166 213 253 301 383
#     4   8  20  44  72  84 122 168 202 270 346 350
#     4   9  20  43  65  89 124 163 205 268 314 374
#     4  10  21  45  65  87 126 164 206 271 309 377
#     4  12  24  39  62  93 130 167 211 251 310 373
#     4  11  22  38  56  92 128 174 197 248 308 365
#     4  11  24  39  62  97 127 159 216 256 301 385
#
# _framework density 22.919166000000001
#
# number of rings (size 3 to 8) (size 9 to 14) (size 15 to 20)
#    0.923    0.615    6.154    0.000    2.154    3.692 
#    2.769    1.538    0.000    0.000    0.000    0.000 
#    0.000    0.000    0.000    0.000    0.000    0.000 
#
# Total GULP energy -145032.828352 kJ/mol
# GULP energy per Si atom -5578.185706 kJ/mol
# Density = 2.286700 g / cm^3
# Si number density = 22.919166 Si / 1000 Ang^3
#
#
#
# Elastic Constant Matrix: (Units=GPa)
#
#
# Indices 1 2 3 4 5 6 
#
# 1 45.9883 -7.0451 16.3401 0.0000 0.0000 0.0000
# 2 -7.0451 13.2919 -8.1176 0.0000 0.0000 0.0000
# 3 16.3401 -8.1176 130.8588 0.0000 0.0000 0.0000
# 4 0.0000 0.0000 0.0000 27.9853 0.0000 0.0000
# 5 0.0000 0.0000 0.0000 0.0000 25.3328 0.0000
# 6 0.0000 0.0000 0.0000 0.0000 0.0000 19.0732
#
#
#
# Elastic Compliance Matrix: (Units=1/GPa)
#
#
# Indices 1 2 3 4 5 6 
#
# 1 0.024329 0.011474 -0.002326 0.000000 0.000000 0.000000
# 2 0.011474 0.083608 0.003754 0.000000 0.000000 0.000000
# 3 -0.002326 0.003754 0.008165 0.000000 0.000000 0.000000
# 4 0.000000 0.000000 0.000000 0.035733 0.000000 0.000000
# 5 0.000000 0.000000 0.000000 0.000000 0.039475 0.000000
# 6 0.000000 0.000000 0.000000 0.000000 0.000000 0.052430
#
#
# Mechanical properties :
#
#
# Convention : Reuss Voigt Hill
#
# Bulk Modulus (GPa) = 7.04691 21.38818 14.21754
# Shear Modulus (GPa) = 18.85106 27.07569 22.96338
#
# Velocity S-wave (km/s) = 2.87104 3.44081 3.16876
# Velocity P-wave (km/s) = 3.75125 5.01377 4.42774
#
# Compressibility (1/GPa) = 0.14190617
#
# Stress axis : x y z
#
# Youngs Moduli (GPa) = 41.10324 11.96060 122.47189
#
# Poissons Ratio (x) = -0.13724 0.28488
# Poissons Ratio (y) = -0.47164 -0.45972
# Poissons Ratio (z) = 0.09561 -0.04490
#
# Static dielectric constant tensor:
#      x y z
#    x 1.880060 0.000000 0.000000 
#    y 0.000000 1.948090 0.000000 
#    z 0.000000 0.000000 1.903700 
# 
# From -- ./inp_files/6537.got.cif
#   From: 2010.05.17/outbox.cif.g08.bks.cpg/sg41_4_cif.got.tgz:6537.got - 2010.06.03 18:54:24.
