data_PCOD9366553
_publ_section_title
;
Structure prediction by ZEFSAII (Michael W. Deem and Ramdas Pophale) SiO2 
 PCOD9366553
Probable space group: A B A 2
;
_chemical_formula_sum "Si O2"
_cell_formula_units_Z 48
_cell_length_a 10.148758
_cell_length_b 11.401434
_cell_length_c 19.877582
_cell_angle_alpha 90.000000
_cell_angle_beta 90.000000
_cell_angle_gamma 90.000000
_cell_volume 2300.042855
_symmetry_space_group_name_H-M "A B A 2"
_symmetry_group_IT_number 41
_symmetry_cell_setting 'orthorhombic'
loop_
_space_group_symop_operation_xyz
x,y,z
-x,-y,z
1/2-x,y,1/2+z
1/2+x,-y,1/2+z
x,1/2+y,1/2+z
-x,1/2-y,1/2+z
1/2-x,1/2+y,z
1/2+x,1/2-y,z
loop_
_atom_site_type_symbol
_atom_site_label
_atom_site_fract_x
_atom_site_fract_y
_atom_site_fract_z
Si Si1 0.536707 0.870771 0.667370
Si Si2 0.625387 0.574466 0.528521
Si Si3 0.575128 0.751175 0.968645
Si Si4 0.216651 0.263234 0.608173
Si Si5 0.000000 0.500000 0.414771
Si Si6 0.782933 0.445988 0.897135
Si Si7 0.000000 0.500000 0.798381
O O1 0.674479 0.822480 0.639429
O O2 0.415937 0.785209 0.649588
O O3 0.535843 0.895216 0.747190
O O4 0.500000 0.000000 0.637841
O O5 0.500000 0.500000 0.551019
O O6 0.560362 0.684360 0.488829
O O7 0.708014 0.615073 0.592118
O O8 0.701688 0.503062 0.471315
O O9 0.544068 0.615869 0.955504
O O10 0.648825 0.818556 0.907813
O O11 0.667231 0.768067 0.033606
O O12 0.868774 0.455444 0.376745
O O13 0.875512 0.517390 0.846411
#
# Coordination Sequence:
#
# PCOD9366553 Si02
#       7
#     8   8   8   8   4   8   4
#     4  10  28  44  68  95 138 193 227 286 338 416
#     4  10  21  36  66 101 135 174 207 292 355 411
#     4  11  23  39  69 108 143 168 218 297 361 422
#     4  12  22  42  66 106 134 171 233 283 363 413
#     4  12  26  37  72 114 131 182 224 284 378 412
#     4  11  23  45  67 101 141 183 230 283 358 415
#     4  10  24  53  64  90 147 192 242 280 336 418
#
# _framework density 20.869174999999998
#
# number of rings (size 3 to 8) (size 9 to 14) (size 15 to 20)
#    0.500    0.667    5.833    1.000    5.833    0.000 
#    6.000    0.000    0.000    0.000    0.000    0.000 
#    0.000    0.000    0.000    0.000    0.000    0.000 
#
# Total GULP energy -133834.366445 kJ/mol
# GULP energy per Si atom -5576.431935 kJ/mol
# Density = 2.082168 g / cm^3
# Si number density = 20.869175 Si / 1000 Ang^3
#
#
#
# Elastic Constant Matrix: (Units=GPa)
#
#
# Indices 1 2 3 4 5 6 
#
# 1 143.1660 31.3160 21.0647 0.0000 0.0000 0.0000
# 2 31.3160 99.8588 10.7742 0.0000 0.0000 0.0000
# 3 21.0647 10.7742 49.5062 0.0000 0.0000 0.0000
# 4 0.0000 0.0000 0.0000 15.4928 0.0000 0.0000
# 5 0.0000 0.0000 0.0000 0.0000 88.1177 0.0000
# 6 0.0000 0.0000 0.0000 0.0000 0.0000 9.6141
#
#
#
# Elastic Compliance Matrix: (Units=1/GPa)
#
#
# Indices 1 2 3 4 5 6 
#
# 1 0.007882 -0.002161 -0.002883 0.000000 0.000000 0.000000
# 2 -0.002161 0.010847 -0.001441 0.000000 0.000000 0.000000
# 3 -0.002883 -0.001441 0.021740 0.000000 0.000000 0.000000
# 4 0.000000 0.000000 0.000000 0.064546 0.000000 0.000000
# 5 0.000000 0.000000 0.000000 0.000000 0.011348 0.000000
# 6 0.000000 0.000000 0.000000 0.000000 0.000000 0.104014
#
#
# Mechanical properties :
#
#
# Convention : Reuss Voigt Hill
#
# Bulk Modulus (GPa) = 36.36604 46.53787 41.45195
# Shear Modulus (GPa) = 20.61731 37.93666 29.27698
#
# Velocity S-wave (km/s) = 3.14655 4.26823 3.74957
# Velocity P-wave (km/s) = 5.53756 6.82925 6.21704
#
# Compressibility (1/GPa) = 0.02749818
#
# Stress axis : x y z
#
# Youngs Moduli (GPa) = 126.87505 92.18933 45.99798
#
# Poissons Ratio (x) = 0.19919 0.13263
# Poissons Ratio (y) = 0.27413 0.06630
# Poissons Ratio (z) = 0.36584 0.13288
#
# Static dielectric constant tensor:
#      x y z
#    x 1.699430 0.000000 0.000000 
#    y 0.000000 1.863330 0.000000 
#    z 0.000000 0.000000 1.732750 
# 
# From -- ./inp_files/11375.got.cif
#   From: 2010.05.17/outbox.cif.g08.bks.cpg/sg41_6_cif.got.tgz:11375.got - 2010.06.03 18:54:24.
