data_PCOD9366842
_publ_section_title
;
Structure prediction by ZEFSAII (Michael W. Deem and Ramdas Pophale) SiO2 
 PCOD9366842
Probable space group: A B A 2
;
_chemical_formula_sum "Si O2"
_cell_formula_units_Z 64
_cell_length_a 9.814895
_cell_length_b 25.682911
_cell_length_c 12.911012
_cell_angle_alpha 90.000000
_cell_angle_beta 90.000000
_cell_angle_gamma 90.000000
_cell_volume 3254.544315
_symmetry_space_group_name_H-M "A B A 2"
_symmetry_group_IT_number 41
_symmetry_cell_setting 'orthorhombic'
loop_
_space_group_symop_operation_xyz
x,y,z
-x,-y,z
1/2-x,y,1/2+z
1/2+x,-y,1/2+z
x,1/2+y,1/2+z
-x,1/2-y,1/2+z
1/2-x,1/2+y,z
1/2+x,1/2-y,z
loop_
_atom_site_type_symbol
_atom_site_label
_atom_site_fract_x
_atom_site_fract_y
_atom_site_fract_z
Si Si1 0.428869 0.197526 0.005040
Si Si2 0.712959 0.722893 0.601537
Si Si3 0.601925 0.632946 0.177949
Si Si4 0.666061 0.588831 0.801712
Si Si5 0.889368 0.543422 0.520041
Si Si6 0.654517 0.493342 0.647793
Si Si7 0.107460 0.623544 0.190897
Si Si8 0.151067 0.694821 0.765649
O O1 0.319538 0.237366 0.052067
O O2 0.580355 0.217346 0.030552
O O3 0.413463 0.145481 0.074664
O O4 0.395514 0.194115 0.884315
O O5 0.791101 0.668733 0.615599
O O6 0.670657 0.748641 0.712188
O O7 0.690569 0.616231 0.277728
O O8 0.468780 0.665793 0.203118
O O9 0.565717 0.581773 0.112525
O O10 0.640719 0.578683 0.921172
O O11 0.670044 0.532926 0.743845
O O12 0.537996 0.618519 0.748830
O O13 0.757856 0.512768 0.561258
O O14 0.000000 0.500000 0.493839
O O15 0.500000 0.500000 0.609746
O O16 0.671021 0.434009 0.683209
O O17 0.209382 0.662614 0.249408
#
# Coordination Sequence:
#
# PCOD9366842 Si02
#       8
#     8   8   8   8   8   8   8   8
#     4  11  25  41  69  90 127 170 208 266 328 379
#     4  11  24  46  60  96 130 161 216 268 320 386
#     4  11  24  42  64  94 130 169 215 271 320 392
#     4  10  22  39  66  90 128 173 208 262 328 381
#     4  11  23  40  64  95 126 172 217 265 324 389
#     4   9  20  39  62  88 130 165 206 268 314 379
#     4  10  21  42  62  95 130 162 215 265 315 380
#     4  11  26  41  66  95 125 168 214 267 321 383
#
# _framework density 19.664812000000001
#
# number of rings (size 3 to 8) (size 9 to 14) (size 15 to 20)
#    0.000    1.500    2.500    1.875    3.500    4.000 
#    0.000    2.500    0.000    0.000    0.000    0.000 
#    0.000    0.000    0.000    0.000    0.000    0.000 
#
# Total GULP energy -178770.282618 kJ/mol
# GULP energy per Si atom -5586.571332 kJ/mol
# Density = 1.962005 g / cm^3
# Si number density = 19.664812 Si / 1000 Ang^3
#
#
#
# Elastic Constant Matrix: (Units=GPa)
#
#
# Indices 1 2 3 4 5 6 
#
# 1 11.7122 -10.5903 -26.1386 0.0000 0.0000 0.0000
# 2 -10.5903 46.0807 -25.6932 0.0000 0.0000 0.0000
# 3 -26.1386 -25.6932 41.6651 0.0000 0.0000 0.0000
# 4 0.0000 0.0000 0.0000 15.1652 0.0000 0.0000
# 5 0.0000 0.0000 0.0000 0.0000 30.4678 0.0000
# 6 0.0000 0.0000 0.0000 0.0000 0.0000 28.1598
#
#
#
# Elastic Compliance Matrix: (Units=1/GPa)
#
#
# Indices 1 2 3 4 5 6 
#
# 1 -0.035363 -0.031237 -0.041447 0.000000 0.000000 0.000000
# 2 -0.031237 0.005480 -0.016217 0.000000 0.000000 0.000000
# 3 -0.041447 -0.016217 -0.012001 0.000000 0.000000 0.000000
# 4 0.000000 0.000000 0.000000 0.065940 0.000000 0.000000
# 5 0.000000 0.000000 0.000000 0.000000 0.032822 0.000000
# 6 0.000000 0.000000 0.000000 0.000000 0.000000 0.035512
#
#
# Mechanical properties :
#
#
# Convention : Reuss Voigt Hill
#
# Bulk Modulus (GPa) = -4.55196 -2.82067 -3.68631
# Shear Modulus (GPa) = 25.38547 25.55056 25.46802
#
# Velocity S-wave (km/s) = 3.59682 3.60850 3.60266
# Velocity P-wave (km/s) = 3.86389 3.99051 3.92771
#
# Compressibility (1/GPa) = -0.21968576
#
# Stress axis : x y z
#
# Youngs Moduli (GPa) = -28.27840 182.47691 -83.32418
#
# Poissons Ratio (x) = 5.69999 -3.45356
# Poissons Ratio (y) = -0.88333 -1.35127
# Poissons Ratio (z) = -1.17206 2.95922
#
# Static dielectric constant tensor:
#      x y z
#    x 1.672940 0.000000 0.000000 
#    y 0.000000 1.685400 0.000000 
#    z 0.000000 0.000000 1.668770 
# 
# From -- ./inp_files/4617.got.cif
#   From: 2010.05.17/outbox.cif.g08.bks.cpg/sg41_3_cif.got.tgz:4617.got - 2010.06.03 18:54:24.
