data_PCOD9366245
_publ_section_title
;
Structure prediction by ZEFSAII (Michael W. Deem and Ramdas Pophale) SiO2 
 PCOD9366245
Probable space group: A B A 2
;
_chemical_formula_sum "Si O2"
_cell_formula_units_Z 36
_cell_length_a 13.553635
_cell_length_b 17.000029
_cell_length_c 7.024581
_cell_angle_alpha 90.000000
_cell_angle_beta 90.000000
_cell_angle_gamma 90.000000
_cell_volume 1618.549078
_symmetry_space_group_name_H-M "A B A 2"
_symmetry_group_IT_number 41
_symmetry_cell_setting 'orthorhombic'
loop_
_space_group_symop_operation_xyz
x,y,z
-x,-y,z
1/2-x,y,1/2+z
1/2+x,-y,1/2+z
x,1/2+y,1/2+z
-x,1/2-y,1/2+z
1/2-x,1/2+y,z
1/2+x,1/2-y,z
loop_
_atom_site_type_symbol
_atom_site_label
_atom_site_fract_x
_atom_site_fract_y
_atom_site_fract_z
Si Si1 0.491791 0.131903 0.605690
Si Si2 0.835053 0.731002 0.529889
Si Si3 0.386531 0.286034 0.591995
Si Si4 0.576496 0.391153 0.513600
Si Si5 0.000000 0.500000 0.298774
O O1 0.590872 0.180764 0.661311
O O2 0.421766 0.200205 0.521700
O O3 0.435078 0.094209 0.786925
O O4 0.521845 0.070033 0.445676
O O5 0.724825 0.699406 0.528988
O O6 0.878930 0.723626 0.319353
O O7 0.843055 0.824639 0.565778
O O8 0.471010 0.349277 0.555843
O O9 0.581713 0.465949 0.651941
#
# Coordination Sequence:
#
# PCOD9366245 Si02
#       5
#     8   8   8   8   4
#     4  10  22  39  62  89 119 158 198 244 299 348
#     4  10  20  37  65  92 115 152 205 248 286 353
#     4  10  20  37  65  92 115 152 205 248 286 353
#     4  10  22  39  62  89 119 158 198 244 299 348
#     4  12  22  40  60  86 124 164 186 252 296 362
#
# _framework density 22.242142000000001
#
# number of rings (size 3 to 8) (size 9 to 14) (size 15 to 20)
#    0.000    1.778    2.222    2.000    6.222    0.000 
#    0.000    2.222    0.000    0.000    0.000    0.000 
#    0.000    0.000    0.000    0.000    0.000    0.000 
#
# Total GULP energy -100418.205980 kJ/mol
# GULP energy per Si atom -5578.789221 kJ/mol
# Density = 2.219152 g / cm^3
# Si number density = 22.242142 Si / 1000 Ang^3
#
#
#
# Elastic Constant Matrix: (Units=GPa)
#
#
# Indices 1 2 3 4 5 6 
#
# 1 68.5143 -13.0959 -13.9819 0.0000 0.0000 0.0000
# 2 -13.0959 77.4801 26.2164 0.0000 0.0000 0.0000
# 3 -13.9819 26.2164 88.4825 0.0000 0.0000 0.0000
# 4 0.0000 0.0000 0.0000 50.4297 0.0000 0.0000
# 5 0.0000 0.0000 0.0000 0.0000 17.7949 0.0000
# 6 0.0000 0.0000 0.0000 0.0000 0.0000 10.4287
#
#
#
# Elastic Compliance Matrix: (Units=1/GPa)
#
#
# Indices 1 2 3 4 5 6 
#
# 1 0.015348 0.001971 0.001841 0.000000 0.000000 0.000000
# 2 0.001971 0.014598 -0.004014 0.000000 0.000000 0.000000
# 3 0.001841 -0.004014 0.012782 0.000000 0.000000 0.000000
# 4 0.000000 0.000000 0.000000 0.019830 0.000000 0.000000
# 5 0.000000 0.000000 0.000000 0.000000 0.056196 0.000000
# 6 0.000000 0.000000 0.000000 0.000000 0.000000 0.095890
#
#
# Mechanical properties :
#
#
# Convention : Reuss Voigt Hill
#
# Bulk Modulus (GPa) = 23.62666 25.86155 24.74411
# Shear Modulus (GPa) = 21.81942 31.41986 26.61964
#
# Velocity S-wave (km/s) = 3.13548 3.76257 3.46325
# Velocity P-wave (km/s) = 4.87379 5.52525 5.20972
#
# Compressibility (1/GPa) = 0.04232507
#
# Stress axis : x y z
#
# Youngs Moduli (GPa) = 65.15503 68.50352 78.23605
#
# Poissons Ratio (x) = -0.13503 -0.14405
# Poissons Ratio (y) = -0.12843 0.31401
# Poissons Ratio (z) = -0.11997 0.27495
#
# Static dielectric constant tensor:
#      x y z
#    x 1.793060 0.000000 0.000000 
#    y 0.000000 1.879610 0.000000 
#    z 0.000000 0.000000 1.921740 
# 
# From -- ./inp_files/2445.got.cif
#   From: 2010.05.17/outbox.cif.g08.bks.cpg/sg41_2_cif.got.tgz:2445.got - 2010.06.03 18:54:24.
