data_PCOD9366937
_publ_section_title
;
Structure prediction by ZEFSAII (Michael W. Deem and Ramdas Pophale) SiO2 
 PCOD9366937
Probable space group: A B A 2
;
_chemical_formula_sum "Si O2"
_cell_formula_units_Z 48
_cell_length_a 9.341136
_cell_length_b 14.174536
_cell_length_c 16.908017
_cell_angle_alpha 90.000000
_cell_angle_beta 90.000000
_cell_angle_gamma 90.000000
_cell_volume 2238.727439
_symmetry_space_group_name_H-M "A B A 2"
_symmetry_group_IT_number 41
_symmetry_cell_setting 'orthorhombic'
loop_
_space_group_symop_operation_xyz
x,y,z
-x,-y,z
1/2-x,y,1/2+z
1/2+x,-y,1/2+z
x,1/2+y,1/2+z
-x,1/2-y,1/2+z
1/2-x,1/2+y,z
1/2+x,1/2-y,z
loop_
_atom_site_type_symbol
_atom_site_label
_atom_site_fract_x
_atom_site_fract_y
_atom_site_fract_z
Si Si1 0.651580 0.728500 0.388960
Si Si2 0.632654 0.931805 0.684557
Si Si3 0.871795 0.570329 0.166700
Si Si4 0.625963 0.379608 0.013215
Si Si5 0.293836 0.407085 0.003558
Si Si6 0.099419 0.754281 0.778688
O O1 0.694117 0.805812 0.454089
O O2 0.694145 0.633499 0.434314
O O3 0.494212 0.753290 0.358273
O O4 0.739221 0.734143 0.308133
O O5 0.677325 0.878332 0.603890
O O6 0.584548 0.849272 0.741943
O O7 0.500000 0.000000 0.663778
O O8 0.758118 0.002094 0.712065
O O9 0.925572 0.659067 0.218396
O O10 0.000000 0.500000 0.144978
O O11 0.789642 0.602160 0.086977
O O12 0.453743 0.363855 0.012207
O O13 0.669547 0.484052 0.986588
#
# Coordination Sequence:
#
# PCOD9366937 Si02
#       6
#     8   8   8   8   8   8
#     4  12  25  42  67 100 141 177 213 272 348 402
#     4  11  22  45  71  93 129 181 228 277 329 394
#     4  11  24  45  70 100 132 176 230 280 335 393
#     4  10  21  45  71  94 132 177 225 281 327 386
#     4  10  22  45  69  96 130 177 228 275 330 393
#     4  12  27  42  64 104 141 175 220 276 340 412
#
# _framework density 21.440750999999999
#
# number of rings (size 3 to 8) (size 9 to 14) (size 15 to 20)
#    0.000    1.000    5.000    3.000    0.000    6.667 
#    9.000    0.000    0.000    0.000    0.000    0.000 
#    0.000    0.000    0.000    0.000    0.000    0.000 
#
# Total GULP energy -133942.131043 kJ/mol
# GULP energy per Si atom -5580.922127 kJ/mol
# Density = 2.139195 g / cm^3
# Si number density = 21.440751 Si / 1000 Ang^3
#
#
#
# Elastic Constant Matrix: (Units=GPa)
#
#
# Indices 1 2 3 4 5 6 
#
# 1 57.9798 11.8607 5.8596 0.0000 0.0000 0.0000
# 2 11.8607 71.4520 53.7956 0.0000 0.0000 0.0000
# 3 5.8596 53.7956 77.9574 0.0000 0.0000 0.0000
# 4 0.0000 0.0000 0.0000 231.8077 0.0000 0.0000
# 5 0.0000 0.0000 0.0000 0.0000 35.2581 0.0000
# 6 0.0000 0.0000 0.0000 0.0000 0.0000 17.7049
#
#
#
# Elastic Compliance Matrix: (Units=1/GPa)
#
#
# Indices 1 2 3 4 5 6 
#
# 1 0.017934 -0.004084 0.001470 0.000000 0.000000 0.000000
# 2 -0.004084 0.030059 -0.020436 0.000000 0.000000 0.000000
# 3 0.001470 -0.020436 0.026819 0.000000 0.000000 0.000000
# 4 0.000000 0.000000 0.000000 0.004314 0.000000 0.000000
# 5 0.000000 0.000000 0.000000 0.000000 0.028362 0.000000
# 6 0.000000 0.000000 0.000000 0.000000 0.000000 0.056482
#
#
# Mechanical properties :
#
#
# Convention : Reuss Voigt Hill
#
# Bulk Modulus (GPa) = 34.82694 38.93565 36.88129
# Shear Modulus (GPa) = 22.76447 66.01238 44.38842
#
# Velocity S-wave (km/s) = 3.26197 5.55474 4.55497
# Velocity P-wave (km/s) = 5.51959 7.70320 6.70094
#
# Compressibility (1/GPa) = 0.02871341
#
# Stress axis : x y z
#
# Youngs Moduli (GPa) = 55.75928 33.26763 37.28692
#
# Poissons Ratio (x) = 0.13586 -0.05481
# Poissons Ratio (y) = 0.22771 0.76199
# Poissons Ratio (z) = -0.08197 0.67985
#
# Static dielectric constant tensor:
#      x y z
#    x 1.794150 0.000000 0.000000 
#    y 0.000000 1.770720 0.000000 
#    z 0.000000 0.000000 1.746440 
# 
# From -- ./inp_files/9649.got.cif
#   From: 2010.05.17/outbox.cif.g08.bks.cpg/sg41_5_cif.got.tgz:9649.got - 2010.06.03 18:54:24.
