data_PCOD9366117
_publ_section_title
;
Structure prediction by ZEFSAII (Michael W. Deem and Ramdas Pophale) SiO2 
 PCOD9366117
Probable space group: A B A 2
;
_chemical_formula_sum "Si O2"
_cell_formula_units_Z 52
_cell_length_a 16.177818
_cell_length_b 21.988359
_cell_length_c 5.920699
_cell_angle_alpha 90.000000
_cell_angle_beta 90.000000
_cell_angle_gamma 90.000000
_cell_volume 2106.132777
_symmetry_space_group_name_H-M "A B A 2"
_symmetry_group_IT_number 41
_symmetry_cell_setting 'orthorhombic'
loop_
_space_group_symop_operation_xyz
x,y,z
-x,-y,z
1/2-x,y,1/2+z
1/2+x,-y,1/2+z
x,1/2+y,1/2+z
-x,1/2-y,1/2+z
1/2-x,1/2+y,z
1/2+x,1/2-y,z
loop_
_atom_site_type_symbol
_atom_site_label
_atom_site_fract_x
_atom_site_fract_y
_atom_site_fract_z
Si Si1 0.335044 0.114403 0.372180
Si Si2 0.065469 0.899104 0.625155
Si Si3 0.369952 0.798430 0.375170
Si Si4 0.000000 0.000000 0.338473
Si Si5 0.647556 0.019371 0.502659
Si Si6 0.852757 0.343991 0.869499
Si Si7 0.303171 0.366721 0.254720
O O1 0.317955 0.041570 0.389705
O O2 0.246421 0.146889 0.370095
O O3 0.377757 0.130818 0.615801
O O4 0.374006 0.131811 0.126942
O O5 0.058086 0.833226 0.739901
O O6 0.142880 0.888566 0.462517
O O7 0.002070 0.938640 0.483084
O O8 0.093235 0.943972 0.823401
O O9 0.373183 0.727121 0.358502
O O10 0.367827 0.822070 0.629645
O O11 0.278970 0.826936 0.302427
O O12 0.082895 0.999881 0.193656
O O13 0.707207 0.070854 0.608472
#
# Coordination Sequence:
#
# PCOD9366117 Si02
#       7
#     8   8   8   4   8   8   8
#     4  10  22  38  59  91 132 182 208 255 324 405
#     4  10  22  37  64  92 123 167 207 287 327 393
#     4  11  20  35  59  96 134 169 214 258 332 405
#     4  10  22  44  64  90 116 164 234 278 340 384
#     4  10  23  39  60  93 123 168 222 274 339 390
#     4  10  23  38  59  92 140 181 206 251 323 413
#     4  10  20  32  57  93 128 165 201 269 331 394
#
# _framework density 24.689803000000001
#
# number of rings (size 3 to 8) (size 9 to 14) (size 15 to 20)
#    0.000    1.846    1.538    2.308    6.462    4.923 
#    0.000    0.000    0.000    0.000   16.000    0.000 
#    0.000    0.000    0.000    0.000    0.000    0.000 
#
# Total GULP energy -144995.721602 kJ/mol
# GULP energy per Si atom -5576.758523 kJ/mol
# Density = 2.463361 g / cm^3
# Si number density = 24.689803 Si / 1000 Ang^3
#
#
#
# Elastic Constant Matrix: (Units=GPa)
#
#
# Indices 1 2 3 4 5 6 
#
# 1 39.2274 -1.8534 21.3683 0.0000 0.0000 0.0000
# 2 -1.8534 151.6334 54.3101 0.0000 0.0000 0.0000
# 3 21.3683 54.3101 159.3924 0.0000 0.0000 0.0000
# 4 0.0000 0.0000 0.0000 -217.8101 0.0000 0.0000
# 5 0.0000 0.0000 0.0000 0.0000 -15.6760 0.0000
# 6 0.0000 0.0000 0.0000 0.0000 0.0000 -11.4139
#
#
#
# Elastic Compliance Matrix: (Units=1/GPa)
#
#
# Indices 1 2 3 4 5 6 
#
# 1 0.027983 0.001920 -0.004406 0.000000 0.000000 0.000000
# 2 0.001920 0.007643 -0.002862 0.000000 0.000000 0.000000
# 3 -0.004406 -0.002862 0.007840 0.000000 0.000000 0.000000
# 4 0.000000 0.000000 0.000000 -0.004591 0.000000 0.000000
# 5 0.000000 0.000000 0.000000 0.000000 -0.063792 0.000000
# 6 0.000000 0.000000 0.000000 0.000000 0.000000 -0.087612
#
#
# Mechanical properties :
#
#
# Convention : Reuss Voigt Hill
#
# Bulk Modulus (GPa) = 30.51470 55.32259 42.91865
# Shear Modulus (GPa) = -54.99884 -30.55147 -42.77516
#
# Velocity S-wave (km/s) = -4.72486 -3.52150 -4.16685
# Velocity P-wave (km/s) = 4.16889 2.43332 2.39360
#
# Compressibility (1/GPa) = 0.03277109
#
# Stress axis : x y z
#
# Youngs Moduli (GPa) = 35.73599 130.83375 127.55878
#
# Poissons Ratio (x) = -0.25120 0.56198
# Poissons Ratio (y) = -0.06861 0.36504
# Poissons Ratio (z) = 0.15744 0.37441
#
# Static dielectric constant tensor:
#      x y z
#    x 3.396650 0.000000 0.000000 
#    y 0.000000 2.010420 0.000000 
#    z 0.000000 0.000000 2.182510 
# 
# From -- ./inp_files/732.got.cif
#   From: 2010.05.17/outbox.cif.g08.bks.cpg/sg41_1_cif.got.tgz:732.got - 2010.06.03 18:54:24.
