data_PCOD9366225
_publ_section_title
;
Structure prediction by ZEFSAII (Michael W. Deem and Ramdas Pophale) SiO2 
 PCOD9366225
Probable space group: A B A 2
;
_chemical_formula_sum "Si O2"
_cell_formula_units_Z 64
_cell_length_a 9.355304
_cell_length_b 32.134118
_cell_length_c 10.816633
_cell_angle_alpha 90.000000
_cell_angle_beta 90.000000
_cell_angle_gamma 90.000000
_cell_volume 3251.744267
_symmetry_space_group_name_H-M "A B A 2"
_symmetry_group_IT_number 41
_symmetry_cell_setting 'orthorhombic'
loop_
_space_group_symop_operation_xyz
x,y,z
-x,-y,z
1/2-x,y,1/2+z
1/2+x,-y,1/2+z
x,1/2+y,1/2+z
-x,1/2-y,1/2+z
1/2-x,1/2+y,z
1/2+x,1/2-y,z
loop_
_atom_site_type_symbol
_atom_site_label
_atom_site_fract_x
_atom_site_fract_y
_atom_site_fract_z
Si Si1 0.682730 0.691014 0.598560
Si Si2 0.928210 0.255457 0.420580
Si Si3 0.112678 0.902217 0.601649
Si Si4 0.423043 0.456907 0.364393
Si Si5 0.454593 0.419428 0.098628
Si Si6 0.520842 0.826397 0.610559
Si Si7 0.324929 0.733458 0.279084
Si Si8 0.420854 0.957749 0.336306
O O1 0.649205 0.714168 0.470777
O O2 0.599081 0.647606 0.606733
O O3 0.850587 0.681918 0.617808
O O4 0.640482 0.726671 0.695116
O O5 0.843414 0.267190 0.296843
O O6 0.920641 0.296489 0.503168
O O7 0.091737 0.242714 0.405253
O O8 0.055714 0.923529 0.475471
O O9 0.284042 0.910250 0.598624
O O10 0.057484 0.924028 0.726953
O O11 0.500000 0.500000 0.397285
O O12 0.480745 0.441782 0.230153
O O13 0.251209 0.463182 0.350147
O O14 0.535778 0.375421 0.093475
O O15 0.479764 0.444058 0.971120
O O16 0.604696 0.808142 0.727270
O O17 0.500000 0.000000 0.299669
#
# Coordination Sequence:
#
# PCOD9366225 Si02
#       8
#     8   8   8   8   8   8   8   8
#     4  10  21  35  57  86 111 154 201 242 289 344
#     4  11  22  36  59  82 116 156 194 241 292 345
#     4   9  20  34  60  89 112 145 201 244 277 340
#     4  10  20  37  61  86 114 149 191 238 294 355
#     4   9  20  36  60  85 114 155 193 235 288 354
#     4  10  21  37  57  86 113 150 203 241 288 342
#     4  11  22  36  59  82 116 156 194 241 292 345
#     4  10  20  37  61  86 114 149 191 238 294 355
#
# _framework density 19.681743999999998
#
# number of rings (size 3 to 8) (size 9 to 14) (size 15 to 20)
#    0.000    2.000    2.500    0.750    3.500    1.000 
#    0.000    1.250    5.500    0.000    0.000    0.000 
#    0.000    0.000    0.000    0.000    0.000    0.000 
#
# Total GULP energy -178312.938156 kJ/mol
# GULP energy per Si atom -5572.279317 kJ/mol
# Density = 1.963695 g / cm^3
# Si number density = 19.681744 Si / 1000 Ang^3
#
#
#
# Elastic Constant Matrix: (Units=GPa)
#
#
# Indices 1 2 3 4 5 6 
#
# 1 41.5839 28.1362 12.8492 0.0000 0.0000 0.0000
# 2 28.1362 138.1634 43.8959 0.0000 0.0000 0.0000
# 3 12.8492 43.8959 86.4114 0.0000 0.0000 0.0000
# 4 0.0000 0.0000 0.0000 16.0814 0.0000 0.0000
# 5 0.0000 0.0000 0.0000 0.0000 13.7571 0.0000
# 6 0.0000 0.0000 0.0000 0.0000 0.0000 29.7665
#
#
#
# Elastic Compliance Matrix: (Units=1/GPa)
#
#
# Indices 1 2 3 4 5 6 
#
# 1 0.028056 -0.005232 -0.001514 0.000000 0.000000 0.000000
# 2 -0.005232 0.009607 -0.004102 0.000000 0.000000 0.000000
# 3 -0.001514 -0.004102 0.013881 0.000000 0.000000 0.000000
# 4 0.000000 0.000000 0.000000 0.062184 0.000000 0.000000
# 5 0.000000 0.000000 0.000000 0.000000 0.072690 0.000000
# 6 0.000000 0.000000 0.000000 0.000000 0.000000 0.033595
#
#
# Mechanical properties :
#
#
# Convention : Reuss Voigt Hill
#
# Bulk Modulus (GPa) = 33.50381 48.43570 40.96976
# Shear Modulus (GPa) = 19.86824 24.00616 21.93720
#
# Velocity S-wave (km/s) = 3.18067 3.49623 3.34218
# Velocity P-wave (km/s) = 5.52708 6.40008 5.97954
#
# Compressibility (1/GPa) = 0.02984735
#
# Stress axis : x y z
#
# Youngs Moduli (GPa) = 35.64317 104.09508 72.03887
#
# Poissons Ratio (x) = 0.54467 0.10905
# Poissons Ratio (y) = 0.18650 0.29550
# Poissons Ratio (z) = 0.05396 0.42700
#
# Static dielectric constant tensor:
#      x y z
#    x 1.670490 0.000000 0.000000 
#    y 0.000000 1.660370 0.000000 
#    z 0.000000 0.000000 1.766870 
# 
# From -- ./inp_files/4650.got.cif
#   From: 2010.05.17/outbox.cif.g08.bks.cpg/sg41_3_cif.got.tgz:4650.got - 2010.06.03 18:54:24.
