data_PCOD9366285
_publ_section_title
;
Structure prediction by ZEFSAII (Michael W. Deem and Ramdas Pophale) SiO2 
 PCOD9366285
Probable space group: A B A 2
;
_chemical_formula_sum "Si O2"
_cell_formula_units_Z 56
_cell_length_a 5.300142
_cell_length_b 29.004212
_cell_length_c 15.723893
_cell_angle_alpha 90.000000
_cell_angle_beta 90.000000
_cell_angle_gamma 90.000000
_cell_volume 2417.178128
_symmetry_space_group_name_H-M "A B A 2"
_symmetry_group_IT_number 41
_symmetry_cell_setting 'orthorhombic'
loop_
_space_group_symop_operation_xyz
x,y,z
-x,-y,z
1/2-x,y,1/2+z
1/2+x,-y,1/2+z
x,1/2+y,1/2+z
-x,1/2-y,1/2+z
1/2-x,1/2+y,z
1/2+x,1/2-y,z
loop_
_atom_site_type_symbol
_atom_site_label
_atom_site_fract_x
_atom_site_fract_y
_atom_site_fract_z
Si Si1 0.000000 0.000000 0.703390
Si Si2 0.646997 0.627911 0.423398
Si Si3 0.604559 0.223064 0.018823
Si Si4 0.861172 0.364358 0.317913
Si Si5 0.575868 0.900032 0.654529
Si Si6 0.581364 0.724966 0.724269
Si Si7 0.432380 0.907993 0.091928
Si Si8 0.500000 0.000000 0.707411
O O1 0.980058 0.044500 0.642420
O O2 0.247104 0.998463 0.759421
O O3 0.689042 0.675525 0.475300
O O4 0.370393 0.635862 0.383685
O O5 0.648122 0.588338 0.495007
O O6 0.877183 0.618041 0.359079
O O7 0.325541 0.240783 0.994101
O O8 0.585290 0.219412 0.121789
O O9 0.720438 0.391615 0.242183
O O10 0.956656 0.317270 0.274151
O O11 0.294537 0.881273 0.640958
O O12 0.522204 0.954714 0.650068
O O13 0.791688 0.883977 0.589951
O O14 0.875315 0.734711 0.745755
#
# Coordination Sequence:
#
# PCOD9366285 Si02
#       8
#     4   8   8   8   8   8   8   4
#     4   8  16  32  59  88 107 140 194 242 280 332
#     4  12  25  38  57  89 125 158 193 242 308 366
#     4  10  22  40  61  83 110 150 201 247 290 346
#     4  12  25  38  57  89 126 158 194 244 308 368
#     4  10  20  38  63  86 114 154 200 245 290 349
#     4  10  22  40  61  83 111 155 208 253 296 353
#     4  10  20  38  63  86 114 153 200 245 290 350
#     4   8  16  32  59  88 107 140 194 242 280 332
#
# _framework density 23.167508999999999
#
# number of rings (size 3 to 8) (size 9 to 14) (size 15 to 20)
#    0.000    1.714    0.000    4.286    0.000    6.857 
#    0.000    0.714    0.000    1.714    0.000    0.000 
#    0.000    0.000    0.000    0.000    0.000    0.000 
#
# Total GULP energy -155949.092098 kJ/mol
# GULP energy per Si atom -5569.610432 kJ/mol
# Density = 2.311478 g / cm^3
# Si number density = 23.167509 Si / 1000 Ang^3
#
#
#
# Elastic Constant Matrix: (Units=GPa)
#
#
# Indices 1 2 3 4 5 6 
#
# 1 219.9454 5.6901 22.1019 0.0000 0.0000 0.0000
# 2 5.6901 46.1513 10.4340 0.0000 0.0000 0.0000
# 3 22.1019 10.4340 62.0779 0.0000 0.0000 0.0000
# 4 0.0000 0.0000 0.0000 1.3185 0.0000 0.0000
# 5 0.0000 0.0000 0.0000 0.0000 82.0705 0.0000
# 6 0.0000 0.0000 0.0000 0.0000 0.0000 18.8987
#
#
#
# Elastic Compliance Matrix: (Units=1/GPa)
#
#
# Indices 1 2 3 4 5 6 
#
# 1 0.004717 -0.000210 -0.001644 0.000000 0.000000 0.000000
# 2 -0.000210 0.022533 -0.003713 0.000000 0.000000 0.000000
# 3 -0.001644 -0.003713 0.017318 0.000000 0.000000 0.000000
# 4 0.000000 0.000000 0.000000 0.758415 0.000000 0.000000
# 5 0.000000 0.000000 0.000000 0.000000 0.012185 0.000000
# 6 0.000000 0.000000 0.000000 0.000000 0.000000 0.052914
#
#
# Mechanical properties :
#
#
# Convention : Reuss Voigt Hill
#
# Bulk Modulus (GPa) = 29.90870 44.95852 37.43361
# Shear Modulus (GPa) = 5.61570 39.78746 22.70158
#
# Velocity S-wave (km/s) = 1.55859 4.14863 3.13371
# Velocity P-wave (km/s) = 4.02203 6.51123 5.41169
#
# Compressibility (1/GPa) = 0.03343509
#
# Stress axis : x y z
#
# Youngs Moduli (GPa) = 211.98852 44.37915 57.74271
#
# Poissons Ratio (x) = 0.00931 0.09494
# Poissons Ratio (y) = 0.04449 0.21438
# Poissons Ratio (z) = 0.34856 0.16476
#
# Static dielectric constant tensor:
#      x y z
#    x 2.030840 0.000000 0.000000 
#    y 0.000000 1.938760 0.000000 
#    z 0.000000 0.000000 1.883390 
# 
# From -- ./inp_files/6993.got.cif
#   From: 2010.05.17/outbox.cif.g08.bks.cpg/sg41_4_cif.got.tgz:6993.got - 2010.06.03 18:54:24.
