data_PCOD9366034
_publ_section_title
;
Structure prediction by ZEFSAII (Michael W. Deem and Ramdas Pophale) SiO2 
 PCOD9366034
Probable space group: A B A 2
;
_chemical_formula_sum "Si O2"
_cell_formula_units_Z 48
_cell_length_a 25.809794
_cell_length_b 13.645333
_cell_length_c 4.915210
_cell_angle_alpha 90.000000
_cell_angle_beta 90.000000
_cell_angle_gamma 90.000000
_cell_volume 1731.054553
_symmetry_space_group_name_H-M "A B A 2"
_symmetry_group_IT_number 41
_symmetry_cell_setting 'orthorhombic'
loop_
_space_group_symop_operation_xyz
x,y,z
-x,-y,z
1/2-x,y,1/2+z
1/2+x,-y,1/2+z
x,1/2+y,1/2+z
-x,1/2-y,1/2+z
1/2-x,1/2+y,z
1/2+x,1/2-y,z
loop_
_atom_site_type_symbol
_atom_site_label
_atom_site_fract_x
_atom_site_fract_y
_atom_site_fract_z
Si Si1 0.491621 0.183882 0.039940
Si Si2 0.258012 0.297648 0.756852
Si Si3 0.091616 0.912992 0.756705
Si Si4 0.231065 0.584050 0.002201
Si Si5 0.848583 0.675899 0.760439
Si Si6 0.382750 0.616895 0.660596
O O1 0.511818 0.228532 0.759868
O O2 0.532816 0.110483 0.176418
O O3 0.290645 0.321792 0.481050
O O4 0.435091 0.138254 0.999366
O O5 0.376826 0.395739 0.477607
O O6 0.255013 0.172895 0.737010
O O7 0.242217 0.014612 0.772134
O O8 0.114612 0.845421 0.991025
O O9 0.103742 0.023810 0.842560
O O10 0.206451 0.816042 0.032486
O O11 0.169372 0.595179 0.990208
O O12 0.865167 0.788600 0.830231
#
# Coordination Sequence:
#
# PCOD9366034 Si02
#       6
#     8   8   8   8   8   8
#     4  12  25  47  76 106 143 190 238 295 366 433
#     4  10  19  37  69  95 134 191 233 282 361 413
#     4  12  28  47  71 117 137 188 254 283 369 442
#     4  10  22  39  69 102 133 193 239 275 370 421
#     4  12  25  46  74 101 147 188 238 299 356 426
#     4  12  26  48  79  99 156 191 229 317 358 419
#
# _framework density 27.728763000000001
#
# number of rings (size 3 to 8) (size 9 to 14) (size 15 to 20)
#    0.000    0.667    6.667    1.500    2.333    5.333 
#    0.000    8.333    0.000    0.000    0.000    0.000 
#    0.000    0.000    0.000    0.000    0.000    0.000 
#
# Total GULP energy -133973.646601 kJ/mol
# GULP energy per Si atom -5582.235275 kJ/mol
# Density = 2.766565 g / cm^3
# Si number density = 27.728763 Si / 1000 Ang^3
#
#
#
# Elastic Constant Matrix: (Units=GPa)
#
#
# Indices 1 2 3 4 5 6 
#
# 1 260.4054 56.4522 48.5478 0.0000 0.0000 0.0000
# 2 56.4522 85.2733 19.4615 0.0000 0.0000 0.0000
# 3 48.5478 19.4615 290.6252 0.0000 0.0000 0.0000
# 4 0.0000 0.0000 0.0000 27.7460 0.0000 0.0000
# 5 0.0000 0.0000 0.0000 0.0000 27.7598 0.0000
# 6 0.0000 0.0000 0.0000 0.0000 0.0000 26.5354
#
#
#
# Elastic Compliance Matrix: (Units=1/GPa)
#
#
# Indices 1 2 3 4 5 6 
#
# 1 0.004575 -0.002898 -0.000570 0.000000 0.000000 0.000000
# 2 -0.002898 0.013745 -0.000436 0.000000 0.000000 0.000000
# 3 -0.000570 -0.000436 0.003565 0.000000 0.000000 0.000000
# 4 0.000000 0.000000 0.000000 0.036041 0.000000 0.000000
# 5 0.000000 0.000000 0.000000 0.000000 0.036023 0.000000
# 6 0.000000 0.000000 0.000000 0.000000 0.000000 0.037686
#
#
# Mechanical properties :
#
#
# Convention : Reuss Voigt Hill
#
# Bulk Modulus (GPa) = 71.04390 98.35855 84.70123
# Shear Modulus (GPa) = 34.68914 50.53104 42.61009
#
# Velocity S-wave (km/s) = 3.54081 4.27351 3.92430
# Velocity P-wave (km/s) = 6.51100 7.73946 7.15165
#
# Compressibility (1/GPa) = 0.01407580
#
# Stress axis : x y z
#
# Youngs Moduli (GPa) = 218.58878 72.75156 280.48071
#
# Poissons Ratio (x) = 0.21087 0.15990
# Poissons Ratio (y) = 0.63357 0.12237
# Poissons Ratio (z) = 0.12462 0.03174
#
# Static dielectric constant tensor:
#      x y z
#    x 2.117660 0.000000 0.000000 
#    y 0.000000 2.297710 0.000000 
#    z 0.000000 0.000000 2.091110 
# 
# From -- ./inp_files/6296.got.cif
#   From: 2010.05.17/outbox.cif.g08.bks.cpg/sg41_4_cif.got.tgz:6296.got - 2010.06.03 18:54:24.
