data_PCOD9366356
_publ_section_title
;
Structure prediction by ZEFSAII (Michael W. Deem and Ramdas Pophale) SiO2 
 PCOD9366356
Probable space group: A B A 2
;
_chemical_formula_sum "Si O2"
_cell_formula_units_Z 56
_cell_length_a 13.401326
_cell_length_b 15.018930
_cell_length_c 10.887964
_cell_angle_alpha 90.000000
_cell_angle_beta 90.000000
_cell_angle_gamma 90.000000
_cell_volume 2191.459462
_symmetry_space_group_name_H-M "A B A 2"
_symmetry_group_IT_number 41
_symmetry_cell_setting 'orthorhombic'
loop_
_space_group_symop_operation_xyz
x,y,z
-x,-y,z
1/2-x,y,1/2+z
1/2+x,-y,1/2+z
x,1/2+y,1/2+z
-x,1/2-y,1/2+z
1/2-x,1/2+y,z
1/2+x,1/2-y,z
loop_
_atom_site_type_symbol
_atom_site_label
_atom_site_fract_x
_atom_site_fract_y
_atom_site_fract_z
Si Si1 0.132120 0.843930 0.985650
Si Si2 0.500000 0.500000 0.633468
Si Si3 0.577215 0.368551 0.098688
Si Si4 0.701726 0.573479 0.361154
Si Si5 0.442312 0.808193 0.231588
Si Si6 0.275679 0.561530 0.653401
Si Si7 0.500000 0.000000 0.808233
Si Si8 0.164148 0.742439 0.234882
O O1 0.218377 0.917865 0.969765
O O2 0.120639 0.798011 0.854349
O O3 0.161660 0.778285 0.094580
O O4 0.021228 0.881323 0.015248
O O5 0.450056 0.410965 0.692962
O O6 0.388650 0.548017 0.602955
O O7 0.588479 0.263056 0.127573
O O8 0.683598 0.410494 0.063632
O O9 0.543153 0.421903 0.221915
O O10 0.742688 0.516747 0.246201
O O11 0.589991 0.539565 0.386897
O O12 0.689008 0.673599 0.315682
O O13 0.552226 0.780650 0.268836
O O14 0.278085 0.650550 0.738705
#
# Coordination Sequence:
#
# PCOD9366356 Si02
#       8
#     8   4   8   8   8   8   4   8
#     4  11  22  40  73 106 142 198 258 299 386 464
#     4  10  20  39  66 105 136 192 246 311 381 430
#     4  10  22  42  68 105 146 193 246 309 379 458
#     4  11  21  43  72 103 146 193 250 318 372 457
#     4  10  20  40  67 101 145 191 253 310 371 456
#     4  10  22  40  69 102 144 191 243 313 378 438
#     4  10  20  43  70  99 148 184 236 313 379 428
#     4  10  23  44  65 104 149 197 244 317 386 448
#
# _framework density 25.553744999999999
#
# number of rings (size 3 to 8) (size 9 to 14) (size 15 to 20)
#    0.000    1.714    4.286    0.857    0.000    1.714 
#    0.000    4.286    0.000    7.714    0.000    0.000 
#    0.000    0.000    0.000    0.000    0.000    0.000 
#
# Total GULP energy -156276.275496 kJ/mol
# GULP energy per Si atom -5581.295553 kJ/mol
# Density = 2.549558 g / cm^3
# Si number density = 25.553745 Si / 1000 Ang^3
#
#
#
# Elastic Constant Matrix: (Units=GPa)
#
#
# Indices 1 2 3 4 5 6 
#
# 1 222.1285 44.1246 24.5390 0.0000 0.0000 0.0000
# 2 44.1246 149.7248 33.0714 0.0000 0.0000 0.0000
# 3 24.5390 33.0714 28.0423 0.0000 0.0000 0.0000
# 4 0.0000 0.0000 0.0000 -60.3053 0.0000 0.0000
# 5 0.0000 0.0000 0.0000 0.0000 -37.1058 0.0000
# 6 0.0000 0.0000 0.0000 0.0000 0.0000 57.9776
#
#
#
# Elastic Compliance Matrix: (Units=1/GPa)
#
#
# Indices 1 2 3 4 5 6 
#
# 1 0.005036 -0.000691 -0.003592 0.000000 0.000000 0.000000
# 2 -0.000691 0.009126 -0.010159 0.000000 0.000000 0.000000
# 3 -0.003592 -0.010159 0.050784 0.000000 0.000000 0.000000
# 4 0.000000 0.000000 0.000000 -0.016582 0.000000 0.000000
# 5 0.000000 0.000000 0.000000 0.000000 -0.026950 0.000000
# 6 0.000000 0.000000 0.000000 0.000000 0.000000 0.017248
#
#
# Mechanical properties :
#
#
# Convention : Reuss Voigt Hill
#
# Bulk Modulus (GPa) = 27.72890 67.04064 47.38477
# Shear Modulus (GPa) = 62.84019 11.99067 37.41543
#
# Velocity S-wave (km/s) = 4.96435 2.16853 3.83062
# Velocity P-wave (km/s) = 6.61320 5.70632 6.17643
#
# Compressibility (1/GPa) = 0.03606346
#
# Stress axis : x y z
#
# Youngs Moduli (GPa) = 198.57263 109.57316 19.69107
#
# Poissons Ratio (x) = 0.07568 0.07074
# Poissons Ratio (y) = 0.13714 0.20004
# Poissons Ratio (z) = 0.71333 1.11312
#
# Static dielectric constant tensor:
#      x y z
#    x 2.395090 0.000000 0.000000 
#    y 0.000000 2.060480 0.000000 
#    z 0.000000 0.000000 2.074780 
# 
# From -- ./inp_files/5644.got.cif
#   From: 2010.05.17/outbox.cif.g08.bks.cpg/sg41_3_cif.got.tgz:5644.got - 2010.06.03 18:54:24.
