data_PCOD9366714
_publ_section_title
;
Structure prediction by ZEFSAII (Michael W. Deem and Ramdas Pophale) SiO2 
 PCOD9366714
Probable space group: A B A 2
;
_chemical_formula_sum "Si O2"
_cell_formula_units_Z 48
_cell_length_a 30.529324
_cell_length_b 5.290970
_cell_length_c 13.826781
_cell_angle_alpha 90.000000
_cell_angle_beta 90.000000
_cell_angle_gamma 90.000000
_cell_volume 2233.436304
_symmetry_space_group_name_H-M "A B A 2"
_symmetry_group_IT_number 41
_symmetry_cell_setting 'orthorhombic'
loop_
_space_group_symop_operation_xyz
x,y,z
-x,-y,z
1/2-x,y,1/2+z
1/2+x,-y,1/2+z
x,1/2+y,1/2+z
-x,1/2-y,1/2+z
1/2-x,1/2+y,z
1/2+x,1/2-y,z
loop_
_atom_site_type_symbol
_atom_site_label
_atom_site_fract_x
_atom_site_fract_y
_atom_site_fract_z
Si Si1 0.623769 0.762446 0.552470
Si Si2 0.012566 0.748565 0.774866
Si Si3 0.222261 0.740134 0.241879
Si Si4 0.573020 0.898941 0.359021
Si Si5 0.874904 0.761983 0.667936
Si Si6 0.721723 0.271753 0.973211
O O1 0.597730 0.847174 0.457135
O O2 0.612107 0.487257 0.594621
O O3 0.675404 0.762804 0.526518
O O4 0.615175 0.983174 0.629544
O O5 0.000000 0.500000 0.717992
O O6 0.973803 0.756147 0.855539
O O7 0.057881 0.815704 0.827531
O O8 0.000000 0.000000 0.714982
O O9 0.253677 0.503639 0.221193
O O10 0.177088 0.717698 0.185454
O O11 0.212930 0.732328 0.357374
O O12 0.601727 0.804342 0.269802
O O13 0.748508 0.527322 0.994452
#
# Coordination Sequence:
#
# PCOD9366714 Si02
#       6
#     8   8   8   8   8   8
#     4  12  26  39  66  98 125 173 211 258 320 367
#     4   8  20  40  72  90 118 180 188 252 336 362
#     4  10  21  40  61  86 125 172 212 258 313 359
#     4   9  24  46  66  92 140 150 216 264 306 385
#     4  12  26  39  66  98 125 173 211 258 320 367
#     4  10  21  40  61  86 125 172 212 258 313 359
#
# _framework density 21.491548000000002
#
# number of rings (size 3 to 8) (size 9 to 14) (size 15 to 20)
#    1.000    0.667    1.667    2.000    4.667    4.000 
#    0.000    6.667    0.000    0.000    0.000    0.000 
#    0.000    0.000    0.000    0.000    0.000    0.000 
#
# Total GULP energy -133931.532338 kJ/mol
# GULP energy per Si atom -5580.480514 kJ/mol
# Density = 2.144263 g / cm^3
# Si number density = 21.491548 Si / 1000 Ang^3
#
#
#
# Elastic Constant Matrix: (Units=GPa)
#
#
# Indices 1 2 3 4 5 6 
#
# 1 59.3113 -15.5110 4.8253 0.0000 0.0000 0.0000
# 2 -15.5110 101.4774 -12.5695 0.0000 0.0000 0.0000
# 3 4.8253 -12.5695 67.0460 0.0000 0.0000 0.0000
# 4 0.0000 0.0000 0.0000 -76.3887 0.0000 0.0000
# 5 0.0000 0.0000 0.0000 0.0000 -7.1428 0.0000
# 6 0.0000 0.0000 0.0000 0.0000 0.0000 16.8691
#
#
#
# Elastic Compliance Matrix: (Units=1/GPa)
#
#
# Indices 1 2 3 4 5 6 
#
# 1 0.017602 0.002594 -0.000781 0.000000 0.000000 0.000000
# 2 0.002594 0.010471 0.001776 0.000000 0.000000 0.000000
# 3 -0.000781 0.001776 0.015304 0.000000 0.000000 0.000000
# 4 0.000000 0.000000 0.000000 -0.013091 0.000000 0.000000
# 5 0.000000 0.000000 0.000000 0.000000 -0.140000 0.000000
# 6 0.000000 0.000000 0.000000 0.000000 0.000000 0.059280
#
#
# Mechanical properties :
#
#
# Convention : Reuss Voigt Hill
#
# Bulk Modulus (GPa) = 19.77981 20.14713 19.96347
# Shear Modulus (GPa) = -122.66556 3.40686 -59.62935
#
# Velocity S-wave (km/s) = -7.56307 1.26042 -5.27311
# Velocity P-wave (km/s) = 8.18800 3.39308 5.26926
#
# Compressibility (1/GPa) = 0.05055659
#
# Stress axis : x y z
#
# Youngs Moduli (GPa) = 56.81167 95.50269 65.34093
#
# Poissons Ratio (x) = -0.24772 0.05100
# Poissons Ratio (y) = -0.14736 -0.11607
# Poissons Ratio (z) = 0.04434 -0.16965
#
# Static dielectric constant tensor:
#      x y z
#    x 1.779670 0.000000 0.000000 
#    y 0.000000 1.989070 0.000000 
#    z 0.000000 0.000000 1.750330 
# 
# From -- ./inp_files/9253.got.cif
#   From: 2010.05.17/outbox.cif.g08.bks.cpg/sg41_5_cif.got.tgz:9253.got - 2010.06.03 18:54:24.
