data_PCOD9366803
_publ_section_title
;
Structure prediction by ZEFSAII (Michael W. Deem and Ramdas Pophale) SiO2 
 PCOD9366803
Probable space group: A B A 2
;
_chemical_formula_sum "Si O2"
_cell_formula_units_Z 40
_cell_length_a 9.099414
_cell_length_b 16.207315
_cell_length_c 12.865699
_cell_angle_alpha 90.000000
_cell_angle_beta 90.000000
_cell_angle_gamma 90.000000
_cell_volume 1897.395579
_symmetry_space_group_name_H-M "A B A 2"
_symmetry_group_IT_number 41
_symmetry_cell_setting 'orthorhombic'
loop_
_space_group_symop_operation_xyz
x,y,z
-x,-y,z
1/2-x,y,1/2+z
1/2+x,-y,1/2+z
x,1/2+y,1/2+z
-x,1/2-y,1/2+z
1/2-x,1/2+y,z
1/2+x,1/2-y,z
loop_
_atom_site_type_symbol
_atom_site_label
_atom_site_fract_x
_atom_site_fract_y
_atom_site_fract_z
Si Si1 0.343624 0.463486 0.526090
Si Si2 0.816418 0.790893 0.436193
Si Si3 0.874059 0.649644 0.847369
Si Si4 0.092238 0.075182 0.973566
Si Si5 0.651792 0.671987 0.105902
O O1 0.500000 0.500000 0.554351
O O2 0.345606 0.438150 0.403288
O O3 0.212230 0.527553 0.544155
O O4 0.300313 0.379918 0.584620
O O5 0.760350 0.708727 0.379572
O O6 0.695344 0.860883 0.412934
O O7 0.824658 0.762924 0.557561
O O8 0.975217 0.818964 0.399273
O O9 0.888057 0.658612 0.724821
O O10 0.000000 0.000000 0.921697
O O11 0.976303 0.129364 0.037604
#
# Coordination Sequence:
#
# PCOD9366803 Si02
#       5
#     8   8   8   8   8
#     4  10  21  41  65  90 133 168 207 270 322 377
#     4  11  22  42  65  93 129 164 213 275 319 378
#     4  11  24  40  67  95 124 173 218 263 322 393
#     4  10  21  42  64  87 132 166 200 269 325 373
#     4  10  24  42  64  97 128 169 220 261 325 387
#
# _framework density 21.081527999999999
#
# number of rings (size 3 to 8) (size 9 to 14) (size 15 to 20)
#    0.000    1.600    4.000    0.000    2.800    2.400 
#    0.000    5.000    0.000    0.000    0.000    0.000 
#    0.000    0.000    0.000    0.000    0.000    0.000 
#
# Total GULP energy -111533.731356 kJ/mol
# GULP energy per Si atom -5576.686568 kJ/mol
# Density = 2.103355 g / cm^3
# Si number density = 21.081528 Si / 1000 Ang^3
#
#
#
# Elastic Constant Matrix: (Units=GPa)
#
#
# Indices 1 2 3 4 5 6 
#
# 1 131.9382 33.8433 16.9366 0.0000 0.0000 0.0000
# 2 33.8433 70.5986 14.1002 0.0000 0.0000 0.0000
# 3 16.9366 14.1002 76.9252 0.0000 0.0000 0.0000
# 4 0.0000 0.0000 0.0000 8.6919 0.0000 0.0000
# 5 0.0000 0.0000 0.0000 0.0000 12.8922 0.0000
# 6 0.0000 0.0000 0.0000 0.0000 0.0000 39.8918
#
#
#
# Elastic Compliance Matrix: (Units=1/GPa)
#
#
# Indices 1 2 3 4 5 6 
#
# 1 0.008748 -0.003953 -0.001201 0.000000 0.000000 0.000000
# 2 -0.003953 0.016490 -0.002152 0.000000 0.000000 0.000000
# 3 -0.001201 -0.002152 0.013659 0.000000 0.000000 0.000000
# 4 0.000000 0.000000 0.000000 0.115050 0.000000 0.000000
# 5 0.000000 0.000000 0.000000 0.000000 0.077566 0.000000
# 6 0.000000 0.000000 0.000000 0.000000 0.000000 0.025068
#
#
# Mechanical properties :
#
#
# Convention : Reuss Voigt Hill
#
# Bulk Modulus (GPa) = 41.18252 45.46913 43.32583
# Shear Modulus (GPa) = 17.90271 26.60064 22.25167
#
# Velocity S-wave (km/s) = 2.91729 3.55603 3.25238
# Velocity P-wave (km/s) = 5.56100 6.20287 5.89068
#
# Compressibility (1/GPa) = 0.02428215
#
# Stress axis : x y z
#
# Youngs Moduli (GPa) = 114.31694 60.64433 73.21392
#
# Poissons Ratio (x) = 0.23976 0.08795
# Poissons Ratio (y) = 0.45195 0.15756
# Poissons Ratio (z) = 0.13733 0.13051
#
# Static dielectric constant tensor:
#      x y z
#    x 1.750640 0.000000 0.000000 
#    y 0.000000 1.840910 0.000000 
#    z 0.000000 0.000000 1.769890 
# 
# From -- ./inp_files/4352.got.cif
#   From: 2010.05.17/outbox.cif.g08.bks.cpg/sg41_3_cif.got.tgz:4352.got - 2010.06.03 18:54:24.
