data_PCOD9366442
_publ_section_title
;
Structure prediction by ZEFSAII (Michael W. Deem and Ramdas Pophale) SiO2 
 PCOD9366442
Probable space group: A B A 2
;
_chemical_formula_sum "Si O2"
_cell_formula_units_Z 60
_cell_length_a 16.366464
_cell_length_b 13.179996
_cell_length_c 13.520430
_cell_angle_alpha 90.000000
_cell_angle_beta 90.000000
_cell_angle_gamma 90.000000
_cell_volume 2916.491010
_symmetry_space_group_name_H-M "A B A 2"
_symmetry_group_IT_number 41
_symmetry_cell_setting 'orthorhombic'
loop_
_space_group_symop_operation_xyz
x,y,z
-x,-y,z
1/2-x,y,1/2+z
1/2+x,-y,1/2+z
x,1/2+y,1/2+z
-x,1/2-y,1/2+z
1/2-x,1/2+y,z
1/2+x,1/2-y,z
loop_
_atom_site_type_symbol
_atom_site_label
_atom_site_fract_x
_atom_site_fract_y
_atom_site_fract_z
Si Si1 0.452773 0.395005 0.963130
Si Si2 0.224497 0.911133 0.865436
Si Si3 0.825214 0.237682 0.702675
Si Si4 0.163559 0.928538 0.542845
Si Si5 0.771430 0.965523 0.191137
Si Si6 0.509806 0.298750 0.771238
Si Si7 0.500000 0.500000 0.643021
Si Si8 0.562687 0.092331 0.691120
O O1 0.500000 0.500000 0.948855
O O2 0.357905 0.405881 0.930752
O O3 0.497059 0.319367 0.887468
O O4 0.458054 0.372435 0.079023
O O5 0.222463 0.814903 0.792857
O O6 0.220580 0.004795 0.788940
O O7 0.305108 0.918821 0.931861
O O8 0.813301 0.173074 0.603302
O O9 0.800766 0.352077 0.692258
O O10 0.919984 0.228331 0.730153
O O11 0.071771 0.957715 0.572624
O O12 0.218227 0.014516 0.594708
O O13 0.849157 0.039958 0.190519
O O14 0.529390 0.405167 0.713191
O O15 0.560893 0.196804 0.752412
O O16 0.500000 0.000000 0.719170
#
# Coordination Sequence:
#
# PCOD9366442 Si02
#       8
#     8   8   8   8   8   8   4   8
#     4  10  21  42  68  93 126 175 223 261 325 414
#     4  10  22  42  61  92 128 169 213 267 336 394
#     4   9  21  40  64  90 131 167 212 270 324 401
#     4  10  22  43  64  90 127 170 223 269 331 395
#     4  11  22  41  64  96 129 168 220 277 325 392
#     4  10  20  41  67  94 130 173 217 269 330 396
#     4  10  22  42  66  94 130 172 224 282 326 398
#     4  11  22  41  66  97 131 169 219 277 334 397
#
# _framework density 20.572666000000002
#
# number of rings (size 3 to 8) (size 9 to 14) (size 15 to 20)
#    0.000    1.867    3.333    0.800    0.000    3.200 
#   10.800    0.000    0.000    0.000    0.000    0.000 
#    0.000    0.000    0.000    0.000    0.000    0.000 
#
# Total GULP energy -167490.135217 kJ/mol
# GULP energy per Si atom -5583.004507 kJ/mol
# Density = 2.052584 g / cm^3
# Si number density = 20.572666 Si / 1000 Ang^3
#
#
#
# Elastic Constant Matrix: (Units=GPa)
#
#
# Indices 1 2 3 4 5 6 
#
# 1 69.1616 28.0043 19.8082 0.0000 0.0000 0.0000
# 2 28.0043 138.1519 43.0982 0.0000 0.0000 0.0000
# 3 19.8082 43.0982 69.7882 0.0000 0.0000 0.0000
# 4 0.0000 0.0000 0.0000 3.5660 0.0000 0.0000
# 5 0.0000 0.0000 0.0000 0.0000 26.0555 0.0000
# 6 0.0000 0.0000 0.0000 0.0000 0.0000 27.7466
#
#
#
# Elastic Compliance Matrix: (Units=1/GPa)
#
#
# Indices 1 2 3 4 5 6 
#
# 1 0.016311 -0.002306 -0.003205 0.000000 0.000000 0.000000
# 2 -0.002306 0.009292 -0.005084 0.000000 0.000000 0.000000
# 3 -0.003205 -0.005084 0.018378 0.000000 0.000000 0.000000
# 4 0.000000 0.000000 0.000000 0.280425 0.000000 0.000000
# 5 0.000000 0.000000 0.000000 0.000000 0.038380 0.000000
# 6 0.000000 0.000000 0.000000 0.000000 0.000000 0.036040
#
#
# Mechanical properties :
#
#
# Convention : Reuss Voigt Hill
#
# Bulk Modulus (GPa) = 43.87811 50.99148 47.43479
# Shear Modulus (GPa) = 11.69281 23.88636 17.78959
#
# Velocity S-wave (km/s) = 2.38663 3.41115 2.94380
# Velocity P-wave (km/s) = 5.38232 6.35251 5.88743
#
# Compressibility (1/GPa) = 0.02279041
#
# Stress axis : x y z
#
# Youngs Moduli (GPa) = 61.30921 107.62151 54.41223
#
# Poissons Ratio (x) = 0.24822 0.17440
# Poissons Ratio (y) = 0.14140 0.27661
# Poissons Ratio (z) = 0.19651 0.54710
#
# Static dielectric constant tensor:
#      x y z
#    x 1.760950 0.000000 0.000000 
#    y 0.000000 1.729000 0.000000 
#    z 0.000000 0.000000 1.739460 
# 
# From -- ./inp_files/8789.got.cif
#   From: 2010.05.17/outbox.cif.g08.bks.cpg/sg41_5_cif.got.tgz:8789.got - 2010.06.03 18:54:24.
