data_PCOD9366674
_publ_section_title
;
Structure prediction by ZEFSAII (Michael W. Deem and Ramdas Pophale) SiO2 
 PCOD9366674
Probable space group: A B A 2
;
_chemical_formula_sum "Si O2"
_cell_formula_units_Z 56
_cell_length_a 28.838739
_cell_length_b 16.184983
_cell_length_c 5.167364
_cell_angle_alpha 90.000000
_cell_angle_beta 90.000000
_cell_angle_gamma 90.000000
_cell_volume 2411.890402
_symmetry_space_group_name_H-M "A B A 2"
_symmetry_group_IT_number 41
_symmetry_cell_setting 'orthorhombic'
loop_
_space_group_symop_operation_xyz
x,y,z
-x,-y,z
1/2-x,y,1/2+z
1/2+x,-y,1/2+z
x,1/2+y,1/2+z
-x,1/2-y,1/2+z
1/2-x,1/2+y,z
1/2+x,1/2-y,z
loop_
_atom_site_type_symbol
_atom_site_label
_atom_site_fract_x
_atom_site_fract_y
_atom_site_fract_z
Si Si1 0.626751 0.714199 0.362780
Si Si2 0.437257 0.676853 0.091256
Si Si3 0.043279 0.816892 0.997538
Si Si4 0.138686 0.950552 0.582609
Si Si5 0.723684 0.940533 0.122034
Si Si6 0.417816 0.489935 0.067937
Si Si7 0.218950 0.754192 0.079156
O O1 0.612850 0.805154 0.458926
O O2 0.639423 0.648981 0.586610
O O3 0.669120 0.708957 0.162190
O O4 0.575691 0.691586 0.251490
O O5 0.436111 0.741934 0.327287
O O6 0.440051 0.578628 0.120872
O O7 0.488361 0.696320 0.978099
O O8 0.050626 0.915179 0.953456
O O9 0.187223 0.992527 0.528801
O O10 0.105557 0.968585 0.340509
O O11 0.120491 0.991633 0.843669
O O12 0.733583 0.951745 0.424994
O O13 0.710178 0.844846 0.079768
O O14 0.256225 0.774202 0.307460
#
# Coordination Sequence:
#
# PCOD9366674 Si02
#       7
#     8   8   8   8   8   8   8
#     4  11  25  43  70  98 145 182 235 303 354 431
#     4  12  24  44  74  98 146 195 230 304 363 423
#     4  11  25  46  66 110 140 188 246 291 362 440
#     4  11  24  44  64 102 136 180 241 291 354 438
#     4  10  21  39  62  92 133 175 230 296 354 425
#     4  11  26  43  70 101 141 187 240 288 354 436
#     4  10  24  41  65  99 133 179 238 289 355 433
#
# _framework density 23.218304
#
# number of rings (size 3 to 8) (size 9 to 14) (size 15 to 20)
#    0.000    1.143    2.857    2.143    6.000    2.286 
#    0.000    1.429    0.000    0.000    0.000    0.000 
#    0.000    0.000    0.000    0.000    0.000    0.000 
#
# Total GULP energy -155979.793222 kJ/mol
# GULP energy per Si atom -5570.706901 kJ/mol
# Density = 2.316546 g / cm^3
# Si number density = 23.218304 Si / 1000 Ang^3
#
#
#
# Elastic Constant Matrix: (Units=GPa)
#
#
# Indices 1 2 3 4 5 6 
#
# 1 70.5508 34.3626 -1.9996 0.0000 0.0000 0.0000
# 2 34.3626 116.6321 24.5757 0.0000 0.0000 0.0000
# 3 -1.9996 24.5757 69.2966 0.0000 0.0000 0.0000
# 4 0.0000 0.0000 0.0000 26.7343 0.0000 0.0000
# 5 0.0000 0.0000 0.0000 0.0000 22.0800 0.0000
# 6 0.0000 0.0000 0.0000 0.0000 0.0000 22.2592
#
#
#
# Elastic Compliance Matrix: (Units=1/GPa)
#
#
# Indices 1 2 3 4 5 6 
#
# 1 0.016922 -0.005499 0.002439 0.000000 0.000000 0.000000
# 2 -0.005499 0.011054 -0.004079 0.000000 0.000000 0.000000
# 3 0.002439 -0.004079 0.015948 0.000000 0.000000 0.000000
# 4 0.000000 0.000000 0.000000 0.037405 0.000000 0.000000
# 5 0.000000 0.000000 0.000000 0.000000 0.045290 0.000000
# 6 0.000000 0.000000 0.000000 0.000000 0.000000 0.044925
#
#
# Mechanical properties :
#
#
# Convention : Reuss Voigt Hill
#
# Bulk Modulus (GPa) = 33.73369 41.15077 37.44223
# Shear Modulus (GPa) = 25.54880 27.51743 26.53312
#
# Velocity S-wave (km/s) = 3.32079 3.44635 3.38415
# Velocity P-wave (km/s) = 5.40962 5.79641 5.60635
#
# Compressibility (1/GPa) = 0.02964396
#
# Stress axis : x y z
#
# Youngs Moduli (GPa) = 59.09509 90.46745 62.70520
#
# Poissons Ratio (x) = 0.49752 -0.15292
# Poissons Ratio (y) = 0.32499 0.25576
# Poissons Ratio (z) = -0.14411 0.36900
#
# Static dielectric constant tensor:
#      x y z
#    x 1.877100 0.000000 0.000000 
#    y 0.000000 2.010600 0.000000 
#    z 0.000000 0.000000 1.949560 
# 
# From -- ./inp_files/1335.got.cif
#   From: 2010.05.17/outbox.cif.g08.bks.cpg/sg41_1_cif.got.tgz:1335.got - 2010.06.03 18:54:24.
