data_PCOD9366236
_publ_section_title
;
Structure prediction by ZEFSAII (Michael W. Deem and Ramdas Pophale) SiO2 
 PCOD9366236
Probable space group: A B A 2
;
_chemical_formula_sum "Si O2"
_cell_formula_units_Z 52
_cell_length_a 16.940956
_cell_length_b 9.506458
_cell_length_c 16.327241
_cell_angle_alpha 90.000000
_cell_angle_beta 90.000000
_cell_angle_gamma 90.000000
_cell_volume 2629.477455
_symmetry_space_group_name_H-M "A B A 2"
_symmetry_group_IT_number 41
_symmetry_cell_setting 'orthorhombic'
loop_
_space_group_symop_operation_xyz
x,y,z
-x,-y,z
1/2-x,y,1/2+z
1/2+x,-y,1/2+z
x,1/2+y,1/2+z
-x,1/2-y,1/2+z
1/2-x,1/2+y,z
1/2+x,1/2-y,z
loop_
_atom_site_type_symbol
_atom_site_label
_atom_site_fract_x
_atom_site_fract_y
_atom_site_fract_z
Si Si1 0.973411 0.773949 0.708380
Si Si2 0.661519 0.165613 0.598427
Si Si3 0.500000 0.500000 0.317781
Si Si4 0.803914 0.660174 0.411712
Si Si5 0.886258 0.050407 0.751964
Si Si6 0.826233 0.449758 0.859708
Si Si7 0.265262 0.589513 0.181541
O O1 0.920715 0.734663 0.629544
O O2 0.981949 0.634781 0.761826
O O3 0.059089 0.844595 0.699546
O O4 0.927797 0.897564 0.757796
O O5 0.669268 0.129092 0.503246
O O6 0.728087 0.277445 0.633198
O O7 0.672730 0.012561 0.638575
O O8 0.580580 0.471416 0.366499
O O9 0.866183 0.612961 0.341313
O O10 0.723191 0.587898 0.381247
O O11 0.795420 0.827404 0.417148
O O12 0.807673 0.013411 0.703052
O O13 0.803851 0.385251 0.770501
#
# Coordination Sequence:
#
# PCOD9366236 Si02
#       7
#     8   8   4   8   8   8   8
#     4  10  21  39  63  89 119 161 211 253 311 381
#     4  11  22  38  61  93 124 156 205 265 314 366
#     4  12  22  38  66  94 118 162 224 264 292 372
#     4  11  23  40  62  95 128 163 208 266 319 376
#     4   9  20  39  65  84 120 166 207 250 316 385
#     4  11  23  40  66  90 124 170 217 256 312 388
#     4  10  20  37  63  88 116 164 214 248 301 385
#
# _framework density 19.775791999999999
#
# number of rings (size 3 to 8) (size 9 to 14) (size 15 to 20)
#    0.000    1.538    3.077    2.769    4.308    0.000 
#    0.000    6.154    0.000    0.000    0.000    0.000 
#    0.000    0.000    0.000    0.000    0.000    0.000 
#
# Total GULP energy -144876.792742 kJ/mol
# GULP energy per Si atom -5572.184336 kJ/mol
# Density = 1.973078 g / cm^3
# Si number density = 19.775792 Si / 1000 Ang^3
#
#
#
# Elastic Constant Matrix: (Units=GPa)
#
#
# Indices 1 2 3 4 5 6 
#
# 1 96.1524 14.9092 15.0547 0.0000 0.0000 0.0000
# 2 14.9092 76.9602 -3.6201 0.0000 0.0000 0.0000
# 3 15.0547 -3.6201 59.0150 0.0000 0.0000 0.0000
# 4 0.0000 0.0000 0.0000 24.1392 0.0000 0.0000
# 5 0.0000 0.0000 0.0000 0.0000 17.9709 0.0000
# 6 0.0000 0.0000 0.0000 0.0000 0.0000 28.3523
#
#
#
# Elastic Compliance Matrix: (Units=1/GPa)
#
#
# Indices 1 2 3 4 5 6 
#
# 1 0.011230 -0.002317 -0.003007 0.000000 0.000000 0.000000
# 2 -0.002317 0.013509 0.001420 0.000000 0.000000 0.000000
# 3 -0.003007 0.001420 0.017799 0.000000 0.000000 0.000000
# 4 0.000000 0.000000 0.000000 0.041426 0.000000 0.000000
# 5 0.000000 0.000000 0.000000 0.000000 0.055646 0.000000
# 6 0.000000 0.000000 0.000000 0.000000 0.000000 0.035270
#
#
# Mechanical properties :
#
#
# Convention : Reuss Voigt Hill
#
# Bulk Modulus (GPa) = 28.79340 31.64614 30.21977
# Shear Modulus (GPa) = 25.73786 27.81139 26.77463
#
# Velocity S-wave (km/s) = 3.61152 3.75418 3.68354
# Velocity P-wave (km/s) = 5.65529 5.90161 5.77976
#
# Compressibility (1/GPa) = 0.03473019
#
# Stress axis : x y z
#
# Youngs Moduli (GPa) = 89.04532 74.02256 56.18286
#
# Poissons Ratio (x) = 0.17151 0.16894
# Poissons Ratio (y) = 0.20632 -0.07977
# Poissons Ratio (z) = 0.26776 -0.10510
#
# Static dielectric constant tensor:
#      x y z
#    x 1.672770 0.000000 0.000000 
#    y 0.000000 1.749730 0.000000 
#    z 0.000000 0.000000 1.689660 
# 
# From -- ./inp_files/10543.got.cif
#   From: 2010.05.17/outbox.cif.g08.bks.cpg/sg41_6_cif.got.tgz:10543.got - 2010.06.03 18:54:24.
