data_PCOD9366826
_publ_section_title
;
Structure prediction by ZEFSAII (Michael W. Deem and Ramdas Pophale) SiO2 
 PCOD9366826
Probable space group: A B A 2
;
_chemical_formula_sum "Si O2"
_cell_formula_units_Z 32
_cell_length_a 9.458559
_cell_length_b 7.586386
_cell_length_c 17.092373
_cell_angle_alpha 90.000000
_cell_angle_beta 90.000000
_cell_angle_gamma 90.000000
_cell_volume 1226.485096
_symmetry_space_group_name_H-M "A B A 2"
_symmetry_group_IT_number 41
_symmetry_cell_setting 'orthorhombic'
loop_
_space_group_symop_operation_xyz
x,y,z
-x,-y,z
1/2-x,y,1/2+z
1/2+x,-y,1/2+z
x,1/2+y,1/2+z
-x,1/2-y,1/2+z
1/2-x,1/2+y,z
1/2+x,1/2-y,z
loop_
_atom_site_type_symbol
_atom_site_label
_atom_site_fract_x
_atom_site_fract_y
_atom_site_fract_z
Si Si1 0.500000 0.500000 0.846570
Si Si2 0.000000 0.500000 0.744406
Si Si3 0.270056 0.075191 0.536137
Si Si4 0.212516 0.666018 0.860600
Si Si5 0.962343 0.738275 0.597774
O O1 0.375438 0.349848 0.863253
O O2 0.289886 0.094699 0.949731
O O3 0.869286 0.453443 0.798362
O O4 0.983170 0.663322 0.684066
O O5 0.377214 0.153502 0.335450
O O6 0.139171 0.094152 0.595551
O O7 0.389929 0.225564 0.552557
O O8 0.136632 0.903975 0.052648
#
# Coordination Sequence:
#
# PCOD9366826 Si02
#       5
#     4   4   8   8   8
#     4  12  28  45  74 115 158 196 254 326 390 445
#     4  10  26  49  74 111 158 202 260 326 394 461
#     4  10  21  41  68  98 139 188 246 305 374 456
#     4  12  24  45  75 112 150 200 259 320 378 456
#     4  10  24  45  67 102 147 195 244 313 388 459
#
# _framework density 26.090817000000001
#
# number of rings (size 3 to 8) (size 9 to 14) (size 15 to 20)
#    0.000    1.500    0.000    6.000    0.000   12.000 
#    0.000    0.000    0.000    0.000    0.000    0.000 
#    0.000    0.000    0.000    0.000    0.000    0.000 
#
# Total GULP energy -89084.392827 kJ/mol
# GULP energy per Si atom -5567.774552 kJ/mol
# Density = 2.603143 g / cm^3
# Si number density = 26.090817 Si / 1000 Ang^3
#
#
#
# Elastic Constant Matrix: (Units=GPa)
#
#
# Indices 1 2 3 4 5 6 
#
# 1 248.6796 39.5621 68.3678 0.0000 0.0000 0.0000
# 2 39.5621 91.6993 15.9564 0.0000 0.0000 0.0000
# 3 68.3678 15.9564 170.8327 0.0000 0.0000 0.0000
# 4 0.0000 0.0000 0.0000 4.5249 0.0000 0.0000
# 5 0.0000 0.0000 0.0000 0.0000 38.9187 0.0000
# 6 0.0000 0.0000 0.0000 0.0000 0.0000 100.8917
#
#
#
# Elastic Compliance Matrix: (Units=1/GPa)
#
#
# Indices 1 2 3 4 5 6 
#
# 1 0.004782 -0.001759 -0.001750 0.000000 0.000000 0.000000
# 2 -0.001759 0.011732 -0.000392 0.000000 0.000000 0.000000
# 3 -0.001750 -0.000392 0.006590 0.000000 0.000000 0.000000
# 4 0.000000 0.000000 0.000000 0.221000 0.000000 0.000000
# 5 0.000000 0.000000 0.000000 0.000000 0.025695 0.000000
# 6 0.000000 0.000000 0.000000 0.000000 0.000000 0.009912
#
#
# Mechanical properties :
#
#
# Convention : Reuss Voigt Hill
#
# Bulk Modulus (GPa) = 65.34132 84.33157 74.83644
# Shear Modulus (GPa) = 17.08744 54.68875 35.88810
#
# Velocity S-wave (km/s) = 2.56192 4.58328 3.71281
# Velocity P-wave (km/s) = 5.81802 7.77181 6.86478
#
# Compressibility (1/GPa) = 0.01530425
#
# Stress axis : x y z
#
# Youngs Moduli (GPa) = 209.11733 85.23572 151.73470
#
# Poissons Ratio (x) = 0.14990 0.26546
# Poissons Ratio (y) = 0.36777 0.05948
# Poissons Ratio (z) = 0.36585 0.03341
#
# Static dielectric constant tensor:
#      x y z
#    x 1.997950 0.000000 0.000000 
#    y 0.000000 2.359300 0.000000 
#    z 0.000000 0.000000 1.997540 
# 
# From -- ./inp_files/8177.got.cif
#   From: 2010.05.17/outbox.cif.g08.bks.cpg/sg41_5_cif.got.tgz:8177.got - 2010.06.03 18:54:24.
