data_PCOD9366730
_publ_section_title
;
Structure prediction by ZEFSAII (Michael W. Deem and Ramdas Pophale) SiO2 
 PCOD9366730
Probable space group: A B A 2
;
_chemical_formula_sum "Si O2"
_cell_formula_units_Z 36
_cell_length_a 13.028086
_cell_length_b 11.308341
_cell_length_c 9.289697
_cell_angle_alpha 90.000000
_cell_angle_beta 90.000000
_cell_angle_gamma 90.000000
_cell_volume 1368.614263
_symmetry_space_group_name_H-M "A B A 2"
_symmetry_group_IT_number 41
_symmetry_cell_setting 'orthorhombic'
loop_
_space_group_symop_operation_xyz
x,y,z
-x,-y,z
1/2-x,y,1/2+z
1/2+x,-y,1/2+z
x,1/2+y,1/2+z
-x,1/2-y,1/2+z
1/2-x,1/2+y,z
1/2+x,1/2-y,z
loop_
_atom_site_type_symbol
_atom_site_label
_atom_site_fract_x
_atom_site_fract_y
_atom_site_fract_z
Si Si1 0.827232 0.661096 0.308550
Si Si2 0.567457 0.323117 0.073382
Si Si3 0.123289 0.964537 0.211063
Si Si4 0.500000 0.000000 0.224928
Si Si5 0.919241 0.848745 0.466619
O O1 0.721166 0.606248 0.262583
O O2 0.915107 0.562286 0.321316
O O3 0.828113 0.754519 0.439523
O O4 0.871244 0.735480 0.175480
O O5 0.464822 0.377127 0.151031
O O6 0.638702 0.440251 0.080923
O O7 0.520670 0.237350 0.950436
O O8 0.096994 0.047174 0.350726
O O9 0.438160 0.088912 0.118990
#
# Coordination Sequence:
#
# PCOD9366730 Si02
#       5
#     8   8   8   4   8
#     4  10  22  39  64  97 129 168 221 276 326 391
#     4   9  21  41  65  92 131 173 214 271 335 394
#     4  10  21  42  66  96 134 172 225 277 324 403
#     4  10  22  42  62  92 134 172 216 272 330 392
#     4  10  21  40  64  89 125 173 212 260 328 389
#
# _framework density 26.303978000000001
#
# number of rings (size 3 to 8) (size 9 to 14) (size 15 to 20)
#    0.000    2.222    0.000    2.667    0.000   10.667 
#    0.000   15.556    0.000    0.000    0.000    0.000 
#    0.000    0.000    0.000    0.000    0.000    0.000 
#
# Total GULP energy -100438.706915 kJ/mol
# GULP energy per Si atom -5579.928162 kJ/mol
# Density = 2.624411 g / cm^3
# Si number density = 26.303978 Si / 1000 Ang^3
#
#
#
# Elastic Constant Matrix: (Units=GPa)
#
#
# Indices 1 2 3 4 5 6 
#
# 1 112.2508 83.6027 27.2179 0.0000 0.0000 0.0000
# 2 83.6027 156.9396 70.2101 0.0000 0.0000 0.0000
# 3 27.2179 70.2101 120.6412 0.0000 0.0000 0.0000
# 4 0.0000 0.0000 0.0000 63.9017 0.0000 0.0000
# 5 0.0000 0.0000 0.0000 0.0000 28.0985 0.0000
# 6 0.0000 0.0000 0.0000 0.0000 0.0000 63.7933
#
#
#
# Elastic Compliance Matrix: (Units=1/GPa)
#
#
# Indices 1 2 3 4 5 6 
#
# 1 0.015026 -0.008771 0.001715 0.000000 0.000000 0.000000
# 2 -0.008771 0.013735 -0.006015 0.000000 0.000000 0.000000
# 3 0.001715 -0.006015 0.011403 0.000000 0.000000 0.000000
# 4 0.000000 0.000000 0.000000 0.015649 0.000000 0.000000
# 5 0.000000 0.000000 0.000000 0.000000 0.035589 0.000000
# 6 0.000000 0.000000 0.000000 0.000000 0.000000 0.015676
#
#
# Mechanical properties :
#
#
# Convention : Reuss Voigt Hill
#
# Bulk Modulus (GPa) = 71.32204 83.54368 77.43286
# Shear Modulus (GPa) = 36.25991 45.07874 40.66932
#
# Velocity S-wave (km/s) = 3.71684 4.14425 3.93635
# Velocity P-wave (km/s) = 6.75228 7.39794 7.08247
#
# Compressibility (1/GPa) = 0.01402091
#
# Stress axis : x y z
#
# Youngs Moduli (GPa) = 66.55286 72.80546 87.69987
#
# Poissons Ratio (x) = 0.63861 -0.15039
# Poissons Ratio (y) = 0.58376 0.52748
# Poissons Ratio (z) = -0.11412 0.43790
#
# Static dielectric constant tensor:
#      x y z
#    x 2.083030 0.000000 0.000000 
#    y 0.000000 2.166390 0.000000 
#    z 0.000000 0.000000 2.115160 
# 
# From -- ./inp_files/4762.got.cif
#   From: 2010.05.17/outbox.cif.g08.bks.cpg/sg41_3_cif.got.tgz:4762.got - 2010.06.03 18:54:24.
