data_PCOD9366768
_publ_section_title
;
Structure prediction by ZEFSAII (Michael W. Deem and Ramdas Pophale) SiO2 
 PCOD9366768
Probable space group: A B A 2
;
_chemical_formula_sum "Si O2"
_cell_formula_units_Z 44
_cell_length_a 20.020593
_cell_length_b 9.461982
_cell_length_c 9.983915
_cell_angle_alpha 90.000000
_cell_angle_beta 90.000000
_cell_angle_gamma 90.000000
_cell_volume 1891.297852
_symmetry_space_group_name_H-M "A B A 2"
_symmetry_group_IT_number 41
_symmetry_cell_setting 'orthorhombic'
loop_
_space_group_symop_operation_xyz
x,y,z
-x,-y,z
1/2-x,y,1/2+z
1/2+x,-y,1/2+z
x,1/2+y,1/2+z
-x,1/2-y,1/2+z
1/2-x,1/2+y,z
1/2+x,1/2-y,z
loop_
_atom_site_type_symbol
_atom_site_label
_atom_site_fract_x
_atom_site_fract_y
_atom_site_fract_z
Si Si1 0.247137 0.457804 0.484660
Si Si2 0.625068 0.691079 0.399077
Si Si3 0.820447 0.940697 0.249744
Si Si4 0.000000 0.000000 0.119598
Si Si5 0.933540 0.728590 0.171524
Si Si6 0.604890 0.511576 0.882282
O O1 0.303370 0.337423 0.473287
O O2 0.229698 0.509098 0.633261
O O3 0.280308 0.576464 0.388078
O O4 0.176576 0.421719 0.417148
O O5 0.628977 0.569529 0.287818
O O6 0.570561 0.677988 0.517469
O O7 0.618476 0.848769 0.343837
O O8 0.864372 0.810683 0.203554
O O9 0.988596 0.850462 0.192722
O O10 0.062579 0.989698 0.018246
O O11 0.934637 0.598807 0.271801
#
# Coordination Sequence:
#
# PCOD9366768 Si02
#       6
#     8   8   8   4   8   8
#     4  10  21  40  69 101 139 178 219 285 355 416
#     4   9  23  41  65 102 136 174 224 278 360 414
#     4  10  22  41  68 101 142 180 227 282 357 423
#     4  10  24  46  66  96 140 186 238 280 348 414
#     4  11  23  46  70  97 135 186 232 293 340 413
#     4  11  23  44  71  96 138 183 228 292 342 416
#
# _framework density 23.264447000000001
#
# number of rings (size 3 to 8) (size 9 to 14) (size 15 to 20)
#    1.091    0.727    3.636    1.091    2.545    2.909 
#    6.545    0.000    0.000    0.000    0.000    0.000 
#    0.000    0.000    0.000    0.000    0.000    0.000 
#
# Total GULP energy -122805.885404 kJ/mol
# GULP energy per Si atom -5582.085700 kJ/mol
# Density = 2.321150 g / cm^3
# Si number density = 23.264447 Si / 1000 Ang^3
#
#
#
# Elastic Constant Matrix: (Units=GPa)
#
#
# Indices 1 2 3 4 5 6 
#
# 1 58.2050 3.1864 -10.7923 0.0000 0.0000 0.0000
# 2 3.1864 98.3445 46.7275 0.0000 0.0000 0.0000
# 3 -10.7923 46.7275 104.9215 0.0000 0.0000 0.0000
# 4 0.0000 0.0000 0.0000 26.5146 0.0000 0.0000
# 5 0.0000 0.0000 0.0000 0.0000 26.6243 0.0000
# 6 0.0000 0.0000 0.0000 0.0000 0.0000 44.6773
#
#
#
# Elastic Compliance Matrix: (Units=1/GPa)
#
#
# Indices 1 2 3 4 5 6 
#
# 1 0.017771 -0.001832 0.002644 0.000000 0.000000 0.000000
# 2 -0.001832 0.013086 -0.006017 0.000000 0.000000 0.000000
# 3 0.002644 -0.006017 0.012482 0.000000 0.000000 0.000000
# 4 0.000000 0.000000 0.000000 0.037715 0.000000 0.000000
# 5 0.000000 0.000000 0.000000 0.000000 0.037560 0.000000
# 6 0.000000 0.000000 0.000000 0.000000 0.000000 0.022383
#
#
# Mechanical properties :
#
#
# Convention : Reuss Voigt Hill
#
# Bulk Modulus (GPa) = 30.36692 37.74603 34.05648
# Shear Modulus (GPa) = 30.79125 34.38652 32.58889
#
# Velocity S-wave (km/s) = 3.64199 3.84874 3.74679
# Velocity P-wave (km/s) = 5.54677 6.00087 5.77828
#
# Compressibility (1/GPa) = 0.03293057
#
# Stress axis : x y z
#
# Youngs Moduli (GPa) = 56.27089 76.41511 80.11275
#
# Poissons Ratio (x) = 0.13999 -0.21181
# Poissons Ratio (y) = 0.10309 0.48200
# Poissons Ratio (z) = -0.14877 0.45976
#
# Static dielectric constant tensor:
#      x y z
#    x 1.918430 0.000000 0.000000 
#    y 0.000000 1.870680 0.000000 
#    z 0.000000 0.000000 1.886000 
# 
# From -- ./inp_files/6378.got.cif
#   From: 2010.05.17/outbox.cif.g08.bks.cpg/sg41_4_cif.got.tgz:6378.got - 2010.06.03 18:54:24.
