data_PCOD9366259
_publ_section_title
;
Structure prediction by ZEFSAII (Michael W. Deem and Ramdas Pophale) SiO2 
 PCOD9366259
Probable space group: A B A 2
;
_chemical_formula_sum "Si O2"
_cell_formula_units_Z 60
_cell_length_a 5.591315
_cell_length_b 29.346034
_cell_length_c 14.911907
_cell_angle_alpha 90.000000
_cell_angle_beta 90.000000
_cell_angle_gamma 90.000000
_cell_volume 2446.789245
_symmetry_space_group_name_H-M "A B A 2"
_symmetry_group_IT_number 41
_symmetry_cell_setting 'orthorhombic'
loop_
_space_group_symop_operation_xyz
x,y,z
-x,-y,z
1/2-x,y,1/2+z
1/2+x,-y,1/2+z
x,1/2+y,1/2+z
-x,1/2-y,1/2+z
1/2-x,1/2+y,z
1/2+x,1/2-y,z
loop_
_atom_site_type_symbol
_atom_site_label
_atom_site_fract_x
_atom_site_fract_y
_atom_site_fract_z
Si Si1 0.912298 0.226332 0.554420
Si Si2 0.475851 0.875712 0.071802
Si Si3 0.390103 0.543189 0.472696
Si Si4 0.033817 0.553050 0.330721
Si Si5 0.000000 0.500000 0.605254
Si Si6 0.407447 0.772511 0.274382
Si Si7 0.135264 0.586947 0.683663
Si Si8 0.739425 0.130147 0.769088
O O1 0.655368 0.247201 0.526249
O O2 0.911031 0.227650 0.664456
O O3 0.937883 0.173193 0.527810
O O4 0.751659 0.886146 0.100494
O O5 0.336328 0.873644 0.166148
O O6 0.425650 0.920874 0.014436
O O7 0.500000 0.500000 0.421324
O O8 0.213124 0.569333 0.407460
O O9 0.225636 0.517214 0.546925
O O10 0.159577 0.559534 0.235115
O O11 0.000000 0.500000 0.347032
O O12 0.811418 0.586446 0.326198
O O13 0.952001 0.545998 0.661289
O O14 0.671813 0.756291 0.302013
O O15 0.346898 0.823624 0.304957
O O16 0.040578 0.625639 0.750861
#
# Coordination Sequence:
#
# PCOD9366259 Si02
#       8
#     8   8   8   8   4   8   8   8
#     4   9  18  32  56  89 123 154 196 253 312 363
#     4   9  21  36  56  90 116 152 202 247 301 368
#     4  11  23  39  58  81 119 158 202 244 305 363
#     4  11  24  38  55  85 119 157 206 246 303 371
#     4  10  20  38  58  82 114 152 202 246 300 358
#     4   9  19  32  57  88 124 158 198 254 314 369
#     4  10  21  34  60  84 115 156 195 250 306 357
#     4  10  21  36  59  86 121 152 202 251 308 365
#
# _framework density 24.521930000000001
#
# number of rings (size 3 to 8) (size 9 to 14) (size 15 to 20)
#    0.000    2.133    0.667    1.600   14.000    3.733 
#    0.000    0.000    0.000    1.600    0.000    0.000 
#    0.000    0.000    0.000    0.000    0.000    0.000 
#
# Total GULP energy -167443.870549 kJ/mol
# GULP energy per Si atom -5581.462352 kJ/mol
# Density = 2.446612 g / cm^3
# Si number density = 24.521930 Si / 1000 Ang^3
#
#
#
# Elastic Constant Matrix: (Units=GPa)
#
#
# Indices 1 2 3 4 5 6 
#
# 1 85.8659 52.7332 10.4724 0.0000 0.0000 0.0000
# 2 52.7332 165.4823 13.1479 0.0000 0.0000 0.0000
# 3 10.4724 13.1479 40.2363 0.0000 0.0000 0.0000
# 4 0.0000 0.0000 0.0000 -0.7001 0.0000 0.0000
# 5 0.0000 0.0000 0.0000 0.0000 35.0174 0.0000
# 6 0.0000 0.0000 0.0000 0.0000 0.0000 32.3594
#
#
#
# Elastic Compliance Matrix: (Units=1/GPa)
#
#
# Indices 1 2 3 4 5 6 
#
# 1 0.014694 -0.004495 -0.002356 0.000000 0.000000 0.000000
# 2 -0.004495 0.007579 -0.001307 0.000000 0.000000 0.000000
# 3 -0.002356 -0.001307 0.025893 0.000000 0.000000 0.000000
# 4 0.000000 0.000000 0.000000 -1.428271 0.000000 0.000000
# 5 0.000000 0.000000 0.000000 0.000000 0.028557 0.000000
# 6 0.000000 0.000000 0.000000 0.000000 0.000000 0.030903
#
#
# Mechanical properties :
#
#
# Convention : Reuss Voigt Hill
#
# Bulk Modulus (GPa) = 31.39565 49.36573 40.38069
# Shear Modulus (GPa) = -3.86485 27.68406 11.90960
#
# Velocity S-wave (km/s) = -1.25678 3.36363 2.20619
# Velocity P-wave (km/s) = 3.27489 5.93804 4.79506
#
# Compressibility (1/GPa) = 0.03185155
#
# Stress axis : x y z
#
# Youngs Moduli (GPa) = 68.05454 131.93902 38.62016
#
# Poissons Ratio (x) = 0.59311 0.09097
# Poissons Ratio (y) = 0.30593 0.05046
# Poissons Ratio (z) = 0.16030 0.17240
#
# Static dielectric constant tensor:
#      x y z
#    x 2.064240 0.000000 0.000000 
#    y 0.000000 1.960810 0.000000 
#    z 0.000000 0.000000 1.997500 
# 
# From -- ./inp_files/9466.got.cif
#   From: 2010.05.17/outbox.cif.g08.bks.cpg/sg41_5_cif.got.tgz:9466.got - 2010.06.03 18:54:24.
