data_PCOD9366292
_publ_section_title
;
Structure prediction by ZEFSAII (Michael W. Deem and Ramdas Pophale) SiO2 
 PCOD9366292
Probable space group: A B A 2
;
_chemical_formula_sum "Si O2"
_cell_formula_units_Z 52
_cell_length_a 13.870567
_cell_length_b 7.500851
_cell_length_c 21.840931
_cell_angle_alpha 90.000000
_cell_angle_beta 90.000000
_cell_angle_gamma 90.000000
_cell_volume 2272.353533
_symmetry_space_group_name_H-M "A B A 2"
_symmetry_group_IT_number 41
_symmetry_cell_setting 'orthorhombic'
loop_
_space_group_symop_operation_xyz
x,y,z
-x,-y,z
1/2-x,y,1/2+z
1/2+x,-y,1/2+z
x,1/2+y,1/2+z
-x,1/2-y,1/2+z
1/2-x,1/2+y,z
1/2+x,1/2-y,z
loop_
_atom_site_type_symbol
_atom_site_label
_atom_site_fract_x
_atom_site_fract_y
_atom_site_fract_z
Si Si1 0.312609 0.963535 0.779890
Si Si2 0.379137 0.676414 0.029780
Si Si3 0.326407 0.272159 0.054978
Si Si4 0.000000 0.000000 0.565837
Si Si5 0.176630 0.678606 0.189152
Si Si6 0.500000 0.500000 0.720437
Si Si7 0.000000 0.000000 0.928409
Si Si8 0.617623 0.696076 0.825876
O O1 0.259085 0.075720 0.725872
O O2 0.376420 0.092077 0.820323
O O3 0.364207 0.812440 0.740890
O O4 0.226621 0.875716 0.818296
O O5 0.367805 0.471946 0.052845
O O6 0.271081 0.746636 0.016459
O O7 0.434555 0.814291 0.074102
O O8 0.441256 0.641582 0.968814
O O9 0.289224 0.251427 0.125249
O O10 0.405812 0.120468 0.040644
O O11 0.080851 0.569135 0.174299
O O12 0.559158 0.626072 0.766425
O O13 0.929365 0.111487 0.884865
#
# Coordination Sequence:
#
# PCOD9366292 Si02
#       8
#     8   8   8   4   8   4   4   8
#     4   9  19  38  63  95 127 172 225 279 351 433
#     4  12  26  46  72 101 144 187 248 304 353 433
#     4  12  24  45  72 105 151 190 238 301 359 440
#     4  12  25  48  69 102 148 185 242 301 356 420
#     4  10  20  38  63  96 134 179 217 271 363 430
#     4   9  19  38  60  92 130 170 216 284 340 432
#     4  11  24  46  67  98 136 185 248 297 368 408
#     4   9  20  40  64  90 131 168 227 295 341 418
#
# _framework density 22.883763999999999
#
# number of rings (size 3 to 8) (size 9 to 14) (size 15 to 20)
#    0.000    1.538    3.077    1.385    0.000    1.846 
#   11.077    4.615    0.000    0.000    0.000    0.000 
#    0.000    0.000    0.000    0.000    0.000    0.000 
#
# Total GULP energy -144823.472014 kJ/mol
# GULP energy per Si atom -5570.133539 kJ/mol
# Density = 2.283168 g / cm^3
# Si number density = 22.883764 Si / 1000 Ang^3
#
#
#
# Elastic Constant Matrix: (Units=GPa)
#
#
# Indices 1 2 3 4 5 6 
#
# 1 84.9887 18.8357 8.0889 0.0000 0.0000 0.0000
# 2 18.8357 89.7302 2.7413 0.0000 0.0000 0.0000
# 3 8.0889 2.7413 67.8531 0.0000 0.0000 0.0000
# 4 0.0000 0.0000 0.0000 7.5993 0.0000 0.0000
# 5 0.0000 0.0000 0.0000 0.0000 -46.8719 0.0000
# 6 0.0000 0.0000 0.0000 0.0000 0.0000 38.9629
#
#
#
# Elastic Compliance Matrix: (Units=1/GPa)
#
#
# Indices 1 2 3 4 5 6 
#
# 1 0.012469 -0.002575 -0.001382 0.000000 0.000000 0.000000
# 2 -0.002575 0.011690 -0.000165 0.000000 0.000000 0.000000
# 3 -0.001382 -0.000165 0.014909 0.000000 0.000000 0.000000
# 4 0.000000 0.000000 0.000000 0.131592 0.000000 0.000000
# 5 0.000000 0.000000 0.000000 0.000000 -0.021335 0.000000
# 6 0.000000 0.000000 0.000000 0.000000 0.000000 0.025665
#
#
# Mechanical properties :
#
#
# Convention : Reuss Voigt Hill
#
# Bulk Modulus (GPa) = 32.44403 33.54488 32.99446
# Shear Modulus (GPa) = 25.83848 14.13179 19.98513
#
# Velocity S-wave (km/s) = 3.36388 2.48774 2.95843
# Velocity P-wave (km/s) = 5.41259 4.78983 5.11070
#
# Compressibility (1/GPa) = 0.03082231
#
# Stress axis : x y z
#
# Youngs Moduli (GPa) = 80.20181 85.54230 67.07273
#
# Poissons Ratio (x) = 0.22028 0.09272
# Poissons Ratio (y) = 0.20653 0.01109
# Poissons Ratio (z) = 0.11087 0.01414
#
# Static dielectric constant tensor:
#      x y z
#    x 1.896730 0.000000 0.000000 
#    y 0.000000 1.968420 0.000000 
#    z 0.000000 0.000000 1.983300 
# 
# From -- ./inp_files/12199.got.cif
#   From: 2010.05.17/outbox.cif.g08.bks.cpg/sg41_7_cif.got.tgz:12199.got - 2010.06.03 18:54:24.
