data_PCOD9366452
_publ_section_title
;
Structure prediction by ZEFSAII (Michael W. Deem and Ramdas Pophale) SiO2 
 PCOD9366452
Probable space group: A B A 2
;
_chemical_formula_sum "Si O2"
_cell_formula_units_Z 48
_cell_length_a 13.814728
_cell_length_b 13.385607
_cell_length_c 10.892052
_cell_angle_alpha 90.000000
_cell_angle_beta 90.000000
_cell_angle_gamma 90.000000
_cell_volume 2014.142134
_symmetry_space_group_name_H-M "A B A 2"
_symmetry_group_IT_number 41
_symmetry_cell_setting 'orthorhombic'
loop_
_space_group_symop_operation_xyz
x,y,z
-x,-y,z
1/2-x,y,1/2+z
1/2+x,-y,1/2+z
x,1/2+y,1/2+z
-x,1/2-y,1/2+z
1/2-x,1/2+y,z
1/2+x,1/2-y,z
loop_
_atom_site_type_symbol
_atom_site_label
_atom_site_fract_x
_atom_site_fract_y
_atom_site_fract_z
Si Si1 0.647002 0.862973 0.293010
Si Si2 0.807094 0.627618 0.790331
Si Si3 0.714413 0.176601 0.534212
Si Si4 0.373015 0.075501 0.798606
Si Si5 0.887995 0.815696 0.048499
Si Si6 0.553091 0.824942 0.046015
O O1 0.657214 0.741618 0.291677
O O2 0.755433 0.907097 0.295497
O O3 0.596645 0.879735 0.424931
O O4 0.587585 0.882742 0.168402
O O5 0.761661 0.614174 0.655465
O O6 0.887070 0.542983 0.800833
O O7 0.737351 0.622761 0.907497
O O8 0.776004 0.279646 0.544401
O O9 0.605512 0.215933 0.539923
O O10 0.408553 0.127606 0.674300
O O11 0.415574 0.121891 0.921649
O O12 0.942555 0.709069 0.047947
#
# Coordination Sequence:
#
# PCOD9366452 Si02
#       6
#     8   8   8   8   8   8
#     4  10  21  42  58  90 124 161 204 258 310 366
#     4  10  22  35  67  84 125 164 204 252 315 371
#     4  10  20  42  56  90 128 162 202 270 312 364
#     4  12  21  39  66  93 119 169 212 250 322 381
#     4  11  21  39  66  90 122 167 209 257 312 374
#     4  11  21  39  66  90 122 167 209 257 312 374
#
# _framework density 23.831485000000001
#
# number of rings (size 3 to 8) (size 9 to 14) (size 15 to 20)
#    0.000    1.333    6.667    1.000    4.667    0.000 
#    0.000   13.333    0.000    2.000    0.000    0.000 
#    0.000    0.000    0.000    0.000    0.000    0.000 
#
# Total GULP energy -134088.376279 kJ/mol
# GULP energy per Si atom -5587.015678 kJ/mol
# Density = 2.377724 g / cm^3
# Si number density = 23.831485 Si / 1000 Ang^3
#
#
#
# Elastic Constant Matrix: (Units=GPa)
#
#
# Indices 1 2 3 4 5 6 
#
# 1 40.3995 -4.4048 12.8612 0.0000 0.0000 0.0000
# 2 -4.4048 65.6746 19.1830 0.0000 0.0000 0.0000
# 3 12.8612 19.1830 233.9454 0.0000 0.0000 0.0000
# 4 0.0000 0.0000 0.0000 7.6420 0.0000 0.0000
# 5 0.0000 0.0000 0.0000 0.0000 27.7527 0.0000
# 6 0.0000 0.0000 0.0000 0.0000 0.0000 27.5303
#
#
#
# Elastic Compliance Matrix: (Units=1/GPa)
#
#
# Indices 1 2 3 4 5 6 
#
# 1 0.025492 0.002171 -0.001579 0.000000 0.000000 0.000000
# 2 0.002171 0.015785 -0.001414 0.000000 0.000000 0.000000
# 3 -0.001579 -0.001414 0.004477 0.000000 0.000000 0.000000
# 4 0.000000 0.000000 0.000000 0.130856 0.000000 0.000000
# 5 0.000000 0.000000 0.000000 0.000000 0.036033 0.000000
# 6 0.000000 0.000000 0.000000 0.000000 0.000000 0.036324
#
#
# Mechanical properties :
#
#
# Convention : Reuss Voigt Hill
#
# Bulk Modulus (GPa) = 22.67027 43.92203 33.29615
# Shear Modulus (GPa) = 18.84553 33.41033 26.12793
#
# Velocity S-wave (km/s) = 2.81514 3.74831 3.31473
# Velocity P-wave (km/s) = 4.48331 6.09946 5.35273
#
# Compressibility (1/GPa) = 0.04411064
#
# Stress axis : x y z
#
# Youngs Moduli (GPa) = 39.22746 63.35076 223.35117
#
# Poissons Ratio (x) = -0.13754 0.35278
# Poissons Ratio (y) = -0.08517 0.31575
# Poissons Ratio (z) = 0.06196 0.08956
#
# Static dielectric constant tensor:
#      x y z
#    x 1.904880 0.000000 0.000000 
#    y 0.000000 1.858520 0.000000 
#    z 0.000000 0.000000 1.972780 
# 
# From -- ./inp_files/5518.got.cif
#   From: 2010.05.17/outbox.cif.g08.bks.cpg/sg41_3_cif.got.tgz:5518.got - 2010.06.03 18:54:24.
