data_PCOD9366487
_publ_section_title
;
Structure prediction by ZEFSAII (Michael W. Deem and Ramdas Pophale) SiO2 
 PCOD9366487
Probable space group: A B A 2
;
_chemical_formula_sum "Si O2"
_cell_formula_units_Z 56
_cell_length_a 15.139876
_cell_length_b 16.175103
_cell_length_c 8.938488
_cell_angle_alpha 90.000000
_cell_angle_beta 90.000000
_cell_angle_gamma 90.000000
_cell_volume 2188.937868
_symmetry_space_group_name_H-M "A B A 2"
_symmetry_group_IT_number 41
_symmetry_cell_setting 'orthorhombic'
loop_
_space_group_symop_operation_xyz
x,y,z
-x,-y,z
1/2-x,y,1/2+z
1/2+x,-y,1/2+z
x,1/2+y,1/2+z
-x,1/2-y,1/2+z
1/2-x,1/2+y,z
1/2+x,1/2-y,z
loop_
_atom_site_type_symbol
_atom_site_label
_atom_site_fract_x
_atom_site_fract_y
_atom_site_fract_z
Si Si1 0.441537 0.579514 0.649810
Si Si2 0.475101 0.256751 0.180252
Si Si3 0.150838 0.786820 0.762157
Si Si4 0.250034 0.441859 0.789297
Si Si5 0.740941 0.947682 0.543210
Si Si6 0.176503 0.285671 0.910039
Si Si7 0.544107 0.913188 0.511757
O O1 0.500000 0.500000 0.599901
O O2 0.449576 0.582575 0.831251
O O3 0.479887 0.667938 0.597904
O O4 0.338969 0.576876 0.597031
O O5 0.558932 0.254427 0.289838
O O6 0.391361 0.253154 0.288106
O O7 0.487273 0.337021 0.077327
O O8 0.161397 0.885869 0.791705
O O9 0.167160 0.776308 0.585459
O O10 0.253700 0.529236 0.869271
O O11 0.225586 0.462192 0.620617
O O12 0.271585 0.249805 0.862006
O O13 0.680561 0.117285 0.868328
O O14 0.646755 0.903314 0.566026
O O15 0.500000 0.000000 0.561117
#
# Coordination Sequence:
#
# PCOD9366487 Si02
#       7
#     8   8   8   8   8   8   8
#     4  11  27  49  79 114 157 213 260 328 399 472
#     4  12  26  48  74 114 157 205 270 328 395 480
#     4  10  23  42  74 105 152 207 254 325 404 463
#     4  10  20  42  76 107 149 201 253 324 394 467
#     4  12  22  46  78 113 153 204 266 317 391 480
#     4  10  23  42  73 106 152 204 257 321 403 466
#     4  11  27  49  78 113 160 208 262 327 398 472
#
# _framework density 25.583185
#
# number of rings (size 3 to 8) (size 9 to 14) (size 15 to 20)
#    0.857    0.286    2.857    2.571    4.000    2.286 
#    5.143    0.714    0.000    0.000    0.000    0.000 
#    0.000    0.000    0.000    0.000    0.000    0.000 
#
# Total GULP energy -156434.066762 kJ/mol
# GULP energy per Si atom -5586.930956 kJ/mol
# Density = 2.552496 g / cm^3
# Si number density = 25.583185 Si / 1000 Ang^3
#
#
#
# Elastic Constant Matrix: (Units=GPa)
#
#
# Indices 1 2 3 4 5 6 
#
# 1 105.6016 50.0219 28.0655 0.0000 0.0000 0.0000
# 2 50.0219 151.3276 33.6387 0.0000 0.0000 0.0000
# 3 28.0655 33.6387 74.0456 0.0000 0.0000 0.0000
# 4 0.0000 0.0000 0.0000 21.0842 0.0000 0.0000
# 5 0.0000 0.0000 0.0000 0.0000 19.8661 0.0000
# 6 0.0000 0.0000 0.0000 0.0000 0.0000 39.9066
#
#
#
# Elastic Compliance Matrix: (Units=1/GPa)
#
#
# Indices 1 2 3 4 5 6 
#
# 1 0.011799 -0.003233 -0.003004 0.000000 0.000000 0.000000
# 2 -0.003233 0.008236 -0.002516 0.000000 0.000000 0.000000
# 3 -0.003004 -0.002516 0.015787 0.000000 0.000000 0.000000
# 4 0.000000 0.000000 0.000000 0.047429 0.000000 0.000000
# 5 0.000000 0.000000 0.000000 0.000000 0.050337 0.000000
# 6 0.000000 0.000000 0.000000 0.000000 0.000000 0.025059
#
#
# Mechanical properties :
#
#
# Convention : Reuss Voigt Hill
#
# Bulk Modulus (GPa) = 54.59468 61.60298 58.09883
# Shear Modulus (GPa) = 27.43376 30.78795 29.11086
#
# Velocity S-wave (km/s) = 3.27821 3.47283 3.37692
# Velocity P-wave (km/s) = 5.97622 6.34133 6.16148
#
# Compressibility (1/GPa) = 0.01831680
#
# Stress axis : x y z
#
# Youngs Moduli (GPa) = 84.75272 121.41698 63.34382
#
# Poissons Ratio (x) = 0.39248 0.19026
# Poissons Ratio (y) = 0.27397 0.15940
# Poissons Ratio (z) = 0.25457 0.30553
#
# Static dielectric constant tensor:
#      x y z
#    x 2.090520 0.000000 0.000000 
#    y 0.000000 2.091310 0.000000 
#    z 0.000000 0.000000 1.933430 
# 
# From -- ./inp_files/3201.got.cif
#   From: 2010.05.17/outbox.cif.g08.bks.cpg/sg41_2_cif.got.tgz:3201.got - 2010.06.03 18:54:24.
