data_PCOD9366630
_publ_section_title
;
Structure prediction by ZEFSAII (Michael W. Deem and Ramdas Pophale) SiO2 
 PCOD9366630
Probable space group: A B A 2
;
_chemical_formula_sum "Si O2"
_cell_formula_units_Z 56
_cell_length_a 6.173768
_cell_length_b 26.696952
_cell_length_c 14.641831
_cell_angle_alpha 90.000000
_cell_angle_beta 90.000000
_cell_angle_gamma 90.000000
_cell_volume 2413.278123
_symmetry_space_group_name_H-M "A B A 2"
_symmetry_group_IT_number 41
_symmetry_cell_setting 'orthorhombic'
loop_
_space_group_symop_operation_xyz
x,y,z
-x,-y,z
1/2-x,y,1/2+z
1/2+x,-y,1/2+z
x,1/2+y,1/2+z
-x,1/2-y,1/2+z
1/2-x,1/2+y,z
1/2+x,1/2-y,z
loop_
_atom_site_type_symbol
_atom_site_label
_atom_site_fract_x
_atom_site_fract_y
_atom_site_fract_z
Si Si1 0.259353 0.144818 0.859420
Si Si2 0.724304 0.859564 0.659845
Si Si3 0.517349 0.766941 0.151324
Si Si4 0.498643 0.802103 0.492165
Si Si5 0.968768 0.555171 0.130377
Si Si6 0.581959 0.554320 0.836852
Si Si7 0.347581 0.383437 0.468940
O O1 0.374400 0.148914 0.761016
O O2 0.411413 0.129669 0.942101
O O3 0.094465 0.098648 0.846810
O O4 0.139715 0.193901 0.899836
O O5 0.944204 0.825719 0.664648
O O6 0.590525 0.835716 0.577408
O O7 0.802027 0.915877 0.642893
O O8 0.265307 0.753904 0.182779
O O9 0.525364 0.750141 0.044490
O O10 0.284969 0.832289 0.465188
O O11 0.866247 0.549584 0.230100
O O12 0.000000 0.500000 0.090801
O O13 0.827973 0.589635 0.065277
O O14 0.500000 0.500000 0.868196
O O15 0.775527 0.575563 0.895522
#
# Coordination Sequence:
#
# PCOD9366630 Si02
#       7
#     8   8   8   8   8   8   8
#     4  10  22  40  63  97 128 180 226 281 350 424
#     4  10  21  43  67  93 140 173 226 284 348 420
#     4  10  22  42  70  98 132 182 218 281 350 405
#     4  10  22  41  66  96 133 170 225 287 346 411
#     4  10  21  38  63  92 129 175 221 276 343 414
#     4   9  22  39  56  91 134 172 227 288 345 420
#     4  11  22  36  68  91 130 178 228 287 351 421
#
# _framework density 23.204951000000001
#
# number of rings (size 3 to 8) (size 9 to 14) (size 15 to 20)
#    0.000    2.000    1.429    0.857    6.000    0.000 
#    7.714    5.714    0.000    0.000    0.000    0.000 
#    0.000    0.000    0.000    0.000    0.000    0.000 
#
# Total GULP energy -156018.417494 kJ/mol
# GULP energy per Si atom -5572.086339 kJ/mol
# Density = 2.315214 g / cm^3
# Si number density = 23.204951 Si / 1000 Ang^3
#
#
#
# Elastic Constant Matrix: (Units=GPa)
#
#
# Indices 1 2 3 4 5 6 
#
# 1 55.9133 2.9141 5.8398 0.0000 0.0000 0.0000
# 2 2.9141 76.0689 4.8194 0.0000 0.0000 0.0000
# 3 5.8398 4.8194 56.5636 0.0000 0.0000 0.0000
# 4 0.0000 0.0000 0.0000 28.2863 0.0000 0.0000
# 5 0.0000 0.0000 0.0000 0.0000 27.4680 0.0000
# 6 0.0000 0.0000 0.0000 0.0000 0.0000 19.2267
#
#
#
# Elastic Compliance Matrix: (Units=1/GPa)
#
#
# Indices 1 2 3 4 5 6 
#
# 1 0.018105 -0.000578 -0.001820 0.000000 0.000000 0.000000
# 2 -0.000578 0.013236 -0.001068 0.000000 0.000000 0.000000
# 3 -0.001820 -0.001068 0.017958 0.000000 0.000000 0.000000
# 4 0.000000 0.000000 0.000000 0.035353 0.000000 0.000000
# 5 0.000000 0.000000 0.000000 0.000000 0.036406 0.000000
# 6 0.000000 0.000000 0.000000 0.000000 0.000000 0.052011
#
#
# Mechanical properties :
#
#
# Convention : Reuss Voigt Hill
#
# Bulk Modulus (GPa) = 23.60357 23.96581 23.78469
# Shear Modulus (GPa) = 25.75682 26.66105 26.20893
#
# Velocity S-wave (km/s) = 3.33524 3.39328 3.36438
# Velocity P-wave (km/s) = 5.00256 5.06979 5.03629
#
# Compressibility (1/GPa) = 0.04236647
#
# Stress axis : x y z
#
# Youngs Moduli (GPa) = 55.23315 75.55273 55.68514
#
# Poissons Ratio (x) = 0.04369 0.10134
# Poissons Ratio (y) = 0.03194 0.05947
# Poissons Ratio (z) = 0.10052 0.08069
#
# Static dielectric constant tensor:
#      x y z
#    x 1.953440 0.000000 0.000000 
#    y 0.000000 1.889520 0.000000 
#    z 0.000000 0.000000 1.917190 
# 
# From -- ./inp_files/6972.got.cif
#   From: 2010.05.17/outbox.cif.g08.bks.cpg/sg41_4_cif.got.tgz:6972.got - 2010.06.03 18:54:24.
