data_PCOD9366641
_publ_section_title
;
Structure prediction by ZEFSAII (Michael W. Deem and Ramdas Pophale) SiO2 
 PCOD9366641
Probable space group: A B A 2
;
_chemical_formula_sum "Si O2"
_cell_formula_units_Z 60
_cell_length_a 10.661449
_cell_length_b 13.876048
_cell_length_c 18.086211
_cell_angle_alpha 90.000000
_cell_angle_beta 90.000000
_cell_angle_gamma 90.000000
_cell_volume 2675.651955
_symmetry_space_group_name_H-M "A B A 2"
_symmetry_group_IT_number 41
_symmetry_cell_setting 'orthorhombic'
loop_
_space_group_symop_operation_xyz
x,y,z
-x,-y,z
1/2-x,y,1/2+z
1/2+x,-y,1/2+z
x,1/2+y,1/2+z
-x,1/2-y,1/2+z
1/2-x,1/2+y,z
1/2+x,1/2-y,z
loop_
_atom_site_type_symbol
_atom_site_label
_atom_site_fract_x
_atom_site_fract_y
_atom_site_fract_z
Si Si1 0.038716 0.892845 0.731140
Si Si2 0.266662 0.920339 0.111266
Si Si3 0.222908 0.965867 0.833841
Si Si4 0.946443 0.223955 0.159758
Si Si5 0.539596 0.712606 0.989664
Si Si6 0.500000 0.000000 0.443581
Si Si7 0.806106 0.666428 0.950165
Si Si8 0.627772 0.937503 0.702331
O O1 0.103529 0.906462 0.652416
O O2 0.147077 0.879763 0.791424
O O3 0.935622 0.812207 0.716855
O O4 0.000000 0.000000 0.752236
O O5 0.171333 0.847326 0.153326
O O6 0.207294 0.023679 0.131756
O O7 0.287582 0.892318 0.027050
O O8 0.122712 0.010818 0.891461
O O9 0.320789 0.909951 0.884773
O O10 0.287203 0.035893 0.773811
O O11 0.958074 0.251117 0.073434
O O12 0.072602 0.168101 0.186268
O O13 0.515726 0.596982 0.990693
O O14 0.673233 0.723701 0.949107
O O15 0.423767 0.763831 0.951300
O O16 0.500000 0.000000 0.708917
#
# Coordination Sequence:
#
# PCOD9366641 Si02
#       8
#     8   8   8   8   8   4   8   8
#     4  11  22  41  62  93 131 168 218 274 331 389
#     4   9  20  39  64  95 129 168 214 274 324 392
#     4  10  22  41  61  91 134 175 214 264 336 400
#     4  10  21  38  66  96 126 166 221 271 329 393
#     4  10  22  41  68  95 131 172 226 276 327 395
#     4  10  22  42  64  90 132 184 220 258 340 402
#     4  10  21  43  64  96 136 172 228 267 333 394
#     4   9  20  39  61  94 127 166 214 268 329 384
#
# _framework density 22.424441999999999
#
# number of rings (size 3 to 8) (size 9 to 14) (size 15 to 20)
#    0.000    2.133    2.000    0.000    6.533    3.200 
#   16.800    0.667    0.000    0.000    0.000    0.000 
#    0.000    0.000    0.000    0.000    0.000    0.000 
#
# Total GULP energy -167287.932084 kJ/mol
# GULP energy per Si atom -5576.264403 kJ/mol
# Density = 2.237340 g / cm^3
# Si number density = 22.424442 Si / 1000 Ang^3
#
#
#
# Elastic Constant Matrix: (Units=GPa)
#
#
# Indices 1 2 3 4 5 6 
#
# 1 53.1430 -5.4015 2.6771 0.0000 0.0000 0.0000
# 2 -5.4015 33.3855 7.6006 0.0000 0.0000 0.0000
# 3 2.6771 7.6006 67.5138 0.0000 0.0000 0.0000
# 4 0.0000 0.0000 0.0000 14.5434 0.0000 0.0000
# 5 0.0000 0.0000 0.0000 0.0000 5.8961 0.0000
# 6 0.0000 0.0000 0.0000 0.0000 0.0000 28.8419
#
#
#
# Elastic Compliance Matrix: (Units=1/GPa)
#
#
# Indices 1 2 3 4 5 6 
#
# 1 0.019217 0.003369 -0.001141 0.000000 0.000000 0.000000
# 2 0.003369 0.031332 -0.003661 0.000000 0.000000 0.000000
# 3 -0.001141 -0.003661 0.015269 0.000000 0.000000 0.000000
# 4 0.000000 0.000000 0.000000 0.068760 0.000000 0.000000
# 5 0.000000 0.000000 0.000000 0.000000 0.169605 0.000000
# 6 0.000000 0.000000 0.000000 0.000000 0.000000 0.034672
#
#
# Mechanical properties :
#
#
# Convention : Reuss Voigt Hill
#
# Bulk Modulus (GPa) = 15.88523 18.19942 17.04233
# Shear Modulus (GPa) = 13.78533 19.80068 16.79300
#
# Velocity S-wave (km/s) = 2.48210 2.97475 2.73952
# Velocity P-wave (km/s) = 3.91327 4.46456 4.19798
#
# Compressibility (1/GPa) = 0.06295155
#
# Stress axis : x y z
#
# Youngs Moduli (GPa) = 52.03703 31.91663 65.49143
#
# Poissons Ratio (x) = -0.10753 0.07474
# Poissons Ratio (y) = -0.17531 0.23975
# Poissons Ratio (z) = 0.05939 0.11684
#
# Static dielectric constant tensor:
#      x y z
#    x 1.898890 0.000000 0.000000 
#    y 0.000000 1.935630 0.000000 
#    z 0.000000 0.000000 1.834250 
# 
# From -- ./inp_files/10104.got.cif
#   From: 2010.05.17/outbox.cif.g08.bks.cpg/sg41_6_cif.got.tgz:10104.got - 2010.06.03 18:54:24.
