data_PCOD9366209
_publ_section_title
;
Structure prediction by ZEFSAII (Michael W. Deem and Ramdas Pophale) SiO2 
 PCOD9366209
Probable space group: A B A 2
;
_chemical_formula_sum "Si O2"
_cell_formula_units_Z 60
_cell_length_a 9.175851
_cell_length_b 12.526408
_cell_length_c 24.814768
_cell_angle_alpha 90.000000
_cell_angle_beta 90.000000
_cell_angle_gamma 90.000000
_cell_volume 2852.220684
_symmetry_space_group_name_H-M "A B A 2"
_symmetry_group_IT_number 41
_symmetry_cell_setting 'orthorhombic'
loop_
_space_group_symop_operation_xyz
x,y,z
-x,-y,z
1/2-x,y,1/2+z
1/2+x,-y,1/2+z
x,1/2+y,1/2+z
-x,1/2-y,1/2+z
1/2-x,1/2+y,z
1/2+x,1/2-y,z
loop_
_atom_site_type_symbol
_atom_site_label
_atom_site_fract_x
_atom_site_fract_y
_atom_site_fract_z
Si Si1 0.500000 0.500000 0.948671
Si Si2 0.672682 0.888625 0.370354
Si Si3 0.594506 0.184484 0.942715
Si Si4 0.613839 0.196626 0.509115
Si Si5 0.999839 0.613782 0.836088
Si Si6 0.456201 0.372809 0.128832
Si Si7 0.803905 0.233165 0.691694
Si Si8 0.435880 0.682151 0.765120
O O1 0.636829 0.487372 0.908811
O O2 0.516830 0.600415 0.986403
O O3 0.612471 0.789975 0.405425
O O4 0.587573 0.897263 0.314328
O O5 0.836269 0.860828 0.354370
O O6 0.583021 0.102125 0.893435
O O7 0.726349 0.178341 0.984707
O O8 0.451183 0.198233 0.979918
O O9 0.592317 0.182781 0.572420
O O10 0.941967 0.703191 0.796002
O O11 0.000000 0.500000 0.807583
O O12 0.500000 0.500000 0.124886
O O13 0.593013 0.304098 0.152283
O O14 0.313161 0.348152 0.165453
O O15 0.703277 0.313504 0.726325
O O16 0.917261 0.172980 0.730960
#
# Coordination Sequence:
#
# PCOD9366209 Si02
#       8
#     4   8   8   8   8   8   8   8
#     4  10  22  34  60  88 132 150 204 254 314 390
#     4  10  20  37  54  93 126 169 200 249 317 407
#     4  10  21  35  61  87 133 165 206 251 326 394
#     4  11  20  40  62  90 120 172 204 270 326 384
#     4  11  21  35  61  94 130 170 215 261 321 417
#     4  11  24  46  72  96 131 174 241 289 346 405
#     4  10  23  44  66  93 128 176 224 295 339 390
#     4  10  21  40  62  86 130 167 212 265 339 395
#
# _framework density 21.036239999999999
#
# number of rings (size 3 to 8) (size 9 to 14) (size 15 to 20)
#    0.000    1.600    3.333    1.600    0.000    3.200 
#    2.400    2.000    0.000    1.600    0.000    0.000 
#    0.000    0.000    0.000    0.000    0.000    0.000 
#
# Total GULP energy -167170.196453 kJ/mol
# GULP energy per Si atom -5572.339882 kJ/mol
# Density = 2.098836 g / cm^3
# Si number density = 21.036240 Si / 1000 Ang^3
#
#
#
# Elastic Constant Matrix: (Units=GPa)
#
#
# Indices 1 2 3 4 5 6 
#
# 1 105.3017 6.6213 47.2340 0.0000 0.0000 0.0000
# 2 6.6213 10.1690 13.8380 0.0000 0.0000 0.0000
# 3 47.2340 13.8380 129.2814 0.0000 0.0000 0.0000
# 4 0.0000 0.0000 0.0000 -106.4602 0.0000 0.0000
# 5 0.0000 0.0000 0.0000 0.0000 -34.3552 0.0000
# 6 0.0000 0.0000 0.0000 0.0000 0.0000 19.6049
#
#
#
# Elastic Compliance Matrix: (Units=1/GPa)
#
#
# Indices 1 2 3 4 5 6 
#
# 1 0.011394 -0.002053 -0.003943 0.000000 0.000000 0.000000
# 2 -0.002053 0.115474 -0.011610 0.000000 0.000000 0.000000
# 3 -0.003943 -0.011610 0.010418 0.000000 0.000000 0.000000
# 4 0.000000 0.000000 0.000000 -0.009393 0.000000 0.000000
# 5 0.000000 0.000000 0.000000 0.000000 -0.029108 0.000000
# 6 0.000000 0.000000 0.000000 0.000000 0.000000 0.051008
#
#
# Mechanical properties :
#
#
# Convention : Reuss Voigt Hill
#
# Bulk Modulus (GPa) = 9.79679 42.23762 26.01720
# Shear Modulus (GPa) = 22.82774 -12.43818 5.19478
#
# Velocity S-wave (km/s) = 3.29775 -2.43425 1.57315
# Velocity P-wave (km/s) = 4.37807 3.49590 3.96161
#
# Compressibility (1/GPa) = 0.10207429
#
# Stress axis : x y z
#
# Youngs Moduli (GPa) = 87.76228 8.65994 95.98339
#
# Poissons Ratio (x) = 0.01778 0.37849
# Poissons Ratio (y) = 0.18020 1.11436
# Poissons Ratio (z) = 0.34607 0.10054
#
# Static dielectric constant tensor:
#      x y z
#    x 1.780830 0.000000 0.000000 
#    y 0.000000 1.892980 0.000000 
#    z 0.000000 0.000000 1.772770 
# 
# From -- ./inp_files/11992.got.cif
#   From: 2010.05.17/outbox.cif.g08.bks.cpg/sg41_6_cif.got.tgz:11992.got - 2010.06.03 18:54:24.
