data_PCOD9366805
_publ_section_title
;
Structure prediction by ZEFSAII (Michael W. Deem and Ramdas Pophale) SiO2 
 PCOD9366805
Probable space group: A B A 2
;
_chemical_formula_sum "Si O2"
_cell_formula_units_Z 64
_cell_length_a 14.975125
_cell_length_b 14.118132
_cell_length_c 11.634110
_cell_angle_alpha 90.000000
_cell_angle_beta 90.000000
_cell_angle_gamma 90.000000
_cell_volume 2459.692744
_symmetry_space_group_name_H-M "A B A 2"
_symmetry_group_IT_number 41
_symmetry_cell_setting 'orthorhombic'
loop_
_space_group_symop_operation_xyz
x,y,z
-x,-y,z
1/2-x,y,1/2+z
1/2+x,-y,1/2+z
x,1/2+y,1/2+z
-x,1/2-y,1/2+z
1/2-x,1/2+y,z
1/2+x,1/2-y,z
loop_
_atom_site_type_symbol
_atom_site_label
_atom_site_fract_x
_atom_site_fract_y
_atom_site_fract_z
Si Si1 0.915419 0.132060 0.365660
Si Si2 0.315094 0.831946 0.217646
Si Si3 0.132650 0.344643 0.599541
Si Si4 0.326228 0.545961 0.690933
Si Si5 0.730166 0.816620 0.369240
Si Si6 0.889536 0.936003 0.437599
Si Si7 0.146926 0.052550 0.063641
Si Si8 0.545334 0.772121 0.561803
O O1 0.901280 0.143843 0.231230
O O2 0.910455 0.225554 0.445870
O O3 0.013008 0.092583 0.396308
O O4 0.857494 0.042785 0.407281
O O5 0.237895 0.821402 0.117473
O O6 0.343500 0.940572 0.237385
O O7 0.262448 0.787150 0.327084
O O8 0.402653 0.780066 0.165859
O O9 0.127499 0.444531 0.531674
O O10 0.062357 0.268914 0.549408
O O11 0.333367 0.635969 0.772803
O O12 0.381430 0.563241 0.575407
O O13 0.221028 0.540913 0.660877
O O14 0.827398 0.864835 0.370306
O O15 0.695881 0.872403 0.481189
O O16 0.061073 0.116083 0.086432
#
# Coordination Sequence:
#
# PCOD9366805 Si02
#       8
#     8   8   8   8   8   8   8   8
#     4  11  24  41  69  99 141 189 243 305 363 435
#     4  11  23  43  69 105 138 187 231 303 359 441
#     4  11  26  45  70 101 146 184 247 304 372 438
#     4  10  21  41  66 101 143 182 238 295 363 428
#     4  11  22  41  71  97 141 186 235 290 372 430
#     4  10  22  40  65 102 134 190 243 294 358 441
#     4  10  23  42  67  99 136 187 235 295 354 447
#     4  12  24  44  69 104 141 187 243 297 366 441
#
# _framework density 26.019508999999999
#
# number of rings (size 3 to 8) (size 9 to 14) (size 15 to 20)
#    0.000    1.250    2.500    3.375    5.250    0.000 
#    4.500    0.000    2.750    0.000    0.000    0.000 
#    0.000    0.000    0.000    0.000    0.000    0.000 
#
# Total GULP energy -178586.993766 kJ/mol
# GULP energy per Si atom -5580.843555 kJ/mol
# Density = 2.596029 g / cm^3
# Si number density = 26.019509 Si / 1000 Ang^3
#
#
#
# Elastic Constant Matrix: (Units=GPa)
#
#
# Indices 1 2 3 4 5 6 
#
# 1 57.8642 12.9199 -16.3708 0.0000 0.0000 0.0000
# 2 12.9199 150.8046 25.3977 0.0000 0.0000 0.0000
# 3 -16.3708 25.3977 71.4306 0.0000 0.0000 0.0000
# 4 0.0000 0.0000 0.0000 36.3976 0.0000 0.0000
# 5 0.0000 0.0000 0.0000 0.0000 29.7611 0.0000
# 6 0.0000 0.0000 0.0000 0.0000 0.0000 28.0682
#
#
#
# Elastic Compliance Matrix: (Units=1/GPa)
#
#
# Indices 1 2 3 4 5 6 
#
# 1 0.019367 -0.002560 0.005349 0.000000 0.000000 0.000000
# 2 -0.002560 0.007392 -0.003215 0.000000 0.000000 0.000000
# 3 0.005349 -0.003215 0.016369 0.000000 0.000000 0.000000
# 4 0.000000 0.000000 0.000000 0.027474 0.000000 0.000000
# 5 0.000000 0.000000 0.000000 0.000000 0.033601 0.000000
# 6 0.000000 0.000000 0.000000 0.000000 0.000000 0.035628
#
#
# Mechanical properties :
#
#
# Convention : Reuss Voigt Hill
#
# Bulk Modulus (GPa) = 23.65476 35.99922 29.82699
# Shear Modulus (GPa) = 32.30520 36.05556 34.18038
#
# Velocity S-wave (km/s) = 3.52742 3.72655 3.62836
# Velocity P-wave (km/s) = 5.06963 5.69050 5.38902
#
# Compressibility (1/GPa) = 0.04227479
#
# Stress axis : x y z
#
# Youngs Moduli (GPa) = 51.63502 135.28385 61.09266
#
# Poissons Ratio (x) = 0.34633 -0.32677
# Poissons Ratio (y) = 0.13219 0.19641
# Poissons Ratio (z) = -0.27619 0.43493
#
# Static dielectric constant tensor:
#      x y z
#    x 2.498940 0.000000 0.000000 
#    y 0.000000 2.251220 0.000000 
#    z 0.000000 0.000000 2.109360 
# 
# From -- ./inp_files/6056.got.cif
#   From: 2010.05.17/outbox.cif.g08.bks.cpg/sg41_4_cif.got.tgz:6056.got - 2010.06.03 18:54:24.
