data_PCOD9366330
_publ_section_title
;
Structure prediction by ZEFSAII (Michael W. Deem and Ramdas Pophale) SiO2 
 PCOD9366330
Probable space group: A B A 2
;
_chemical_formula_sum "Si O2"
_cell_formula_units_Z 52
_cell_length_a 5.565044
_cell_length_b 21.768160
_cell_length_c 18.663316
_cell_angle_alpha 90.000000
_cell_angle_beta 90.000000
_cell_angle_gamma 90.000000
_cell_volume 2260.888437
_symmetry_space_group_name_H-M "A B A 2"
_symmetry_group_IT_number 41
_symmetry_cell_setting 'orthorhombic'
loop_
_space_group_symop_operation_xyz
x,y,z
-x,-y,z
1/2-x,y,1/2+z
1/2+x,-y,1/2+z
x,1/2+y,1/2+z
-x,1/2-y,1/2+z
1/2-x,1/2+y,z
1/2+x,1/2-y,z
loop_
_atom_site_type_symbol
_atom_site_label
_atom_site_fract_x
_atom_site_fract_y
_atom_site_fract_z
Si Si1 0.007408 0.072661 0.224020
Si Si2 0.000000 0.000000 0.960647
Si Si3 0.489208 0.928526 0.165597
Si Si4 0.642754 0.588077 0.385122
Si Si5 0.684730 0.899216 0.020366
Si Si6 0.738535 0.262805 0.573429
Si Si7 0.693088 0.717692 0.912796
O O1 0.761934 0.099534 0.190812
O O2 0.977762 0.078567 0.308832
O O3 0.260553 0.098674 0.196001
O O4 0.000000 0.000000 0.204535
O O5 0.901972 0.945916 0.010532
O O6 0.207265 0.970960 0.911089
O O7 0.500000 0.000000 0.189244
O O8 0.506012 0.925233 0.080211
O O9 0.445227 0.603510 0.444580
O O10 0.813867 0.647779 0.386405
O O11 0.756870 0.832274 0.045976
O O12 0.483390 0.255535 0.612013
O O13 0.713552 0.222312 0.500050
O O14 0.448015 0.751927 0.889922
#
# Coordination Sequence:
#
# PCOD9366330 Si02
#       7
#     8   4   8   8   8   8   8
#     4  10  24  43  63  89 134 183 216 256 331 411
#     4  12  26  36  60 110 132 164 212 298 338 368
#     4  10  24  43  63  89 134 183 216 256 331 411
#     4  12  25  40  68  99 136 165 228 284 329 396
#     4  12  25  40  68  99 136 165 228 284 329 396
#     4  10  20  39  62  94 121 170 213 268 325 393
#     4  10  20  39  62  94 121 170 213 268 325 393
#
# _framework density 22.999808000000002
#
# number of rings (size 3 to 8) (size 9 to 14) (size 15 to 20)
#    0.000    1.231    3.077    4.154   10.769    0.000 
#    0.000    0.000    0.000    5.538    0.000    0.000 
#    0.000    0.000    0.000    0.000    0.000    0.000 
#
# Total GULP energy -145430.306293 kJ/mol
# GULP energy per Si atom -5593.473319 kJ/mol
# Density = 2.294746 g / cm^3
# Si number density = 22.999808 Si / 1000 Ang^3
#
#
#
# Elastic Constant Matrix: (Units=GPa)
#
#
# Indices 1 2 3 4 5 6 
#
# 1 190.2793 30.1315 41.4753 0.0000 0.0000 0.0000
# 2 30.1315 55.0521 -19.8867 0.0000 0.0000 0.0000
# 3 41.4753 -19.8867 70.1709 0.0000 0.0000 0.0000
# 4 0.0000 0.0000 0.0000 4.0339 0.0000 0.0000
# 5 0.0000 0.0000 0.0000 0.0000 49.9448 0.0000
# 6 0.0000 0.0000 0.0000 0.0000 0.0000 28.0881
#
#
#
# Elastic Compliance Matrix: (Units=1/GPa)
#
#
# Indices 1 2 3 4 5 6 
#
# 1 0.007677 -0.006507 -0.006382 0.000000 0.000000 0.000000
# 2 -0.006507 0.025752 0.011144 0.000000 0.000000 0.000000
# 3 -0.006382 0.011144 0.021181 0.000000 0.000000 0.000000
# 4 0.000000 0.000000 0.000000 0.247901 0.000000 0.000000
# 5 0.000000 0.000000 0.000000 0.000000 0.020022 0.000000
# 6 0.000000 0.000000 0.000000 0.000000 0.000000 0.035602
#
#
# Mechanical properties :
#
#
# Convention : Reuss Voigt Hill
#
# Bulk Modulus (GPa) = 19.56151 46.54916 33.05533
# Shear Modulus (GPa) = 13.20432 33.99883 23.60158
#
# Velocity S-wave (km/s) = 2.39865 3.84894 3.20686
# Velocity P-wave (km/s) = 4.02429 6.32734 5.30237
#
# Compressibility (1/GPa) = 0.05112081
#
# Stress axis : x y z
#
# Youngs Moduli (GPa) = 130.26206 38.83241 47.21186
#
# Poissons Ratio (x) = 0.25268 0.30129
# Poissons Ratio (y) = 0.84761 -0.52614
# Poissons Ratio (z) = 0.83128 -0.43275
#
# Static dielectric constant tensor:
#      x y z
#    x 1.955030 0.000000 0.000000 
#    y 0.000000 1.885570 0.000000 
#    z 0.000000 0.000000 1.809350 
# 
# From -- ./inp_files/10971.got.cif
#   From: 2010.05.17/outbox.cif.g08.bks.cpg/sg41_6_cif.got.tgz:10971.got - 2010.06.03 18:54:24.
