data_PCOD9366343
_publ_section_title
;
Structure prediction by ZEFSAII (Michael W. Deem and Ramdas Pophale) SiO2 
 PCOD9366343
Probable space group: A B A 2
;
_chemical_formula_sum "Si O2"
_cell_formula_units_Z 48
_cell_length_a 14.313680
_cell_length_b 9.209637
_cell_length_c 14.321401
_cell_angle_alpha 90.000000
_cell_angle_beta 90.000000
_cell_angle_gamma 90.000000
_cell_volume 1887.901457
_symmetry_space_group_name_H-M "A B A 2"
_symmetry_group_IT_number 41
_symmetry_cell_setting 'orthorhombic'
loop_
_space_group_symop_operation_xyz
x,y,z
-x,-y,z
1/2-x,y,1/2+z
1/2+x,-y,1/2+z
x,1/2+y,1/2+z
-x,1/2-y,1/2+z
1/2-x,1/2+y,z
1/2+x,1/2-y,z
loop_
_atom_site_type_symbol
_atom_site_label
_atom_site_fract_x
_atom_site_fract_y
_atom_site_fract_z
Si Si1 0.273522 0.679885 0.356840
Si Si2 0.571909 0.181246 0.070446
Si Si3 0.404740 0.550607 0.927976
Si Si4 0.251090 0.882411 0.678656
Si Si5 0.372512 0.749443 0.536592
Si Si6 0.909759 0.404933 0.727587
O O1 0.180665 0.582340 0.358133
O O2 0.267824 0.809908 0.280791
O O3 0.291594 0.710901 0.464451
O O4 0.375629 0.615302 0.332309
O O5 0.666496 0.096244 0.103251
O O6 0.463520 0.146591 0.044359
O O7 0.562687 0.266491 0.168580
O O8 0.590239 0.301534 0.989096
O O9 0.500000 0.500000 0.876343
O O10 0.396351 0.414267 0.999597
O O11 0.324054 0.768402 0.635052
O O12 0.314330 0.025633 0.687440
O O13 0.000000 0.500000 0.722748
#
# Coordination Sequence:
#
# PCOD9366343 Si02
#       6
#     8   8   8   8   8   8
#     4  11  25  39  61 101 130 163 217 275 316 382
#     4  10  20  39  67  90 118 173 216 260 317 387
#     4  10  20  39  64  87 124 170 217 258 323 384
#     4  11  22  40  68  93 129 169 215 263 323 389
#     4  11  21  42  66  91 126 174 217 261 325 385
#     4  11  21  41  63  92 127 171 213 259 326 389
#
# _framework density 25.425056000000001
#
# number of rings (size 3 to 8) (size 9 to 14) (size 15 to 20)
#    0.000    1.333    5.000    1.500    0.000    2.667 
#    6.000    0.000    0.000    0.000    0.000    0.000 
#    0.000    0.000    0.000    0.000    0.000    0.000 
#
# Total GULP energy -133620.393148 kJ/mol
# GULP energy per Si atom -5567.516381 kJ/mol
# Density = 2.536719 g / cm^3
# Si number density = 25.425056 Si / 1000 Ang^3
#
#
#
# Elastic Constant Matrix: (Units=GPa)
#
#
# Indices 1 2 3 4 5 6 
#
# 1 163.4378 20.9403 25.2200 0.0000 0.0000 0.0000
# 2 20.9403 15.0666 -4.4042 0.0000 0.0000 0.0000
# 3 25.2200 -4.4042 54.6718 0.0000 0.0000 0.0000
# 4 0.0000 0.0000 0.0000 4.1633 0.0000 0.0000
# 5 0.0000 0.0000 0.0000 0.0000 72.3817 0.0000
# 6 0.0000 0.0000 0.0000 0.0000 0.0000 30.3340
#
#
#
# Elastic Compliance Matrix: (Units=1/GPa)
#
#
# Indices 1 2 3 4 5 6 
#
# 1 0.008626 -0.013469 -0.005064 0.000000 0.000000 0.000000
# 2 -0.013469 0.089003 0.013383 0.000000 0.000000 0.000000
# 3 -0.005064 0.013383 0.021705 0.000000 0.000000 0.000000
# 4 0.000000 0.000000 0.000000 0.240196 0.000000 0.000000
# 5 0.000000 0.000000 0.000000 0.000000 0.013816 0.000000
# 6 0.000000 0.000000 0.000000 0.000000 0.000000 0.032966
#
#
# Mechanical properties :
#
#
# Convention : Reuss Voigt Hill
#
# Bulk Modulus (GPa) = 9.17139 35.18759 22.17949
# Shear Modulus (GPa) = 11.03860 34.13715 22.58788
#
# Velocity S-wave (km/s) = 2.08592 3.66820 2.98385
# Velocity P-wave (km/s) = 3.06862 5.64010 4.54022
#
# Compressibility (1/GPa) = 0.10903471
#
# Stress axis : x y z
#
# Youngs Moduli (GPa) = 115.93407 11.23554 46.07226
#
# Poissons Ratio (x) = 0.15133 0.23331
# Poissons Ratio (y) = 1.56146 -0.61658
# Poissons Ratio (z) = 0.58708 -0.15036
#
# Static dielectric constant tensor:
#      x y z
#    x 2.077280 0.000000 0.000000 
#    y 0.000000 2.220430 0.000000 
#    z 0.000000 0.000000 1.995830 
# 
# From -- ./inp_files/8334.got.cif
#   From: 2010.05.17/outbox.cif.g08.bks.cpg/sg41_5_cif.got.tgz:8334.got - 2010.06.03 18:54:24.
