data_PCOD9366586
_publ_section_title
;
Structure prediction by ZEFSAII (Michael W. Deem and Ramdas Pophale) SiO2 
 PCOD9366586
Probable space group: A B A 2
;
_chemical_formula_sum "Si O2"
_cell_formula_units_Z 64
_cell_length_a 9.268620
_cell_length_b 13.497197
_cell_length_c 21.744856
_cell_angle_alpha 90.000000
_cell_angle_beta 90.000000
_cell_angle_gamma 90.000000
_cell_volume 2720.289967
_symmetry_space_group_name_H-M "A B A 2"
_symmetry_group_IT_number 41
_symmetry_cell_setting 'orthorhombic'
loop_
_space_group_symop_operation_xyz
x,y,z
-x,-y,z
1/2-x,y,1/2+z
1/2+x,-y,1/2+z
x,1/2+y,1/2+z
-x,1/2-y,1/2+z
1/2-x,1/2+y,z
1/2+x,1/2-y,z
loop_
_atom_site_type_symbol
_atom_site_label
_atom_site_fract_x
_atom_site_fract_y
_atom_site_fract_z
Si Si1 0.163904 0.378438 0.534850
Si Si2 0.174632 0.736418 0.736898
Si Si3 0.552275 0.307857 0.465782
Si Si4 0.958395 0.108730 0.818718
Si Si5 0.009806 0.388140 0.083307
Si Si6 0.434985 0.810452 0.655879
Si Si7 0.287735 0.927703 0.911747
Si Si8 0.755079 0.362136 0.865401
O O1 0.062131 0.293278 0.504550
O O2 0.329265 0.357683 0.559159
O O3 0.091362 0.389680 0.601640
O O4 0.195235 0.444952 0.474656
O O5 0.059125 0.814312 0.764400
O O6 0.300949 0.797252 0.702845
O O7 0.219012 0.672261 0.795954
O O8 0.085067 0.669825 0.689814
O O9 0.582053 0.387559 0.519938
O O10 0.414570 0.352099 0.429925
O O11 0.677299 0.293255 0.416580
O O12 0.809724 0.108658 0.855355
O O13 0.083191 0.131676 0.867873
O O14 0.000000 0.000000 0.795139
O O15 0.000000 0.500000 0.108711
O O16 0.953556 0.300278 0.126311
O O17 0.329713 0.034719 0.884735
#
# Coordination Sequence:
#
# PCOD9366586 Si02
#       8
#     8   8   8   8   8   8   8   8
#     4  10  21  40  69 103 138 179 236 298 359 445
#     4  12  24  44  67 102 141 188 247 294 366 448
#     4  10  21  37  69 104 134 174 235 298 370 429
#     4  10  24  43  66 100 141 188 237 299 366 441
#     4  10  21  42  70 101 140 188 240 302 369 448
#     4  11  24  43  68 104 136 190 246 292 363 446
#     4  10  22  42  66 102 140 179 236 297 374 434
#     4  11  23  41  66 101 142 183 236 304 362 445
#
# _framework density 23.526903999999998
#
# number of rings (size 3 to 8) (size 9 to 14) (size 15 to 20)
#    0.000    1.500    2.500    2.625    1.750    6.500 
#    0.000    0.000    0.000    0.000    0.000    0.000 
#    0.000    0.000    0.000    0.000    0.000    0.000 
#
# Total GULP energy -178376.591830 kJ/mol
# GULP energy per Si atom -5574.268495 kJ/mol
# Density = 2.347336 g / cm^3
# Si number density = 23.526904 Si / 1000 Ang^3
#
#
#
# Elastic Constant Matrix: (Units=GPa)
#
#
# Indices 1 2 3 4 5 6 
#
# 1 61.4133 6.4599 11.3216 0.0000 0.0000 0.0000
# 2 6.4599 73.6590 7.0493 0.0000 0.0000 0.0000
# 3 11.3216 7.0493 102.3105 0.0000 0.0000 0.0000
# 4 0.0000 0.0000 0.0000 18.1971 0.0000 0.0000
# 5 0.0000 0.0000 0.0000 0.0000 44.2417 0.0000
# 6 0.0000 0.0000 0.0000 0.0000 0.0000 30.1773
#
#
#
# Elastic Compliance Matrix: (Units=1/GPa)
#
#
# Indices 1 2 3 4 5 6 
#
# 1 0.016745 -0.001300 -0.001763 0.000000 0.000000 0.000000
# 2 -0.001300 0.013767 -0.000805 0.000000 0.000000 0.000000
# 3 -0.001763 -0.000805 0.010025 0.000000 0.000000 0.000000
# 4 0.000000 0.000000 0.000000 0.054954 0.000000 0.000000
# 5 0.000000 0.000000 0.000000 0.000000 0.022603 0.000000
# 6 0.000000 0.000000 0.000000 0.000000 0.000000 0.033138
#
#
# Mechanical properties :
#
#
# Convention : Reuss Voigt Hill
#
# Bulk Modulus (GPa) = 30.48698 31.89383 31.19041
# Shear Modulus (GPa) = 29.42897 32.69335 31.06116
#
# Velocity S-wave (km/s) = 3.54059 3.73180 3.63745
# Velocity P-wave (km/s) = 5.44985 5.67047 5.56125
#
# Compressibility (1/GPa) = 0.03280089
#
# Stress axis : x y z
#
# Youngs Moduli (GPa) = 59.71961 72.63705 99.75304
#
# Poissons Ratio (x) = 0.09441 0.17591
# Poissons Ratio (y) = 0.07762 0.08028
# Poissons Ratio (z) = 0.10531 0.05845
#
# Static dielectric constant tensor:
#      x y z
#    x 1.958920 0.000000 0.000000 
#    y 0.000000 2.061970 0.000000 
#    z 0.000000 0.000000 1.893570 
# 
# From -- ./inp_files/12047.got.cif
#   From: 2010.05.17/outbox.cif.g08.bks.cpg/sg41_7_cif.got.tgz:12047.got - 2010.06.03 18:54:24.
