data_PCOD9366903
_publ_section_title
;
Structure prediction by ZEFSAII (Michael W. Deem and Ramdas Pophale) SiO2 
 PCOD9366903
Probable space group: A B A 2
;
_chemical_formula_sum "Si O2"
_cell_formula_units_Z 48
_cell_length_a 12.396483
_cell_length_b 13.692125
_cell_length_c 13.558519
_cell_angle_alpha 90.000000
_cell_angle_beta 90.000000
_cell_angle_gamma 90.000000
_cell_volume 2301.344305
_symmetry_space_group_name_H-M "A B A 2"
_symmetry_group_IT_number 41
_symmetry_cell_setting 'orthorhombic'
loop_
_space_group_symop_operation_xyz
x,y,z
-x,-y,z
1/2-x,y,1/2+z
1/2+x,-y,1/2+z
x,1/2+y,1/2+z
-x,1/2-y,1/2+z
1/2-x,1/2+y,z
1/2+x,1/2-y,z
loop_
_atom_site_type_symbol
_atom_site_label
_atom_site_fract_x
_atom_site_fract_y
_atom_site_fract_z
Si Si1 0.280122 0.018118 0.514190
Si Si2 0.344758 0.757623 0.291052
Si Si3 0.949379 0.147429 0.961778
Si Si4 0.947544 0.393745 0.656206
Si Si5 0.880206 0.539723 0.173475
Si Si6 0.830110 0.377636 0.335634
O O1 0.375776 0.949097 0.472244
O O2 0.188412 0.961195 0.572804
O O3 0.337761 0.084021 0.596715
O O4 0.249289 0.082071 0.420220
O O5 0.375827 0.778190 0.403536
O O6 0.419541 0.672306 0.247887
O O7 0.367888 0.855333 0.227141
O O8 0.221681 0.719763 0.290062
O O9 0.055707 0.136616 0.892385
O O10 0.982933 0.164870 0.074520
O O11 0.000000 0.500000 0.677199
O O12 0.838789 0.459916 0.252600
O O13 0.000000 0.500000 0.152449
#
# Coordination Sequence:
#
# PCOD9366903 Si02
#       6
#     8   8   8   8   8   8
#     4  10  21  43  72  94 141 187 227 290 352 419
#     4  12  24  40  74 103 131 190 235 289 360 421
#     4  10  22  44  72  94 136 191 231 277 365 426
#     4   9  21  41  66  99 138 181 231 287 347 425
#     4  12  24  45  72 102 143 185 237 295 356 429
#     4  11  22  45  67 100 138 181 231 289 352 425
#
# _framework density 20.857374
#
# number of rings (size 3 to 8) (size 9 to 14) (size 15 to 20)
#    0.000    1.333    5.000    1.500    0.000    6.667 
#    0.000    0.833    0.000    0.000    0.000    0.000 
#    0.000    0.000    0.000    0.000    0.000    0.000 
#
# Total GULP energy -133843.151931 kJ/mol
# GULP energy per Si atom -5576.797997 kJ/mol
# Density = 2.080990 g / cm^3
# Si number density = 20.857374 Si / 1000 Ang^3
#
#
#
# Elastic Constant Matrix: (Units=GPa)
#
#
# Indices 1 2 3 4 5 6 
#
# 1 80.5551 42.9576 27.0039 0.0000 0.0000 0.0000
# 2 42.9576 72.7663 14.4830 0.0000 0.0000 0.0000
# 3 27.0039 14.4830 24.5554 0.0000 0.0000 0.0000
# 4 0.0000 0.0000 0.0000 24.7664 0.0000 0.0000
# 5 0.0000 0.0000 0.0000 0.0000 37.6451 0.0000
# 6 0.0000 0.0000 0.0000 0.0000 0.0000 29.5191
#
#
#
# Elastic Compliance Matrix: (Units=1/GPa)
#
#
# Indices 1 2 3 4 5 6 
#
# 1 0.025328 -0.010660 -0.021566 0.000000 0.000000 0.000000
# 2 -0.010660 0.020057 -0.000107 0.000000 0.000000 0.000000
# 3 -0.021566 -0.000107 0.064504 0.000000 0.000000 0.000000
# 4 0.000000 0.000000 0.000000 0.040377 0.000000 0.000000
# 5 0.000000 0.000000 0.000000 0.000000 0.026564 0.000000
# 6 0.000000 0.000000 0.000000 0.000000 0.000000 0.033876
#
#
# Mechanical properties :
#
#
# Convention : Reuss Voigt Hill
#
# Bulk Modulus (GPa) = 22.11277 38.52954 30.32116
# Shear Modulus (GPa) = 17.21487 24.61494 20.91490
#
# Velocity S-wave (km/s) = 2.87603 3.43907 3.17007
# Velocity P-wave (km/s) = 4.65334 5.85513 5.28849
#
# Compressibility (1/GPa) = 0.04522273
#
# Stress axis : x y z
#
# Youngs Moduli (GPa) = 39.48202 49.85781 15.50296
#
# Poissons Ratio (x) = 0.53148 0.33434
# Poissons Ratio (y) = 0.42088 0.00166
# Poissons Ratio (z) = 0.85148 0.00533
#
# Static dielectric constant tensor:
#      x y z
#    x 1.832230 0.000000 0.000000 
#    y 0.000000 1.762840 0.000000 
#    z 0.000000 0.000000 1.752810 
# 
# From -- ./inp_files/7905.got.cif
#   From: 2010.05.17/outbox.cif.g08.bks.cpg/sg41_4_cif.got.tgz:7905.got - 2010.06.03 18:54:24.
