data_PCOD9366850
_publ_section_title
;
Structure prediction by ZEFSAII (Michael W. Deem and Ramdas Pophale) SiO2 
 PCOD9366850
Probable space group: A B A 2
;
_chemical_formula_sum "Si O2"
_cell_formula_units_Z 56
_cell_length_a 26.897967
_cell_length_b 5.348788
_cell_length_c 17.658714
_cell_angle_alpha 90.000000
_cell_angle_beta 90.000000
_cell_angle_gamma 90.000000
_cell_volume 2540.586079
_symmetry_space_group_name_H-M "A B A 2"
_symmetry_group_IT_number 41
_symmetry_cell_setting 'orthorhombic'
loop_
_space_group_symop_operation_xyz
x,y,z
-x,-y,z
1/2-x,y,1/2+z
1/2+x,-y,1/2+z
x,1/2+y,1/2+z
-x,1/2-y,1/2+z
1/2-x,1/2+y,z
1/2+x,1/2-y,z
loop_
_atom_site_type_symbol
_atom_site_label
_atom_site_fract_x
_atom_site_fract_y
_atom_site_fract_z
Si Si1 0.133693 0.482921 0.873070
Si Si2 0.500000 0.000000 0.730943
Si Si3 0.283153 0.806591 0.327042
Si Si4 0.000000 0.000000 0.551745
Si Si5 0.144398 0.095969 0.740437
Si Si6 0.425280 0.144604 0.473075
Si Si7 0.945699 0.654624 0.321091
Si Si8 0.417013 0.830918 0.621219
O O1 0.170253 0.721769 0.880309
O O2 0.153889 0.300703 0.806789
O O3 0.119352 0.327941 0.947120
O O4 0.081469 0.584559 0.842942
O O5 0.495829 0.246562 0.782781
O O6 0.548981 0.005555 0.678468
O O7 0.248787 0.560116 0.336490
O O8 0.313448 0.882516 0.249674
O O9 0.973682 0.206976 0.500927
O O10 0.044602 0.110511 0.600760
O O11 0.132536 0.233644 0.662220
O O12 0.092011 0.973310 0.762907
O O13 0.441796 0.993267 0.399150
O O14 0.408400 0.974632 0.543023
#
# Coordination Sequence:
#
# PCOD9366850 Si02
#       8
#     8   4   8   4   8   8   8   8
#     4  10  21  42  65 100 134 174 226 295 358 420
#     4  12  22  41  62  91 136 188 244 296 331 408
#     4  11  22  42  74 108 139 175 230 301 375 457
#     4  12  24  43  60  89 140 196 256 274 337 416
#     4  10  22  41  67 101 135 175 230 298 363 418
#     4  11  25  42  62  91 136 188 242 291 351 417
#     4  10  23  41  60  92 132 178 236 295 344 408
#     4  12  24  42  62  93 135 192 239 290 348 418
#
# _framework density 22.042157
#
# number of rings (size 3 to 8) (size 9 to 14) (size 15 to 20)
#    0.000    1.143    4.286    1.714    0.000    3.429 
#    5.143    0.000    0.000    1.714    0.000    0.000 
#    0.000    0.000    0.000    0.000    0.000    0.000 
#
# Total GULP energy -156331.745532 kJ/mol
# GULP energy per Si atom -5583.276626 kJ/mol
# Density = 2.199199 g / cm^3
# Si number density = 22.042157 Si / 1000 Ang^3
#
#
#
# Elastic Constant Matrix: (Units=GPa)
#
#
# Indices 1 2 3 4 5 6 
#
# 1 40.0050 7.7380 -1.6058 0.0000 0.0000 0.0000
# 2 7.7380 97.7451 26.7117 0.0000 0.0000 0.0000
# 3 -1.6058 26.7117 101.9020 0.0000 0.0000 0.0000
# 4 0.0000 0.0000 0.0000 31.8546 0.0000 0.0000
# 5 0.0000 0.0000 0.0000 0.0000 9.6324 0.0000
# 6 0.0000 0.0000 0.0000 0.0000 0.0000 38.6270
#
#
#
# Elastic Compliance Matrix: (Units=1/GPa)
#
#
# Indices 1 2 3 4 5 6 
#
# 1 0.025480 -0.002291 0.001002 0.000000 0.000000 0.000000
# 2 -0.002291 0.011226 -0.002979 0.000000 0.000000 0.000000
# 3 0.001002 -0.002979 0.010610 0.000000 0.000000 0.000000
# 4 0.000000 0.000000 0.000000 0.031393 0.000000 0.000000
# 5 0.000000 0.000000 0.000000 0.000000 0.103817 0.000000
# 6 0.000000 0.000000 0.000000 0.000000 0.000000 0.025889
#
#
# Mechanical properties :
#
#
# Convention : Reuss Voigt Hill
#
# Bulk Modulus (GPa) = 25.78593 33.92664 29.85629
# Shear Modulus (GPa) = 21.75080 29.81000 25.78040
#
# Velocity S-wave (km/s) = 3.14472 3.68150 3.42364
# Velocity P-wave (km/s) = 4.99094 5.78761 5.40398
#
# Compressibility (1/GPa) = 0.03878084
#
# Stress axis : x y z
#
# Youngs Moduli (GPa) = 39.24614 89.07805 94.25086
#
# Poissons Ratio (x) = 0.20408 -0.09445
# Poissons Ratio (y) = 0.08991 0.28076
# Poissons Ratio (z) = -0.03933 0.26535
#
# Static dielectric constant tensor:
#      x y z
#    x 1.855140 0.000000 0.000000 
#    y 0.000000 2.007310 0.000000 
#    z 0.000000 0.000000 1.837890 
# 
# From -- ./inp_files/9305.got.cif
#   From: 2010.05.17/outbox.cif.g08.bks.cpg/sg41_5_cif.got.tgz:9305.got - 2010.06.03 18:54:24.
