data_PCOD9366604
_publ_section_title
;
Structure prediction by ZEFSAII (Michael W. Deem and Ramdas Pophale) SiO2 
 PCOD9366604
Probable space group: A B A 2
;
_chemical_formula_sum "Si O2"
_cell_formula_units_Z 48
_cell_length_a 5.355919
_cell_length_b 23.824877
_cell_length_c 14.021807
_cell_angle_alpha 90.000000
_cell_angle_beta 90.000000
_cell_angle_gamma 90.000000
_cell_volume 1789.240222
_symmetry_space_group_name_H-M "A B A 2"
_symmetry_group_IT_number 41
_symmetry_cell_setting 'orthorhombic'
loop_
_space_group_symop_operation_xyz
x,y,z
-x,-y,z
1/2-x,y,1/2+z
1/2+x,-y,1/2+z
x,1/2+y,1/2+z
-x,1/2-y,1/2+z
1/2-x,1/2+y,z
1/2+x,1/2-y,z
loop_
_atom_site_type_symbol
_atom_site_label
_atom_site_fract_x
_atom_site_fract_y
_atom_site_fract_z
Si Si1 0.322882 0.904340 0.793700
Si Si2 0.245653 0.058989 0.536206
Si Si3 0.000000 0.500000 0.688738
Si Si4 0.427834 0.342288 0.628046
Si Si5 0.151560 0.215252 0.801952
Si Si6 0.627733 0.649800 0.965065
Si Si7 0.000000 0.000000 0.871456
O O1 0.527095 0.945551 0.753504
O O2 0.260530 0.861660 0.710694
O O3 0.340154 0.873941 0.893647
O O4 0.098286 0.948413 0.810234
O O5 0.488745 0.099889 0.521624
O O6 0.274695 0.023138 0.438745
O O7 0.046377 0.103373 0.576105
O O8 0.278331 0.010241 0.614513
O O9 0.625558 0.310256 0.694906
O O10 0.268184 0.312709 0.544086
O O11 0.927032 0.260286 0.810861
O O12 0.074665 0.174728 0.890443
#
# Coordination Sequence:
#
# PCOD9366604 Si02
#       7
#     8   8   4   8   8   8   4
#     4  10  21  38  59  96 135 184 227 282 333 406
#     4  10  22  39  64  96 138 192 232 286 341 414
#     4  11  20  36  61  96 144 190 247 274 331 410
#     4  11  24  44  72  96 141 185 234 294 374 421
#     4  11  29  51  77 108 138 179 238 305 376 453
#     4  10  24  45  66 103 138 175 233 287 365 419
#     4   9  20  38  55  98 138 184 247 272 331 408
#
# _framework density 26.827027999999999
#
# number of rings (size 3 to 8) (size 9 to 14) (size 15 to 20)
#    0.000    1.667    1.667    1.000    7.000    1.333 
#    0.000    0.000    0.000    0.000    0.000    0.000 
#    0.000    0.000    0.000    0.000    0.000    0.000 
#
# Total GULP energy -134042.175135 kJ/mol
# GULP energy per Si atom -5585.090631 kJ/mol
# Density = 2.676597 g / cm^3
# Si number density = 26.827028 Si / 1000 Ang^3
#
#
#
# Elastic Constant Matrix: (Units=GPa)
#
#
# Indices 1 2 3 4 5 6 
#
# 1 75.7357 28.8653 34.3887 0.0000 0.0000 0.0000
# 2 28.8653 62.9758 20.8746 0.0000 0.0000 0.0000
# 3 34.3887 20.8746 170.9689 0.0000 0.0000 0.0000
# 4 0.0000 0.0000 0.0000 62.4145 0.0000 0.0000
# 5 0.0000 0.0000 0.0000 0.0000 16.4782 0.0000
# 6 0.0000 0.0000 0.0000 0.0000 0.0000 54.9742
#
#
#
# Elastic Compliance Matrix: (Units=1/GPa)
#
#
# Indices 1 2 3 4 5 6 
#
# 1 0.017021 -0.006948 -0.002575 0.000000 0.000000 0.000000
# 2 -0.006948 0.019385 -0.000969 0.000000 0.000000 0.000000
# 3 -0.002575 -0.000969 0.006485 0.000000 0.000000 0.000000
# 4 0.000000 0.000000 0.000000 0.016022 0.000000 0.000000
# 5 0.000000 0.000000 0.000000 0.000000 0.060686 0.000000
# 6 0.000000 0.000000 0.000000 0.000000 0.000000 0.018190
#
#
# Mechanical properties :
#
#
# Convention : Reuss Voigt Hill
#
# Bulk Modulus (GPa) = 45.64906 53.10418 49.37662
# Shear Modulus (GPa) = 30.10630 41.81015 35.95823
#
# Velocity S-wave (km/s) = 3.35362 3.95208 3.66508
# Velocity P-wave (km/s) = 5.66115 6.37677 6.02959
#
# Compressibility (1/GPa) = 0.02190626
#
# Stress axis : x y z
#
# Youngs Moduli (GPa) = 58.74980 51.58589 154.19335
#
# Poissons Ratio (x) = 0.35843 0.39710
# Poissons Ratio (y) = 0.40820 0.14946
# Poissons Ratio (z) = 0.15130 0.05000
#
# Static dielectric constant tensor:
#      x y z
#    x 2.257070 0.000000 0.000000 
#    y 0.000000 2.108650 0.000000 
#    z 0.000000 0.000000 2.094900 
# 
# From -- ./inp_files/6897.got.cif
#   From: 2010.05.17/outbox.cif.g08.bks.cpg/sg41_4_cif.got.tgz:6897.got - 2010.06.03 18:54:24.
