data_PCOD9366635
_publ_section_title
;
Structure prediction by ZEFSAII (Michael W. Deem and Ramdas Pophale) SiO2 
 PCOD9366635
Probable space group: A B A 2
;
_chemical_formula_sum "Si O2"
_cell_formula_units_Z 64
_cell_length_a 8.646077
_cell_length_b 24.163028
_cell_length_c 15.665707
_cell_angle_alpha 90.000000
_cell_angle_beta 90.000000
_cell_angle_gamma 90.000000
_cell_volume 3272.807454
_symmetry_space_group_name_H-M "A B A 2"
_symmetry_group_IT_number 41
_symmetry_cell_setting 'orthorhombic'
loop_
_space_group_symop_operation_xyz
x,y,z
-x,-y,z
1/2-x,y,1/2+z
1/2+x,-y,1/2+z
x,1/2+y,1/2+z
-x,1/2-y,1/2+z
1/2-x,1/2+y,z
1/2+x,1/2-y,z
loop_
_atom_site_type_symbol
_atom_site_label
_atom_site_fract_x
_atom_site_fract_y
_atom_site_fract_z
Si Si1 0.315939 0.382353 0.695300
Si Si2 0.815191 0.120200 0.378456
Si Si3 0.815938 0.382352 0.195301
Si Si4 0.683533 1.000000 0.641503
Si Si5 0.315065 0.311915 0.038607
Si Si6 0.184292 0.000000 0.452619
Si Si7 0.315191 0.120200 0.878457
Si Si8 0.815064 0.311914 0.538607
O O1 0.263917 0.364534 0.789490
O O2 0.500000 0.380363 0.686343
O O3 0.256673 0.444808 0.680589
O O4 0.239677 0.344701 0.622549
O O5 0.752334 0.156329 0.456490
O O6 0.782673 0.055795 0.400664
O O7 0.000000 0.126527 0.371497
O O8 0.756670 0.444806 0.180588
O O9 0.763918 0.364534 0.289491
O O10 0.739678 0.344699 0.122550
O O11 0.722216 1.000000 0.540738
O O12 0.500000 0.000000 0.655766
O O13 0.500001 0.311450 0.034606
O O14 0.250000 0.250001 0.040811
O O15 0.217327 0.055796 0.400664
O O16 0.000000 0.000000 0.473399
O O17 0.252336 0.156329 0.956491
#
# Coordination Sequence:
#
# PCOD9366635 Si02
#       8
#     8   8   8   8   8   8   8   8
#     4  12  25  43  67  98 135 174 217 268 326 387
#     4  11  23  42  68 100 135 172 215 266 324 387
#     4  12  25  43  67  98 135 174 217 268 326 387
#     4  12  23  38  65  98 134 174 217 264 323 390
#     4  12  26  46  69  96 129 171 221 272 327 386
#     4  10  21  38  65  96 134 172 211 260 323 388
#     4  11  23  42  68 100 135 172 215 266 324 387
#     4  12  26  46  69  96 129 171 221 272 327 386
#
# _framework density 19.555077000000001
#
# number of rings (size 3 to 8) (size 9 to 14) (size 15 to 20)
#    0.000    0.500    2.500    7.125    0.000    3.000 
#    0.000    5.000    0.000    0.000    0.000    0.000 
#    0.000    0.000    0.000    0.000    0.000    0.000 
#
# Total GULP energy -179219.134558 kJ/mol
# GULP energy per Si atom -5600.597955 kJ/mol
# Density = 1.951057 g / cm^3
# Si number density = 19.555077 Si / 1000 Ang^3
#
#
#
# Elastic Constant Matrix: (Units=GPa)
#
#
# Indices 1 2 3 4 5 6 
#
# 1 95.2785 32.1275 15.6432 0.0000 0.0000 0.0000
# 2 32.1275 139.8942 48.1209 0.0000 0.0000 0.0000
# 3 15.6432 48.1209 120.9903 0.0000 0.0000 0.0000
# 4 0.0000 0.0000 0.0000 -15.0394 0.0000 0.0000
# 5 0.0000 0.0000 0.0000 0.0000 40.1049 0.0000
# 6 0.0000 0.0000 0.0000 0.0000 0.0000 32.6371
#
#
#
# Elastic Compliance Matrix: (Units=1/GPa)
#
#
# Indices 1 2 3 4 5 6 
#
# 1 0.011403 -0.002446 -0.000501 0.000000 0.000000 0.000000
# 2 -0.002446 0.008806 -0.003186 0.000000 0.000000 0.000000
# 3 -0.000501 -0.003186 0.009597 0.000000 0.000000 0.000000
# 4 0.000000 0.000000 0.000000 -0.066492 0.000000 0.000000
# 5 0.000000 0.000000 0.000000 0.000000 0.024935 0.000000
# 6 0.000000 0.000000 0.000000 0.000000 0.000000 0.030640
#
#
# Mechanical properties :
#
#
# Convention : Reuss Voigt Hill
#
# Bulk Modulus (GPa) = 57.01748 60.88291 58.95019
# Shear Modulus (GPa) = 135.12751 28.89193 82.00972
#
# Velocity S-wave (km/s) = 8.32172 3.84795 6.48297
# Velocity P-wave (km/s) = 11.02521 7.13750 9.28707
#
# Compressibility (1/GPa) = 0.01753848
#
# Stress axis : x y z
#
# Youngs Moduli (GPa) = 87.69834 113.55896 104.19782
#
# Poissons Ratio (x) = 0.27779 0.05224
# Poissons Ratio (y) = 0.21453 0.33198
# Poissons Ratio (z) = 0.04397 0.36181
#
# Static dielectric constant tensor:
#      x y z
#    x 1.648910 0.000000 0.000000 
#    y 0.000000 1.670600 0.000000 
#    z 0.000000 0.000000 1.662640 
# 
# From -- ./inp_files/7561.got.cif
#   From: 2010.05.17/outbox.cif.g08.bks.cpg/sg41_4_cif.got.tgz:7561.got - 2010.06.03 18:54:24.
