data_PCOD9366926
_publ_section_title
;
Structure prediction by ZEFSAII (Michael W. Deem and Ramdas Pophale) SiO2 
 PCOD9366926
Probable space group: A B A 2
;
_chemical_formula_sum "Si O2"
_cell_formula_units_Z 60
_cell_length_a 23.109445
_cell_length_b 12.411158
_cell_length_c 9.212243
_cell_angle_alpha 90.000000
_cell_angle_beta 90.000000
_cell_angle_gamma 90.000000
_cell_volume 2642.209229
_symmetry_space_group_name_H-M "A B A 2"
_symmetry_group_IT_number 41
_symmetry_cell_setting 'orthorhombic'
loop_
_space_group_symop_operation_xyz
x,y,z
-x,-y,z
1/2-x,y,1/2+z
1/2+x,-y,1/2+z
x,1/2+y,1/2+z
-x,1/2-y,1/2+z
1/2-x,1/2+y,z
1/2+x,1/2-y,z
loop_
_atom_site_type_symbol
_atom_site_label
_atom_site_fract_x
_atom_site_fract_y
_atom_site_fract_z
Si Si1 0.481846 0.230365 0.924840
Si Si2 0.418047 0.760824 0.700286
Si Si3 0.368561 0.217013 0.723841
Si Si4 0.319835 0.903779 0.051195
Si Si5 0.260604 0.228882 0.938562
Si Si6 0.000000 0.000000 0.398079
Si Si7 0.685165 0.388995 0.708313
Si Si8 0.123677 0.479815 0.764778
O O1 0.540623 0.255569 0.839655
O O2 0.429053 0.229376 0.809410
O O3 0.490809 0.108807 0.984378
O O4 0.459523 0.291614 0.065627
O O5 0.379823 0.654019 0.683647
O O6 0.371054 0.858469 0.706264
O O7 0.361967 0.305565 0.598271
O O8 0.316172 0.239487 0.835418
O O9 0.361511 0.090179 0.682680
O O10 0.310744 0.983204 0.186409
O O11 0.263810 0.843469 0.990393
O O12 0.345159 0.976201 0.921034
O O13 0.211632 0.161663 0.853148
O O14 0.277393 0.162942 0.080113
O O15 0.944395 0.014490 0.298203
#
# Coordination Sequence:
#
# PCOD9366926 Si02
#       8
#     8   8   8   8   8   4   8   8
#     4  10  22  41  70  99 143 181 246 301 361 441
#     4  11  23  44  73 106 143 195 246 302 375 444
#     4  11  24  44  68 106 136 188 242 289 368 436
#     4  12  26  44  75 103 144 194 238 302 369 432
#     4  12  25  45  68 105 145 188 244 301 363 446
#     4   8  18  38  68  92 126 196 224 280 364 422
#     4  12  26  47  71 108 143 192 250 301 371 445
#     4  10  21  44  72  97 147 190 231 300 369 432
#
# _framework density 22.708269999999999
#
# number of rings (size 3 to 8) (size 9 to 14) (size 15 to 20)
#    0.000    1.067    5.333    0.800    5.600    1.067 
#    2.400    0.000    8.800    0.000    0.000    0.000 
#    0.000    0.000    0.000    0.000    0.000    0.000 
#
# Total GULP energy -167601.864664 kJ/mol
# GULP energy per Si atom -5586.728822 kJ/mol
# Density = 2.265658 g / cm^3
# Si number density = 22.708270 Si / 1000 Ang^3
#
#
#
# Elastic Constant Matrix: (Units=GPa)
#
#
# Indices 1 2 3 4 5 6 
#
# 1 95.5586 37.6286 24.2500 0.0000 0.0000 0.0000
# 2 37.6286 114.7910 18.4541 0.0000 0.0000 0.0000
# 3 24.2500 18.4541 65.3217 0.0000 0.0000 0.0000
# 4 0.0000 0.0000 0.0000 27.6667 0.0000 0.0000
# 5 0.0000 0.0000 0.0000 0.0000 10.0379 0.0000
# 6 0.0000 0.0000 0.0000 0.0000 0.0000 34.4546
#
#
#
# Elastic Compliance Matrix: (Units=1/GPa)
#
#
# Indices 1 2 3 4 5 6 
#
# 1 0.012835 -0.003605 -0.003746 0.000000 0.000000 0.000000
# 2 -0.003605 0.010139 -0.001526 0.000000 0.000000 0.000000
# 3 -0.003746 -0.001526 0.017131 0.000000 0.000000 0.000000
# 4 0.000000 0.000000 0.000000 0.036145 0.000000 0.000000
# 5 0.000000 0.000000 0.000000 0.000000 0.099622 0.000000
# 6 0.000000 0.000000 0.000000 0.000000 0.000000 0.029024
#
#
# Mechanical properties :
#
#
# Convention : Reuss Voigt Hill
#
# Bulk Modulus (GPa) = 44.74351 48.48183 46.61267
# Shear Modulus (GPa) = 21.72973 27.45442 24.59208
#
# Velocity S-wave (km/s) = 3.09675 3.48085 3.29440
# Velocity P-wave (km/s) = 5.70376 6.12791 5.91963
#
# Compressibility (1/GPa) = 0.02234961
#
# Stress axis : x y z
#
# Youngs Moduli (GPa) = 77.91136 98.63358 58.37452
#
# Poissons Ratio (x) = 0.35558 0.21870
# Poissons Ratio (y) = 0.28088 0.08907
# Poissons Ratio (z) = 0.29189 0.15051
#
# Static dielectric constant tensor:
#      x y z
#    x 1.857180 0.000000 0.000000 
#    y 0.000000 1.919670 0.000000 
#    z 0.000000 0.000000 1.858330 
# 
# From -- ./inp_files/3822.got.cif
#   From: 2010.05.17/outbox.cif.g08.bks.cpg/sg41_2_cif.got.tgz:3822.got - 2010.06.03 18:54:24.
