data_PCOD9366083
_publ_section_title
;
Structure prediction by ZEFSAII (Michael W. Deem and Ramdas Pophale) SiO2 
 PCOD9366083
Probable space group: A B A 2
;
_chemical_formula_sum "Si O2"
_cell_formula_units_Z 64
_cell_length_a 18.767715
_cell_length_b 15.208353
_cell_length_c 9.794890
_cell_angle_alpha 90.000000
_cell_angle_beta 90.000000
_cell_angle_gamma 90.000000
_cell_volume 2795.716613
_symmetry_space_group_name_H-M "A B A 2"
_symmetry_group_IT_number 41
_symmetry_cell_setting 'orthorhombic'
loop_
_space_group_symop_operation_xyz
x,y,z
-x,-y,z
1/2-x,y,1/2+z
1/2+x,-y,1/2+z
x,1/2+y,1/2+z
-x,1/2-y,1/2+z
1/2-x,1/2+y,z
1/2+x,1/2-y,z
loop_
_atom_site_type_symbol
_atom_site_label
_atom_site_fract_x
_atom_site_fract_y
_atom_site_fract_z
Si Si1 0.545058 0.582577 0.043180
Si Si2 0.934075 0.690474 0.126993
Si Si3 0.425770 0.498328 0.337813
Si Si4 0.341424 0.644805 0.205134
Si Si5 0.840185 0.534329 0.084652
Si Si6 0.684674 0.884536 0.273222
Si Si7 0.044215 0.216591 0.872484
Si Si8 0.809419 0.018922 0.005543
O O1 0.500000 0.500000 0.988414
O O2 0.556494 0.560555 0.203645
O O3 0.498511 0.661072 0.987956
O O4 0.625024 0.584119 0.989506
O O5 0.875701 0.766911 0.150046
O O6 0.895530 0.597991 0.158899
O O7 0.997814 0.710351 0.233852
O O8 0.949802 0.695211 0.963442
O O9 0.500000 0.500000 0.418362
O O10 0.398953 0.596918 0.302243
O O11 0.362379 0.462244 0.427025
O O12 0.261071 0.662008 0.256920
O O13 0.332825 0.565647 0.095855
O O14 0.842483 0.433310 0.136043
O O15 0.757553 0.560902 0.080950
O O16 0.621318 0.825681 0.335373
O O17 0.703932 0.970640 0.363486
#
# Coordination Sequence:
#
# PCOD9366083 Si02
#       8
#     8   8   8   8   8   8   8   8
#     4  10  19  39  72  94 130 184 235 276 340 431
#     4  12  28  47  66 111 147 180 233 307 362 423
#     4  10  21  37  70  99 131 183 235 282 337 419
#     4  10  22  45  70  95 140 186 228 280 368 437
#     4  11  26  40  70 108 139 170 248 306 335 418
#     4  11  22  46  74  96 133 199 234 285 357 444
#     4  12  27  47  72 100 151 192 236 289 378 433
#     4  10  19  43  70  98 132 185 239 281 348 428
#
# _framework density 22.892163
#
# number of rings (size 3 to 8) (size 9 to 14) (size 15 to 20)
#    0.000    1.250    3.750    2.250    5.250    0.000 
#    6.750    0.000    0.000    0.000    0.000    0.000 
#    0.000    0.000    0.000    0.000    0.000    0.000 
#
# Total GULP energy -178431.423493 kJ/mol
# GULP energy per Si atom -5575.981984 kJ/mol
# Density = 2.284006 g / cm^3
# Si number density = 22.892163 Si / 1000 Ang^3
#
#
#
# Elastic Constant Matrix: (Units=GPa)
#
#
# Indices 1 2 3 4 5 6 
#
# 1 158.9578 25.6580 44.6090 0.0000 0.0000 0.0000
# 2 25.6580 35.1912 4.2089 0.0000 0.0000 0.0000
# 3 44.6090 4.2089 66.3332 0.0000 0.0000 0.0000
# 4 0.0000 0.0000 0.0000 26.4914 0.0000 0.0000
# 5 0.0000 0.0000 0.0000 0.0000 30.3317 0.0000
# 6 0.0000 0.0000 0.0000 0.0000 0.0000 33.6770
#
#
#
# Elastic Compliance Matrix: (Units=1/GPa)
#
#
# Indices 1 2 3 4 5 6 
#
# 1 0.008769 -0.005732 -0.005533 0.000000 0.000000 0.000000
# 2 -0.005732 0.032380 0.001800 0.000000 0.000000 0.000000
# 3 -0.005533 0.001800 0.018682 0.000000 0.000000 0.000000
# 4 0.000000 0.000000 0.000000 0.037748 0.000000 0.000000
# 5 0.000000 0.000000 0.000000 0.000000 0.032969 0.000000
# 6 0.000000 0.000000 0.000000 0.000000 0.000000 0.029694
#
#
# Mechanical properties :
#
#
# Convention : Reuss Voigt Hill
#
# Bulk Modulus (GPa) = 24.44923 45.49266 34.97095
# Shear Modulus (GPa) = 25.93278 30.50045 28.21662
#
# Velocity S-wave (km/s) = 3.36940 3.65410 3.51463
# Velocity P-wave (km/s) = 5.08335 6.14158 5.63735
#
# Compressibility (1/GPa) = 0.04090108
#
# Stress axis : x y z
#
# Youngs Moduli (GPa) = 114.03755 30.88338 53.52613
#
# Poissons Ratio (x) = 0.17701 0.29619
# Poissons Ratio (y) = 0.65363 -0.09635
# Poissons Ratio (z) = 0.63103 -0.05559
#
# Static dielectric constant tensor:
#      x y z
#    x 1.888350 0.000000 0.000000 
#    y 0.000000 1.888390 0.000000 
#    z 0.000000 0.000000 2.022170 
# 
# From -- ./inp_files/6053.got.cif
#   From: 2010.05.17/outbox.cif.g08.bks.cpg/sg41_4_cif.got.tgz:6053.got - 2010.06.03 18:54:24.
