data_PCOD9366891
_publ_section_title
;
Structure prediction by ZEFSAII (Michael W. Deem and Ramdas Pophale) SiO2 
 PCOD9366891
Probable space group: A B A 2
;
_chemical_formula_sum "Si O2"
_cell_formula_units_Z 44
_cell_length_a 13.447907
_cell_length_b 14.343738
_cell_length_c 8.818210
_cell_angle_alpha 90.000000
_cell_angle_beta 90.000000
_cell_angle_gamma 90.000000
_cell_volume 1700.973227
_symmetry_space_group_name_H-M "A B A 2"
_symmetry_group_IT_number 41
_symmetry_cell_setting 'orthorhombic'
loop_
_space_group_symop_operation_xyz
x,y,z
-x,-y,z
1/2-x,y,1/2+z
1/2+x,-y,1/2+z
x,1/2+y,1/2+z
-x,1/2-y,1/2+z
1/2-x,1/2+y,z
1/2+x,1/2-y,z
loop_
_atom_site_type_symbol
_atom_site_label
_atom_site_fract_x
_atom_site_fract_y
_atom_site_fract_z
Si Si1 0.000000 0.500000 0.908190
Si Si2 0.238960 0.765400 0.800787
Si Si3 0.958609 0.164997 0.624702
Si Si4 0.325984 0.880720 0.583344
Si Si5 0.174823 0.573251 0.690092
Si Si6 0.971989 0.352678 0.449868
O O1 0.085196 0.545077 0.803278
O O2 0.047825 0.423578 0.017863
O O3 0.142877 0.803978 0.708162
O O4 0.334587 0.816475 0.731435
O O5 0.235262 0.655354 0.772414
O O6 0.224815 0.810661 0.964478
O O7 0.028972 0.144050 0.769143
O O8 0.992390 0.248886 0.515219
O O9 0.431359 0.908185 0.510801
O O10 0.274698 0.976552 0.637958
O O11 0.125216 0.615128 0.538599
#
# Coordination Sequence:
#
# PCOD9366891 Si02
#       6
#     4   8   8   8   8   8
#     4  12  22  38  72  98 126 176 232 274 336 402
#     4  10  26  43  62 100 135 178 225 273 345 412
#     4  10  23  39  66  97 133 168 223 280 334 403
#     4  11  23  42  68  91 137 174 220 278 338 403
#     4  11  24  44  70  97 134 179 226 282 342 400
#     4  10  21  43  66  98 129 173 222 282 336 395
#
# _framework density 25.867543999999999
#
# number of rings (size 3 to 8) (size 9 to 14) (size 15 to 20)
#    0.000    1.455    1.818    3.273    7.636    2.909 
#    3.273    0.000    0.000    0.000    0.000    0.000 
#    0.000    0.000    0.000    0.000    0.000    0.000 
#
# Total GULP energy -123195.914124 kJ/mol
# GULP energy per Si atom -5599.814278 kJ/mol
# Density = 2.580867 g / cm^3
# Si number density = 25.867544 Si / 1000 Ang^3
#
#
#
# Elastic Constant Matrix: (Units=GPa)
#
#
# Indices 1 2 3 4 5 6 
#
# 1 53.6200 30.0761 46.8525 0.0000 0.0000 0.0000
# 2 30.0761 187.9881 54.1879 0.0000 0.0000 0.0000
# 3 46.8525 54.1879 162.8492 0.0000 0.0000 0.0000
# 4 0.0000 0.0000 0.0000 46.9455 0.0000 0.0000
# 5 0.0000 0.0000 0.0000 0.0000 19.2290 0.0000
# 6 0.0000 0.0000 0.0000 0.0000 0.0000 24.0937
#
#
#
# Elastic Compliance Matrix: (Units=1/GPa)
#
#
# Indices 1 2 3 4 5 6 
#
# 1 0.025703 -0.002191 -0.006666 0.000000 0.000000 0.000000
# 2 -0.002191 0.006071 -0.001390 0.000000 0.000000 0.000000
# 3 -0.006666 -0.001390 0.008521 0.000000 0.000000 0.000000
# 4 0.000000 0.000000 0.000000 0.021301 0.000000 0.000000
# 5 0.000000 0.000000 0.000000 0.000000 0.052005 0.000000
# 6 0.000000 0.000000 0.000000 0.000000 0.000000 0.041505
#
#
# Mechanical properties :
#
#
# Convention : Reuss Voigt Hill
#
# Bulk Modulus (GPa) = 50.50034 74.07670 62.28852
# Shear Modulus (GPa) = 27.44257 36.27637 31.85947
#
# Velocity S-wave (km/s) = 3.26066 3.74891 3.51328
# Velocity P-wave (km/s) = 5.80869 6.88754 6.37099
#
# Compressibility (1/GPa) = 0.01980185
#
# Stress axis : x y z
#
# Youngs Moduli (GPa) = 38.90566 164.72931 117.35858
#
# Poissons Ratio (x) = 0.36088 0.78231
# Poissons Ratio (y) = 0.08523 0.16309
# Poissons Ratio (z) = 0.25934 0.22892
#
# Static dielectric constant tensor:
#      x y z
#    x 2.080440 0.000000 0.000000 
#    y 0.000000 2.025120 0.000000 
#    z 0.000000 0.000000 1.977200 
# 
# From -- ./inp_files/2985.got.cif
#   From: 2010.05.17/outbox.cif.g08.bks.cpg/sg41_2_cif.got.tgz:2985.got - 2010.06.03 18:54:24.
