data_PCOD9366503
_publ_section_title
;
Structure prediction by ZEFSAII (Michael W. Deem and Ramdas Pophale) SiO2 
 PCOD9366503
Probable space group: A B A 2
;
_chemical_formula_sum "Si O2"
_cell_formula_units_Z 60
_cell_length_a 19.131276
_cell_length_b 14.273401
_cell_length_c 10.610683
_cell_angle_alpha 90.000000
_cell_angle_beta 90.000000
_cell_angle_gamma 90.000000
_cell_volume 2897.441954
_symmetry_space_group_name_H-M "A B A 2"
_symmetry_group_IT_number 41
_symmetry_cell_setting 'orthorhombic'
loop_
_space_group_symop_operation_xyz
x,y,z
-x,-y,z
1/2-x,y,1/2+z
1/2+x,-y,1/2+z
x,1/2+y,1/2+z
-x,1/2-y,1/2+z
1/2-x,1/2+y,z
1/2+x,1/2-y,z
loop_
_atom_site_type_symbol
_atom_site_label
_atom_site_fract_x
_atom_site_fract_y
_atom_site_fract_z
Si Si1 0.729061 0.260217 0.303660
Si Si2 0.209082 0.933999 0.658757
Si Si3 0.895174 0.772373 0.469009
Si Si4 0.653693 0.174421 0.942177
Si Si5 0.541903 0.313246 0.929401
Si Si6 0.143384 0.622235 0.206638
Si Si7 0.500000 0.000000 0.578456
Si Si8 0.634902 0.098956 0.660223
O O1 0.710096 0.164024 0.233224
O O2 0.657568 0.299277 0.357679
O O3 0.775412 0.233712 0.426322
O O4 0.782734 0.322381 0.223230
O O5 0.172098 0.913788 0.526402
O O6 0.291497 0.954297 0.641579
O O7 0.165865 0.015128 0.725748
O O8 0.890136 0.854618 0.571726
O O9 0.872066 0.680007 0.552602
O O10 0.970276 0.744360 0.413321
O O11 0.594266 0.240964 0.998897
O O12 0.635413 0.144830 0.799279
O O13 0.586782 0.342567 0.807441
O O14 0.522988 0.409341 0.998465
O O15 0.431913 0.967081 0.653033
#
# Coordination Sequence:
#
# PCOD9366503 Si02
#       8
#     8   8   8   8   8   8   4   8
#     4  10  21  41  67  90 133 171 218 276 342 398
#     4  11  23  39  70  99 129 171 230 283 330 397
#     4  11  21  43  66  91 132 182 215 271 350 397
#     4  10  20  44  63  89 132 174 213 279 330 389
#     4  10  24  42  64  90 136 179 217 277 331 409
#     4  11  24  44  63 105 132 171 235 280 331 414
#     4  10  24  40  66  94 128 180 226 262 346 404
#     4  10  21  42  64  91 132 174 214 277 332 406
#
# _framework density 20.707920999999999
#
# number of rings (size 3 to 8) (size 9 to 14) (size 15 to 20)
#    0.000    1.600    5.333    0.000    3.733    6.400 
#    4.800    0.000    0.000    0.000    0.000    0.000 
#    0.000    0.000    0.000    0.000    0.000    0.000 
#
# Total GULP energy -167336.127085 kJ/mol
# GULP energy per Si atom -5577.870903 kJ/mol
# Density = 2.066079 g / cm^3
# Si number density = 20.707921 Si / 1000 Ang^3
#
#
#
# Elastic Constant Matrix: (Units=GPa)
#
#
# Indices 1 2 3 4 5 6 
#
# 1 133.0921 36.8256 44.1207 0.0000 0.0000 0.0000
# 2 36.8256 56.2070 23.4620 0.0000 0.0000 0.0000
# 3 44.1207 23.4620 48.1151 0.0000 0.0000 0.0000
# 4 0.0000 0.0000 0.0000 17.4741 0.0000 0.0000
# 5 0.0000 0.0000 0.0000 0.0000 25.9799 0.0000
# 6 0.0000 0.0000 0.0000 0.0000 0.0000 32.9666
#
#
#
# Elastic Compliance Matrix: (Units=1/GPa)
#
#
# Indices 1 2 3 4 5 6 
#
# 1 0.011442 -0.003913 -0.008584 0.000000 0.000000 0.000000
# 2 -0.003913 0.023677 -0.007957 0.000000 0.000000 0.000000
# 3 -0.008584 -0.007957 0.032535 0.000000 0.000000 0.000000
# 4 0.000000 0.000000 0.000000 0.057228 0.000000 0.000000
# 5 0.000000 0.000000 0.000000 0.000000 0.038491 0.000000
# 6 0.000000 0.000000 0.000000 0.000000 0.000000 0.030334
#
#
# Mechanical properties :
#
#
# Convention : Reuss Voigt Hill
#
# Bulk Modulus (GPa) = 37.38976 49.58120 43.48548
# Shear Modulus (GPa) = 20.53143 24.15116 22.34130
#
# Velocity S-wave (km/s) = 3.15219 3.41878 3.28819
# Velocity P-wave (km/s) = 5.59851 6.29120 5.95494
#
# Compressibility (1/GPa) = 0.02674529
#
# Stress axis : x y z
#
# Youngs Moduli (GPa) = 87.39725 42.23555 30.73653
#
# Poissons Ratio (x) = 0.16529 0.26384
# Poissons Ratio (y) = 0.34203 0.24456
# Poissons Ratio (z) = 0.75020 0.33606
#
# Static dielectric constant tensor:
#      x y z
#    x 1.754270 0.000000 0.000000 
#    y 0.000000 1.762100 0.000000 
#    z 0.000000 0.000000 1.751090 
# 
# From -- ./inp_files/6311.got.cif
#   From: 2010.05.17/outbox.cif.g08.bks.cpg/sg41_4_cif.got.tgz:6311.got - 2010.06.03 18:54:24.
