data_PCOD9366360
_publ_section_title
;
Structure prediction by ZEFSAII (Michael W. Deem and Ramdas Pophale) SiO2 
 PCOD9366360
Probable space group: A B A 2
;
_chemical_formula_sum "Si O2"
_cell_formula_units_Z 48
_cell_length_a 8.870147
_cell_length_b 25.340381
_cell_length_c 8.643310
_cell_angle_alpha 90.000000
_cell_angle_beta 90.000000
_cell_angle_gamma 90.000000
_cell_volume 1942.781893
_symmetry_space_group_name_H-M "A B A 2"
_symmetry_group_IT_number 41
_symmetry_cell_setting 'orthorhombic'
loop_
_space_group_symop_operation_xyz
x,y,z
-x,-y,z
1/2-x,y,1/2+z
1/2+x,-y,1/2+z
x,1/2+y,1/2+z
-x,1/2-y,1/2+z
1/2-x,1/2+y,z
1/2+x,1/2-y,z
loop_
_atom_site_type_symbol
_atom_site_label
_atom_site_fract_x
_atom_site_fract_y
_atom_site_fract_z
Si Si1 0.666164 0.080929 0.371670
Si Si2 0.424592 0.058007 0.612899
Si Si3 0.848598 0.973922 0.429924
Si Si4 0.197191 0.764238 0.172764
Si Si5 0.090789 0.208268 0.378344
Si Si6 0.403833 0.859873 0.069262
O O1 0.537816 0.088998 0.503034
O O2 0.741393 0.022203 0.365999
O O3 0.599944 0.097387 0.206591
O O4 0.799465 0.117886 0.432323
O O5 0.500000 0.000000 0.605133
O O6 0.258379 0.055759 0.546101
O O7 0.405071 0.064509 0.794279
O O8 0.000000 0.000000 0.496192
O O9 0.277602 0.713374 0.251590
O O10 0.324741 0.808571 0.146692
O O11 0.063753 0.781807 0.285998
O O12 0.129769 0.753221 0.003836
O O13 0.057642 0.159201 0.490983
#
# Coordination Sequence:
#
# PCOD9366360 Si02
#       6
#     8   8   8   8   8   8
#     4  11  23  41  65  97 133 169 220 276 341 396
#     4   9  20  38  62  91 120 168 214 251 309 407
#     4  10  20  39  66  89 123 170 216 257 315 399
#     4  12  23  43  71  96 130 180 238 274 343 422
#     4  12  23  43  69  97 130 181 232 280 335 427
#     4  12  23  40  68  98 133 174 219 289 351 387
#
# _framework density 24.706838999999999
#
# number of rings (size 3 to 8) (size 9 to 14) (size 15 to 20)
#    0.000    1.000    5.000    3.000    0.000    3.333 
#    0.000    3.333    0.000    0.000    0.000    0.000 
#    0.000    0.000    0.000    0.000    0.000    0.000 
#
# Total GULP energy -134202.325626 kJ/mol
# GULP energy per Si atom -5591.763568 kJ/mol
# Density = 2.465060 g / cm^3
# Si number density = 24.706839 Si / 1000 Ang^3
#
#
#
# Elastic Constant Matrix: (Units=GPa)
#
#
# Indices 1 2 3 4 5 6 
#
# 1 101.5609 18.1101 43.0342 0.0000 0.0000 0.0000
# 2 18.1101 55.7188 35.9596 0.0000 0.0000 0.0000
# 3 43.0342 35.9596 93.7949 0.0000 0.0000 0.0000
# 4 0.0000 0.0000 0.0000 39.1847 0.0000 0.0000
# 5 0.0000 0.0000 0.0000 0.0000 52.5558 0.0000
# 6 0.0000 0.0000 0.0000 0.0000 0.0000 25.8517
#
#
#
# Elastic Compliance Matrix: (Units=1/GPa)
#
#
# Indices 1 2 3 4 5 6 
#
# 1 0.012232 -0.000470 -0.005432 0.000000 0.000000 0.000000
# 2 -0.000470 0.023866 -0.008934 0.000000 0.000000 0.000000
# 3 -0.005432 -0.008934 0.016579 0.000000 0.000000 0.000000
# 4 0.000000 0.000000 0.000000 0.025520 0.000000 0.000000
# 5 0.000000 0.000000 0.000000 0.000000 0.019027 0.000000
# 6 0.000000 0.000000 0.000000 0.000000 0.000000 0.038682
#
#
# Mechanical properties :
#
#
# Convention : Reuss Voigt Hill
#
# Bulk Modulus (GPa) = 43.46973 49.47581 46.47277
# Shear Modulus (GPa) = 28.86056 33.78315 31.32186
#
# Velocity S-wave (km/s) = 3.42149 3.70180 3.56440
# Velocity P-wave (km/s) = 5.76551 6.19190 5.98251
#
# Compressibility (1/GPa) = 0.02300451
#
# Stress axis : x y z
#
# Youngs Moduli (GPa) = 81.75437 41.90065 60.31728
#
# Poissons Ratio (x) = 0.01970 0.32764
# Poissons Ratio (y) = 0.03843 0.53889
# Poissons Ratio (z) = 0.44408 0.37435
#
# Static dielectric constant tensor:
#      x y z
#    x 1.932650 0.000000 0.000000 
#    y 0.000000 2.048940 0.000000 
#    z 0.000000 0.000000 2.007840 
# 
# From -- ./inp_files/1809.got.cif
#   From: 2010.05.17/outbox.cif.g08.bks.cpg/sg41_1_cif.got.tgz:1809.got - 2010.06.03 18:54:24.
