data_PCOD9366197
_publ_section_title
;
Structure prediction by ZEFSAII (Michael W. Deem and Ramdas Pophale) SiO2 
 PCOD9366197
Probable space group: A B A 2
;
_chemical_formula_sum "Si O2"
_cell_formula_units_Z 48
_cell_length_a 8.242901
_cell_length_b 22.648031
_cell_length_c 10.012768
_cell_angle_alpha 90.000000
_cell_angle_beta 90.000000
_cell_angle_gamma 90.000000
_cell_volume 1869.238374
_symmetry_space_group_name_H-M "A B A 2"
_symmetry_group_IT_number 41
_symmetry_cell_setting 'orthorhombic'
loop_
_space_group_symop_operation_xyz
x,y,z
-x,-y,z
1/2-x,y,1/2+z
1/2+x,-y,1/2+z
x,1/2+y,1/2+z
-x,1/2-y,1/2+z
1/2-x,1/2+y,z
1/2+x,1/2-y,z
loop_
_atom_site_type_symbol
_atom_site_label
_atom_site_fract_x
_atom_site_fract_y
_atom_site_fract_z
Si Si1 0.190833 0.763458 0.720270
Si Si2 0.105696 0.174766 0.839339
Si Si3 0.165006 0.464543 0.360014
Si Si4 0.418809 0.434995 0.573129
Si Si5 0.018234 0.341185 0.618201
Si Si6 0.371895 0.079947 0.826690
O O1 0.275130 0.732660 0.850557
O O2 0.129536 0.705277 0.645027
O O3 0.320328 0.805800 0.653205
O O4 0.028299 0.800193 0.740539
O O5 0.216144 0.120219 0.801334
O O6 0.005670 0.150445 0.963477
O O7 0.254157 0.435069 0.486161
O O8 0.303470 0.513737 0.319881
O O9 0.000000 0.500000 0.396913
O O10 0.124585 0.425740 0.228585
O O11 0.500000 0.500000 0.580587
O O12 0.548931 0.404383 0.471946
O O13 0.993337 0.397726 0.712267
#
# Coordination Sequence:
#
# PCOD9366197 Si02
#       6
#     8   8   8   8   8   8
#     4   9  20  38  57  96 127 167 208 247 329 377
#     4  10  20  37  65  91 131 167 209 265 317 394
#     4  10  22  40  67  87 125 169 210 274 330 384
#     4   9  21  42  62  91 125 162 209 269 324 389
#     4  10  20  36  63  88 130 164 206 262 306 396
#     4  10  23  39  61  97 122 165 221 263 323 388
#
# _framework density 25.678908
#
# number of rings (size 3 to 8) (size 9 to 14) (size 15 to 20)
#    0.000    2.333    0.000    1.000    7.000    3.333 
#    3.000    1.667    3.667    0.000    0.000    0.000 
#    0.000    0.000    0.000    0.000    0.000    0.000 
#
# Total GULP energy -134079.824709 kJ/mol
# GULP energy per Si atom -5586.659363 kJ/mol
# Density = 2.562046 g / cm^3
# Si number density = 25.678908 Si / 1000 Ang^3
#
#
#
# Elastic Constant Matrix: (Units=GPa)
#
#
# Indices 1 2 3 4 5 6 
#
# 1 135.1437 22.5306 25.5681 0.0000 0.0000 0.0000
# 2 22.5306 64.6796 5.4024 0.0000 0.0000 0.0000
# 3 25.5681 5.4024 109.9064 0.0000 0.0000 0.0000
# 4 0.0000 0.0000 0.0000 24.3718 0.0000 0.0000
# 5 0.0000 0.0000 0.0000 0.0000 62.4924 0.0000
# 6 0.0000 0.0000 0.0000 0.0000 0.0000 50.0723
#
#
#
# Elastic Compliance Matrix: (Units=1/GPa)
#
#
# Indices 1 2 3 4 5 6 
#
# 1 0.008185 -0.002703 -0.001771 0.000000 0.000000 0.000000
# 2 -0.002703 0.016417 -0.000178 0.000000 0.000000 0.000000
# 3 -0.001771 -0.000178 0.009519 0.000000 0.000000 0.000000
# 4 0.000000 0.000000 0.000000 0.041031 0.000000 0.000000
# 5 0.000000 0.000000 0.000000 0.000000 0.016002 0.000000
# 6 0.000000 0.000000 0.000000 0.000000 0.000000 0.019971
#
#
# Mechanical properties :
#
#
# Convention : Reuss Voigt Hill
#
# Bulk Modulus (GPa) = 40.29546 46.30354 43.29950
# Shear Modulus (GPa) = 38.84880 44.46918 41.65899
#
# Velocity S-wave (km/s) = 3.89378 4.16593 4.03215
# Velocity P-wave (km/s) = 5.99512 6.41957 6.21097
#
# Compressibility (1/GPa) = 0.02481669
#
# Stress axis : x y z
#
# Youngs Moduli (GPa) = 122.16956 60.91097 105.04775
#
# Poissons Ratio (x) = 0.16466 0.18607
# Poissons Ratio (y) = 0.33027 0.01871
# Poissons Ratio (z) = 0.21640 0.01085
#
# Static dielectric constant tensor:
#      x y z
#    x 2.045550 0.000000 0.000000 
#    y 0.000000 2.119950 0.000000 
#    z 0.000000 0.000000 2.108050 
# 
# From -- ./inp_files/4513.got.cif
#   From: 2010.05.17/outbox.cif.g08.bks.cpg/sg41_3_cif.got.tgz:4513.got - 2010.06.03 18:54:24.
