data_PCOD9366718
_publ_section_title
;
Structure prediction by ZEFSAII (Michael W. Deem and Ramdas Pophale) SiO2 
 PCOD9366718
Probable space group: A B A 2
;
_chemical_formula_sum "Si O2"
_cell_formula_units_Z 64
_cell_length_a 12.645001
_cell_length_b 8.972227
_cell_length_c 28.394089
_cell_angle_alpha 90.000000
_cell_angle_beta 90.000000
_cell_angle_gamma 90.000000
_cell_volume 3221.417845
_symmetry_space_group_name_H-M "A B A 2"
_symmetry_group_IT_number 41
_symmetry_cell_setting 'orthorhombic'
loop_
_space_group_symop_operation_xyz
x,y,z
-x,-y,z
1/2-x,y,1/2+z
1/2+x,-y,1/2+z
x,1/2+y,1/2+z
-x,1/2-y,1/2+z
1/2-x,1/2+y,z
1/2+x,1/2-y,z
loop_
_atom_site_type_symbol
_atom_site_label
_atom_site_fract_x
_atom_site_fract_y
_atom_site_fract_z
Si Si1 0.118741 0.049154 0.727600
Si Si2 0.621138 0.949011 0.625660
Si Si3 0.624697 0.979005 0.338582
Si Si4 0.332976 0.313483 0.972901
Si Si5 0.797549 0.678011 0.881018
Si Si6 0.746949 0.199065 0.676965
Si Si7 0.836708 0.368597 0.518763
Si Si8 0.534361 0.156269 0.948127
O O1 0.197441 0.916602 0.712278
O O2 0.122241 0.066899 0.783878
O O3 0.157962 0.199200 0.701968
O O4 0.000000 0.000000 0.714188
O O5 0.665343 0.815950 0.658488
O O6 0.635956 0.883591 0.573285
O O7 0.500000 0.000000 0.633283
O O8 0.694015 0.094375 0.636781
O O9 0.678601 0.848381 0.368849
O O10 0.500000 0.000000 0.352280
O O11 0.710399 0.111686 0.345725
O O12 0.250846 0.349482 0.932198
O O13 0.429288 0.251640 0.943020
O O14 0.355493 0.466295 0.999036
O O15 0.282050 0.190738 0.007767
O O16 0.914510 0.623729 0.896597
O O17 0.905172 0.252775 0.488147
O O18 0.500000 0.000000 0.969542
#
# Coordination Sequence:
#
# PCOD9366718 Si02
#       8
#     8   8   8   8   8   8   8   8
#     4  10  21  40  62  88 119 156 196 244 310 372
#     4  11  22  39  62  91 122 157 203 253 303 360
#     4  11  23  39  62  88 120 156 199 253 304 361
#     4  11  21  37  56  80 117 159 199 243 298 351
#     4  11  22  37  57  85 116 154 202 245 292 352
#     4  10  22  39  63  89 120 156 196 249 308 371
#     4  11  23  38  59  86 119 159 205 251 296 356
#     4  11  22  37  57  81 117 159 200 246 296 351
#
# _framework density 19.867028999999999
#
# number of rings (size 3 to 8) (size 9 to 14) (size 15 to 20)
#    0.000    1.250    0.000    7.875    0.000    0.000 
#    0.000    1.875    0.000    7.500    0.000    0.000 
#    0.000    0.000    0.000    0.000    0.000    0.000 
#
# Total GULP energy -178222.379140 kJ/mol
# GULP energy per Si atom -5569.449348 kJ/mol
# Density = 1.982181 g / cm^3
# Si number density = 19.867029 Si / 1000 Ang^3
#
#
#
# Elastic Constant Matrix: (Units=GPa)
#
#
# Indices 1 2 3 4 5 6 
#
# 1 83.3233 33.2265 19.6800 0.0000 0.0000 0.0000
# 2 33.2265 81.2125 13.2056 0.0000 0.0000 0.0000
# 3 19.6800 13.2056 86.1093 0.0000 0.0000 0.0000
# 4 0.0000 0.0000 0.0000 22.7449 0.0000 0.0000
# 5 0.0000 0.0000 0.0000 0.0000 31.4047 0.0000
# 6 0.0000 0.0000 0.0000 0.0000 0.0000 38.7649
#
#
#
# Elastic Compliance Matrix: (Units=1/GPa)
#
#
# Indices 1 2 3 4 5 6 
#
# 1 0.014858 -0.005668 -0.002527 0.000000 0.000000 0.000000
# 2 -0.005668 0.014791 -0.000973 0.000000 0.000000 0.000000
# 3 -0.002527 -0.000973 0.012340 0.000000 0.000000 0.000000
# 4 0.000000 0.000000 0.000000 0.043966 0.000000 0.000000
# 5 0.000000 0.000000 0.000000 0.000000 0.031842 0.000000
# 6 0.000000 0.000000 0.000000 0.000000 0.000000 0.025797
#
#
# Mechanical properties :
#
#
# Convention : Reuss Voigt Hill
#
# Bulk Modulus (GPa) = 42.27683 42.54104 42.40894
# Shear Modulus (GPa) = 29.44409 30.88511 30.16460
#
# Velocity S-wave (km/s) = 3.85393 3.94711 3.90080
# Velocity P-wave (km/s) = 6.41325 6.49863 6.45608
#
# Compressibility (1/GPa) = 0.02365362
#
# Stress axis : x y z
#
# Youngs Moduli (GPa) = 67.30164 67.61057 81.03872
#
# Poissons Ratio (x) = 0.38323 0.20475
# Poissons Ratio (y) = 0.38148 0.07884
# Poissons Ratio (z) = 0.17004 0.06577
#
# Static dielectric constant tensor:
#      x y z
#    x 1.858330 0.000000 0.000000 
#    y 0.000000 1.715420 0.000000 
#    z 0.000000 0.000000 1.668340 
# 
# From -- ./inp_files/12710.got.cif
#   From: 2010.05.17/outbox.cif.g08.bks.cpg/sg41_7_cif.got.tgz:12710.got - 2010.06.03 18:54:24.
