data_PCOD9366572
_publ_section_title
;
Structure prediction by ZEFSAII (Michael W. Deem and Ramdas Pophale) SiO2 
 PCOD9366572
Probable space group: A B A 2
;
_chemical_formula_sum "Si O2"
_cell_formula_units_Z 56
_cell_length_a 14.523380
_cell_length_b 5.245475
_cell_length_c 33.306783
_cell_angle_alpha 90.000000
_cell_angle_beta 90.000000
_cell_angle_gamma 90.000000
_cell_volume 2537.378232
_symmetry_space_group_name_H-M "A B A 2"
_symmetry_group_IT_number 41
_symmetry_cell_setting 'orthorhombic'
loop_
_space_group_symop_operation_xyz
x,y,z
-x,-y,z
1/2-x,y,1/2+z
1/2+x,-y,1/2+z
x,1/2+y,1/2+z
-x,1/2-y,1/2+z
1/2-x,1/2+y,z
1/2+x,1/2-y,z
loop_
_atom_site_type_symbol
_atom_site_label
_atom_site_fract_x
_atom_site_fract_y
_atom_site_fract_z
Si Si1 0.103653 0.232174 0.440840
Si Si2 0.609276 0.501023 0.193544
Si Si3 0.896754 0.777740 0.905398
Si Si4 0.307537 0.807820 0.612459
Si Si5 0.612139 0.494899 0.740518
Si Si6 0.812038 0.683944 0.521221
Si Si7 0.809504 0.479032 0.330068
O O1 0.151363 0.494164 0.428811
O O2 0.111456 0.234947 0.488713
O O3 0.000204 0.254003 0.423170
O O4 0.144393 0.991577 0.417808
O O5 0.500000 0.500000 0.197571
O O6 0.630495 0.587442 0.148322
O O7 0.643861 0.730440 0.221158
O O8 0.640415 0.229456 0.211402
O O9 0.889028 0.872668 0.859802
O O10 0.276638 0.512690 0.615927
O O11 0.346023 0.822717 0.567269
O O12 0.500000 0.500000 0.743235
O O13 0.653432 0.497283 0.784882
O O14 0.765418 0.405581 0.516111
O O15 0.768462 0.761455 0.336957
#
# Coordination Sequence:
#
# PCOD9366572 Si02
#       7
#     8   8   8   8   8   8   8
#     4  10  21  40  62  85 119 163 210 243 312 370
#     4  10  21  40  61  93 123 164 209 247 296 369
#     4  10  23  40  60  88 119 157 210 250 309 371
#     4  10  21  37  61  92 126 162 198 248 310 359
#     4  10  23  41  64  86 126 166 204 252 308 364
#     4  10  21  37  61  91 125 160 203 256 305 360
#     4  12  26  42  62  95 125 156 208 262 312 366
#
# _framework density 22.070022000000002
#
# number of rings (size 3 to 8) (size 9 to 14) (size 15 to 20)
#    0.000    1.714    0.000    3.429    2.000    6.857 
#    7.714    0.000    6.286    0.000    0.000    0.000 
#    0.000    0.000    0.000    0.000    0.000    0.000 
#
# Total GULP energy -156120.699642 kJ/mol
# GULP energy per Si atom -5575.739273 kJ/mol
# Density = 2.201979 g / cm^3
# Si number density = 22.070022 Si / 1000 Ang^3
#
#
#
# Elastic Constant Matrix: (Units=GPa)
#
#
# Indices 1 2 3 4 5 6 
#
# 1 72.3416 -4.1190 22.9915 0.0000 0.0000 0.0000
# 2 -4.1190 125.6304 12.0205 0.0000 0.0000 0.0000
# 3 22.9915 12.0205 149.7058 0.0000 0.0000 0.0000
# 4 0.0000 0.0000 0.0000 13.6938 0.0000 0.0000
# 5 0.0000 0.0000 0.0000 0.0000 36.7014 0.0000
# 6 0.0000 0.0000 0.0000 0.0000 0.0000 1.7842
#
#
#
# Elastic Compliance Matrix: (Units=1/GPa)
#
#
# Indices 1 2 3 4 5 6 
#
# 1 0.014593 0.000698 -0.002297 0.000000 0.000000 0.000000
# 2 0.000698 0.008055 -0.000754 0.000000 0.000000 0.000000
# 3 -0.002297 -0.000754 0.007093 0.000000 0.000000 0.000000
# 4 0.000000 0.000000 0.000000 0.073025 0.000000 0.000000
# 5 0.000000 0.000000 0.000000 0.000000 0.027247 0.000000
# 6 0.000000 0.000000 0.000000 0.000000 0.000000 0.560477
#
#
# Mechanical properties :
#
#
# Convention : Reuss Voigt Hill
#
# Bulk Modulus (GPa) = 39.94376 45.49598 42.71987
# Shear Modulus (GPa) = 7.10690 31.55488 19.33089
#
# Velocity S-wave (km/s) = 1.79643 3.78532 2.96275
# Velocity P-wave (km/s) = 4.73717 6.30587 5.57695
#
# Compressibility (1/GPa) = 0.02503520
#
# Stress axis : x y z
#
# Youngs Moduli (GPa) = 68.52524 124.14814 140.98178
#
# Poissons Ratio (x) = -0.08669 0.32387
# Poissons Ratio (y) = -0.04785 0.10630
# Poissons Ratio (z) = 0.15742 0.09361
#
# Static dielectric constant tensor:
#      x y z
#    x 1.890690 0.000000 0.000000 
#    y 0.000000 1.894530 0.000000 
#    z 0.000000 0.000000 1.857420 
# 
# From -- ./inp_files/12738.got.cif
#   From: 2010.05.17/outbox.cif.g08.bks.cpg/sg41_7_cif.got.tgz:12738.got - 2010.06.03 18:54:24.
