data_PCOD9366629
_publ_section_title
;
Structure prediction by ZEFSAII (Michael W. Deem and Ramdas Pophale) SiO2 
 PCOD9366629
Probable space group: A B A 2
;
_chemical_formula_sum "Si O2"
_cell_formula_units_Z 56
_cell_length_a 13.260003
_cell_length_b 14.206320
_cell_length_c 14.709523
_cell_angle_alpha 90.000000
_cell_angle_beta 90.000000
_cell_angle_gamma 90.000000
_cell_volume 2770.918837
_symmetry_space_group_name_H-M "A B A 2"
_symmetry_group_IT_number 41
_symmetry_cell_setting 'orthorhombic'
loop_
_space_group_symop_operation_xyz
x,y,z
-x,-y,z
1/2-x,y,1/2+z
1/2+x,-y,1/2+z
x,1/2+y,1/2+z
-x,1/2-y,1/2+z
1/2-x,1/2+y,z
1/2+x,1/2-y,z
loop_
_atom_site_type_symbol
_atom_site_label
_atom_site_fract_x
_atom_site_fract_y
_atom_site_fract_z
Si Si1 0.321817 0.384811 0.207320
Si Si2 0.522693 0.393243 0.318188
Si Si3 0.388798 0.955857 0.511708
Si Si4 0.241389 0.577119 0.752489
Si Si5 0.315702 0.645783 0.941780
Si Si6 0.965031 0.236421 0.969760
Si Si7 0.180392 0.703666 0.104969
O O1 0.421548 0.363437 0.265880
O O2 0.357079 0.435004 0.114309
O O3 0.254857 0.463069 0.258484
O O4 0.278398 0.287248 0.169507
O O5 0.500000 0.500000 0.351828
O O6 0.621125 0.400557 0.253811
O O7 0.546109 0.320165 0.397953
O O8 0.396081 0.857235 0.458351
O O9 0.500000 0.000000 0.512469
O O10 0.319810 0.036438 0.471166
O O11 0.286104 0.635982 0.836815
O O12 0.299334 0.610906 0.662961
O O13 0.421974 0.696979 0.958936
O O14 0.239089 0.695911 0.009981
O O15 0.932779 0.273257 0.070346
#
# Coordination Sequence:
#
# PCOD9366629 Si02
#       7
#     8   8   8   8   8   8   8
#     4  10  21  38  63  92 128 171 221 273 339 393
#     4  10  21  39  63  92 128 172 224 273 335 407
#     4   9  18  36  64  84 117 163 211 260 333 400
#     4  11  22  39  64  94 129 171 225 278 335 410
#     4  11  22  41  67  94 128 173 224 278 342 405
#     4  10  22  41  62  95 127 173 218 275 335 401
#     4  11  23  40  63  97 128 174 222 282 332 408
#
# _framework density 20.209902
#
# number of rings (size 3 to 8) (size 9 to 14) (size 15 to 20)
#    0.000    1.714    2.857    2.143    4.000    1.143 
#   12.857    0.000    0.000    0.000    0.000    0.000 
#    0.000    0.000    0.000    0.000    0.000    0.000 
#
# Total GULP energy -156059.962378 kJ/mol
# GULP energy per Si atom -5573.570085 kJ/mol
# Density = 2.016390 g / cm^3
# Si number density = 20.209902 Si / 1000 Ang^3
#
#
#
# Elastic Constant Matrix: (Units=GPa)
#
#
# Indices 1 2 3 4 5 6 
#
# 1 53.7480 29.7266 22.4244 0.0000 0.0000 0.0000
# 2 29.7266 89.5189 26.8627 0.0000 0.0000 0.0000
# 3 22.4244 26.8627 75.6000 0.0000 0.0000 0.0000
# 4 0.0000 0.0000 0.0000 52.6953 0.0000 0.0000
# 5 0.0000 0.0000 0.0000 0.0000 25.4013 0.0000
# 6 0.0000 0.0000 0.0000 0.0000 0.0000 30.4385
#
#
#
# Elastic Compliance Matrix: (Units=1/GPa)
#
#
# Indices 1 2 3 4 5 6 
#
# 1 0.024286 -0.006607 -0.004856 0.000000 0.000000 0.000000
# 2 -0.006607 0.014302 -0.003122 0.000000 0.000000 0.000000
# 3 -0.004856 -0.003122 0.015777 0.000000 0.000000 0.000000
# 4 0.000000 0.000000 0.000000 0.018977 0.000000 0.000000
# 5 0.000000 0.000000 0.000000 0.000000 0.039368 0.000000
# 6 0.000000 0.000000 0.000000 0.000000 0.000000 0.032853
#
#
# Mechanical properties :
#
#
# Convention : Reuss Voigt Hill
#
# Bulk Modulus (GPa) = 39.69154 41.87713 40.78434
# Shear Modulus (GPa) = 27.30287 31.03059 29.16673
#
# Velocity S-wave (km/s) = 3.67954 3.92269 3.80306
# Velocity P-wave (km/s) = 6.14282 6.42516 6.28558
#
# Compressibility (1/GPa) = 0.02519429
#
# Stress axis : x y z
#
# Youngs Moduli (GPa) = 41.17666 69.92136 63.38294
#
# Poissons Ratio (x) = 0.46200 0.30777
# Poissons Ratio (y) = 0.27207 0.19788
# Poissons Ratio (z) = 0.19994 0.21829
#
# Static dielectric constant tensor:
#      x y z
#    x 1.741220 0.000000 0.000000 
#    y 0.000000 1.773700 0.000000 
#    z 0.000000 0.000000 1.712520 
# 
# From -- ./inp_files/5602.got.cif
#   From: 2010.05.17/outbox.cif.g08.bks.cpg/sg41_3_cif.got.tgz:5602.got - 2010.06.03 18:54:24.
