data_PCOD9366349
_publ_section_title
;
Structure prediction by ZEFSAII (Michael W. Deem and Ramdas Pophale) SiO2 
 PCOD9366349
Probable space group: A B A 2
;
_chemical_formula_sum "Si O2"
_cell_formula_units_Z 56
_cell_length_a 8.608995
_cell_length_b 20.446375
_cell_length_c 16.345436
_cell_angle_alpha 90.000000
_cell_angle_beta 90.000000
_cell_angle_gamma 90.000000
_cell_volume 2877.168434
_symmetry_space_group_name_H-M "A B A 2"
_symmetry_group_IT_number 41
_symmetry_cell_setting 'orthorhombic'
loop_
_space_group_symop_operation_xyz
x,y,z
-x,-y,z
1/2-x,y,1/2+z
1/2+x,-y,1/2+z
x,1/2+y,1/2+z
-x,1/2-y,1/2+z
1/2-x,1/2+y,z
1/2+x,1/2-y,z
loop_
_atom_site_type_symbol
_atom_site_label
_atom_site_fract_x
_atom_site_fract_y
_atom_site_fract_z
Si Si1 0.207315 0.152606 0.286120
Si Si2 0.896617 0.094510 0.238724
Si Si3 0.027359 0.724271 0.061058
Si Si4 0.228088 0.785336 0.681230
Si Si5 0.187850 0.677702 0.466007
Si Si6 0.324422 0.025194 0.203843
Si Si7 0.412000 0.061707 0.573028
O O1 0.193680 0.216281 0.226742
O O2 0.281756 0.176158 0.370383
O O3 0.312233 0.095349 0.247837
O O4 0.039689 0.116613 0.296416
O O5 0.782519 0.156363 0.238436
O O6 0.985399 0.086799 0.150710
O O7 0.794278 0.028285 0.245642
O O8 0.917788 0.691280 0.128062
O O9 0.135003 0.771468 0.116198
O O10 0.916806 0.762559 0.998283
O O11 0.146549 0.681112 0.011264
O O12 0.107017 0.614603 0.503657
O O13 0.248884 0.038641 0.114674
O O14 0.500000 0.000000 0.201965
O O15 0.500000 0.000000 0.537956
#
# Coordination Sequence:
#
# PCOD9366349 Si02
#       7
#     8   8   8   8   8   8   8
#     4  11  24  39  60  89 132 165 194 258 325 372
#     4  10  20  39  65  86 120 164 210 252 303 365
#     4  10  21  37  61  88 120 157 207 255 296 368
#     4  11  20  38  65  90 115 162 211 249 302 367
#     4  11  23  39  59  92 131 156 202 256 326 365
#     4  10  22  39  64  93 114 159 224 256 291 375
#     4   9  19  41  63  83 121 168 204 254 310 364
#
# _framework density 19.463581999999999
#
# number of rings (size 3 to 8) (size 9 to 14) (size 15 to 20)
#    0.000    1.714    2.857    3.857    6.000    0.571 
#    0.000    1.429    0.000    0.000    0.000    0.000 
#    0.000    0.000    0.000    0.000    0.000    0.000 
#
# Total GULP energy -156125.793177 kJ/mol
# GULP energy per Si atom -5575.921185 kJ/mol
# Density = 1.941928 g / cm^3
# Si number density = 19.463582 Si / 1000 Ang^3
#
#
#
# Elastic Constant Matrix: (Units=GPa)
#
#
# Indices 1 2 3 4 5 6 
#
# 1 77.9215 14.4980 11.4115 0.0000 0.0000 0.0000
# 2 14.4980 87.6298 16.9368 0.0000 0.0000 0.0000
# 3 11.4115 16.9368 59.1363 0.0000 0.0000 0.0000
# 4 0.0000 0.0000 0.0000 16.0527 0.0000 0.0000
# 5 0.0000 0.0000 0.0000 0.0000 15.8740 0.0000
# 6 0.0000 0.0000 0.0000 0.0000 0.0000 24.4620
#
#
#
# Elastic Compliance Matrix: (Units=1/GPa)
#
#
# Indices 1 2 3 4 5 6 
#
# 1 0.013478 -0.001828 -0.002077 0.000000 0.000000 0.000000
# 2 -0.001828 0.012328 -0.003178 0.000000 0.000000 0.000000
# 3 -0.002077 -0.003178 0.018221 0.000000 0.000000 0.000000
# 4 0.000000 0.000000 0.000000 0.062295 0.000000 0.000000
# 5 0.000000 0.000000 0.000000 0.000000 0.062996 0.000000
# 6 0.000000 0.000000 0.000000 0.000000 0.000000 0.040880
#
#
# Mechanical properties :
#
#
# Convention : Reuss Voigt Hill
#
# Bulk Modulus (GPa) = 33.48948 34.48669 33.98808
# Shear Modulus (GPa) = 21.33844 23.40047 22.36945
#
# Velocity S-wave (km/s) = 3.31467 3.47114 3.39381
# Velocity P-wave (km/s) = 5.64739 5.81568 5.73215
#
# Compressibility (1/GPa) = 0.02986012
#
# Stress axis : x y z
#
# Youngs Moduli (GPa) = 74.19598 81.11362 54.88133
#
# Poissons Ratio (x) = 0.14831 0.11400
# Poissons Ratio (y) = 0.13566 0.17442
# Poissons Ratio (z) = 0.15412 0.25778
#
# Static dielectric constant tensor:
#      x y z
#    x 1.728080 0.000000 0.000000 
#    y 0.000000 1.715410 0.000000 
#    z 0.000000 0.000000 1.668490 
# 
# From -- ./inp_files/9802.got.cif
#   From: 2010.05.17/outbox.cif.g08.bks.cpg/sg41_5_cif.got.tgz:9802.got - 2010.06.03 18:54:24.
