data_PCOD9366691
_publ_section_title
;
Structure prediction by ZEFSAII (Michael W. Deem and Ramdas Pophale) SiO2 
 PCOD9366691
Probable space group: A B A 2
;
_chemical_formula_sum "Si O2"
_cell_formula_units_Z 56
_cell_length_a 12.025252
_cell_length_b 18.882495
_cell_length_c 12.071344
_cell_angle_alpha 90.000000
_cell_angle_beta 90.000000
_cell_angle_gamma 90.000000
_cell_volume 2741.000980
_symmetry_space_group_name_H-M "A B A 2"
_symmetry_group_IT_number 41
_symmetry_cell_setting 'orthorhombic'
loop_
_space_group_symop_operation_xyz
x,y,z
-x,-y,z
1/2-x,y,1/2+z
1/2+x,-y,1/2+z
x,1/2+y,1/2+z
-x,1/2-y,1/2+z
1/2-x,1/2+y,z
1/2+x,1/2-y,z
loop_
_atom_site_type_symbol
_atom_site_label
_atom_site_fract_x
_atom_site_fract_y
_atom_site_fract_z
Si Si1 0.124901 0.985553 0.484640
Si Si2 0.184882 0.246290 0.985686
Si Si3 0.622014 0.864615 0.302203
Si Si4 0.409960 0.355847 0.652913
Si Si5 0.245195 0.116777 0.101630
Si Si6 0.203810 0.882845 0.883057
Si Si7 0.522972 0.424197 0.998404
O O1 0.102216 0.924697 0.576207
O O2 0.212054 0.948208 0.401615
O O3 0.185819 0.053223 0.542647
O O4 0.000000 0.000000 0.439302
O O5 0.125713 0.199789 0.889596
O O6 0.240698 0.311358 0.924735
O O7 0.114683 0.285281 0.082101
O O8 0.270906 0.191685 0.042534
O O9 0.530097 0.852407 0.209156
O O10 0.731314 0.879112 0.231779
O O11 0.587433 0.930040 0.380078
O O12 0.328976 0.369921 0.756430
O O13 0.113152 0.111335 0.077691
O O14 0.094229 0.892066 0.960644
O O15 0.500000 0.500000 0.047928
#
# Coordination Sequence:
#
# PCOD9366691 Si02
#       7
#     8   8   8   8   8   8   8
#     4  11  22  40  67  97 132 177 221 285 338 406
#     4  10  23  42  63  96 132 173 221 281 335 412
#     4  10  22  37  67  95 127 174 223 276 342 405
#     4  10  22  40  68  93 130 180 222 276 353 406
#     4  11  22  37  65  96 130 167 227 271 333 404
#     4  10  22  42  68  92 135 176 223 276 348 404
#     4  10  21  39  64  92 126 174 220 276 330 402
#
# _framework density 20.430492999999998
#
# number of rings (size 3 to 8) (size 9 to 14) (size 15 to 20)
#    0.000    1.714    2.857    0.857    4.000    3.429 
#    0.000    0.000   18.857    0.000    0.000    0.000 
#    0.000    0.000    0.000    0.000    0.000    0.000 
#
# Total GULP energy -156057.919259 kJ/mol
# GULP energy per Si atom -5573.497116 kJ/mol
# Density = 2.038399 g / cm^3
# Si number density = 20.430493 Si / 1000 Ang^3
#
#
#
# Elastic Constant Matrix: (Units=GPa)
#
#
# Indices 1 2 3 4 5 6 
#
# 1 96.9426 22.5325 38.0129 0.0000 0.0000 0.0000
# 2 22.5325 92.4911 12.8062 0.0000 0.0000 0.0000
# 3 38.0129 12.8062 69.6731 0.0000 0.0000 0.0000
# 4 0.0000 0.0000 0.0000 21.4888 0.0000 0.0000
# 5 0.0000 0.0000 0.0000 0.0000 33.4263 0.0000
# 6 0.0000 0.0000 0.0000 0.0000 0.0000 20.0636
#
#
#
# Elastic Compliance Matrix: (Units=1/GPa)
#
#
# Indices 1 2 3 4 5 6 
#
# 1 0.013601 -0.002346 -0.006990 0.000000 0.000000 0.000000
# 2 -0.002346 0.011499 -0.000834 0.000000 0.000000 0.000000
# 3 -0.006990 -0.000834 0.018319 0.000000 0.000000 0.000000
# 4 0.000000 0.000000 0.000000 0.046536 0.000000 0.000000
# 5 0.000000 0.000000 0.000000 0.000000 0.029917 0.000000
# 6 0.000000 0.000000 0.000000 0.000000 0.000000 0.049841
#
#
# Mechanical properties :
#
#
# Convention : Reuss Voigt Hill
#
# Bulk Modulus (GPa) = 43.32489 45.09001 44.20745
# Shear Modulus (GPa) = 25.28507 27.37944 26.33225
#
# Velocity S-wave (km/s) = 3.52179 3.66474 3.59398
# Velocity P-wave (km/s) = 6.14731 6.32653 6.23756
#
# Compressibility (1/GPa) = 0.02308142
#
# Stress axis : x y z
#
# Youngs Moduli (GPa) = 73.52209 86.96595 54.58691
#
# Poissons Ratio (x) = 0.20400 0.38154
# Poissons Ratio (y) = 0.17247 0.04551
# Poissons Ratio (z) = 0.51389 0.07250
#
# Static dielectric constant tensor:
#      x y z
#    x 1.810680 0.000000 0.000000 
#    y 0.000000 1.777390 0.000000 
#    z 0.000000 0.000000 1.733010 
# 
# From -- ./inp_files/5069.got.cif
#   From: 2010.05.17/outbox.cif.g08.bks.cpg/sg41_3_cif.got.tgz:5069.got - 2010.06.03 18:54:24.
