data_PCOD9366874
_publ_section_title
;
Structure prediction by ZEFSAII (Michael W. Deem and Ramdas Pophale) SiO2 
 PCOD9366874
Probable space group: A B A 2
;
_chemical_formula_sum "Si O2"
_cell_formula_units_Z 64
_cell_length_a 9.060367
_cell_length_b 23.501764
_cell_length_c 13.711622
_cell_angle_alpha 90.000000
_cell_angle_beta 90.000000
_cell_angle_gamma 90.000000
_cell_volume 2919.678842
_symmetry_space_group_name_H-M "A B A 2"
_symmetry_group_IT_number 41
_symmetry_cell_setting 'orthorhombic'
loop_
_space_group_symop_operation_xyz
x,y,z
-x,-y,z
1/2-x,y,1/2+z
1/2+x,-y,1/2+z
x,1/2+y,1/2+z
-x,1/2-y,1/2+z
1/2-x,1/2+y,z
1/2+x,1/2-y,z
loop_
_atom_site_type_symbol
_atom_site_label
_atom_site_fract_x
_atom_site_fract_y
_atom_site_fract_z
Si Si1 0.176994 0.136091 0.674780
Si Si2 0.156415 0.350330 0.663539
Si Si3 0.582856 0.945930 0.683175
Si Si4 0.743832 0.107733 0.365155
Si Si5 0.595055 0.789918 0.573918
Si Si6 0.102475 0.117946 0.902608
Si Si7 0.155491 0.019214 0.398005
Si Si8 0.910368 0.158023 0.530733
O O1 0.257918 0.075924 0.651908
O O2 0.288976 0.188262 0.654591
O O3 0.135028 0.134494 0.789214
O O4 0.049732 0.142396 0.595230
O O5 0.244141 0.356644 0.764394
O O6 0.271689 0.369761 0.583969
O O7 0.025708 0.394709 0.666131
O O8 0.067720 0.295783 0.623216
O O9 0.595902 0.953157 0.798672
O O10 0.500000 0.000000 0.639387
O O11 0.575688 0.110512 0.404280
O O12 0.883355 0.134823 0.423569
O O13 0.772039 0.040222 0.363645
O O14 0.624077 0.831976 0.482084
O O15 0.610446 0.725690 0.538271
O O16 0.212907 0.064204 0.928208
O O17 0.000000 0.000000 0.453298
#
# Coordination Sequence:
#
# PCOD9366874 Si02
#       8
#     8   8   8   8   8   8   8   8
#     4  10  24  41  71 102 138 182 242 295 345 436
#     4  11  22  46  68  98 139 183 235 288 364 417
#     4   9  18  41  71  95 135 182 216 287 358 417
#     4  12  24  45  71 102 145 186 229 297 364 429
#     4  11  26  46  70  99 146 188 242 301 352 430
#     4  11  24  47  71 104 140 188 236 292 375 418
#     4  10  21  42  71 104 138 177 232 290 349 439
#     4  12  26  44  67 106 141 183 248 296 343 433
#
# _framework density 21.920217999999998
#
# number of rings (size 3 to 8) (size 9 to 14) (size 15 to 20)
#    0.000    1.250    5.000    1.125    1.750    2.000 
#    4.500    0.625    0.000    0.000    0.000    0.000 
#    0.000    0.000    0.000    0.000    0.000    0.000 
#
# Total GULP energy -178173.451238 kJ/mol
# GULP energy per Si atom -5567.920351 kJ/mol
# Density = 2.187033 g / cm^3
# Si number density = 21.920218 Si / 1000 Ang^3
#
#
#
# Elastic Constant Matrix: (Units=GPa)
#
#
# Indices 1 2 3 4 5 6 
#
# 1 124.9192 38.6072 24.2474 0.0000 0.0000 0.0000
# 2 38.6072 106.8678 34.2112 0.0000 0.0000 0.0000
# 3 24.2474 34.2112 82.6004 0.0000 0.0000 0.0000
# 4 0.0000 0.0000 0.0000 25.7960 0.0000 0.0000
# 5 0.0000 0.0000 0.0000 0.0000 38.5917 0.0000
# 6 0.0000 0.0000 0.0000 0.0000 0.0000 41.2432
#
#
#
# Elastic Compliance Matrix: (Units=1/GPa)
#
#
# Indices 1 2 3 4 5 6 
#
# 1 0.009174 -0.002827 -0.001522 0.000000 0.000000 0.000000
# 2 -0.002827 0.011659 -0.003999 0.000000 0.000000 0.000000
# 3 -0.001522 -0.003999 0.014210 0.000000 0.000000 0.000000
# 4 0.000000 0.000000 0.000000 0.038766 0.000000 0.000000
# 5 0.000000 0.000000 0.000000 0.000000 0.025912 0.000000
# 6 0.000000 0.000000 0.000000 0.000000 0.000000 0.024246
#
#
# Mechanical properties :
#
#
# Convention : Reuss Voigt Hill
#
# Bulk Modulus (GPa) = 54.50677 56.50213 55.50445
# Shear Modulus (GPa) = 34.06479 35.61428 34.83953
#
# Velocity S-wave (km/s) = 3.94640 4.03516 3.99103
# Velocity P-wave (km/s) = 6.75910 6.89509 6.82743
#
# Compressibility (1/GPa) = 0.01834634
#
# Stress axis : x y z
#
# Youngs Moduli (GPa) = 108.99933 85.77203 70.37495
#
# Poissons Ratio (x) = 0.24248 0.10713
# Poissons Ratio (y) = 0.30814 0.28142
# Poissons Ratio (z) = 0.16592 0.34300
#
# Static dielectric constant tensor:
#      x y z
#    x 1.864380 0.000000 0.000000 
#    y 0.000000 1.837410 0.000000 
#    z 0.000000 0.000000 1.842200 
# 
# From -- ./inp_files/7573.got.cif
#   From: 2010.05.17/outbox.cif.g08.bks.cpg/sg41_4_cif.got.tgz:7573.got - 2010.06.03 18:54:24.
