data_PCOD9366268
_publ_section_title
;
Structure prediction by ZEFSAII (Michael W. Deem and Ramdas Pophale) SiO2 
 PCOD9366268
Probable space group: A B A 2
;
_chemical_formula_sum "Si O2"
_cell_formula_units_Z 64
_cell_length_a 14.772198
_cell_length_b 24.556577
_cell_length_c 8.363574
_cell_angle_alpha 90.000000
_cell_angle_beta 90.000000
_cell_angle_gamma 90.000000
_cell_volume 3033.925089
_symmetry_space_group_name_H-M "A B A 2"
_symmetry_group_IT_number 41
_symmetry_cell_setting 'orthorhombic'
loop_
_space_group_symop_operation_xyz
x,y,z
-x,-y,z
1/2-x,y,1/2+z
1/2+x,-y,1/2+z
x,1/2+y,1/2+z
-x,1/2-y,1/2+z
1/2-x,1/2+y,z
1/2+x,1/2-y,z
loop_
_atom_site_type_symbol
_atom_site_label
_atom_site_fract_x
_atom_site_fract_y
_atom_site_fract_z
Si Si1 0.793059 0.226842 0.539440
Si Si2 0.181077 0.108353 0.195981
Si Si3 0.012923 0.276541 0.099143
Si Si4 0.504092 0.668305 0.253578
Si Si5 0.675842 0.615199 0.370839
Si Si6 0.203830 0.534310 0.412684
Si Si7 0.169354 0.701166 0.240730
Si Si8 0.192762 0.956706 0.654459
O O1 0.782678 0.170948 0.442536
O O2 0.818515 0.276205 0.419041
O O3 0.707568 0.248625 0.634417
O O4 0.881993 0.217985 0.650126
O O5 0.090717 0.137901 0.249973
O O6 0.211729 0.061499 0.319295
O O7 0.265414 0.150564 0.200790
O O8 0.163514 0.082301 0.021396
O O9 0.935002 0.307631 0.196520
O O10 0.991748 0.212812 0.115141
O O11 0.009302 0.297571 0.918524
O O12 0.590423 0.629547 0.260872
O O13 0.749196 0.583191 0.267099
O O14 0.641424 0.579914 0.523813
O O15 0.149418 0.501126 0.275898
O O16 0.240299 0.491279 0.541167
#
# Coordination Sequence:
#
# PCOD9366268 Si02
#       8
#     8   8   8   8   8   8   8   8
#     4  11  23  36  57  92 124 169 206 248 303 387
#     4  11  21  38  63  93 119 171 207 257 323 380
#     4  11  22  40  52  89 135 169 205 258 302 374
#     4  11  23  39  58  88 132 167 211 261 308 388
#     4  10  20  38  61  87 120 167 201 259 322 365
#     4   9  20  38  65  88 115 151 210 267 313 376
#     4  12  22  37  62  89 128 170 208 247 313 379
#     4   9  19  40  63  88 116 151 214 267 314 378
#
# _framework density 21.094784000000001
#
# number of rings (size 3 to 8) (size 9 to 14) (size 15 to 20)
#    0.000    1.500    3.750    3.000    0.000    0.000 
#    0.000    5.625    0.000    7.500    0.000    0.000 
#    0.000    0.000    0.000    0.000    0.000    0.000 
#
# Total GULP energy -178533.229480 kJ/mol
# GULP energy per Si atom -5579.163421 kJ/mol
# Density = 2.104677 g / cm^3
# Si number density = 21.094784 Si / 1000 Ang^3
#
#
#
# Elastic Constant Matrix: (Units=GPa)
#
#
# Indices 1 2 3 4 5 6 
#
# 1 48.3837 9.7904 -2.5308 0.0000 0.0000 0.0000
# 2 9.7904 80.5776 9.6590 0.0000 0.0000 0.0000
# 3 -2.5308 9.6590 50.5250 0.0000 0.0000 0.0000
# 4 0.0000 0.0000 0.0000 58.6760 0.0000 0.0000
# 5 0.0000 0.0000 0.0000 0.0000 27.5567 0.0000
# 6 0.0000 0.0000 0.0000 0.0000 0.0000 9.2937
#
#
#
# Elastic Compliance Matrix: (Units=1/GPa)
#
#
# Indices 1 2 3 4 5 6 
#
# 1 0.021315 -0.002782 0.001599 0.000000 0.000000 0.000000
# 2 -0.002782 0.013064 -0.002637 0.000000 0.000000 0.000000
# 3 0.001599 -0.002637 0.020376 0.000000 0.000000 0.000000
# 4 0.000000 0.000000 0.000000 0.017043 0.000000 0.000000
# 5 0.000000 0.000000 0.000000 0.000000 0.036289 0.000000
# 6 0.000000 0.000000 0.000000 0.000000 0.000000 0.107600
#
#
# Mechanical properties :
#
#
# Convention : Reuss Voigt Hill
#
# Bulk Modulus (GPa) = 21.22356 23.70261 22.46309
# Shear Modulus (GPa) = 20.91783 29.94313 25.43048
#
# Velocity S-wave (km/s) = 3.15240 3.77165 3.47585
# Velocity P-wave (km/s) = 4.83043 5.49798 5.17498
#
# Compressibility (1/GPa) = 0.04711744
#
# Stress axis : x y z
#
# Youngs Moduli (GPa) = 46.91616 76.54361 49.07644
#
# Poissons Ratio (x) = 0.21291 -0.07849
# Poissons Ratio (y) = 0.13050 0.12941
# Poissons Ratio (z) = -0.07504 0.20184
#
# Static dielectric constant tensor:
#      x y z
#    x 1.730210 0.000000 0.000000 
#    y 0.000000 1.817820 0.000000 
#    z 0.000000 0.000000 1.804280 
# 
# From -- ./inp_files/2801.got.cif
#   From: 2010.05.17/outbox.cif.g08.bks.cpg/sg41_2_cif.got.tgz:2801.got - 2010.06.03 18:54:24.
