data_PCOD9366638
_publ_section_title
;
Structure prediction by ZEFSAII (Michael W. Deem and Ramdas Pophale) SiO2 
 PCOD9366638
Probable space group: A B A 2
;
_chemical_formula_sum "Si O2"
_cell_formula_units_Z 64
_cell_length_a 11.404522
_cell_length_b 18.019279
_cell_length_c 14.620529
_cell_angle_alpha 90.000000
_cell_angle_beta 90.000000
_cell_angle_gamma 90.000000
_cell_volume 3004.537187
_symmetry_space_group_name_H-M "A B A 2"
_symmetry_group_IT_number 41
_symmetry_cell_setting 'orthorhombic'
loop_
_space_group_symop_operation_xyz
x,y,z
-x,-y,z
1/2-x,y,1/2+z
1/2+x,-y,1/2+z
x,1/2+y,1/2+z
-x,1/2-y,1/2+z
1/2-x,1/2+y,z
1/2+x,1/2-y,z
loop_
_atom_site_type_symbol
_atom_site_label
_atom_site_fract_x
_atom_site_fract_y
_atom_site_fract_z
Si Si1 0.018161 0.777046 0.506430
Si Si2 0.560949 0.249792 0.703361
Si Si3 0.231784 0.362548 0.760678
Si Si4 0.140755 0.209246 0.300622
Si Si5 0.907129 0.565489 0.931352
Si Si6 0.258015 0.124578 0.163814
Si Si7 0.262396 0.199083 0.972905
Si Si8 0.135636 0.972915 0.634156
O O1 0.025731 0.861113 0.469304
O O2 0.137348 0.738660 0.472982
O O3 0.020050 0.769624 0.616695
O O4 0.883220 0.751958 0.484801
O O5 0.635954 0.174537 0.692252
O O6 0.492542 0.236239 0.797832
O O7 0.644063 0.321394 0.707689
O O8 0.289579 0.286800 0.798642
O O9 0.171629 0.409138 0.843786
O O10 0.327444 0.405544 0.699877
O O11 0.143851 0.156054 0.212475
O O12 0.204858 0.161898 0.377682
O O13 0.000000 0.500000 0.908034
O O14 0.841437 0.541284 0.025894
O O15 0.285888 0.039754 0.172157
O O16 0.260158 0.144578 0.057699
O O17 0.000000 0.000000 0.640324
#
# Coordination Sequence:
#
# PCOD9366638 Si02
#       8
#     8   8   8   8   8   8   8   8
#     4  11  22  41  65  97 132 168 222 276 342 401
#     4  10  21  38  65  98 131 170 217 284 339 405
#     4  11  24  39  68 100 132 176 232 287 342 417
#     4  11  21  38  66  93 130 162 220 275 345 394
#     4  11  23  43  68  95 134 189 232 278 348 437
#     4  10  23  40  61  93 125 171 217 273 336 399
#     4  11  22  38  65  96 127 166 216 275 337 397
#     4  11  24  43  66  90 132 183 228 277 347 426
#
# _framework density 21.301119
#
# number of rings (size 3 to 8) (size 9 to 14) (size 15 to 20)
#    0.000    1.250    2.500    5.250    5.250    3.000 
#    0.000    0.000    0.000    0.750    0.000    0.000 
#    0.000    0.000    0.000    0.000    0.000    0.000 
#
# Total GULP energy -178198.315659 kJ/mol
# GULP energy per Si atom -5568.697364 kJ/mol
# Density = 2.125264 g / cm^3
# Si number density = 21.301119 Si / 1000 Ang^3
#
#
#
# Elastic Constant Matrix: (Units=GPa)
#
#
# Indices 1 2 3 4 5 6 
#
# 1 81.3481 19.9754 22.4236 0.0000 0.0000 0.0000
# 2 19.9754 67.2792 31.3654 0.0000 0.0000 0.0000
# 3 22.4236 31.3654 97.3217 0.0000 0.0000 0.0000
# 4 0.0000 0.0000 0.0000 27.3689 0.0000 0.0000
# 5 0.0000 0.0000 0.0000 0.0000 31.4770 0.0000
# 6 0.0000 0.0000 0.0000 0.0000 0.0000 21.2884
#
#
#
# Elastic Compliance Matrix: (Units=1/GPa)
#
#
# Indices 1 2 3 4 5 6 
#
# 1 0.013635 -0.003041 -0.002162 0.000000 0.000000 0.000000
# 2 -0.003041 0.018170 -0.005155 0.000000 0.000000 0.000000
# 3 -0.002162 -0.005155 0.012435 0.000000 0.000000 0.000000
# 4 0.000000 0.000000 0.000000 0.036538 0.000000 0.000000
# 5 0.000000 0.000000 0.000000 0.000000 0.031769 0.000000
# 6 0.000000 0.000000 0.000000 0.000000 0.000000 0.046974
#
#
# Mechanical properties :
#
#
# Convention : Reuss Voigt Hill
#
# Bulk Modulus (GPa) = 42.50875 43.71974 43.11425
# Shear Modulus (GPa) = 26.58482 27.50583 27.04533
#
# Velocity S-wave (km/s) = 3.53660 3.59735 3.56710
# Velocity P-wave (km/s) = 6.05609 6.15010 6.10327
#
# Compressibility (1/GPa) = 0.02352457
#
# Stress axis : x y z
#
# Youngs Moduli (GPa) = 73.33874 55.03717 80.41993
#
# Poissons Ratio (x) = 0.16734 0.17385
# Poissons Ratio (y) = 0.22299 0.41458
# Poissons Ratio (z) = 0.15854 0.28373
#
# Static dielectric constant tensor:
#      x y z
#    x 1.919640 0.000000 0.000000 
#    y 0.000000 1.728610 0.000000 
#    z 0.000000 0.000000 1.993500 
# 
# From -- ./inp_files/8094.got.cif
#   From: 2010.05.17/outbox.cif.g08.bks.cpg/sg41_5_cif.got.tgz:8094.got - 2010.06.03 18:54:24.
