data_PCOD9366378
_publ_section_title
;
Structure prediction by ZEFSAII (Michael W. Deem and Ramdas Pophale) SiO2 
 PCOD9366378
Probable space group: A B A 2
;
_chemical_formula_sum "Si O2"
_cell_formula_units_Z 64
_cell_length_a 22.120380
_cell_length_b 11.831445
_cell_length_c 8.927523
_cell_angle_alpha 90.000000
_cell_angle_beta 90.000000
_cell_angle_gamma 90.000000
_cell_volume 2336.476139
_symmetry_space_group_name_H-M "A B A 2"
_symmetry_group_IT_number 41
_symmetry_cell_setting 'orthorhombic'
loop_
_space_group_symop_operation_xyz
x,y,z
-x,-y,z
1/2-x,y,1/2+z
1/2+x,-y,1/2+z
x,1/2+y,1/2+z
-x,1/2-y,1/2+z
1/2-x,1/2+y,z
1/2+x,1/2-y,z
loop_
_atom_site_type_symbol
_atom_site_label
_atom_site_fract_x
_atom_site_fract_y
_atom_site_fract_z
Si Si1 0.507537 0.130572 0.385640
Si Si2 0.671140 0.321971 0.758374
Si Si3 0.338679 0.068071 0.784202
Si Si4 0.064591 0.965193 0.462872
Si Si5 0.211207 0.454584 0.286593
Si Si6 0.409280 0.869702 0.661959
Si Si7 0.077686 0.244481 0.130082
Si Si8 0.254548 0.292578 0.521834
O O1 0.562952 0.129449 0.501599
O O2 0.453529 0.171657 0.497331
O O3 0.528358 0.217197 0.255612
O O4 0.500000 0.000000 0.339673
O O5 0.659061 0.453305 0.781947
O O6 0.613288 0.252722 0.707998
O O7 0.697506 0.263170 0.908512
O O8 0.719609 0.297096 0.625194
O O9 0.269442 0.038296 0.820401
O O10 0.365323 0.177669 0.700577
O O11 0.383117 0.055388 0.927661
O O12 0.355210 0.959942 0.680503
O O13 0.049469 0.916965 0.296253
O O14 0.092755 0.863989 0.556003
O O15 0.000000 0.000000 0.524339
O O16 0.209170 0.357892 0.410259
O O17 0.221329 0.389049 0.132519
#
# Coordination Sequence:
#
# PCOD9366378 Si02
#       8
#     8   8   8   8   8   8   8   8
#     4  12  24  42  66 100 137 170 219 276 325 403
#     4  11  23  41  64  92 126 170 222 273 326 389
#     4  10  22  43  65  90 135 171 213 269 332 385
#     4  10  20  42  69  92 132 171 212 270 326 395
#     4  11  23  40  66  90 122 174 216 266 332 381
#     4  10  21  45  63  87 141 170 205 283 326 374
#     4  12  25  39  71 101 127 182 215 260 343 398
#     4  10  20  40  59  88 122 156 215 271 316 374
#
# _framework density 27.391677999999999
#
# number of rings (size 3 to 8) (size 9 to 14) (size 15 to 20)
#    0.750    0.500    3.750    3.750    0.000    5.000 
#    0.000    2.500    0.000    0.000    0.000    0.000 
#    0.000    0.000    0.000    0.000    0.000    0.000 
#
# Total GULP energy -179303.410502 kJ/mol
# GULP energy per Si atom -5603.231578 kJ/mol
# Density = 2.732933 g / cm^3
# Si number density = 27.391678 Si / 1000 Ang^3
#
#
#
# Elastic Constant Matrix: (Units=GPa)
#
#
# Indices 1 2 3 4 5 6 
#
# 1 93.1419 15.3972 20.8751 0.0000 0.0000 0.0000
# 2 15.3972 116.5814 42.1377 0.0000 0.0000 0.0000
# 3 20.8751 42.1377 156.7356 0.0000 0.0000 0.0000
# 4 0.0000 0.0000 0.0000 52.7365 0.0000 0.0000
# 5 0.0000 0.0000 0.0000 0.0000 25.1597 0.0000
# 6 0.0000 0.0000 0.0000 0.0000 0.0000 51.7177
#
#
#
# Elastic Compliance Matrix: (Units=1/GPa)
#
#
# Indices 1 2 3 4 5 6 
#
# 1 0.011179 -0.001039 -0.001210 0.000000 0.000000 0.000000
# 2 -0.001039 0.009598 -0.002442 0.000000 0.000000 0.000000
# 3 -0.001210 -0.002442 0.007198 0.000000 0.000000 0.000000
# 4 0.000000 0.000000 0.000000 0.018962 0.000000 0.000000
# 5 0.000000 0.000000 0.000000 0.000000 0.039746 0.000000
# 6 0.000000 0.000000 0.000000 0.000000 0.000000 0.019336
#
#
# Mechanical properties :
#
#
# Convention : Reuss Voigt Hill
#
# Bulk Modulus (GPa) = 53.78314 58.14211 55.96262
# Shear Modulus (GPa) = 41.11926 45.12605 43.12266
#
# Velocity S-wave (km/s) = 3.87868 4.06327 3.97205
# Velocity P-wave (km/s) = 6.30368 6.57919 6.44291
#
# Compressibility (1/GPa) = 0.01859319
#
# Stress axis : x y z
#
# Youngs Moduli (GPa) = 89.45196 104.19327 138.93247
#
# Poissons Ratio (x) = 0.10829 0.16804
# Poissons Ratio (y) = 0.09297 0.33925
# Poissons Ratio (z) = 0.10819 0.25442
#
# Static dielectric constant tensor:
#      x y z
#    x 2.286850 0.000000 0.000000 
#    y 0.000000 2.087020 0.000000 
#    z 0.000000 0.000000 2.087980 
# 
# From -- ./inp_files/3701.got.cif
#   From: 2010.05.17/outbox.cif.g08.bks.cpg/sg41_2_cif.got.tgz:3701.got - 2010.06.03 18:54:24.
