data_PCOD9366753
_publ_section_title
;
Structure prediction by ZEFSAII (Michael W. Deem and Ramdas Pophale) SiO2 
 PCOD9366753
Probable space group: A B A 2
;
_chemical_formula_sum "Si O2"
_cell_formula_units_Z 64
_cell_length_a 9.551248
_cell_length_b 17.669630
_cell_length_c 17.426380
_cell_angle_alpha 90.000000
_cell_angle_beta 90.000000
_cell_angle_gamma 90.000000
_cell_volume 2940.998191
_symmetry_space_group_name_H-M "A B A 2"
_symmetry_group_IT_number 41
_symmetry_cell_setting 'orthorhombic'
loop_
_space_group_symop_operation_xyz
x,y,z
-x,-y,z
1/2-x,y,1/2+z
1/2+x,-y,1/2+z
x,1/2+y,1/2+z
-x,1/2-y,1/2+z
1/2-x,1/2+y,z
1/2+x,1/2-y,z
loop_
_atom_site_type_symbol
_atom_site_label
_atom_site_fract_x
_atom_site_fract_y
_atom_site_fract_z
Si Si1 0.304792 0.574695 0.742570
Si Si2 0.655510 0.515378 0.993934
Si Si3 0.616189 0.156468 0.597470
Si Si4 0.761956 0.073927 0.338697
Si Si5 0.895093 0.931316 0.565524
Si Si6 0.997348 0.355225 0.765122
Si Si7 0.421969 0.788523 0.089557
Si Si8 0.544407 0.188122 0.273829
O O1 0.293946 0.496330 0.788167
O O2 0.357096 0.562361 0.655874
O O3 0.412796 0.632365 0.782206
O O4 0.153130 0.613595 0.740979
O O5 0.500000 0.500000 0.963940
O O6 0.736784 0.557434 0.926862
O O7 0.631089 0.572607 0.064567
O O8 0.750535 0.445197 0.020396
O O9 0.593042 0.151234 0.688749
O O10 0.758620 0.199545 0.574587
O O11 0.485445 0.206882 0.569526
O O12 0.923428 0.088019 0.320686
O O13 0.675407 0.147649 0.312581
O O14 0.979307 0.853574 0.554048
O O15 0.000000 0.000000 0.546823
O O16 0.982767 0.272691 0.802368
O O17 0.433656 0.800424 0.182107
#
# Coordination Sequence:
#
# PCOD9366753 Si02
#       8
#     8   8   8   8   8   8   8   8
#     4  11  22  38  67  97 124 170 213 272 327 390
#     4  12  27  44  64  92 134 179 223 274 324 398
#     4  11  23  43  66 101 128 165 219 274 336 386
#     4  12  24  45  61  93 132 174 219 264 326 394
#     4  11  22  42  66  97 129 172 217 271 331 389
#     4  11  23  40  70  99 129 161 220 279 327 392
#     4  10  22  39  70  96 128 165 212 275 327 394
#     4  10  21  40  66  93 128 163 211 265 337 384
#
# _framework density 21.761320000000001
#
# number of rings (size 3 to 8) (size 9 to 14) (size 15 to 20)
#    0.000    1.000    2.500    5.250   10.500    1.000 
#    2.250    1.250    0.000    0.000    0.000    0.000 
#    0.000    0.000    0.000    0.000    0.000    0.000 
#
# Total GULP energy -179011.550066 kJ/mol
# GULP energy per Si atom -5594.110940 kJ/mol
# Density = 2.171179 g / cm^3
# Si number density = 21.761320 Si / 1000 Ang^3
#
#
#
# Elastic Constant Matrix: (Units=GPa)
#
#
# Indices 1 2 3 4 5 6 
#
# 1 90.1773 12.0465 -5.2505 0.0000 0.0000 0.0000
# 2 12.0465 64.8696 13.0266 0.0000 0.0000 0.0000
# 3 -5.2505 13.0266 21.4084 0.0000 0.0000 0.0000
# 4 0.0000 0.0000 0.0000 2.9327 0.0000 0.0000
# 5 0.0000 0.0000 0.0000 0.0000 29.5711 0.0000
# 6 0.0000 0.0000 0.0000 0.0000 0.0000 14.9689
#
#
#
# Elastic Compliance Matrix: (Units=1/GPa)
#
#
# Indices 1 2 3 4 5 6 
#
# 1 0.011791 -0.003156 0.004812 0.000000 0.000000 0.000000
# 2 -0.003156 0.018406 -0.011974 0.000000 0.000000 0.000000
# 3 0.004812 -0.011974 0.055177 0.000000 0.000000 0.000000
# 4 0.000000 0.000000 0.000000 0.340986 0.000000 0.000000
# 5 0.000000 0.000000 0.000000 0.000000 0.033817 0.000000
# 6 0.000000 0.000000 0.000000 0.000000 0.000000 0.066805
#
#
# Mechanical properties :
#
#
# Convention : Reuss Voigt Hill
#
# Bulk Modulus (GPa) = 15.44674 24.01116 19.72895
# Shear Modulus (GPa) = 8.78432 19.93672 14.36052
#
# Velocity S-wave (km/s) = 2.01133 3.03009 2.57166
# Velocity P-wave (km/s) = 3.53660 4.82698 4.23127
#
# Compressibility (1/GPa) = 0.06473860
#
# Stress axis : x y z
#
# Youngs Moduli (GPa) = 84.81011 54.32977 18.12361
#
# Poissons Ratio (x) = 0.17146 -0.08721
# Poissons Ratio (y) = 0.26766 0.21701
# Poissons Ratio (z) = -0.40812 0.65053
#
# Static dielectric constant tensor:
#      x y z
#    x 1.778640 0.000000 0.000000 
#    y 0.000000 1.789790 0.000000 
#    z 0.000000 0.000000 1.757610 
# 
# From -- ./inp_files/9855.got.cif
#   From: 2010.05.17/outbox.cif.g08.bks.cpg/sg41_5_cif.got.tgz:9855.got - 2010.06.03 18:54:24.
