data_PCOD9366233
_publ_section_title
;
Structure prediction by ZEFSAII (Michael W. Deem and Ramdas Pophale) SiO2 
 PCOD9366233
Probable space group: A B A 2
;
_chemical_formula_sum "Si O2"
_cell_formula_units_Z 64
_cell_length_a 12.345512
_cell_length_b 10.420483
_cell_length_c 21.159626
_cell_angle_alpha 90.000000
_cell_angle_beta 90.000000
_cell_angle_gamma 90.000000
_cell_volume 2722.105434
_symmetry_space_group_name_H-M "A B A 2"
_symmetry_group_IT_number 41
_symmetry_cell_setting 'orthorhombic'
loop_
_space_group_symop_operation_xyz
x,y,z
-x,-y,z
1/2-x,y,1/2+z
1/2+x,-y,1/2+z
x,1/2+y,1/2+z
-x,1/2-y,1/2+z
1/2-x,1/2+y,z
1/2+x,1/2-y,z
loop_
_atom_site_type_symbol
_atom_site_label
_atom_site_fract_x
_atom_site_fract_y
_atom_site_fract_z
Si Si1 0.235695 0.422036 0.966740
Si Si2 0.414617 0.727287 0.890932
Si Si3 0.134795 0.244842 0.746367
Si Si4 0.076691 0.375775 0.078221
Si Si5 0.521502 0.631240 0.007245
Si Si6 0.732064 0.992509 0.758802
Si Si7 0.576330 0.624130 0.719041
Si Si8 0.394346 0.589365 0.383626
O O1 0.172900 0.326321 0.919224
O O2 0.197613 0.558644 0.935771
O O3 0.174474 0.408293 0.032567
O O4 0.356861 0.377571 0.980882
O O5 0.368878 0.705969 0.821080
O O6 0.538327 0.779830 0.881730
O O7 0.438343 0.628725 0.947294
O O8 0.164584 0.390131 0.728845
O O9 0.008969 0.234564 0.729720
O O10 0.217934 0.132288 0.722669
O O11 0.120648 0.354410 0.148855
O O12 0.000000 0.500000 0.078917
O O13 0.009861 0.256740 0.047747
O O14 0.500000 0.500000 0.044796
O O15 0.837987 0.083098 0.772082
O O16 0.661029 0.945096 0.817347
O O17 0.500000 0.500000 0.715878
O O18 0.500000 0.500000 0.397043
#
# Coordination Sequence:
#
# PCOD9366233 Si02
#       8
#     8   8   8   8   8   8   8   8
#     4  10  21  39  66  96 131 174 218 274 337 412
#     4  10  23  38  61  96 139 187 213 271 342 417
#     4  11  24  40  66  98 142 177 228 283 340 420
#     4  10  22  47  71  87 125 188 233 279 332 418
#     4  11  26  39  65 104 139 169 222 288 345 399
#     4  11  24  40  66  99 132 183 226 279 345 413
#     4   9  23  45  66  93 131 178 238 282 344 400
#     4  10  20  37  62  95 137 173 224 268 335 414
#
# _framework density 23.511212
#
# number of rings (size 3 to 8) (size 9 to 14) (size 15 to 20)
#    0.000    1.750    2.500    1.875    7.000    4.500 
#    0.000    3.750    0.000    0.000    0.000    0.000 
#    0.000    0.000    0.000    0.000    0.000    0.000 
#
# Total GULP energy -178178.754564 kJ/mol
# GULP energy per Si atom -5568.086080 kJ/mol
# Density = 2.345770 g / cm^3
# Si number density = 23.511212 Si / 1000 Ang^3
#
#
#
# Elastic Constant Matrix: (Units=GPa)
#
#
# Indices 1 2 3 4 5 6 
#
# 1 114.2303 24.3556 12.8084 0.0000 0.0000 0.0000
# 2 24.3556 102.6291 4.8813 0.0000 0.0000 0.0000
# 3 12.8084 4.8813 33.9466 0.0000 0.0000 0.0000
# 4 0.0000 0.0000 0.0000 96.4823 0.0000 0.0000
# 5 0.0000 0.0000 0.0000 0.0000 22.8848 0.0000
# 6 0.0000 0.0000 0.0000 0.0000 0.0000 22.9033
#
#
#
# Elastic Compliance Matrix: (Units=1/GPa)
#
#
# Indices 1 2 3 4 5 6 
#
# 1 0.009576 -0.002115 -0.003309 0.000000 0.000000 0.000000
# 2 -0.002115 0.010278 -0.000680 0.000000 0.000000 0.000000
# 3 -0.003309 -0.000680 0.030804 0.000000 0.000000 0.000000
# 4 0.000000 0.000000 0.000000 0.010365 0.000000 0.000000
# 5 0.000000 0.000000 0.000000 0.000000 0.043697 0.000000
# 6 0.000000 0.000000 0.000000 0.000000 0.000000 0.043662
#
#
# Mechanical properties :
#
#
# Convention : Reuss Voigt Hill
#
# Bulk Modulus (GPa) = 26.00745 37.21072 31.60908
# Shear Modulus (GPa) = 28.83383 42.37145 35.60264
#
# Velocity S-wave (km/s) = 3.50578 4.24982 3.89560
# Velocity P-wave (km/s) = 5.24147 6.32000 5.80584
#
# Compressibility (1/GPa) = 0.03845053
#
# Stress axis : x y z
#
# Youngs Moduli (GPa) = 104.42468 97.29392 32.46293
#
# Poissons Ratio (x) = 0.20580 0.10742
# Poissons Ratio (y) = 0.22088 0.02207
# Poissons Ratio (z) = 0.34555 0.06614
#
# Static dielectric constant tensor:
#      x y z
#    x 2.024170 0.000000 0.000000 
#    y 0.000000 2.062940 0.000000 
#    z 0.000000 0.000000 1.935030 
# 
# From -- ./inp_files/12162.got.cif
#   From: 2010.05.17/outbox.cif.g08.bks.cpg/sg41_7_cif.got.tgz:12162.got - 2010.06.03 18:54:24.
