data_PCOD9366359
_publ_section_title
;
Structure prediction by ZEFSAII (Michael W. Deem and Ramdas Pophale) SiO2 
 PCOD9366359
Probable space group: A B A 2
;
_chemical_formula_sum "Si O2"
_cell_formula_units_Z 64
_cell_length_a 12.823352
_cell_length_b 17.995203
_cell_length_c 13.863125
_cell_angle_alpha 90.000000
_cell_angle_beta 90.000000
_cell_angle_gamma 90.000000
_cell_volume 3199.038400
_symmetry_space_group_name_H-M "A B A 2"
_symmetry_group_IT_number 41
_symmetry_cell_setting 'orthorhombic'
loop_
_space_group_symop_operation_xyz
x,y,z
-x,-y,z
1/2-x,y,1/2+z
1/2+x,-y,1/2+z
x,1/2+y,1/2+z
-x,1/2-y,1/2+z
1/2-x,1/2+y,z
1/2+x,1/2-y,z
loop_
_atom_site_type_symbol
_atom_site_label
_atom_site_fract_x
_atom_site_fract_y
_atom_site_fract_z
Si Si1 0.066580 0.567005 0.301340
Si Si2 0.487417 0.856118 0.487044
Si Si3 0.630536 0.630668 0.183493
Si Si4 0.959083 0.426612 0.832110
Si Si5 0.352929 0.712138 0.433370
Si Si6 0.289205 0.143229 0.589934
Si Si7 0.196993 0.712374 0.260864
Si Si8 0.265407 0.510991 0.215853
O O1 0.005738 0.586425 0.399554
O O2 0.104578 0.649928 0.265296
O O3 0.180650 0.529957 0.297227
O O4 0.000000 0.500000 0.251121
O O5 0.416340 0.880738 0.577053
O O6 0.431682 0.781293 0.446821
O O7 0.602852 0.848107 0.533545
O O8 0.547513 0.606820 0.263880
O O9 0.657035 0.714315 0.209629
O O10 0.728139 0.575674 0.194713
O O11 0.912730 0.360138 0.893978
O O12 0.873387 0.460820 0.760345
O O13 0.000000 0.500000 0.888050
O O14 0.300118 0.685786 0.532088
O O15 0.254343 0.728158 0.362211
O O16 0.290270 0.180869 0.694601
O O17 0.255044 0.059153 0.617552
#
# Coordination Sequence:
#
# PCOD9366359 Si02
#       8
#     8   8   8   8   8   8   8   8
#     4  11  25  42  67  98 134 179 228 282 343 404
#     4  12  24  39  69 101 130 175 234 278 328 422
#     4  11  23  40  68 102 126 175 228 272 344 409
#     4  10  20  39  66  88 124 171 218 268 329 400
#     4  12  23  42  65  98 135 180 221 279 349 395
#     4  11  22  43  65  93 136 175 221 274 339 401
#     4  11  23  46  65  92 146 175 209 291 341 403
#     4  10  22  44  65  93 132 177 218 282 339 400
#
# _framework density 20.006011999999998
#
# number of rings (size 3 to 8) (size 9 to 14) (size 15 to 20)
#    0.000    1.000    6.250    0.750    3.500    0.000 
#    0.000    3.750    0.000    0.000    0.000    0.000 
#    0.000    0.000    0.000    0.000    0.000    0.000 
#
# Total GULP energy -178163.473446 kJ/mol
# GULP energy per Si atom -5567.608545 kJ/mol
# Density = 1.996048 g / cm^3
# Si number density = 20.006012 Si / 1000 Ang^3
#
#
#
# Elastic Constant Matrix: (Units=GPa)
#
#
# Indices 1 2 3 4 5 6 
#
# 1 42.0441 42.9500 8.7913 0.0000 0.0000 0.0000
# 2 42.9500 133.9963 34.6418 0.0000 0.0000 0.0000
# 3 8.7913 34.6418 66.7207 0.0000 0.0000 0.0000
# 4 0.0000 0.0000 0.0000 9.5684 0.0000 0.0000
# 5 0.0000 0.0000 0.0000 0.0000 24.8937 0.0000
# 6 0.0000 0.0000 0.0000 0.0000 0.0000 33.8905
#
#
#
# Elastic Compliance Matrix: (Units=1/GPa)
#
#
# Indices 1 2 3 4 5 6 
#
# 1 0.035480 -0.011740 0.001420 0.000000 0.000000 0.000000
# 2 -0.011740 0.012504 -0.004945 0.000000 0.000000 0.000000
# 3 0.001420 -0.004945 0.017368 0.000000 0.000000 0.000000
# 4 0.000000 0.000000 0.000000 0.104510 0.000000 0.000000
# 5 0.000000 0.000000 0.000000 0.000000 0.040171 0.000000
# 6 0.000000 0.000000 0.000000 0.000000 0.000000 0.029507
#
#
# Mechanical properties :
#
#
# Convention : Reuss Voigt Hill
#
# Bulk Modulus (GPa) = 28.71638 46.16971 37.44305
# Shear Modulus (GPa) = 17.75072 24.09571 20.92321
#
# Velocity S-wave (km/s) = 2.98194 3.47425 3.23746
# Velocity P-wave (km/s) = 5.12259 6.26274 5.72114
#
# Compressibility (1/GPa) = 0.03482333
#
# Stress axis : x y z
#
# Youngs Moduli (GPa) = 28.18470 79.97188 57.57570
#
# Poissons Ratio (x) = 0.93885 -0.08178
# Poissons Ratio (y) = 0.33088 0.28474
# Poissons Ratio (z) = -0.04003 0.39550
#
# Static dielectric constant tensor:
#      x y z
#    x 1.724150 0.000000 0.000000 
#    y 0.000000 1.816790 0.000000 
#    z 0.000000 0.000000 1.714090 
# 
# From -- ./inp_files/8095.got.cif
#   From: 2010.05.17/outbox.cif.g08.bks.cpg/sg41_5_cif.got.tgz:8095.got - 2010.06.03 18:54:24.
