data_PCOD9366323
_publ_section_title
;
Structure prediction by ZEFSAII (Michael W. Deem and Ramdas Pophale) SiO2 
 PCOD9366323
Probable space group: A B A 2
;
_chemical_formula_sum "Si O2"
_cell_formula_units_Z 64
_cell_length_a 21.404589
_cell_length_b 18.102831
_cell_length_c 7.694820
_cell_angle_alpha 90.000000
_cell_angle_beta 90.000000
_cell_angle_gamma 90.000000
_cell_volume 2981.616996
_symmetry_space_group_name_H-M "A B A 2"
_symmetry_group_IT_number 41
_symmetry_cell_setting 'orthorhombic'
loop_
_space_group_symop_operation_xyz
x,y,z
-x,-y,z
1/2-x,y,1/2+z
1/2+x,-y,1/2+z
x,1/2+y,1/2+z
-x,1/2-y,1/2+z
1/2-x,1/2+y,z
1/2+x,1/2-y,z
loop_
_atom_site_type_symbol
_atom_site_label
_atom_site_fract_x
_atom_site_fract_y
_atom_site_fract_z
Si Si1 0.837636 0.402627 0.392420
Si Si2 0.241705 0.681703 0.110154
Si Si3 0.366718 0.932423 0.391577
Si Si4 0.322555 0.773501 0.322859
Si Si5 0.047758 0.209878 0.330568
Si Si6 0.030617 0.420071 0.686051
Si Si7 0.946677 0.062434 0.568864
Si Si8 0.956827 0.328224 0.226109
O O1 0.793956 0.376523 0.231438
O O2 0.804918 0.356891 0.545081
O O3 0.838170 0.488575 0.445082
O O4 0.905944 0.373587 0.334367
O O5 0.266205 0.758467 0.191522
O O6 0.195694 0.710491 0.962256
O O7 0.325823 0.858313 0.381745
O O8 0.423222 0.910639 0.523667
O O9 0.389874 0.953431 0.195941
O O10 0.391883 0.751819 0.255938
O O11 0.064697 0.194526 0.532129
O O12 0.983254 0.124422 0.674430
O O13 0.985070 0.259463 0.329355
O O14 0.974650 0.361749 0.722264
O O15 0.000000 0.500000 0.662057
O O16 0.068202 0.418469 0.869834
O O17 0.000000 0.000000 0.556753
#
# Coordination Sequence:
#
# PCOD9366323 Si02
#       8
#     8   8   8   8   8   8   8   8
#     4  11  25  45  73  96 136 181 237 294 350 416
#     4  10  26  48  67  93 132 192 240 288 346 407
#     4  12  24  42  72 104 134 179 226 293 345 413
#     4  11  24  46  69  98 135 181 237 290 343 414
#     4  11  23  38  67 101 140 178 225 278 355 424
#     4  10  25  38  60 105 144 176 217 272 352 425
#     4  10  20  39  59  99 143 170 203 268 357 412
#     4  11  22  37  65 100 132 175 218 280 346 428
#
# _framework density 21.464860999999999
#
# number of rings (size 3 to 8) (size 9 to 14) (size 15 to 20)
#    0.000    1.250    3.750    1.125    3.500    1.000 
#    4.500    0.000    0.000    0.000    0.000    0.000 
#    0.000    0.000    0.000    0.000    0.000    0.000 
#
# Total GULP energy -178370.076174 kJ/mol
# GULP energy per Si atom -5574.064880 kJ/mol
# Density = 2.141601 g / cm^3
# Si number density = 21.464861 Si / 1000 Ang^3
#
#
#
# Elastic Constant Matrix: (Units=GPa)
#
#
# Indices 1 2 3 4 5 6 
#
# 1 52.8364 11.3887 6.3319 0.0000 0.0000 0.0000
# 2 11.3887 68.3869 -19.8477 0.0000 0.0000 0.0000
# 3 6.3319 -19.8477 68.0023 0.0000 0.0000 0.0000
# 4 0.0000 0.0000 0.0000 -0.2798 0.0000 0.0000
# 5 0.0000 0.0000 0.0000 0.0000 -3.1256 0.0000
# 6 0.0000 0.0000 0.0000 0.0000 0.0000 18.9248
#
#
#
# Elastic Compliance Matrix: (Units=1/GPa)
#
#
# Indices 1 2 3 4 5 6 
#
# 1 0.020223 -0.004277 -0.003131 0.000000 0.000000 0.000000
# 2 -0.004277 0.016880 0.005325 0.000000 0.000000 0.000000
# 3 -0.003131 0.005325 0.016551 0.000000 0.000000 0.000000
# 4 0.000000 0.000000 0.000000 -3.574439 0.000000 0.000000
# 5 0.000000 0.000000 0.000000 0.000000 -0.319943 0.000000
# 6 0.000000 0.000000 0.000000 0.000000 0.000000 0.052841
#
#
# Mechanical properties :
#
#
# Convention : Reuss Voigt Hill
#
# Bulk Modulus (GPa) = 20.20644 20.55237 20.37941
# Shear Modulus (GPa) = -1.32724 15.86074 7.26675
#
# Velocity S-wave (km/s) = -0.78719 2.72125 1.84195
# Velocity P-wave (km/s) = 2.93393 4.41240 3.74681
#
# Compressibility (1/GPa) = 0.04948918
#
# Stress axis : x y z
#
# Youngs Moduli (GPa) = 49.44757 59.24039 60.41872
#
# Poissons Ratio (x) = 0.25335 0.18919
# Poissons Ratio (y) = 0.21147 -0.32173
# Poissons Ratio (z) = 0.15483 -0.31546
#
# Static dielectric constant tensor:
#      x y z
#    x 1.799610 0.000000 0.000000 
#    y 0.000000 1.770890 0.000000 
#    z 0.000000 0.000000 1.942140 
# 
# From -- ./inp_files/3507.got.cif
#   From: 2010.05.17/outbox.cif.g08.bks.cpg/sg41_2_cif.got.tgz:3507.got - 2010.06.03 18:54:24.
