data_PCOD9366037
_publ_section_title
;
Structure prediction by ZEFSAII (Michael W. Deem and Ramdas Pophale) SiO2 
 PCOD9366037
Probable space group: A B A 2
;
_chemical_formula_sum "Si O2"
_cell_formula_units_Z 52
_cell_length_a 22.167206
_cell_length_b 10.989227
_cell_length_c 8.548218
_cell_angle_alpha 90.000000
_cell_angle_beta 90.000000
_cell_angle_gamma 90.000000
_cell_volume 2082.349826
_symmetry_space_group_name_H-M "A B A 2"
_symmetry_group_IT_number 41
_symmetry_cell_setting 'orthorhombic'
loop_
_space_group_symop_operation_xyz
x,y,z
-x,-y,z
1/2-x,y,1/2+z
1/2+x,-y,1/2+z
x,1/2+y,1/2+z
-x,1/2-y,1/2+z
1/2-x,1/2+y,z
1/2+x,1/2-y,z
loop_
_atom_site_type_symbol
_atom_site_label
_atom_site_fract_x
_atom_site_fract_y
_atom_site_fract_z
Si Si1 0.123893 0.902903 0.639100
Si Si2 0.733981 0.901381 0.582507
Si Si3 0.047459 0.742062 0.182467
Si Si4 0.332288 0.158719 0.294388
Si Si5 0.930143 0.822406 0.319329
Si Si6 0.000000 0.500000 0.177723
Si Si7 0.673116 0.514105 0.345566
O O1 0.110572 0.787280 0.746881
O O2 0.056505 0.945062 0.587277
O O3 0.149794 0.021169 0.731840
O O4 0.160864 0.887074 0.479986
O O5 0.678640 0.857150 0.477656
O O6 0.770129 0.813411 0.700897
O O7 0.709859 0.016130 0.684008
O O8 0.783479 0.929843 0.452031
O O9 0.115687 0.752119 0.241071
O O10 0.993355 0.831816 0.225118
O O11 0.025207 0.616336 0.267889
O O12 0.053336 0.712402 0.998476
O O13 0.888319 0.940822 0.312659
#
# Coordination Sequence:
#
# PCOD9366037 Si02
#       7
#     8   8   8   8   8   4   8
#     4   9  18  34  58  77 114 156 195 246 324 369
#     4   9  18  33  63  77 110 165 203 258 332 374
#     4  10  20  34  58  87 125 162 214 259 320 395
#     4   9  17  36  57  80 115 156 207 261 317 391
#     4  11  21  36  60  88 124 169 203 264 327 392
#     4   8  14  34  54  74 110 162 180 242 314 362
#     4  10  19  38  57  84 115 158 206 265 318 393
#
# _framework density 24.971788
#
# number of rings (size 3 to 8) (size 9 to 14) (size 15 to 20)
#    0.000    2.462    4.615    0.000    2.154    0.000 
#    0.000    9.231    0.000    0.000    0.000    0.000 
#    0.000    0.000    0.000    0.000    0.000    0.000 
#
# Total GULP energy -144808.985788 kJ/mol
# GULP energy per Si atom -5569.576376 kJ/mol
# Density = 2.491495 g / cm^3
# Si number density = 24.971788 Si / 1000 Ang^3
#
#
#
# Elastic Constant Matrix: (Units=GPa)
#
#
# Indices 1 2 3 4 5 6 
#
# 1 102.4528 5.3387 42.8063 0.0000 0.0000 0.0000
# 2 5.3387 74.3032 10.5357 0.0000 0.0000 0.0000
# 3 42.8063 10.5357 108.1603 0.0000 0.0000 0.0000
# 4 0.0000 0.0000 0.0000 22.3996 0.0000 0.0000
# 5 0.0000 0.0000 0.0000 0.0000 47.2545 0.0000
# 6 0.0000 0.0000 0.0000 0.0000 0.0000 -7.9777
#
#
#
# Elastic Compliance Matrix: (Units=1/GPa)
#
#
# Indices 1 2 3 4 5 6 
#
# 1 0.011697 -0.000187 -0.004611 0.000000 0.000000 0.000000
# 2 -0.000187 0.013650 -0.001256 0.000000 0.000000 0.000000
# 3 -0.004611 -0.001256 0.011193 0.000000 0.000000 0.000000
# 4 0.000000 0.000000 0.000000 0.044644 0.000000 0.000000
# 5 0.000000 0.000000 0.000000 0.000000 0.021162 0.000000
# 6 0.000000 0.000000 0.000000 0.000000 0.000000 -0.125350
#
#
# Mechanical properties :
#
#
# Convention : Reuss Voigt Hill
#
# Bulk Modulus (GPa) = 40.92885 44.69752 42.81319
# Shear Modulus (GPa) = -1815.60424 27.41766 -894.09329
#
# Velocity S-wave (km/s) = -26.99334 3.31712 -18.94251
# Velocity P-wave (km/s) = 30.90461 5.71044 21.47657
#
# Compressibility (1/GPa) = 0.02443264
#
# Stress axis : x y z
#
# Youngs Moduli (GPa) = 85.49279 73.26095 89.34341
#
# Poissons Ratio (x) = 0.01367 0.41197
# Poissons Ratio (y) = 0.01595 0.11219
# Poissons Ratio (z) = 0.39421 0.09200
#
# Static dielectric constant tensor:
#      x y z
#    x 2.106320 0.000000 0.000000 
#    y 0.000000 2.100060 0.000000 
#    z 0.000000 0.000000 1.981470 
# 
# From -- ./inp_files/3643.got.cif
#   From: 2010.05.17/outbox.cif.g08.bks.cpg/sg41_2_cif.got.tgz:3643.got - 2010.06.03 18:54:24.
