data_PCOD9366902
_publ_section_title
;
Structure prediction by ZEFSAII (Michael W. Deem and Ramdas Pophale) SiO2 
 PCOD9366902
Probable space group: A B A 2
;
_chemical_formula_sum "Si O2"
_cell_formula_units_Z 56
_cell_length_a 15.513634
_cell_length_b 14.630843
_cell_length_c 9.877449
_cell_angle_alpha 90.000000
_cell_angle_beta 90.000000
_cell_angle_gamma 90.000000
_cell_volume 2241.959109
_symmetry_space_group_name_H-M "A B A 2"
_symmetry_group_IT_number 41
_symmetry_cell_setting 'orthorhombic'
loop_
_space_group_symop_operation_xyz
x,y,z
-x,-y,z
1/2-x,y,1/2+z
1/2+x,-y,1/2+z
x,1/2+y,1/2+z
-x,1/2-y,1/2+z
1/2-x,1/2+y,z
1/2+x,1/2-y,z
loop_
_atom_site_type_symbol
_atom_site_label
_atom_site_fract_x
_atom_site_fract_y
_atom_site_fract_z
Si Si1 0.500000 0.000000 0.555331
Si Si2 0.403235 0.878834 0.946292
Si Si3 0.924050 0.674855 0.427212
Si Si4 0.326931 0.478319 0.229679
Si Si5 0.000000 0.500000 0.134949
Si Si6 0.260964 0.799218 0.562143
Si Si7 0.329474 0.113363 0.194885
Si Si8 0.537577 0.247175 0.722594
O O1 0.472324 0.919059 0.455131
O O2 0.412950 0.010373 0.646607
O O3 0.349370 0.963804 0.887342
O O4 0.446376 0.843712 0.808156
O O5 0.475302 0.913220 0.045149
O O6 0.336944 0.812413 0.019859
O O7 0.821884 0.673169 0.436018
O O8 0.954189 0.730373 0.563140
O O9 0.950874 0.714671 0.284730
O O10 0.290775 0.380902 0.167116
O O11 0.253370 0.554044 0.226852
O O12 0.905725 0.464939 0.185072
O O13 0.287460 0.694400 0.596746
O O14 0.386818 0.186377 0.277812
#
# Coordination Sequence:
#
# PCOD9366902 Si02
#       8
#     4   8   8   8   4   8   8   8
#     4  10  21  43  72 100 146 192 246 310 386 442
#     4  12  23  43  73 101 151 197 252 308 385 459
#     4  10  23  46  70 102 145 189 248 303 379 453
#     4  11  23  46  68 107 145 194 257 314 379 465
#     4  12  27  45  76 114 148 204 256 320 386 466
#     4  10  23  47  66 104 150 192 243 319 376 450
#     4  11  25  48  72 108 151 191 260 313 388 451
#     4  11  24  46  69 109 144 196 250 307 383 460
#
# _framework density 24.978152999999999
#
# number of rings (size 3 to 8) (size 9 to 14) (size 15 to 20)
#    0.000    1.143    5.714    2.143    2.000    5.143 
#    5.143    0.000    0.000    0.000    0.000    0.000 
#    0.000    0.000    0.000    0.000    0.000    0.000 
#
# Total GULP energy -155967.353666 kJ/mol
# GULP energy per Si atom -5570.262631 kJ/mol
# Density = 2.492130 g / cm^3
# Si number density = 24.978153 Si / 1000 Ang^3
#
#
#
# Elastic Constant Matrix: (Units=GPa)
#
#
# Indices 1 2 3 4 5 6 
#
# 1 102.7645 25.2493 20.1595 0.0000 0.0000 0.0000
# 2 25.2493 110.3724 -7.0795 0.0000 0.0000 0.0000
# 3 20.1595 -7.0795 45.5929 0.0000 0.0000 0.0000
# 4 0.0000 0.0000 0.0000 23.1577 0.0000 0.0000
# 5 0.0000 0.0000 0.0000 0.0000 100.3834 0.0000
# 6 0.0000 0.0000 0.0000 0.0000 0.0000 6.2225
#
#
#
# Elastic Compliance Matrix: (Units=1/GPa)
#
#
# Indices 1 2 3 4 5 6 
#
# 1 0.011563 -0.003003 -0.005579 0.000000 0.000000 0.000000
# 2 -0.003003 0.009931 0.002870 0.000000 0.000000 0.000000
# 3 -0.005579 0.002870 0.024846 0.000000 0.000000 0.000000
# 4 0.000000 0.000000 0.000000 0.043182 0.000000 0.000000
# 5 0.000000 0.000000 0.000000 0.000000 0.009962 0.000000
# 6 0.000000 0.000000 0.000000 0.000000 0.000000 0.160708
#
#
# Mechanical properties :
#
#
# Convention : Reuss Voigt Hill
#
# Bulk Modulus (GPa) = 28.64037 37.26535 32.95286
# Shear Modulus (GPa) = 17.65192 40.64610 29.14901
#
# Velocity S-wave (km/s) = 2.66126 4.03831 3.41982
# Velocity P-wave (km/s) = 4.57538 6.05769 5.36794
#
# Compressibility (1/GPa) = 0.03491575
#
# Stress axis : x y z
#
# Youngs Moduli (GPa) = 86.48017 100.69134 40.24831
#
# Poissons Ratio (x) = 0.30239 0.22455
# Poissons Ratio (y) = 0.25971 -0.11551
# Poissons Ratio (z) = 0.48249 -0.28898
#
# Static dielectric constant tensor:
#      x y z
#    x 2.023790 0.000000 0.000000 
#    y 0.000000 1.706620 0.000000 
#    z 0.000000 0.000000 2.075700 
# 
# From -- ./inp_files/5616.got.cif
#   From: 2010.05.17/outbox.cif.g08.bks.cpg/sg41_3_cif.got.tgz:5616.got - 2010.06.03 18:54:24.
