data_PCOD9366499
_publ_section_title
;
Structure prediction by ZEFSAII (Michael W. Deem and Ramdas Pophale) SiO2 
 PCOD9366499
Probable space group: A B A 2
;
_chemical_formula_sum "Si O2"
_cell_formula_units_Z 48
_cell_length_a 9.447360
_cell_length_b 14.909128
_cell_length_c 15.641646
_cell_angle_alpha 90.000000
_cell_angle_beta 90.000000
_cell_angle_gamma 90.000000
_cell_volume 2203.155550
_symmetry_space_group_name_H-M "A B A 2"
_symmetry_group_IT_number 41
_symmetry_cell_setting 'orthorhombic'
loop_
_space_group_symop_operation_xyz
x,y,z
-x,-y,z
1/2-x,y,1/2+z
1/2+x,-y,1/2+z
x,1/2+y,1/2+z
-x,1/2-y,1/2+z
1/2-x,1/2+y,z
1/2+x,1/2-y,z
loop_
_atom_site_type_symbol
_atom_site_label
_atom_site_fract_x
_atom_site_fract_y
_atom_site_fract_z
Si Si1 0.000000 0.500000 0.658551
Si Si2 0.720676 0.044653 0.262904
Si Si3 0.500000 0.000000 0.120820
Si Si4 0.593039 0.704673 0.862360
Si Si5 0.204537 0.653514 0.295222
Si Si6 0.035675 0.177108 0.047078
Si Si7 0.835791 0.329745 0.097304
O O1 0.871988 0.530825 0.719343
O O2 0.970200 0.416652 0.596285
O O3 0.696532 0.130100 0.321716
O O4 0.608698 0.049997 0.184679
O O5 0.689067 0.952298 0.313475
O O6 0.589986 0.924132 0.072789
O O7 0.443855 0.700854 0.813611
O O8 0.670183 0.798824 0.846265
O O9 0.547416 0.678804 0.957826
O O10 0.226250 0.659898 0.193070
O O11 0.202940 0.196628 0.038631
O O12 0.955787 0.254539 0.099051
#
# Coordination Sequence:
#
# PCOD9366499 Si02
#       7
#     4   8   4   8   8   8   8
#     4  12  26  43  70 107 134 180 250 282 342 429
#     4  11  23  44  71 102 131 185 240 283 343 424
#     4  10  20  43  72 101 128 182 240 284 330 415
#     4  12  25  44  70  98 146 178 229 292 363 410
#     4  11  23  43  70  96 130 187 234 281 341 436
#     4  12  27  42  68 105 142 181 227 297 358 412
#     4  11  23  45  70 104 140 185 240 284 349 428
#
# _framework density 21.786932
#
# number of rings (size 3 to 8) (size 9 to 14) (size 15 to 20)
#    0.000    0.667    6.667    3.000    7.000    0.000 
#    0.000    0.000    0.000    1.000    0.000    0.000 
#    0.000    0.000    0.000    0.000    0.000    0.000 
#
# Total GULP energy -134190.509596 kJ/mol
# GULP energy per Si atom -5591.271233 kJ/mol
# Density = 2.173734 g / cm^3
# Si number density = 21.786932 Si / 1000 Ang^3
#
#
#
# Elastic Constant Matrix: (Units=GPa)
#
#
# Indices 1 2 3 4 5 6 
#
# 1 120.5756 19.9190 22.2333 0.0000 0.0000 0.0000
# 2 19.9190 86.1756 9.3930 0.0000 0.0000 0.0000
# 3 22.2333 9.3930 63.7446 0.0000 0.0000 0.0000
# 4 0.0000 0.0000 0.0000 13.4907 0.0000 0.0000
# 5 0.0000 0.0000 0.0000 0.0000 38.7253 0.0000
# 6 0.0000 0.0000 0.0000 0.0000 0.0000 42.2162
#
#
#
# Elastic Compliance Matrix: (Units=1/GPa)
#
#
# Indices 1 2 3 4 5 6 
#
# 1 0.009128 -0.001792 -0.002920 0.000000 0.000000 0.000000
# 2 -0.001792 0.012145 -0.001165 0.000000 0.000000 0.000000
# 3 -0.002920 -0.001165 0.016878 0.000000 0.000000 0.000000
# 4 0.000000 0.000000 0.000000 0.074125 0.000000 0.000000
# 5 0.000000 0.000000 0.000000 0.000000 0.025823 0.000000
# 6 0.000000 0.000000 0.000000 0.000000 0.000000 0.023688
#
#
# Mechanical properties :
#
#
# Convention : Reuss Voigt Hill
#
# Bulk Modulus (GPa) = 37.88075 41.50960 39.69517
# Shear Modulus (GPa) = 27.42155 33.48313 30.45234
#
# Velocity S-wave (km/s) = 3.55156 3.92451 3.74268
# Velocity P-wave (km/s) = 5.85173 6.29521 6.07751
#
# Compressibility (1/GPa) = 0.02639863
#
# Stress axis : x y z
#
# Youngs Moduli (GPa) = 109.55423 82.33638 59.25020
#
# Poissons Ratio (x) = 0.14752 0.17299
# Poissons Ratio (y) = 0.19628 0.06901
# Poissons Ratio (z) = 0.31986 0.09590
#
# Static dielectric constant tensor:
#      x y z
#    x 1.811110 0.000000 0.000000 
#    y 0.000000 1.798840 0.000000 
#    z 0.000000 0.000000 1.824760 
# 
# From -- ./inp_files/7351.got.cif
#   From: 2010.05.17/outbox.cif.g08.bks.cpg/sg41_4_cif.got.tgz:7351.got - 2010.06.03 18:54:24.
