data_PCOD9366133
_publ_section_title
;
Structure prediction by ZEFSAII (Michael W. Deem and Ramdas Pophale) SiO2 
 PCOD9366133
Probable space group: A B A 2
;
_chemical_formula_sum "Si O2"
_cell_formula_units_Z 64
_cell_length_a 8.849758
_cell_length_b 17.745304
_cell_length_c 20.626331
_cell_angle_alpha 90.000000
_cell_angle_beta 90.000000
_cell_angle_gamma 90.000000
_cell_volume 3239.192972
_symmetry_space_group_name_H-M "A B A 2"
_symmetry_group_IT_number 41
_symmetry_cell_setting 'orthorhombic'
loop_
_space_group_symop_operation_xyz
x,y,z
-x,-y,z
1/2-x,y,1/2+z
1/2+x,-y,1/2+z
x,1/2+y,1/2+z
-x,1/2-y,1/2+z
1/2-x,1/2+y,z
1/2+x,1/2-y,z
loop_
_atom_site_type_symbol
_atom_site_label
_atom_site_fract_x
_atom_site_fract_y
_atom_site_fract_z
Si Si1 0.305223 0.630341 0.813200
Si Si2 0.741691 0.872098 0.125330
Si Si3 0.190495 0.300775 0.648386
Si Si4 0.048925 0.912041 0.903066
Si Si5 0.762331 0.543309 0.794279
Si Si6 0.466320 0.640793 0.244896
Si Si7 0.012859 0.411055 0.551341
Si Si8 0.532573 0.107714 0.196550
O O1 0.409186 0.637501 0.876129
O O2 0.241260 0.544172 0.812967
O O3 0.422901 0.635878 0.753970
O O4 0.152707 0.675135 0.796227
O O5 0.701121 0.783988 0.124600
O O6 0.586490 0.915419 0.140768
O O7 0.858330 0.887155 0.185511
O O8 0.838679 0.887188 0.061649
O O9 0.083461 0.302989 0.711411
O O10 0.116111 0.360674 0.598790
O O11 0.355266 0.330092 0.667764
O O12 0.189687 0.908693 0.853567
O O13 0.072437 0.899225 0.978673
O O14 0.000000 0.000000 0.897049
O O15 0.922136 0.577649 0.773711
O O16 0.646608 0.551290 0.733427
O O17 0.000000 0.500000 0.566920
#
# Coordination Sequence:
#
# PCOD9366133 Si02
#       8
#     8   8   8   8   8   8   8   8
#     4   9  16  28  49  77 109 137 164 213 275 324
#     4  10  20  34  52  75 109 145 173 213 273 327
#     4  10  20  34  52  75 109 145 173 213 273 327
#     4   8  16  32  51  73 106 145 178 216 271 314
#     4   9  16  28  49  77 109 137 164 213 275 324
#     4   9  18  29  51  78  97 129 175 210 250 321
#     4  10  21  36  57  80 104 140 191 234 255 299
#     4   9  17  27  45  71  96 132 172 206 255 322
#
# _framework density 19.758009000000001
#
# number of rings (size 3 to 8) (size 9 to 14) (size 15 to 20)
#    0.000    2.750    0.000    3.000    0.000   10.000 
#    0.000    1.250    0.000   25.500    0.000    0.000 
#    0.000    0.000    0.000    0.000    0.000    0.000 
#
# Total GULP energy -178215.263651 kJ/mol
# GULP energy per Si atom -5569.226989 kJ/mol
# Density = 1.971304 g / cm^3
# Si number density = 19.758009 Si / 1000 Ang^3
#
#
#
# Elastic Constant Matrix: (Units=GPa)
#
#
# Indices 1 2 3 4 5 6 
#
# 1 131.2065 26.5914 27.3606 0.0000 0.0000 0.0000
# 2 26.5914 64.3230 31.1652 0.0000 0.0000 0.0000
# 3 27.3606 31.1652 58.6836 0.0000 0.0000 0.0000
# 4 0.0000 0.0000 0.0000 3.5712 0.0000 0.0000
# 5 0.0000 0.0000 0.0000 0.0000 15.0242 0.0000
# 6 0.0000 0.0000 0.0000 0.0000 0.0000 26.0370
#
#
#
# Elastic Compliance Matrix: (Units=1/GPa)
#
#
# Indices 1 2 3 4 5 6 
#
# 1 0.008665 -0.002188 -0.002878 0.000000 0.000000 0.000000
# 2 -0.002188 0.021485 -0.010390 0.000000 0.000000 0.000000
# 3 -0.002878 -0.010390 0.023900 0.000000 0.000000 0.000000
# 4 0.000000 0.000000 0.000000 0.280019 0.000000 0.000000
# 5 0.000000 0.000000 0.000000 0.000000 0.066559 0.000000
# 6 0.000000 0.000000 0.000000 0.000000 0.000000 0.038407
#
#
# Mechanical properties :
#
#
# Convention : Reuss Voigt Hill
#
# Bulk Modulus (GPa) = 43.21794 47.16084 45.18939
# Shear Modulus (GPa) = 10.46768 20.19954 15.33361
#
# Velocity S-wave (km/s) = 2.30422 3.20088 2.78883
# Velocity P-wave (km/s) = 5.38520 6.13041 5.76985
#
# Compressibility (1/GPa) = 0.02313854
#
# Stress axis : x y z
#
# Youngs Moduli (GPa) = 115.40487 46.54398 41.84031
#
# Poissons Ratio (x) = 0.10182 0.12043
# Poissons Ratio (y) = 0.25247 0.43473
# Poissons Ratio (z) = 0.33216 0.48360
#
# Static dielectric constant tensor:
#      x y z
#    x 1.736490 0.000000 0.000000 
#    y 0.000000 1.750800 0.000000 
#    z 0.000000 0.000000 1.730120 
# 
# From -- ./inp_files/11319.got.cif
#   From: 2010.05.17/outbox.cif.g08.bks.cpg/sg41_6_cif.got.tgz:11319.got - 2010.06.03 18:54:24.
