data_PCOD9366818
_publ_section_title
;
Structure prediction by ZEFSAII (Michael W. Deem and Ramdas Pophale) SiO2 
 PCOD9366818
Probable space group: A B A 2
;
_chemical_formula_sum "Si O2"
_cell_formula_units_Z 40
_cell_length_a 9.379743
_cell_length_b 16.094204
_cell_length_c 12.544599
_cell_angle_alpha 90.000000
_cell_angle_beta 90.000000
_cell_angle_gamma 90.000000
_cell_volume 1893.726359
_symmetry_space_group_name_H-M "A B A 2"
_symmetry_group_IT_number 41
_symmetry_cell_setting 'orthorhombic'
loop_
_space_group_symop_operation_xyz
x,y,z
-x,-y,z
1/2-x,y,1/2+z
1/2+x,-y,1/2+z
x,1/2+y,1/2+z
-x,1/2-y,1/2+z
1/2-x,1/2+y,z
1/2+x,1/2-y,z
loop_
_atom_site_type_symbol
_atom_site_label
_atom_site_fract_x
_atom_site_fract_y
_atom_site_fract_z
Si Si1 0.178041 0.324098 0.968690
Si Si2 0.875904 0.197343 0.790108
Si Si3 0.040122 0.908537 0.973693
Si Si4 0.980412 0.403255 0.109791
Si Si5 0.175497 0.669754 0.627729
O O1 0.977412 0.165528 0.886140
O O2 0.292885 0.396560 0.999606
O O3 0.023299 0.356674 0.000177
O O4 0.207538 0.244011 0.042512
O O5 0.721376 0.192256 0.846737
O O6 0.909333 0.131934 0.697342
O O7 0.885113 0.285551 0.732840
O O8 0.000000 0.000000 0.932452
O O9 0.941215 0.888341 0.073212
O O10 0.000000 0.500000 0.097765
O O11 0.823002 0.377372 0.145319
#
# Coordination Sequence:
#
# PCOD9366818 Si02
#       5
#     8   8   8   8   8
#     4   9  21  40  62  89 129 168 218 257 331 406
#     4   9  23  39  64  87 127 174 216 254 334 404
#     4  10  21  41  67  95 128 174 215 271 335 390
#     4  11  22  39  63  97 128 164 221 288 328 378
#     4  11  22  39  67  94 127 172 223 274 324 394
#
# _framework density 21.122377
#
# number of rings (size 3 to 8) (size 9 to 14) (size 15 to 20)
#    1.200    0.800    0.000    4.200    2.800    0.000 
#    0.000    0.000    0.000    6.000    0.000    0.000 
#    0.000    0.000    0.000    0.000    0.000    0.000 
#
# Total GULP energy -111406.972644 kJ/mol
# GULP energy per Si atom -5570.348632 kJ/mol
# Density = 2.107430 g / cm^3
# Si number density = 21.122377 Si / 1000 Ang^3
#
#
#
# Elastic Constant Matrix: (Units=GPa)
#
#
# Indices 1 2 3 4 5 6 
#
# 1 58.3029 21.6483 21.1938 0.0000 0.0000 0.0000
# 2 21.6483 92.4067 13.6040 0.0000 0.0000 0.0000
# 3 21.1938 13.6040 85.1630 0.0000 0.0000 0.0000
# 4 0.0000 0.0000 0.0000 23.3166 0.0000 0.0000
# 5 0.0000 0.0000 0.0000 0.0000 35.4911 0.0000
# 6 0.0000 0.0000 0.0000 0.0000 0.0000 30.3874
#
#
#
# Elastic Compliance Matrix: (Units=1/GPa)
#
#
# Indices 1 2 3 4 5 6 
#
# 1 0.020271 -0.004103 -0.004389 0.000000 0.000000 0.000000
# 2 -0.004103 0.011913 -0.000882 0.000000 0.000000 0.000000
# 3 -0.004389 -0.000882 0.012975 0.000000 0.000000 0.000000
# 4 0.000000 0.000000 0.000000 0.042888 0.000000 0.000000
# 5 0.000000 0.000000 0.000000 0.000000 0.028176 0.000000
# 6 0.000000 0.000000 0.000000 0.000000 0.000000 0.032908
#
#
# Mechanical properties :
#
#
# Convention : Reuss Voigt Hill
#
# Bulk Modulus (GPa) = 37.86291 38.75165 38.30728
# Shear Modulus (GPa) = 28.29934 29.80079 29.05006
#
# Velocity S-wave (km/s) = 3.66427 3.76022 3.71256
# Velocity P-wave (km/s) = 5.98890 6.10233 6.04588
#
# Compressibility (1/GPa) = 0.02641107
#
# Stress axis : x y z
#
# Youngs Moduli (GPa) = 49.33227 83.94400 77.06894
#
# Poissons Ratio (x) = 0.34439 0.33827
# Poissons Ratio (y) = 0.20239 0.06797
# Poissons Ratio (z) = 0.21653 0.07403
#
# Static dielectric constant tensor:
#      x y z
#    x 1.758400 0.000000 0.000000 
#    y 0.000000 1.726090 0.000000 
#    z 0.000000 0.000000 1.798840 
# 
# From -- ./inp_files/7238.got.cif
#   From: 2010.05.17/outbox.cif.g08.bks.cpg/sg41_4_cif.got.tgz:7238.got - 2010.06.03 18:54:24.
