data_PCOD9366585
_publ_section_title
;
Structure prediction by ZEFSAII (Michael W. Deem and Ramdas Pophale) SiO2 
 PCOD9366585
Probable space group: A B A 2
;
_chemical_formula_sum "Si O2"
_cell_formula_units_Z 64
_cell_length_a 14.669225
_cell_length_b 11.692813
_cell_length_c 15.678826
_cell_angle_alpha 90.000000
_cell_angle_beta 90.000000
_cell_angle_gamma 90.000000
_cell_volume 2689.302865
_symmetry_space_group_name_H-M "A B A 2"
_symmetry_group_IT_number 41
_symmetry_cell_setting 'orthorhombic'
loop_
_space_group_symop_operation_xyz
x,y,z
-x,-y,z
1/2-x,y,1/2+z
1/2+x,-y,1/2+z
x,1/2+y,1/2+z
-x,1/2-y,1/2+z
1/2-x,1/2+y,z
1/2+x,1/2-y,z
loop_
_atom_site_type_symbol
_atom_site_label
_atom_site_fract_x
_atom_site_fract_y
_atom_site_fract_z
Si Si1 0.905892 0.967337 0.085230
Si Si2 0.810684 0.264197 0.673298
Si Si3 0.215377 0.918542 0.960375
Si Si4 0.376395 0.298717 0.404677
Si Si5 0.075503 0.736337 0.913175
Si Si6 0.031474 0.368969 0.237196
Si Si7 0.237435 0.104129 0.346856
Si Si8 0.615234 0.180073 0.703810
O O1 0.879998 0.842481 0.118843
O O2 0.912895 0.062115 0.159744
O O3 0.000000 0.000000 0.035577
O O4 0.818139 0.991972 0.027744
O O5 0.871585 0.153181 0.693526
O O6 0.785282 0.349476 0.753148
O O7 0.709418 0.216783 0.657712
O O8 0.314796 0.868642 0.969973
O O9 0.141115 0.819491 0.964284
O O10 0.223628 0.979368 0.867323
O O11 0.475643 0.290651 0.445287
O O12 0.316531 0.185419 0.385768
O O13 0.381603 0.344601 0.306401
O O14 0.049743 0.810049 0.828976
O O15 0.140440 0.628362 0.893161
O O16 0.000000 0.500000 0.242076
O O17 0.953711 0.287160 0.196570
#
# Coordination Sequence:
#
# PCOD9366585 Si02
#       8
#     8   8   8   8   8   8   8   8
#     4  12  26  43  62  96 139 185 216 272 349 409
#     4  10  22  41  67  97 134 170 223 283 331 399
#     4  11  24  39  62  92 130 177 218 261 336 413
#     4   9  20  40  64  96 124 165 223 275 327 386
#     4   9  21  37  63  95 126 163 214 284 328 386
#     4  10  21  37  67 102 130 164 224 284 338 397
#     4   9  20  38  64  97 124 161 216 276 327 385
#     4  10  22  42  67  95 130 172 223 285 337 396
#
# _framework density 23.797989999999999
#
# number of rings (size 3 to 8) (size 9 to 14) (size 15 to 20)
#    0.000    2.000    1.250    1.500    8.750    2.500 
#    0.000    0.000    0.000    0.000    0.000    0.000 
#    0.000    0.000    0.000    0.000    0.000    0.000 
#
# Total GULP energy -178421.061382 kJ/mol
# GULP energy per Si atom -5575.658168 kJ/mol
# Density = 2.374382 g / cm^3
# Si number density = 23.797990 Si / 1000 Ang^3
#
#
#
# Elastic Constant Matrix: (Units=GPa)
#
#
# Indices 1 2 3 4 5 6 
#
# 1 165.8583 19.6634 22.2844 0.0000 0.0000 0.0000
# 2 19.6634 41.8069 18.6814 0.0000 0.0000 0.0000
# 3 22.2844 18.6814 30.8997 0.0000 0.0000 0.0000
# 4 0.0000 0.0000 0.0000 19.6057 0.0000 0.0000
# 5 0.0000 0.0000 0.0000 0.0000 21.3014 0.0000
# 6 0.0000 0.0000 0.0000 0.0000 0.0000 36.7648
#
#
#
# Elastic Compliance Matrix: (Units=1/GPa)
#
#
# Indices 1 2 3 4 5 6 
#
# 1 0.006733 -0.001366 -0.004030 0.000000 0.000000 0.000000
# 2 -0.001366 0.033051 -0.018997 0.000000 0.000000 0.000000
# 3 -0.004030 -0.018997 0.046754 0.000000 0.000000 0.000000
# 4 0.000000 0.000000 0.000000 0.051005 0.000000 0.000000
# 5 0.000000 0.000000 0.000000 0.000000 0.046945 0.000000
# 6 0.000000 0.000000 0.000000 0.000000 0.000000 0.027200
#
#
# Mechanical properties :
#
#
# Convention : Reuss Voigt Hill
#
# Bulk Modulus (GPa) = 26.48824 39.98037 33.23431
# Shear Modulus (GPa) = 18.31124 27.39676 22.85400
#
# Velocity S-wave (km/s) = 2.77690 3.39665 3.10229
# Velocity P-wave (km/s) = 4.62992 5.67621 5.17955
#
# Compressibility (1/GPa) = 0.03775260
#
# Stress axis : x y z
#
# Youngs Moduli (GPa) = 148.53112 30.25665 21.38862
#
# Poissons Ratio (x) = 0.04133 0.08619
# Poissons Ratio (y) = 0.20289 0.40631
# Poissons Ratio (z) = 0.59852 0.57477
#
# Static dielectric constant tensor:
#      x y z
#    x 1.974620 0.000000 0.000000 
#    y 0.000000 1.915400 0.000000 
#    z 0.000000 0.000000 1.985610 
# 
# From -- ./inp_files/10415.got.cif
#   From: 2010.05.17/outbox.cif.g08.bks.cpg/sg41_6_cif.got.tgz:10415.got - 2010.06.03 18:54:24.
