data_PCOD9366488
_publ_section_title
;
Structure prediction by ZEFSAII (Michael W. Deem and Ramdas Pophale) SiO2 
 PCOD9366488
Probable space group: A B A 2
;
_chemical_formula_sum "Si O2"
_cell_formula_units_Z 48
_cell_length_a 7.363664
_cell_length_b 26.865803
_cell_length_c 9.011040
_cell_angle_alpha 90.000000
_cell_angle_beta 90.000000
_cell_angle_gamma 90.000000
_cell_volume 1782.660769
_symmetry_space_group_name_H-M "A B A 2"
_symmetry_group_IT_number 41
_symmetry_cell_setting 'orthorhombic'
loop_
_space_group_symop_operation_xyz
x,y,z
-x,-y,z
1/2-x,y,1/2+z
1/2+x,-y,1/2+z
x,1/2+y,1/2+z
-x,1/2-y,1/2+z
1/2-x,1/2+y,z
1/2+x,1/2-y,z
loop_
_atom_site_type_symbol
_atom_site_label
_atom_site_fract_x
_atom_site_fract_y
_atom_site_fract_z
Si Si1 0.000000 0.000000 0.248340
Si Si2 0.500000 0.000000 0.261443
Si Si3 0.353372 0.925520 0.509214
Si Si4 0.436350 0.173817 0.949696
Si Si5 0.918731 0.435978 0.995457
Si Si6 0.360590 0.724832 0.754225
Si Si7 0.143465 0.310807 0.504941
O O1 0.132131 0.026618 0.365458
O O2 0.920460 0.043310 0.149059
O O3 0.573178 0.044529 0.366860
O O4 0.379429 0.032750 0.142867
O O5 0.135718 0.926348 0.503846
O O6 0.411996 0.868165 0.530311
O O7 0.405539 0.187854 0.120471
O O8 0.325161 0.205751 0.830121
O O9 0.355973 0.118155 0.947028
O O10 0.653423 0.183818 0.935459
O O11 0.344929 0.775284 0.650739
O O12 0.500947 0.712848 0.889029
#
# Coordination Sequence:
#
# PCOD9366488 Si02
#       7
#     4   4   8   8   8   8   8
#     4  10  22  40  72 114 154 212 278 324 414 516
#     4  10  20  42  76 114 156 208 276 328 416 514
#     4  10  22  47  76 111 155 226 267 337 434 493
#     4  11  30  56  85 123 171 224 287 362 438 517
#     4  10  22  47  72 113 159 214 272 340 423 496
#     4  12  31  53  86 132 157 232 294 350 443 515
#     4  11  30  56  89 118 181 223 288 366 435 523
#
# _framework density 26.926043
#
# number of rings (size 3 to 8) (size 9 to 14) (size 15 to 20)
#    0.000    1.333    0.000    2.000    4.667    9.333 
#   30.000    0.000    0.000    0.000    0.000    0.000 
#    0.000    0.000    0.000    0.000    0.000    0.000 
#
# Total GULP energy -134259.548570 kJ/mol
# GULP energy per Si atom -5594.147857 kJ/mol
# Density = 2.686476 g / cm^3
# Si number density = 26.926043 Si / 1000 Ang^3
#
#
#
# Elastic Constant Matrix: (Units=GPa)
#
#
# Indices 1 2 3 4 5 6 
#
# 1 90.5169 24.0574 21.2757 0.0000 0.0000 0.0000
# 2 24.0574 270.9608 75.3455 0.0000 0.0000 0.0000
# 3 21.2757 75.3455 198.6921 0.0000 0.0000 0.0000
# 4 0.0000 0.0000 0.0000 -11.0368 0.0000 0.0000
# 5 0.0000 0.0000 0.0000 0.0000 42.9687 0.0000
# 6 0.0000 0.0000 0.0000 0.0000 0.0000 31.6543
#
#
#
# Elastic Compliance Matrix: (Units=1/GPa)
#
#
# Indices 1 2 3 4 5 6 
#
# 1 0.011470 -0.000757 -0.000941 0.000000 0.000000 0.000000
# 2 -0.000757 0.004176 -0.001502 0.000000 0.000000 0.000000
# 3 -0.000941 -0.001502 0.005703 0.000000 0.000000 0.000000
# 4 0.000000 0.000000 0.000000 -0.090606 0.000000 0.000000
# 5 0.000000 0.000000 0.000000 0.000000 0.023273 0.000000
# 6 0.000000 0.000000 0.000000 0.000000 0.000000 0.031591
#
#
# Mechanical properties :
#
#
# Convention : Reuss Voigt Hill
#
# Bulk Modulus (GPa) = 66.89686 89.05854 77.97770
# Shear Modulus (GPa) = -1661.47627 42.01664 -809.72981
#
# Velocity S-wave (km/s) = -24.86748 3.95453 -17.36020
# Velocity P-wave (km/s) = 28.27761 7.34834 19.30835
#
# Compressibility (1/GPa) = 0.01494838
#
# Stress axis : x y z
#
# Youngs Moduli (GPa) = 87.18390 239.49190 175.33366
#
# Poissons Ratio (x) = 0.18121 0.16504
# Poissons Ratio (y) = 0.06597 0.26341
# Poissons Ratio (z) = 0.08206 0.35980
#
# Static dielectric constant tensor:
#      x y z
#    x 2.606490 0.000000 0.000000 
#    y 0.000000 2.291360 0.000000 
#    z 0.000000 0.000000 2.020850 
# 
# From -- ./inp_files/2114.got.cif
#   From: 2010.05.17/outbox.cif.g08.bks.cpg/sg41_2_cif.got.tgz:2114.got - 2010.06.03 18:54:24.
