data_PCOD9366921
_publ_section_title
;
Structure prediction by ZEFSAII (Michael W. Deem and Ramdas Pophale) SiO2 
 PCOD9366921
Probable space group: A B A 2
;
_chemical_formula_sum "Si O2"
_cell_formula_units_Z 60
_cell_length_a 9.070988
_cell_length_b 12.214670
_cell_length_c 23.945700
_cell_angle_alpha 90.000000
_cell_angle_beta 90.000000
_cell_angle_gamma 90.000000
_cell_volume 2653.162607
_symmetry_space_group_name_H-M "A B A 2"
_symmetry_group_IT_number 41
_symmetry_cell_setting 'orthorhombic'
loop_
_space_group_symop_operation_xyz
x,y,z
-x,-y,z
1/2-x,y,1/2+z
1/2+x,-y,1/2+z
x,1/2+y,1/2+z
-x,1/2-y,1/2+z
1/2-x,1/2+y,z
1/2+x,1/2-y,z
loop_
_atom_site_type_symbol
_atom_site_label
_atom_site_fract_x
_atom_site_fract_y
_atom_site_fract_z
Si Si1 0.700761 0.801998 0.518440
Si Si2 0.938700 0.718509 0.835109
Si Si3 0.880933 0.083152 0.686257
Si Si4 0.519474 0.766543 0.092847
Si Si5 0.184245 0.826104 0.913053
Si Si6 0.304777 0.714092 0.257399
Si Si7 0.628893 0.931105 0.658270
Si Si8 0.500000 0.500000 0.979799
O O1 0.818474 0.791583 0.569290
O O2 0.578505 0.714746 0.537758
O O3 0.768791 0.762523 0.460087
O O4 0.610478 0.915226 0.510997
O O5 0.825357 0.650526 0.873579
O O6 0.829528 0.796008 0.799759
O O7 0.052385 0.779184 0.875518
O O8 0.048293 0.671873 0.788291
O O9 0.818380 0.160272 0.735517
O O10 0.972179 0.156938 0.643015
O O11 0.756246 0.021808 0.648864
O O12 0.000000 0.000000 0.710827
O O13 0.466602 0.645842 0.115550
O O14 0.113360 0.928022 0.944277
O O15 0.290132 0.649027 0.200624
O O16 0.500000 0.000000 0.687109
#
# Coordination Sequence:
#
# PCOD9366921 Si02
#       8
#     8   8   8   8   8   8   8   4
#     4  12  24  47  73 103 141 184 237 300 360 425
#     4  10  21  44  70  94 145 183 227 299 361 402
#     4  11  23  42  66 103 139 183 233 285 344 419
#     4  11  25  43  71 101 146 185 233 291 356 422
#     4  11  23  47  69 101 141 181 235 305 349 426
#     4  10  22  42  65 100 141 183 232 293 342 418
#     4  11  23  41  66 101 144 187 238 287 345 420
#     4  12  26  46  78 100 138 186 240 298 366 428
#
# _framework density 22.614519999999999
#
# number of rings (size 3 to 8) (size 9 to 14) (size 15 to 20)
#    0.000    1.067    2.667    3.200    0.933    6.400 
#   12.000    4.667    0.000    0.000    0.000    0.000 
#    0.000    0.000    0.000    0.000    0.000    0.000 
#
# Total GULP energy -167241.922957 kJ/mol
# GULP energy per Si atom -5574.730765 kJ/mol
# Density = 2.256305 g / cm^3
# Si number density = 22.614520 Si / 1000 Ang^3
#
#
#
# Elastic Constant Matrix: (Units=GPa)
#
#
# Indices 1 2 3 4 5 6 
#
# 1 156.2390 38.2407 46.6456 0.0000 0.0000 0.0000
# 2 38.2407 75.0477 47.9878 0.0000 0.0000 0.0000
# 3 46.6456 47.9878 108.9976 0.0000 0.0000 0.0000
# 4 0.0000 0.0000 0.0000 -4.2897 0.0000 0.0000
# 5 0.0000 0.0000 0.0000 0.0000 46.6740 0.0000
# 6 0.0000 0.0000 0.0000 0.0000 0.0000 29.8463
#
#
#
# Elastic Compliance Matrix: (Units=1/GPa)
#
#
# Indices 1 2 3 4 5 6 
#
# 1 0.007665 -0.002517 -0.002172 0.000000 0.000000 0.000000
# 2 -0.002517 0.019372 -0.007452 0.000000 0.000000 0.000000
# 3 -0.002172 -0.007452 0.013385 0.000000 0.000000 0.000000
# 4 0.000000 0.000000 0.000000 -0.233119 0.000000 0.000000
# 5 0.000000 0.000000 0.000000 0.000000 0.021425 0.000000
# 6 0.000000 0.000000 0.000000 0.000000 0.000000 0.033505
#
#
# Mechanical properties :
#
#
# Convention : Reuss Voigt Hill
#
# Bulk Modulus (GPa) = 61.95599 67.33695 64.64647
# Shear Modulus (GPa) = -46.25133 28.27348 -8.98893
#
# Velocity S-wave (km/s) = -4.52730 3.53970 -1.99586
# Velocity P-wave (km/s) = 0.35697 6.82251 4.83084
#
# Compressibility (1/GPa) = 0.01614049
#
# Stress axis : x y z
#
# Youngs Moduli (GPa) = 130.46393 51.62029 74.71104
#
# Poissons Ratio (x) = 0.12991 0.16229
# Poissons Ratio (y) = 0.32834 0.55674
# Poissons Ratio (z) = 0.28339 0.38467
#
# Static dielectric constant tensor:
#      x y z
#    x 1.872460 0.000000 0.000000 
#    y 0.000000 1.863350 0.000000 
#    z 0.000000 0.000000 1.877560 
# 
# From -- ./inp_files/12461.got.cif
#   From: 2010.05.17/outbox.cif.g08.bks.cpg/sg41_7_cif.got.tgz:12461.got - 2010.06.03 18:54:24.
