data_PCOD9366754
_publ_section_title
;
Structure prediction by ZEFSAII (Michael W. Deem and Ramdas Pophale) SiO2 
 PCOD9366754
Probable space group: A B A 2
;
_chemical_formula_sum "Si O2"
_cell_formula_units_Z 60
_cell_length_a 11.341716
_cell_length_b 16.833713
_cell_length_c 14.596651
_cell_angle_alpha 90.000000
_cell_angle_beta 90.000000
_cell_angle_gamma 90.000000
_cell_volume 2786.839202
_symmetry_space_group_name_H-M "A B A 2"
_symmetry_group_IT_number 41
_symmetry_cell_setting 'orthorhombic'
loop_
_space_group_symop_operation_xyz
x,y,z
-x,-y,z
1/2-x,y,1/2+z
1/2+x,-y,1/2+z
x,1/2+y,1/2+z
-x,1/2-y,1/2+z
1/2-x,1/2+y,z
1/2+x,1/2-y,z
loop_
_atom_site_type_symbol
_atom_site_label
_atom_site_fract_x
_atom_site_fract_y
_atom_site_fract_z
Si Si1 0.121232 0.873473 0.518840
Si Si2 0.221760 0.738478 0.968266
Si Si3 0.866820 0.382130 0.113780
Si Si4 0.746571 0.035065 0.370199
Si Si5 0.818008 0.858385 0.820692
Si Si6 0.748290 0.046578 0.670340
Si Si7 0.033634 0.376452 0.458825
Si Si8 0.500000 0.500000 0.107139
O O1 0.157159 0.787029 0.483063
O O2 0.147686 0.934423 0.434872
O O3 0.996458 0.881364 0.568440
O O4 0.220238 0.888253 0.596142
O O5 0.231368 0.705329 0.865609
O O6 0.110973 0.797871 0.977249
O O7 0.209981 0.666636 0.040194
O O8 0.852225 0.345019 0.215243
O O9 0.827573 0.472424 0.135260
O O10 0.628997 0.058031 0.424813
O O11 0.744426 0.943524 0.340151
O O12 0.732486 0.077559 0.272327
O O13 0.936572 0.862033 0.881466
O O14 0.615115 0.017584 0.665026
O O15 0.978919 0.420788 0.546378
#
# Coordination Sequence:
#
# PCOD9366754 Si02
#       8
#     8   8   8   8   8   8   8   4
#     4  11  22  44  67  94 131 172 220 278 321 387
#     4  11  24  40  61  95 134 172 218 263 335 394
#     4  11  25  41  66  96 134 174 211 270 332 400
#     4  10  21  40  66  95 123 165 223 274 326 388
#     4  11  22  41  64  94 131 171 219 267 330 397
#     4  11  23  41  65  99 124 168 223 269 334 388
#     4  11  20  40  69  90 124 180 219 269 326 394
#     4  12  20  42  66  92 128 172 216 274 320 388
#
# _framework density 21.529768000000001
#
# number of rings (size 3 to 8) (size 9 to 14) (size 15 to 20)
#    0.000    1.067    4.000    3.600    0.000    5.333 
#    7.200    1.333    0.000    0.000    0.000    0.000 
#    0.000    0.000    0.000    0.000    0.000    0.000 
#
# Total GULP energy -167511.674120 kJ/mol
# GULP energy per Si atom -5583.722471 kJ/mol
# Density = 2.148076 g / cm^3
# Si number density = 21.529768 Si / 1000 Ang^3
#
#
#
# Elastic Constant Matrix: (Units=GPa)
#
#
# Indices 1 2 3 4 5 6 
#
# 1 81.6969 18.2370 20.6252 0.0000 0.0000 0.0000
# 2 18.2370 43.7600 32.3125 0.0000 0.0000 0.0000
# 3 20.6252 32.3125 112.7954 0.0000 0.0000 0.0000
# 4 0.0000 0.0000 0.0000 22.1530 0.0000 0.0000
# 5 0.0000 0.0000 0.0000 0.0000 335.3937 0.0000
# 6 0.0000 0.0000 0.0000 0.0000 0.0000 14.3714
#
#
#
# Elastic Compliance Matrix: (Units=1/GPa)
#
#
# Indices 1 2 3 4 5 6 
#
# 1 0.013602 -0.004860 -0.001095 0.000000 0.000000 0.000000
# 2 -0.004860 0.030719 -0.007911 0.000000 0.000000 0.000000
# 3 -0.001095 -0.007911 0.011332 0.000000 0.000000 0.000000
# 4 0.000000 0.000000 0.000000 0.045141 0.000000 0.000000
# 5 0.000000 0.000000 0.000000 0.000000 0.002982 0.000000
# 6 0.000000 0.000000 0.000000 0.000000 0.000000 0.069583
#
#
# Mechanical properties :
#
#
# Convention : Reuss Voigt Hill
#
# Bulk Modulus (GPa) = 35.81622 42.28909 39.05265
# Shear Modulus (GPa) = 23.76453 85.52212 54.64333
#
# Velocity S-wave (km/s) = 3.32595 6.30943 5.04336
# Velocity P-wave (km/s) = 5.60545 8.53015 7.21750
#
# Compressibility (1/GPa) = 0.02792031
#
# Stress axis : x y z
#
# Youngs Moduli (GPa) = 73.52039 32.55296 88.24403
#
# Poissons Ratio (x) = 0.15821 0.09662
# Poissons Ratio (y) = 0.35731 0.69814
# Poissons Ratio (z) = 0.08050 0.25754
#
# Static dielectric constant tensor:
#      x y z
#    x 1.784770 0.000000 0.000000 
#    y 0.000000 1.824890 0.000000 
#    z 0.000000 0.000000 1.764020 
# 
# From -- ./inp_files/8061.got.cif
#   From: 2010.05.17/outbox.cif.g08.bks.cpg/sg41_5_cif.got.tgz:8061.got - 2010.06.03 18:54:24.
