data_PCOD9366482
_publ_section_title
;
Structure prediction by ZEFSAII (Michael W. Deem and Ramdas Pophale) SiO2 
 PCOD9366482
Probable space group: A B A 2
;
_chemical_formula_sum "Si O2"
_cell_formula_units_Z 64
_cell_length_a 14.752597
_cell_length_b 8.374215
_cell_length_c 21.863703
_cell_angle_alpha 90.000000
_cell_angle_beta 90.000000
_cell_angle_gamma 90.000000
_cell_volume 2701.072895
_symmetry_space_group_name_H-M "A B A 2"
_symmetry_group_IT_number 41
_symmetry_cell_setting 'orthorhombic'
loop_
_space_group_symop_operation_xyz
x,y,z
-x,-y,z
1/2-x,y,1/2+z
1/2+x,-y,1/2+z
x,1/2+y,1/2+z
-x,1/2-y,1/2+z
1/2-x,1/2+y,z
1/2+x,1/2-y,z
loop_
_atom_site_type_symbol
_atom_site_label
_atom_site_fract_x
_atom_site_fract_y
_atom_site_fract_z
Si Si1 0.819603 0.920601 0.804110
Si Si2 0.475858 0.247639 0.269354
Si Si3 0.716470 0.155517 0.531095
Si Si4 0.362545 0.648532 0.088859
Si Si5 0.028378 0.185945 0.536042
Si Si6 0.363323 0.561160 0.226114
Si Si7 0.728021 0.702969 0.891244
Si Si8 0.538330 0.824173 0.899351
O O1 0.907315 0.899247 0.761550
O O2 0.730553 0.927667 0.762106
O O3 0.807073 0.767294 0.848536
O O4 0.817885 0.061756 0.852933
O O5 0.416440 0.403730 0.249460
O O6 0.572121 0.285768 0.238812
O O7 0.500953 0.235818 0.340743
O O8 0.798123 0.199506 0.576226
O O9 0.634983 0.281240 0.544381
O O10 0.750865 0.163954 0.461043
O O11 0.671017 0.983676 0.540629
O O12 0.465190 0.706216 0.078781
O O13 0.349208 0.565510 0.153925
O O14 0.011651 0.240548 0.465676
O O15 0.000000 0.000000 0.541432
O O16 0.647327 0.832857 0.895862
O O17 0.500000 0.000000 0.894810
#
# Coordination Sequence:
#
# PCOD9366482 Si02
#       8
#     8   8   8   8   8   8   8   8
#     4  12  24  43  70 105 138 178 231 288 353 424
#     4  11  23  43  70  96 135 181 225 286 350 412
#     4  11  26  45  68 105 137 183 234 294 350 423
#     4  12  27  46  71  97 142 187 240 281 351 414
#     4  10  24  44  71 104 136 180 228 290 354 416
#     4  11  26  45  68  99 135 191 232 281 346 411
#     4  11  24  42  69 105 141 174 230 289 362 419
#     4  10  20  42  70  99 139 173 223 284 357 415
#
# _framework density 23.694289000000001
#
# number of rings (size 3 to 8) (size 9 to 14) (size 15 to 20)
#    0.000    1.000    3.750    1.875    8.750    1.500 
#    0.000    1.250    0.000    0.000    0.000    0.000 
#    0.000    0.000    0.000    0.000    0.000    0.000 
#
# Total GULP energy -178964.471982 kJ/mol
# GULP energy per Si atom -5592.639749 kJ/mol
# Density = 2.364036 g / cm^3
# Si number density = 23.694289 Si / 1000 Ang^3
#
#
#
# Elastic Constant Matrix: (Units=GPa)
#
#
# Indices 1 2 3 4 5 6 
#
# 1 98.5742 -1.4432 21.1444 0.0000 0.0000 0.0000
# 2 -1.4432 52.3483 1.6042 0.0000 0.0000 0.0000
# 3 21.1444 1.6042 101.0836 0.0000 0.0000 0.0000
# 4 0.0000 0.0000 0.0000 13.0598 0.0000 0.0000
# 5 0.0000 0.0000 0.0000 0.0000 8.6459 0.0000
# 6 0.0000 0.0000 0.0000 0.0000 0.0000 32.6300
#
#
#
# Elastic Compliance Matrix: (Units=1/GPa)
#
#
# Indices 1 2 3 4 5 6 
#
# 1 0.010628 0.000361 -0.002229 0.000000 0.000000 0.000000
# 2 0.000361 0.019124 -0.000379 0.000000 0.000000 0.000000
# 3 -0.002229 -0.000379 0.010365 0.000000 0.000000 0.000000
# 4 0.000000 0.000000 0.000000 0.076571 0.000000 0.000000
# 5 0.000000 0.000000 0.000000 0.000000 0.115661 0.000000
# 6 0.000000 0.000000 0.000000 0.000000 0.000000 0.030647
#
#
# Mechanical properties :
#
#
# Convention : Reuss Voigt Hill
#
# Bulk Modulus (GPa) = 28.07085 32.73522 30.40303
# Shear Modulus (GPa) = 17.89778 26.24719 22.07248
#
# Velocity S-wave (km/s) = 2.75137 3.33189 3.05545
# Velocity P-wave (km/s) = 4.68681 5.35235 5.03060
#
# Compressibility (1/GPa) = 0.03562415
#
# Stress axis : x y z
#
# Youngs Moduli (GPa) = 94.09076 52.28928 96.47804
#
# Poissons Ratio (x) = -0.01889 0.21504
# Poissons Ratio (y) = -0.03400 0.03657
# Poissons Ratio (z) = 0.20972 0.01982
#
# Static dielectric constant tensor:
#      x y z
#    x 1.947810 0.000000 0.000000 
#    y 0.000000 1.967060 0.000000 
#    z 0.000000 0.000000 1.879570 
# 
# From -- ./inp_files/12255.got.cif
#   From: 2010.05.17/outbox.cif.g08.bks.cpg/sg41_7_cif.got.tgz:12255.got - 2010.06.03 18:54:24.
