data_PCOD9366331
_publ_section_title
;
Structure prediction by ZEFSAII (Michael W. Deem and Ramdas Pophale) SiO2 
 PCOD9366331
Probable space group: A B A 2
;
_chemical_formula_sum "Si O2"
_cell_formula_units_Z 52
_cell_length_a 19.196886
_cell_length_b 9.218060
_cell_length_c 12.164149
_cell_angle_alpha 90.000000
_cell_angle_beta 90.000000
_cell_angle_gamma 90.000000
_cell_volume 2152.544050
_symmetry_space_group_name_H-M "A B A 2"
_symmetry_group_IT_number 41
_symmetry_cell_setting 'orthorhombic'
loop_
_space_group_symop_operation_xyz
x,y,z
-x,-y,z
1/2-x,y,1/2+z
1/2+x,-y,1/2+z
x,1/2+y,1/2+z
-x,1/2-y,1/2+z
1/2-x,1/2+y,z
1/2+x,1/2-y,z
loop_
_atom_site_type_symbol
_atom_site_label
_atom_site_fract_x
_atom_site_fract_y
_atom_site_fract_z
Si Si1 0.225644 0.892368 0.972580
Si Si2 0.849205 0.317855 0.448378
Si Si3 0.117212 0.300199 0.335903
Si Si4 0.624918 0.942073 0.691174
Si Si5 0.500000 0.000000 0.260719
Si Si6 0.099605 0.227902 0.719883
Si Si7 0.777701 0.996802 0.706995
O O1 0.196663 0.039787 0.917281
O O2 0.294316 0.811387 0.935674
O O3 0.159231 0.787790 0.949930
O O4 0.126628 0.140217 0.072130
O O5 0.904210 0.281003 0.354093
O O6 0.747991 0.057407 0.591855
O O7 0.086115 0.158455 0.279114
O O8 0.056830 0.418888 0.335096
O O9 0.176748 0.369594 0.254713
O O10 0.701444 0.950547 0.749338
O O11 0.598437 0.106745 0.681431
O O12 0.538131 0.880032 0.185471
O O13 0.171898 0.142474 0.693622
#
# Coordination Sequence:
#
# PCOD9366331 Si02
#       7
#     8   8   8   8   4   8   8
#     4  11  22  36  67 105 137 177 218 292 364 412
#     4  11  23  38  65 110 140 180 222 290 368 425
#     4  11  22  43  66 100 142 188 230 293 345 433
#     4  11  23  39  69 108 139 175 239 296 371 419
#     4  10  24  48  70  88 142 196 248 278 348 428
#     4  11  24  44  69  98 143 190 230 300 345 427
#     4  10  20  39  63 105 142 167 222 289 365 417
#
# _framework density 24.157463
#
# number of rings (size 3 to 8) (size 9 to 14) (size 15 to 20)
#    0.000    1.231    4.615    2.769    8.615    0.615 
#    0.000    1.538    0.000    0.000    0.000    0.000 
#    0.000    0.000    0.000    0.000    0.000    0.000 
#
# Total GULP energy -144959.625803 kJ/mol
# GULP energy per Si atom -5575.370223 kJ/mol
# Density = 2.410248 g / cm^3
# Si number density = 24.157463 Si / 1000 Ang^3
#
#
#
# Elastic Constant Matrix: (Units=GPa)
#
#
# Indices 1 2 3 4 5 6 
#
# 1 69.9661 15.6589 13.9056 0.0000 0.0000 0.0000
# 2 15.6589 121.8179 45.8849 0.0000 0.0000 0.0000
# 3 13.9056 45.8849 76.4084 0.0000 0.0000 0.0000
# 4 0.0000 0.0000 0.0000 33.4920 0.0000 0.0000
# 5 0.0000 0.0000 0.0000 0.0000 6.7324 0.0000
# 6 0.0000 0.0000 0.0000 0.0000 0.0000 41.8660
#
#
#
# Elastic Compliance Matrix: (Units=1/GPa)
#
#
# Indices 1 2 3 4 5 6 
#
# 1 0.014955 -0.001159 -0.002025 0.000000 0.000000 0.000000
# 2 -0.001159 0.010699 -0.006214 0.000000 0.000000 0.000000
# 3 -0.002025 -0.006214 0.017188 0.000000 0.000000 0.000000
# 4 0.000000 0.000000 0.000000 0.029858 0.000000 0.000000
# 5 0.000000 0.000000 0.000000 0.000000 0.148536 0.000000
# 6 0.000000 0.000000 0.000000 0.000000 0.000000 0.023886
#
#
# Mechanical properties :
#
#
# Convention : Reuss Voigt Hill
#
# Bulk Modulus (GPa) = 41.59069 46.56570 44.07819
# Shear Modulus (GPa) = 18.38695 29.26759 23.82727
#
# Velocity S-wave (km/s) = 2.76185 3.48449 3.14400
# Velocity P-wave (km/s) = 5.23682 5.95874 5.60941
#
# Compressibility (1/GPa) = 0.02404385
#
# Stress axis : x y z
#
# Youngs Moduli (GPa) = 66.86882 93.47097 58.18147
#
# Poissons Ratio (x) = 0.10837 0.11784
# Poissons Ratio (y) = 0.07753 0.36152
# Poissons Ratio (z) = 0.13543 0.58080
#
# Static dielectric constant tensor:
#      x y z
#    x 2.061340 0.000000 0.000000 
#    y 0.000000 2.083680 0.000000 
#    z 0.000000 0.000000 2.176930 
# 
# From -- ./inp_files/8987.got.cif
#   From: 2010.05.17/outbox.cif.g08.bks.cpg/sg41_5_cif.got.tgz:8987.got - 2010.06.03 18:54:24.
