data_PCOD9366667
_publ_section_title
;
Structure prediction by ZEFSAII (Michael W. Deem and Ramdas Pophale) SiO2 
 PCOD9366667
Probable space group: A B A 2
;
_chemical_formula_sum "Si O2"
_cell_formula_units_Z 40
_cell_length_a 12.526763
_cell_length_b 12.186488
_cell_length_c 12.971894
_cell_angle_alpha 90.000000
_cell_angle_beta 90.000000
_cell_angle_gamma 90.000000
_cell_volume 1980.253626
_symmetry_space_group_name_H-M "A B A 2"
_symmetry_group_IT_number 41
_symmetry_cell_setting 'orthorhombic'
loop_
_space_group_symop_operation_xyz
x,y,z
-x,-y,z
1/2-x,y,1/2+z
1/2+x,-y,1/2+z
x,1/2+y,1/2+z
-x,1/2-y,1/2+z
1/2-x,1/2+y,z
1/2+x,1/2-y,z
loop_
_atom_site_type_symbol
_atom_site_label
_atom_site_fract_x
_atom_site_fract_y
_atom_site_fract_z
Si Si1 0.371400 0.231572 0.271880
Si Si2 0.272877 0.870192 0.397614
Si Si3 0.936260 0.615475 0.207419
Si Si4 0.712105 0.253386 0.086483
Si Si5 0.388691 0.566037 0.962725
O O1 0.334184 0.339253 0.334711
O O2 0.482385 0.217915 0.213774
O O3 0.281337 0.213908 0.185446
O O4 0.382734 0.136661 0.357731
O O5 0.366330 0.877778 0.312084
O O6 0.282241 0.776907 0.485570
O O7 0.289059 0.983441 0.456453
O O8 0.855001 0.644727 0.116192
O O9 0.000000 0.500000 0.196988
O O10 0.632452 0.349440 0.053920
O O11 0.500000 0.500000 0.972095
#
# Coordination Sequence:
#
# PCOD9366667 Si02
#       5
#     8   8   8   8   8
#     4  10  21  39  62  87 123 157 204 252 308 370
#     4  10  21  39  63  87 123 162 201 250 317 362
#     4  11  21  42  65  88 127 167 200 262 320 363
#     4  10  26  36  64  97 116 160 219 252 301 384
#     4  11  21  42  62  86 126 165 196 256 322 362
#
# _framework density 20.199431000000001
#
# number of rings (size 3 to 8) (size 9 to 14) (size 15 to 20)
#    0.000    1.600    4.000    0.000    5.600    0.000 
#    0.000    0.000    0.000    0.000    0.000    0.000 
#    0.000    0.000    0.000    0.000    0.000    0.000 
#
# Total GULP energy -111337.669331 kJ/mol
# GULP energy per Si atom -5566.883467 kJ/mol
# Density = 2.015346 g / cm^3
# Si number density = 20.199431 Si / 1000 Ang^3
#
#
#
# Elastic Constant Matrix: (Units=GPa)
#
#
# Indices 1 2 3 4 5 6 
#
# 1 66.5192 44.2116 29.1910 0.0000 0.0000 0.0000
# 2 44.2116 82.3756 32.2356 0.0000 0.0000 0.0000
# 3 29.1910 32.2356 85.6021 0.0000 0.0000 0.0000
# 4 0.0000 0.0000 0.0000 23.1585 0.0000 0.0000
# 5 0.0000 0.0000 0.0000 0.0000 22.2944 0.0000
# 6 0.0000 0.0000 0.0000 0.0000 0.0000 40.5514
#
#
#
# Elastic Compliance Matrix: (Units=1/GPa)
#
#
# Indices 1 2 3 4 5 6 
#
# 1 0.024478 -0.011577 -0.003987 0.000000 0.000000 0.000000
# 2 -0.011577 0.019713 -0.003476 0.000000 0.000000 0.000000
# 3 -0.003987 -0.003476 0.014351 0.000000 0.000000 0.000000
# 4 0.000000 0.000000 0.000000 0.043181 0.000000 0.000000
# 5 0.000000 0.000000 0.000000 0.000000 0.044854 0.000000
# 6 0.000000 0.000000 0.000000 0.000000 0.000000 0.024660
#
#
# Mechanical properties :
#
#
# Convention : Reuss Voigt Hill
#
# Bulk Modulus (GPa) = 48.87308 49.53039 49.20173
# Shear Modulus (GPa) = 23.13350 25.79144 24.46247
#
# Velocity S-wave (km/s) = 3.38783 3.57717 3.48379
# Velocity P-wave (km/s) = 6.28896 6.45255 6.37128
#
# Compressibility (1/GPa) = 0.02046116
#
# Stress axis : x y z
#
# Youngs Moduli (GPa) = 40.85355 50.72785 69.68370
#
# Poissons Ratio (x) = 0.58727 0.27786
# Poissons Ratio (y) = 0.47296 0.24219
# Poissons Ratio (z) = 0.16290 0.17631
#
# Static dielectric constant tensor:
#      x y z
#    x 1.751540 0.000000 0.000000 
#    y 0.000000 1.743200 0.000000 
#    z 0.000000 0.000000 1.761040 
# 
# From -- ./inp_files/7732.got.cif
#   From: 2010.05.17/outbox.cif.g08.bks.cpg/sg41_4_cif.got.tgz:7732.got - 2010.06.03 18:54:24.
