data_PCOD9366682
_publ_section_title
;
Structure prediction by ZEFSAII (Michael W. Deem and Ramdas Pophale) SiO2 
 PCOD9366682
Probable space group: A B A 2
;
_chemical_formula_sum "Si O2"
_cell_formula_units_Z 64
_cell_length_a 19.023985
_cell_length_b 14.859799
_cell_length_c 9.348511
_cell_angle_alpha 90.000000
_cell_angle_beta 90.000000
_cell_angle_gamma 90.000000
_cell_volume 2642.754818
_symmetry_space_group_name_H-M "A B A 2"
_symmetry_group_IT_number 41
_symmetry_cell_setting 'orthorhombic'
loop_
_space_group_symop_operation_xyz
x,y,z
-x,-y,z
1/2-x,y,1/2+z
1/2+x,-y,1/2+z
x,1/2+y,1/2+z
-x,1/2-y,1/2+z
1/2-x,1/2+y,z
1/2+x,1/2-y,z
loop_
_atom_site_type_symbol
_atom_site_label
_atom_site_fract_x
_atom_site_fract_y
_atom_site_fract_z
Si Si1 0.696688 0.206565 0.711010
Si Si2 0.905218 0.479732 0.672150
Si Si3 0.610076 0.128203 0.243296
Si Si4 0.329413 0.181377 0.764238
Si Si5 0.382977 0.002367 0.997334
Si Si6 0.413874 0.687035 0.562319
Si Si7 0.752870 0.587480 0.439445
Si Si8 0.525481 0.132006 0.513774
O O1 0.751380 0.284045 0.753604
O O2 0.625959 0.259082 0.683959
O O3 0.696289 0.138590 0.841179
O O4 0.726038 0.150873 0.573225
O O5 0.838633 0.413044 0.682679
O O6 0.911381 0.576100 0.595914
O O7 0.959858 0.416286 0.586763
O O8 0.917785 0.495001 0.840491
O O9 0.625924 0.232706 0.211779
O O10 0.678105 0.086872 0.333838
O O11 0.544169 0.116511 0.348597
O O12 0.601337 0.082836 0.092902
O O13 0.359975 0.178777 0.925782
O O14 0.419472 0.082591 0.088185
O O15 0.295858 0.998089 0.983929
O O16 0.473490 0.759759 0.526715
#
# Coordination Sequence:
#
# PCOD9366682 Si02
#       8
#     8   8   8   8   8   8   8   8
#     4  11  18  37  62  97 135 177 206 264 336 400
#     4  10  23  42  68  92 117 177 234 274 334 394
#     4  10  21  41  65  95 136 175 212 279 343 399
#     4   9  19  38  62  92 128 163 215 266 323 400
#     4  11  23  39  64 103 132 172 224 274 335 418
#     4  10  21  39  63  90 133 168 214 270 325 396
#     4  11  20  36  66  98 138 176 210 265 344 406
#     4  10  21  46  66  85 126 174 226 281 337 392
#
# _framework density 24.217153
#
# number of rings (size 3 to 8) (size 9 to 14) (size 15 to 20)
#    0.000    1.750    6.250    0.750    0.000    3.000 
#    2.250   17.500    0.000    0.000    0.000    0.000 
#    0.000    0.000    0.000    0.000    0.000    0.000 
#
# Total GULP energy -178251.047946 kJ/mol
# GULP energy per Si atom -5570.345248 kJ/mol
# Density = 2.416203 g / cm^3
# Si number density = 24.217153 Si / 1000 Ang^3
#
#
#
# Elastic Constant Matrix: (Units=GPa)
#
#
# Indices 1 2 3 4 5 6 
#
# 1 46.6739 -15.0956 1.9531 0.0000 0.0000 0.0000
# 2 -15.0956 89.5241 -4.1155 0.0000 0.0000 0.0000
# 3 1.9531 -4.1155 67.2008 0.0000 0.0000 0.0000
# 4 0.0000 0.0000 0.0000 18.1623 0.0000 0.0000
# 5 0.0000 0.0000 0.0000 0.0000 28.3163 0.0000
# 6 0.0000 0.0000 0.0000 0.0000 0.0000 24.6833
#
#
#
# Elastic Compliance Matrix: (Units=1/GPa)
#
#
# Indices 1 2 3 4 5 6 
#
# 1 0.022673 0.003804 -0.000426 0.000000 0.000000 0.000000
# 2 0.003804 0.011840 0.000615 0.000000 0.000000 0.000000
# 3 -0.000426 0.000615 0.014931 0.000000 0.000000 0.000000
# 4 0.000000 0.000000 0.000000 0.055059 0.000000 0.000000
# 5 0.000000 0.000000 0.000000 0.000000 0.035315 0.000000
# 6 0.000000 0.000000 0.000000 0.000000 0.000000 0.040513
#
#
# Mechanical properties :
#
#
# Convention : Reuss Voigt Hill
#
# Bulk Modulus (GPa) = 17.41311 18.76477 18.08894
# Shear Modulus (GPa) = 26.11103 28.94284 27.52693
#
# Velocity S-wave (km/s) = 3.28716 3.46083 3.37511
# Velocity P-wave (km/s) = 4.64901 4.87187 4.76174
#
# Compressibility (1/GPa) = 0.05742800
#
# Stress axis : x y z
#
# Youngs Moduli (GPa) = 44.10485 84.46096 66.97565
#
# Poissons Ratio (x) = -0.32125 0.02853
# Poissons Ratio (y) = -0.16776 -0.04116
# Poissons Ratio (z) = 0.01879 -0.05190
#
# Static dielectric constant tensor:
#      x y z
#    x 2.059710 0.000000 0.000000 
#    y 0.000000 2.016630 0.000000 
#    z 0.000000 0.000000 1.909490 
# 
# From -- ./inp_files/3703.got.cif
#   From: 2010.05.17/outbox.cif.g08.bks.cpg/sg41_2_cif.got.tgz:3703.got - 2010.06.03 18:54:24.
