data_PCOD9366581
_publ_section_title
;
Structure prediction by ZEFSAII (Michael W. Deem and Ramdas Pophale) SiO2 
 PCOD9366581
Probable space group: A B A 2
;
_chemical_formula_sum "Si O2"
_cell_formula_units_Z 64
_cell_length_a 12.973689
_cell_length_b 17.418473
_cell_length_c 14.274178
_cell_angle_alpha 90.000000
_cell_angle_beta 90.000000
_cell_angle_gamma 90.000000
_cell_volume 3225.705174
_symmetry_space_group_name_H-M "A B A 2"
_symmetry_group_IT_number 41
_symmetry_cell_setting 'orthorhombic'
loop_
_space_group_symop_operation_xyz
x,y,z
-x,-y,z
1/2-x,y,1/2+z
1/2+x,-y,1/2+z
x,1/2+y,1/2+z
-x,1/2-y,1/2+z
1/2-x,1/2+y,z
1/2+x,1/2-y,z
loop_
_atom_site_type_symbol
_atom_site_label
_atom_site_fract_x
_atom_site_fract_y
_atom_site_fract_z
Si Si1 0.462395 0.673989 0.362080
Si Si2 0.904300 0.946322 0.988958
Si Si3 0.540458 0.586673 0.544876
Si Si4 0.609493 0.300784 0.646070
Si Si5 0.114393 0.694867 0.355796
Si Si6 0.020466 0.866606 0.158523
Si Si7 0.212611 0.252787 0.469692
Si Si8 0.715678 0.085783 0.553767
O O1 0.517965 0.626905 0.444772
O O2 0.507478 0.759976 0.348160
O O3 0.478257 0.630109 0.264183
O O4 0.350923 0.696454 0.401256
O O5 0.942920 0.903036 0.083189
O O6 0.809995 0.003388 0.009142
O O7 0.887063 0.885380 0.907921
O O8 0.000000 0.000000 0.961824
O O9 0.500000 0.500000 0.540212
O O10 0.466736 0.631305 0.617586
O O11 0.661961 0.592107 0.571115
O O12 0.653206 0.309631 0.749792
O O13 0.541377 0.223116 0.638586
O O14 0.699535 0.287277 0.570579
O O15 0.177092 0.750699 0.423788
O O16 0.133762 0.904874 0.139833
O O17 0.184139 0.341979 0.486695
#
# Coordination Sequence:
#
# PCOD9366581 Si02
#       8
#     8   8   8   8   8   8   8   8
#     4  10  21  41  63  96 121 164 210 259 313 366
#     4  10  21  37  65  91 126 163 206 264 309 372
#     4  11  23  40  60  85 136 170 199 263 312 374
#     4   9  22  41  60  93 121 162 213 256 314 360
#     4  11  21  40  67  89 121 164 211 256 312 378
#     4   9  20  41  65  92 122 158 215 260 305 378
#     4  10  21  40  66  87 126 158 209 263 308 382
#     4  10  21  40  63  92 125 172 204 251 330 371
#
# _framework density 19.840623999999998
#
# number of rings (size 3 to 8) (size 9 to 14) (size 15 to 20)
#    0.000    2.000    1.250    3.000    3.500    3.000 
#   11.250    1.250    0.000    0.000    0.000    0.000 
#    0.000    0.000    0.000    0.000    0.000    0.000 
#
# Total GULP energy -178321.228681 kJ/mol
# GULP energy per Si atom -5572.538396 kJ/mol
# Density = 1.979547 g / cm^3
# Si number density = 19.840624 Si / 1000 Ang^3
#
#
#
# Elastic Constant Matrix: (Units=GPa)
#
#
# Indices 1 2 3 4 5 6 
#
# 1 42.5430 20.8764 22.8440 0.0000 0.0000 0.0000
# 2 20.8764 111.8625 51.4242 0.0000 0.0000 0.0000
# 3 22.8440 51.4242 98.1752 0.0000 0.0000 0.0000
# 4 0.0000 0.0000 0.0000 9.8355 0.0000 0.0000
# 5 0.0000 0.0000 0.0000 0.0000 10.9215 0.0000
# 6 0.0000 0.0000 0.0000 0.0000 0.0000 20.8118
#
#
#
# Elastic Compliance Matrix: (Units=1/GPa)
#
#
# Indices 1 2 3 4 5 6 
#
# 1 0.027554 -0.002891 -0.004897 0.000000 0.000000 0.000000
# 2 -0.002891 0.012078 -0.005654 0.000000 0.000000 0.000000
# 3 -0.004897 -0.005654 0.014287 0.000000 0.000000 0.000000
# 4 0.000000 0.000000 0.000000 0.101672 0.000000 0.000000
# 5 0.000000 0.000000 0.000000 0.000000 0.091562 0.000000
# 6 0.000000 0.000000 0.000000 0.000000 0.000000 0.048050
#
#
# Mechanical properties :
#
#
# Convention : Reuss Voigt Hill
#
# Bulk Modulus (GPa) = 36.98913 49.20777 43.09845
# Shear Modulus (GPa) = 15.10123 18.80951 16.95537
#
# Velocity S-wave (km/s) = 2.76185 3.08235 2.92649
# Velocity P-wave (km/s) = 5.37159 6.12562 5.76095
#
# Compressibility (1/GPa) = 0.02703497
#
# Stress axis : x y z
#
# Youngs Moduli (GPa) = 36.29260 82.79360 69.99441
#
# Poissons Ratio (x) = 0.23936 0.34277
# Poissons Ratio (y) = 0.10492 0.39574
# Poissons Ratio (z) = 0.17773 0.46811
#
# Static dielectric constant tensor:
#      x y z
#    x 1.754530 0.000000 0.000000 
#    y 0.000000 1.699620 0.000000 
#    z 0.000000 0.000000 1.710690 
# 
# From -- ./inp_files/8084.got.cif
#   From: 2010.05.17/outbox.cif.g08.bks.cpg/sg41_5_cif.got.tgz:8084.got - 2010.06.03 18:54:24.
