data_PCOD9366486
_publ_section_title
;
Structure prediction by ZEFSAII (Michael W. Deem and Ramdas Pophale) SiO2 
 PCOD9366486
Probable space group: A B A 2
;
_chemical_formula_sum "Si O2"
_cell_formula_units_Z 48
_cell_length_a 8.934827
_cell_length_b 14.845615
_cell_length_c 13.090786
_cell_angle_alpha 90.000000
_cell_angle_beta 90.000000
_cell_angle_gamma 90.000000
_cell_volume 1736.401150
_symmetry_space_group_name_H-M "A B A 2"
_symmetry_group_IT_number 41
_symmetry_cell_setting 'orthorhombic'
loop_
_space_group_symop_operation_xyz
x,y,z
-x,-y,z
1/2-x,y,1/2+z
1/2+x,-y,1/2+z
x,1/2+y,1/2+z
-x,1/2-y,1/2+z
1/2-x,1/2+y,z
1/2+x,1/2-y,z
loop_
_atom_site_type_symbol
_atom_site_label
_atom_site_fract_x
_atom_site_fract_y
_atom_site_fract_z
Si Si1 0.748366 0.795639 0.779380
Si Si2 0.663219 0.604943 0.279973
Si Si3 0.050235 0.843711 0.060919
Si Si4 0.951562 0.646194 0.183515
Si Si5 0.182172 0.451741 0.993765
Si Si6 0.292808 0.656111 0.500191
O O1 0.834418 0.707523 0.820717
O O2 0.625461 0.744839 0.707805
O O3 0.879107 0.853113 0.725306
O O4 0.677977 0.839794 0.878469
O O5 0.571124 0.611151 0.174203
O O6 0.835258 0.584610 0.247454
O O7 0.627599 0.548872 0.378212
O O8 0.127103 0.744047 0.051036
O O9 0.885019 0.836394 0.018334
O O10 0.151775 0.910047 0.993441
O O11 0.908845 0.614109 0.069600
O O12 0.180094 0.552996 0.033850
#
# Coordination Sequence:
#
# PCOD9366486 Si02
#       6
#     8   8   8   8   8   8
#     4  10  20  42  74 107 145 209 246 318 386 472
#     4   9  22  41  72 105 149 189 258 319 378 471
#     4  11  25  47  74 112 157 207 268 322 408 482
#     4   9  22  42  71 109 151 193 267 311 390 469
#     4  11  23  48  74 116 151 204 271 339 381 484
#     4  12  25  48  83 108 157 215 262 329 408 465
#
# _framework density 27.643381000000002
#
# number of rings (size 3 to 8) (size 9 to 14) (size 15 to 20)
#    1.000    0.667    1.667    2.500    4.667    0.000 
#    9.000    5.833    0.000    0.000    0.000    0.000 
#    0.000    0.000    0.000    0.000    0.000    0.000 
#
# Total GULP energy -134175.569386 kJ/mol
# GULP energy per Si atom -5590.648724 kJ/mol
# Density = 2.758046 g / cm^3
# Si number density = 27.643381 Si / 1000 Ang^3
#
#
#
# Elastic Constant Matrix: (Units=GPa)
#
#
# Indices 1 2 3 4 5 6 
#
# 1 153.7474 52.0127 36.4021 0.0000 0.0000 0.0000
# 2 52.0127 132.7766 37.5463 0.0000 0.0000 0.0000
# 3 36.4021 37.5463 185.6023 0.0000 0.0000 0.0000
# 4 0.0000 0.0000 0.0000 -2.3445 0.0000 0.0000
# 5 0.0000 0.0000 0.0000 0.0000 1.9206 0.0000
# 6 0.0000 0.0000 0.0000 0.0000 0.0000 41.4458
#
#
#
# Elastic Compliance Matrix: (Units=1/GPa)
#
#
# Indices 1 2 3 4 5 6 
#
# 1 0.007652 -0.002729 -0.000949 0.000000 0.000000 0.000000
# 2 -0.002729 0.008962 -0.001278 0.000000 0.000000 0.000000
# 3 -0.000949 -0.001278 0.005832 0.000000 0.000000 0.000000
# 4 0.000000 0.000000 0.000000 -0.426527 0.000000 0.000000
# 5 0.000000 0.000000 0.000000 0.000000 0.520662 0.000000
# 6 0.000000 0.000000 0.000000 0.000000 0.000000 0.024128
#
#
# Mechanical properties :
#
#
# Convention : Reuss Voigt Hill
#
# Bulk Modulus (GPa) = 79.77574 80.44980 80.11277
# Shear Modulus (GPa) = 32.30006 31.28206 31.79106
#
# Velocity S-wave (km/s) = 3.42198 3.36762 3.39491
# Velocity P-wave (km/s) = 6.67344 6.65485 6.66415
#
# Compressibility (1/GPa) = 0.01253514
#
# Stress axis : x y z
#
# Youngs Moduli (GPa) = 130.68289 111.58361 171.45634
#
# Poissons Ratio (x) = 0.30455 0.16266
# Poissons Ratio (y) = 0.35667 0.21906
# Poissons Ratio (z) = 0.12398 0.14256
#
# Static dielectric constant tensor:
#      x y z
#    x 2.331820 0.000000 0.000000 
#    y 0.000000 2.113460 0.000000 
#    z 0.000000 0.000000 2.214920 
# 
# From -- ./inp_files/4971.got.cif
#   From: 2010.05.17/outbox.cif.g08.bks.cpg/sg41_3_cif.got.tgz:4971.got - 2010.06.03 18:54:24.
