data_PCOD9366251
_publ_section_title
;
Structure prediction by ZEFSAII (Michael W. Deem and Ramdas Pophale) SiO2 
 PCOD9366251
Probable space group: A B A 2
;
_chemical_formula_sum "Si O2"
_cell_formula_units_Z 48
_cell_length_a 7.953802
_cell_length_b 17.898887
_cell_length_c 14.869648
_cell_angle_alpha 90.000000
_cell_angle_beta 90.000000
_cell_angle_gamma 90.000000
_cell_volume 2116.905590
_symmetry_space_group_name_H-M "A B A 2"
_symmetry_group_IT_number 41
_symmetry_cell_setting 'orthorhombic'
loop_
_space_group_symop_operation_xyz
x,y,z
-x,-y,z
1/2-x,y,1/2+z
1/2+x,-y,1/2+z
x,1/2+y,1/2+z
-x,1/2-y,1/2+z
1/2-x,1/2+y,z
1/2+x,1/2-y,z
loop_
_atom_site_type_symbol
_atom_site_label
_atom_site_fract_x
_atom_site_fract_y
_atom_site_fract_z
Si Si1 0.156037 0.137128 0.003450
Si Si2 0.048804 0.244560 0.249848
Si Si3 0.235246 0.040464 0.841385
Si Si4 0.658730 0.862268 0.180341
Si Si5 0.894082 0.114827 0.344082
Si Si6 0.335465 0.789330 0.447366
O O1 0.253800 0.108643 0.090779
O O2 0.144773 0.072154 0.929555
O O3 0.269635 0.207669 0.972257
O O4 0.970547 0.172966 0.013311
O O5 0.004560 0.309760 0.179765
O O6 0.912339 0.178337 0.267851
O O7 0.208971 0.197891 0.219970
O O8 0.075567 0.281051 0.348893
O O9 0.146254 0.073681 0.754057
O O10 0.421630 0.078164 0.850120
O O11 0.265773 0.952950 0.830863
O O12 0.826166 0.158321 0.431379
#
# Coordination Sequence:
#
# PCOD9366251 Si02
#       6
#     8   8   8   8   8   8
#     4  12  22  37  62  89 121 153 199 249 298 350
#     4  11  18  38  61  85 114 153 203 241 289 346
#     4  10  21  41  60  83 126 160 189 238 301 364
#     4  11  22  37  60  88 119 155 195 246 293 349
#     4  10  20  37  67  82 116 165 191 236 308 345
#     4  12  19  38  63  89 114 155 206 246 291 347
#
# _framework density 22.674607000000002
#
# number of rings (size 3 to 8) (size 9 to 14) (size 15 to 20)
#    0.000    1.000    8.333    1.000    0.000    0.667 
#    0.000    8.333    7.333    0.000    0.000    0.000 
#    0.000    0.000    0.000    0.000    0.000    0.000 
#
# Total GULP energy -134024.133447 kJ/mol
# GULP energy per Si atom -5584.338894 kJ/mol
# Density = 2.262300 g / cm^3
# Si number density = 22.674607 Si / 1000 Ang^3
#
#
#
# Elastic Constant Matrix: (Units=GPa)
#
#
# Indices 1 2 3 4 5 6 
#
# 1 49.9132 10.5134 -14.4513 0.0000 0.0000 0.0000
# 2 10.5134 83.2897 1.2719 0.0000 0.0000 0.0000
# 3 -14.4513 1.2719 57.7173 0.0000 0.0000 0.0000
# 4 0.0000 0.0000 0.0000 1.7185 0.0000 0.0000
# 5 0.0000 0.0000 0.0000 0.0000 16.9155 0.0000
# 6 0.0000 0.0000 0.0000 0.0000 0.0000 24.6026
#
#
#
# Elastic Compliance Matrix: (Units=1/GPa)
#
#
# Indices 1 2 3 4 5 6 
#
# 1 0.022279 -0.002898 0.005642 0.000000 0.000000 0.000000
# 2 -0.002898 0.012387 -0.000999 0.000000 0.000000 0.000000
# 3 0.005642 -0.000999 0.018760 0.000000 0.000000 0.000000
# 4 0.000000 0.000000 0.000000 0.581915 0.000000 0.000000
# 5 0.000000 0.000000 0.000000 0.000000 0.059117 0.000000
# 6 0.000000 0.000000 0.000000 0.000000 0.000000 0.040646
#
#
# Mechanical properties :
#
#
# Convention : Reuss Voigt Hill
#
# Bulk Modulus (GPa) = 17.56951 20.62091 19.09521
# Shear Modulus (GPa) = 6.66145 21.55305 14.10725
#
# Velocity S-wave (km/s) = 1.71587 3.08642 2.49702
# Velocity P-wave (km/s) = 3.41921 4.67069 4.09306
#
# Compressibility (1/GPa) = 0.05691677
#
# Stress axis : x y z
#
# Youngs Moduli (GPa) = 44.88573 80.72727 53.30351
#
# Poissons Ratio (x) = 0.23398 -0.30074
# Poissons Ratio (y) = 0.13009 0.05323
# Poissons Ratio (z) = -0.25325 0.08062
#
# Static dielectric constant tensor:
#      x y z
#    x 1.951710 0.000000 0.000000 
#    y 0.000000 1.815470 0.000000 
#    z 0.000000 0.000000 1.869370 
# 
# From -- ./inp_files/7292.got.cif
#   From: 2010.05.17/outbox.cif.g08.bks.cpg/sg41_4_cif.got.tgz:7292.got - 2010.06.03 18:54:24.
