data_PCOD9366776
_publ_section_title
;
Structure prediction by ZEFSAII (Michael W. Deem and Ramdas Pophale) SiO2 
 PCOD9366776
Probable space group: A B A 2
;
_chemical_formula_sum "Si O2"
_cell_formula_units_Z 40
_cell_length_a 24.722689
_cell_length_b 12.944610
_cell_length_c 5.320535
_cell_angle_alpha 90.000000
_cell_angle_beta 90.000000
_cell_angle_gamma 90.000000
_cell_volume 1702.707231
_symmetry_space_group_name_H-M "A B A 2"
_symmetry_group_IT_number 41
_symmetry_cell_setting 'orthorhombic'
loop_
_space_group_symop_operation_xyz
x,y,z
-x,-y,z
1/2-x,y,1/2+z
1/2+x,-y,1/2+z
x,1/2+y,1/2+z
-x,1/2-y,1/2+z
1/2-x,1/2+y,z
1/2+x,1/2-y,z
loop_
_atom_site_type_symbol
_atom_site_label
_atom_site_fract_x
_atom_site_fract_y
_atom_site_fract_z
Si Si1 0.595198 0.878422 0.022690
Si Si2 0.165501 0.441091 0.996632
Si Si3 0.235530 0.322033 0.675607
Si Si4 0.570446 0.672548 0.784450
Si Si5 0.033097 0.128629 0.037815
O O1 0.572774 0.891446 0.303272
O O2 0.650172 0.940297 0.978025
O O3 0.599382 0.757721 0.958550
O O4 0.553932 0.916763 0.802104
O O5 0.219142 0.413326 0.153509
O O6 0.113740 0.391024 0.130367
O O7 0.179935 0.379297 0.741097
O O8 0.245016 0.261561 0.421266
O O9 0.536332 0.746719 0.594139
O O10 0.527526 0.607821 0.945677
#
# Coordination Sequence:
#
# PCOD9366776 Si02
#       5
#     8   8   8   8   8
#     4  10  22  39  61  90 123 166 208 250 321 381
#     4  10  22  41  69  86 124 173 208 266 330 374
#     4   8  20  39  58  90 121 151 216 278 298 378
#     4  10  21  42  64  87 133 168 195 275 314 375
#     4  10  21  41  56  92 134 152 210 260 303 389
#
# _framework density 23.492001999999999
#
# number of rings (size 3 to 8) (size 9 to 14) (size 15 to 20)
#    2.400    0.000    2.000    0.000    2.800    2.400 
#    0.000    6.000    0.000    0.000    0.000    0.000 
#    0.000    0.000    0.000    0.000    0.000    0.000 
#
# Total GULP energy -111417.341416 kJ/mol
# GULP energy per Si atom -5570.867071 kJ/mol
# Density = 2.343853 g / cm^3
# Si number density = 23.492002 Si / 1000 Ang^3
#
#
#
# Elastic Constant Matrix: (Units=GPa)
#
#
# Indices 1 2 3 4 5 6 
#
# 1 86.0125 18.7787 10.2760 0.0000 0.0000 0.0000
# 2 18.7787 34.8011 11.6027 0.0000 0.0000 0.0000
# 3 10.2760 11.6027 135.1736 0.0000 0.0000 0.0000
# 4 0.0000 0.0000 0.0000 22.6343 0.0000 0.0000
# 5 0.0000 0.0000 0.0000 0.0000 20.8798 0.0000
# 6 0.0000 0.0000 0.0000 0.0000 0.0000 7.0765
#
#
#
# Elastic Compliance Matrix: (Units=1/GPa)
#
#
# Indices 1 2 3 4 5 6 
#
# 1 0.013200 -0.006988 -0.000404 0.000000 0.000000 0.000000
# 2 -0.006988 0.033281 -0.002325 0.000000 0.000000 0.000000
# 3 -0.000404 -0.002325 0.007628 0.000000 0.000000 0.000000
# 4 0.000000 0.000000 0.000000 0.044181 0.000000 0.000000
# 5 0.000000 0.000000 0.000000 0.000000 0.047893 0.000000
# 6 0.000000 0.000000 0.000000 0.000000 0.000000 0.141312
#
#
# Mechanical properties :
#
#
# Convention : Reuss Voigt Hill
#
# Bulk Modulus (GPa) = 28.83959 37.47801 33.15880
# Shear Modulus (GPa) = 15.69917 24.47343 20.08630
#
# Velocity S-wave (km/s) = 2.58791 3.23116 2.92726
# Velocity P-wave (km/s) = 4.60790 5.46888 5.05675
#
# Compressibility (1/GPa) = 0.03467456
#
# Stress axis : x y z
#
# Youngs Moduli (GPa) = 75.75674 30.04730 131.09279
#
# Poissons Ratio (x) = 0.20998 0.05291
# Poissons Ratio (y) = 0.52941 0.30485
# Poissons Ratio (z) = 0.03058 0.06987
#
# Static dielectric constant tensor:
#      x y z
#    x 1.885840 0.000000 0.000000 
#    y 0.000000 1.911170 0.000000 
#    z 0.000000 0.000000 1.995370 
# 
# From -- ./inp_files/921.got.cif
#   From: 2010.05.17/outbox.cif.g08.bks.cpg/sg41_1_cif.got.tgz:921.got - 2010.06.03 18:54:24.
