data_PCOD9366231
_publ_section_title
;
Structure prediction by ZEFSAII (Michael W. Deem and Ramdas Pophale) SiO2 
 PCOD9366231
Probable space group: A B A 2
;
_chemical_formula_sum "Si O2"
_cell_formula_units_Z 60
_cell_length_a 15.404174
_cell_length_b 22.394593
_cell_length_c 8.442435
_cell_angle_alpha 90.000000
_cell_angle_beta 90.000000
_cell_angle_gamma 90.000000
_cell_volume 2912.388551
_symmetry_space_group_name_H-M "A B A 2"
_symmetry_group_IT_number 41
_symmetry_cell_setting 'orthorhombic'
loop_
_space_group_symop_operation_xyz
x,y,z
-x,-y,z
1/2-x,y,1/2+z
1/2+x,-y,1/2+z
x,1/2+y,1/2+z
-x,1/2-y,1/2+z
1/2-x,1/2+y,z
1/2+x,1/2-y,z
loop_
_atom_site_type_symbol
_atom_site_label
_atom_site_fract_x
_atom_site_fract_y
_atom_site_fract_z
Si Si1 0.480978 0.606640 0.255300
Si Si2 0.683429 0.530698 0.003675
Si Si3 0.262405 0.385333 0.737821
Si Si4 0.171364 0.565909 0.946479
Si Si5 0.000000 0.500000 0.534348
Si Si6 0.369031 0.830488 0.952432
Si Si7 0.205032 0.646479 0.231904
Si Si8 0.636586 0.302330 0.051338
O O1 0.418989 0.562253 0.356389
O O2 0.517760 0.561580 0.125667
O O3 0.548826 0.637866 0.372129
O O4 0.427512 0.657854 0.159560
O O5 0.684000 0.583255 0.875688
O O6 0.770850 0.490878 0.989724
O O7 0.697551 0.563810 0.170991
O O8 0.597820 0.491314 0.967332
O O9 0.324924 0.366410 0.596220
O O10 0.205228 0.332399 0.814742
O O11 0.230758 0.601707 0.822422
O O12 0.157326 0.607827 0.098903
O O13 0.389830 0.765879 0.023943
O O14 0.147261 0.672822 0.372321
O O15 0.268889 0.691923 0.137447
#
# Coordination Sequence:
#
# PCOD9366231 Si02
#       8
#     8   8   8   8   4   8   8   8
#     4  11  25  41  63  97 132 177 215 276 340 387
#     4  11  21  40  65  93 129 175 215 269 336 398
#     4  10  23  42  64  92 126 175 226 261 340 395
#     4  10  20  37  62  93 132 165 215 270 326 401
#     4  12  22  42  64  94 138 164 222 282 324 398
#     4  11  23  45  63  95 131 176 223 279 325 401
#     4   9  18  36  61  96 119 169 219 260 328 388
#     4  10  21  40  66  93 131 172 220 268 332 392
#
# _framework density 20.601647
#
# number of rings (size 3 to 8) (size 9 to 14) (size 15 to 20)
#    0.000    1.600    1.333    4.800    1.867    1.067 
#    9.600    1.333    0.000    0.000    0.000    0.000 
#    0.000    0.000    0.000    0.000    0.000    0.000 
#
# Total GULP energy -167195.751069 kJ/mol
# GULP energy per Si atom -5573.191702 kJ/mol
# Density = 2.055476 g / cm^3
# Si number density = 20.601647 Si / 1000 Ang^3
#
#
#
# Elastic Constant Matrix: (Units=GPa)
#
#
# Indices 1 2 3 4 5 6 
#
# 1 68.4264 22.6299 14.3517 0.0000 0.0000 0.0000
# 2 22.6299 77.5905 2.1663 0.0000 0.0000 0.0000
# 3 14.3517 2.1663 68.6648 0.0000 0.0000 0.0000
# 4 0.0000 0.0000 0.0000 25.0450 0.0000 0.0000
# 5 0.0000 0.0000 0.0000 0.0000 23.8943 0.0000
# 6 0.0000 0.0000 0.0000 0.0000 0.0000 25.5677
#
#
#
# Elastic Compliance Matrix: (Units=1/GPa)
#
#
# Indices 1 2 3 4 5 6 
#
# 1 0.016926 -0.004842 -0.003385 0.000000 0.000000 0.000000
# 2 -0.004842 0.014285 0.000561 0.000000 0.000000 0.000000
# 3 -0.003385 0.000561 0.015253 0.000000 0.000000 0.000000
# 4 0.000000 0.000000 0.000000 0.039928 0.000000 0.000000
# 5 0.000000 0.000000 0.000000 0.000000 0.041851 0.000000
# 6 0.000000 0.000000 0.000000 0.000000 0.000000 0.039112
#
#
# Mechanical properties :
#
#
# Convention : Reuss Voigt Hill
#
# Bulk Modulus (GPa) = 32.12072 32.55305 32.33689
# Shear Modulus (GPa) = 25.89831 26.60366 26.25099
#
# Velocity S-wave (km/s) = 3.54941 3.59742 3.57349
# Velocity P-wave (km/s) = 5.69411 5.75245 5.72335
#
# Compressibility (1/GPa) = 0.03113255
#
# Stress axis : x y z
#
# Youngs Moduli (GPa) = 59.08243 70.00500 65.55979
#
# Poissons Ratio (x) = 0.33896 0.22191
# Poissons Ratio (y) = 0.28607 -0.03680
# Poissons Ratio (z) = 0.19999 -0.03930
#
# Static dielectric constant tensor:
#      x y z
#    x 1.815040 0.000000 0.000000 
#    y 0.000000 1.744530 0.000000 
#    z 0.000000 0.000000 1.766840 
# 
# From -- ./inp_files/2754.got.cif
#   From: 2010.05.17/outbox.cif.g08.bks.cpg/sg41_2_cif.got.tgz:2754.got - 2010.06.03 18:54:24.
