data_PCOD9366115
_publ_section_title
;
Structure prediction by ZEFSAII (Michael W. Deem and Ramdas Pophale) SiO2 
 PCOD9366115
Probable space group: A B A 2
;
_chemical_formula_sum "Si O2"
_cell_formula_units_Z 56
_cell_length_a 10.188833
_cell_length_b 13.612106
_cell_length_c 16.911863
_cell_angle_alpha 90.000000
_cell_angle_beta 90.000000
_cell_angle_gamma 90.000000
_cell_volume 2345.531221
_symmetry_space_group_name_H-M "A B A 2"
_symmetry_group_IT_number 41
_symmetry_cell_setting 'orthorhombic'
loop_
_space_group_symop_operation_xyz
x,y,z
-x,-y,z
1/2-x,y,1/2+z
1/2+x,-y,1/2+z
x,1/2+y,1/2+z
-x,1/2-y,1/2+z
1/2-x,1/2+y,z
1/2+x,1/2-y,z
loop_
_atom_site_type_symbol
_atom_site_label
_atom_site_fract_x
_atom_site_fract_y
_atom_site_fract_z
Si Si1 0.940278 0.692058 0.476690
Si Si2 0.808447 0.261682 0.388911
Si Si3 0.940278 0.192059 0.620296
Si Si4 0.691552 0.261682 0.708076
Si Si5 0.250000 0.469426 0.048493
Si Si6 0.349394 0.473181 0.211789
Si Si7 0.849394 0.526819 0.885198
O O1 0.827254 0.758404 0.436812
O O2 0.869529 0.597793 0.515164
O O3 0.065020 0.678297 0.419231
O O4 1.000000 0.750000 0.548493
O O5 0.780999 0.286027 0.298493
O O6 0.844270 0.145125 0.393261
O O7 0.827254 0.258404 0.660174
O O8 0.869529 0.097793 0.581823
O O9 0.065019 0.178298 0.677755
O O10 0.655730 0.145125 0.703725
O O11 0.293189 0.519302 0.130645
O O12 0.206810 0.519302 0.966342
O O13 0.500000 0.500000 0.215211
O O14 0.288328 0.496232 0.298493
O O15 0.000000 0.500000 0.881775
#
# Coordination Sequence:
#
# PCOD9366115 Si02
#       7
#     8   8   8   8   8   8   8
#     4  11  17  32  50  77 109 141 175 224 276 327
#     4  10  20  32  52  79 111 145 181 224 276 331
#     4  11  17  32  50  77 109 141 175 224 276 327
#     4  10  20  32  52  79 111 145 181 224 276 331
#     4  10  20  34  56  80 114 142 182 232 286 322
#     4   9  18  34  54  76 104 142 185 223 265 325
#     4   9  18  34  54  76 104 142 185 223 265 325
#
# _framework density 23.87519
#
# number of rings (size 3 to 8) (size 9 to 14) (size 15 to 20)
#    0.000    2.000    5.714    0.857    0.000    1.143 
#    0.000    4.286    0.000    0.857    0.000    0.000 
#    0.000    0.000    0.000    0.000    0.000    0.000 
#
# Total GULP energy -156342.653920 kJ/mol
# GULP energy per Si atom -5583.666211 kJ/mol
# Density = 2.382085 g / cm^3
# Si number density = 23.875190 Si / 1000 Ang^3
#
#
#
# Elastic Constant Matrix: (Units=GPa)
#
#
# Indices 1 2 3 4 5 6 
#
# 1 157.5034 32.7089 80.1062 0.0000 0.0000 0.0000
# 2 32.7089 60.8250 12.8868 0.0000 0.0000 0.0000
# 3 80.1062 12.8868 230.9955 0.0000 0.0000 0.0000
# 4 0.0000 0.0000 0.0000 -5.2728 0.0000 0.0000
# 5 0.0000 0.0000 0.0000 0.0000 43.7602 0.0000
# 6 0.0000 0.0000 0.0000 0.0000 0.0000 27.7029
#
#
#
# Elastic Compliance Matrix: (Units=1/GPa)
#
#
# Indices 1 2 3 4 5 6 
#
# 1 0.008587 -0.004034 -0.002753 0.000000 0.000000 0.000000
# 2 -0.004034 0.018533 0.000365 0.000000 0.000000 0.000000
# 3 -0.002753 0.000365 0.005263 0.000000 0.000000 0.000000
# 4 0.000000 0.000000 0.000000 -0.189651 0.000000 0.000000
# 5 0.000000 0.000000 0.000000 0.000000 0.022852 0.000000
# 6 0.000000 0.000000 0.000000 0.000000 0.000000 0.036097
#
#
# Mechanical properties :
#
#
# Convention : Reuss Voigt Hill
#
# Bulk Modulus (GPa) = 51.17967 77.85864 64.51915
# Shear Modulus (GPa) = -63.32200 34.81283 -14.25458
#
# Velocity S-wave (km/s) = -5.15555 3.82267 -2.44610
# Velocity P-wave (km/s) = 3.73586 7.22255 4.37084
#
# Compressibility (1/GPa) = 0.01953901
#
# Stress axis : x y z
#
# Youngs Moduli (GPa) = 116.45552 53.95843 189.99333
#
# Poissons Ratio (x) = 0.21769 0.52301
# Poissons Ratio (y) = 0.46983 -0.06938
# Poissons Ratio (z) = 0.32058 -0.01970
#
# Static dielectric constant tensor:
#      x y z
#    x 12.561430 0.000000 0.000000 
#    y 0.000000 1.984120 0.000000 
#    z 0.000000 0.000000 1.995690 
# 
# From -- ./inp_files/9795.got.cif
#   From: 2010.05.17/outbox.cif.g08.bks.cpg/sg41_5_cif.got.tgz:9795.got - 2010.06.03 18:54:24.
