data_PCOD9366310
_publ_section_title
;
Structure prediction by ZEFSAII (Michael W. Deem and Ramdas Pophale) SiO2 
 PCOD9366310
Probable space group: A B A 2
;
_chemical_formula_sum "Si O2"
_cell_formula_units_Z 60
_cell_length_a 25.000397
_cell_length_b 7.729611
_cell_length_c 12.335236
_cell_angle_alpha 90.000000
_cell_angle_beta 90.000000
_cell_angle_gamma 90.000000
_cell_volume 2383.702249
_symmetry_space_group_name_H-M "A B A 2"
_symmetry_group_IT_number 41
_symmetry_cell_setting 'orthorhombic'
loop_
_space_group_symop_operation_xyz
x,y,z
-x,-y,z
1/2-x,y,1/2+z
1/2+x,-y,1/2+z
x,1/2+y,1/2+z
-x,1/2-y,1/2+z
1/2-x,1/2+y,z
1/2+x,1/2-y,z
loop_
_atom_site_type_symbol
_atom_site_label
_atom_site_fract_x
_atom_site_fract_y
_atom_site_fract_z
Si Si1 0.423276 0.271915 0.310270
Si Si2 0.692706 0.560269 0.561651
Si Si3 0.778283 0.734102 0.686021
Si Si4 0.000000 0.000000 0.709210
Si Si5 0.782066 0.938280 0.343064
Si Si6 0.664186 0.909154 0.450590
Si Si7 0.420703 0.906536 0.569502
Si Si8 0.026419 0.278626 0.023524
O O1 0.468857 0.133777 0.280881
O O2 0.374410 0.159604 0.355700
O O3 0.415112 0.374502 0.198348
O O4 0.448856 0.362930 0.415954
O O5 0.753234 0.630088 0.585420
O O6 0.689998 0.406093 0.650845
O O7 0.683695 0.454388 0.450621
O O8 0.666033 0.746729 0.536077
O O9 0.801475 0.595836 0.768588
O O10 0.724853 0.787918 0.755844
O O11 0.961758 0.103333 0.627226
O O12 0.721816 0.941961 0.395335
O O13 0.635699 0.071360 0.508679
O O14 0.462679 0.764216 0.524668
O O15 0.447326 0.092492 0.545683
#
# Coordination Sequence:
#
# PCOD9366310 Si02
#       8
#     8   8   8   4   8   8   8   8
#     4  10  21  40  63  93 132 164 200 255 310 369
#     4  11  21  40  61  85 118 157 208 265 303 379
#     4  10  22  38  64  82 108 164 211 246 320 372
#     4  10  20  38  68  92 126 170 210 244 302 368
#     4  11  21  40  61  87 114 161 209 257 313 379
#     4  11  22  38  63  92 131 152 211 266 318 368
#     4   9  20  39  64  94 128 166 199 255 309 366
#     4   9  19  39  66  90 126 169 211 238 297 378
#
# _framework density 25.170926999999999
#
# number of rings (size 3 to 8) (size 9 to 14) (size 15 to 20)
#    0.000    1.867    2.667    1.600    0.000    4.267 
#    9.600    0.000    5.867    0.000    0.000    0.000 
#    0.000    0.000    0.000    0.000    0.000    0.000 
#
# Total GULP energy -167277.135964 kJ/mol
# GULP energy per Si atom -5575.904532 kJ/mol
# Density = 2.511364 g / cm^3
# Si number density = 25.170927 Si / 1000 Ang^3
#
#
#
# Elastic Constant Matrix: (Units=GPa)
#
#
# Indices 1 2 3 4 5 6 
#
# 1 73.8321 9.8187 27.4469 0.0000 0.0000 0.0000
# 2 9.8187 77.2990 27.4658 0.0000 0.0000 0.0000
# 3 27.4469 27.4658 123.4495 0.0000 0.0000 0.0000
# 4 0.0000 0.0000 0.0000 46.0223 0.0000 0.0000
# 5 0.0000 0.0000 0.0000 0.0000 33.1118 0.0000
# 6 0.0000 0.0000 0.0000 0.0000 0.0000 20.3214
#
#
#
# Elastic Compliance Matrix: (Units=1/GPa)
#
#
# Indices 1 2 3 4 5 6 
#
# 1 0.014807 -0.000772 -0.003120 0.000000 0.000000 0.000000
# 2 -0.000772 0.014088 -0.002963 0.000000 0.000000 0.000000
# 3 -0.003120 -0.002963 0.009453 0.000000 0.000000 0.000000
# 4 0.000000 0.000000 0.000000 0.021729 0.000000 0.000000
# 5 0.000000 0.000000 0.000000 0.000000 0.030201 0.000000
# 6 0.000000 0.000000 0.000000 0.000000 0.000000 0.049209
#
#
# Mechanical properties :
#
#
# Convention : Reuss Voigt Hill
#
# Bulk Modulus (GPa) = 40.58809 44.89371 42.74090
# Shear Modulus (GPa) = 30.97722 33.88104 32.42913
#
# Velocity S-wave (km/s) = 3.51190 3.67282 3.59326
# Velocity P-wave (km/s) = 5.71004 5.98836 5.85086
#
# Compressibility (1/GPa) = 0.02463777
#
# Stress axis : x y z
#
# Youngs Moduli (GPa) = 67.53619 70.98476 105.78252
#
# Poissons Ratio (x) = 0.05481 0.33007
# Poissons Ratio (y) = 0.05215 0.31339
# Poissons Ratio (z) = 0.21073 0.21030
#
# Static dielectric constant tensor:
#      x y z
#    x 2.126510 0.000000 0.000000 
#    y 0.000000 2.005710 0.000000 
#    z 0.000000 0.000000 2.028480 
# 
# From -- ./inp_files/6632.got.cif
#   From: 2010.05.17/outbox.cif.g08.bks.cpg/sg41_4_cif.got.tgz:6632.got - 2010.06.03 18:54:24.
