data_PCOD9366589
_publ_section_title
;
Structure prediction by ZEFSAII (Michael W. Deem and Ramdas Pophale) SiO2 
 PCOD9366589
Probable space group: A B A 2
;
_chemical_formula_sum "Si O2"
_cell_formula_units_Z 60
_cell_length_a 25.336344
_cell_length_b 18.561869
_cell_length_c 5.188571
_cell_angle_alpha 90.000000
_cell_angle_beta 90.000000
_cell_angle_gamma 90.000000
_cell_volume 2440.132528
_symmetry_space_group_name_H-M "A B A 2"
_symmetry_group_IT_number 41
_symmetry_cell_setting 'orthorhombic'
loop_
_space_group_symop_operation_xyz
x,y,z
-x,-y,z
1/2-x,y,1/2+z
1/2+x,-y,1/2+z
x,1/2+y,1/2+z
-x,1/2-y,1/2+z
1/2-x,1/2+y,z
1/2+x,1/2-y,z
loop_
_atom_site_type_symbol
_atom_site_label
_atom_site_fract_x
_atom_site_fract_y
_atom_site_fract_z
Si Si1 0.476277 0.775133 0.802730
Si Si2 0.129402 0.195343 0.856054
Si Si3 0.000000 0.000000 0.860295
Si Si4 0.054519 0.607015 0.718460
Si Si5 0.648286 0.655132 0.244452
Si Si6 0.215969 0.984893 0.224263
Si Si7 0.095788 0.908544 0.738740
Si Si8 0.635561 0.944793 0.071798
O O1 0.515239 0.731094 0.609204
O O2 0.421701 0.736181 0.730839
O O3 0.498706 0.852957 0.731219
O O4 0.167052 0.264818 0.829116
O O5 0.154133 0.126738 0.714544
O O6 0.100372 0.160045 0.105704
O O7 0.963927 0.061985 0.733897
O O8 0.043336 0.039999 0.036872
O O9 0.076445 0.576980 0.984896
O O10 0.695403 0.597184 0.241729
O O11 0.609116 0.632491 0.475924
O O12 0.616591 0.638987 0.977850
O O13 0.258920 0.998219 0.448033
O O14 0.167785 0.035358 0.314992
O O15 0.131717 0.981238 0.728408
#
# Coordination Sequence:
#
# PCOD9366589 Si02
#       8
#     8   8   4   8   8   8   8   8
#     4  10  21  38  57  90 137 188 229 267 321 390
#     4  11  24  42  68 101 143 186 234 287 340 407
#     4  12  22  38  62  98 142 192 246 282 316 390
#     4  11  24  40  65 101 148 194 239 288 337 403
#     4  11  26  46  72  99 135 180 229 286 361 431
#     4  11  25  48  77 101 132 174 227 293 373 451
#     4  11  25  43  64 101 141 192 236 281 337 409
#     4  11  24  45  72 101 142 181 240 294 360 415
#
# _framework density 24.588830999999999
#
# number of rings (size 3 to 8) (size 9 to 14) (size 15 to 20)
#    0.000    1.067    2.667    4.000    3.733    7.467 
#    0.000    1.333    0.000    0.000    0.000    0.000 
#    0.000    0.000    0.000    0.000    0.000    0.000 
#
# Total GULP energy -167463.833084 kJ/mol
# GULP energy per Si atom -5582.127769 kJ/mol
# Density = 2.453287 g / cm^3
# Si number density = 24.588831 Si / 1000 Ang^3
#
#
#
# Elastic Constant Matrix: (Units=GPa)
#
#
# Indices 1 2 3 4 5 6 
#
# 1 48.4397 -2.9421 6.2105 0.0000 0.0000 0.0000
# 2 -2.9421 146.3097 32.1958 0.0000 0.0000 0.0000
# 3 6.2105 32.1958 99.6388 0.0000 0.0000 0.0000
# 4 0.0000 0.0000 0.0000 35.3897 0.0000 0.0000
# 5 0.0000 0.0000 0.0000 0.0000 42.4587 0.0000
# 6 0.0000 0.0000 0.0000 0.0000 0.0000 29.5319
#
#
#
# Elastic Compliance Matrix: (Units=1/GPa)
#
#
# Indices 1 2 3 4 5 6 
#
# 1 0.020889 0.000761 -0.001548 0.000000 0.000000 0.000000
# 2 0.000761 0.007386 -0.002434 0.000000 0.000000 0.000000
# 3 -0.001548 -0.002434 0.010919 0.000000 0.000000 0.000000
# 4 0.000000 0.000000 0.000000 0.028257 0.000000 0.000000
# 5 0.000000 0.000000 0.000000 0.000000 0.023552 0.000000
# 6 0.000000 0.000000 0.000000 0.000000 0.000000 0.033862
#
#
# Mechanical properties :
#
#
# Convention : Reuss Voigt Hill
#
# Bulk Modulus (GPa) = 30.53283 40.59073 35.56178
# Shear Modulus (GPa) = 35.15584 38.73766 36.94675
#
# Velocity S-wave (km/s) = 3.78530 3.97346 3.88052
# Velocity P-wave (km/s) = 5.61685 6.13146 5.87979
#
# Compressibility (1/GPa) = 0.03275163
#
# Stress axis : x y z
#
# Youngs Moduli (GPa) = 47.87240 135.39676 91.58193
#
# Poissons Ratio (x) = -0.10299 0.14175
# Poissons Ratio (y) = -0.03641 0.22290
# Poissons Ratio (z) = 0.07410 0.32954
#
# Static dielectric constant tensor:
#      x y z
#    x 2.068790 0.000000 0.000000 
#    y 0.000000 2.109740 0.000000 
#    z 0.000000 0.000000 1.982000 
# 
# From -- ./inp_files/1178.got.cif
#   From: 2010.05.17/outbox.cif.g08.bks.cpg/sg41_1_cif.got.tgz:1178.got - 2010.06.03 18:54:24.
