data_PCOD9366122
_publ_section_title
;
Structure prediction by ZEFSAII (Michael W. Deem and Ramdas Pophale) SiO2 
 PCOD9366122
Probable space group: A B A 2
;
_chemical_formula_sum "Si O2"
_cell_formula_units_Z 60
_cell_length_a 34.597957
_cell_length_b 10.879393
_cell_length_c 8.628381
_cell_angle_alpha 90.000000
_cell_angle_beta 90.000000
_cell_angle_gamma 90.000000
_cell_volume 3247.763776
_symmetry_space_group_name_H-M "A B A 2"
_symmetry_group_IT_number 41
_symmetry_cell_setting 'orthorhombic'
loop_
_space_group_symop_operation_xyz
x,y,z
-x,-y,z
1/2-x,y,1/2+z
1/2+x,-y,1/2+z
x,1/2+y,1/2+z
-x,1/2-y,1/2+z
1/2-x,1/2+y,z
1/2+x,1/2-y,z
loop_
_atom_site_type_symbol
_atom_site_label
_atom_site_fract_x
_atom_site_fract_y
_atom_site_fract_z
Si Si1 0.568428 0.141121 0.643090
Si Si2 0.615638 0.904601 0.642770
Si Si3 0.797348 0.411971 0.734898
Si Si4 0.071871 0.102472 0.822911
Si Si5 0.000000 0.500000 0.508500
Si Si6 0.892750 0.641218 0.307561
Si Si7 0.303247 0.863745 0.324471
Si Si8 0.239760 0.976595 0.529562
O O1 0.571100 0.268703 0.734208
O O2 0.524960 0.093748 0.612168
O O3 0.587266 0.161319 0.473745
O O4 0.591536 0.021604 0.708682
O O5 0.660867 0.935611 0.660849
O O6 0.601957 0.889794 0.465743
O O7 0.606988 0.772093 0.720389
O O8 0.800965 0.281068 0.812910
O O9 0.762287 0.410225 0.611305
O O10 0.785474 0.500578 0.876459
O O11 0.085240 0.977253 0.734098
O O12 0.030624 0.072171 0.901559
O O13 0.848171 0.603431 0.332048
O O14 0.276786 0.901785 0.468254
O O15 0.285251 0.917787 0.165932
#
# Coordination Sequence:
#
# PCOD9366122 Si02
#       8
#     8   8   8   8   4   8   8   8
#     4  10  21  38  60  83 110 144 177 216 268 323
#     4   9  20  37  55  80 113 144 182 227 269 320
#     4  10  20  35  52  75 107 143 183 230 274 321
#     4  10  21  38  60  83 110 144 177 216 268 323
#     4   8  20  38  56  84 116 136 168 220 264 318
#     4   9  20  37  55  80 113 144 182 227 269 320
#     4  10  20  35  52  75 107 143 183 230 274 321
#     4  10  20  33  52  76 104 142 186 228 278 321
#
# _framework density 18.474250000000001
#
# number of rings (size 3 to 8) (size 9 to 14) (size 15 to 20)
#    0.000    2.667    0.000    2.400    0.000    9.600 
#    0.000    6.667    0.000    0.000    0.000    0.000 
#    0.000    0.000    0.000    0.000    0.000    0.000 
#
# Total GULP energy -167020.326878 kJ/mol
# GULP energy per Si atom -5567.344229 kJ/mol
# Density = 1.843220 g / cm^3
# Si number density = 18.474250 Si / 1000 Ang^3
#
#
#
# Elastic Constant Matrix: (Units=GPa)
#
#
# Indices 1 2 3 4 5 6 
#
# 1 58.4165 24.2160 9.9916 0.0000 0.0000 0.0000
# 2 24.2160 118.5272 19.4324 0.0000 0.0000 0.0000
# 3 9.9916 19.4324 47.1578 0.0000 0.0000 0.0000
# 4 0.0000 0.0000 0.0000 33.6210 0.0000 0.0000
# 5 0.0000 0.0000 0.0000 0.0000 16.7454 0.0000
# 6 0.0000 0.0000 0.0000 0.0000 0.0000 13.4168
#
#
#
# Elastic Compliance Matrix: (Units=1/GPa)
#
#
# Indices 1 2 3 4 5 6 
#
# 1 0.018995 -0.003454 -0.002601 0.000000 0.000000 0.000000
# 2 -0.003454 0.009676 -0.003255 0.000000 0.000000 0.000000
# 3 -0.002601 -0.003255 0.023098 0.000000 0.000000 0.000000
# 4 0.000000 0.000000 0.000000 0.029743 0.000000 0.000000
# 5 0.000000 0.000000 0.000000 0.000000 0.059718 0.000000
# 6 0.000000 0.000000 0.000000 0.000000 0.000000 0.074534
#
#
# Mechanical properties :
#
#
# Convention : Reuss Voigt Hill
#
# Bulk Modulus (GPa) = 30.16810 36.82017 33.49414
# Shear Modulus (GPa) = 20.37193 24.12075 22.24634
#
# Velocity S-wave (km/s) = 3.32433 3.61729 3.47390
# Velocity P-wave (km/s) = 5.57675 6.11720 5.85322
#
# Compressibility (1/GPa) = 0.03314760
#
# Stress axis : x y z
#
# Youngs Moduli (GPa) = 52.64447 103.34448 43.29378
#
# Poissons Ratio (x) = 0.35700 0.11262
# Poissons Ratio (y) = 0.18186 0.14094
# Poissons Ratio (z) = 0.13694 0.33643
#
# Static dielectric constant tensor:
#      x y z
#    x 1.643730 0.000000 0.000000 
#    y 0.000000 1.666510 0.000000 
#    z 0.000000 0.000000 1.643260 
# 
# From -- ./inp_files/3957.got.cif
#   From: 2010.05.17/outbox.cif.g08.bks.cpg/sg41_2_cif.got.tgz:3957.got - 2010.06.03 18:54:24.
