data_PCOD9366300
_publ_section_title
;
Structure prediction by ZEFSAII (Michael W. Deem and Ramdas Pophale) SiO2 
 PCOD9366300
Probable space group: A B A 2
;
_chemical_formula_sum "Si O2"
_cell_formula_units_Z 48
_cell_length_a 8.495914
_cell_length_b 18.280761
_cell_length_c 14.786481
_cell_angle_alpha 90.000000
_cell_angle_beta 90.000000
_cell_angle_gamma 90.000000
_cell_volume 2296.514585
_symmetry_space_group_name_H-M "A B A 2"
_symmetry_group_IT_number 41
_symmetry_cell_setting 'orthorhombic'
loop_
_space_group_symop_operation_xyz
x,y,z
-x,-y,z
1/2-x,y,1/2+z
1/2+x,-y,1/2+z
x,1/2+y,1/2+z
-x,1/2-y,1/2+z
1/2-x,1/2+y,z
1/2+x,1/2-y,z
loop_
_atom_site_type_symbol
_atom_site_label
_atom_site_fract_x
_atom_site_fract_y
_atom_site_fract_z
Si Si1 0.515667 0.754039 0.342840
Si Si2 0.252114 0.353884 0.254740
Si Si3 0.092683 0.568454 0.513991
Si Si4 0.675041 0.530285 0.402599
Si Si5 0.770208 0.303650 0.976136
Si Si6 0.767923 0.642487 0.545060
O O1 0.597082 0.697469 0.274865
O O2 0.392914 0.806090 0.292458
O O3 0.432559 0.707141 0.422561
O O4 0.648187 0.802354 0.391968
O O5 0.268567 0.425767 0.315234
O O6 0.244361 0.372180 0.150014
O O7 0.187072 0.526128 0.433731
O O8 0.231855 0.626407 0.538579
O O9 0.000000 0.500000 0.562714
O O10 0.943578 0.622917 0.509554
O O11 0.500000 0.500000 0.388176
O O12 0.664295 0.588828 0.484323
O O13 0.743604 0.228182 0.028919
#
# Coordination Sequence:
#
# PCOD9366300 Si02
#       6
#     8   8   8   8   8   8
#     4  10  20  38  65  96 128 172 222 283 343 386
#     4  11  24  42  66 103 135 173 230 285 342 408
#     4  10  22  39  64  95 134 181 220 276 353 407
#     4  11  23  45  67  96 139 185 226 279 351 424
#     4  11  19  40  67  95 128 179 229 284 337 407
#     4  11  24  42  67 100 136 176 237 290 342 410
#
# _framework density 20.901239
#
# number of rings (size 3 to 8) (size 9 to 14) (size 15 to 20)
#    0.000    1.333    5.000    2.000    2.333    2.000 
#    0.000    4.167    0.000    0.000    0.000    0.000 
#    0.000    0.000    0.000    0.000    0.000    0.000 
#
# Total GULP energy -133625.234304 kJ/mol
# GULP energy per Si atom -5567.718096 kJ/mol
# Density = 2.085367 g / cm^3
# Si number density = 20.901239 Si / 1000 Ang^3
#
#
#
# Elastic Constant Matrix: (Units=GPa)
#
#
# Indices 1 2 3 4 5 6 
#
# 1 82.4409 20.0200 22.9368 0.0000 0.0000 0.0000
# 2 20.0200 127.4241 46.0532 0.0000 0.0000 0.0000
# 3 22.9368 46.0532 110.7784 0.0000 0.0000 0.0000
# 4 0.0000 0.0000 0.0000 -1.9792 0.0000 0.0000
# 5 0.0000 0.0000 0.0000 0.0000 -1.3306 0.0000
# 6 0.0000 0.0000 0.0000 0.0000 0.0000 38.9823
#
#
#
# Elastic Compliance Matrix: (Units=1/GPa)
#
#
# Indices 1 2 3 4 5 6 
#
# 1 0.013042 -0.001263 -0.002175 0.000000 0.000000 0.000000
# 2 -0.001263 0.009358 -0.003629 0.000000 0.000000 0.000000
# 3 -0.002175 -0.003629 0.010986 0.000000 0.000000 0.000000
# 4 0.000000 0.000000 0.000000 -0.505253 0.000000 0.000000
# 5 0.000000 0.000000 0.000000 0.000000 -0.751525 0.000000
# 6 0.000000 0.000000 0.000000 0.000000 0.000000 0.025653
#
#
# Mechanical properties :
#
#
# Convention : Reuss Voigt Hill
#
# Bulk Modulus (GPa) = 51.94356 55.40705 53.67530
# Shear Modulus (GPa) = -4.24741 22.57672 9.16466
#
# Velocity S-wave (km/s) = -1.42708 3.29015 2.09625
# Velocity P-wave (km/s) = 4.71068 6.40312 5.62096
#
# Compressibility (1/GPa) = 0.01925166
#
# Stress axis : x y z
#
# Youngs Moduli (GPa) = 76.67657 106.86381 91.02494
#
# Poissons Ratio (x) = 0.13495 0.19801
# Poissons Ratio (y) = 0.09683 0.33031
# Poissons Ratio (z) = 0.16680 0.38778
#
# Static dielectric constant tensor:
#      x y z
#    x 1.813400 0.000000 0.000000 
#    y 0.000000 1.832550 0.000000 
#    z 0.000000 0.000000 1.710290 
# 
# From -- ./inp_files/7318.got.cif
#   From: 2010.05.17/outbox.cif.g08.bks.cpg/sg41_4_cif.got.tgz:7318.got - 2010.06.03 18:54:24.
