data_PCOD9366185
_publ_section_title
;
Structure prediction by ZEFSAII (Michael W. Deem and Ramdas Pophale) SiO2 
 PCOD9366185
Probable space group: A B A 2
;
_chemical_formula_sum "Si O2"
_cell_formula_units_Z 64
_cell_length_a 22.509989
_cell_length_b 15.112092
_cell_length_c 8.962323
_cell_angle_alpha 90.000000
_cell_angle_beta 90.000000
_cell_angle_gamma 90.000000
_cell_volume 3048.740523
_symmetry_space_group_name_H-M "A B A 2"
_symmetry_group_IT_number 41
_symmetry_cell_setting 'orthorhombic'
loop_
_space_group_symop_operation_xyz
x,y,z
-x,-y,z
1/2-x,y,1/2+z
1/2+x,-y,1/2+z
x,1/2+y,1/2+z
-x,1/2-y,1/2+z
1/2-x,1/2+y,z
1/2+x,1/2-y,z
loop_
_atom_site_type_symbol
_atom_site_label
_atom_site_fract_x
_atom_site_fract_y
_atom_site_fract_z
Si Si1 0.577870 0.126993 0.697530
Si Si2 0.855084 0.940900 0.886158
Si Si3 0.772484 0.535695 0.864216
Si Si4 0.134962 0.248621 0.932370
Si Si5 0.403354 0.882587 0.353339
Si Si6 0.208511 0.350572 0.146953
Si Si7 0.616001 0.939419 0.735973
Si Si8 0.953538 0.773441 0.204661
O O1 0.618277 0.172418 0.822042
O O2 0.604644 0.128602 0.530343
O O3 0.572325 0.023974 0.742548
O O4 0.516662 0.180241 0.688811
O O5 0.857749 0.840037 0.834995
O O6 0.790737 0.985233 0.865979
O O7 0.903197 0.011682 0.825759
O O8 0.868056 0.930291 0.061688
O O9 0.762563 0.620620 0.754098
O O10 0.823651 0.469929 0.812855
O O11 0.789309 0.570309 0.027203
O O12 0.192823 0.267923 0.037777
O O13 0.078760 0.242316 0.045886
O O14 0.346651 0.849519 0.260302
O O15 0.455010 0.819156 0.293274
O O16 0.587439 0.847470 0.786798
#
# Coordination Sequence:
#
# PCOD9366185 Si02
#       8
#     8   8   8   8   8   8   8   8
#     4  11  20  38  64  87 119 163 208 258 315 361
#     4   9  20  39  59  86 124 160 204 247 311 366
#     4  11  19  39  60  88 121 163 194 252 308 367
#     4  10  21  40  61  91 124 159 209 256 302 374
#     4   9  21  40  59  89 123 156 201 258 303 366
#     4  10  21  37  63  87 123 158 196 251 307 373
#     4  10  20  36  60  87 118 162 207 253 302 374
#     4  10  21  39  60  88 120 164 210 258 308 363
#
# _framework density 20.992274999999999
#
# number of rings (size 3 to 8) (size 9 to 14) (size 15 to 20)
#    0.000    2.000    2.500    1.125    0.000    0.000 
#   13.500    1.875    0.000    0.000    0.000    0.000 
#    0.000    0.000    0.000    0.000    0.000    0.000 
#
# Total GULP energy -178238.960727 kJ/mol
# GULP energy per Si atom -5569.967523 kJ/mol
# Density = 2.094450 g / cm^3
# Si number density = 20.992275 Si / 1000 Ang^3
#
#
#
# Elastic Constant Matrix: (Units=GPa)
#
#
# Indices 1 2 3 4 5 6 
#
# 1 47.9116 5.3569 8.3238 0.0000 0.0000 0.0000
# 2 5.3569 84.5030 16.7149 0.0000 0.0000 0.0000
# 3 8.3238 16.7149 51.1504 0.0000 0.0000 0.0000
# 4 0.0000 0.0000 0.0000 24.5304 0.0000 0.0000
# 5 0.0000 0.0000 0.0000 0.0000 16.7997 0.0000
# 6 0.0000 0.0000 0.0000 0.0000 0.0000 24.2972
#
#
#
# Elastic Compliance Matrix: (Units=1/GPa)
#
#
# Indices 1 2 3 4 5 6 
#
# 1 0.021520 -0.000718 -0.003267 0.000000 0.000000 0.000000
# 2 -0.000718 0.012676 -0.004025 0.000000 0.000000 0.000000
# 3 -0.003267 -0.004025 0.021397 0.000000 0.000000 0.000000
# 4 0.000000 0.000000 0.000000 0.040766 0.000000 0.000000
# 5 0.000000 0.000000 0.000000 0.000000 0.059525 0.000000
# 6 0.000000 0.000000 0.000000 0.000000 0.000000 0.041157
#
#
# Mechanical properties :
#
#
# Convention : Reuss Voigt Hill
#
# Bulk Modulus (GPa) = 25.27074 27.15069 26.21072
# Shear Modulus (GPa) = 22.09929 23.33677 22.71803
#
# Velocity S-wave (km/s) = 3.24811 3.33781 3.29326
# Velocity P-wave (km/s) = 5.11187 5.27412 5.19363
#
# Compressibility (1/GPa) = 0.03957146
#
# Stress axis : x y z
#
# Youngs Moduli (GPa) = 46.46909 78.89163 46.73496
#
# Poissons Ratio (x) = 0.05664 0.15270
# Poissons Ratio (y) = 0.03336 0.18812
# Poissons Ratio (z) = 0.15183 0.31756
#
# Static dielectric constant tensor:
#      x y z
#    x 1.782880 0.000000 0.000000 
#    y 0.000000 1.829620 0.000000 
#    z 0.000000 0.000000 1.743390 
# 
# From -- ./inp_files/3714.got.cif
#   From: 2010.05.17/outbox.cif.g08.bks.cpg/sg41_2_cif.got.tgz:3714.got - 2010.06.03 18:54:24.
