data_PCOD9366953
_publ_section_title
;
Structure prediction by ZEFSAII (Michael W. Deem and Ramdas Pophale) SiO2 
 PCOD9366953
Probable space group: A B A 2
;
_chemical_formula_sum "Si O2"
_cell_formula_units_Z 60
_cell_length_a 26.846645
_cell_length_b 11.627338
_cell_length_c 8.188703
_cell_angle_alpha 90.000000
_cell_angle_beta 90.000000
_cell_angle_gamma 90.000000
_cell_volume 2556.144713
_symmetry_space_group_name_H-M "A B A 2"
_symmetry_group_IT_number 41
_symmetry_cell_setting 'orthorhombic'
loop_
_space_group_symop_operation_xyz
x,y,z
-x,-y,z
1/2-x,y,1/2+z
1/2+x,-y,1/2+z
x,1/2+y,1/2+z
-x,1/2-y,1/2+z
1/2-x,1/2+y,z
1/2+x,1/2-y,z
loop_
_atom_site_type_symbol
_atom_site_label
_atom_site_fract_x
_atom_site_fract_y
_atom_site_fract_z
Si Si1 0.214611 0.883083 0.481320
Si Si2 0.319389 0.352612 0.849606
Si Si3 0.000000 0.000000 0.981619
Si Si4 0.045394 0.225547 0.981527
Si Si5 0.954434 0.832353 0.366219
Si Si6 0.146228 0.233413 0.792905
Si Si7 0.906069 0.114847 0.045109
Si Si8 0.352298 0.100483 0.964486
O O1 0.273522 0.891513 0.461634
O O2 0.197700 0.866950 0.666289
O O3 0.196677 0.771161 0.379976
O O4 0.184943 0.996995 0.426488
O O5 0.369059 0.422291 0.900768
O O6 0.333238 0.218814 0.880472
O O7 0.018877 0.114580 0.892969
O O8 0.951322 0.032452 0.083788
O O9 0.101980 0.221990 0.923108
O O10 0.011995 0.335262 0.926923
O O11 0.044092 0.205285 0.176330
O O12 0.933525 0.728807 0.479830
O O13 0.909400 0.921189 0.404943
O O14 0.128468 0.344350 0.689172
O O15 0.149448 0.133035 0.658215
#
# Coordination Sequence:
#
# PCOD9366953 Si02
#       8
#     8   8   4   8   8   8   8   8
#     4  12  25  44  72 100 130 185 225 272 351 395
#     4  10  23  45  66  95 137 168 225 284 323 407
#     4  10  22  32  60  96 122 174 216 252 340 396
#     4  11  20  38  63  89 134 177 218 279 339 392
#     4   9  19  38  61  87 129 173 214 273 330 392
#     4  10  22  42  65  94 133 172 223 283 326 402
#     4   9  20  41  61  88 132 163 215 279 328 395
#     4  10  24  45  67  98 137 172 223 280 340 400
#
# _framework density 23.472847999999999
#
# number of rings (size 3 to 8) (size 9 to 14) (size 15 to 20)
#    0.000    2.133    0.000    5.600    3.733    2.133 
#    0.000    0.000    0.000    0.000    0.000    0.000 
#    0.000    0.000    0.000    0.000    0.000    0.000 
#
# Total GULP energy -167334.658420 kJ/mol
# GULP energy per Si atom -5577.821947 kJ/mol
# Density = 2.341942 g / cm^3
# Si number density = 23.472848 Si / 1000 Ang^3
#
#
#
# Elastic Constant Matrix: (Units=GPa)
#
#
# Indices 1 2 3 4 5 6 
#
# 1 94.0408 19.8406 -13.9315 0.0000 0.0000 0.0000
# 2 19.8406 57.3362 4.5871 0.0000 0.0000 0.0000
# 3 -13.9315 4.5871 70.8529 0.0000 0.0000 0.0000
# 4 0.0000 0.0000 0.0000 22.5769 0.0000 0.0000
# 5 0.0000 0.0000 0.0000 0.0000 35.7416 0.0000
# 6 0.0000 0.0000 0.0000 0.0000 0.0000 22.4974
#
#
#
# Elastic Compliance Matrix: (Units=1/GPa)
#
#
# Indices 1 2 3 4 5 6 
#
# 1 0.011939 -0.004342 0.002629 0.000000 0.000000 0.000000
# 2 -0.004342 0.019111 -0.002091 0.000000 0.000000 0.000000
# 3 0.002629 -0.002091 0.014766 0.000000 0.000000 0.000000
# 4 0.000000 0.000000 0.000000 0.044293 0.000000 0.000000
# 5 0.000000 0.000000 0.000000 0.000000 0.027979 0.000000
# 6 0.000000 0.000000 0.000000 0.000000 0.000000 0.044450
#
#
# Mechanical properties :
#
#
# Convention : Reuss Voigt Hill
#
# Bulk Modulus (GPa) = 26.17273 27.02469 26.59871
# Shear Modulus (GPa) = 27.34019 30.27875 28.80947
#
# Velocity S-wave (km/s) = 3.41656 3.59548 3.50716
# Velocity P-wave (km/s) = 5.17090 5.36422 5.26845
#
# Compressibility (1/GPa) = 0.03820771
#
# Stress axis : x y z
#
# Youngs Moduli (GPa) = 83.75839 52.32679 67.72326
#
# Poissons Ratio (x) = 0.22719 -0.17802
# Poissons Ratio (y) = 0.36365 0.14161
# Poissons Ratio (z) = -0.22017 0.10941
#
# Static dielectric constant tensor:
#      x y z
#    x 1.929960 0.000000 0.000000 
#    y 0.000000 1.968000 0.000000 
#    z 0.000000 0.000000 1.890760 
# 
# From -- ./inp_files/3674.got.cif
#   From: 2010.05.17/outbox.cif.g08.bks.cpg/sg41_2_cif.got.tgz:3674.got - 2010.06.03 18:54:24.
