data_PCOD9366831
_publ_section_title
;
Structure prediction by ZEFSAII (Michael W. Deem and Ramdas Pophale) SiO2 
 PCOD9366831
Probable space group: A B A 2
;
_chemical_formula_sum "Si O2"
_cell_formula_units_Z 52
_cell_length_a 8.649969
_cell_length_b 12.982504
_cell_length_c 21.718738
_cell_angle_alpha 90.000000
_cell_angle_beta 90.000000
_cell_angle_gamma 90.000000
_cell_volume 2438.976425
_symmetry_space_group_name_H-M "A B A 2"
_symmetry_group_IT_number 41
_symmetry_cell_setting 'orthorhombic'
loop_
_space_group_symop_operation_xyz
x,y,z
-x,-y,z
1/2-x,y,1/2+z
1/2+x,-y,1/2+z
x,1/2+y,1/2+z
-x,1/2-y,1/2+z
1/2-x,1/2+y,z
1/2+x,1/2-y,z
loop_
_atom_site_type_symbol
_atom_site_label
_atom_site_fract_x
_atom_site_fract_y
_atom_site_fract_z
Si Si1 0.000000 0.000000 0.653610
Si Si2 0.169730 0.972250 0.343294
Si Si3 0.914808 0.168255 0.890520
Si Si4 0.812306 0.792971 0.975157
Si Si5 0.739637 0.392714 0.732932
Si Si6 0.976913 0.384758 0.034666
Si Si7 0.971470 0.713028 0.767234
O O1 0.153139 0.019631 0.694000
O O2 0.988439 0.096070 0.606731
O O3 0.305906 0.930686 0.384857
O O4 0.130080 0.876389 0.298228
O O5 0.236243 0.063775 0.301946
O O6 0.000000 0.000000 0.369328
O O7 0.808275 0.250644 0.925232
O O8 0.060211 0.148590 0.934592
O O9 0.958117 0.220434 0.824819
O O10 0.700853 0.852385 0.022403
O O11 0.906004 0.698922 0.006751
O O12 0.627766 0.295720 0.731505
O O13 0.908826 0.345490 0.722473
O O14 0.000000 0.500000 0.007833
#
# Coordination Sequence:
#
# PCOD9366831 Si02
#       7
#     4   8   8   8   8   8   8
#     4  10  24  44  68  92 124 176 230 288 348 380
#     4  10  22  38  60 100 141 173 217 273 323 431
#     4  11  19  38  63  99 132 171 216 252 349 415
#     4  10  21  41  70  93 131 179 216 284 343 402
#     4  11  23  40  65  92 130 174 217 270 339 398
#     4   9  23  47  65  92 132 163 242 295 328 402
#     4  11  21  40  61  98 139 166 216 267 323 436
#
# _framework density 21.320419999999999
#
# number of rings (size 3 to 8) (size 9 to 14) (size 15 to 20)
#    0.462    1.231    3.077    0.923    0.000    1.846 
#    8.308    2.308   10.154    0.000    0.000    0.000 
#    0.000    0.000    0.000    0.000    0.000    0.000 
#
# Total GULP energy -144992.674955 kJ/mol
# GULP energy per Si atom -5576.641344 kJ/mol
# Density = 2.127189 g / cm^3
# Si number density = 21.320420 Si / 1000 Ang^3
#
#
#
# Elastic Constant Matrix: (Units=GPa)
#
#
# Indices 1 2 3 4 5 6 
#
# 1 141.1066 52.6895 26.9439 0.0000 0.0000 0.0000
# 2 52.6895 84.5425 6.5967 0.0000 0.0000 0.0000
# 3 26.9439 6.5967 27.5278 0.0000 0.0000 0.0000
# 4 0.0000 0.0000 0.0000 31.0091 0.0000 0.0000
# 5 0.0000 0.0000 0.0000 0.0000 20.0138 0.0000
# 6 0.0000 0.0000 0.0000 0.0000 0.0000 58.8833
#
#
#
# Elastic Compliance Matrix: (Units=1/GPa)
#
#
# Indices 1 2 3 4 5 6 
#
# 1 0.011240 -0.006264 -0.009500 0.000000 0.000000 0.000000
# 2 -0.006264 0.015544 0.002406 0.000000 0.000000 0.000000
# 3 -0.009500 0.002406 0.045049 0.000000 0.000000 0.000000
# 4 0.000000 0.000000 0.000000 0.032249 0.000000 0.000000
# 5 0.000000 0.000000 0.000000 0.000000 0.049966 0.000000
# 6 0.000000 0.000000 0.000000 0.000000 0.000000 0.016983
#
#
# Mechanical properties :
#
#
# Convention : Reuss Voigt Hill
#
# Bulk Modulus (GPa) = 22.16468 47.29305 34.72886
# Shear Modulus (GPa) = 23.49782 33.11102 28.30442
#
# Velocity S-wave (km/s) = 3.32343 3.94511 3.64754
# Velocity P-wave (km/s) = 5.01453 6.55607 5.83642
#
# Compressibility (1/GPa) = 0.04511682
#
# Stress axis : x y z
#
# Youngs Moduli (GPa) = 88.96978 64.33201 22.19797
#
# Poissons Ratio (x) = 0.40295 0.21089
# Poissons Ratio (y) = 0.55728 -0.05340
# Poissons Ratio (z) = 0.84524 -0.15477
#
# Static dielectric constant tensor:
#      x y z
#    x 1.806680 0.000000 0.000000 
#    y 0.000000 1.759740 0.000000 
#    z 0.000000 0.000000 1.801010 
# 
# From -- ./inp_files/11163.got.cif
#   From: 2010.05.17/outbox.cif.g08.bks.cpg/sg41_6_cif.got.tgz:11163.got - 2010.06.03 18:54:24.
