data_PCOD9366800
_publ_section_title
;
Structure prediction by ZEFSAII (Michael W. Deem and Ramdas Pophale) SiO2 
 PCOD9366800
Probable space group: A B A 2
;
_chemical_formula_sum "Si O2"
_cell_formula_units_Z 32
_cell_length_a 14.199552
_cell_length_b 8.155307
_cell_length_c 12.410396
_cell_angle_alpha 90.000000
_cell_angle_beta 90.000000
_cell_angle_gamma 90.000000
_cell_volume 1437.145027
_symmetry_space_group_name_H-M "A B A 2"
_symmetry_group_IT_number 41
_symmetry_cell_setting 'orthorhombic'
loop_
_space_group_symop_operation_xyz
x,y,z
-x,-y,z
1/2-x,y,1/2+z
1/2+x,-y,1/2+z
x,1/2+y,1/2+z
-x,1/2-y,1/2+z
1/2-x,1/2+y,z
1/2+x,1/2-y,z
loop_
_atom_site_type_symbol
_atom_site_label
_atom_site_fract_x
_atom_site_fract_y
_atom_site_fract_z
Si Si1 0.289186 0.523268 0.952690
Si Si2 0.101697 0.064419 0.740884
Si Si3 0.445058 0.830817 0.569876
Si Si4 0.630531 0.661039 0.538774
O O1 0.325004 0.578738 0.836773
O O2 0.359127 0.379312 0.993214
O O3 0.183137 0.461056 0.958042
O O4 0.310289 0.671463 0.034474
O O5 0.087929 0.232418 0.675074
O O6 0.132342 0.928250 0.653563
O O7 0.000000 0.000000 0.783276
O O8 0.523386 0.712660 0.515387
O O9 0.500000 0.000000 0.595827
#
# Coordination Sequence:
#
# PCOD9366800 Si02
#       4
#     8   8   8   8
#     4  11  22  40  63  92 129 169 216 266 321 381
#     4  10  21  41  65  89 124 168 210 260 322 380
#     4   9  20  41  64  91 129 167 212 267 318 380
#     4  10  22  38  61  92 125 164 211 263 312 375
#
# _framework density 22.266368
#
# number of rings (size 3 to 8) (size 9 to 14) (size 15 to 20)
#    0.000    2.000    0.000    3.750    0.000    4.000 
#    0.000   18.750    0.000    0.000    0.000    0.000 
#    0.000    0.000    0.000    0.000    0.000    0.000 
#
# Total GULP energy -89419.210016 kJ/mol
# GULP energy per Si atom -5588.700626 kJ/mol
# Density = 2.221569 g / cm^3
# Si number density = 22.266368 Si / 1000 Ang^3
#
#
#
# Elastic Constant Matrix: (Units=GPa)
#
#
# Indices 1 2 3 4 5 6 
#
# 1 99.1397 47.1389 54.5947 0.0000 0.0000 0.0000
# 2 47.1389 94.1950 34.6897 0.0000 0.0000 0.0000
# 3 54.5947 34.6897 65.3696 0.0000 0.0000 0.0000
# 4 0.0000 0.0000 0.0000 21.9213 0.0000 0.0000
# 5 0.0000 0.0000 0.0000 0.0000 23.9743 0.0000
# 6 0.0000 0.0000 0.0000 0.0000 0.0000 37.5323
#
#
#
# Elastic Compliance Matrix: (Units=1/GPa)
#
#
# Indices 1 2 3 4 5 6 
#
# 1 0.020330 -0.004873 -0.014393 0.000000 0.000000 0.000000
# 2 -0.004873 0.014363 -0.003552 0.000000 0.000000 0.000000
# 3 -0.014393 -0.003552 0.029203 0.000000 0.000000 0.000000
# 4 0.000000 0.000000 0.000000 0.045618 0.000000 0.000000
# 5 0.000000 0.000000 0.000000 0.000000 0.041711 0.000000
# 6 0.000000 0.000000 0.000000 0.000000 0.000000 0.026644
#
#
# Mechanical properties :
#
#
# Convention : Reuss Voigt Hill
#
# Bulk Modulus (GPa) = 54.76523 59.06121 56.91322
# Shear Modulus (GPa) = 21.77782 24.83764 23.30773
#
# Velocity S-wave (km/s) = 3.13079 3.34350 3.23889
# Velocity P-wave (km/s) = 6.14150 6.44110 6.29308
#
# Compressibility (1/GPa) = 0.01825976
#
# Stress axis : x y z
#
# Youngs Moduli (GPa) = 49.18902 69.62225 34.24321
#
# Poissons Ratio (x) = 0.33929 0.49285
# Poissons Ratio (y) = 0.23972 0.12163
# Poissons Ratio (z) = 0.70796 0.24730
#
# Static dielectric constant tensor:
#      x y z
#    x 1.859880 0.000000 0.000000 
#    y 0.000000 1.868510 0.000000 
#    z 0.000000 0.000000 1.769480 
# 
# From -- ./inp_files/5251.got.cif
#   From: 2010.05.17/outbox.cif.g08.bks.cpg/sg41_3_cif.got.tgz:5251.got - 2010.06.03 18:54:24.
