data_PCOD9366298
_publ_section_title
;
Structure prediction by ZEFSAII (Michael W. Deem and Ramdas Pophale) SiO2 
 PCOD9366298
Probable space group: A B A 2
;
_chemical_formula_sum "Si O2"
_cell_formula_units_Z 52
_cell_length_a 8.421398
_cell_length_b 22.195211
_cell_length_c 14.492482
_cell_angle_alpha 90.000000
_cell_angle_beta 90.000000
_cell_angle_gamma 90.000000
_cell_volume 2708.858005
_symmetry_space_group_name_H-M "A B A 2"
_symmetry_group_IT_number 41
_symmetry_cell_setting 'orthorhombic'
loop_
_space_group_symop_operation_xyz
x,y,z
-x,-y,z
1/2-x,y,1/2+z
1/2+x,-y,1/2+z
x,1/2+y,1/2+z
-x,1/2-y,1/2+z
1/2-x,1/2+y,z
1/2+x,1/2-y,z
loop_
_atom_site_type_symbol
_atom_site_label
_atom_site_fract_x
_atom_site_fract_y
_atom_site_fract_z
Si Si1 0.897676 0.260010 0.277330
Si Si2 0.675878 0.444663 0.777519
Si Si3 0.356248 0.163666 0.698409
Si Si4 0.397816 0.386134 0.063029
Si Si5 0.000000 0.500000 0.449766
Si Si6 0.818277 0.576124 0.227774
Si Si7 0.668421 0.172980 0.376558
O O1 0.797695 0.292861 0.196888
O O2 0.781060 0.227807 0.349127
O O3 0.009459 0.207690 0.238628
O O4 0.000311 0.308968 0.331750
O O5 0.800508 0.391236 0.764364
O O6 0.617108 0.463297 0.880217
O O7 0.739170 0.507311 0.735482
O O8 0.510538 0.427961 0.724886
O O9 0.435313 0.134465 0.608342
O O10 0.266817 0.391594 0.143096
O O11 0.417030 0.450466 0.013146
O O12 0.345944 0.340292 0.983517
O O13 0.778569 0.613557 0.320227
#
# Coordination Sequence:
#
# PCOD9366298 Si02
#       7
#     8   8   8   8   4   8   8
#     4  10  23  42  63  86 129 172 216 257 328 371
#     4  10  20  42  67  85 135 169 197 266 344 369
#     4  11  22  38  66  92 121 173 216 262 315 392
#     4  12  22  37  67  97 123 164 225 255 321 384
#     4  10  20  38  64  96 130 164 206 268 324 392
#     4  10  20  40  65  88 126 167 200 268 319 382
#     4  11  21  44  61  90 128 172 206 274 314 376
#
# _framework density 19.196280000000002
#
# number of rings (size 3 to 8) (size 9 to 14) (size 15 to 20)
#    0.000    1.538    6.154    0.923    0.000    1.231 
#    0.000    7.692    0.000    0.000    0.000    0.000 
#    0.000    0.000    0.000    0.000    0.000    0.000 
#
# Total GULP energy -144976.426554 kJ/mol
# GULP energy per Si atom -5576.016406 kJ/mol
# Density = 1.915259 g / cm^3
# Si number density = 19.196280 Si / 1000 Ang^3
#
#
#
# Elastic Constant Matrix: (Units=GPa)
#
#
# Indices 1 2 3 4 5 6 
#
# 1 68.5491 40.8990 38.7783 0.0000 0.0000 0.0000
# 2 40.8990 111.1185 35.7969 0.0000 0.0000 0.0000
# 3 38.7783 35.7969 101.6678 0.0000 0.0000 0.0000
# 4 0.0000 0.0000 0.0000 27.3573 0.0000 0.0000
# 5 0.0000 0.0000 0.0000 0.0000 22.8486 0.0000
# 6 0.0000 0.0000 0.0000 0.0000 0.0000 27.9402
#
#
#
# Elastic Compliance Matrix: (Units=1/GPa)
#
#
# Indices 1 2 3 4 5 6 
#
# 1 0.021634 -0.005983 -0.006145 0.000000 0.000000 0.000000
# 2 -0.005983 0.011805 -0.001875 0.000000 0.000000 0.000000
# 3 -0.006145 -0.001875 0.012840 0.000000 0.000000 0.000000
# 4 0.000000 0.000000 0.000000 0.036553 0.000000 0.000000
# 5 0.000000 0.000000 0.000000 0.000000 0.043766 0.000000
# 6 0.000000 0.000000 0.000000 0.000000 0.000000 0.035791
#
#
# Mechanical properties :
#
#
# Convention : Reuss Voigt Hill
#
# Bulk Modulus (GPa) = 54.72291 56.92039 55.82165
# Shear Modulus (GPa) = 25.44699 26.68663 26.06681
#
# Velocity S-wave (km/s) = 3.64486 3.73258 3.68898
# Velocity P-wave (km/s) = 6.80311 6.94927 6.87658
#
# Compressibility (1/GPa) = 0.01827388
#
# Stress axis : x y z
#
# Youngs Moduli (GPa) = 46.22322 84.70630 77.88251
#
# Poissons Ratio (x) = 0.50681 0.47859
# Poissons Ratio (y) = 0.27656 0.14600
# Poissons Ratio (z) = 0.28405 0.15879
#
# Static dielectric constant tensor:
#      x y z
#    x 1.697920 0.000000 0.000000 
#    y 0.000000 1.708530 0.000000 
#    z 0.000000 0.000000 1.637510 
# 
# From -- ./inp_files/7415.got.cif
#   From: 2010.05.17/outbox.cif.g08.bks.cpg/sg41_4_cif.got.tgz:7415.got - 2010.06.03 18:54:24.
