data_PCOD9366686
_publ_section_title
;
Structure prediction by ZEFSAII (Michael W. Deem and Ramdas Pophale) SiO2 
 PCOD9366686
Probable space group: A B A 2
;
_chemical_formula_sum "Si O2"
_cell_formula_units_Z 64
_cell_length_a 8.855302
_cell_length_b 12.946559
_cell_length_c 27.801007
_cell_angle_alpha 90.000000
_cell_angle_beta 90.000000
_cell_angle_gamma 90.000000
_cell_volume 3187.265625
_symmetry_space_group_name_H-M "A B A 2"
_symmetry_group_IT_number 41
_symmetry_cell_setting 'orthorhombic'
loop_
_space_group_symop_operation_xyz
x,y,z
-x,-y,z
1/2-x,y,1/2+z
1/2+x,-y,1/2+z
x,1/2+y,1/2+z
-x,1/2-y,1/2+z
1/2-x,1/2+y,z
1/2+x,1/2-y,z
loop_
_atom_site_type_symbol
_atom_site_label
_atom_site_fract_x
_atom_site_fract_y
_atom_site_fract_z
Si Si1 0.055789 0.687597 0.351690
Si Si2 0.079916 0.904958 0.405775
Si Si3 0.292175 0.752022 0.065461
Si Si4 0.555789 0.812403 0.997808
Si Si5 0.707825 0.747978 0.784037
Si Si6 0.420084 0.904958 0.443723
Si Si7 0.466861 0.381145 0.231764
Si Si8 0.533139 0.118855 0.617734
O O1 0.076146 0.802618 0.373587
O O2 0.200826 0.672724 0.318426
O O3 0.909543 0.687644 0.317901
O O4 0.026578 0.616404 0.397304
O O5 0.973422 0.883596 0.452194
O O6 0.250000 0.921443 0.424749
O O7 0.000000 0.000000 0.379583
O O8 0.409543 0.812356 0.031597
O O9 0.172739 0.829354 0.089516
O O10 0.388736 0.688327 0.103841
O O11 0.200827 0.672724 0.031071
O O12 0.576146 0.697382 0.975911
O O13 0.827261 0.670646 0.759982
O O14 0.611264 0.811673 0.745657
O O15 0.500000 0.000000 0.469915
O O16 0.500000 0.500000 0.244925
O O17 0.438150 0.377011 0.174749
O O18 0.500000 0.000000 0.604573
#
# Coordination Sequence:
#
# PCOD9366686 Si02
#       8
#     8   8   8   8   8   8   8   8
#     4  10  22  40  56  82 122 155 205 245 293 356
#     4  11  24  37  58  84 119 164 201 251 300 350
#     4  10  21  39  64  87 121 161 196 256 302 358
#     4  10  22  40  56  82 122 155 205 245 293 356
#     4  10  21  39  64  87 121 161 196 256 302 358
#     4  11  24  37  58  84 119 164 201 251 300 350
#     4  10  22  41  66  93 122 156 199 249 310 374
#     4  10  22  41  66  93 122 156 199 249 310 374
#
# _framework density 20.079908
#
# number of rings (size 3 to 8) (size 9 to 14) (size 15 to 20)
#    0.000    1.750    2.500    0.750    3.500    6.000 
#    0.000    3.750    0.000   13.500    0.000    0.000 
#    0.000    0.000    0.000    0.000    0.000    0.000 
#
# Total GULP energy -178776.071890 kJ/mol
# GULP energy per Si atom -5586.752247 kJ/mol
# Density = 2.003421 g / cm^3
# Si number density = 20.079908 Si / 1000 Ang^3
#
#
#
# Elastic Constant Matrix: (Units=GPa)
#
#
# Indices 1 2 3 4 5 6 
#
# 1 82.0981 23.7664 14.0794 0.0000 0.0000 0.0000
# 2 23.7664 86.3011 7.5312 0.0000 0.0000 0.0000
# 3 14.0794 7.5312 60.9476 0.0000 0.0000 0.0000
# 4 0.0000 0.0000 0.0000 -14.7027 0.0000 0.0000
# 5 0.0000 0.0000 0.0000 0.0000 28.7954 0.0000
# 6 0.0000 0.0000 0.0000 0.0000 0.0000 20.9102
#
#
#
# Elastic Compliance Matrix: (Units=1/GPa)
#
#
# Indices 1 2 3 4 5 6 
#
# 1 0.013668 -0.003527 -0.002722 0.000000 0.000000 0.000000
# 2 -0.003527 0.012624 -0.000745 0.000000 0.000000 0.000000
# 3 -0.002722 -0.000745 0.017128 0.000000 0.000000 0.000000
# 4 0.000000 0.000000 0.000000 -0.068015 0.000000 0.000000
# 5 0.000000 0.000000 0.000000 0.000000 0.034728 0.000000
# 6 0.000000 0.000000 0.000000 0.000000 0.000000 0.047824
#
#
# Mechanical properties :
#
#
# Convention : Reuss Voigt Hill
#
# Bulk Modulus (GPa) = 33.97527 35.56677 34.77102
# Shear Modulus (GPa) = 61.15847 19.26522 40.21185
#
# Velocity S-wave (km/s) = 5.52482 3.10082 4.47989
# Velocity P-wave (km/s) = 7.59309 5.52912 6.64177
#
# Compressibility (1/GPa) = 0.02943317
#
# Stress axis : x y z
#
# Youngs Moduli (GPa) = 73.16247 79.21704 58.38269
#
# Poissons Ratio (x) = 0.27936 0.15890
# Poissons Ratio (y) = 0.25801 0.04351
# Poissons Ratio (z) = 0.19913 0.05903
#
# Static dielectric constant tensor:
#      x y z
#    x 1.706630 0.000000 0.000000 
#    y 0.000000 1.694370 0.000000 
#    z 0.000000 0.000000 1.695560 
# 
# From -- ./inp_files/12692.got.cif
#   From: 2010.05.17/outbox.cif.g08.bks.cpg/sg41_7_cif.got.tgz:12692.got - 2010.06.03 18:54:24.
