data_PCOD9366092
_publ_section_title
;
Structure prediction by ZEFSAII (Michael W. Deem and Ramdas Pophale) SiO2 
 PCOD9366092
Probable space group: A B A 2
;
_chemical_formula_sum "Si O2"
_cell_formula_units_Z 48
_cell_length_a 9.682547
_cell_length_b 13.610444
_cell_length_c 15.855689
_cell_angle_alpha 90.000000
_cell_angle_beta 90.000000
_cell_angle_gamma 90.000000
_cell_volume 2089.522373
_symmetry_space_group_name_H-M "A B A 2"
_symmetry_group_IT_number 41
_symmetry_cell_setting 'orthorhombic'
loop_
_space_group_symop_operation_xyz
x,y,z
-x,-y,z
1/2-x,y,1/2+z
1/2+x,-y,1/2+z
x,1/2+y,1/2+z
-x,1/2-y,1/2+z
1/2-x,1/2+y,z
1/2+x,1/2-y,z
loop_
_atom_site_type_symbol
_atom_site_label
_atom_site_fract_x
_atom_site_fract_y
_atom_site_fract_z
Si Si1 0.675050 0.771906 0.381960
Si Si2 0.553465 0.863178 0.669076
Si Si3 0.702344 0.528625 0.256837
Si Si4 0.630694 0.450356 0.991677
Si Si5 0.127533 0.434057 0.950947
Si Si6 0.082056 0.820385 0.768029
O O1 0.705438 0.864094 0.440936
O O2 0.612137 0.682537 0.438192
O O3 0.561626 0.810907 0.316200
O O4 0.805406 0.728011 0.332395
O O5 0.409631 0.901145 0.709599
O O6 0.568461 0.900120 0.574511
O O7 0.571413 0.748893 0.686355
O O8 0.672522 0.921971 0.719982
O O9 0.662779 0.531326 0.355096
O O10 0.853141 0.574438 0.247251
O O11 0.500000 0.500000 0.945070
O O12 0.740894 0.536134 0.006833
O O13 0.000000 0.500000 0.979798
#
# Coordination Sequence:
#
# PCOD9366092 Si02
#       6
#     8   8   8   8   8   8
#     4  11  23  40  65  98 129 166 229 272 323 407
#     4  11  21  42  63  91 131 171 211 269 339 389
#     4  10  19  40  69  84 122 176 214 256 323 405
#     4  12  25  39  63  99 132 168 219 281 335 392
#     4  11  21  42  68  91 129 176 214 268 342 401
#     4  11  21  41  68  94 120 174 223 266 321 402
#
# _framework density 22.971755999999999
#
# number of rings (size 3 to 8) (size 9 to 14) (size 15 to 20)
#    0.000    1.000    6.667    4.000    0.000    1.333 
#    6.000    1.667    0.000    0.000    0.000    0.000 
#    0.000    0.000    0.000    0.000    0.000    0.000 
#
# Total GULP energy -134200.291863 kJ/mol
# GULP energy per Si atom -5591.678828 kJ/mol
# Density = 2.291947 g / cm^3
# Si number density = 22.971756 Si / 1000 Ang^3
#
#
#
# Elastic Constant Matrix: (Units=GPa)
#
#
# Indices 1 2 3 4 5 6 
#
# 1 85.2593 0.6773 2.1513 0.0000 0.0000 0.0000
# 2 0.6773 71.6371 -2.8226 0.0000 0.0000 0.0000
# 3 2.1513 -2.8226 48.9692 0.0000 0.0000 0.0000
# 4 0.0000 0.0000 0.0000 11.3297 0.0000 0.0000
# 5 0.0000 0.0000 0.0000 0.0000 14.2920 0.0000
# 6 0.0000 0.0000 0.0000 0.0000 0.0000 36.8642
#
#
#
# Elastic Compliance Matrix: (Units=1/GPa)
#
#
# Indices 1 2 3 4 5 6 
#
# 1 0.011743 -0.000132 -0.000523 0.000000 0.000000 0.000000
# 2 -0.000132 0.013992 0.000812 0.000000 0.000000 0.000000
# 3 -0.000523 0.000812 0.020491 0.000000 0.000000 0.000000
# 4 0.000000 0.000000 0.000000 0.088263 0.000000 0.000000
# 5 0.000000 0.000000 0.000000 0.000000 0.069969 0.000000
# 6 0.000000 0.000000 0.000000 0.000000 0.000000 0.027127
#
#
# Mechanical properties :
#
#
# Convention : Reuss Voigt Hill
#
# Bulk Modulus (GPa) = 21.48649 22.87528 22.18089
# Shear Modulus (GPa) = 20.26056 26.22116 23.24086
#
# Velocity S-wave (km/s) = 2.97303 3.38220 3.18420
# Velocity P-wave (km/s) = 4.59989 5.02315 4.81617
#
# Compressibility (1/GPa) = 0.04654087
#
# Stress axis : x y z
#
# Youngs Moduli (GPa) = 85.15584 71.46686 48.80235
#
# Poissons Ratio (x) = 0.00941 0.02555
# Poissons Ratio (y) = 0.01121 -0.03964
# Poissons Ratio (z) = 0.04458 -0.05805
#
# Static dielectric constant tensor:
#      x y z
#    x 1.888560 0.000000 0.000000 
#    y 0.000000 1.890180 0.000000 
#    z 0.000000 0.000000 1.853460 
# 
# From -- ./inp_files/9650.got.cif
#   From: 2010.05.17/outbox.cif.g08.bks.cpg/sg41_5_cif.got.tgz:9650.got - 2010.06.03 18:54:24.
