data_PCOD9366644
_publ_section_title
;
Structure prediction by ZEFSAII (Michael W. Deem and Ramdas Pophale) SiO2 
 PCOD9366644
Probable space group: A B A 2
;
_chemical_formula_sum "Si O2"
_cell_formula_units_Z 40
_cell_length_a 12.271127
_cell_length_b 8.968956
_cell_length_c 18.033032
_cell_angle_alpha 90.000000
_cell_angle_beta 90.000000
_cell_angle_gamma 90.000000
_cell_volume 1984.701042
_symmetry_space_group_name_H-M "A B A 2"
_symmetry_group_IT_number 41
_symmetry_cell_setting 'orthorhombic'
loop_
_space_group_symop_operation_xyz
x,y,z
-x,-y,z
1/2-x,y,1/2+z
1/2+x,-y,1/2+z
x,1/2+y,1/2+z
-x,1/2-y,1/2+z
1/2-x,1/2+y,z
1/2+x,1/2-y,z
loop_
_atom_site_type_symbol
_atom_site_label
_atom_site_fract_x
_atom_site_fract_y
_atom_site_fract_z
Si Si1 0.818525 0.667228 0.077320
Si Si2 0.871408 0.496989 0.530058
Si Si3 0.878144 0.048129 0.734984
Si Si4 0.690646 0.563349 0.421679
Si Si5 0.274780 0.183372 0.820155
O O1 0.688779 0.630176 0.074356
O O2 0.837068 0.842726 0.069360
O O3 0.865228 0.585037 0.148236
O O4 0.864191 0.597084 0.000298
O O5 0.812944 0.515430 0.449986
O O6 0.000000 0.500000 0.525832
O O7 0.795781 0.922333 0.766262
O O8 0.847455 0.202145 0.774873
O O9 0.000000 0.000000 0.751822
O O10 0.700641 0.710331 0.372222
O O11 0.654215 0.424819 0.372762
#
# Coordination Sequence:
#
# PCOD9366644 Si02
#       5
#     8   8   8   8   8
#     4  10  21  41  64  97 128 171 221 275 316 381
#     4  10  21  38  67  97 129 169 214 274 330 380
#     4  11  25  44  67  94 134 179 216 264 334 399
#     4   9  18  40  63  93 127 170 210 275 318 374
#     4  10  21  41  65  92 137 167 211 272 330 383
#
# _framework density 20.154169
#
# number of rings (size 3 to 8) (size 9 to 14) (size 15 to 20)
#    1.200    0.800    2.000    1.200    0.000    6.400 
#    0.000    4.000    0.000    0.000    0.000    0.000 
#    0.000    0.000    0.000    0.000    0.000    0.000 
#
# Total GULP energy -111427.870824 kJ/mol
# GULP energy per Si atom -5571.393541 kJ/mol
# Density = 2.010830 g / cm^3
# Si number density = 20.154169 Si / 1000 Ang^3
#
#
#
# Elastic Constant Matrix: (Units=GPa)
#
#
# Indices 1 2 3 4 5 6 
#
# 1 51.5053 22.5616 -6.0320 0.0000 0.0000 0.0000
# 2 22.5616 134.0237 55.2053 0.0000 0.0000 0.0000
# 3 -6.0320 55.2053 121.5437 0.0000 0.0000 0.0000
# 4 0.0000 0.0000 0.0000 35.1358 0.0000 0.0000
# 5 0.0000 0.0000 0.0000 0.0000 -1.9795 0.0000
# 6 0.0000 0.0000 0.0000 0.0000 0.0000 15.6486
#
#
#
# Elastic Compliance Matrix: (Units=1/GPa)
#
#
# Indices 1 2 3 4 5 6 
#
# 1 0.022060 -0.005123 0.003422 0.000000 0.000000 0.000000
# 2 -0.005123 0.010368 -0.004964 0.000000 0.000000 0.000000
# 3 0.003422 -0.004964 0.010652 0.000000 0.000000 0.000000
# 4 0.000000 0.000000 0.000000 0.028461 0.000000 0.000000
# 5 0.000000 0.000000 0.000000 0.000000 -0.505167 0.000000
# 6 0.000000 0.000000 0.000000 0.000000 0.000000 0.063904
#
#
# Mechanical properties :
#
#
# Convention : Reuss Voigt Hill
#
# Bulk Modulus (GPa) = 33.61277 50.06026 41.83651
# Shear Modulus (GPa) = -14.43103 25.45017 5.50957
#
# Velocity S-wave (km/s) = -2.67878 3.55741 1.65519
# Velocity P-wave (km/s) = 2.67324 6.46267 4.94532
#
# Compressibility (1/GPa) = 0.02975060
#
# Stress axis : x y z
#
# Youngs Moduli (GPa) = 45.33025 96.44777 93.88125
#
# Poissons Ratio (x) = 0.49411 -0.32124
# Poissons Ratio (y) = 0.23223 0.46598
# Poissons Ratio (z) = -0.15511 0.47872
#
# Static dielectric constant tensor:
#      x y z
#    x 1.681060 0.000000 0.000000 
#    y 0.000000 1.706240 0.000000 
#    z 0.000000 0.000000 1.777340 
# 
# From -- ./inp_files/9909.got.cif
#   From: 2010.05.17/outbox.cif.g08.bks.cpg/sg41_5_cif.got.tgz:9909.got - 2010.06.03 18:54:24.
