data_PCOD9366063
_publ_section_title
;
Structure prediction by ZEFSAII (Michael W. Deem and Ramdas Pophale) SiO2 
 PCOD9366063
Probable space group: A B A 2
;
_chemical_formula_sum "Si O2"
_cell_formula_units_Z 64
_cell_length_a 9.612746
_cell_length_b 19.766006
_cell_length_c 16.656415
_cell_angle_alpha 90.000000
_cell_angle_beta 90.000000
_cell_angle_gamma 90.000000
_cell_volume 3164.812045
_symmetry_space_group_name_H-M "A B A 2"
_symmetry_group_IT_number 41
_symmetry_cell_setting 'orthorhombic'
loop_
_space_group_symop_operation_xyz
x,y,z
-x,-y,z
1/2-x,y,1/2+z
1/2+x,-y,1/2+z
x,1/2+y,1/2+z
-x,1/2-y,1/2+z
1/2-x,1/2+y,z
1/2+x,1/2-y,z
loop_
_atom_site_type_symbol
_atom_site_label
_atom_site_fract_x
_atom_site_fract_y
_atom_site_fract_z
Si Si1 0.009037 0.576120 0.275620
Si Si2 0.430243 0.213427 0.767050
Si Si3 0.017889 0.574042 0.840030
Si Si4 0.851974 0.297686 0.192719
Si Si5 0.207470 0.682150 0.522737
Si Si6 0.300879 0.051522 0.432081
Si Si7 0.936776 0.233423 0.940361
Si Si8 0.285593 0.901402 0.399729
O O1 0.858647 0.595291 0.311705
O O2 0.000000 0.500000 0.241742
O O3 0.076204 0.631800 0.218539
O O4 0.103993 0.572373 0.356049
O O5 0.446578 0.133510 0.778893
O O6 0.525343 0.242818 0.696368
O O7 0.267142 0.225736 0.754856
O O8 0.478522 0.251100 0.848477
O O9 0.878768 0.597353 0.885785
O O10 0.000000 0.500000 0.800988
O O11 0.143434 0.561908 0.901728
O O12 0.767291 0.305824 0.110794
O O13 0.174619 0.603851 0.503376
O O14 0.334034 0.707000 0.466299
O O15 0.071274 0.723851 0.495860
O O16 0.323822 0.971711 0.444302
O O17 0.847170 0.164391 0.941607
#
# Coordination Sequence:
#
# PCOD9366063 Si02
#       8
#     8   8   8   8   8   8   8   8
#     4  10  19  38  66  92 119 163 221 261 306 387
#     4  12  22  41  67  92 122 170 224 267 320 390
#     4  10  20  35  62  98 123 153 214 278 313 361
#     4  12  25  41  61  95 134 172 207 274 343 386
#     4  12  25  40  61  91 133 169 204 271 333 390
#     4  10  19  39  63  92 122 163 211 268 311 380
#     4  12  22  40  67  94 118 171 225 265 313 390
#     4  10  20  34  66  99 118 152 223 269 308 369
#
# _framework density 20.222369
#
# number of rings (size 3 to 8) (size 9 to 14) (size 15 to 20)
#    0.000    1.000    5.000    3.000    0.000    0.000 
#    0.000    1.875    5.500    0.000    0.000    0.000 
#    0.000    0.000    0.000    0.000    0.000    0.000 
#
# Total GULP energy -178721.770821 kJ/mol
# GULP energy per Si atom -5585.055338 kJ/mol
# Density = 2.017634 g / cm^3
# Si number density = 20.222369 Si / 1000 Ang^3
#
#
#
# Elastic Constant Matrix: (Units=GPa)
#
#
# Indices 1 2 3 4 5 6 
#
# 1 108.2571 19.6683 13.4952 0.0000 0.0000 0.0000
# 2 19.6683 115.8208 18.9734 0.0000 0.0000 0.0000
# 3 13.4952 18.9734 52.4536 0.0000 0.0000 0.0000
# 4 0.0000 0.0000 0.0000 17.1286 0.0000 0.0000
# 5 0.0000 0.0000 0.0000 0.0000 29.2580 0.0000
# 6 0.0000 0.0000 0.0000 0.0000 0.0000 34.1024
#
#
#
# Elastic Compliance Matrix: (Units=1/GPa)
#
#
# Indices 1 2 3 4 5 6 
#
# 1 0.009730 -0.001320 -0.002026 0.000000 0.000000 0.000000
# 2 -0.001320 0.009357 -0.003045 0.000000 0.000000 0.000000
# 3 -0.002026 -0.003045 0.020687 0.000000 0.000000 0.000000
# 4 0.000000 0.000000 0.000000 0.058382 0.000000 0.000000
# 5 0.000000 0.000000 0.000000 0.000000 0.034179 0.000000
# 6 0.000000 0.000000 0.000000 0.000000 0.000000 0.029323
#
#
# Mechanical properties :
#
#
# Convention : Reuss Voigt Hill
#
# Bulk Modulus (GPa) = 37.04818 42.31168 39.67993
# Shear Modulus (GPa) = 27.25735 31.05747 29.15741
#
# Velocity S-wave (km/s) = 3.67533 3.92318 3.80128
# Velocity P-wave (km/s) = 6.03083 6.44130 6.23944
#
# Compressibility (1/GPa) = 0.02699188
#
# Stress axis : x y z
#
# Youngs Moduli (GPa) = 102.77829 106.87118 48.33949
#
# Poissons Ratio (x) = 0.14112 0.09792
# Poissons Ratio (y) = 0.13571 0.14719
# Poissons Ratio (z) = 0.20819 0.32541
#
# Static dielectric constant tensor:
#      x y z
#    x 1.741640 0.000000 0.000000 
#    y 0.000000 1.752130 0.000000 
#    z 0.000000 0.000000 1.722330 
# 
# From -- ./inp_files/9858.got.cif
#   From: 2010.05.17/outbox.cif.g08.bks.cpg/sg41_5_cif.got.tgz:9858.got - 2010.06.03 18:54:24.
