data_PCOD9366290
_publ_section_title
;
Structure prediction by ZEFSAII (Michael W. Deem and Ramdas Pophale) SiO2 
 PCOD9366290
Probable space group: A B A 2
;
_chemical_formula_sum "Si O2"
_cell_formula_units_Z 48
_cell_length_a 9.568515
_cell_length_b 15.791942
_cell_length_c 15.314151
_cell_angle_alpha 90.000000
_cell_angle_beta 90.000000
_cell_angle_gamma 90.000000
_cell_volume 2314.051432
_symmetry_space_group_name_H-M "A B A 2"
_symmetry_group_IT_number 41
_symmetry_cell_setting 'orthorhombic'
loop_
_space_group_symop_operation_xyz
x,y,z
-x,-y,z
1/2-x,y,1/2+z
1/2+x,-y,1/2+z
x,1/2+y,1/2+z
-x,1/2-y,1/2+z
1/2-x,1/2+y,z
1/2+x,1/2-y,z
loop_
_atom_site_type_symbol
_atom_site_label
_atom_site_fract_x
_atom_site_fract_y
_atom_site_fract_z
Si Si1 0.433745 0.785195 0.299830
Si Si2 0.345216 0.356360 0.249152
Si Si3 0.928152 0.408075 0.429113
Si Si4 0.598266 0.580840 0.441458
Si Si5 0.838966 0.308699 0.968353
Si Si6 0.844295 0.642090 0.558091
O O1 0.536398 0.715675 0.260135
O O2 0.312825 0.821836 0.239856
O O3 0.529529 0.858034 0.341513
O O4 0.341320 0.746339 0.379376
O O5 0.356983 0.408911 0.339484
O O6 0.366921 0.395106 0.154005
O O7 0.767465 0.386456 0.451313
O O8 0.000000 0.500000 0.422428
O O9 0.010489 0.363898 0.507636
O O10 0.500000 0.500000 0.450724
O O11 0.496534 0.657164 0.470936
O O12 0.732096 0.588065 0.503165
O O13 0.804940 0.242275 0.045733
#
# Coordination Sequence:
#
# PCOD9366290 Si02
#       6
#     8   8   8   8   8   8
#     4  10  20  40  61  92 119 162 210 268 316 379
#     4  11  23  39  68  94 125 165 225 264 320 387
#     4  11  21  38  63  91 124 165 207 266 326 386
#     4  11  23  43  66  94 135 173 204 270 339 386
#     4  10  20  38  63  90 123 165 214 255 321 386
#     4  11  23  40  66  93 127 168 220 265 314 392
#
# _framework density 20.742840999999999
#
# number of rings (size 3 to 8) (size 9 to 14) (size 15 to 20)
#    0.000    1.333    5.000    3.000    4.667    0.667 
#    0.000    0.833    3.667    0.000    0.000    0.000 
#    0.000    0.000    0.000    0.000    0.000    0.000 
#
# Total GULP energy -133770.080874 kJ/mol
# GULP energy per Si atom -5573.753370 kJ/mol
# Density = 2.069563 g / cm^3
# Si number density = 20.742841 Si / 1000 Ang^3
#
#
#
# Elastic Constant Matrix: (Units=GPa)
#
#
# Indices 1 2 3 4 5 6 
#
# 1 84.2477 -9.5967 18.8165 0.0000 0.0000 0.0000
# 2 -9.5967 61.3264 15.2783 0.0000 0.0000 0.0000
# 3 18.8165 15.2783 95.6891 0.0000 0.0000 0.0000
# 4 0.0000 0.0000 0.0000 4.4641 0.0000 0.0000
# 5 0.0000 0.0000 0.0000 0.0000 12.5566 0.0000
# 6 0.0000 0.0000 0.0000 0.0000 0.0000 26.3043
#
#
#
# Elastic Compliance Matrix: (Units=1/GPa)
#
#
# Indices 1 2 3 4 5 6 
#
# 1 0.012845 0.002749 -0.002965 0.000000 0.000000 0.000000
# 2 0.002749 0.017570 -0.003346 0.000000 0.000000 0.000000
# 3 -0.002965 -0.003346 0.011568 0.000000 0.000000 0.000000
# 4 0.000000 0.000000 0.000000 0.224011 0.000000 0.000000
# 5 0.000000 0.000000 0.000000 0.000000 0.079639 0.000000
# 6 0.000000 0.000000 0.000000 0.000000 0.000000 0.038017
#
#
# Mechanical properties :
#
#
# Convention : Reuss Voigt Hill
#
# Bulk Modulus (GPa) = 28.68714 32.25105 30.46909
# Shear Modulus (GPa) = 12.42568 23.11601 17.77085
#
# Velocity S-wave (km/s) = 2.45017 3.34190 2.93016
# Velocity P-wave (km/s) = 4.67594 5.52022 5.11553
#
# Compressibility (1/GPa) = 0.03485883
#
# Stress axis : x y z
#
# Youngs Moduli (GPa) = 77.85111 56.91569 86.44751
#
# Poissons Ratio (x) = -0.15644 0.25629
# Poissons Ratio (y) = -0.21399 0.28924
# Poissons Ratio (z) = 0.23081 0.19043
#
# Static dielectric constant tensor:
#      x y z
#    x 1.757180 0.000000 0.000000 
#    y 0.000000 1.848510 0.000000 
#    z 0.000000 0.000000 1.745270 
# 
# From -- ./inp_files/7317.got.cif
#   From: 2010.05.17/outbox.cif.g08.bks.cpg/sg41_4_cif.got.tgz:7317.got - 2010.06.03 18:54:24.
