data_PCOD9366176
_publ_section_title
;
Structure prediction by ZEFSAII (Michael W. Deem and Ramdas Pophale) SiO2 
 PCOD9366176
Probable space group: A B A 2
;
_chemical_formula_sum "Si O2"
_cell_formula_units_Z 56
_cell_length_a 5.636957
_cell_length_b 19.576985
_cell_length_c 21.333649
_cell_angle_alpha 90.000000
_cell_angle_beta 90.000000
_cell_angle_gamma 90.000000
_cell_volume 2354.266785
_symmetry_space_group_name_H-M "A B A 2"
_symmetry_group_IT_number 41
_symmetry_cell_setting 'orthorhombic'
loop_
_space_group_symop_operation_xyz
x,y,z
-x,-y,z
1/2-x,y,1/2+z
1/2+x,-y,1/2+z
x,1/2+y,1/2+z
-x,1/2-y,1/2+z
1/2-x,1/2+y,z
1/2+x,1/2-y,z
loop_
_atom_site_type_symbol
_atom_site_label
_atom_site_fract_x
_atom_site_fract_y
_atom_site_fract_z
Si Si1 0.225459 0.731422 0.487890
Si Si2 0.000000 0.000000 0.454731
Si Si3 0.268064 0.814254 0.116764
Si Si4 0.904705 0.928795 0.164069
Si Si5 0.474246 0.078712 0.261074
Si Si6 0.198387 0.279613 0.251375
Si Si7 0.654646 0.399078 0.551455
Si Si8 0.000000 0.000000 0.882030
O O1 0.485328 0.740653 0.456120
O O2 0.272712 0.773246 0.552766
O O3 0.192622 0.653214 0.509685
O O4 0.250658 0.996675 0.418416
O O5 0.004450 0.935711 0.500824
O O6 0.301825 0.766218 0.176421
O O7 0.504840 0.855254 0.100530
O O8 0.077805 0.871073 0.136638
O O9 0.748712 0.897007 0.220255
O O10 0.777070 0.951072 0.098893
O O11 0.000000 0.000000 0.190961
O O12 0.670206 0.137686 0.254878
O O13 0.500000 0.000000 0.235764
O O14 0.459504 0.063880 0.334803
O O15 0.450373 0.252171 0.276822
#
# Coordination Sequence:
#
# PCOD9366176 Si02
#       8
#     8   4   8   8   8   8   8   4
#     4  10  20  36  57  89 142 184 208 247 325 434
#     4  12  28  47  74  95 128 186 250 306 338 404
#     4  11  22  37  58 101 160 184 213 260 357 456
#     4  12  23  37  67 107 149 177 227 284 365 433
#     4  10  25  48  70  99 142 189 235 298 360 423
#     4  12  24  39  69 110 147 188 226 277 356 442
#     4  11  24  39  63 103 141 178 223 284 348 418
#     4  10  30  53  72  91 128 192 254 294 358 404
#
# _framework density 23.786598999999999
#
# number of rings (size 3 to 8) (size 9 to 14) (size 15 to 20)
#    0.429    0.571    2.857    4.286    5.000    1.143 
#    0.000    0.000    0.000   10.286    0.000    0.000 
#    0.000    0.000    0.000    0.000    0.000    0.000 
#
# Total GULP energy -156095.134073 kJ/mol
# GULP energy per Si atom -5574.826217 kJ/mol
# Density = 2.373246 g / cm^3
# Si number density = 23.786599 Si / 1000 Ang^3
#
#
#
# Elastic Constant Matrix: (Units=GPa)
#
#
# Indices 1 2 3 4 5 6 
#
# 1 147.5146 19.6587 37.7731 0.0000 0.0000 0.0000
# 2 19.6587 80.4555 -1.5818 0.0000 0.0000 0.0000
# 3 37.7731 -1.5818 54.2410 0.0000 0.0000 0.0000
# 4 0.0000 0.0000 0.0000 -4.9042 0.0000 0.0000
# 5 0.0000 0.0000 0.0000 0.0000 18.1722 0.0000
# 6 0.0000 0.0000 0.0000 0.0000 0.0000 46.1042
#
#
#
# Elastic Compliance Matrix: (Units=1/GPa)
#
#
# Indices 1 2 3 4 5 6 
#
# 1 0.008632 -0.002229 -0.006076 0.000000 0.000000 0.000000
# 2 -0.002229 0.013012 0.001931 0.000000 0.000000 0.000000
# 3 -0.006076 0.001931 0.022724 0.000000 0.000000 0.000000
# 4 0.000000 0.000000 0.000000 -0.203906 0.000000 0.000000
# 5 0.000000 0.000000 0.000000 0.000000 0.055029 0.000000
# 6 0.000000 0.000000 0.000000 0.000000 0.000000 0.021690
#
#
# Mechanical properties :
#
#
# Convention : Reuss Voigt Hill
#
# Bulk Modulus (GPa) = 31.62461 43.76788 37.69624
# Shear Modulus (GPa) = -83.98724 26.96518 -28.51103
#
# Velocity S-wave (km/s) = -5.94855 3.37059 -3.46586
# Velocity P-wave (km/s) = 5.81862 5.79552 0.36630
#
# Compressibility (1/GPa) = 0.03162094
#
# Stress axis : x y z
#
# Youngs Moduli (GPa) = 115.84971 76.85360 44.00639
#
# Poissons Ratio (x) = 0.17128 0.26739
# Poissons Ratio (y) = 0.25818 -0.08500
# Poissons Ratio (z) = 0.70392 -0.14844
#
# Static dielectric constant tensor:
#      x y z
#    x 2.034980 0.000000 0.000000 
#    y 0.000000 2.009760 0.000000 
#    z 0.000000 0.000000 1.867570 
# 
# From -- ./inp_files/11877.got.cif
#   From: 2010.05.17/outbox.cif.g08.bks.cpg/sg41_6_cif.got.tgz:11877.got - 2010.06.03 18:54:24.
