data_PCOD9366084
_publ_section_title
;
Structure prediction by ZEFSAII (Michael W. Deem and Ramdas Pophale) SiO2 
 PCOD9366084
Probable space group: A B A 2
;
_chemical_formula_sum "Si O2"
_cell_formula_units_Z 56
_cell_length_a 13.919155
_cell_length_b 5.363940
_cell_length_c 34.813295
_cell_angle_alpha 90.000000
_cell_angle_beta 90.000000
_cell_angle_gamma 90.000000
_cell_volume 2599.213252
_symmetry_space_group_name_H-M "A B A 2"
_symmetry_group_IT_number 41
_symmetry_cell_setting 'orthorhombic'
loop_
_space_group_symop_operation_xyz
x,y,z
-x,-y,z
1/2-x,y,1/2+z
1/2+x,-y,1/2+z
x,1/2+y,1/2+z
-x,1/2-y,1/2+z
1/2-x,1/2+y,z
1/2+x,1/2-y,z
loop_
_atom_site_type_symbol
_atom_site_label
_atom_site_fract_x
_atom_site_fract_y
_atom_site_fract_z
Si Si1 0.500000 0.000000 0.610981
Si Si2 0.500000 0.000000 0.161343
Si Si3 0.383621 0.503197 0.799481
Si Si4 0.642029 0.910925 0.012431
Si Si5 0.694471 0.071635 0.929081
Si Si6 0.690220 0.025131 0.212723
Si Si7 0.136018 0.589507 0.542804
Si Si8 0.885438 0.496270 0.844589
O O1 0.497181 0.749971 0.635968
O O2 0.595903 0.990175 0.584212
O O3 0.593934 0.009610 0.187942
O O4 0.500000 0.500000 0.795225
O O5 0.337613 0.482032 0.757695
O O6 0.355916 0.761440 0.820115
O O7 0.356546 0.265237 0.825463
O O8 0.601770 0.634695 0.015638
O O9 0.750390 0.885412 0.031348
O O10 0.595954 0.135422 0.035826
O O11 0.642202 0.002273 0.968654
O O12 0.720366 0.364243 0.930330
O O13 0.645748 0.018442 0.888547
O O14 0.755332 0.783519 0.204519
O O15 0.000000 0.500000 0.844002
#
# Coordination Sequence:
#
# PCOD9366084 Si02
#       8
#     4   4   8   8   8   8   8   8
#     4  12  26  46  72 102 137 174 215 288 380 404
#     4  12  28  54  68 112 157 172 227 312 346 432
#     4  10  21  43  67  91 139 182 225 294 339 407
#     4  10  19  40  61  88 125 170 223 268 329 397
#     4  12  21  37  59  85 130 174 218 289 339 383
#     4  12  26  47  78 108 139 194 240 276 361 434
#     4  10  20  40  63  89 119 167 214 267 329 430
#     4  10  23  38  59  95 133 181 227 278 355 389
#
# _framework density 21.544979999999999
#
# number of rings (size 3 to 8) (size 9 to 14) (size 15 to 20)
#    0.000    1.143    3.571    3.429    0.000    3.429 
#   18.000    0.000    0.000    0.000    0.000    0.000 
#    0.000    0.000    0.000    0.000    0.000    0.000 
#
# Total GULP energy -156408.963931 kJ/mol
# GULP energy per Si atom -5586.034426 kJ/mol
# Density = 2.149594 g / cm^3
# Si number density = 21.544980 Si / 1000 Ang^3
#
#
#
# Elastic Constant Matrix: (Units=GPa)
#
#
# Indices 1 2 3 4 5 6 
#
# 1 77.3828 6.0726 16.6248 0.0000 0.0000 0.0000
# 2 6.0726 131.2440 21.4413 0.0000 0.0000 0.0000
# 3 16.6248 21.4413 120.7028 0.0000 0.0000 0.0000
# 4 0.0000 0.0000 0.0000 22.5769 0.0000 0.0000
# 5 0.0000 0.0000 0.0000 0.0000 103.7383 0.0000
# 6 0.0000 0.0000 0.0000 0.0000 0.0000 3.7263
#
#
#
# Elastic Compliance Matrix: (Units=1/GPa)
#
#
# Indices 1 2 3 4 5 6 
#
# 1 0.013330 -0.000326 -0.001778 0.000000 0.000000 0.000000
# 2 -0.000326 0.007855 -0.001350 0.000000 0.000000 0.000000
# 3 -0.001778 -0.001350 0.008770 0.000000 0.000000 0.000000
# 4 0.000000 0.000000 0.000000 0.044293 0.000000 0.000000
# 5 0.000000 0.000000 0.000000 0.000000 0.009640 0.000000
# 6 0.000000 0.000000 0.000000 0.000000 0.000000 0.268365
#
#
# Mechanical properties :
#
#
# Convention : Reuss Voigt Hill
#
# Bulk Modulus (GPa) = 43.39244 46.40078 44.89661
# Shear Modulus (GPa) = 13.62975 45.02101 29.32538
#
# Velocity S-wave (km/s) = 2.51792 4.57620 3.69334
# Velocity P-wave (km/s) = 5.35139 7.03603 6.25072
#
# Compressibility (1/GPa) = 0.02304549
#
# Stress axis : x y z
#
# Youngs Moduli (GPa) = 75.01660 127.30565 114.03032
#
# Poissons Ratio (x) = 0.04154 0.20275
# Poissons Ratio (y) = 0.02448 0.15399
# Poissons Ratio (z) = 0.13339 0.17192
#
# Static dielectric constant tensor:
#      x y z
#    x 1.210020 0.000000 0.000000 
#    y 0.000000 1.800160 0.000000 
#    z 0.000000 0.000000 1.745770 
# 
# From -- ./inp_files/12740.got.cif
#   From: 2010.05.17/outbox.cif.g08.bks.cpg/sg41_7_cif.got.tgz:12740.got - 2010.06.03 18:54:24.
