data_PCOD9366917
_publ_section_title
;
Structure prediction by ZEFSAII (Michael W. Deem and Ramdas Pophale) SiO2 
 PCOD9366917
Probable space group: A B A 2
;
_chemical_formula_sum "Si O2"
_cell_formula_units_Z 60
_cell_length_a 10.400369
_cell_length_b 8.824052
_cell_length_c 29.767788
_cell_angle_alpha 90.000000
_cell_angle_beta 90.000000
_cell_angle_gamma 90.000000
_cell_volume 2731.891022
_symmetry_space_group_name_H-M "A B A 2"
_symmetry_group_IT_number 41
_symmetry_cell_setting 'orthorhombic'
loop_
_space_group_symop_operation_xyz
x,y,z
-x,-y,z
1/2-x,y,1/2+z
1/2+x,-y,1/2+z
x,1/2+y,1/2+z
-x,1/2-y,1/2+z
1/2-x,1/2+y,z
1/2+x,1/2-y,z
loop_
_atom_site_type_symbol
_atom_site_label
_atom_site_fract_x
_atom_site_fract_y
_atom_site_fract_z
Si Si1 0.394126 0.796768 0.753240
Si Si2 0.586222 0.713794 0.038945
Si Si3 0.656682 0.606238 0.888528
Si Si4 0.151018 0.636334 0.717541
Si Si5 0.111038 0.216152 0.855739
Si Si6 0.101864 0.709216 0.614569
Si Si7 0.500000 0.500000 0.970212
Si Si8 0.802872 0.006993 0.564671
O O1 0.295294 0.687239 0.727965
O O2 0.545220 0.767706 0.745186
O O3 0.374419 0.784824 0.806341
O O4 0.365233 0.962934 0.732956
O O5 0.531822 0.679187 0.088939
O O6 0.716329 0.617634 0.034491
O O7 0.609851 0.891646 0.036530
O O8 0.487820 0.643848 0.003167
O O9 0.790326 0.692552 0.886973
O O10 0.536302 0.711596 0.873008
O O11 0.654813 0.459790 0.856051
O O12 0.616289 0.537804 0.936648
O O13 0.110251 0.667602 0.666309
O O14 0.130744 0.883595 0.601166
O O15 0.209539 0.607916 0.590673
#
# Coordination Sequence:
#
# PCOD9366917 Si02
#       8
#     8   8   8   8   8   8   4   8
#     4  11  24  42  64  97 130 180 226 289 341 413
#     4  11  22  41  65  91 134 173 225 281 336 415
#     4  10  24  42  73 100 140 177 226 293 353 435
#     4  11  26  39  64  96 136 173 236 285 336 401
#     4  10  21  44  68  98 136 180 228 279 367 424
#     4  11  22  41  59  90 133 176 226 279 340 401
#     4  10  22  42  66 100 128 168 224 286 348 396
#     4  10  23  37  66  89 118 192 219 273 344 404
#
# _framework density 21.962807999999999
#
# number of rings (size 3 to 8) (size 9 to 14) (size 15 to 20)
#    0.000    1.600    1.333    2.800    7.467    5.333 
#    2.400    0.000    5.867    0.000    0.000    0.000 
#    0.000    0.000    0.000    0.000    0.000    0.000 
#
# Total GULP energy -167551.333554 kJ/mol
# GULP energy per Si atom -5585.044452 kJ/mol
# Density = 2.191282 g / cm^3
# Si number density = 21.962808 Si / 1000 Ang^3
#
#
#
# Elastic Constant Matrix: (Units=GPa)
#
#
# Indices 1 2 3 4 5 6 
#
# 1 47.0564 39.2713 19.6587 0.0000 0.0000 0.0000
# 2 39.2713 123.8419 44.4100 0.0000 0.0000 0.0000
# 3 19.6587 44.4100 116.1806 0.0000 0.0000 0.0000
# 4 0.0000 0.0000 0.0000 30.8875 0.0000 0.0000
# 5 0.0000 0.0000 0.0000 0.0000 8.5737 0.0000
# 6 0.0000 0.0000 0.0000 0.0000 0.0000 54.9510
#
#
#
# Elastic Compliance Matrix: (Units=1/GPa)
#
#
# Indices 1 2 3 4 5 6 
#
# 1 0.029160 -0.008665 -0.001622 0.000000 0.000000 0.000000
# 2 -0.008665 0.011933 -0.003095 0.000000 0.000000 0.000000
# 3 -0.001622 -0.003095 0.010065 0.000000 0.000000 0.000000
# 4 0.000000 0.000000 0.000000 0.032376 0.000000 0.000000
# 5 0.000000 0.000000 0.000000 0.000000 0.116636 0.000000
# 6 0.000000 0.000000 0.000000 0.000000 0.000000 0.018198
#
#
# Mechanical properties :
#
#
# Convention : Reuss Voigt Hill
#
# Bulk Modulus (GPa) = 40.99481 54.86211 47.92846
# Shear Modulus (GPa) = 19.74232 31.13170 25.43701
#
# Velocity S-wave (km/s) = 3.00142 3.76902 3.40690
# Velocity P-wave (km/s) = 5.54233 6.63132 6.11113
#
# Compressibility (1/GPa) = 0.02439333
#
# Stress axis : x y z
#
# Youngs Moduli (GPa) = 34.29303 83.80437 99.35662
#
# Poissons Ratio (x) = 0.72620 0.16114
# Poissons Ratio (y) = 0.29716 0.30750
# Poissons Ratio (z) = 0.05562 0.25937
#
# Static dielectric constant tensor:
#      x y z
#    x 1.883840 0.000000 0.000000 
#    y 0.000000 1.818600 0.000000 
#    z 0.000000 0.000000 1.796310 
# 
# From -- ./inp_files/12524.got.cif
#   From: 2010.05.17/outbox.cif.g08.bks.cpg/sg41_7_cif.got.tgz:12524.got - 2010.06.03 18:54:24.
