data_PCOD9366136
_publ_section_title
;
Structure prediction by ZEFSAII (Michael W. Deem and Ramdas Pophale) SiO2 
 PCOD9366136
Probable space group: A B A 2
;
_chemical_formula_sum "Si O2"
_cell_formula_units_Z 48
_cell_length_a 15.772241
_cell_length_b 16.146393
_cell_length_c 9.464416
_cell_angle_alpha 90.000000
_cell_angle_beta 90.000000
_cell_angle_gamma 90.000000
_cell_volume 2410.253624
_symmetry_space_group_name_H-M "A B A 2"
_symmetry_group_IT_number 41
_symmetry_cell_setting 'orthorhombic'
loop_
_space_group_symop_operation_xyz
x,y,z
-x,-y,z
1/2-x,y,1/2+z
1/2+x,-y,1/2+z
x,1/2+y,1/2+z
-x,1/2-y,1/2+z
1/2-x,1/2+y,z
1/2+x,1/2-y,z
loop_
_atom_site_type_symbol
_atom_site_label
_atom_site_fract_x
_atom_site_fract_y
_atom_site_fract_z
Si Si1 0.680553 0.917043 0.081790
Si Si2 0.084706 0.796482 0.858366
Si Si3 0.330189 0.833061 0.957161
Si Si4 0.740418 0.823090 0.830927
Si Si5 0.282346 0.411342 0.738297
Si Si6 0.514742 0.316467 0.581791
O O1 0.722482 0.848821 0.182735
O O2 0.697120 0.002603 0.161873
O O3 0.724849 0.902665 0.930890
O O4 0.582657 0.890233 0.069550
O O5 0.150879 0.723816 0.817082
O O6 0.139928 0.879643 0.837717
O O7 0.010456 0.801432 0.743734
O O8 0.051839 0.766763 0.009781
O O9 0.303321 0.743030 0.902131
O O10 0.299286 0.897541 0.836913
O O11 0.428255 0.838418 0.999013
O O12 0.279876 0.850265 0.102955
#
# Coordination Sequence:
#
# PCOD9366136 Si02
#       6
#     8   8   8   8   8   8
#     4  11  21  35  57  84 113 146 184 232 281 329
#     4   9  20  35  54  82 111 147 187 229 276 327
#     4  10  20  37  57  80 109 148 191 227 270 332
#     4  10  20  36  57  80 110 149 192 225 270 339
#     4  10  21  36  55  82 113 143 182 227 282 335
#     4  10  20  34  56  82 110 144 188 234 275 321
#
# _framework density 19.914916999999999
#
# number of rings (size 3 to 8) (size 9 to 14) (size 15 to 20)
#    0.000    2.000    0.000    5.000    0.000    5.333 
#    0.000    0.000    0.000    0.000    0.000   14.000 
#    0.000    0.000    0.000    0.000    0.000    0.000 
#
# Total GULP energy -133882.505953 kJ/mol
# GULP energy per Si atom -5578.437748 kJ/mol
# Density = 1.986959 g / cm^3
# Si number density = 19.914917 Si / 1000 Ang^3
#
#
#
# Elastic Constant Matrix: (Units=GPa)
#
#
# Indices 1 2 3 4 5 6 
#
# 1 51.5880 1.7891 8.2856 0.0000 0.0000 0.0000
# 2 1.7891 74.6994 -1.5489 0.0000 0.0000 0.0000
# 3 8.2856 -1.5489 36.1848 0.0000 0.0000 0.0000
# 4 0.0000 0.0000 0.0000 42.5956 0.0000 0.0000
# 5 0.0000 0.0000 0.0000 0.0000 41.3221 0.0000
# 6 0.0000 0.0000 0.0000 0.0000 0.0000 6.2514
#
#
#
# Elastic Compliance Matrix: (Units=1/GPa)
#
#
# Indices 1 2 3 4 5 6 
#
# 1 0.020149 -0.000579 -0.004639 0.000000 0.000000 0.000000
# 2 -0.000579 0.013416 0.000707 0.000000 0.000000 0.000000
# 3 -0.004639 0.000707 0.028728 0.000000 0.000000 0.000000
# 4 0.000000 0.000000 0.000000 0.023477 0.000000 0.000000
# 5 0.000000 0.000000 0.000000 0.000000 0.024200 0.000000
# 6 0.000000 0.000000 0.000000 0.000000 0.000000 0.159964
#
#
# Mechanical properties :
#
#
# Convention : Reuss Voigt Hill
#
# Bulk Modulus (GPa) = 18.77158 19.94711 19.35934
# Shear Modulus (GPa) = 16.85131 28.29692 22.57411
#
# Velocity S-wave (km/s) = 2.91205 3.77356 3.37044
# Velocity P-wave (km/s) = 4.55555 5.38742 4.98885
#
# Compressibility (1/GPa) = 0.05327203
#
# Stress axis : x y z
#
# Youngs Moduli (GPa) = 49.62919 74.54062 34.80886
#
# Poissons Ratio (x) = 0.04314 0.16146
# Poissons Ratio (y) = 0.02872 -0.02460
# Poissons Ratio (z) = 0.23021 -0.05268
#
# Static dielectric constant tensor:
#      x y z
#    x 1.713300 0.000000 0.000000 
#    y 0.000000 1.739290 0.000000 
#    z 0.000000 0.000000 1.715480 
# 
# From -- ./inp_files/2544.got.cif
#   From: 2010.05.17/outbox.cif.g08.bks.cpg/sg41_2_cif.got.tgz:2544.got - 2010.06.03 18:54:24.
