data_PCOD9366665
_publ_section_title
;
Structure prediction by ZEFSAII (Michael W. Deem and Ramdas Pophale) SiO2 
 PCOD9366665
Probable space group: A B A 2
;
_chemical_formula_sum "Si O2"
_cell_formula_units_Z 64
_cell_length_a 30.628933
_cell_length_b 8.228039
_cell_length_c 12.517531
_cell_angle_alpha 90.000000
_cell_angle_beta 90.000000
_cell_angle_gamma 90.000000
_cell_volume 3154.618784
_symmetry_space_group_name_H-M "A B A 2"
_symmetry_group_IT_number 41
_symmetry_cell_setting 'orthorhombic'
loop_
_space_group_symop_operation_xyz
x,y,z
-x,-y,z
1/2-x,y,1/2+z
1/2+x,-y,1/2+z
x,1/2+y,1/2+z
-x,1/2-y,1/2+z
1/2-x,1/2+y,z
1/2+x,1/2-y,z
loop_
_atom_site_type_symbol
_atom_site_label
_atom_site_fract_x
_atom_site_fract_y
_atom_site_fract_z
Si Si1 0.696107 0.862555 0.949730
Si Si2 0.951015 0.451830 0.252268
Si Si3 0.106150 0.746075 0.682947
Si Si4 0.097021 0.567931 0.903202
Si Si5 0.232828 0.437025 0.575814
Si Si6 0.021920 0.181128 0.543817
Si Si7 0.067943 0.205186 0.964850
Si Si8 0.296767 0.234558 0.706701
O O1 0.645444 0.913091 0.951620
O O2 0.707629 0.828501 0.826647
O O3 0.704477 0.697960 0.016248
O O4 0.729194 0.994632 0.998397
O O5 0.926704 0.602690 0.196958
O O6 0.958138 0.310436 0.163253
O O7 0.926996 0.403840 0.360497
O O8 0.000000 0.500000 0.282825
O O9 0.099049 0.620265 0.779618
O O10 0.097273 0.668805 0.567689
O O11 0.155379 0.810590 0.693765
O O12 0.061734 0.682889 0.961447
O O13 0.080478 0.386151 0.924650
O O14 0.258234 0.354310 0.674226
O O15 0.205923 0.586408 0.622920
O O16 0.982091 0.294314 0.508165
O O17 0.000000 0.000000 0.541604
#
# Coordination Sequence:
#
# PCOD9366665 Si02
#       8
#     8   8   8   8   8   8   8   8
#     4  10  21  39  62  87 120 156 198 246 299 356
#     4  11  21  41  63  86 120 163 201 245 303 348
#     4  11  22  40  59  91 124 154 198 253 295 355
#     4  10  21  40  61  85 122 158 196 248 297 347
#     4  10  21  39  63  87 117 159 197 242 308 357
#     4   9  18  37  62  78 118 155 194 239 287 344
#     4  11  22  41  61  86 121 161 199 247 296 355
#     4  10  22  39  61  88 122 152 200 248 296 358
#
# _framework density 20.287713
#
# number of rings (size 3 to 8) (size 9 to 14) (size 15 to 20)
#    0.000    1.750    3.750    2.250    0.000    2.000 
#    9.000    1.250    0.000    0.000    0.000    0.000 
#    0.000    0.000    0.000    0.000    0.000    0.000 
#
# Total GULP energy -178682.012569 kJ/mol
# GULP energy per Si atom -5583.812893 kJ/mol
# Density = 2.024154 g / cm^3
# Si number density = 20.287713 Si / 1000 Ang^3
#
#
#
# Elastic Constant Matrix: (Units=GPa)
#
#
# Indices 1 2 3 4 5 6 
#
# 1 70.2283 19.2566 19.0954 0.0000 0.0000 0.0000
# 2 19.2566 34.7340 -2.7432 0.0000 0.0000 0.0000
# 3 19.0954 -2.7432 84.4346 0.0000 0.0000 0.0000
# 4 0.0000 0.0000 0.0000 13.6293 0.0000 0.0000
# 5 0.0000 0.0000 0.0000 0.0000 -96.3497 0.0000
# 6 0.0000 0.0000 0.0000 0.0000 0.0000 15.2165
#
#
#
# Elastic Compliance Matrix: (Units=1/GPa)
#
#
# Indices 1 2 3 4 5 6 
#
# 1 0.018347 -0.010526 -0.004491 0.000000 0.000000 0.000000
# 2 -0.010526 0.034904 0.003515 0.000000 0.000000 0.000000
# 3 -0.004491 0.003515 0.012973 0.000000 0.000000 0.000000
# 4 0.000000 0.000000 0.000000 0.073371 0.000000 0.000000
# 5 0.000000 0.000000 0.000000 0.000000 -0.010379 0.000000
# 6 0.000000 0.000000 0.000000 0.000000 0.000000 0.065718
#
#
# Mechanical properties :
#
#
# Convention : Reuss Voigt Hill
#
# Bulk Modulus (GPa) = 23.13849 28.95716 26.04782
# Shear Modulus (GPa) = 21.51963 -3.24825 9.13569
#
# Velocity S-wave (km/s) = 3.26041 -1.26671 2.12435
# Velocity P-wave (km/s) = 5.06000 3.48781 4.34560
#
# Compressibility (1/GPa) = 0.04321803
#
# Stress axis : x y z
#
# Youngs Moduli (GPa) = 54.50563 28.65036 77.08085
#
# Poissons Ratio (x) = 0.30158 0.34619
# Poissons Ratio (y) = 0.57374 -0.27091
# Poissons Ratio (z) = 0.24480 -0.10069
#
# Static dielectric constant tensor:
#      x y z
#    x 1.697770 0.000000 0.000000 
#    y 0.000000 1.736680 0.000000 
#    z 0.000000 0.000000 1.726770 
# 
# From -- ./inp_files/6672.got.cif
#   From: 2010.05.17/outbox.cif.g08.bks.cpg/sg41_4_cif.got.tgz:6672.got - 2010.06.03 18:54:24.
