data_PCOD9366702
_publ_section_title
;
Structure prediction by ZEFSAII (Michael W. Deem and Ramdas Pophale) SiO2 
 PCOD9366702
Probable space group: A B A 2
;
_chemical_formula_sum "Si O2"
_cell_formula_units_Z 64
_cell_length_a 15.223082
_cell_length_b 23.473342
_cell_length_c 6.883311
_cell_angle_alpha 90.000000
_cell_angle_beta 90.000000
_cell_angle_gamma 90.000000
_cell_volume 2459.659019
_symmetry_space_group_name_H-M "A B A 2"
_symmetry_group_IT_number 41
_symmetry_cell_setting 'orthorhombic'
loop_
_space_group_symop_operation_xyz
x,y,z
-x,-y,z
1/2-x,y,1/2+z
1/2+x,-y,1/2+z
x,1/2+y,1/2+z
-x,1/2-y,1/2+z
1/2-x,1/2+y,z
1/2+x,1/2-y,z
loop_
_atom_site_type_symbol
_atom_site_label
_atom_site_fract_x
_atom_site_fract_y
_atom_site_fract_z
Si Si1 0.642736 0.630010 0.251300
Si Si2 0.257261 0.680874 0.622458
Si Si3 0.844016 0.112257 0.799795
Si Si4 0.887009 0.724033 0.168863
Si Si5 0.101081 0.007677 0.864367
Si Si6 0.898919 0.504836 0.828256
Si Si7 0.251435 0.591807 0.367334
Si Si8 0.916068 0.244316 0.118325
O O1 0.745835 0.635501 0.286107
O O2 0.621794 0.571228 0.357680
O O3 0.603171 0.693078 0.267937
O O4 0.623247 0.617012 0.022044
O O5 0.192777 0.735943 0.600207
O O6 0.235018 0.609051 0.615889
O O7 0.232548 0.664238 0.871836
O O8 0.358048 0.700498 0.666110
O O9 0.890567 0.155266 0.651644
O O10 0.847154 0.044803 0.766012
O O11 0.883611 0.728874 0.403660
O O12 0.980365 0.748627 0.108235
O O13 0.154386 0.064960 0.828875
O O14 0.000000 0.000000 0.806946
O O15 0.102190 0.002761 0.096091
O O16 0.827722 0.457113 0.893546
O O17 0.000000 0.500000 0.893092
#
# Coordination Sequence:
#
# PCOD9366702 Si02
#       8
#     8   8   8   8   8   8   8   8
#     4  10  21  39  66  90 126 168 221 267 329 397
#     4  12  26  43  67  97 141 180 227 282 346 408
#     4  10  21  40  64  92 126 169 218 268 330 395
#     4  11  26  44  68 100 134 179 228 282 342 409
#     4  10  22  40  66  97 131 175 222 274 339 404
#     4  10  22  41  67  97 131 176 221 277 338 404
#     4  12  24  42  69  96 135 182 226 279 342 411
#     4  11  26  43  67 101 134 179 225 281 346 404
#
# _framework density 26.019867000000001
#
# number of rings (size 3 to 8) (size 9 to 14) (size 15 to 20)
#    0.000    1.250    5.000    0.000    5.250    2.000 
#    0.000    0.625    0.000    0.000    0.000    0.000 
#    0.000    0.000    0.000    0.000    0.000    0.000 
#
# Total GULP energy -178666.785916 kJ/mol
# GULP energy per Si atom -5583.337060 kJ/mol
# Density = 2.596064 g / cm^3
# Si number density = 26.019867 Si / 1000 Ang^3
#
#
#
# Elastic Constant Matrix: (Units=GPa)
#
#
# Indices 1 2 3 4 5 6 
#
# 1 97.8545 35.4083 1.0928 0.0000 0.0000 0.0000
# 2 35.4083 156.8871 52.3192 0.0000 0.0000 0.0000
# 3 1.0928 52.3192 155.6109 0.0000 0.0000 0.0000
# 4 0.0000 0.0000 0.0000 60.8370 0.0000 0.0000
# 5 0.0000 0.0000 0.0000 0.0000 25.1612 0.0000
# 6 0.0000 0.0000 0.0000 0.0000 0.0000 28.3199
#
#
#
# Elastic Compliance Matrix: (Units=1/GPa)
#
#
# Indices 1 2 3 4 5 6 
#
# 1 0.011232 -0.002825 0.000871 0.000000 0.000000 0.000000
# 2 -0.002825 0.007890 -0.002633 0.000000 0.000000 0.000000
# 3 0.000871 -0.002633 0.007305 0.000000 0.000000 0.000000
# 4 0.000000 0.000000 0.000000 0.016437 0.000000 0.000000
# 5 0.000000 0.000000 0.000000 0.000000 0.039744 0.000000
# 6 0.000000 0.000000 0.000000 0.000000 0.000000 0.035311
#
#
# Mechanical properties :
#
#
# Convention : Reuss Voigt Hill
#
# Bulk Modulus (GPa) = 57.96224 65.33257 61.64740
# Shear Modulus (GPa) = 37.63807 44.29908 40.96858
#
# Velocity S-wave (km/s) = 3.80743 4.13062 3.97232
# Velocity P-wave (km/s) = 6.45393 6.92190 6.69200
#
# Compressibility (1/GPa) = 0.01725261
#
# Stress axis : x y z
#
# Youngs Moduli (GPa) = 89.03207 126.74758 136.88561
#
# Poissons Ratio (x) = 0.35812 -0.11924
# Poissons Ratio (y) = 0.25156 0.36039
# Poissons Ratio (z) = -0.07756 0.33370
#
# Static dielectric constant tensor:
#      x y z
#    x 1.978560 0.000000 0.000000 
#    y 0.000000 1.822650 0.000000 
#    z 0.000000 0.000000 2.348780 
# 
# From -- ./inp_files/2821.got.cif
#   From: 2010.05.17/outbox.cif.g08.bks.cpg/sg41_2_cif.got.tgz:2821.got - 2010.06.03 18:54:24.
