data_PCOD9366439
_publ_section_title
;
Structure prediction by ZEFSAII (Michael W. Deem and Ramdas Pophale) SiO2 
 PCOD9366439
Probable space group: A B A 2
;
_chemical_formula_sum "Si O2"
_cell_formula_units_Z 48
_cell_length_a 19.780740
_cell_length_b 12.839340
_cell_length_c 7.977843
_cell_angle_alpha 90.000000
_cell_angle_beta 90.000000
_cell_angle_gamma 90.000000
_cell_volume 2026.145921
_symmetry_space_group_name_H-M "A B A 2"
_symmetry_group_IT_number 41
_symmetry_cell_setting 'orthorhombic'
loop_
_space_group_symop_operation_xyz
x,y,z
-x,-y,z
1/2-x,y,1/2+z
1/2+x,-y,1/2+z
x,1/2+y,1/2+z
-x,1/2-y,1/2+z
1/2-x,1/2+y,z
1/2+x,1/2-y,z
loop_
_atom_site_type_symbol
_atom_site_label
_atom_site_fract_x
_atom_site_fract_y
_atom_site_fract_z
Si Si1 0.215857 0.746454 0.892480
Si Si2 0.569365 0.057232 0.517043
Si Si3 0.089806 0.230729 0.633153
Si Si4 0.186382 0.883225 0.590319
Si Si5 0.172857 0.574370 0.341566
Si Si6 0.538616 0.607356 0.626612
O O1 0.191563 0.783571 0.712610
O O2 0.264814 0.647759 0.884986
O O3 0.150808 0.719533 0.001161
O O4 0.257285 0.848787 0.957867
O O5 0.585074 0.146094 0.650023
O O6 0.556950 0.104711 0.327334
O O7 0.500000 0.000000 0.559609
O O8 0.635457 0.986457 0.490782
O O9 0.114118 0.153250 0.777555
O O10 0.014934 0.195519 0.582673
O O11 0.109166 0.886160 0.531109
O O12 0.192788 0.990628 0.696367
O O13 0.500000 0.500000 0.593001
#
# Coordination Sequence:
#
# PCOD9366439 Si02
#       6
#     8   8   8   8   8   8
#     4  12  26  43  70 105 135 182 230 281 345 417
#     4  10  21  42  68  97 135 179 221 282 344 406
#     4  12  22  41  73  98 131 181 231 273 346 411
#     4  11  25  45  68 102 137 179 232 279 345 409
#     4  11  24  44  68  96 143 177 220 287 345 397
#     4  10  20  41  66  93 133 177 219 278 337 397
#
# _framework density 23.690297000000001
#
# number of rings (size 3 to 8) (size 9 to 14) (size 15 to 20)
#    0.000    1.000   10.000    0.000    4.667    0.000 
#    0.000    0.000    3.667    0.000    0.000    0.000 
#    0.000    0.000    0.000    0.000    0.000    0.000 
#
# Total GULP energy -134158.803304 kJ/mol
# GULP energy per Si atom -5589.950138 kJ/mol
# Density = 2.363638 g / cm^3
# Si number density = 23.690297 Si / 1000 Ang^3
#
#
#
# Elastic Constant Matrix: (Units=GPa)
#
#
# Indices 1 2 3 4 5 6 
#
# 1 114.3345 42.4229 18.8818 0.0000 0.0000 0.0000
# 2 42.4229 138.9607 30.3668 0.0000 0.0000 0.0000
# 3 18.8818 30.3668 31.9056 0.0000 0.0000 0.0000
# 4 0.0000 0.0000 0.0000 2.7923 0.0000 0.0000
# 5 0.0000 0.0000 0.0000 0.0000 -7.1829 0.0000
# 6 0.0000 0.0000 0.0000 0.0000 0.0000 61.4030
#
#
#
# Elastic Compliance Matrix: (Units=1/GPa)
#
#
# Indices 1 2 3 4 5 6 
#
# 1 0.010233 -0.002273 -0.003892 0.000000 0.000000 0.000000
# 2 -0.002273 0.009591 -0.007783 0.000000 0.000000 0.000000
# 3 -0.003892 -0.007783 0.041053 0.000000 0.000000 0.000000
# 4 0.000000 0.000000 0.000000 0.358122 0.000000 0.000000
# 5 0.000000 0.000000 0.000000 0.000000 -0.139220 0.000000
# 6 0.000000 0.000000 0.000000 0.000000 0.000000 0.016286
#
#
# Mechanical properties :
#
#
# Convention : Reuss Voigt Hill
#
# Bulk Modulus (GPa) = 30.32118 52.06041 41.19079
# Shear Modulus (GPa) = 14.92733 24.30445 19.61589
#
# Velocity S-wave (km/s) = 2.51291 3.20648 2.88064
# Velocity P-wave (km/s) = 4.60938 5.97761 5.33752
#
# Compressibility (1/GPa) = 0.03298025
#
# Stress axis : x y z
#
# Youngs Moduli (GPa) = 97.72777 104.26270 24.35846
#
# Poissons Ratio (x) = 0.23703 0.09480
# Poissons Ratio (y) = 0.22217 0.18959
# Poissons Ratio (z) = 0.38035 0.81150
#
# Static dielectric constant tensor:
#      x y z
#    x 2.209800 0.000000 0.000000 
#    y 0.000000 1.915620 0.000000 
#    z 0.000000 0.000000 1.920490 
# 
# From -- ./inp_files/6189.got.cif
#   From: 2010.05.17/outbox.cif.g08.bks.cpg/sg41_4_cif.got.tgz:6189.got - 2010.06.03 18:54:24.
