data_PCOD9366948
_publ_section_title
;
Structure prediction by ZEFSAII (Michael W. Deem and Ramdas Pophale) SiO2 
 PCOD9366948
Probable space group: A B A 2
;
_chemical_formula_sum "Si O2"
_cell_formula_units_Z 56
_cell_length_a 10.085965
_cell_length_b 15.478640
_cell_length_c 13.486100
_cell_angle_alpha 90.000000
_cell_angle_beta 90.000000
_cell_angle_gamma 90.000000
_cell_volume 2105.409761
_symmetry_space_group_name_H-M "A B A 2"
_symmetry_group_IT_number 41
_symmetry_cell_setting 'orthorhombic'
loop_
_space_group_symop_operation_xyz
x,y,z
-x,-y,z
1/2-x,y,1/2+z
1/2+x,-y,1/2+z
x,1/2+y,1/2+z
-x,1/2-y,1/2+z
1/2-x,1/2+y,z
1/2+x,1/2-y,z
loop_
_atom_site_type_symbol
_atom_site_label
_atom_site_fract_x
_atom_site_fract_y
_atom_site_fract_z
Si Si1 0.278143 0.047149 0.872020
Si Si2 0.624263 0.088462 0.267620
Si Si3 0.404358 0.605244 0.188204
Si Si4 0.142069 0.425161 0.044972
Si Si5 0.860611 0.264022 0.849000
Si Si6 0.605913 0.852458 0.140734
Si Si7 0.401844 0.824156 0.542498
O O1 0.152047 0.986057 0.846647
O O2 0.371822 0.035587 0.774205
O O3 0.272334 0.152238 0.884938
O O4 0.338784 0.998937 0.965590
O O5 0.698400 0.177146 0.298226
O O6 0.668546 0.052368 0.160299
O O7 0.556666 0.221220 0.439008
O O8 0.258650 0.621954 0.142447
O O9 0.435879 0.686607 0.260721
O O10 0.506845 0.604448 0.096935
O O11 0.253679 0.355627 0.021182
O O12 0.995221 0.387705 0.056750
O O13 0.025664 0.118921 0.739759
O O14 0.608293 0.752087 0.120475
#
# Coordination Sequence:
#
# PCOD9366948 Si02
#       7
#     8   8   8   8   8   8   8
#     4  10  23  50  77 127 165 230 290 372 445 539
#     4  10  21  49  78 112 172 230 281 367 443 534
#     4  10  24  48  78 122 168 219 292 356 445 532
#     4  10  24  46  82 116 173 220 288 365 451 518
#     4  10  23  46  78 125 161 230 287 362 442 549
#     4  10  22  46  76 116 164 227 281 362 439 524
#     4  12  21  47  82 125 161 227 290 368 448 536
#
# _framework density 26.598147000000001
#
# number of rings (size 3 to 8) (size 9 to 14) (size 15 to 20)
#    1.714    0.000    2.857    1.714    0.000    1.714 
#   10.286    2.143    3.143    1.714    0.000    0.000 
#    0.000    0.000    0.000    0.000    0.000    0.000 
#
# Total GULP energy -155978.698969 kJ/mol
# GULP energy per Si atom -5570.667820 kJ/mol
# Density = 2.653761 g / cm^3
# Si number density = 26.598147 Si / 1000 Ang^3
#
#
#
# Elastic Constant Matrix: (Units=GPa)
#
#
# Indices 1 2 3 4 5 6 
#
# 1 108.6626 15.8362 50.5917 0.0000 0.0000 0.0000
# 2 15.8362 103.1435 32.4798 0.0000 0.0000 0.0000
# 3 50.5917 32.4798 122.3698 0.0000 0.0000 0.0000
# 4 0.0000 0.0000 0.0000 40.2440 0.0000 0.0000
# 5 0.0000 0.0000 0.0000 0.0000 22.3493 0.0000
# 6 0.0000 0.0000 0.0000 0.0000 0.0000 22.2411
#
#
#
# Elastic Compliance Matrix: (Units=1/GPa)
#
#
# Indices 1 2 3 4 5 6 
#
# 1 0.011404 -0.000291 -0.004638 0.000000 0.000000 0.000000
# 2 -0.000291 0.010587 -0.002690 0.000000 0.000000 0.000000
# 3 -0.004638 -0.002690 0.010803 0.000000 0.000000 0.000000
# 4 0.000000 0.000000 0.000000 0.024848 0.000000 0.000000
# 5 0.000000 0.000000 0.000000 0.000000 0.044744 0.000000
# 6 0.000000 0.000000 0.000000 0.000000 0.000000 0.044962
#
#
# Mechanical properties :
#
#
# Convention : Reuss Voigt Hill
#
# Bulk Modulus (GPa) = 56.95369 59.11014 58.03192
# Shear Modulus (GPa) = 29.68445 32.65143 31.16794
#
# Velocity S-wave (km/s) = 3.34433 3.50749 3.42688
# Velocity P-wave (km/s) = 6.03091 6.21892 6.12564
#
# Compressibility (1/GPa) = 0.01755813
#
# Stress axis : x y z
#
# Youngs Moduli (GPa) = 87.68495 94.45654 92.56382
#
# Poissons Ratio (x) = 0.02744 0.42930
# Poissons Ratio (y) = 0.02548 0.24899
# Poissons Ratio (z) = 0.40667 0.25408
#
# Static dielectric constant tensor:
#      x y z
#    x 2.209410 0.000000 0.000000 
#    y 0.000000 2.163900 0.000000 
#    z 0.000000 0.000000 2.132020 
# 
# From -- ./inp_files/8482.got.cif
#   From: 2010.05.17/outbox.cif.g08.bks.cpg/sg41_5_cif.got.tgz:8482.got - 2010.06.03 18:54:24.
