data_PCOD9366729
_publ_section_title
;
Structure prediction by ZEFSAII (Michael W. Deem and Ramdas Pophale) SiO2 
 PCOD9366729
Probable space group: A B A 2
;
_chemical_formula_sum "Si O2"
_cell_formula_units_Z 40
_cell_length_a 8.409270
_cell_length_b 16.693432
_cell_length_c 15.142864
_cell_angle_alpha 90.000000
_cell_angle_beta 90.000000
_cell_angle_gamma 90.000000
_cell_volume 2125.748842
_symmetry_space_group_name_H-M "A B A 2"
_symmetry_group_IT_number 41
_symmetry_cell_setting 'orthorhombic'
loop_
_space_group_symop_operation_xyz
x,y,z
-x,-y,z
1/2-x,y,1/2+z
1/2+x,-y,1/2+z
x,1/2+y,1/2+z
-x,1/2-y,1/2+z
1/2-x,1/2+y,z
1/2+x,1/2-y,z
loop_
_atom_site_type_symbol
_atom_site_label
_atom_site_fract_x
_atom_site_fract_y
_atom_site_fract_z
Si Si1 0.918151 0.586672 0.177730
Si Si2 0.102868 0.750179 0.454301
Si Si3 0.318044 0.481385 0.035954
Si Si4 0.840777 0.846404 0.552280
Si Si5 0.356903 0.364383 0.874285
O O1 0.778171 0.574718 0.105123
O O2 0.857063 0.611878 0.272902
O O3 0.000000 0.500000 0.186688
O O4 0.056874 0.645123 0.141377
O O5 0.194083 0.714560 0.540335
O O6 0.225783 0.797304 0.394153
O O7 0.968181 0.812563 0.482898
O O8 0.022775 0.675879 0.404283
O O9 0.500000 0.500000 0.063941
O O10 0.223460 0.565019 0.031182
O O11 0.325250 0.437307 0.941692
#
# Coordination Sequence:
#
# PCOD9366729 Si02
#       5
#     8   8   8   8   8
#     4  10  23  40  62  95 120 164 218 257 301 371
#     4  10  22  39  64  93 122 169 202 254 326 362
#     4  11  21  42  65  88 126 169 211 256 305 369
#     4  10  21  40  64  89 125 162 208 255 311 368
#     4  11  22  42  63  91 129 167 209 257 314 371
#
# _framework density 18.816897999999998
#
# number of rings (size 3 to 8) (size 9 to 14) (size 15 to 20)
#    0.000    1.600    4.000    0.600    0.000    1.600 
#    3.600    2.000    0.000    0.000    0.000    0.000 
#    0.000    0.000    0.000    0.000    0.000    0.000 
#
# Total GULP energy -111549.355961 kJ/mol
# GULP energy per Si atom -5577.467798 kJ/mol
# Density = 1.877407 g / cm^3
# Si number density = 18.816898 Si / 1000 Ang^3
#
#
#
# Elastic Constant Matrix: (Units=GPa)
#
#
# Indices 1 2 3 4 5 6 
#
# 1 99.1892 47.1136 46.4743 0.0000 0.0000 0.0000
# 2 47.1136 72.7511 50.2329 0.0000 0.0000 0.0000
# 3 46.4743 50.2329 118.4501 0.0000 0.0000 0.0000
# 4 0.0000 0.0000 0.0000 25.0467 0.0000 0.0000
# 5 0.0000 0.0000 0.0000 0.0000 10.6803 0.0000
# 6 0.0000 0.0000 0.0000 0.0000 0.0000 33.7458
#
#
#
# Elastic Compliance Matrix: (Units=1/GPa)
#
#
# Indices 1 2 3 4 5 6 
#
# 1 0.015070 -0.008027 -0.002509 0.000000 0.000000 0.000000
# 2 -0.008027 0.023713 -0.006907 0.000000 0.000000 0.000000
# 3 -0.002509 -0.006907 0.012356 0.000000 0.000000 0.000000
# 4 0.000000 0.000000 0.000000 0.039925 0.000000 0.000000
# 5 0.000000 0.000000 0.000000 0.000000 0.093631 0.000000
# 6 0.000000 0.000000 0.000000 0.000000 0.000000 0.029633
#
#
# Mechanical properties :
#
#
# Convention : Reuss Voigt Hill
#
# Bulk Modulus (GPa) = 61.52538 64.22580 62.87559
# Shear Modulus (GPa) = 19.63631 23.66587 21.65109
#
# Velocity S-wave (km/s) = 3.23390 3.55024 3.39576
# Velocity P-wave (km/s) = 6.83462 7.14225 6.99013
#
# Compressibility (1/GPa) = 0.01625346
#
# Stress axis : x y z
#
# Youngs Moduli (GPa) = 66.35748 42.17124 80.93459
#
# Poissons Ratio (x) = 0.33852 0.20303
# Poissons Ratio (y) = 0.53266 0.55900
# Poissons Ratio (z) = 0.16646 0.29127
#
# Static dielectric constant tensor:
#      x y z
#    x 1.692050 0.000000 0.000000 
#    y 0.000000 1.662330 0.000000 
#    z 0.000000 0.000000 1.618960 
# 
# From -- ./inp_files/4360.got.cif
#   From: 2010.05.17/outbox.cif.g08.bks.cpg/sg41_3_cif.got.tgz:4360.got - 2010.06.03 18:54:24.
