data_PCOD9366869
_publ_section_title
;
Structure prediction by ZEFSAII (Michael W. Deem and Ramdas Pophale) SiO2 
 PCOD9366869
Probable space group: A B A 2
;
_chemical_formula_sum "Si O2"
_cell_formula_units_Z 60
_cell_length_a 11.902248
_cell_length_b 18.540455
_cell_length_c 12.037290
_cell_angle_alpha 90.000000
_cell_angle_beta 90.000000
_cell_angle_gamma 90.000000
_cell_volume 2656.306021
_symmetry_space_group_name_H-M "A B A 2"
_symmetry_group_IT_number 41
_symmetry_cell_setting 'orthorhombic'
loop_
_space_group_symop_operation_xyz
x,y,z
-x,-y,z
1/2-x,y,1/2+z
1/2+x,-y,1/2+z
x,1/2+y,1/2+z
-x,1/2-y,1/2+z
1/2-x,1/2+y,z
1/2+x,1/2-y,z
loop_
_atom_site_type_symbol
_atom_site_label
_atom_site_fract_x
_atom_site_fract_y
_atom_site_fract_z
Si Si1 0.732682 0.280873 0.697820
Si Si2 0.000000 0.500000 0.433949
Si Si3 0.169883 0.609857 0.028318
Si Si4 0.784470 0.529111 0.593522
Si Si5 0.082980 0.868594 0.505356
Si Si6 0.048557 0.708730 0.603133
Si Si7 0.871425 0.370465 0.381645
Si Si8 0.354748 0.356337 0.250586
O O1 0.688994 0.309504 0.577877
O O2 0.857819 0.311668 0.694402
O O3 0.645597 0.315824 0.782670
O O4 0.747834 0.198953 0.737364
O O5 0.106271 0.477923 0.512457
O O6 0.047928 0.563255 0.357642
O O7 0.228127 0.549231 0.105044
O O8 0.245891 0.605809 0.918117
O O9 0.039052 0.594929 0.017112
O O10 0.688317 0.583055 0.545570
O O11 0.826159 0.564549 0.707620
O O12 0.069609 0.791886 0.569009
O O13 0.101505 0.854416 0.374723
O O14 0.073501 0.665321 0.490563
O O15 0.935200 0.681889 0.659285
#
# Coordination Sequence:
#
# PCOD9366869 Si02
#       8
#     8   4   8   8   8   8   8   8
#     4  11  22  41  67 103 137 179 229 282 349 408
#     4  10  22  46  70  94 140 188 224 286 338 412
#     4  10  24  44  68  96 143 183 224 289 341 411
#     4  11  25  47  67 101 142 181 235 287 342 414
#     4  12  24  44  71 103 140 180 231 291 346 414
#     4  11  22  41  67 101 142 173 227 288 342 410
#     4  10  21  42  68  98 135 181 229 274 344 407
#     4  12  24  43  72 103 135 185 234 286 350 418
#
# _framework density 22.587759999999999
#
# number of rings (size 3 to 8) (size 9 to 14) (size 15 to 20)
#    0.000    1.067    5.333    1.200    0.000    2.133 
#   12.000    0.000    0.000    0.000    0.000    0.000 
#    0.000    0.000    0.000    0.000    0.000    0.000 
#
# Total GULP energy -167397.294774 kJ/mol
# GULP energy per Si atom -5579.909826 kJ/mol
# Density = 2.253635 g / cm^3
# Si number density = 22.587760 Si / 1000 Ang^3
#
#
#
# Elastic Constant Matrix: (Units=GPa)
#
#
# Indices 1 2 3 4 5 6 
#
# 1 91.5843 19.6884 10.5293 0.0000 0.0000 0.0000
# 2 19.6884 87.1371 9.6708 0.0000 0.0000 0.0000
# 3 10.5293 9.6708 61.3327 0.0000 0.0000 0.0000
# 4 0.0000 0.0000 0.0000 28.4072 0.0000 0.0000
# 5 0.0000 0.0000 0.0000 0.0000 16.6480 0.0000
# 6 0.0000 0.0000 0.0000 0.0000 0.0000 37.3116
#
#
#
# Elastic Compliance Matrix: (Units=1/GPa)
#
#
# Indices 1 2 3 4 5 6 
#
# 1 0.011631 -0.002449 -0.001611 0.000000 0.000000 0.000000
# 2 -0.002449 0.012196 -0.001503 0.000000 0.000000 0.000000
# 3 -0.001611 -0.001503 0.016818 0.000000 0.000000 0.000000
# 4 0.000000 0.000000 0.000000 0.035202 0.000000 0.000000
# 5 0.000000 0.000000 0.000000 0.000000 0.060067 0.000000
# 6 0.000000 0.000000 0.000000 0.000000 0.000000 0.026801
#
#
# Mechanical properties :
#
#
# Convention : Reuss Voigt Hill
#
# Bulk Modulus (GPa) = 33.87505 35.53677 34.70591
# Shear Modulus (GPa) = 27.22121 29.81774 28.51948
#
# Velocity S-wave (km/s) = 3.47527 3.63724 3.55717
# Velocity P-wave (km/s) = 5.57969 5.77981 5.68063
#
# Compressibility (1/GPa) = 0.02952025
#
# Stress axis : x y z
#
# Youngs Moduli (GPa) = 85.98032 81.99205 59.46032
#
# Poissons Ratio (x) = 0.20081 0.09576
# Poissons Ratio (y) = 0.21058 0.08935
# Poissons Ratio (z) = 0.13847 0.12320
#
# Static dielectric constant tensor:
#      x y z
#    x 1.867040 0.000000 0.000000 
#    y 0.000000 1.983590 0.000000 
#    z 0.000000 0.000000 1.819910 
# 
# From -- ./inp_files/5143.got.cif
#   From: 2010.05.17/outbox.cif.g08.bks.cpg/sg41_3_cif.got.tgz:5143.got - 2010.06.03 18:54:24.
