data_PCOD9366806
_publ_section_title
;
Structure prediction by ZEFSAII (Michael W. Deem and Ramdas Pophale) SiO2 
 PCOD9366806
Probable space group: A B A 2
;
_chemical_formula_sum "Si O2"
_cell_formula_units_Z 56
_cell_length_a 5.360321
_cell_length_b 17.388729
_cell_length_c 31.254770
_cell_angle_alpha 90.000000
_cell_angle_beta 90.000000
_cell_angle_gamma 90.000000
_cell_volume 2913.231146
_symmetry_space_group_name_H-M "A B A 2"
_symmetry_group_IT_number 41
_symmetry_cell_setting 'orthorhombic'
loop_
_space_group_symop_operation_xyz
x,y,z
-x,-y,z
1/2-x,y,1/2+z
1/2+x,-y,1/2+z
x,1/2+y,1/2+z
-x,1/2-y,1/2+z
1/2-x,1/2+y,z
1/2+x,1/2-y,z
loop_
_atom_site_type_symbol
_atom_site_label
_atom_site_fract_x
_atom_site_fract_y
_atom_site_fract_z
Si Si1 0.047530 0.301131 0.773600
Si Si2 0.199380 0.203047 0.027783
Si Si3 0.375463 0.083990 0.701881
Si Si4 0.500000 0.000000 0.399625
Si Si5 0.500000 0.500000 0.756599
Si Si6 0.745822 0.458001 0.983831
Si Si7 0.781158 0.798619 0.128913
Si Si8 0.681071 0.568436 0.332251
O O1 0.302838 0.252611 0.772612
O O2 0.052571 0.353499 0.816788
O O3 0.025684 0.357453 0.732495
O O4 0.426248 0.261902 0.019530
O O5 0.244895 0.128470 0.999533
O O6 0.211789 0.183465 0.078367
O O7 0.318519 0.126736 0.657930
O O8 0.500000 0.000000 0.696424
O O9 0.123928 0.064757 0.727721
O O10 0.297478 0.033722 0.432770
O O11 0.609579 0.066544 0.368950
O O12 0.697941 0.536949 0.788524
O O13 0.500000 0.500000 0.002573
O O14 0.000000 0.500000 0.996030
O O15 0.515781 0.757919 0.138053
O O16 0.500000 0.500000 0.346134
#
# Coordination Sequence:
#
# PCOD9366806 Si02
#       8
#     8   8   8   4   4   8   8   8
#     4  12  25  40  61  90 125 167 214 262 318 373
#     4  10  21  42  69  96 134 176 208 256 330 394
#     4  12  24  39  61  92 127 172 220 272 312 375
#     4   9  24  38  72  90 128 164 214 262 332 373
#     4  11  20  38  62  90 120 166 222 258 322 357
#     4  10  21  41  66 102 127 162 219 263 321 390
#     4  10  24  43  62  93 133 175 212 259 322 377
#     4  11  21  42  66  86 126 169 215 263 317 388
#
# _framework density 19.222642
#
# number of rings (size 3 to 8) (size 9 to 14) (size 15 to 20)
#    0.429    0.857    2.857    3.000    4.000    0.571 
#    1.286    1.429    0.000    0.000    0.000    0.000 
#    0.000    0.000    0.000    0.000    0.000    0.000 
#
# Total GULP energy -156248.654348 kJ/mol
# GULP energy per Si atom -5580.309084 kJ/mol
# Density = 1.917889 g / cm^3
# Si number density = 19.222642 Si / 1000 Ang^3
#
#
#
# Elastic Constant Matrix: (Units=GPa)
#
#
# Indices 1 2 3 4 5 6 
#
# 1 110.0721 40.0219 24.4497 0.0000 0.0000 0.0000
# 2 40.0219 108.1498 56.5456 0.0000 0.0000 0.0000
# 3 24.4497 56.5456 63.2569 0.0000 0.0000 0.0000
# 4 0.0000 0.0000 0.0000 13.6062 0.0000 0.0000
# 5 0.0000 0.0000 0.0000 0.0000 -40.9795 0.0000
# 6 0.0000 0.0000 0.0000 0.0000 0.0000 41.6578
#
#
#
# Elastic Compliance Matrix: (Units=1/GPa)
#
#
# Indices 1 2 3 4 5 6 
#
# 1 0.010538 -0.003323 -0.001102 0.000000 0.000000 0.000000
# 2 -0.003323 0.018408 -0.015171 0.000000 0.000000 0.000000
# 3 -0.001102 -0.015171 0.029796 0.000000 0.000000 0.000000
# 4 0.000000 0.000000 0.000000 0.073496 0.000000 0.000000
# 5 0.000000 0.000000 0.000000 0.000000 -0.024402 0.000000
# 6 0.000000 0.000000 0.000000 0.000000 0.000000 0.024005
#
#
# Mechanical properties :
#
#
# Convention : Reuss Voigt Hill
#
# Bulk Modulus (GPa) = 51.15262 58.16811 54.66037
# Shear Modulus (GPa) = 28.16110 13.55433 20.85771
#
# Velocity S-wave (km/s) = 3.83168 2.65830 3.29760
# Velocity P-wave (km/s) = 6.80030 6.30460 6.55713
#
# Compressibility (1/GPa) = 0.01954934
#
# Stress axis : x y z
#
# Youngs Moduli (GPa) = 94.89290 54.32382 33.56196
#
# Poissons Ratio (x) = 0.18054 0.03700
# Poissons Ratio (y) = 0.31537 0.50915
# Poissons Ratio (z) = 0.10461 0.82412
#
# Static dielectric constant tensor:
#      x y z
#    x 1.738140 0.000000 0.000000 
#    y 0.000000 1.592590 0.000000 
#    z 0.000000 0.000000 1.649190 
# 
# From -- ./inp_files/12641.got.cif
#   From: 2010.05.17/outbox.cif.g08.bks.cpg/sg41_7_cif.got.tgz:12641.got - 2010.06.03 18:54:24.
