data_PCOD9366979
_publ_section_title
;
Structure prediction by ZEFSAII (Michael W. Deem and Ramdas Pophale) SiO2 
 PCOD9366979
Probable space group: A B A 2
;
_chemical_formula_sum "Si O2"
_cell_formula_units_Z 60
_cell_length_a 32.821010
_cell_length_b 5.436879
_cell_length_c 14.360572
_cell_angle_alpha 90.000000
_cell_angle_beta 90.000000
_cell_angle_gamma 90.000000
_cell_volume 2562.555900
_symmetry_space_group_name_H-M "A B A 2"
_symmetry_group_IT_number 41
_symmetry_cell_setting 'orthorhombic'
loop_
_space_group_symop_operation_xyz
x,y,z
-x,-y,z
1/2-x,y,1/2+z
1/2+x,-y,1/2+z
x,1/2+y,1/2+z
-x,1/2-y,1/2+z
1/2-x,1/2+y,z
1/2+x,1/2-y,z
loop_
_atom_site_type_symbol
_atom_site_label
_atom_site_fract_x
_atom_site_fract_y
_atom_site_fract_z
Si Si1 0.569377 0.324054 0.431320
Si Si2 0.000000 0.000000 0.945403
Si Si3 0.360048 0.065417 0.468514
Si Si4 0.259487 0.053582 0.258534
Si Si5 0.851781 0.913745 0.755235
Si Si6 0.227310 0.525509 0.555755
Si Si7 0.565660 0.712666 0.566924
Si Si8 0.399728 0.566743 0.241575
O O1 0.557010 0.437481 0.531322
O O2 0.582050 0.492091 0.343859
O O3 0.529977 0.181283 0.391863
O O4 0.608670 0.158343 0.452012
O O5 0.967376 0.858752 0.007750
O O6 0.348566 0.152158 0.365008
O O7 0.318708 0.005584 0.521209
O O8 0.388219 0.250242 0.527361
O O9 0.247236 0.299598 0.311456
O O10 0.305547 0.067560 0.221940
O O11 0.230397 0.036813 0.168463
O O12 0.877045 0.685877 0.711069
O O13 0.871425 0.186517 0.748267
O O14 0.252730 0.284890 0.526730
O O15 0.567227 0.830960 0.668340
#
# Coordination Sequence:
#
# PCOD9366979 Si02
#       8
#     8   4   8   8   8   8   8   8
#     4  10  23  49  71 106 145 188 232 302 361 434
#     4  10  24  48  68 110 146 178 232 290 364 432
#     4  10  24  42  69  97 140 186 242 292 363 422
#     4  10  22  38  58  89 133 178 230 293 360 402
#     4  11  24  44  66  99 142 183 242 304 354 429
#     4  10  24  37  59  96 131 178 239 287 356 411
#     4  11  24  44  76 101 144 188 234 296 356 443
#     4  11  26  43  75 107 135 190 244 284 364 432
#
# _framework density 23.414124999999999
#
# number of rings (size 3 to 8) (size 9 to 14) (size 15 to 20)
#    0.000    1.600    1.333    1.200   13.067    1.067 
#    4.800    0.000    0.000    0.000    0.000    0.000 
#    0.000    0.000    0.000    0.000    0.000    0.000 
#
# Total GULP energy -167375.450979 kJ/mol
# GULP energy per Si atom -5579.181699 kJ/mol
# Density = 2.336083 g / cm^3
# Si number density = 23.414125 Si / 1000 Ang^3
#
#
#
# Elastic Constant Matrix: (Units=GPa)
#
#
# Indices 1 2 3 4 5 6 
#
# 1 108.4606 22.6727 -2.7246 0.0000 0.0000 0.0000
# 2 22.6727 122.6728 -2.9076 0.0000 0.0000 0.0000
# 3 -2.7246 -2.9076 76.5411 0.0000 0.0000 0.0000
# 4 0.0000 0.0000 0.0000 -43.8461 0.0000 0.0000
# 5 0.0000 0.0000 0.0000 0.0000 3.6960 0.0000
# 6 0.0000 0.0000 0.0000 0.0000 0.0000 23.7810
#
#
#
# Elastic Compliance Matrix: (Units=1/GPa)
#
#
# Indices 1 2 3 4 5 6 
#
# 1 0.009596 -0.001767 0.000274 0.000000 0.000000 0.000000
# 2 -0.001767 0.008485 0.000259 0.000000 0.000000 0.000000
# 3 0.000274 0.000259 0.013084 0.000000 0.000000 0.000000
# 4 0.000000 0.000000 0.000000 -0.022807 0.000000 0.000000
# 5 0.000000 0.000000 0.000000 0.000000 0.270562 0.000000
# 6 0.000000 0.000000 0.000000 0.000000 0.000000 0.042050
#
#
# Mechanical properties :
#
#
# Convention : Reuss Voigt Hill
#
# Bulk Modulus (GPa) = 34.84470 37.97285 36.40878
# Shear Modulus (GPa) = 15.01487 16.10178 15.55833
#
# Velocity S-wave (km/s) = 2.53509 2.62524 2.58056
# Velocity P-wave (km/s) = 4.84594 5.04404 4.94598
#
# Compressibility (1/GPa) = 0.02869877
#
# Stress axis : x y z
#
# Youngs Moduli (GPa) = 104.20757 117.86181 76.42635
#
# Poissons Ratio (x) = 0.20827 -0.02098
# Poissons Ratio (y) = 0.18414 -0.01983
# Poissons Ratio (z) = -0.02860 -0.03057
#
# Static dielectric constant tensor:
#      x y z
#    x 1.827260 0.000000 0.000000 
#    y 0.000000 2.092520 0.000000 
#    z 0.000000 0.000000 1.897780 
# 
# From -- ./inp_files/10800.got.cif
#   From: 2010.05.17/outbox.cif.g08.bks.cpg/sg41_6_cif.got.tgz:10800.got - 2010.06.03 18:54:24.
