data_PCOD9366639
_publ_section_title
;
Structure prediction by ZEFSAII (Michael W. Deem and Ramdas Pophale) SiO2 
 PCOD9366639
Probable space group: A B A 2
;
_chemical_formula_sum "Si O2"
_cell_formula_units_Z 52
_cell_length_a 17.679841
_cell_length_b 15.072272
_cell_length_c 10.322538
_cell_angle_alpha 90.000000
_cell_angle_beta 90.000000
_cell_angle_gamma 90.000000
_cell_volume 2750.702158
_symmetry_space_group_name_H-M "A B A 2"
_symmetry_group_IT_number 41
_symmetry_cell_setting 'orthorhombic'
loop_
_space_group_symop_operation_xyz
x,y,z
-x,-y,z
1/2-x,y,1/2+z
1/2+x,-y,1/2+z
x,1/2+y,1/2+z
-x,1/2-y,1/2+z
1/2-x,1/2+y,z
1/2+x,1/2-y,z
loop_
_atom_site_type_symbol
_atom_site_label
_atom_site_fract_x
_atom_site_fract_y
_atom_site_fract_z
Si Si1 0.077847 0.149781 0.642800
Si Si2 0.824366 0.416489 0.563673
Si Si3 0.960064 0.301294 0.658936
Si Si4 0.862555 0.771196 0.408526
Si Si5 0.279781 0.151262 0.292432
Si Si6 0.500000 0.500000 0.801467
Si Si7 0.912992 0.093400 0.033702
O O1 0.121124 0.147805 0.506557
O O2 0.140527 0.188822 0.741881
O O3 0.004864 0.212108 0.619845
O O4 0.052267 0.059329 0.709449
O O5 0.888301 0.339218 0.579602
O O6 0.761598 0.398243 0.673113
O O7 0.795051 0.409998 0.417013
O O8 0.863462 0.511640 0.582297
O O9 0.926867 0.280368 0.799862
O O10 0.023489 0.376941 0.637068
O O11 0.781291 0.777976 0.342190
O O12 0.868808 0.681928 0.492021
O O13 0.546291 0.561746 0.900830
#
# Coordination Sequence:
#
# PCOD9366639 Si02
#       7
#     8   8   8   8   8   4   8
#     4  11  22  39  63  92 123 165 211 258 316 370
#     4  11  22  41  65  88 131 168 212 253 325 371
#     4  10  21  38  66  89 119 162 215 259 306 378
#     4  10  23  41  61  94 126 161 214 255 319 377
#     4  11  22  42  62  87 129 174 198 263 315 381
#     4  12  20  38  64  90 122 158 208 264 312 368
#     4  11  20  40  66  90 116 169 210 255 313 377
#
# _framework density 18.904264999999999
#
# number of rings (size 3 to 8) (size 9 to 14) (size 15 to 20)
#    0.000    1.231    6.154    0.000    2.154    0.000 
#   11.077    1.538    0.000    0.000    0.000    0.000 
#    0.000    0.000    0.000    0.000    0.000    0.000 
#
# Total GULP energy -144867.062751 kJ/mol
# GULP energy per Si atom -5571.810106 kJ/mol
# Density = 1.886124 g / cm^3
# Si number density = 18.904265 Si / 1000 Ang^3
#
#
#
# Elastic Constant Matrix: (Units=GPa)
#
#
# Indices 1 2 3 4 5 6 
#
# 1 85.6273 30.1359 29.3357 0.0000 0.0000 0.0000
# 2 30.1359 55.2789 14.4114 0.0000 0.0000 0.0000
# 3 29.3357 14.4114 64.9714 0.0000 0.0000 0.0000
# 4 0.0000 0.0000 0.0000 31.2699 0.0000 0.0000
# 5 0.0000 0.0000 0.0000 0.0000 31.1775 0.0000
# 6 0.0000 0.0000 0.0000 0.0000 0.0000 13.8996
#
#
#
# Elastic Compliance Matrix: (Units=1/GPa)
#
#
# Indices 1 2 3 4 5 6 
#
# 1 0.016218 -0.007358 -0.005690 0.000000 0.000000 0.000000
# 2 -0.007358 0.022538 -0.001677 0.000000 0.000000 0.000000
# 3 -0.005690 -0.001677 0.018333 0.000000 0.000000 0.000000
# 4 0.000000 0.000000 0.000000 0.031980 0.000000 0.000000
# 5 0.000000 0.000000 0.000000 0.000000 0.032074 0.000000
# 6 0.000000 0.000000 0.000000 0.000000 0.000000 0.071944
#
#
# Mechanical properties :
#
#
# Convention : Reuss Voigt Hill
#
# Bulk Modulus (GPa) = 36.18192 39.29374 37.73783
# Shear Modulus (GPa) = 21.57493 24.06906 22.82199
#
# Velocity S-wave (km/s) = 3.38194 3.57207 3.47831
# Velocity P-wave (km/s) = 5.86780 6.15173 6.01144
#
# Compressibility (1/GPa) = 0.02763812
#
# Stress axis : x y z
#
# Youngs Moduli (GPa) = 61.66168 44.36867 54.54716
#
# Poissons Ratio (x) = 0.32645 0.31040
# Poissons Ratio (y) = 0.45368 0.09148
# Poissons Ratio (z) = 0.35089 0.07441
#
# Static dielectric constant tensor:
#      x y z
#    x 1.702050 0.000000 0.000000 
#    y 0.000000 1.647750 0.000000 
#    z 0.000000 0.000000 1.661190 
# 
# From -- ./inp_files/5989.got.cif
#   From: 2010.05.17/outbox.cif.g08.bks.cpg/sg41_3_cif.got.tgz:5989.got - 2010.06.03 18:54:24.
