data_PCOD9366404
_publ_section_title
;
Structure prediction by ZEFSAII (Michael W. Deem and Ramdas Pophale) SiO2 
 PCOD9366404
Probable space group: A B A 2
;
_chemical_formula_sum "Si O2"
_cell_formula_units_Z 60
_cell_length_a 28.847272
_cell_length_b 8.604696
_cell_length_c 10.783408
_cell_angle_alpha 90.000000
_cell_angle_beta 90.000000
_cell_angle_gamma 90.000000
_cell_volume 2676.679165
_symmetry_space_group_name_H-M "A B A 2"
_symmetry_group_IT_number 41
_symmetry_cell_setting 'orthorhombic'
loop_
_space_group_symop_operation_xyz
x,y,z
-x,-y,z
1/2-x,y,1/2+z
1/2+x,-y,1/2+z
x,1/2+y,1/2+z
-x,1/2-y,1/2+z
1/2-x,1/2+y,z
1/2+x,1/2-y,z
loop_
_atom_site_type_symbol
_atom_site_label
_atom_site_fract_x
_atom_site_fract_y
_atom_site_fract_z
Si Si1 0.132260 0.120668 0.880020
Si Si2 0.500000 0.000000 0.161320
Si Si3 0.967173 0.232853 0.343556
Si Si4 0.701962 0.728040 0.179594
Si Si5 0.054980 0.077896 0.442648
Si Si6 0.353434 0.273386 0.926909
Si Si7 0.711780 0.273065 0.021165
Si Si8 0.780750 0.967640 0.369793
O O1 0.079438 0.178632 0.884662
O O2 0.161731 0.194380 0.765482
O O3 0.159096 0.170541 0.007127
O O4 0.134334 0.935911 0.866025
O O5 0.488734 0.155331 0.238282
O O6 0.455632 0.986907 0.070074
O O7 0.012681 0.199264 0.426802
O O8 0.948584 0.052562 0.333712
O O9 0.675514 0.692964 0.051581
O O10 0.751251 0.798418 0.131070
O O11 0.719113 0.579060 0.253804
O O12 0.101483 0.171892 0.451250
O O13 0.320106 0.159869 0.851614
O O14 0.735761 0.372612 0.909470
O O15 0.710716 0.090790 0.982949
#
# Coordination Sequence:
#
# PCOD9366404 Si02
#       8
#     8   4   8   8   8   8   8   8
#     4  11  23  42  68  95 128 174 219 263 325 391
#     4  10  20  40  66  92 124 170 212 252 320 378
#     4  10  21  42  67  93 130 168 212 267 317 381
#     4  10  23  43  66  91 128 170 213 267 321 383
#     4  10  23  41  65  98 135 167 210 274 324 379
#     4  11  23  42  65  96 132 168 214 265 322 390
#     4  10  21  39  62  91 125 162 212 267 316 376
#     4  10  22  40  62  90 122 163 212 260 319 383
#
# _framework density 22.415834
#
# number of rings (size 3 to 8) (size 9 to 14) (size 15 to 20)
#    0.000    1.867    0.000    4.800    0.000    6.400 
#    0.000   34.667    0.000    0.000    0.000    0.000 
#    0.000    0.000    0.000    0.000    0.000    0.000 
#
# Total GULP energy -167135.148558 kJ/mol
# GULP energy per Si atom -5571.171619 kJ/mol
# Density = 2.236482 g / cm^3
# Si number density = 22.415834 Si / 1000 Ang^3
#
#
#
# Elastic Constant Matrix: (Units=GPa)
#
#
# Indices 1 2 3 4 5 6 
#
# 1 127.3194 46.0220 27.7195 0.0000 0.0000 0.0000
# 2 46.0220 142.8467 34.9699 0.0000 0.0000 0.0000
# 3 27.7195 34.9699 71.6990 0.0000 0.0000 0.0000
# 4 0.0000 0.0000 0.0000 34.4570 0.0000 0.0000
# 5 0.0000 0.0000 0.0000 0.0000 29.9406 0.0000
# 6 0.0000 0.0000 0.0000 0.0000 0.0000 51.3966
#
#
#
# Elastic Compliance Matrix: (Units=1/GPa)
#
#
# Indices 1 2 3 4 5 6 
#
# 1 0.009242 -0.002388 -0.002408 0.000000 0.000000 0.000000
# 2 -0.002388 0.008567 -0.003255 0.000000 0.000000 0.000000
# 3 -0.002408 -0.003255 0.016466 0.000000 0.000000 0.000000
# 4 0.000000 0.000000 0.000000 0.029022 0.000000 0.000000
# 5 0.000000 0.000000 0.000000 0.000000 0.033399 0.000000
# 6 0.000000 0.000000 0.000000 0.000000 0.000000 0.019457
#
#
# Mechanical properties :
#
#
# Convention : Reuss Voigt Hill
#
# Bulk Modulus (GPa) = 55.03039 62.14312 58.58675
# Shear Modulus (GPa) = 36.15021 38.70242 37.42631
#
# Velocity S-wave (km/s) = 4.02021 4.15970 4.09055
# Velocity P-wave (km/s) = 6.79357 7.13119 6.96443
#
# Compressibility (1/GPa) = 0.01817178
#
# Stress axis : x y z
#
# Youngs Moduli (GPa) = 108.20473 116.73093 60.73171
#
# Poissons Ratio (x) = 0.27874 0.14626
# Poissons Ratio (y) = 0.25838 0.19769
# Poissons Ratio (z) = 0.26059 0.37997
#
# Static dielectric constant tensor:
#      x y z
#    x 1.814520 0.000000 0.000000 
#    y 0.000000 1.872290 0.000000 
#    z 0.000000 0.000000 1.980160 
# 
# From -- ./inp_files/6640.got.cif
#   From: 2010.05.17/outbox.cif.g08.bks.cpg/sg41_4_cif.got.tgz:6640.got - 2010.06.03 18:54:24.
