data_PCOD9366751
_publ_section_title
;
Structure prediction by ZEFSAII (Michael W. Deem and Ramdas Pophale) SiO2 
 PCOD9366751
Probable space group: A B A 2
;
_chemical_formula_sum "Si O2"
_cell_formula_units_Z 56
_cell_length_a 13.969262
_cell_length_b 13.843104
_cell_length_c 13.913894
_cell_angle_alpha 90.000000
_cell_angle_beta 90.000000
_cell_angle_gamma 90.000000
_cell_volume 2690.640252
_symmetry_space_group_name_H-M "A B A 2"
_symmetry_group_IT_number 41
_symmetry_cell_setting 'orthorhombic'
loop_
_space_group_symop_operation_xyz
x,y,z
-x,-y,z
1/2-x,y,1/2+z
1/2+x,-y,1/2+z
x,1/2+y,1/2+z
-x,1/2-y,1/2+z
1/2-x,1/2+y,z
1/2+x,1/2-y,z
loop_
_atom_site_type_symbol
_atom_site_label
_atom_site_fract_x
_atom_site_fract_y
_atom_site_fract_z
Si Si1 0.300456 0.653814 0.308300
Si Si2 0.596320 0.160598 0.400324
Si Si3 0.199544 0.653814 0.587598
Si Si4 0.081819 0.725956 0.088353
Si Si5 0.403680 0.339402 0.495574
Si Si6 0.750000 0.008618 0.447949
Si Si7 0.918181 0.274044 0.307545
O O1 0.357782 0.742696 0.354158
O O2 0.328540 0.638415 0.197949
O O3 0.306266 0.559417 0.373668
O O4 0.188502 0.683798 0.310723
O O5 0.578072 0.186564 0.512060
O O6 0.496109 0.149123 0.345842
O O7 0.673392 0.076280 0.394293
O O8 0.311498 0.683798 0.585175
O O9 0.142218 0.742696 0.541740
O O10 0.193734 0.559417 0.522230
O O11 0.060474 0.753534 0.197949
O O12 0.003891 0.649123 0.050056
O O13 0.326608 0.423720 0.501606
O O14 0.421928 0.313436 0.383838
#
# Coordination Sequence:
#
# PCOD9366751 Si02
#       7
#     8   8   8   8   8   8   8
#     4  11  23  42  63  93 129 164 210 259 309 372
#     4  11  22  42  65  90 131 163 210 259 316 368
#     4  11  23  42  63  93 129 164 210 259 309 372
#     4  10  21  40  66  91 123 169 210 256 312 371
#     4  11  22  42  65  90 131 163 210 259 316 368
#     4  12  22  40  62  96 122 166 204 260 310 366
#     4  10  21  40  66  91 123 169 210 256 312 371
#
# _framework density 20.812889999999999
#
# number of rings (size 3 to 8) (size 9 to 14) (size 15 to 20)
#    0.000    1.143    5.714    0.857    0.000    4.571 
#    0.000    2.857    0.000    5.143    0.000    0.000 
#    0.000    0.000    0.000    0.000    0.000    0.000 
#
# Total GULP energy -156523.095802 kJ/mol
# GULP energy per Si atom -5590.110564 kJ/mol
# Density = 2.076552 g / cm^3
# Si number density = 20.812890 Si / 1000 Ang^3
#
#
#
# Elastic Constant Matrix: (Units=GPa)
#
#
# Indices 1 2 3 4 5 6 
#
# 1 82.6870 4.9165 -0.9269 0.0000 0.0000 0.0000
# 2 4.9165 75.9036 27.0727 0.0000 0.0000 0.0000
# 3 -0.9269 27.0727 132.4205 0.0000 0.0000 0.0000
# 4 0.0000 0.0000 0.0000 7.6094 0.0000 0.0000
# 5 0.0000 0.0000 0.0000 0.0000 30.3624 0.0000
# 6 0.0000 0.0000 0.0000 0.0000 0.0000 5.0269
#
#
#
# Elastic Compliance Matrix: (Units=1/GPa)
#
#
# Indices 1 2 3 4 5 6 
#
# 1 0.012149 -0.000882 0.000265 0.000000 0.000000 0.000000
# 2 -0.000882 0.014275 -0.002925 0.000000 0.000000 0.000000
# 3 0.000265 -0.002925 0.008151 0.000000 0.000000 0.000000
# 4 0.000000 0.000000 0.000000 0.131417 0.000000 0.000000
# 5 0.000000 0.000000 0.000000 0.000000 0.032935 0.000000
# 6 0.000000 0.000000 0.000000 0.000000 0.000000 0.198928
#
#
# Mechanical properties :
#
#
# Convention : Reuss Voigt Hill
#
# Bulk Modulus (GPa) = 36.37191 39.23731 37.80461
# Shear Modulus (GPa) = 12.07431 25.92967 19.00199
#
# Velocity S-wave (km/s) = 2.41121 3.53348 3.02485
# Velocity P-wave (km/s) = 5.02648 5.96160 5.51390
#
# Compressibility (1/GPa) = 0.02749374
#
# Stress axis : x y z
#
# Youngs Moduli (GPa) = 82.30999 70.05343 122.67724
#
# Poissons Ratio (x) = 0.06176 -0.03254
# Poissons Ratio (y) = 0.07256 0.35878
# Poissons Ratio (z) = -0.02183 0.20488
#
# Static dielectric constant tensor:
#      x y z
#    x 1.783270 0.000000 0.000000 
#    y 0.000000 1.725610 0.000000 
#    z 0.000000 0.000000 1.752420 
# 
# From -- ./inp_files/8464.got.cif
#   From: 2010.05.17/outbox.cif.g08.bks.cpg/sg41_5_cif.got.tgz:8464.got - 2010.06.03 18:54:24.
