data_PCOD9366990
_publ_section_title
;
Structure prediction by ZEFSAII (Michael W. Deem and Ramdas Pophale) SiO2 
 PCOD9366990
Probable space group: A B A 2
;
_chemical_formula_sum "Si O2"
_cell_formula_units_Z 52
_cell_length_a 8.892948
_cell_length_b 20.520780
_cell_length_c 14.192350
_cell_angle_alpha 90.000000
_cell_angle_beta 90.000000
_cell_angle_gamma 90.000000
_cell_volume 2589.965208
_symmetry_space_group_name_H-M "A B A 2"
_symmetry_group_IT_number 41
_symmetry_cell_setting 'orthorhombic'
loop_
_space_group_symop_operation_xyz
x,y,z
-x,-y,z
1/2-x,y,1/2+z
1/2+x,-y,1/2+z
x,1/2+y,1/2+z
-x,1/2-y,1/2+z
1/2-x,1/2+y,z
1/2+x,1/2-y,z
loop_
_atom_site_type_symbol
_atom_site_label
_atom_site_fract_x
_atom_site_fract_y
_atom_site_fract_z
Si Si1 0.604388 0.093380 0.281080
Si Si2 0.052762 0.924675 0.306069
Si Si3 0.618007 0.889191 0.995395
Si Si4 0.580888 0.162977 0.621946
Si Si5 0.041288 0.573875 0.470927
Si Si6 0.000000 0.500000 0.124988
Si Si7 0.071492 0.799759 0.636244
O O1 0.769112 0.085131 0.326530
O O2 0.486023 0.074231 0.359665
O O3 0.601117 0.044298 0.192678
O O4 0.554467 0.162452 0.236317
O O5 0.039830 0.885929 0.207649
O O6 0.958262 0.894989 0.392805
O O7 0.000000 0.000000 0.296907
O O8 0.796837 0.892889 0.987049
O O9 0.534641 0.833987 0.057425
O O10 0.589535 0.953769 0.056398
O O11 0.566318 0.122645 0.526365
O O12 0.751375 0.188892 0.621784
O O13 0.472580 0.224678 0.634217
O O14 0.000000 0.500000 0.503050
#
# Coordination Sequence:
#
# PCOD9366990 Si02
#       7
#     8   8   8   8   8   4   8
#     4  10  23  41  65  92 134 168 215 266 327 381
#     4  11  23  40  66  98 129 171 212 275 324 390
#     4  11  24  39  68  94 134 169 217 264 327 381
#     4  11  25  43  67  93 134 170 226 264 326 389
#     4  12  25  39  66 101 132 173 215 270 323 395
#     4  10  22  38  62  92 130 168 202 268 318 382
#     4  10  24  46  66  95 127 180 216 273 323 384
#
# _framework density 20.077490000000001
#
# number of rings (size 3 to 8) (size 9 to 14) (size 15 to 20)
#    0.000    1.231    1.538    3.231    8.615    3.692 
#    0.000    3.077    0.000    0.000    0.000    0.000 
#    0.000    0.000    0.000    0.000    0.000    0.000 
#
# Total GULP energy -145030.085078 kJ/mol
# GULP energy per Si atom -5578.080195 kJ/mol
# Density = 2.003179 g / cm^3
# Si number density = 20.077490 Si / 1000 Ang^3
#
#
#
# Elastic Constant Matrix: (Units=GPa)
#
#
# Indices 1 2 3 4 5 6 
#
# 1 67.7939 21.5825 24.8685 0.0000 0.0000 0.0000
# 2 21.5825 107.8191 23.6180 0.0000 0.0000 0.0000
# 3 24.8685 23.6180 63.5477 0.0000 0.0000 0.0000
# 4 0.0000 0.0000 0.0000 17.2962 0.0000 0.0000
# 5 0.0000 0.0000 0.0000 0.0000 27.7926 0.0000
# 6 0.0000 0.0000 0.0000 0.0000 0.0000 15.4561
#
#
#
# Elastic Compliance Matrix: (Units=1/GPa)
#
#
# Indices 1 2 3 4 5 6 
#
# 1 0.017691 -0.002204 -0.006104 0.000000 0.000000 0.000000
# 2 -0.002204 0.010371 -0.002992 0.000000 0.000000 0.000000
# 3 -0.006104 -0.002992 0.019237 0.000000 0.000000 0.000000
# 4 0.000000 0.000000 0.000000 0.057816 0.000000 0.000000
# 5 0.000000 0.000000 0.000000 0.000000 0.035981 0.000000
# 6 0.000000 0.000000 0.000000 0.000000 0.000000 0.064699
#
#
# Mechanical properties :
#
#
# Convention : Reuss Voigt Hill
#
# Bulk Modulus (GPa) = 40.48724 42.14433 41.31579
# Shear Modulus (GPa) = 21.13004 23.38176 22.25590
#
# Velocity S-wave (km/s) = 3.24763 3.41629 3.33303
# Velocity P-wave (km/s) = 5.85423 6.04961 5.95272
#
# Compressibility (1/GPa) = 0.02469914
#
# Stress axis : x y z
#
# Youngs Moduli (GPa) = 56.52450 96.41869 51.98327
#
# Poissons Ratio (x) = 0.21253 0.31731
# Poissons Ratio (y) = 0.12459 0.15554
# Poissons Ratio (z) = 0.34503 0.28849
#
# Static dielectric constant tensor:
#      x y z
#    x 1.779930 0.000000 0.000000 
#    y 0.000000 1.713050 0.000000 
#    z 0.000000 0.000000 1.690860 
# 
# From -- ./inp_files/7411.got.cif
#   From: 2010.05.17/outbox.cif.g08.bks.cpg/sg41_4_cif.got.tgz:7411.got - 2010.06.03 18:54:24.
