data_PCOD9366930
_publ_section_title
;
Structure prediction by ZEFSAII (Michael W. Deem and Ramdas Pophale) SiO2 
 PCOD9366930
Probable space group: A B A 2
;
_chemical_formula_sum "Si O2"
_cell_formula_units_Z 56
_cell_length_a 33.023183
_cell_length_b 5.695890
_cell_length_c 13.833481
_cell_angle_alpha 90.000000
_cell_angle_beta 90.000000
_cell_angle_gamma 90.000000
_cell_volume 2602.028222
_symmetry_space_group_name_H-M "A B A 2"
_symmetry_group_IT_number 41
_symmetry_cell_setting 'orthorhombic'
loop_
_space_group_symop_operation_xyz
x,y,z
-x,-y,z
1/2-x,y,1/2+z
1/2+x,-y,1/2+z
x,1/2+y,1/2+z
-x,1/2-y,1/2+z
1/2-x,1/2+y,z
1/2+x,1/2-y,z
loop_
_atom_site_type_symbol
_atom_site_label
_atom_site_fract_x
_atom_site_fract_y
_atom_site_fract_z
Si Si1 0.374823 1.000000 0.059280
Si Si2 0.914575 0.884374 0.164408
Si Si3 0.914575 0.615627 0.454152
Si Si4 0.500000 0.500000 0.860495
Si Si5 0.663775 0.140644 0.707630
Si Si6 0.273578 1.000000 0.559280
Si Si7 0.000000 0.500000 0.758065
Si Si8 0.163775 0.640644 0.410930
O O1 0.403724 0.881992 0.139664
O O2 0.347407 0.171652 0.123474
O O3 0.347407 0.828348 0.995086
O O4 0.403724 0.118007 0.978896
O O5 0.877639 0.993959 0.224606
O O6 0.958788 0.934049 0.202936
O O7 0.911684 0.000000 0.059280
O O8 0.877639 0.506042 0.393955
O O9 0.958788 0.565951 0.415624
O O10 0.509688 0.250000 0.809280
O O11 0.698384 0.991868 0.655410
O O12 0.676354 0.250000 0.809280
O O13 0.250000 0.750000 0.559280
O O14 0.301616 0.991867 0.463150
#
# Coordination Sequence:
#
# PCOD9366930 Si02
#       8
#     8   8   8   4   8   8   4   8
#     4  10  21  44  75 103 144 194 251 308 356 444
#     4  10  23  44  70 100 144 197 246 304 369 433
#     4  10  23  44  70 100 144 197 246 304 369 433
#     4  12  29  44  65 110 152 188 250 309 360 439
#     4  11  24  45  75 107 144 197 251 299 376 452
#     4  12  27  50  74 110 158 189 247 318 380 457
#     4  12  29  44  65 110 152 188 250 309 360 439
#     4  11  24  45  75 107 144 197 251 299 376 452
#
# _framework density 21.521673
#
# number of rings (size 3 to 8) (size 9 to 14) (size 15 to 20)
#    0.000    1.143    4.286    2.143   12.000    1.143 
#    0.000    0.000    0.000    0.000    0.000    0.000 
#    0.000    0.000    0.000    0.000    0.000    0.000 
#
# Total GULP energy -156207.672680 kJ/mol
# GULP energy per Si atom -5578.845453 kJ/mol
# Density = 2.147269 g / cm^3
# Si number density = 21.521673 Si / 1000 Ang^3
#
#
#
# Elastic Constant Matrix: (Units=GPa)
#
#
# Indices 1 2 3 4 5 6 
#
# 1 138.1251 53.4164 54.4580 0.0000 0.0000 0.0000
# 2 53.4164 113.0078 39.1945 0.0000 0.0000 0.0000
# 3 54.4580 39.1945 108.0056 0.0000 0.0000 0.0000
# 4 0.0000 0.0000 0.0000 30.9040 0.0000 0.0000
# 5 0.0000 0.0000 0.0000 0.0000 -21.7740 0.0000
# 6 0.0000 0.0000 0.0000 0.0000 0.0000 31.9970
#
#
#
# Elastic Compliance Matrix: (Units=1/GPa)
#
#
# Indices 1 2 3 4 5 6 
#
# 1 0.010081 -0.003434 -0.003836 0.000000 0.000000 0.000000
# 2 -0.003434 0.011293 -0.002367 0.000000 0.000000 0.000000
# 3 -0.003836 -0.002367 0.012052 0.000000 0.000000 0.000000
# 4 0.000000 0.000000 0.000000 0.032358 0.000000 0.000000
# 5 0.000000 0.000000 0.000000 0.000000 -0.045926 0.000000
# 6 0.000000 0.000000 0.000000 0.000000 0.000000 0.031253
#
#
# Mechanical properties :
#
#
# Convention : Reuss Voigt Hill
#
# Bulk Modulus (GPa) = 70.66655 72.58626 71.62641
# Shear Modulus (GPa) = 66.57625 22.36339 44.46982
#
# Velocity S-wave (km/s) = 5.56791 3.22702 4.55057
# Velocity P-wave (km/s) = 8.61637 6.90544 7.80791
#
# Compressibility (1/GPa) = 0.01415097
#
# Stress axis : x y z
#
# Youngs Moduli (GPa) = 99.20132 88.55011 82.97380
#
# Poissons Ratio (x) = 0.30410 0.31833
# Poissons Ratio (y) = 0.34068 0.19636
# Poissons Ratio (z) = 0.38058 0.20956
#
# Static dielectric constant tensor:
#      x y z
#    x 1.845220 0.000000 0.000000 
#    y 0.000000 1.980950 0.000000 
#    z 0.000000 0.000000 1.770230 
# 
# From -- ./inp_files/9311.got.cif
#   From: 2010.05.17/outbox.cif.g08.bks.cpg/sg41_5_cif.got.tgz:9311.got - 2010.06.03 18:54:24.
