data_PCOD9366220
_publ_section_title
;
Structure prediction by ZEFSAII (Michael W. Deem and Ramdas Pophale) SiO2 
 PCOD9366220
Probable space group: A B A 2
;
_chemical_formula_sum "Si O2"
_cell_formula_units_Z 48
_cell_length_a 8.264751
_cell_length_b 14.248586
_cell_length_c 17.117401
_cell_angle_alpha 90.000000
_cell_angle_beta 90.000000
_cell_angle_gamma 90.000000
_cell_volume 2015.762523
_symmetry_space_group_name_H-M "A B A 2"
_symmetry_group_IT_number 41
_symmetry_cell_setting 'orthorhombic'
loop_
_space_group_symop_operation_xyz
x,y,z
-x,-y,z
1/2-x,y,1/2+z
1/2+x,-y,1/2+z
x,1/2+y,1/2+z
-x,1/2-y,1/2+z
1/2-x,1/2+y,z
1/2+x,1/2-y,z
loop_
_atom_site_type_symbol
_atom_site_label
_atom_site_fract_x
_atom_site_fract_y
_atom_site_fract_z
Si Si1 0.166260 0.554083 0.573400
Si Si2 0.833630 0.059978 0.834778
Si Si3 0.496871 0.764192 0.556445
Si Si4 0.827440 0.894101 0.255311
Si Si5 0.800729 0.116592 0.499391
Si Si6 0.501556 0.282768 0.739098
O O1 0.134640 0.657028 0.539494
O O2 0.174786 0.568710 0.666248
O O3 0.302013 0.485688 0.539670
O O4 0.000000 0.500000 0.555677
O O5 0.773503 0.105617 0.914159
O O6 0.875867 0.140045 0.771576
O O7 0.701324 0.984361 0.807506
O O8 0.000000 0.000000 0.846870
O O9 0.329499 0.819502 0.546606
O O10 0.533852 0.674817 0.502968
O O11 0.509680 0.728423 0.645570
O O12 0.973219 0.822572 0.270405
O O13 0.673039 0.825679 0.261651
#
# Coordination Sequence:
#
# PCOD9366220 Si02
#       6
#     8   8   8   8   8   8
#     4   9  19  36  61  87 117 154 195 242 295 359
#     4  10  22  38  58  85 121 160 197 244 304 361
#     4  10  20  37  60  88 117 154 199 245 297 356
#     4  10  21  39  63  89 119 155 200 249 298 356
#     4  11  22  38  61  86 119 157 197 246 302 358
#     4  10  21  38  63  91 120 158 202 250 299 356
#
# _framework density 23.812329999999999
#
# number of rings (size 3 to 8) (size 9 to 14) (size 15 to 20)
#    0.000    2.000    0.000    4.500    0.000    6.667 
#    0.000    2.500    0.000    8.000    0.000    0.000 
#    0.000    0.000    0.000    0.000    0.000    0.000 
#
# Total GULP energy -134237.991778 kJ/mol
# GULP energy per Si atom -5593.249657 kJ/mol
# Density = 2.375813 g / cm^3
# Si number density = 23.812330 Si / 1000 Ang^3
#
#
#
# Elastic Constant Matrix: (Units=GPa)
#
#
# Indices 1 2 3 4 5 6 
#
# 1 48.4119 32.9610 6.9708 0.0000 0.0000 0.0000
# 2 32.9610 137.8268 39.5859 0.0000 0.0000 0.0000
# 3 6.9708 39.5859 70.5000 0.0000 0.0000 0.0000
# 4 0.0000 0.0000 0.0000 15.7015 0.0000 0.0000
# 5 0.0000 0.0000 0.0000 0.0000 19.3469 0.0000
# 6 0.0000 0.0000 0.0000 0.0000 0.0000 41.4487
#
#
#
# Elastic Compliance Matrix: (Units=1/GPa)
#
#
# Indices 1 2 3 4 5 6 
#
# 1 0.024738 -0.006216 0.001044 0.000000 0.000000 0.000000
# 2 -0.006216 0.010212 -0.005120 0.000000 0.000000 0.000000
# 3 0.001044 -0.005120 0.016956 0.000000 0.000000 0.000000
# 4 0.000000 0.000000 0.000000 0.063688 0.000000 0.000000
# 5 0.000000 0.000000 0.000000 0.000000 0.051688 0.000000
# 6 0.000000 0.000000 0.000000 0.000000 0.000000 0.024126
#
#
# Mechanical properties :
#
#
# Convention : Reuss Voigt Hill
#
# Bulk Modulus (GPa) = 31.92505 46.19713 39.06109
# Shear Modulus (GPa) = 22.47876 27.11417 24.79647
#
# Velocity S-wave (km/s) = 3.07579 3.37807 3.23046
# Velocity P-wave (km/s) = 5.10392 5.88708 5.50943
#
# Compressibility (1/GPa) = 0.03132336
#
# Stress axis : x y z
#
# Youngs Moduli (GPa) = 40.42401 97.91964 58.97667
#
# Poissons Ratio (x) = 0.60866 -0.06159
# Poissons Ratio (y) = 0.25127 0.30194
# Poissons Ratio (z) = -0.04221 0.50132
#
# Static dielectric constant tensor:
#      x y z
#    x 1.930090 0.000000 0.000000 
#    y 0.000000 1.913790 0.000000 
#    z 0.000000 0.000000 1.876180 
# 
# From -- ./inp_files/9970.got.cif
#   From: 2010.05.17/outbox.cif.g08.bks.cpg/sg41_5_cif.got.tgz:9970.got - 2010.06.03 18:54:24.
