data_PCOD9366670
_publ_section_title
;
Structure prediction by ZEFSAII (Michael W. Deem and Ramdas Pophale) SiO2 
 PCOD9366670
Probable space group: A B A 2
;
_chemical_formula_sum "Si O2"
_cell_formula_units_Z 64
_cell_length_a 22.349575
_cell_length_b 8.647575
_cell_length_c 16.348053
_cell_angle_alpha 90.000000
_cell_angle_beta 90.000000
_cell_angle_gamma 90.000000
_cell_volume 3159.582090
_symmetry_space_group_name_H-M "A B A 2"
_symmetry_group_IT_number 41
_symmetry_cell_setting 'orthorhombic'
loop_
_space_group_symop_operation_xyz
x,y,z
-x,-y,z
1/2-x,y,1/2+z
1/2+x,-y,1/2+z
x,1/2+y,1/2+z
-x,1/2-y,1/2+z
1/2-x,1/2+y,z
1/2+x,1/2-y,z
loop_
_atom_site_type_symbol
_atom_site_label
_atom_site_fract_x
_atom_site_fract_y
_atom_site_fract_z
Si Si1 0.611581 0.537817 0.981870
Si Si2 0.435756 0.932346 0.135453
Si Si3 0.344317 0.659131 0.561247
Si Si4 0.110599 0.031952 0.810036
Si Si5 0.936401 0.435279 0.653622
Si Si6 0.151855 0.337536 0.733399
Si Si7 0.767481 0.336333 0.458619
Si Si8 0.756830 0.076397 0.843090
O O1 0.579662 0.506870 0.895816
O O2 0.669538 0.420922 0.977066
O O3 0.630881 0.716319 0.995249
O O4 0.575200 0.499658 0.062658
O O5 0.435236 0.748081 0.142112
O O6 0.500000 0.000000 0.109620
O O7 0.385215 0.008842 0.076989
O O8 0.423148 0.986863 0.228142
O O9 0.344007 0.746478 0.648053
O O10 0.277019 0.630794 0.532453
O O11 0.124499 0.214553 0.798114
O O12 0.173398 0.935450 0.818127
O O13 0.887060 0.510835 0.713465
O O14 0.000000 0.500000 0.682447
O O15 0.216313 0.379087 0.767765
O O16 0.764037 0.160100 0.428237
O O17 0.742948 0.402623 0.372057
#
# Coordination Sequence:
#
# PCOD9366670 Si02
#       8
#     8   8   8   8   8   8   8   8
#     4  10  21  39  62  91 126 164 198 251 313 367
#     4  11  25  43  64  87 118 161 213 264 310 369
#     4  10  22  39  61  88 128 160 204 251 306 373
#     4  10  21  39  62  91 126 164 198 251 313 367
#     4  11  25  43  64  87 118 161 213 264 310 369
#     4  10  22  39  61  88 128 160 204 251 306 373
#     4  11  21  37  61  94 133 162 196 250 310 374
#     4  11  21  37  61  94 133 162 196 250 310 374
#
# _framework density 20.255842999999999
#
# number of rings (size 3 to 8) (size 9 to 14) (size 15 to 20)
#    0.000    1.500    5.000    2.250    3.500    5.500 
#    0.000    0.000    0.000    2.250    0.000    0.000 
#    0.000    0.000    0.000    0.000    0.000    0.000 
#
# Total GULP energy -178259.574686 kJ/mol
# GULP energy per Si atom -5570.611709 kJ/mol
# Density = 2.020974 g / cm^3
# Si number density = 20.255843 Si / 1000 Ang^3
#
#
#
# Elastic Constant Matrix: (Units=GPa)
#
#
# Indices 1 2 3 4 5 6 
#
# 1 70.9700 19.1440 5.3398 0.0000 0.0000 0.0000
# 2 19.1440 85.8595 -1.5758 0.0000 0.0000 0.0000
# 3 5.3398 -1.5758 57.1404 0.0000 0.0000 0.0000
# 4 0.0000 0.0000 0.0000 28.6966 0.0000 0.0000
# 5 0.0000 0.0000 0.0000 0.0000 14.1514 0.0000
# 6 0.0000 0.0000 0.0000 0.0000 0.0000 26.3024
#
#
#
# Elastic Compliance Matrix: (Units=1/GPa)
#
#
# Indices 1 2 3 4 5 6 
#
# 1 0.015121 -0.003399 -0.001507 0.000000 0.000000 0.000000
# 2 -0.003399 0.012417 0.000660 0.000000 0.000000 0.000000
# 3 -0.001507 0.000660 0.017660 0.000000 0.000000 0.000000
# 4 0.000000 0.000000 0.000000 0.034847 0.000000 0.000000
# 5 0.000000 0.000000 0.000000 0.000000 0.070665 0.000000
# 6 0.000000 0.000000 0.000000 0.000000 0.000000 0.038019
#
#
# Mechanical properties :
#
#
# Convention : Reuss Voigt Hill
#
# Bulk Modulus (GPa) = 27.24365 28.86510 28.05437
# Shear Modulus (GPa) = 23.87140 26.56753 25.21947
#
# Velocity S-wave (km/s) = 3.43665 3.62553 3.53235
# Velocity P-wave (km/s) = 5.40614 5.63978 5.52420
#
# Compressibility (1/GPa) = 0.03670581
#
# Stress axis : x y z
#
# Youngs Moduli (GPa) = 66.13435 80.53509 56.62593
#
# Poissons Ratio (x) = 0.27375 0.08532
# Poissons Ratio (y) = 0.22480 -0.03738
# Poissons Ratio (z) = 0.09965 -0.05316
#
# Static dielectric constant tensor:
#      x y z
#    x 1.736150 0.000000 0.000000 
#    y 0.000000 1.745510 0.000000 
#    z 0.000000 0.000000 1.718700 
# 
# From -- ./inp_files/9139.got.cif
#   From: 2010.05.17/outbox.cif.g08.bks.cpg/sg41_5_cif.got.tgz:9139.got - 2010.06.03 18:54:24.
