data_PCOD9366099
_publ_section_title
;
Structure prediction by ZEFSAII (Michael W. Deem and Ramdas Pophale) SiO2 
 PCOD9366099
Probable space group: A B A 2
;
_chemical_formula_sum "Si O2"
_cell_formula_units_Z 56
_cell_length_a 12.186396
_cell_length_b 12.983518
_cell_length_c 15.147736
_cell_angle_alpha 90.000000
_cell_angle_beta 90.000000
_cell_angle_gamma 90.000000
_cell_volume 2396.709506
_symmetry_space_group_name_H-M "A B A 2"
_symmetry_group_IT_number 41
_symmetry_cell_setting 'orthorhombic'
loop_
_space_group_symop_operation_xyz
x,y,z
-x,-y,z
1/2-x,y,1/2+z
1/2+x,-y,1/2+z
x,1/2+y,1/2+z
-x,1/2-y,1/2+z
1/2-x,1/2+y,z
1/2+x,1/2-y,z
loop_
_atom_site_type_symbol
_atom_site_label
_atom_site_fract_x
_atom_site_fract_y
_atom_site_fract_z
Si Si1 0.095416 0.233779 0.825550
Si Si2 0.760403 0.680544 0.464298
Si Si3 0.640242 0.392762 0.542087
Si Si4 0.005305 0.889221 0.966944
Si Si5 0.580873 0.200856 0.089060
Si Si6 0.581981 0.412392 0.344472
Si Si7 0.262666 0.658528 0.198214
O O1 0.192216 0.289554 0.879064
O O2 0.150084 0.213179 0.731300
O O3 0.064308 0.129349 0.877888
O O4 0.989399 0.306920 0.838200
O O5 0.808045 0.783109 0.510369
O O6 0.867119 0.617718 0.443129
O O7 0.673434 0.639294 0.534556
O O8 0.523414 0.373884 0.590145
O O9 0.616699 0.438847 0.445020
O O10 0.728778 0.417711 0.618186
O O11 0.000000 0.000000 0.010926
O O12 0.962601 0.797772 0.029967
O O13 0.646314 0.256655 0.167976
O O14 0.500000 0.500000 0.311778
O O15 0.685456 0.399959 0.281165
#
# Coordination Sequence:
#
# PCOD9366099 Si02
#       7
#     8   8   8   8   8   8   8
#     4  11  20  41  63  94 133 173 226 277 335 409
#     4   9  16  35  61  86 125 164 219 264 326 400
#     4  10  19  41  65  93 129 175 224 274 338 406
#     4  10  20  35  64  95 125 166 221 280 332 397
#     4   9  19  38  62  95 129 172 225 268 337 408
#     4  12  25  43  68 100 138 181 230 284 340 404
#     4  11  23  39  68  95 134 179 225 285 338 404
#
# _framework density 23.365366999999999
#
# number of rings (size 3 to 8) (size 9 to 14) (size 15 to 20)
#    0.000    1.714    5.714    0.857    0.000    1.714 
#    0.000    2.143    0.000    0.000    0.000    0.000 
#    0.000    0.000    0.000    0.000    0.000    0.000 
#
# Total GULP energy -156164.876784 kJ/mol
# GULP energy per Si atom -5577.317028 kJ/mol
# Density = 2.331219 g / cm^3
# Si number density = 23.365367 Si / 1000 Ang^3
#
#
#
# Elastic Constant Matrix: (Units=GPa)
#
#
# Indices 1 2 3 4 5 6 
#
# 1 107.4800 6.2853 41.9715 0.0000 0.0000 0.0000
# 2 6.2853 48.0792 13.7490 0.0000 0.0000 0.0000
# 3 41.9715 13.7490 108.4438 0.0000 0.0000 0.0000
# 4 0.0000 0.0000 0.0000 9.4523 0.0000 0.0000
# 5 0.0000 0.0000 0.0000 0.0000 41.0696 0.0000
# 6 0.0000 0.0000 0.0000 0.0000 0.0000 10.7084
#
#
#
# Elastic Compliance Matrix: (Units=1/GPa)
#
#
# Indices 1 2 3 4 5 6 
#
# 1 0.010963 -0.000228 -0.004214 0.000000 0.000000 0.000000
# 2 -0.000228 0.021586 -0.002649 0.000000 0.000000 0.000000
# 3 -0.004214 -0.002649 0.011188 0.000000 0.000000 0.000000
# 4 0.000000 0.000000 0.000000 0.105794 0.000000 0.000000
# 5 0.000000 0.000000 0.000000 0.000000 0.024349 0.000000
# 6 0.000000 0.000000 0.000000 0.000000 0.000000 0.093384
#
#
# Mechanical properties :
#
#
# Convention : Reuss Voigt Hill
#
# Bulk Modulus (GPa) = 33.83416 43.11275 38.47345
# Shear Modulus (GPa) = 17.16452 25.71255 21.43853
#
# Velocity S-wave (km/s) = 2.71332 3.32091 3.03237
# Velocity P-wave (km/s) = 4.93234 5.76162 5.36303
#
# Compressibility (1/GPa) = 0.02955593
#
# Stress axis : x y z
#
# Youngs Moduli (GPa) = 91.21555 46.32582 89.38001
#
# Poissons Ratio (x) = 0.01057 0.37666
# Poissons Ratio (y) = 0.02080 0.23673
# Poissons Ratio (z) = 0.38440 0.12270
#
# Static dielectric constant tensor:
#      x y z
#    x 1.906820 0.000000 0.000000 
#    y 0.000000 1.965260 0.000000 
#    z 0.000000 0.000000 1.934960 
# 
# From -- ./inp_files/7962.got.cif
#   From: 2010.05.17/outbox.cif.g08.bks.cpg/sg41_4_cif.got.tgz:7962.got - 2010.06.03 18:54:24.
