data_PCOD9366252
_publ_section_title
;
Structure prediction by ZEFSAII (Michael W. Deem and Ramdas Pophale) SiO2 
 PCOD9366252
Probable space group: A B A 2
;
_chemical_formula_sum "Si O2"
_cell_formula_units_Z 56
_cell_length_a 14.564051
_cell_length_b 8.902858
_cell_length_c 20.952108
_cell_angle_alpha 90.000000
_cell_angle_beta 90.000000
_cell_angle_gamma 90.000000
_cell_volume 2716.685480
_symmetry_space_group_name_H-M "A B A 2"
_symmetry_group_IT_number 41
_symmetry_cell_setting 'orthorhombic'
loop_
_space_group_symop_operation_xyz
x,y,z
-x,-y,z
1/2-x,y,1/2+z
1/2+x,-y,1/2+z
x,1/2+y,1/2+z
-x,1/2-y,1/2+z
1/2-x,1/2+y,z
1/2+x,1/2-y,z
loop_
_atom_site_type_symbol
_atom_site_label
_atom_site_fract_x
_atom_site_fract_y
_atom_site_fract_z
Si Si1 0.369862 0.089082 0.424540
Si Si2 0.801990 0.522396 0.694123
Si Si3 0.000000 0.500000 0.532398
Si Si4 0.120559 0.286551 0.224237
Si Si5 0.242292 0.832752 0.480158
Si Si6 0.311228 0.573308 0.574262
Si Si7 0.950602 0.232341 0.137854
Si Si8 0.000000 0.000000 0.813013
O O1 0.437482 0.096003 0.485036
O O2 0.309691 0.236808 0.427500
O O3 0.424637 0.071376 0.359854
O O4 0.310777 0.943051 0.443384
O O5 0.709230 0.606886 0.715626
O O6 0.837560 0.380738 0.735326
O O7 0.771516 0.457596 0.624216
O O8 0.883441 0.644401 0.687038
O O9 0.953229 0.618746 0.578641
O O10 0.052260 0.260060 0.164045
O O11 0.052292 0.372103 0.272690
O O12 0.287655 0.713090 0.528392
O O13 0.179885 0.933931 0.526751
O O14 0.399084 0.617666 0.615850
#
# Coordination Sequence:
#
# PCOD9366252 Si02
#       8
#     8   8   4   8   8   8   8   4
#     4  10  23  44  69  92 133 180 232 287 347 405
#     4  12  23  42  67 102 146 184 224 285 361 424
#     4  11  20  38  64 100 140 179 206 286 358 411
#     4  12  27  44  68 100 134 190 238 286 348 417
#     4  10  20  37  68 101 129 176 224 276 353 416
#     4  11  19  35  65 106 144 171 215 269 349 443
#     4  12  22  39  68 104 149 179 220 285 351 429
#     4  11  28  50  68  90 134 187 254 294 342 413
#
# _framework density 20.613354999999999
#
# number of rings (size 3 to 8) (size 9 to 14) (size 15 to 20)
#    0.000    0.857    5.714    1.714    2.000    1.143 
#    0.000    0.000    6.286    0.000    0.000    0.000 
#    0.000    0.000    0.000    0.000    0.000    0.000 
#
# Total GULP energy -156348.929204 kJ/mol
# GULP energy per Si atom -5583.890329 kJ/mol
# Density = 2.056644 g / cm^3
# Si number density = 20.613355 Si / 1000 Ang^3
#
#
#
# Elastic Constant Matrix: (Units=GPa)
#
#
# Indices 1 2 3 4 5 6 
#
# 1 87.5984 39.9758 14.3553 0.0000 0.0000 0.0000
# 2 39.9758 104.1263 25.4899 0.0000 0.0000 0.0000
# 3 14.3553 25.4899 50.9631 0.0000 0.0000 0.0000
# 4 0.0000 0.0000 0.0000 -92.3435 0.0000 0.0000
# 5 0.0000 0.0000 0.0000 0.0000 11.3222 0.0000
# 6 0.0000 0.0000 0.0000 0.0000 0.0000 37.5355
#
#
#
# Elastic Compliance Matrix: (Units=1/GPa)
#
#
# Indices 1 2 3 4 5 6 
#
# 1 0.013931 -0.005000 -0.001423 0.000000 0.000000 0.000000
# 2 -0.005000 0.012738 -0.004963 0.000000 0.000000 0.000000
# 3 -0.001423 -0.004963 0.022505 0.000000 0.000000 0.000000
# 4 0.000000 0.000000 0.000000 -0.010829 0.000000 0.000000
# 5 0.000000 0.000000 0.000000 0.000000 0.088322 0.000000
# 6 0.000000 0.000000 0.000000 0.000000 0.000000 0.026641
#
#
# Mechanical properties :
#
#
# Convention : Reuss Voigt Hill
#
# Bulk Modulus (GPa) = 37.87565 44.70332 41.28949
# Shear Modulus (GPa) = 27.04443 2.16062 14.60253
#
# Velocity S-wave (km/s) = 3.62606 1.02491 2.66447
# Velocity P-wave (km/s) = 5.99544 4.80981 5.43505
#
# Compressibility (1/GPa) = 0.02640219
#
# Stress axis : x y z
#
# Youngs Moduli (GPa) = 71.78421 78.50459 44.43429
#
# Poissons Ratio (x) = 0.39251 0.06324
# Poissons Ratio (y) = 0.35891 0.22052
# Poissons Ratio (z) = 0.10217 0.38960
#
# Static dielectric constant tensor:
#      x y z
#    x 1.723340 0.000000 0.000000 
#    y 0.000000 1.895510 0.000000 
#    z 0.000000 0.000000 1.728600 
# 
# From -- ./inp_files/11575.got.cif
#   From: 2010.05.17/outbox.cif.g08.bks.cpg/sg41_6_cif.got.tgz:11575.got - 2010.06.03 18:54:24.
