data_PCOD9366168
_publ_section_title
;
Structure prediction by ZEFSAII (Michael W. Deem and Ramdas Pophale) SiO2 
 PCOD9366168
Probable space group: A B A 2
;
_chemical_formula_sum "Si O2"
_cell_formula_units_Z 56
_cell_length_a 9.835963
_cell_length_b 17.917540
_cell_length_c 16.667579
_cell_angle_alpha 90.000000
_cell_angle_beta 90.000000
_cell_angle_gamma 90.000000
_cell_volume 2937.431794
_symmetry_space_group_name_H-M "A B A 2"
_symmetry_group_IT_number 41
_symmetry_cell_setting 'orthorhombic'
loop_
_space_group_symop_operation_xyz
x,y,z
-x,-y,z
1/2-x,y,1/2+z
1/2+x,-y,1/2+z
x,1/2+y,1/2+z
-x,1/2-y,1/2+z
1/2-x,1/2+y,z
1/2+x,1/2-y,z
loop_
_atom_site_type_symbol
_atom_site_label
_atom_site_fract_x
_atom_site_fract_y
_atom_site_fract_z
Si Si1 0.486792 0.140736 0.261440
Si Si2 0.429378 0.079049 0.433916
Si Si3 0.200540 0.182776 0.457132
Si Si4 0.739691 0.318203 0.642964
Si Si5 0.274681 0.344540 0.218857
Si Si6 0.572758 0.717651 0.361893
Si Si7 0.005875 0.909378 0.102263
O O1 0.450412 0.098832 0.342234
O O2 0.375475 0.138881 0.192600
O O3 0.631378 0.116049 0.229544
O O4 0.491689 0.225203 0.296834
O O5 0.271913 0.100765 0.449770
O O6 0.504488 0.119401 0.509351
O O7 0.500000 0.000000 0.441434
O O8 0.194510 0.198661 0.551772
O O9 0.311315 0.237778 0.413256
O O10 0.053435 0.189699 0.415494
O O11 0.757125 0.239726 0.688749
O O12 0.874219 0.368719 0.639812
O O13 0.350349 0.341147 0.304956
O O14 0.366480 0.382495 0.152256
O O15 0.000000 0.000000 0.105565
#
# Coordination Sequence:
#
# PCOD9366168 Si02
#       7
#     8   8   8   8   8   8   8
#     4  10  21  36  56  90 116 156 202 256 304 363
#     4   9  21  41  61  80 115 165 205 241 315 387
#     4  10  21  35  61  89 120 164 200 259 314 370
#     4  10  22  37  62  91 124 162 207 259 314 374
#     4  11  22  35  58  93 124 159 209 264 309 366
#     4  10  20  36  55  88 126 156 204 252 309 364
#     4  10  23  42  62  88 125 168 209 257 324 385
#
# _framework density 19.064274000000001
#
# number of rings (size 3 to 8) (size 9 to 14) (size 15 to 20)
#    0.000    2.000    1.429    1.714   12.000    1.143 
#    0.000    0.000    0.000    0.000    0.000    0.000 
#    0.000    0.000    0.000    0.000    0.000    0.000 
#
# Total GULP energy -155917.767752 kJ/mol
# GULP energy per Si atom -5568.491705 kJ/mol
# Density = 1.902088 g / cm^3
# Si number density = 19.064274 Si / 1000 Ang^3
#
#
#
# Elastic Constant Matrix: (Units=GPa)
#
#
# Indices 1 2 3 4 5 6 
#
# 1 95.7389 5.7288 74.2445 0.0000 0.0000 0.0000
# 2 5.7288 33.5778 10.2016 0.0000 0.0000 0.0000
# 3 74.2445 10.2016 144.1027 0.0000 0.0000 0.0000
# 4 0.0000 0.0000 0.0000 3.4492 0.0000 0.0000
# 5 0.0000 0.0000 0.0000 0.0000 175.5231 0.0000
# 6 0.0000 0.0000 0.0000 0.0000 0.0000 11.6598
#
#
#
# Elastic Compliance Matrix: (Units=1/GPa)
#
#
# Indices 1 2 3 4 5 6 
#
# 1 0.017397 -0.000250 -0.008946 0.000000 0.000000 0.000000
# 2 -0.000250 0.030440 -0.002026 0.000000 0.000000 0.000000
# 3 -0.008946 -0.002026 0.011692 0.000000 0.000000 0.000000
# 4 0.000000 0.000000 0.000000 0.289920 0.000000 0.000000
# 5 0.000000 0.000000 0.000000 0.000000 0.005697 0.000000
# 6 0.000000 0.000000 0.000000 0.000000 0.000000 0.085765
#
#
# Mechanical properties :
#
#
# Convention : Reuss Voigt Hill
#
# Bulk Modulus (GPa) = 26.96503 50.41880 38.69191
# Shear Modulus (GPa) = 10.51046 50.34274 30.42660
#
# Velocity S-wave (km/s) = 2.35056 5.14433 3.99933
# Velocity P-wave (km/s) = 4.64132 7.86064 6.45490
#
# Compressibility (1/GPa) = 0.03708507
#
# Stress axis : x y z
#
# Youngs Moduli (GPa) = 57.47992 32.85168 85.52896
#
# Poissons Ratio (x) = 0.00822 0.76512
# Poissons Ratio (y) = 0.01439 0.17328
# Poissons Ratio (z) = 0.51420 0.06656
#
# Static dielectric constant tensor:
#      x y z
#    x 1.655270 0.000000 0.000000 
#    y 0.000000 1.465550 0.000000 
#    z 0.000000 0.000000 1.666200 
# 
# From -- ./inp_files/7487.got.cif
#   From: 2010.05.17/outbox.cif.g08.bks.cpg/sg41_4_cif.got.tgz:7487.got - 2010.06.03 18:54:24.
