data_PCOD9366078
_publ_section_title
;
Structure prediction by ZEFSAII (Michael W. Deem and Ramdas Pophale) SiO2 
 PCOD9366078
Probable space group: A B A 2
;
_chemical_formula_sum "Si O2"
_cell_formula_units_Z 56
_cell_length_a 14.683448
_cell_length_b 20.402813
_cell_length_c 7.536800
_cell_angle_alpha 90.000000
_cell_angle_beta 90.000000
_cell_angle_gamma 90.000000
_cell_volume 2257.902006
_symmetry_space_group_name_H-M "A B A 2"
_symmetry_group_IT_number 41
_symmetry_cell_setting 'orthorhombic'
loop_
_space_group_symop_operation_xyz
x,y,z
-x,-y,z
1/2-x,y,1/2+z
1/2+x,-y,1/2+z
x,1/2+y,1/2+z
-x,1/2-y,1/2+z
1/2-x,1/2+y,z
1/2+x,1/2-y,z
loop_
_atom_site_type_symbol
_atom_site_label
_atom_site_fract_x
_atom_site_fract_y
_atom_site_fract_z
Si Si1 0.266369 0.879454 0.060790
Si Si2 0.940716 0.661870 0.235601
Si Si3 0.134485 0.129487 0.768416
Si Si4 0.872987 0.732580 0.568344
Si Si5 0.133505 0.449286 0.754515
Si Si6 0.819755 0.911221 0.405030
Si Si7 0.503160 0.848208 0.828340
O O1 0.350872 0.880831 0.198559
O O2 0.220672 0.808469 0.066266
O O3 0.183872 0.931289 0.074193
O O4 0.315026 0.896068 0.878218
O O5 0.911089 0.720661 0.367074
O O6 0.029341 0.628894 0.326852
O O7 0.975485 0.673504 0.030939
O O8 0.147855 0.199902 0.670861
O O9 0.147792 0.079020 0.606847
O O10 0.216164 0.113860 0.900686
O O11 0.948596 0.696459 0.691051
O O12 0.162313 0.520839 0.808686
O O13 0.032412 0.422735 0.783685
O O14 0.888340 0.857476 0.322022
#
# Coordination Sequence:
#
# PCOD9366078 Si02
#       7
#     8   8   8   8   8   8   8
#     4  10  20  39  70  97 120 171 229 279 335 402
#     4  10  23  44  64  99 134 169 228 279 337 397
#     4  11  28  40  66  98 137 189 213 280 350 406
#     4  11  24  43  68  98 129 173 228 279 338 401
#     4  10  19  39  69  95 131 172 219 283 333 399
#     4  11  24  45  61  99 139 175 222 272 346 409
#     4   9  23  42  72  98 126 182 228 278 335 394
#
# _framework density 24.801783
#
# number of rings (size 3 to 8) (size 9 to 14) (size 15 to 20)
#    0.000    1.714    1.429    1.286    8.000    0.000 
#    0.000    2.143    0.000    0.000    0.000    0.000 
#    0.000    0.000    0.000    0.000    0.000    0.000 
#
# Total GULP energy -156235.750837 kJ/mol
# GULP energy per Si atom -5579.848244 kJ/mol
# Density = 2.474533 g / cm^3
# Si number density = 24.801783 Si / 1000 Ang^3
#
#
#
# Elastic Constant Matrix: (Units=GPa)
#
#
# Indices 1 2 3 4 5 6 
#
# 1 163.3609 9.1504 10.6715 0.0000 0.0000 0.0000
# 2 9.1504 70.1871 9.9709 0.0000 0.0000 0.0000
# 3 10.6715 9.9709 70.1187 0.0000 0.0000 0.0000
# 4 0.0000 0.0000 0.0000 19.6712 0.0000 0.0000
# 5 0.0000 0.0000 0.0000 0.0000 42.2816 0.0000
# 6 0.0000 0.0000 0.0000 0.0000 0.0000 21.1859
#
#
#
# Elastic Compliance Matrix: (Units=1/GPa)
#
#
# Indices 1 2 3 4 5 6 
#
# 1 0.006215 -0.000690 -0.000848 0.000000 0.000000 0.000000
# 2 -0.000690 0.014618 -0.001974 0.000000 0.000000 0.000000
# 3 -0.000848 -0.001974 0.014671 0.000000 0.000000 0.000000
# 4 0.000000 0.000000 0.000000 0.050836 0.000000 0.000000
# 5 0.000000 0.000000 0.000000 0.000000 0.023651 0.000000
# 6 0.000000 0.000000 0.000000 0.000000 0.000000 0.047201
#
#
# Mechanical properties :
#
#
# Convention : Reuss Voigt Hill
#
# Bulk Modulus (GPa) = 35.11011 40.36138 37.73575
# Shear Modulus (GPa) = 28.78374 34.88600 31.83487
#
# Velocity S-wave (km/s) = 3.41038 3.75453 3.58658
# Velocity P-wave (km/s) = 5.44928 5.92488 5.69205
#
# Compressibility (1/GPa) = 0.02848182
#
# Stress axis : x y z
#
# Youngs Moduli (GPa) = 160.88961 68.40903 68.16067
#
# Poissons Ratio (x) = 0.04719 0.05779
# Poissons Ratio (y) = 0.11099 0.13453
# Poissons Ratio (z) = 0.13641 0.13502
#
# Static dielectric constant tensor:
#      x y z
#    x 2.096160 0.000000 0.000000 
#    y 0.000000 2.025420 0.000000 
#    z 0.000000 0.000000 2.089270 
# 
# From -- ./inp_files/2682.got.cif
#   From: 2010.05.17/outbox.cif.g08.bks.cpg/sg41_2_cif.got.tgz:2682.got - 2010.06.03 18:54:24.
