data_PCOD9366120
_publ_section_title
;
Structure prediction by ZEFSAII (Michael W. Deem and Ramdas Pophale) SiO2 
 PCOD9366120
Probable space group: A B A 2
;
_chemical_formula_sum "Si O2"
_cell_formula_units_Z 48
_cell_length_a 18.460970
_cell_length_b 21.010862
_cell_length_c 5.270454
_cell_angle_alpha 90.000000
_cell_angle_beta 90.000000
_cell_angle_gamma 90.000000
_cell_volume 2044.308404
_symmetry_space_group_name_H-M "A B A 2"
_symmetry_group_IT_number 41
_symmetry_cell_setting 'orthorhombic'
loop_
_space_group_symop_operation_xyz
x,y,z
-x,-y,z
1/2-x,y,1/2+z
1/2+x,-y,1/2+z
x,1/2+y,1/2+z
-x,1/2-y,1/2+z
1/2-x,1/2+y,z
1/2+x,1/2-y,z
loop_
_atom_site_type_symbol
_atom_site_label
_atom_site_fract_x
_atom_site_fract_y
_atom_site_fract_z
Si Si1 0.215277 0.340254 0.351460
Si Si2 0.214936 0.992930 0.938555
Si Si3 0.095445 0.253251 0.116778
Si Si4 0.522806 0.073129 0.208597
Si Si5 0.928287 0.041924 0.201500
Si Si6 0.933354 0.812115 0.611746
O O1 0.223741 0.319716 0.644589
O O2 0.219990 0.416739 0.381713
O O3 0.146643 0.309766 0.212433
O O4 0.228918 0.018043 0.653625
O O5 0.138014 0.997432 0.084283
O O6 0.100923 0.201790 0.341429
O O7 0.013799 0.280526 0.108030
O O8 0.107756 0.219197 0.848122
O O9 0.553534 0.093086 0.482938
O O10 0.452812 0.114253 0.146557
O O11 0.500000 0.000000 0.246519
O O12 0.580171 0.073271 0.977174
O O13 0.000000 0.000000 0.240953
#
# Coordination Sequence:
#
# PCOD9366120 Si02
#       6
#     8   8   8   8   8   8
#     4  10  20  33  51  77 110 147 183 222 278 345
#     4  10  20  33  52  80 113 149 188 236 298 362
#     4  10  20  33  51  78 111 140 176 220 274 342
#     4  10  20  34  54  81 109 140 184 233 281 333
#     4  10  20  34  54  81 111 146 189 239 297 347
#     4  10  20  33  52  79 108 142 174 222 282 325
#
# _framework density 23.479825999999999
#
# number of rings (size 3 to 8) (size 9 to 14) (size 15 to 20)
#    0.000    2.000    0.000    4.000    0.000    5.333 
#    0.000    0.000    0.000    0.000    0.000   93.333 
#    0.000    0.000    0.000    0.000    0.000    0.000 
#
# Total GULP energy -133811.095130 kJ/mol
# GULP energy per Si atom -5575.462297 kJ/mol
# Density = 2.342638 g / cm^3
# Si number density = 23.479826 Si / 1000 Ang^3
#
#
#
# Elastic Constant Matrix: (Units=GPa)
#
#
# Indices 1 2 3 4 5 6 
#
# 1 44.4090 -8.5668 23.5166 0.0000 0.0000 0.0000
# 2 -8.5668 57.8128 3.6021 0.0000 0.0000 0.0000
# 3 23.5166 3.6021 134.8067 0.0000 0.0000 0.0000
# 4 0.0000 0.0000 0.0000 18.1386 0.0000 0.0000
# 5 0.0000 0.0000 0.0000 0.0000 32.5098 0.0000
# 6 0.0000 0.0000 0.0000 0.0000 0.0000 18.5337
#
#
#
# Elastic Compliance Matrix: (Units=1/GPa)
#
#
# Indices 1 2 3 4 5 6 
#
# 1 0.025746 0.004102 -0.004601 0.000000 0.000000 0.000000
# 2 0.004102 0.017980 -0.001196 0.000000 0.000000 0.000000
# 3 -0.004601 -0.001196 0.008253 0.000000 0.000000 0.000000
# 4 0.000000 0.000000 0.000000 0.055131 0.000000 0.000000
# 5 0.000000 0.000000 0.000000 0.000000 0.030760 0.000000
# 6 0.000000 0.000000 0.000000 0.000000 0.000000 0.053956
#
#
# Mechanical properties :
#
#
# Convention : Reuss Voigt Hill
#
# Bulk Modulus (GPa) = 20.58143 30.45915 25.52029
# Shear Modulus (GPa) = 23.65066 28.40151 26.02609
#
# Velocity S-wave (km/s) = 3.17720 3.48172 3.33294
# Velocity P-wave (km/s) = 4.71637 5.40035 5.06991
#
# Compressibility (1/GPa) = 0.04858750
#
# Stress axis : x y z
#
# Youngs Moduli (GPa) = 38.84160 55.61884 121.17413
#
# Poissons Ratio (x) = -0.22813 0.55750
# Poissons Ratio (y) = -0.15932 0.14492
# Poissons Ratio (z) = 0.17870 0.06652
#
# Static dielectric constant tensor:
#      x y z
#    x 2.107990 0.000000 0.000000 
#    y 0.000000 1.927020 0.000000 
#    z 0.000000 0.000000 1.986340 
# 
# From -- ./inp_files/699.got.cif
#   From: 2010.05.17/outbox.cif.g08.bks.cpg/sg41_1_cif.got.tgz:699.got - 2010.06.03 18:54:24.
