data_PCOD9366032
_publ_section_title
;
Structure prediction by ZEFSAII (Michael W. Deem and Ramdas Pophale) SiO2 
 PCOD9366032
Probable space group: A B A 2
;
_chemical_formula_sum "Si O2"
_cell_formula_units_Z 56
_cell_length_a 5.584094
_cell_length_b 27.331647
_cell_length_c 14.590796
_cell_angle_alpha 90.000000
_cell_angle_beta 90.000000
_cell_angle_gamma 90.000000
_cell_volume 2226.883559
_symmetry_space_group_name_H-M "A B A 2"
_symmetry_group_IT_number 41
_symmetry_cell_setting 'orthorhombic'
loop_
_space_group_symop_operation_xyz
x,y,z
-x,-y,z
1/2-x,y,1/2+z
1/2+x,-y,1/2+z
x,1/2+y,1/2+z
-x,1/2-y,1/2+z
1/2-x,1/2+y,z
1/2+x,1/2-y,z
loop_
_atom_site_type_symbol
_atom_site_label
_atom_site_fract_x
_atom_site_fract_y
_atom_site_fract_z
Si Si1 0.604078 0.367417 0.947930
Si Si2 0.446602 0.735361 0.879796
Si Si3 0.734414 0.548880 0.516560
Si Si4 0.351247 0.270944 0.588654
Si Si5 0.250434 0.083767 0.278167
Si Si6 0.000000 0.500000 0.677157
Si Si7 0.000000 0.500000 0.367502
Si Si8 0.438995 0.131596 0.100467
O O1 0.487793 0.321669 0.896042
O O2 0.791451 0.388938 0.873379
O O3 0.433218 0.410192 0.986321
O O4 0.739122 0.345581 0.034901
O O5 0.680718 0.760303 0.835837
O O6 0.387307 0.759927 0.979530
O O7 0.797702 0.517478 0.606347
O O8 0.771830 0.510593 0.433282
O O9 0.513405 0.581743 0.548419
O O10 0.604664 0.250996 0.626276
O O11 0.350003 0.329286 0.604461
O O12 0.464015 0.046664 0.304399
O O13 0.333863 0.119266 0.198510
O O14 0.055177 0.047008 0.238440
#
# Coordination Sequence:
#
# PCOD9366032 Si02
#       8
#     8   8   8   8   8   4   4   8
#     4  11  23  42  64  99 132 170 229 272 345 408
#     4  10  19  37  66  95 132 176 220 279 340 410
#     4  10  22  40  68  91 126 185 219 281 337 418
#     4  10  20  37  68  98 131 178 225 282 342 416
#     4  11  25  42  62 100 132 172 223 291 330 414
#     4  11  22  42  61  90 136 172 229 282 347 400
#     4   9  22  44  59  96 136 166 237 270 341 408
#     4  12  23  41  70  94 132 180 226 275 354 410
#
# _framework density 25.147251000000001
#
# number of rings (size 3 to 8) (size 9 to 14) (size 15 to 20)
#    0.000    1.429    4.286    2.571    2.000    0.000 
#    0.000    1.429    0.000    0.000    0.000    0.000 
#    0.000    0.000    0.000    0.000    0.000    0.000 
#
# Total GULP energy -156430.561891 kJ/mol
# GULP energy per Si atom -5586.805782 kJ/mol
# Density = 2.509002 g / cm^3
# Si number density = 25.147251 Si / 1000 Ang^3
#
#
#
# Elastic Constant Matrix: (Units=GPa)
#
#
# Indices 1 2 3 4 5 6 
#
# 1 107.5331 15.2611 18.1612 0.0000 0.0000 0.0000
# 2 15.2611 104.8045 14.5484 0.0000 0.0000 0.0000
# 3 18.1612 14.5484 112.1966 0.0000 0.0000 0.0000
# 4 0.0000 0.0000 0.0000 3.0512 0.0000 0.0000
# 5 0.0000 0.0000 0.0000 0.0000 17.2635 0.0000
# 6 0.0000 0.0000 0.0000 0.0000 0.0000 49.3277
#
#
#
# Elastic Compliance Matrix: (Units=1/GPa)
#
#
# Indices 1 2 3 4 5 6 
#
# 1 0.009711 -0.001218 -0.001414 0.000000 0.000000 0.000000
# 2 -0.001218 0.009869 -0.001083 0.000000 0.000000 0.000000
# 3 -0.001414 -0.001083 0.009282 0.000000 0.000000 0.000000
# 4 0.000000 0.000000 0.000000 0.327742 0.000000 0.000000
# 5 0.000000 0.000000 0.000000 0.000000 0.057926 0.000000
# 6 0.000000 0.000000 0.000000 0.000000 0.000000 0.020273
#
#
# Mechanical properties :
#
#
# Convention : Reuss Voigt Hill
#
# Bulk Modulus (GPa) = 46.65561 46.71951 46.68756
# Shear Modulus (GPa) = 11.12654 32.36603 21.74629
#
# Velocity S-wave (km/s) = 2.10574 3.59145 2.94387
# Velocity P-wave (km/s) = 4.95030 5.98471 5.49191
#
# Compressibility (1/GPa) = 0.02143365
#
# Stress axis : x y z
#
# Youngs Moduli (GPa) = 102.97489 101.32546 107.73316
#
# Poissons Ratio (x) = 0.12339 0.15234
# Poissons Ratio (y) = 0.12540 0.11663
# Poissons Ratio (z) = 0.14561 0.10970
#
# Static dielectric constant tensor:
#      x y z
#    x 2.114170 0.000000 0.000000 
#    y 0.000000 2.010230 0.000000 
#    z 0.000000 0.000000 1.978150 
# 
# From -- ./inp_files/6988.got.cif
#   From: 2010.05.17/outbox.cif.g08.bks.cpg/sg41_4_cif.got.tgz:6988.got - 2010.06.03 18:54:24.
