data_PCOD9366897
_publ_section_title
;
Structure prediction by ZEFSAII (Michael W. Deem and Ramdas Pophale) SiO2 
 PCOD9366897
Probable space group: A B A 2
;
_chemical_formula_sum "Si O2"
_cell_formula_units_Z 36
_cell_length_a 19.585380
_cell_length_b 5.214107
_cell_length_c 12.807257
_cell_angle_alpha 90.000000
_cell_angle_beta 90.000000
_cell_angle_gamma 90.000000
_cell_volume 1307.880504
_symmetry_space_group_name_H-M "A B A 2"
_symmetry_group_IT_number 41
_symmetry_cell_setting 'orthorhombic'
loop_
_space_group_symop_operation_xyz
x,y,z
-x,-y,z
1/2-x,y,1/2+z
1/2+x,-y,1/2+z
x,1/2+y,1/2+z
-x,1/2-y,1/2+z
1/2-x,1/2+y,z
1/2+x,1/2-y,z
loop_
_atom_site_type_symbol
_atom_site_label
_atom_site_fract_x
_atom_site_fract_y
_atom_site_fract_z
Si Si1 0.122117 0.475369 0.164300
Si Si2 0.679047 0.529949 0.258077
Si Si3 0.081120 0.100342 0.438834
Si Si4 0.500000 0.500000 0.830008
Si Si5 0.722009 0.779551 0.955337
O O1 0.159076 0.208945 0.186003
O O2 0.063764 0.495278 0.252488
O O3 0.171221 0.720067 0.185710
O O4 0.084367 0.481531 0.053020
O O5 0.618249 0.555589 0.346002
O O6 0.736445 0.396759 0.336853
O O7 0.014278 0.254141 0.403853
O O8 0.144065 0.311427 0.451969
O O9 0.732688 0.059638 0.005569
#
# Coordination Sequence:
#
# PCOD9366897 Si02
#       5
#     8   8   8   4   8
#     4  11  22  43  64  99 131 176 218 270 329 400
#     4   9  23  40  65  93 133 165 226 262 328 392
#     4   9  24  41  69  97 138 173 221 278 331 395
#     4  10  24  42  68 102 134 178 220 276 336 402
#     4  10  21  43  69  95 134 178 215 281 337 390
#
# _framework density 27.525448000000001
#
# number of rings (size 3 to 8) (size 9 to 14) (size 15 to 20)
#    1.333    0.889    0.000    1.333    0.000   14.222 
#    0.000    6.667    0.000    0.000    0.000    0.000 
#    0.000    0.000    0.000    0.000    0.000    0.000 
#
# Total GULP energy -100334.116396 kJ/mol
# GULP energy per Si atom -5574.117578 kJ/mol
# Density = 2.746280 g / cm^3
# Si number density = 27.525448 Si / 1000 Ang^3
#
#
#
# Elastic Constant Matrix: (Units=GPa)
#
#
# Indices 1 2 3 4 5 6 
#
# 1 39.4134 -25.6859 -0.8575 0.0000 0.0000 0.0000
# 2 -25.6859 156.3959 45.1595 0.0000 0.0000 0.0000
# 3 -0.8575 45.1595 195.9384 0.0000 0.0000 0.0000
# 4 0.0000 0.0000 0.0000 32.3300 0.0000 0.0000
# 5 0.0000 0.0000 0.0000 0.0000 54.4096 0.0000
# 6 0.0000 0.0000 0.0000 0.0000 0.0000 25.0089
#
#
#
# Elastic Compliance Matrix: (Units=1/GPa)
#
#
# Indices 1 2 3 4 5 6 
#
# 1 0.028604 0.004994 -0.001026 0.000000 0.000000 0.000000
# 2 0.004994 0.007722 -0.001758 0.000000 0.000000 0.000000
# 3 -0.001026 -0.001758 0.005504 0.000000 0.000000 0.000000
# 4 0.000000 0.000000 0.000000 0.030931 0.000000 0.000000
# 5 0.000000 0.000000 0.000000 0.000000 0.018379 0.000000
# 6 0.000000 0.000000 0.000000 0.000000 0.000000 0.039986
#
#
# Mechanical properties :
#
#
# Convention : Reuss Voigt Hill
#
# Bulk Modulus (GPa) = 21.62100 47.66444 34.64272
# Shear Modulus (GPa) = 35.18084 47.22513 41.20299
#
# Velocity S-wave (km/s) = 3.57896 4.14658 3.87318
# Velocity P-wave (km/s) = 4.99505 6.34662 5.71096
#
# Compressibility (1/GPa) = 0.04625133
#
# Stress axis : x y z
#
# Youngs Moduli (GPa) = 34.95964 129.50309 181.67614
#
# Poissons Ratio (x) = -0.64675 0.18637
# Poissons Ratio (y) = -0.17459 0.31936
# Poissons Ratio (z) = 0.03586 0.22765
#
# Static dielectric constant tensor:
#      x y z
#    x 2.647600 0.000000 0.000000 
#    y 0.000000 2.707000 0.000000 
#    z 0.000000 0.000000 2.271570 
# 
# From -- ./inp_files/6353.got.cif
#   From: 2010.05.17/outbox.cif.g08.bks.cpg/sg41_4_cif.got.tgz:6353.got - 2010.06.03 18:54:24.
