data_PCOD9366466
_publ_section_title
;
Structure prediction by ZEFSAII (Michael W. Deem and Ramdas Pophale) SiO2 
 PCOD9366466
Probable space group: A B A 2
;
_chemical_formula_sum "Si O2"
_cell_formula_units_Z 44
_cell_length_a 12.842100
_cell_length_b 17.899829
_cell_length_c 7.643528
_cell_angle_alpha 90.000000
_cell_angle_beta 90.000000
_cell_angle_gamma 90.000000
_cell_volume 1757.028436
_symmetry_space_group_name_H-M "A B A 2"
_symmetry_group_IT_number 41
_symmetry_cell_setting 'orthorhombic'
loop_
_space_group_symop_operation_xyz
x,y,z
-x,-y,z
1/2-x,y,1/2+z
1/2+x,-y,1/2+z
x,1/2+y,1/2+z
-x,1/2-y,1/2+z
1/2-x,1/2+y,z
1/2+x,1/2-y,z
loop_
_atom_site_type_symbol
_atom_site_label
_atom_site_fract_x
_atom_site_fract_y
_atom_site_fract_z
Si Si1 0.098711 0.357930 0.089420
Si Si2 0.805005 0.850524 0.932331
Si Si3 0.837528 0.452358 0.733562
Si Si4 0.392586 0.230952 0.109378
Si Si5 0.000000 0.000000 0.527584
Si Si6 0.319500 0.878593 0.698553
O O1 0.203238 0.344856 0.195455
O O2 0.008650 0.297677 0.081820
O O3 0.137786 0.375479 0.894065
O O4 0.047472 0.435739 0.146228
O O5 0.865103 0.887688 0.094812
O O6 0.698182 0.810023 0.997339
O O7 0.769031 0.921193 0.815538
O O8 0.864265 0.793450 0.808116
O O9 0.917734 0.461829 0.893696
O O10 0.822574 0.534210 0.648395
O O11 0.384687 0.319581 0.087217
#
# Coordination Sequence:
#
# PCOD9366466 Si02
#       6
#     8   8   8   8   4   8
#     4  11  25  47  71 101 142 184 235 286 355 407
#     4  10  22  41  70 100 135 182 224 282 334 417
#     4  10  20  42  65  99 136 173 231 279 337 403
#     4  11  24  46  70 100 142 182 228 280 355 409
#     4  10  20  42  70 100 132 186 222 298 334 416
#     4  11  25  44  71  99 140 179 231 293 338 413
#
# _framework density 25.042280000000002
#
# number of rings (size 3 to 8) (size 9 to 14) (size 15 to 20)
#    0.000    1.455    1.818    3.273    2.545    2.909 
#   19.636    0.000    0.000    0.000    0.000    0.000 
#    0.000    0.000    0.000    0.000    0.000    0.000 
#
# Total GULP energy -123156.361164 kJ/mol
# GULP energy per Si atom -5598.016417 kJ/mol
# Density = 2.498528 g / cm^3
# Si number density = 25.042280 Si / 1000 Ang^3
#
#
#
# Elastic Constant Matrix: (Units=GPa)
#
#
# Indices 1 2 3 4 5 6 
#
# 1 104.8688 26.5937 2.0842 0.0000 0.0000 0.0000
# 2 26.5937 133.1593 9.3015 0.0000 0.0000 0.0000
# 3 2.0842 9.3015 38.6178 0.0000 0.0000 0.0000
# 4 0.0000 0.0000 0.0000 28.4950 0.0000 0.0000
# 5 0.0000 0.0000 0.0000 0.0000 28.9998 0.0000
# 6 0.0000 0.0000 0.0000 0.0000 0.0000 36.6811
#
#
#
# Elastic Compliance Matrix: (Units=1/GPa)
#
#
# Indices 1 2 3 4 5 6 
#
# 1 0.010045 -0.002002 -0.000060 0.000000 0.000000 0.000000
# 2 -0.002002 0.008037 -0.001828 0.000000 0.000000 0.000000
# 3 -0.000060 -0.001828 0.026338 0.000000 0.000000 0.000000
# 4 0.000000 0.000000 0.000000 0.035094 0.000000 0.000000
# 5 0.000000 0.000000 0.000000 0.000000 0.034483 0.000000
# 6 0.000000 0.000000 0.000000 0.000000 0.000000 0.027262
#
#
# Mechanical properties :
#
#
# Convention : Reuss Voigt Hill
#
# Bulk Modulus (GPa) = 27.29191 39.17829 33.23510
# Shear Modulus (GPa) = 31.00742 34.74629 32.87686
#
# Velocity S-wave (km/s) = 3.52263 3.72896 3.62726
# Velocity P-wave (km/s) = 5.24092 5.84971 5.55366
#
# Compressibility (1/GPa) = 0.03664089
#
# Stress axis : x y z
#
# Youngs Moduli (GPa) = 99.55633 124.42023 37.96759
#
# Poissons Ratio (x) = 0.24907 0.00228
# Poissons Ratio (y) = 0.19930 0.06940
# Poissons Ratio (z) = 0.00597 0.22742
#
# Static dielectric constant tensor:
#      x y z
#    x 1.966890 0.000000 0.000000 
#    y 0.000000 2.013780 0.000000 
#    z 0.000000 0.000000 1.994470 
# 
# From -- ./inp_files/2483.got.cif
#   From: 2010.05.17/outbox.cif.g08.bks.cpg/sg41_2_cif.got.tgz:2483.got - 2010.06.03 18:54:24.
