data_PCOD9366735
_publ_section_title
;
Structure prediction by ZEFSAII (Michael W. Deem and Ramdas Pophale) SiO2 
 PCOD9366735
Probable space group: A B A 2
;
_chemical_formula_sum "Si O2"
_cell_formula_units_Z 44
_cell_length_a 10.219513
_cell_length_b 8.670540
_cell_length_c 21.027514
_cell_angle_alpha 90.000000
_cell_angle_beta 90.000000
_cell_angle_gamma 90.000000
_cell_volume 1863.220601
_symmetry_space_group_name_H-M "A B A 2"
_symmetry_group_IT_number 41
_symmetry_cell_setting 'orthorhombic'
loop_
_space_group_symop_operation_xyz
x,y,z
-x,-y,z
1/2-x,y,1/2+z
1/2+x,-y,1/2+z
x,1/2+y,1/2+z
-x,1/2-y,1/2+z
1/2-x,1/2+y,z
1/2+x,1/2-y,z
loop_
_atom_site_type_symbol
_atom_site_label
_atom_site_fract_x
_atom_site_fract_y
_atom_site_fract_z
Si Si1 0.500000 0.000000 0.425700
Si Si2 0.138602 0.710636 0.958827
Si Si3 0.295746 0.613337 0.719079
Si Si4 0.500000 0.500000 0.555842
Si Si5 0.000000 0.000000 0.354745
Si Si6 0.578944 0.195677 0.172080
Si Si7 0.177006 0.228511 0.852011
O O1 0.556945 0.134736 0.469042
O O2 0.403488 0.081866 0.376496
O O3 0.265659 0.776446 0.921669
O O4 0.083113 0.612469 0.899908
O O5 0.110797 0.592356 0.015752
O O6 0.170956 0.655941 0.676160
O O7 0.429600 0.702818 0.697567
O O8 0.344092 0.437471 0.712124
O O9 0.252013 0.663828 0.789687
O O10 0.567716 0.624852 0.601589
O O11 0.095874 0.874189 0.325035
#
# Coordination Sequence:
#
# PCOD9366735 Si02
#       7
#     4   8   8   4   4   8   8
#     4  10  22  39  58 104 131 176 222 260 366 398
#     4  10  21  40  64  95 128 179 217 284 338 403
#     4  10  24  41  72 101 143 175 237 280 351 409
#     4   9  22  51  68  92 141 170 245 284 336 411
#     4   9  22  36  54  98 134 170 211 266 348 393
#     4  10  24  49  68 105 131 193 227 296 335 406
#     4  11  22  37  64  99 142 176 219 280 345 418
#
# _framework density 23.615023999999998
#
# number of rings (size 3 to 8) (size 9 to 14) (size 15 to 20)
#    0.000    2.182    0.000    2.182   10.182    0.727 
#   26.182    0.000    0.000    0.000    0.000    0.000 
#    0.000    0.000    0.000    0.000    0.000    0.000 
#
# Total GULP energy -122481.011273 kJ/mol
# GULP energy per Si atom -5567.318694 kJ/mol
# Density = 2.356128 g / cm^3
# Si number density = 23.615024 Si / 1000 Ang^3
#
#
#
# Elastic Constant Matrix: (Units=GPa)
#
#
# Indices 1 2 3 4 5 6 
#
# 1 59.8888 7.6476 18.6784 0.0000 0.0000 0.0000
# 2 7.6476 63.4855 25.8608 0.0000 0.0000 0.0000
# 3 18.6784 25.8608 112.5199 0.0000 0.0000 0.0000
# 4 0.0000 0.0000 0.0000 12.5414 0.0000 0.0000
# 5 0.0000 0.0000 0.0000 0.0000 8.4423 0.0000
# 6 0.0000 0.0000 0.0000 0.0000 0.0000 42.7784
#
#
#
# Elastic Compliance Matrix: (Units=1/GPa)
#
#
# Indices 1 2 3 4 5 6 
#
# 1 0.017670 -0.001030 -0.002696 0.000000 0.000000 0.000000
# 2 -0.001030 0.017439 -0.003837 0.000000 0.000000 0.000000
# 3 -0.002696 -0.003837 0.010217 0.000000 0.000000 0.000000
# 4 0.000000 0.000000 0.000000 0.079736 0.000000 0.000000
# 5 0.000000 0.000000 0.000000 0.000000 0.118452 0.000000
# 6 0.000000 0.000000 0.000000 0.000000 0.000000 0.023376
#
#
# Mechanical properties :
#
#
# Convention : Reuss Voigt Hill
#
# Bulk Modulus (GPa) = 33.11436 37.80754 35.46095
# Shear Modulus (GPa) = 17.11841 24.99955 21.05898
#
# Velocity S-wave (km/s) = 2.69531 3.25719 2.98948
# Velocity P-wave (km/s) = 4.87230 5.49458 5.19277
#
# Compressibility (1/GPa) = 0.03019838
#
# Stress axis : x y z
#
# Youngs Moduli (GPa) = 56.59257 57.34366 97.87794
#
# Poissons Ratio (x) = 0.05907 0.26393
# Poissons Ratio (y) = 0.05830 0.37556
# Poissons Ratio (z) = 0.15260 0.22003
#
# Static dielectric constant tensor:
#      x y z
#    x 2.652170 0.000000 0.000000 
#    y 0.000000 1.963970 0.000000 
#    z 0.000000 0.000000 1.916050 
# 
# From -- ./inp_files/12093.got.cif
#   From: 2010.05.17/outbox.cif.g08.bks.cpg/sg41_7_cif.got.tgz:12093.got - 2010.06.03 18:54:24.
