data_PCOD9366375
_publ_section_title
;
Structure prediction by ZEFSAII (Michael W. Deem and Ramdas Pophale) SiO2 
 PCOD9366375
Probable space group: A B A 2
;
_chemical_formula_sum "Si O2"
_cell_formula_units_Z 44
_cell_length_a 14.643026
_cell_length_b 17.397413
_cell_length_c 7.491007
_cell_angle_alpha 90.000000
_cell_angle_beta 90.000000
_cell_angle_gamma 90.000000
_cell_volume 1908.339808
_symmetry_space_group_name_H-M "A B A 2"
_symmetry_group_IT_number 41
_symmetry_cell_setting 'orthorhombic'
loop_
_space_group_symop_operation_xyz
x,y,z
-x,-y,z
1/2-x,y,1/2+z
1/2+x,-y,1/2+z
x,1/2+y,1/2+z
-x,1/2-y,1/2+z
1/2-x,1/2+y,z
1/2+x,1/2-y,z
loop_
_atom_site_type_symbol
_atom_site_label
_atom_site_fract_x
_atom_site_fract_y
_atom_site_fract_z
Si Si1 0.429131 0.288102 0.927130
Si Si2 0.628817 0.106294 0.136845
Si Si3 0.113878 0.136463 0.962159
Si Si4 0.500000 0.000000 0.374108
Si Si5 0.299819 0.188527 0.136829
Si Si6 0.674486 0.641730 0.241106
O O1 0.403840 0.314526 0.730086
O O2 0.537108 0.296543 0.949542
O O3 0.373927 0.212376 0.985257
O O4 0.388777 0.351309 0.067368
O O5 0.734401 0.095620 0.193786
O O6 0.565055 0.046728 0.238584
O O7 0.628860 0.113795 0.923119
O O8 0.153152 0.127194 0.762702
O O9 0.201798 0.159361 0.075774
O O10 0.060347 0.057524 0.995226
O O11 0.293676 0.268072 0.253041
#
# Coordination Sequence:
#
# PCOD9366375 Si02
#       6
#     8   8   8   4   8   8
#     4   9  23  41  69 105 133 176 225 303 371 414
#     4  11  19  42  68  99 136 179 240 273 354 431
#     4  11  23  48  65 103 146 183 238 287 361 434
#     4  10  28  42  66  96 148 206 234 280 334 458
#     4  10  23  40  72 107 132 176 229 312 366 411
#     4  10  20  39  74 101 128 179 228 306 370 400
#
# _framework density 23.056688999999999
#
# number of rings (size 3 to 8) (size 9 to 14) (size 15 to 20)
#    1.091    0.727    1.818    2.182    0.000    8.727 
#    6.545    3.636    0.000    0.000    0.000    0.000 
#    0.000    0.000    0.000    0.000    0.000    0.000 
#
# Total GULP energy -122727.289377 kJ/mol
# GULP energy per Si atom -5578.513154 kJ/mol
# Density = 2.300421 g / cm^3
# Si number density = 23.056689 Si / 1000 Ang^3
#
#
#
# Elastic Constant Matrix: (Units=GPa)
#
#
# Indices 1 2 3 4 5 6 
#
# 1 180.3354 34.9809 39.7950 0.0000 0.0000 0.0000
# 2 34.9809 56.1614 6.4810 0.0000 0.0000 0.0000
# 3 39.7950 6.4810 95.8849 0.0000 0.0000 0.0000
# 4 0.0000 0.0000 0.0000 18.9952 0.0000 0.0000
# 5 0.0000 0.0000 0.0000 0.0000 33.0938 0.0000
# 6 0.0000 0.0000 0.0000 0.0000 0.0000 40.2132
#
#
#
# Elastic Compliance Matrix: (Units=1/GPa)
#
#
# Indices 1 2 3 4 5 6 
#
# 1 0.006891 -0.003994 -0.002590 0.000000 0.000000 0.000000
# 2 -0.003994 0.020260 0.000288 0.000000 0.000000 0.000000
# 3 -0.002590 0.000288 0.011485 0.000000 0.000000 0.000000
# 4 0.000000 0.000000 0.000000 0.052645 0.000000 0.000000
# 5 0.000000 0.000000 0.000000 0.000000 0.030217 0.000000
# 6 0.000000 0.000000 0.000000 0.000000 0.000000 0.024867
#
#
# Mechanical properties :
#
#
# Convention : Reuss Voigt Hill
#
# Bulk Modulus (GPa) = 38.39549 54.98839 46.69194
# Shear Modulus (GPa) = 29.82608 35.20211 32.51410
#
# Velocity S-wave (km/s) = 3.60056 3.91162 3.75931
# Velocity P-wave (km/s) = 5.82874 6.65598 6.25605
#
# Compressibility (1/GPa) = 0.02604472
#
# Stress axis : x y z
#
# Youngs Moduli (GPa) = 145.10698 49.35834 87.07224
#
# Poissons Ratio (x) = 0.19711 0.22554
# Poissons Ratio (y) = 0.57949 -0.02508
# Poissons Ratio (z) = 0.37586 -0.01422
#
# Static dielectric constant tensor:
#      x y z
#    x 1.884820 0.000000 0.000000 
#    y 0.000000 1.938570 0.000000 
#    z 0.000000 0.000000 1.864950 
# 
# From -- ./inp_files/2493.got.cif
#   From: 2010.05.17/outbox.cif.g08.bks.cpg/sg41_2_cif.got.tgz:2493.got - 2010.06.03 18:54:24.
