data_PCOD9366676
_publ_section_title
;
Structure prediction by ZEFSAII (Michael W. Deem and Ramdas Pophale) SiO2 
 PCOD9366676
Probable space group: A B A 2
;
_chemical_formula_sum "Si O2"
_cell_formula_units_Z 64
_cell_length_a 9.106074
_cell_length_b 14.782555
_cell_length_c 21.537119
_cell_angle_alpha 90.000000
_cell_angle_beta 90.000000
_cell_angle_gamma 90.000000
_cell_volume 2899.133982
_symmetry_space_group_name_H-M "A B A 2"
_symmetry_group_IT_number 41
_symmetry_cell_setting 'orthorhombic'
loop_
_space_group_symop_operation_xyz
x,y,z
-x,-y,z
1/2-x,y,1/2+z
1/2+x,-y,1/2+z
x,1/2+y,1/2+z
-x,1/2-y,1/2+z
1/2-x,1/2+y,z
1/2+x,1/2-y,z
loop_
_atom_site_type_symbol
_atom_site_label
_atom_site_fract_x
_atom_site_fract_y
_atom_site_fract_z
Si Si1 0.051105 0.094271 0.211310
Si Si2 0.673604 0.726901 0.855979
Si Si3 0.067591 0.095425 0.429108
Si Si4 0.617278 0.916221 0.162738
Si Si5 0.751598 0.858027 0.532749
Si Si6 0.447730 0.726898 0.768576
Si Si7 0.225769 0.840634 0.485430
Si Si8 0.558001 0.600317 0.081104
O O1 0.215240 0.070652 0.187847
O O2 0.942948 0.123610 0.153792
O O3 0.037718 0.182017 0.252954
O O4 0.000000 0.000000 0.240426
O O5 0.614521 0.824009 0.882624
O O6 0.545457 0.676117 0.819405
O O7 0.803829 0.743905 0.806787
O O8 0.718655 0.665234 0.914417
O O9 0.207502 0.079629 0.473997
O O10 0.943879 0.136741 0.475334
O O11 0.000000 0.000000 0.405465
O O12 0.651585 0.885607 0.092198
O O13 0.565706 0.834345 0.207481
O O14 0.500000 0.000000 0.165136
O O15 0.777286 0.756288 0.511170
O O16 0.579194 0.851700 0.548864
O O17 0.298363 0.900244 0.539391
O O18 0.500000 0.500000 0.083906
#
# Coordination Sequence:
#
# PCOD9366676 Si02
#       8
#     8   8   8   8   8   8   8   8
#     4  10  24  43  69  99 134 180 226 285 351 424
#     4  11  25  44  65  92 129 180 237 279 342 419
#     4  11  23  41  65  98 131 174 228 290 356 416
#     4  11  25  43  68 105 135 176 230 286 355 423
#     4  10  21  39  66  95 131 164 214 273 343 421
#     4  12  24  48  65  94 137 182 234 284 343 415
#     4  11  22  41  65  94 129 177 217 277 343 414
#     4  10  21  39  62  97 129 160 210 268 339 402
#
# _framework density 22.075558999999998
#
# number of rings (size 3 to 8) (size 9 to 14) (size 15 to 20)
#    0.000    1.250    2.500    3.375    3.500    3.500 
#    2.250    0.000    0.000    0.000    0.000    0.000 
#    0.000    0.000    0.000    0.000    0.000    0.000 
#
# Total GULP energy -178275.767084 kJ/mol
# GULP energy per Si atom -5571.117721 kJ/mol
# Density = 2.202531 g / cm^3
# Si number density = 22.075559 Si / 1000 Ang^3
#
#
#
# Elastic Constant Matrix: (Units=GPa)
#
#
# Indices 1 2 3 4 5 6 
#
# 1 65.2842 8.7821 7.6995 0.0000 0.0000 0.0000
# 2 8.7821 34.8662 17.2085 0.0000 0.0000 0.0000
# 3 7.6995 17.2085 58.8204 0.0000 0.0000 0.0000
# 4 0.0000 0.0000 0.0000 53.8287 0.0000 0.0000
# 5 0.0000 0.0000 0.0000 0.0000 44.6685 0.0000
# 6 0.0000 0.0000 0.0000 0.0000 0.0000 32.7398
#
#
#
# Elastic Compliance Matrix: (Units=1/GPa)
#
#
# Indices 1 2 3 4 5 6 
#
# 1 0.015912 -0.003483 -0.001064 0.000000 0.000000 0.000000
# 2 -0.003483 0.034284 -0.009574 0.000000 0.000000 0.000000
# 3 -0.001064 -0.009574 0.019941 0.000000 0.000000 0.000000
# 4 0.000000 0.000000 0.000000 0.018577 0.000000 0.000000
# 5 0.000000 0.000000 0.000000 0.000000 0.022387 0.000000
# 6 0.000000 0.000000 0.000000 0.000000 0.000000 0.030544
#
#
# Mechanical properties :
#
#
# Convention : Reuss Voigt Hill
#
# Bulk Modulus (GPa) = 23.86924 25.15011 24.50967
# Shear Modulus (GPa) = 27.19587 34.59944 30.89765
#
# Velocity S-wave (km/s) = 3.51372 3.96323 3.74522
# Velocity P-wave (km/s) = 5.22471 5.68862 5.46159
#
# Compressibility (1/GPa) = 0.04189492
#
# Stress axis : x y z
#
# Youngs Moduli (GPa) = 62.84716 29.16843 50.14748
#
# Poissons Ratio (x) = 0.10159 0.05335
# Poissons Ratio (y) = 0.21888 0.48012
# Poissons Ratio (z) = 0.06686 0.27926
#
# Static dielectric constant tensor:
#      x y z
#    x 1.882380 0.000000 0.000000 
#    y 0.000000 1.626920 0.000000 
#    z 0.000000 0.000000 2.100690 
# 
# From -- ./inp_files/12054.got.cif
#   From: 2010.05.17/outbox.cif.g08.bks.cpg/sg41_7_cif.got.tgz:12054.got - 2010.06.03 18:54:24.
