data_PCOD9366367
_publ_section_title
;
Structure prediction by ZEFSAII (Michael W. Deem and Ramdas Pophale) SiO2 
 PCOD9366367
Probable space group: A B A 2
;
_chemical_formula_sum "Si O2"
_cell_formula_units_Z 52
_cell_length_a 14.927655
_cell_length_b 8.711189
_cell_length_c 18.321724
_cell_angle_alpha 90.000000
_cell_angle_beta 90.000000
_cell_angle_gamma 90.000000
_cell_volume 2382.513457
_symmetry_space_group_name_H-M "A B A 2"
_symmetry_group_IT_number 41
_symmetry_cell_setting 'orthorhombic'
loop_
_space_group_symop_operation_xyz
x,y,z
-x,-y,z
1/2-x,y,1/2+z
1/2+x,-y,1/2+z
x,1/2+y,1/2+z
-x,1/2-y,1/2+z
1/2-x,1/2+y,z
1/2+x,1/2-y,z
loop_
_atom_site_type_symbol
_atom_site_label
_atom_site_fract_x
_atom_site_fract_y
_atom_site_fract_z
Si Si1 0.372491 0.232864 0.832010
Si Si2 0.500000 0.000000 0.060395
Si Si3 0.209996 0.461997 0.578981
Si Si4 0.000000 0.500000 0.310468
Si Si5 0.000000 0.500000 0.760414
Si Si6 0.425314 0.701076 0.686118
Si Si7 0.711993 0.768596 0.674798
Si Si8 0.835644 0.331020 0.990682
O O1 0.441384 0.371407 0.849656
O O2 0.320100 0.266933 0.756371
O O3 0.320409 0.204257 0.906091
O O4 0.426292 0.079516 0.811376
O O5 0.487375 0.137798 0.120523
O O6 0.418665 0.053738 0.007374
O O7 0.293297 0.375750 0.620125
O O8 0.169513 0.577207 0.640294
O O9 0.249879 0.580299 0.521261
O O10 0.156060 0.330301 0.535642
O O11 0.935947 0.408165 0.255753
O O12 0.038874 0.363986 0.711790
O O13 0.319513 0.706944 0.672346
#
# Coordination Sequence:
#
# PCOD9366367 Si02
#       8
#     8   4   8   4   4   8   8   8
#     4  11  24  42  68  95 140 179 230 283 345 412
#     4  11  21  44  68  90 144 180 220 276 362 398
#     4  10  22  41  63 100 136 170 238 273 347 409
#     4   9  22  40  64  96 137 176 224 280 341 412
#     4  10  23  38  64 108 131 164 240 278 339 404
#     4  10  20  39  68 102 129 174 228 285 335 403
#     4  11  21  40  69  99 125 179 226 292 331 410
#     4  11  25  43  66  98 141 186 219 288 349 416
#
# _framework density 21.825689000000001
#
# number of rings (size 3 to 8) (size 9 to 14) (size 15 to 20)
#    0.000    1.538    3.077    2.308    4.308    3.692 
#    0.000    8.462    0.000    0.000    0.000    0.000 
#    0.000    0.000    0.000    0.000    0.000    0.000 
#
# Total GULP energy -144910.489012 kJ/mol
# GULP energy per Si atom -5573.480347 kJ/mol
# Density = 2.177601 g / cm^3
# Si number density = 21.825689 Si / 1000 Ang^3
#
#
#
# Elastic Constant Matrix: (Units=GPa)
#
#
# Indices 1 2 3 4 5 6 
#
# 1 37.3652 9.6876 19.4133 0.0000 0.0000 0.0000
# 2 9.6876 113.4940 47.4287 0.0000 0.0000 0.0000
# 3 19.4133 47.4287 136.4742 0.0000 0.0000 0.0000
# 4 0.0000 0.0000 0.0000 13.2076 0.0000 0.0000
# 5 0.0000 0.0000 0.0000 0.0000 14.1020 0.0000
# 6 0.0000 0.0000 0.0000 0.0000 0.0000 27.6779
#
#
#
# Elastic Compliance Matrix: (Units=1/GPa)
#
#
# Indices 1 2 3 4 5 6 
#
# 1 0.028973 -0.000878 -0.003816 0.000000 0.000000 0.000000
# 2 -0.000878 0.010335 -0.003467 0.000000 0.000000 0.000000
# 3 -0.003816 -0.003467 0.009075 0.000000 0.000000 0.000000
# 4 0.000000 0.000000 0.000000 0.075714 0.000000 0.000000
# 5 0.000000 0.000000 0.000000 0.000000 0.070912 0.000000
# 6 0.000000 0.000000 0.000000 0.000000 0.000000 0.036130
#
#
# Mechanical properties :
#
#
# Convention : Reuss Voigt Hill
#
# Bulk Modulus (GPa) = 31.19085 48.93252 40.06168
# Shear Modulus (GPa) = 19.36871 25.05109 22.20990
#
# Velocity S-wave (km/s) = 2.98220 3.39157 3.19345
# Velocity P-wave (km/s) = 5.11664 6.14860 5.65620
#
# Compressibility (1/GPa) = 0.03206069
#
# Stress axis : x y z
#
# Youngs Moduli (GPa) = 34.51448 96.76127 110.19282
#
# Poissons Ratio (x) = 0.08499 0.42052
# Poissons Ratio (y) = 0.03032 0.38200
# Poissons Ratio (z) = 0.13171 0.33544
#
# Static dielectric constant tensor:
#      x y z
#    x 1.856070 0.000000 0.000000 
#    y 0.000000 1.883410 0.000000 
#    z 0.000000 0.000000 1.821610 
# 
# From -- ./inp_files/10575.got.cif
#   From: 2010.05.17/outbox.cif.g08.bks.cpg/sg41_6_cif.got.tgz:10575.got - 2010.06.03 18:54:24.
