data_PCOD9366244
_publ_section_title
;
Structure prediction by ZEFSAII (Michael W. Deem and Ramdas Pophale) SiO2 
 PCOD9366244
Probable space group: A B A 2
;
_chemical_formula_sum "Si O2"
_cell_formula_units_Z 64
_cell_length_a 18.238033
_cell_length_b 8.882983
_cell_length_c 20.311504
_cell_angle_alpha 90.000000
_cell_angle_beta 90.000000
_cell_angle_gamma 90.000000
_cell_volume 3290.628925
_symmetry_space_group_name_H-M "A B A 2"
_symmetry_group_IT_number 41
_symmetry_cell_setting 'orthorhombic'
loop_
_space_group_symop_operation_xyz
x,y,z
-x,-y,z
1/2-x,y,1/2+z
1/2+x,-y,1/2+z
x,1/2+y,1/2+z
-x,1/2-y,1/2+z
1/2-x,1/2+y,z
1/2+x,1/2-y,z
loop_
_atom_site_type_symbol
_atom_site_label
_atom_site_fract_x
_atom_site_fract_y
_atom_site_fract_z
Si Si1 0.891869 0.580926 0.090640
Si Si2 0.032778 0.150438 0.157762
Si Si3 0.817649 0.967562 0.206337
Si Si4 0.263367 0.771985 0.617304
Si Si5 0.797704 0.401067 0.314936
Si Si6 0.726719 0.654804 0.906479
Si Si7 0.064861 0.608064 0.219905
Si Si8 0.822716 0.916007 0.491557
O O1 0.938987 0.729942 0.103918
O O2 0.807183 0.631545 0.095450
O O3 0.910424 0.472149 0.151613
O O4 0.894806 0.496272 0.021090
O O5 0.101124 0.100329 0.203323
O O6 0.973162 0.235795 0.201512
O O7 0.000000 0.000000 0.127130
O O8 0.768848 0.849762 0.166230
O O9 0.774829 0.962257 0.275632
O O10 0.813857 0.118753 0.161745
O O11 0.293520 0.679851 0.555129
O O12 0.817893 0.536960 0.363269
O O13 0.778489 0.254977 0.358481
O O14 0.865101 0.376362 0.265971
O O15 0.675520 0.781307 0.939262
O O16 0.771926 0.547539 0.958063
O O17 0.000000 0.500000 0.247135
#
# Coordination Sequence:
#
# PCOD9366244 Si02
#       8
#     8   8   8   8   8   8   8   8
#     4  10  20  37  64  87 123 165 196 259 327 376
#     4  10  25  38  56  98 133 165 200 248 337 401
#     4  11  22  34  63  98 122 157 208 256 334 376
#     4  11  18  32  62  95 120 151 190 265 321 372
#     4  11  22  39  62  91 131 162 218 266 309 374
#     4  10  24  35  59  94 124 171 216 264 303 359
#     4  10  22  42  63  92 132 165 199 259 342 390
#     4  11  19  39  57  95 128 157 210 267 311 367
#
# _framework density 19.449169000000001
#
# number of rings (size 3 to 8) (size 9 to 14) (size 15 to 20)
#    0.000    1.500    3.750    0.750    8.750    0.000 
#    0.000    0.000    0.000    5.250    0.000    0.000 
#    0.000    0.000    0.000    0.000    0.000    0.000 
#
# Total GULP energy -178312.717074 kJ/mol
# GULP energy per Si atom -5572.272409 kJ/mol
# Density = 1.940490 g / cm^3
# Si number density = 19.449169 Si / 1000 Ang^3
#
#
#
# Elastic Constant Matrix: (Units=GPa)
#
#
# Indices 1 2 3 4 5 6 
#
# 1 90.3582 50.3266 40.7854 0.0000 0.0000 0.0000
# 2 50.3266 157.0743 59.8720 0.0000 0.0000 0.0000
# 3 40.7854 59.8720 86.9667 0.0000 0.0000 0.0000
# 4 0.0000 0.0000 0.0000 36.5218 0.0000 0.0000
# 5 0.0000 0.0000 0.0000 0.0000 15.2781 0.0000
# 6 0.0000 0.0000 0.0000 0.0000 0.0000 29.6255
#
#
#
# Elastic Compliance Matrix: (Units=1/GPa)
#
#
# Indices 1 2 3 4 5 6 
#
# 1 0.014935 -0.002868 -0.005030 0.000000 0.000000 0.000000
# 2 -0.002868 0.009182 -0.004976 0.000000 0.000000 0.000000
# 3 -0.005030 -0.004976 0.017283 0.000000 0.000000 0.000000
# 4 0.000000 0.000000 0.000000 0.027381 0.000000 0.000000
# 5 0.000000 0.000000 0.000000 0.000000 0.065453 0.000000
# 6 0.000000 0.000000 0.000000 0.000000 0.000000 0.033755
#
#
# Mechanical properties :
#
#
# Convention : Reuss Voigt Hill
#
# Bulk Modulus (GPa) = 63.88831 70.70747 67.29789
# Shear Modulus (GPa) = 25.13136 28.51275 26.82206
#
# Velocity S-wave (km/s) = 3.59856 3.83301 3.71763
# Velocity P-wave (km/s) = 7.08423 7.48487 7.28730
#
# Compressibility (1/GPa) = 0.01565231
#
# Stress axis : x y z
#
# Youngs Moduli (GPa) = 66.95843 108.90682 57.85885
#
# Poissons Ratio (x) = 0.31234 0.29101
# Poissons Ratio (y) = 0.19203 0.28793
# Poissons Ratio (z) = 0.33677 0.54197
#
# Static dielectric constant tensor:
#      x y z
#    x 1.701000 0.000000 0.000000 
#    y 0.000000 1.750170 0.000000 
#    z 0.000000 0.000000 1.747310 
# 
# From -- ./inp_files/11661.got.cif
#   From: 2010.05.17/outbox.cif.g08.bks.cpg/sg41_6_cif.got.tgz:11661.got - 2010.06.03 18:54:24.
