data_PCOD9366661
_publ_section_title
;
Structure prediction by ZEFSAII (Michael W. Deem and Ramdas Pophale) SiO2 
 PCOD9366661
Probable space group: A B A 2
;
_chemical_formula_sum "Si O2"
_cell_formula_units_Z 32
_cell_length_a 13.177766
_cell_length_b 9.764810
_cell_length_c 10.437211
_cell_angle_alpha 90.000000
_cell_angle_beta 90.000000
_cell_angle_gamma 90.000000
_cell_volume 1343.043416
_symmetry_space_group_name_H-M "A B A 2"
_symmetry_group_IT_number 41
_symmetry_cell_setting 'orthorhombic'
loop_
_space_group_symop_operation_xyz
x,y,z
-x,-y,z
1/2-x,y,1/2+z
1/2+x,-y,1/2+z
x,1/2+y,1/2+z
-x,1/2-y,1/2+z
1/2-x,1/2+y,z
1/2+x,1/2-y,z
loop_
_atom_site_type_symbol
_atom_site_label
_atom_site_fract_x
_atom_site_fract_y
_atom_site_fract_z
Si Si1 0.239230 0.360817 0.337590
Si Si2 0.983559 0.150994 0.950351
Si Si3 0.579270 0.590645 0.516950
Si Si4 0.346738 0.122202 0.233050
O O1 0.128791 0.324580 0.394560
O O2 0.321473 0.355895 0.448552
O O3 0.283504 0.263568 0.224599
O O4 0.231922 0.519518 0.301375
O O5 0.018243 0.269684 0.046887
O O6 0.058969 0.149362 0.827877
O O7 0.000000 0.000000 0.008164
O O8 0.500000 0.500000 0.433281
O O9 0.613089 0.480384 0.622930
#
# Coordination Sequence:
#
# PCOD9366661 Si02
#       4
#     8   8   8   8
#     4  10  21  39  61  89 125 165 208 259 316 372
#     4   9  20  40  61  88 128 165 206 264 314 368
#     4  11  22  38  63  91 122 165 211 257 316 378
#     4  10  22  39  61  90 127 165 209 262 313 374
#
# _framework density 23.826484000000001
#
# number of rings (size 3 to 8) (size 9 to 14) (size 15 to 20)
#    0.000    2.000    0.000    3.750    0.000    8.000 
#    0.000    0.000    0.000   12.000    0.000    0.000 
#    0.000    0.000    0.000    0.000    0.000    0.000 
#
# Total GULP energy -89198.147720 kJ/mol
# GULP energy per Si atom -5574.884232 kJ/mol
# Density = 2.377225 g / cm^3
# Si number density = 23.826484 Si / 1000 Ang^3
#
#
#
# Elastic Constant Matrix: (Units=GPa)
#
#
# Indices 1 2 3 4 5 6 
#
# 1 122.9137 73.8439 10.7649 0.0000 0.0000 0.0000
# 2 73.8439 130.0471 36.0319 0.0000 0.0000 0.0000
# 3 10.7649 36.0319 51.0379 0.0000 0.0000 0.0000
# 4 0.0000 0.0000 0.0000 41.4616 0.0000 0.0000
# 5 0.0000 0.0000 0.0000 0.0000 5.4440 0.0000
# 6 0.0000 0.0000 0.0000 0.0000 0.0000 40.4722
#
#
#
# Elastic Compliance Matrix: (Units=1/GPa)
#
#
# Indices 1 2 3 4 5 6 
#
# 1 0.012707 -0.008047 0.003001 0.000000 0.000000 0.000000
# 2 -0.008047 0.014655 -0.008649 0.000000 0.000000 0.000000
# 3 0.003001 -0.008649 0.025066 0.000000 0.000000 0.000000
# 4 0.000000 0.000000 0.000000 0.024119 0.000000 0.000000
# 5 0.000000 0.000000 0.000000 0.000000 0.183690 0.000000
# 6 0.000000 0.000000 0.000000 0.000000 0.000000 0.024708
#
#
# Mechanical properties :
#
#
# Convention : Reuss Voigt Hill
#
# Bulk Modulus (GPa) = 39.93838 60.58664 50.26251
# Shear Modulus (GPa) = 15.59175 29.69941 22.64558
#
# Velocity S-wave (km/s) = 2.56087 3.53439 3.08626
# Velocity P-wave (km/s) = 5.05398 6.49149 5.81730
#
# Compressibility (1/GPa) = 0.02503857
#
# Stress axis : x y z
#
# Youngs Moduli (GPa) = 78.69393 68.23520 39.89401
#
# Poissons Ratio (x) = 0.54909 -0.11971
# Poissons Ratio (y) = 0.63325 0.34504
# Poissons Ratio (z) = -0.23615 0.59017
#
# Static dielectric constant tensor:
#      x y z
#    x 1.973490 0.000000 0.000000 
#    y 0.000000 1.955300 0.000000 
#    z 0.000000 0.000000 1.941040 
# 
# From -- ./inp_files/5252.got.cif
#   From: 2010.05.17/outbox.cif.g08.bks.cpg/sg41_3_cif.got.tgz:5252.got - 2010.06.03 18:54:24.
