data_PCOD9366476
_publ_section_title
;
Structure prediction by ZEFSAII (Michael W. Deem and Ramdas Pophale) SiO2 
 PCOD9366476
Probable space group: A B A 2
;
_chemical_formula_sum "Si O2"
_cell_formula_units_Z 56
_cell_length_a 30.239034
_cell_length_b 14.065501
_cell_length_c 5.239047
_cell_angle_alpha 90.000000
_cell_angle_beta 90.000000
_cell_angle_gamma 90.000000
_cell_volume 2228.308997
_symmetry_space_group_name_H-M "A B A 2"
_symmetry_group_IT_number 41
_symmetry_cell_setting 'orthorhombic'
loop_
_space_group_symop_operation_xyz
x,y,z
-x,-y,z
1/2-x,y,1/2+z
1/2+x,-y,1/2+z
x,1/2+y,1/2+z
-x,1/2-y,1/2+z
1/2-x,1/2+y,z
1/2+x,1/2-y,z
loop_
_atom_site_type_symbol
_atom_site_label
_atom_site_fract_x
_atom_site_fract_y
_atom_site_fract_z
Si Si1 0.908893 0.919797 0.575220
Si Si2 0.913031 0.617219 0.231617
Si Si3 0.841864 0.150828 0.112421
Si Si4 0.120458 0.704269 0.476151
Si Si5 0.502994 0.810006 0.133769
Si Si6 0.725568 0.529575 0.430895
Si Si7 0.817344 0.834512 0.353522
O O1 0.902295 0.889642 0.874394
O O2 0.864640 0.879336 0.445186
O O3 0.955412 0.869211 0.526643
O O4 0.910171 0.031668 0.529958
O O5 0.872451 0.592196 0.420313
O O6 0.965635 0.624188 0.268586
O O7 0.901905 0.728173 0.183019
O O8 0.876820 0.218369 0.253629
O O9 0.815104 0.087871 0.312386
O O10 0.810911 0.230975 0.976775
O O11 0.170895 0.682115 0.557443
O O12 0.515449 0.741201 0.374313
O O13 0.735749 0.551616 0.724981
O O14 0.716926 0.416750 0.407634
#
# Coordination Sequence:
#
# PCOD9366476 Si02
#       7
#     8   8   8   8   8   8   8
#     4  11  23  41  70 102 141 191 242 294 359 436
#     4  11  23  41  70 102 141 191 242 294 359 436
#     4  10  24  44  73 100 140 192 235 294 373 441
#     4  10  20  42  68  98 138 190 236 294 354 440
#     4  12  25  46  67 106 152 188 242 303 357 422
#     4  12  30  48  72 110 147 185 246 316 370 450
#     4  10  24  44  73 100 140 192 235 294 373 441
#
# _framework density 25.131167999999999
#
# number of rings (size 3 to 8) (size 9 to 14) (size 15 to 20)
#    0.000    1.143    1.429    4.714   10.000    1.143 
#    0.000    1.429    0.000    0.000    0.000    0.000 
#    0.000    0.000    0.000    0.000    0.000    0.000 
#
# Total GULP energy -156090.837502 kJ/mol
# GULP energy per Si atom -5574.672768 kJ/mol
# Density = 2.507397 g / cm^3
# Si number density = 25.131168 Si / 1000 Ang^3
#
#
#
# Elastic Constant Matrix: (Units=GPa)
#
#
# Indices 1 2 3 4 5 6 
#
# 1 75.0381 30.2778 9.7943 0.0000 0.0000 0.0000
# 2 30.2778 124.7341 15.4274 0.0000 0.0000 0.0000
# 3 9.7943 15.4274 44.2418 0.0000 0.0000 0.0000
# 4 0.0000 0.0000 0.0000 19.7633 0.0000 0.0000
# 5 0.0000 0.0000 0.0000 0.0000 41.1103 0.0000
# 6 0.0000 0.0000 0.0000 0.0000 0.0000 45.6120
#
#
#
# Elastic Compliance Matrix: (Units=1/GPa)
#
#
# Indices 1 2 3 4 5 6 
#
# 1 0.014965 -0.003368 -0.002138 0.000000 0.000000 0.000000
# 2 -0.003368 0.009136 -0.002440 0.000000 0.000000 0.000000
# 3 -0.002138 -0.002440 0.023927 0.000000 0.000000 0.000000
# 4 0.000000 0.000000 0.000000 0.050599 0.000000 0.000000
# 5 0.000000 0.000000 0.000000 0.000000 0.024325 0.000000
# 6 0.000000 0.000000 0.000000 0.000000 0.000000 0.021924
#
#
# Mechanical properties :
#
#
# Convention : Reuss Voigt Hill
#
# Bulk Modulus (GPa) = 31.11877 39.44591 35.28234
# Shear Modulus (GPa) = 29.15768 33.86476 31.51122
#
# Velocity S-wave (km/s) = 3.40990 3.67484 3.54484
# Velocity P-wave (km/s) = 5.28324 5.80827 5.55196
#
# Compressibility (1/GPa) = 0.03213495
#
# Stress axis : x y z
#
# Youngs Moduli (GPa) = 66.82408 109.45203 41.79304
#
# Poissons Ratio (x) = 0.36864 0.08937
# Poissons Ratio (y) = 0.22506 0.10199
# Poissons Ratio (z) = 0.14290 0.26710
#
# Static dielectric constant tensor:
#      x y z
#    x 2.045840 0.000000 0.000000 
#    y 0.000000 1.931960 0.000000 
#    z 0.000000 0.000000 2.312550 
# 
# From -- ./inp_files/1337.got.cif
#   From: 2010.05.17/outbox.cif.g08.bks.cpg/sg41_1_cif.got.tgz:1337.got - 2010.06.03 18:54:24.
