data_PCOD9366974
_publ_section_title
;
Structure prediction by ZEFSAII (Michael W. Deem and Ramdas Pophale) SiO2 
 PCOD9366974
Probable space group: A B A 2
;
_chemical_formula_sum "Si O2"
_cell_formula_units_Z 48
_cell_length_a 17.693556
_cell_length_b 9.149909
_cell_length_c 10.745894
_cell_angle_alpha 90.000000
_cell_angle_beta 90.000000
_cell_angle_gamma 90.000000
_cell_volume 1739.700355
_symmetry_space_group_name_H-M "A B A 2"
_symmetry_group_IT_number 41
_symmetry_cell_setting 'orthorhombic'
loop_
_space_group_symop_operation_xyz
x,y,z
-x,-y,z
1/2-x,y,1/2+z
1/2+x,-y,1/2+z
x,1/2+y,1/2+z
-x,1/2-y,1/2+z
1/2-x,1/2+y,z
1/2+x,1/2-y,z
loop_
_atom_site_type_symbol
_atom_site_label
_atom_site_fract_x
_atom_site_fract_y
_atom_site_fract_z
Si Si1 0.000000 0.500000 0.157740
Si Si2 0.117833 0.504528 0.770269
Si Si3 0.208787 0.660895 0.450360
Si Si4 0.731421 0.699088 0.184238
Si Si5 0.361074 0.598787 0.516791
Si Si6 0.000000 0.500000 0.561061
Si Si7 0.451825 0.202072 0.368206
O O1 0.009911 0.638712 0.245872
O O2 0.076605 0.498104 0.079497
O O3 0.200759 0.461883 0.718165
O O4 0.110758 0.626083 0.876537
O O5 0.068577 0.532010 0.651740
O O6 0.080570 0.362273 0.839909
O O7 0.206794 0.758791 0.578640
O O8 0.240524 0.739049 0.324338
O O9 0.274890 0.545997 0.485184
O O10 0.126027 0.614467 0.405916
O O11 0.659070 0.773573 0.113711
O O12 0.993775 0.646935 0.478332
#
# Coordination Sequence:
#
# PCOD9366974 Si02
#       7
#     4   8   8   8   8   4   8
#     4  11  19  44  70  98 135 197 222 302 358 432
#     4  11  23  44  66 101 134 184 234 289 360 433
#     4   9  19  44  65  97 141 181 229 309 336 439
#     4   9  21  43  66  95 146 177 234 301 350 425
#     4  10  22  37  73  95 139 185 238 288 365 423
#     4  11  27  40  66 104 135 175 238 292 336 462
#     4  10  23  44  68  96 144 179 239 292 368 416
#
# _framework density 27.590958000000001
#
# number of rings (size 3 to 8) (size 9 to 14) (size 15 to 20)
#    1.000    1.000    3.333    0.500    4.667    1.333 
#   12.000    0.000    0.000    0.000    0.000    0.000 
#    0.000    0.000    0.000    0.000    0.000    0.000 
#
# Total GULP energy -133830.367129 kJ/mol
# GULP energy per Si atom -5576.265297 kJ/mol
# Density = 2.752816 g / cm^3
# Si number density = 27.590958 Si / 1000 Ang^3
#
#
#
# Elastic Constant Matrix: (Units=GPa)
#
#
# Indices 1 2 3 4 5 6 
#
# 1 96.8795 31.6138 39.2579 0.0000 0.0000 0.0000
# 2 31.6138 71.5643 49.0099 0.0000 0.0000 0.0000
# 3 39.2579 49.0099 228.0663 0.0000 0.0000 0.0000
# 4 0.0000 0.0000 0.0000 30.1320 0.0000 0.0000
# 5 0.0000 0.0000 0.0000 0.0000 63.6959 0.0000
# 6 0.0000 0.0000 0.0000 0.0000 0.0000 33.0677
#
#
#
# Elastic Compliance Matrix: (Units=1/GPa)
#
#
# Indices 1 2 3 4 5 6 
#
# 1 0.012297 -0.004670 -0.001113 0.000000 0.000000 0.000000
# 2 -0.004670 0.018158 -0.003098 0.000000 0.000000 0.000000
# 3 -0.001113 -0.003098 0.005242 0.000000 0.000000 0.000000
# 4 0.000000 0.000000 0.000000 0.033187 0.000000 0.000000
# 5 0.000000 0.000000 0.000000 0.000000 0.015700 0.000000
# 6 0.000000 0.000000 0.000000 0.000000 0.000000 0.030241
#
#
# Mechanical properties :
#
#
# Convention : Reuss Voigt Hill
#
# Bulk Modulus (GPa) = 55.75795 70.69706 63.22750
# Shear Modulus (GPa) = 36.08385 43.82103 39.95244
#
# Velocity S-wave (km/s) = 3.62029 3.98959 3.80942
# Velocity P-wave (km/s) = 6.14231 6.84846 6.50498
#
# Compressibility (1/GPa) = 0.01793466
#
# Stress axis : x y z
#
# Youngs Moduli (GPa) = 81.32002 55.07158 190.76336
#
# Poissons Ratio (x) = 0.25718 0.21236
# Poissons Ratio (y) = 0.37976 0.59103
# Poissons Ratio (z) = 0.09053 0.17062
#
# Static dielectric constant tensor:
#      x y z
#    x 2.286910 0.000000 0.000000 
#    y 0.000000 2.171000 0.000000 
#    z 0.000000 0.000000 2.144500 
# 
# From -- ./inp_files/6194.got.cif
#   From: 2010.05.17/outbox.cif.g08.bks.cpg/sg41_4_cif.got.tgz:6194.got - 2010.06.03 18:54:24.
