data_PCOD9366381
_publ_section_title
;
Structure prediction by ZEFSAII (Michael W. Deem and Ramdas Pophale) SiO2 
 PCOD9366381
Probable space group: A B A 2
;
_chemical_formula_sum "Si O2"
_cell_formula_units_Z 64
_cell_length_a 22.583784
_cell_length_b 11.634608
_cell_length_c 9.213517
_cell_angle_alpha 90.000000
_cell_angle_beta 90.000000
_cell_angle_gamma 90.000000
_cell_volume 2420.883599
_symmetry_space_group_name_H-M "A B A 2"
_symmetry_group_IT_number 41
_symmetry_cell_setting 'orthorhombic'
loop_
_space_group_symop_operation_xyz
x,y,z
-x,-y,z
1/2-x,y,1/2+z
1/2+x,-y,1/2+z
x,1/2+y,1/2+z
-x,1/2-y,1/2+z
1/2-x,1/2+y,z
1/2+x,1/2-y,z
loop_
_atom_site_type_symbol
_atom_site_label
_atom_site_fract_x
_atom_site_fract_y
_atom_site_fract_z
Si Si1 0.330115 0.493363 0.058850
Si Si2 0.058490 0.881650 0.662129
Si Si3 0.675876 0.737757 0.563466
Si Si4 0.715774 0.503741 0.384917
Si Si5 0.016629 0.753598 0.401876
Si Si6 0.774511 0.278735 0.287734
Si Si7 0.374716 0.593328 0.605254
Si Si8 0.565538 0.179442 0.603917
O O1 0.300783 0.480262 0.217024
O O2 0.389943 0.420942 0.062356
O O3 0.341026 0.628914 0.038641
O O4 0.280579 0.454715 0.943302
O O5 0.120453 0.817947 0.637692
O O6 0.027131 0.813782 0.791016
O O7 0.024557 0.864829 0.508404
O O8 0.076608 0.014260 0.686836
O O9 0.732290 0.727855 0.666260
O O10 0.695219 0.692500 0.403503
O O11 0.733432 0.363496 0.379537
O O12 0.660299 0.488539 0.494447
O O13 0.000761 0.667295 0.539020
O O14 0.063543 0.791270 0.275821
O O15 0.825310 0.352835 0.210337
O O16 0.406952 0.703222 0.534937
#
# Coordination Sequence:
#
# PCOD9366381 Si02
#       8
#     8   8   8   8   8   8   8   8
#     4  10  22  43  67 101 142 178 226 277 334 416
#     4  11  26  48  71 100 134 182 234 290 347 395
#     4  10  22  43  67 101 142 178 226 277 334 416
#     4  10  20  40  62 104 143 178 221 261 336 420
#     4  10  26  50  68  98 126 174 252 286 342 392
#     4  10  20  40  62 104 143 178 221 261 336 420
#     4  12  24  43  72  98 148 179 216 276 356 420
#     4  11  26  48  71 100 134 182 234 290 347 395
#
# _framework density 26.436630000000001
#
# number of rings (size 3 to 8) (size 9 to 14) (size 15 to 20)
#    0.000    1.500    3.750    1.500    7.000    3.000 
#    9.000    1.250    0.000    0.000    0.000    0.000 
#    0.000    0.000    0.000    0.000    0.000    0.000 
#
# Total GULP energy -178565.671715 kJ/mol
# GULP energy per Si atom -5580.177241 kJ/mol
# Density = 2.637646 g / cm^3
# Si number density = 26.436630 Si / 1000 Ang^3
#
#
#
# Elastic Constant Matrix: (Units=GPa)
#
#
# Indices 1 2 3 4 5 6 
#
# 1 56.2216 17.6841 39.2891 0.0000 0.0000 0.0000
# 2 17.6841 38.3406 -20.3753 0.0000 0.0000 0.0000
# 3 39.2891 -20.3753 95.8374 0.0000 0.0000 0.0000
# 4 0.0000 0.0000 0.0000 35.3166 0.0000 0.0000
# 5 0.0000 0.0000 0.0000 0.0000 42.0083 0.0000
# 6 0.0000 0.0000 0.0000 0.0000 0.0000 50.0844
#
#
#
# Elastic Compliance Matrix: (Units=1/GPa)
#
#
# Indices 1 2 3 4 5 6 
#
# 1 0.049552 -0.037937 -0.028380 0.000000 0.000000 0.000000
# 2 -0.037937 0.058449 0.027979 0.000000 0.000000 0.000000
# 3 -0.028380 0.027979 0.028017 0.000000 0.000000 0.000000
# 4 0.000000 0.000000 0.000000 0.028315 0.000000 0.000000
# 5 0.000000 0.000000 0.000000 0.000000 0.023805 0.000000
# 6 0.000000 0.000000 0.000000 0.000000 0.000000 0.019966
#
#
# Mechanical properties :
#
#
# Convention : Reuss Voigt Hill
#
# Bulk Modulus (GPa) = 16.85134 29.28838 23.06986
# Shear Modulus (GPa) = 16.41703 35.73530 26.07617
#
# Velocity S-wave (km/s) = 2.49468 3.68058 3.14405
# Velocity P-wave (km/s) = 3.83223 5.40046 4.68247
#
# Compressibility (1/GPa) = 0.05934247
#
# Stress axis : x y z
#
# Youngs Moduli (GPa) = 20.18073 17.10893 35.69230
#
# Poissons Ratio (x) = 0.64907 1.01294
# Poissons Ratio (y) = 0.76560 -0.99864
# Poissons Ratio (z) = 0.57273 -0.47869
#
# Static dielectric constant tensor:
#      x y z
#    x 2.205520 0.000000 0.000000 
#    y 0.000000 2.387540 0.000000 
#    z 0.000000 0.000000 2.065480 
# 
# From -- ./inp_files/3707.got.cif
#   From: 2010.05.17/outbox.cif.g08.bks.cpg/sg41_2_cif.got.tgz:3707.got - 2010.06.03 18:54:24.
