data_PCOD9366041
_publ_section_title
;
Structure prediction by ZEFSAII (Michael W. Deem and Ramdas Pophale) SiO2 
 PCOD9366041
Probable space group: A B A 2
;
_chemical_formula_sum "Si O2"
_cell_formula_units_Z 64
_cell_length_a 17.534101
_cell_length_b 12.113735
_cell_length_c 14.753596
_cell_angle_alpha 90.000000
_cell_angle_beta 90.000000
_cell_angle_gamma 90.000000
_cell_volume 3133.714734
_symmetry_space_group_name_H-M "A B A 2"
_symmetry_group_IT_number 41
_symmetry_cell_setting 'orthorhombic'
loop_
_space_group_symop_operation_xyz
x,y,z
-x,-y,z
1/2-x,y,1/2+z
1/2+x,-y,1/2+z
x,1/2+y,1/2+z
-x,1/2-y,1/2+z
1/2-x,1/2+y,z
1/2+x,1/2-y,z
loop_
_atom_site_type_symbol
_atom_site_label
_atom_site_fract_x
_atom_site_fract_y
_atom_site_fract_z
Si Si1 0.492794 0.119159 0.600900
Si Si2 0.585517 0.775287 0.770040
Si Si3 0.423522 0.242355 0.310252
Si Si4 0.850305 0.348508 0.488114
Si Si5 0.799001 0.673010 0.143272
Si Si6 0.367297 0.240496 0.120294
Si Si7 0.305025 0.532566 0.522022
Si Si8 0.911605 0.010197 0.359246
O O1 0.456115 0.198078 0.675381
O O2 0.431020 0.104361 0.522594
O O3 0.572937 0.173793 0.577455
O O4 0.500000 0.000000 0.645746
O O5 0.514716 0.727329 0.828498
O O6 0.655921 0.701266 0.736125
O O7 0.608884 0.894767 0.809907
O O8 0.369274 0.198437 0.389299
O O9 0.402148 0.192121 0.213241
O O10 0.410804 0.375506 0.303532
O O11 0.827839 0.252856 0.560775
O O12 0.780893 0.435101 0.492985
O O13 0.710210 0.700580 0.150517
O O14 0.806487 0.548986 0.107587
O O15 0.346732 0.145439 0.050008
O O16 0.353095 0.478579 0.441549
O O17 0.000000 0.000000 0.390716
#
# Coordination Sequence:
#
# PCOD9366041 Si02
#       8
#     8   8   8   8   8   8   8   8
#     4  10  19  38  60  84 119 168 209 259 313 393
#     4   9  20  35  63  89 119 158 215 261 318 378
#     4  10  20  40  58  93 124 162 207 270 318 382
#     4  10  22  38  61  87 129 163 217 263 323 387
#     4  10  21  42  59  91 126 170 204 267 324 390
#     4  10  23  36  63  90 125 162 221 259 325 386
#     4  11  23  39  62  94 124 169 212 264 332 385
#     4  10  21  36  67  94 120 165 218 258 320 396
#
# _framework density 20.423045999999999
#
# number of rings (size 3 to 8) (size 9 to 14) (size 15 to 20)
#    0.000    2.000    1.250    2.625    5.250    3.000 
#    0.000    1.250    0.000    0.000    0.000    0.000 
#    0.000    0.000    0.000    0.000    0.000    0.000 
#
# Total GULP energy -178393.569718 kJ/mol
# GULP energy per Si atom -5574.799054 kJ/mol
# Density = 2.037656 g / cm^3
# Si number density = 20.423046 Si / 1000 Ang^3
#
#
#
# Elastic Constant Matrix: (Units=GPa)
#
#
# Indices 1 2 3 4 5 6 
#
# 1 109.2803 39.7069 21.1545 0.0000 0.0000 0.0000
# 2 39.7069 49.0630 -0.6949 0.0000 0.0000 0.0000
# 3 21.1545 -0.6949 46.1599 0.0000 0.0000 0.0000
# 4 0.0000 0.0000 0.0000 31.9344 0.0000 0.0000
# 5 0.0000 0.0000 0.0000 0.0000 32.5581 0.0000
# 6 0.0000 0.0000 0.0000 0.0000 0.0000 16.3307
#
#
#
# Elastic Compliance Matrix: (Units=1/GPa)
#
#
# Indices 1 2 3 4 5 6 
#
# 1 0.014942 -0.012192 -0.007031 0.000000 0.000000 0.000000
# 2 -0.012192 0.030335 0.006044 0.000000 0.000000 0.000000
# 3 -0.007031 0.006044 0.024977 0.000000 0.000000 0.000000
# 4 0.000000 0.000000 0.000000 0.031314 0.000000 0.000000
# 5 0.000000 0.000000 0.000000 0.000000 0.030714 0.000000
# 6 0.000000 0.000000 0.000000 0.000000 0.000000 0.061234
#
#
# Mechanical properties :
#
#
# Convention : Reuss Voigt Hill
#
# Bulk Modulus (GPa) = 22.78148 36.09292 29.43720
# Shear Modulus (GPa) = 21.32136 25.78709 23.55423
#
# Velocity S-wave (km/s) = 3.23458 3.55723 3.39973
# Velocity P-wave (km/s) = 5.01289 5.88072 5.46406
#
# Compressibility (1/GPa) = 0.04389531
#
# Stress axis : x y z
#
# Youngs Moduli (GPa) = 66.92605 32.96557 40.03665
#
# Poissons Ratio (x) = 0.40192 0.28151
# Poissons Ratio (y) = 0.81597 -0.24199
# Poissons Ratio (z) = 0.47057 -0.19925
#
# Static dielectric constant tensor:
#      x y z
#    x 1.769380 0.000000 0.000000 
#    y 0.000000 1.720930 0.000000 
#    z 0.000000 0.000000 1.738670 
# 
# From -- ./inp_files/8837.got.cif
#   From: 2010.05.17/outbox.cif.g08.bks.cpg/sg41_5_cif.got.tgz:8837.got - 2010.06.03 18:54:24.
