data_PCOD9366080
_publ_section_title
;
Structure prediction by ZEFSAII (Michael W. Deem and Ramdas Pophale) SiO2 
 PCOD9366080
Probable space group: A B A 2
;
_chemical_formula_sum "Si O2"
_cell_formula_units_Z 56
_cell_length_a 14.242859
_cell_length_b 7.771297
_cell_length_c 17.833012
_cell_angle_alpha 90.000000
_cell_angle_beta 90.000000
_cell_angle_gamma 90.000000
_cell_volume 1973.855625
_symmetry_space_group_name_H-M "A B A 2"
_symmetry_group_IT_number 41
_symmetry_cell_setting 'orthorhombic'
loop_
_space_group_symop_operation_xyz
x,y,z
-x,-y,z
1/2-x,y,1/2+z
1/2+x,-y,1/2+z
x,1/2+y,1/2+z
-x,1/2-y,1/2+z
1/2-x,1/2+y,z
1/2+x,1/2-y,z
loop_
_atom_site_type_symbol
_atom_site_label
_atom_site_fract_x
_atom_site_fract_y
_atom_site_fract_z
Si Si1 0.041346 0.804233 0.291120
Si Si2 0.698131 0.525247 0.213722
Si Si3 0.725944 0.004208 0.927889
Si Si4 0.636119 0.026631 0.549687
Si Si5 0.071943 0.844668 0.520351
Si Si6 0.395383 0.303635 0.902699
Si Si7 0.390898 0.353233 0.690413
O O1 0.995257 0.714179 0.364499
O O2 0.992147 0.685738 0.227312
O O3 0.148629 0.850687 0.274613
O O4 0.000000 0.000000 0.288062
O O5 0.660806 0.591851 0.131839
O O6 0.809667 0.523321 0.220574
O O7 0.659093 0.331592 0.206998
O O8 0.767844 0.959087 0.010299
O O9 0.650508 0.145639 0.954317
O O10 0.821360 0.047511 0.883953
O O11 0.666174 0.862624 0.886805
O O12 0.602707 0.175229 0.492486
O O13 0.569022 0.861017 0.541970
O O14 0.099918 0.902686 0.604108
O O15 0.500000 0.000000 0.996437
#
# Coordination Sequence:
#
# PCOD9366080 Si02
#       7
#     8   8   8   8   8   8   8
#     4  10  24  44  65 108 152 204 261 312 392 475
#     4  10  21  41  75 100 150 194 255 317 387 471
#     4  10  19  39  70 107 146 200 249 312 400 470
#     4   9  19  41  73 109 151 198 252 313 399 463
#     4  11  22  39  70 118 154 187 258 326 398 476
#     4  10  21  39  74 103 156 198 262 315 392 484
#     4  10  22  41  67 104 143 200 247 318 385 453
#
# _framework density 28.370871999999999
#
# number of rings (size 3 to 8) (size 9 to 14) (size 15 to 20)
#    0.857    1.143    2.857    0.000    2.000    5.143 
#    0.000    2.143    0.000   20.571    0.000    0.000 
#    0.000    0.000    0.000    0.000    0.000    0.000 
#
# Total GULP energy -156225.992707 kJ/mol
# GULP energy per Si atom -5579.499740 kJ/mol
# Density = 2.830630 g / cm^3
# Si number density = 28.370872 Si / 1000 Ang^3
#
#
#
# Elastic Constant Matrix: (Units=GPa)
#
#
# Indices 1 2 3 4 5 6 
#
# 1 151.5461 28.4408 12.6079 0.0000 0.0000 0.0000
# 2 28.4408 109.4908 16.8111 0.0000 0.0000 0.0000
# 3 12.6079 16.8111 112.5839 0.0000 0.0000 0.0000
# 4 0.0000 0.0000 0.0000 25.5516 0.0000 0.0000
# 5 0.0000 0.0000 0.0000 0.0000 43.8271 0.0000
# 6 0.0000 0.0000 0.0000 0.0000 0.0000 50.2955
#
#
#
# Elastic Compliance Matrix: (Units=1/GPa)
#
#
# Indices 1 2 3 4 5 6 
#
# 1 0.006967 -0.001729 -0.000522 0.000000 0.000000 0.000000
# 2 -0.001729 0.009777 -0.001266 0.000000 0.000000 0.000000
# 3 -0.000522 -0.001266 0.009130 0.000000 0.000000 0.000000
# 4 0.000000 0.000000 0.000000 0.039136 0.000000 0.000000
# 5 0.000000 0.000000 0.000000 0.000000 0.022817 0.000000
# 6 0.000000 0.000000 0.000000 0.000000 0.000000 0.019882
#
#
# Mechanical properties :
#
#
# Convention : Reuss Voigt Hill
#
# Bulk Modulus (GPa) = 53.08407 54.37116 53.72762
# Shear Modulus (GPa) = 41.31421 44.98558 43.14989
#
# Velocity S-wave (km/s) = 3.82018 3.98631 3.90413
# Velocity P-wave (km/s) = 6.18141 6.35560 6.26911
#
# Compressibility (1/GPa) = 0.01883804
#
# Stress axis : x y z
#
# Youngs Moduli (GPa) = 143.54102 102.28255 109.53158
#
# Poissons Ratio (x) = 0.17690 0.05717
# Poissons Ratio (y) = 0.24825 0.13869
# Poissons Ratio (z) = 0.07492 0.12951
#
# Static dielectric constant tensor:
#      x y z
#    x 2.382760 0.000000 0.000000 
#    y 0.000000 2.260110 0.000000 
#    z 0.000000 0.000000 2.259730 
# 
# From -- ./inp_files/11388.got.cif
#   From: 2010.05.17/outbox.cif.g08.bks.cpg/sg41_6_cif.got.tgz:11388.got - 2010.06.03 18:54:24.
