data_PCOD9366155
_publ_section_title
;
Structure prediction by ZEFSAII (Michael W. Deem and Ramdas Pophale) SiO2 
 PCOD9366155
Probable space group: A B A 2
;
_chemical_formula_sum "Si O2"
_cell_formula_units_Z 48
_cell_length_a 22.211915
_cell_length_b 5.479731
_cell_length_c 18.196939
_cell_angle_alpha 90.000000
_cell_angle_beta 90.000000
_cell_angle_gamma 90.000000
_cell_volume 2214.846239
_symmetry_space_group_name_H-M "A B A 2"
_symmetry_group_IT_number 41
_symmetry_cell_setting 'orthorhombic'
loop_
_space_group_symop_operation_xyz
x,y,z
-x,-y,z
1/2-x,y,1/2+z
1/2+x,-y,1/2+z
x,1/2+y,1/2+z
-x,1/2-y,1/2+z
1/2-x,1/2+y,z
1/2+x,1/2-y,z
loop_
_atom_site_type_symbol
_atom_site_label
_atom_site_fract_x
_atom_site_fract_y
_atom_site_fract_z
Si Si1 0.777661 0.935071 0.208490
Si Si2 0.000000 0.500000 0.658463
Si Si3 0.401903 0.624427 0.608713
Si Si4 0.466553 0.249034 0.872321
Si Si5 0.500000 0.000000 0.014224
Si Si6 0.270629 0.620132 0.542699
Si Si7 0.899696 0.721532 0.238304
O O1 0.749276 0.684673 0.239173
O O2 0.763129 0.918366 0.121455
O O3 0.848573 0.914475 0.218166
O O4 0.947473 0.648435 0.616451
O O5 0.964445 0.306910 0.708902
O O6 0.443855 0.427754 0.565322
O O7 0.340555 0.657250 0.563728
O O8 0.385892 0.517622 0.689411
O O9 0.500000 0.500000 0.856510
O O10 0.405559 0.282206 0.826289
O O11 0.500000 0.000000 0.847183
O O12 0.470459 0.200305 0.959644
O O13 0.257496 0.359338 0.505300
#
# Coordination Sequence:
#
# PCOD9366155 Si02
#       7
#     8   4   8   8   4   8   8
#     4  10  20  35  56  89 126 158 203 266 321 360
#     4  12  21  32  56 101 124 156 210 266 323 370
#     4  12  23  35  65  95 130 165 215 277 313 390
#     4  10  24  43  59  85 132 170 204 248 323 396
#     4  10  25  42  58  97 130 170 208 254 339 386
#     4  10  20  38  54  90 126 163 202 266 324 366
#     4  12  22  37  63  93 130 166 214 269 316 381
#
# _framework density 21.671935000000001
#
# number of rings (size 3 to 8) (size 9 to 14) (size 15 to 20)
#    0.500    0.667    5.833    3.000    1.167    0.000 
#    0.000    0.000    0.000    2.000    0.000    0.000 
#    0.000    0.000    0.000    0.000    0.000    0.000 
#
# Total GULP energy -133660.686027 kJ/mol
# GULP energy per Si atom -5569.195251 kJ/mol
# Density = 2.162261 g / cm^3
# Si number density = 21.671935 Si / 1000 Ang^3
#
#
#
# Elastic Constant Matrix: (Units=GPa)
#
#
# Indices 1 2 3 4 5 6 
#
# 1 100.4731 19.4869 15.8909 0.0000 0.0000 0.0000
# 2 19.4869 144.3606 11.2051 0.0000 0.0000 0.0000
# 3 15.8909 11.2051 57.5964 0.0000 0.0000 0.0000
# 4 0.0000 0.0000 0.0000 191.6429 0.0000 0.0000
# 5 0.0000 0.0000 0.0000 0.0000 16.2560 0.0000
# 6 0.0000 0.0000 0.0000 0.0000 0.0000 35.6551
#
#
#
# Elastic Compliance Matrix: (Units=1/GPa)
#
#
# Indices 1 2 3 4 5 6 
#
# 1 0.010616 -0.001224 -0.002691 0.000000 0.000000 0.000000
# 2 -0.001224 0.007174 -0.001058 0.000000 0.000000 0.000000
# 3 -0.002691 -0.001058 0.018310 0.000000 0.000000 0.000000
# 4 0.000000 0.000000 0.000000 0.005218 0.000000 0.000000
# 5 0.000000 0.000000 0.000000 0.000000 0.061516 0.000000
# 6 0.000000 0.000000 0.000000 0.000000 0.000000 0.028046
#
#
# Mechanical properties :
#
#
# Convention : Reuss Voigt Hill
#
# Bulk Modulus (GPa) = 38.23379 43.95511 41.09445
# Shear Modulus (GPa) = 33.43468 65.76729 49.60098
#
# Velocity S-wave (km/s) = 3.93206 5.51477 4.78925
# Velocity P-wave (km/s) = 6.18831 7.80232 7.04171
#
# Compressibility (1/GPa) = 0.02615488
#
# Stress axis : x y z
#
# Youngs Moduli (GPa) = 94.19810 139.38321 54.61373
#
# Poissons Ratio (x) = 0.17063 0.14695
# Poissons Ratio (y) = 0.11531 0.05778
# Poissons Ratio (z) = 0.25347 0.14747
#
# Static dielectric constant tensor:
#      x y z
#    x 1.780690 0.000000 0.000000 
#    y 0.000000 1.823170 0.000000 
#    z 0.000000 0.000000 1.860480 
# 
# From -- ./inp_files/10736.got.cif
#   From: 2010.05.17/outbox.cif.g08.bks.cpg/sg41_6_cif.got.tgz:10736.got - 2010.06.03 18:54:24.
