data_PCOD9366583
_publ_section_title
;
Structure prediction by ZEFSAII (Michael W. Deem and Ramdas Pophale) SiO2 
 PCOD9366583
Probable space group: A B A 2
;
_chemical_formula_sum "Si O2"
_cell_formula_units_Z 64
_cell_length_a 8.829829
_cell_length_b 15.909745
_cell_length_c 19.783896
_cell_angle_alpha 90.000000
_cell_angle_beta 90.000000
_cell_angle_gamma 90.000000
_cell_volume 2779.248195
_symmetry_space_group_name_H-M "A B A 2"
_symmetry_group_IT_number 41
_symmetry_cell_setting 'orthorhombic'
loop_
_space_group_symop_operation_xyz
x,y,z
-x,-y,z
1/2-x,y,1/2+z
1/2+x,-y,1/2+z
x,1/2+y,1/2+z
-x,1/2-y,1/2+z
1/2-x,1/2+y,z
1/2+x,1/2-y,z
loop_
_atom_site_type_symbol
_atom_site_label
_atom_site_fract_x
_atom_site_fract_y
_atom_site_fract_z
Si Si1 0.717021 0.177940 0.421980
Si Si2 0.454002 0.618683 0.283047
Si Si3 0.558904 0.657656 0.055546
Si Si4 0.581850 0.185285 0.278967
Si Si5 0.345746 0.577319 0.706166
Si Si6 0.806565 0.346184 0.064075
Si Si7 0.721043 0.597764 0.188378
Si Si8 0.071495 0.638973 0.929474
O O1 0.618889 0.133259 0.480727
O O2 0.668095 0.154773 0.346134
O O3 0.675477 0.277189 0.423653
O O4 0.894570 0.164230 0.434963
O O5 0.475995 0.720098 0.288638
O O6 0.320510 0.602454 0.231474
O O7 0.600078 0.581552 0.247401
O O8 0.415449 0.590068 0.358959
O O9 0.376899 0.655294 0.061454
O O10 0.622458 0.752678 0.061697
O O11 0.638275 0.607111 0.116851
O O12 0.448698 0.121164 0.262328
O O13 0.691701 0.181096 0.213522
O O14 0.367812 0.617181 0.633319
O O15 0.339235 0.477853 0.693722
O O16 0.370157 0.101879 0.999769
#
# Coordination Sequence:
#
# PCOD9366583 Si02
#       8
#     8   8   8   8   8   8   8   8
#     4  10  21  38  64  99 130 166 222 286 334 384
#     4  11  22  42  71  96 130 172 228 280 334 399
#     4  11  23  39  68  94 133 172 227 279 332 404
#     4  11  24  42  69 101 128 176 230 283 333 405
#     4  12  27  41  67  96 140 179 219 276 342 407
#     4  11  23  40  65 100 127 177 226 274 337 397
#     4  12  25  45  63  97 140 176 219 276 343 405
#     4  10  21  37  65  98 131 166 222 286 332 389
#
# _framework density 23.027811
#
# number of rings (size 3 to 8) (size 9 to 14) (size 15 to 20)
#    0.000    1.000    2.500    6.000   10.500    0.000 
#    0.000    1.250    2.750    0.000    0.000    0.000 
#    0.000    0.000    0.000    0.000    0.000    0.000 
#
# Total GULP energy -178884.044950 kJ/mol
# GULP energy per Si atom -5590.126405 kJ/mol
# Density = 2.297540 g / cm^3
# Si number density = 23.027811 Si / 1000 Ang^3
#
#
#
# Elastic Constant Matrix: (Units=GPa)
#
#
# Indices 1 2 3 4 5 6 
#
# 1 79.5887 8.6060 26.6935 0.0000 0.0000 0.0000
# 2 8.6060 53.4101 27.2976 0.0000 0.0000 0.0000
# 3 26.6935 27.2976 156.1269 0.0000 0.0000 0.0000
# 4 0.0000 0.0000 0.0000 -18.4144 0.0000 0.0000
# 5 0.0000 0.0000 0.0000 0.0000 48.8531 0.0000
# 6 0.0000 0.0000 0.0000 0.0000 0.0000 32.3141
#
#
#
# Elastic Compliance Matrix: (Units=1/GPa)
#
#
# Indices 1 2 3 4 5 6 
#
# 1 0.013386 -0.001084 -0.002099 0.000000 0.000000 0.000000
# 2 -0.001084 0.020648 -0.003425 0.000000 0.000000 0.000000
# 3 -0.002099 -0.003425 0.007363 0.000000 0.000000 0.000000
# 4 0.000000 0.000000 0.000000 -0.054305 0.000000 0.000000
# 5 0.000000 0.000000 0.000000 0.000000 0.020470 0.000000
# 6 0.000000 0.000000 0.000000 0.000000 0.000000 0.030946
#
#
# Mechanical properties :
#
#
# Convention : Reuss Voigt Hill
#
# Bulk Modulus (GPa) = 35.48514 46.03557 40.76036
# Shear Modulus (GPa) = 81.81076 27.65247 54.73161
#
# Velocity S-wave (km/s) = 5.96691 3.46906 4.88049
# Velocity P-wave (km/s) = 7.93191 6.00670 7.03547
#
# Compressibility (1/GPa) = 0.02818081
#
# Stress axis : x y z
#
# Youngs Moduli (GPa) = 74.70584 48.43049 135.81904
#
# Poissons Ratio (x) = 0.05250 0.28510
# Poissons Ratio (y) = 0.08098 0.46516
# Poissons Ratio (z) = 0.15681 0.16587
#
# Static dielectric constant tensor:
#      x y z
#    x 1.872730 0.000000 0.000000 
#    y 0.000000 1.923950 0.000000 
#    z 0.000000 0.000000 1.893600 
# 
# From -- ./inp_files/11283.got.cif
#   From: 2010.05.17/outbox.cif.g08.bks.cpg/sg41_6_cif.got.tgz:11283.got - 2010.06.03 18:54:24.
