data_PCOD9366071
_publ_section_title
;
Structure prediction by ZEFSAII (Michael W. Deem and Ramdas Pophale) SiO2 
 PCOD9366071
Probable space group: A B A 2
;
_chemical_formula_sum "Si O2"
_cell_formula_units_Z 48
_cell_length_a 14.557560
_cell_length_b 8.139016
_cell_length_c 16.964458
_cell_angle_alpha 90.000000
_cell_angle_beta 90.000000
_cell_angle_gamma 90.000000
_cell_volume 2010.020468
_symmetry_space_group_name_H-M "A B A 2"
_symmetry_group_IT_number 41
_symmetry_cell_setting 'orthorhombic'
loop_
_space_group_symop_operation_xyz
x,y,z
-x,-y,z
1/2-x,y,1/2+z
1/2+x,-y,1/2+z
x,1/2+y,1/2+z
-x,1/2-y,1/2+z
1/2-x,1/2+y,z
1/2+x,1/2-y,z
loop_
_atom_site_type_symbol
_atom_site_label
_atom_site_fract_x
_atom_site_fract_y
_atom_site_fract_z
Si Si1 0.885886 0.319842 0.237790
Si Si2 0.994959 0.184040 0.965621
Si Si3 0.389000 0.534906 0.200639
Si Si4 0.138653 0.592349 0.058670
Si Si5 0.830549 0.788051 0.038267
Si Si6 0.905485 0.158879 0.795977
O O1 0.863149 0.348396 0.147390
O O2 0.856530 0.484152 0.284086
O O3 0.996205 0.331754 0.250183
O O4 0.855699 0.131100 0.245103
O O5 0.938296 0.178777 0.885587
O O6 0.950051 0.325643 0.018357
O O7 0.000000 0.000000 0.000549
O O8 0.103782 0.211022 0.961458
O O9 0.500000 0.500000 0.195165
O O10 0.356008 0.590197 0.112394
O O11 0.358220 0.684937 0.256763
O O12 0.153369 0.398389 0.065032
O O13 0.227031 0.670847 0.016804
#
# Coordination Sequence:
#
# PCOD9366071 Si02
#       6
#     8   8   8   8   8   8
#     4  10  19  39  66  95 130 183 228 291 344 424
#     4  12  24  43  70 103 147 191 231 304 373 439
#     4  10  20  37  70  99 131 176 240 289 347 426
#     4  12  26  43  73 103 143 192 252 304 368 440
#     4  12  25  44  68 107 144 187 251 310 365 440
#     4  10  21  40  68 100 141 183 233 286 365 435
#
# _framework density 23.880352999999999
#
# number of rings (size 3 to 8) (size 9 to 14) (size 15 to 20)
#    0.000    1.000    3.333    6.000    2.333    4.000 
#    0.000    1.667    3.667    0.000    0.000    0.000 
#    0.000    0.000    0.000    0.000    0.000    0.000 
#
# Total GULP energy -133787.732202 kJ/mol
# GULP energy per Si atom -5574.488842 kJ/mol
# Density = 2.382600 g / cm^3
# Si number density = 23.880353 Si / 1000 Ang^3
#
#
#
# Elastic Constant Matrix: (Units=GPa)
#
#
# Indices 1 2 3 4 5 6 
#
# 1 75.9872 4.3707 10.1538 0.0000 0.0000 0.0000
# 2 4.3707 181.6256 26.6101 0.0000 0.0000 0.0000
# 3 10.1538 26.6101 71.1024 0.0000 0.0000 0.0000
# 4 0.0000 0.0000 0.0000 25.5606 0.0000 0.0000
# 5 0.0000 0.0000 0.0000 0.0000 16.3777 0.0000
# 6 0.0000 0.0000 0.0000 0.0000 0.0000 31.6799
#
#
#
# Elastic Compliance Matrix: (Units=1/GPa)
#
#
# Indices 1 2 3 4 5 6 
#
# 1 0.013416 -0.000045 -0.001899 0.000000 0.000000 0.000000
# 2 -0.000045 0.005825 -0.002174 0.000000 0.000000 0.000000
# 3 -0.001899 -0.002174 0.015149 0.000000 0.000000 0.000000
# 4 0.000000 0.000000 0.000000 0.039123 0.000000 0.000000
# 5 0.000000 0.000000 0.000000 0.000000 0.061059 0.000000
# 6 0.000000 0.000000 0.000000 0.000000 0.000000 0.031566
#
#
# Mechanical properties :
#
#
# Convention : Reuss Voigt Hill
#
# Bulk Modulus (GPa) = 38.23278 45.66493 41.94886
# Shear Modulus (GPa) = 27.30872 33.89569 30.60221
#
# Velocity S-wave (km/s) = 3.38533 3.77158 3.58366
# Velocity P-wave (km/s) = 5.59692 6.17497 5.89304
#
# Compressibility (1/GPa) = 0.02615557
#
# Stress axis : x y z
#
# Youngs Moduli (GPa) = 74.53529 171.66246 66.01104
#
# Poissons Ratio (x) = 0.00766 0.12537
# Poissons Ratio (y) = 0.00332 0.14349
# Poissons Ratio (z) = 0.14156 0.37316
#
# Static dielectric constant tensor:
#      x y z
#    x 2.729410 0.000000 0.000000 
#    y 0.000000 2.062840 0.000000 
#    z 0.000000 0.000000 1.872350 
# 
# From -- ./inp_files/10290.got.cif
#   From: 2010.05.17/outbox.cif.g08.bks.cpg/sg41_6_cif.got.tgz:10290.got - 2010.06.03 18:54:24.
