data_PCOD9366194
_publ_section_title
;
Structure prediction by ZEFSAII (Michael W. Deem and Ramdas Pophale) SiO2 
 PCOD9366194
Probable space group: A B A 2
;
_chemical_formula_sum "Si O2"
_cell_formula_units_Z 52
_cell_length_a 16.457053
_cell_length_b 12.140177
_cell_length_c 13.981992
_cell_angle_alpha 90.000000
_cell_angle_beta 90.000000
_cell_angle_gamma 90.000000
_cell_volume 2793.483662
_symmetry_space_group_name_H-M "A B A 2"
_symmetry_group_IT_number 41
_symmetry_cell_setting 'orthorhombic'
loop_
_space_group_symop_operation_xyz
x,y,z
-x,-y,z
1/2-x,y,1/2+z
1/2+x,-y,1/2+z
x,1/2+y,1/2+z
-x,1/2-y,1/2+z
1/2-x,1/2+y,z
1/2+x,1/2-y,z
loop_
_atom_site_type_symbol
_atom_site_label
_atom_site_fract_x
_atom_site_fract_y
_atom_site_fract_z
Si Si1 0.911954 0.384807 0.995570
Si Si2 0.000000 0.000000 0.328281
Si Si3 0.863514 0.162474 0.270143
Si Si4 0.263832 0.974032 0.919474
Si Si5 0.000000 0.000000 0.988611
Si Si6 0.000000 0.000000 0.665634
Si Si7 0.614790 0.414464 0.824021
Si Si8 0.860117 0.147589 0.055676
O O1 0.962431 0.408796 0.899904
O O2 0.835141 0.465718 0.978870
O O3 0.877991 0.263759 0.006836
O O4 0.969744 0.409175 0.087514
O O5 0.933715 0.069156 0.271410
O O6 0.802475 0.117895 0.350466
O O7 0.890587 0.287141 0.292955
O O8 0.829859 0.163896 0.163104
O O9 0.206608 0.052732 0.853842
O O10 0.204785 0.917843 0.994550
O O11 0.059194 0.067322 0.917514
O O12 0.943976 0.079852 0.050145
O O13 0.923985 0.993446 0.740779
#
# Coordination Sequence:
#
# PCOD9366194 Si02
#       8
#     8   4   8   8   4   4   8   8
#     4  10  20  39  60  83 119 156 195 242 295 355
#     4   9  21  37  59  86 116 150 196 246 292 344
#     4  11  21  37  61  85 120 153 196 243 295 350
#     4  10  24  38  58  88 124 152 198 246 298 346
#     4   9  21  37  59  86 116 150 196 246 292 344
#     4  10  20  36  62  86 110 154 206 232 282 364
#     4  10  20  39  60  83 119 156 195 242 295 355
#     4  11  21  37  61  85 120 153 196 243 295 350
#
# _framework density 18.614750000000001
#
# number of rings (size 3 to 8) (size 9 to 14) (size 15 to 20)
#    0.000    1.846    1.538    2.308    2.154    0.000 
#    0.000    0.000    0.000    0.000    0.000    0.000 
#    0.000    0.000    0.000    0.000    0.000    0.000 
#
# Total GULP energy -144791.697509 kJ/mol
# GULP energy per Si atom -5568.911443 kJ/mol
# Density = 1.857238 g / cm^3
# Si number density = 18.614750 Si / 1000 Ang^3
#
#
#
# Elastic Constant Matrix: (Units=GPa)
#
#
# Indices 1 2 3 4 5 6 
#
# 1 52.9047 9.4753 14.3920 0.0000 0.0000 0.0000
# 2 9.4753 63.0963 29.4169 0.0000 0.0000 0.0000
# 3 14.3920 29.4169 85.8218 0.0000 0.0000 0.0000
# 4 0.0000 0.0000 0.0000 -36.4621 0.0000 0.0000
# 5 0.0000 0.0000 0.0000 0.0000 -10.8435 0.0000
# 6 0.0000 0.0000 0.0000 0.0000 0.0000 11.4615
#
#
#
# Elastic Compliance Matrix: (Units=1/GPa)
#
#
# Indices 1 2 3 4 5 6 
#
# 1 0.019959 -0.001710 -0.002761 0.000000 0.000000 0.000000
# 2 -0.001710 0.019010 -0.006229 0.000000 0.000000 0.000000
# 3 -0.002761 -0.006229 0.014250 0.000000 0.000000 0.000000
# 4 0.000000 0.000000 0.000000 -0.027426 0.000000 0.000000
# 5 0.000000 0.000000 0.000000 0.000000 -0.092221 0.000000
# 6 0.000000 0.000000 0.000000 0.000000 0.000000 0.087248
#
#
# Mechanical properties :
#
#
# Convention : Reuss Voigt Hill
#
# Bulk Modulus (GPa) = 31.42791 34.26570 32.84681
# Shear Modulus (GPa) = 94.64826 2.73376 48.69101
#
# Velocity S-wave (km/s) = 7.13836 1.21317 5.11996
# Velocity P-wave (km/s) = 9.21204 4.51776 7.25506
#
# Compressibility (1/GPa) = 0.03181885
#
# Stress axis : x y z
#
# Youngs Moduli (GPa) = 50.10202 52.60453 70.17447
#
# Poissons Ratio (x) = 0.08996 0.19375
# Poissons Ratio (y) = 0.08568 0.43713
# Poissons Ratio (z) = 0.13833 0.32768
#
# Static dielectric constant tensor:
#      x y z
#    x 1.688960 0.000000 0.000000 
#    y 0.000000 1.630460 0.000000 
#    z 0.000000 0.000000 1.624400 
# 
# From -- ./inp_files/8783.got.cif
#   From: 2010.05.17/outbox.cif.g08.bks.cpg/sg41_5_cif.got.tgz:8783.got - 2010.06.03 18:54:24.
