data_PCOD9366893
_publ_section_title
;
Structure prediction by ZEFSAII (Michael W. Deem and Ramdas Pophale) SiO2 
 PCOD9366893
Probable space group: A B A 2
;
_chemical_formula_sum "Si O2"
_cell_formula_units_Z 64
_cell_length_a 16.217675
_cell_length_b 13.048884
_cell_length_c 13.688246
_cell_angle_alpha 90.000000
_cell_angle_beta 90.000000
_cell_angle_gamma 90.000000
_cell_volume 2896.741658
_symmetry_space_group_name_H-M "A B A 2"
_symmetry_group_IT_number 41
_symmetry_cell_setting 'orthorhombic'
loop_
_space_group_symop_operation_xyz
x,y,z
-x,-y,z
1/2-x,y,1/2+z
1/2+x,-y,1/2+z
x,1/2+y,1/2+z
-x,1/2-y,1/2+z
1/2-x,1/2+y,z
1/2+x,1/2-y,z
loop_
_atom_site_type_symbol
_atom_site_label
_atom_site_fract_x
_atom_site_fract_y
_atom_site_fract_z
Si Si1 0.235042 0.621913 0.917250
Si Si2 0.390081 0.345691 0.765364
Si Si3 0.409940 0.959058 0.905200
Si Si4 0.839138 0.822332 0.611079
Si Si5 0.496584 0.624476 0.921471
Si Si6 0.469413 0.302581 0.568130
Si Si7 0.865356 0.941570 0.790979
Si Si8 0.295087 0.811627 0.780049
O O1 0.150547 0.557751 0.907682
O O2 0.306426 0.542111 0.885006
O O3 0.261698 0.714698 0.845344
O O4 0.226031 0.668011 0.024619
O O5 0.421524 0.321948 0.875005
O O6 0.427219 0.287777 0.673753
O O7 0.418645 0.462358 0.759599
O O8 0.292904 0.361082 0.758432
O O9 0.361473 0.879890 0.835561
O O10 0.500000 0.000000 0.873866
O O11 0.425465 0.893270 0.005216
O O12 0.820293 0.907133 0.693413
O O13 0.830695 0.720709 0.675373
O O14 0.934335 0.832700 0.580164
O O15 0.500000 0.500000 0.942730
O O16 0.430637 0.639513 0.833613
O O17 0.468069 0.695096 0.010067
#
# Coordination Sequence:
#
# PCOD9366893 Si02
#       8
#     8   8   8   8   8   8   8   8
#     4  11  23  45  69 103 147 190 242 310 374 440
#     4  11  23  41  71 100 142 193 246 300 378 445
#     4  12  26  46  76 106 145 198 255 313 379 453
#     4  11  23  42  68 103 143 189 246 304 370 458
#     4  10  23  44  71 104 147 198 250 308 378 447
#     4  12  24  41  74 107 138 191 253 309 368 456
#     4  10  21  43  67  98 139 192 249 301 369 452
#     4  11  27  45  68 107 148 193 239 314 384 450
#
# _framework density 22.093789999999998
#
# number of rings (size 3 to 8) (size 9 to 14) (size 15 to 20)
#    0.000    1.000    3.750    3.000    3.500    0.000 
#    0.000    1.875    0.000    0.000    0.000    0.000 
#    0.000    0.000    0.000    0.000    0.000    0.000 
#
# Total GULP energy -178190.902563 kJ/mol
# GULP energy per Si atom -5568.465705 kJ/mol
# Density = 2.204350 g / cm^3
# Si number density = 22.093790 Si / 1000 Ang^3
#
#
#
# Elastic Constant Matrix: (Units=GPa)
#
#
# Indices 1 2 3 4 5 6 
#
# 1 106.9052 24.0181 23.4555 0.0000 0.0000 0.0000
# 2 24.0181 91.6067 48.2145 0.0000 0.0000 0.0000
# 3 23.4555 48.2145 113.1366 0.0000 0.0000 0.0000
# 4 0.0000 0.0000 0.0000 30.9636 0.0000 0.0000
# 5 0.0000 0.0000 0.0000 0.0000 42.7339 0.0000
# 6 0.0000 0.0000 0.0000 0.0000 0.0000 32.7357
#
#
#
# Elastic Compliance Matrix: (Units=1/GPa)
#
#
# Indices 1 2 3 4 5 6 
#
# 1 0.010073 -0.001988 -0.001241 0.000000 0.000000 0.000000
# 2 -0.001988 0.014465 -0.005752 0.000000 0.000000 0.000000
# 3 -0.001241 -0.005752 0.011548 0.000000 0.000000 0.000000
# 4 0.000000 0.000000 0.000000 0.032296 0.000000 0.000000
# 5 0.000000 0.000000 0.000000 0.000000 0.023401 0.000000
# 6 0.000000 0.000000 0.000000 0.000000 0.000000 0.030548
#
#
# Mechanical properties :
#
#
# Convention : Reuss Voigt Hill
#
# Bulk Modulus (GPa) = 55.17847 55.89164 55.53506
# Shear Modulus (GPa) = 34.16853 35.68398 34.92625
#
# Velocity S-wave (km/s) = 3.93685 4.02321 3.98026
# Velocity P-wave (km/s) = 6.75973 6.85084 6.80543
#
# Compressibility (1/GPa) = 0.01812301
#
# Stress axis : x y z
#
# Youngs Moduli (GPa) = 99.27541 69.13269 86.59791
#
# Poissons Ratio (x) = 0.13742 0.10749
# Poissons Ratio (y) = 0.19733 0.49814
# Poissons Ratio (z) = 0.12323 0.39767
#
# Static dielectric constant tensor:
#      x y z
#    x 1.958730 0.000000 0.000000 
#    y 0.000000 1.982750 0.000000 
#    z 0.000000 0.000000 1.822300 
# 
# From -- ./inp_files/6047.got.cif
#   From: 2010.05.17/outbox.cif.g08.bks.cpg/sg41_4_cif.got.tgz:6047.got - 2010.06.03 18:54:24.
