data_PCOD9366450
_publ_section_title
;
Structure prediction by ZEFSAII (Michael W. Deem and Ramdas Pophale) SiO2 
 PCOD9366450
Probable space group: A B A 2
;
_chemical_formula_sum "Si O2"
_cell_formula_units_Z 28
_cell_length_a 14.823038
_cell_length_b 13.591494
_cell_length_c 4.879076
_cell_angle_alpha 90.000000
_cell_angle_beta 90.000000
_cell_angle_gamma 90.000000
_cell_volume 982.973937
_symmetry_space_group_name_H-M "A B A 2"
_symmetry_group_IT_number 41
_symmetry_cell_setting 'orthorhombic'
loop_
_space_group_symop_operation_xyz
x,y,z
-x,-y,z
1/2-x,y,1/2+z
1/2+x,-y,1/2+z
x,1/2+y,1/2+z
-x,1/2-y,1/2+z
1/2-x,1/2+y,z
1/2+x,1/2-y,z
loop_
_atom_site_type_symbol
_atom_site_label
_atom_site_fract_x
_atom_site_fract_y
_atom_site_fract_z
Si Si1 0.689035 0.522029 0.671210
Si Si2 0.303563 0.214681 0.141376
Si Si3 0.000000 0.000000 0.955900
Si Si4 0.040181 0.207217 0.220394
O O1 0.730594 0.552356 0.379622
O O2 0.689153 0.403542 0.659728
O O3 0.586145 0.539673 0.777935
O O4 0.281495 0.241738 0.450603
O O5 0.382798 0.239828 0.932311
O O6 0.964826 0.908247 0.139706
O O7 0.960276 0.236333 0.431558
#
# Coordination Sequence:
#
# PCOD9366450 Si02
#       4
#     8   8   4   8
#     4  10  22  40  69 106 137 183 244 285 347 434
#     4  10  20  41  70  97 135 185 230 286 350 411
#     4  12  26  48  76 100 148 196 226 302 370 398
#     4  12  27  45  69 106 140 180 239 287 350 435
#
# _framework density 28.484988999999999
#
# number of rings (size 3 to 8) (size 9 to 14) (size 15 to 20)
#    0.000    1.143    0.000    8.571    0.000   10.286 
#    0.000    8.571    0.000    0.000    0.000    0.000 
#    0.000    0.000    0.000    0.000    0.000    0.000 
#
# Total GULP energy -78245.268375 kJ/mol
# GULP energy per Si atom -5588.947741 kJ/mol
# Density = 2.842016 g / cm^3
# Si number density = 28.484989 Si / 1000 Ang^3
#
#
#
# Elastic Constant Matrix: (Units=GPa)
#
#
# Indices 1 2 3 4 5 6 
#
# 1 153.9587 -28.2498 10.7550 0.0000 0.0000 0.0000
# 2 -28.2498 126.7830 -7.7148 0.0000 0.0000 0.0000
# 3 10.7550 -7.7148 229.9826 0.0000 0.0000 0.0000
# 4 0.0000 0.0000 0.0000 -1.5065 0.0000 0.0000
# 5 0.0000 0.0000 0.0000 0.0000 48.4634 0.0000
# 6 0.0000 0.0000 0.0000 0.0000 0.0000 5.8939
#
#
#
# Elastic Compliance Matrix: (Units=1/GPa)
#
#
# Indices 1 2 3 4 5 6 
#
# 1 0.006788 0.001496 -0.000267 0.000000 0.000000 0.000000
# 2 0.001496 0.008233 0.000206 0.000000 0.000000 0.000000
# 3 -0.000267 0.000206 0.004368 0.000000 0.000000 0.000000
# 4 0.000000 0.000000 0.000000 -0.663803 0.000000 0.000000
# 5 0.000000 0.000000 0.000000 0.000000 0.020634 0.000000
# 6 0.000000 0.000000 0.000000 0.000000 0.000000 0.169668
#
#
# Mechanical properties :
#
#
# Convention : Reuss Voigt Hill
#
# Bulk Modulus (GPa) = 44.92339 51.14499 48.03419
# Shear Modulus (GPa) = -11.12193 46.29908 17.58858
#
# Velocity S-wave (km/s) = -1.97812 4.03598 2.48759
# Velocity P-wave (km/s) = 3.25390 6.30182 5.01501
#
# Compressibility (1/GPa) = 0.02226012
#
# Stress axis : x y z
#
# Youngs Moduli (GPa) = 147.30827 121.45563 228.96016
#
# Poissons Ratio (x) = -0.18174 0.06119
# Poissons Ratio (y) = -0.22042 -0.04722
# Poissons Ratio (z) = 0.03937 -0.02505
#
# Static dielectric constant tensor:
#      x y z
#    x 3.469880 0.000000 0.000000 
#    y 0.000000 2.207200 0.000000 
#    z 0.000000 0.000000 2.106850 
# 
# From -- ./inp_files/386.got.cif
#   From: 2010.05.17/outbox.cif.g08.bks.cpg/sg41_1_cif.got.tgz:386.got - 2010.06.03 18:54:24.
