data_PCOD9366919
_publ_section_title
;
Structure prediction by ZEFSAII (Michael W. Deem and Ramdas Pophale) SiO2 
 PCOD9366919
Probable space group: A B A 2
;
_chemical_formula_sum "Si O2"
_cell_formula_units_Z 52
_cell_length_a 9.696460
_cell_length_b 21.684962
_cell_length_c 9.522761
_cell_angle_alpha 90.000000
_cell_angle_beta 90.000000
_cell_angle_gamma 90.000000
_cell_volume 2002.325879
_symmetry_space_group_name_H-M "A B A 2"
_symmetry_group_IT_number 41
_symmetry_cell_setting 'orthorhombic'
loop_
_space_group_symop_operation_xyz
x,y,z
-x,-y,z
1/2-x,y,1/2+z
1/2+x,-y,1/2+z
x,1/2+y,1/2+z
-x,1/2-y,1/2+z
1/2-x,1/2+y,z
1/2+x,1/2-y,z
loop_
_atom_site_type_symbol
_atom_site_label
_atom_site_fract_x
_atom_site_fract_y
_atom_site_fract_z
Si Si1 0.197674 0.654582 0.260660
Si Si2 0.276678 0.021392 0.160969
Si Si3 0.395370 0.838003 0.350073
Si Si4 0.499553 0.628073 0.285132
Si Si5 0.780107 0.052294 0.439180
Si Si6 0.500000 0.500000 0.109582
Si Si7 0.201395 0.784640 0.125874
O O1 0.177450 0.590210 0.176754
O O2 0.560376 0.833868 0.349489
O O3 0.345653 0.643468 0.333776
O O4 0.215300 0.713681 0.163582
O O5 0.152676 0.005269 0.043507
O O6 0.217273 0.995548 0.306086
O O7 0.363033 0.971178 0.080288
O O8 0.356570 0.905401 0.408372
O O9 0.328022 0.821762 0.199123
O O10 0.323055 0.792611 0.461255
O O11 0.609086 0.607128 0.397926
O O12 0.493503 0.566564 0.186561
O O13 0.566665 0.684038 0.198279
#
# Coordination Sequence:
#
# PCOD9366919 Si02
#       7
#     8   8   8   8   8   4   8
#     4  11  25  45  73 110 143 195 253 300 362 455
#     4  10  22  40  70 103 144 186 242 304 368 444
#     4  11  25  47  75 105 145 197 250 306 374 451
#     4   9  20  42  70 102 147 191 240 308 368 432
#     4  10  21  44  70 102 143 191 236 305 384 431
#     4   8  16  36  64  98 134 184 228 286 362 416
#     4  11  25  47  72 105 153 199 245 308 379 445
#
# _framework density 25.969795999999999
#
# number of rings (size 3 to 8) (size 9 to 14) (size 15 to 20)
#    0.000    1.846    0.000    3.692    0.000    8.000 
#    0.000   30.769    0.000    0.000    0.000    0.000 
#    0.000    0.000    0.000    0.000    0.000    0.000 
#
# Total GULP energy -145045.884633 kJ/mol
# GULP energy per Si atom -5578.687870 kJ/mol
# Density = 2.591069 g / cm^3
# Si number density = 25.969796 Si / 1000 Ang^3
#
#
#
# Elastic Constant Matrix: (Units=GPa)
#
#
# Indices 1 2 3 4 5 6 
#
# 1 101.3594 1.3429 29.7411 0.0000 0.0000 0.0000
# 2 1.3429 159.8677 40.9127 0.0000 0.0000 0.0000
# 3 29.7411 40.9127 108.7369 0.0000 0.0000 0.0000
# 4 0.0000 0.0000 0.0000 42.6929 0.0000 0.0000
# 5 0.0000 0.0000 0.0000 0.0000 -20.2922 0.0000
# 6 0.0000 0.0000 0.0000 0.0000 0.0000 25.3366
#
#
#
# Elastic Compliance Matrix: (Units=1/GPa)
#
#
# Indices 1 2 3 4 5 6 
#
# 1 0.010805 0.000736 -0.003232 0.000000 0.000000 0.000000
# 2 0.000736 0.006972 -0.002825 0.000000 0.000000 0.000000
# 3 -0.003232 -0.002825 0.011143 0.000000 0.000000 0.000000
# 4 0.000000 0.000000 0.000000 0.023423 0.000000 0.000000
# 5 0.000000 0.000000 0.000000 0.000000 -0.049280 0.000000
# 6 0.000000 0.000000 0.000000 0.000000 0.000000 0.039469
#
#
# Mechanical properties :
#
#
# Convention : Reuss Voigt Hill
#
# Bulk Modulus (GPa) = 54.70812 57.10641 55.90726
# Shear Modulus (GPa) = 84.36648 29.41196 56.88922
#
# Velocity S-wave (km/s) = 5.70587 3.36898 4.68545
# Velocity P-wave (km/s) = 8.03250 6.09677 7.13063
#
# Compressibility (1/GPa) = 0.01827882
#
# Stress axis : x y z
#
# Youngs Moduli (GPa) = 92.55359 143.43397 89.73953
#
# Poissons Ratio (x) = -0.10563 0.29006
# Poissons Ratio (y) = -0.06816 0.25348
# Poissons Ratio (z) = 0.29916 0.40515
#
# Static dielectric constant tensor:
#      x y z
#    x 2.687410 0.000000 0.000000 
#    y 0.000000 2.158050 0.000000 
#    z 0.000000 0.000000 2.179200 
# 
# From -- ./inp_files/5747.got.cif
#   From: 2010.05.17/outbox.cif.g08.bks.cpg/sg41_3_cif.got.tgz:5747.got - 2010.06.03 18:54:24.
