data_PCOD9366164
_publ_section_title
;
Structure prediction by ZEFSAII (Michael W. Deem and Ramdas Pophale) SiO2 
 PCOD9366164
Probable space group: A B A 2
;
_chemical_formula_sum "Si O2"
_cell_formula_units_Z 64
_cell_length_a 5.397855
_cell_length_b 31.252547
_cell_length_c 14.441966
_cell_angle_alpha 90.000000
_cell_angle_beta 90.000000
_cell_angle_gamma 90.000000
_cell_volume 2436.312252
_symmetry_space_group_name_H-M "A B A 2"
_symmetry_group_IT_number 41
_symmetry_cell_setting 'orthorhombic'
loop_
_space_group_symop_operation_xyz
x,y,z
-x,-y,z
1/2-x,y,1/2+z
1/2+x,-y,1/2+z
x,1/2+y,1/2+z
-x,1/2-y,1/2+z
1/2-x,1/2+y,z
1/2+x,1/2-y,z
loop_
_atom_site_type_symbol
_atom_site_label
_atom_site_fract_x
_atom_site_fract_y
_atom_site_fract_z
Si Si1 0.535808 0.775328 0.675800
Si Si2 0.584217 0.630902 0.870525
Si Si3 0.027973 0.419728 0.080352
Si Si4 0.126075 0.370643 0.700433
Si Si5 0.921345 0.543959 0.469724
Si Si6 0.476739 0.755762 0.972287
Si Si7 0.894091 0.847381 0.467446
Si Si8 0.130708 0.543558 0.680836
O O1 0.789279 0.751398 0.703788
O O2 0.512721 0.825471 0.700734
O O3 0.525771 0.773420 0.563053
O O4 0.628764 0.635222 0.762454
O O5 0.519775 0.583128 0.903192
O O6 0.356507 0.658626 0.908749
O O7 0.863344 0.639863 0.908072
O O8 0.924032 0.447533 0.165479
O O9 0.256213 0.387778 0.104954
O O10 0.841178 0.384417 0.041032
O O11 0.135166 0.450517 0.001149
O O12 0.973190 0.413350 0.729236
O O13 0.000000 0.500000 0.423253
O O14 0.057492 0.543291 0.570366
O O15 0.223455 0.754851 0.917643
O O16 0.516666 0.803322 0.010735
O O17 0.000000 0.500000 0.716889
#
# Coordination Sequence:
#
# PCOD9366164 Si02
#       8
#     8   8   8   8   8   8   8   8
#     4  10  23  40  66 101 132 173 234 285 348 418
#     4  11  25  45  64 102 139 191 224 283 368 433
#     4  10  21  40  72  95 134 180 239 296 351 407
#     4  11  26  42  70 100 148 188 229 297 367 431
#     4   9  20  40  63  97 131 178 234 292 344 415
#     4  10  20  35  63  96 126 160 230 285 337 401
#     4  11  23  43  68  95 135 179 235 290 346 423
#     4  10  22  41  69 104 133 176 241 298 348 414
#
# _framework density 26.269209
#
# number of rings (size 3 to 8) (size 9 to 14) (size 15 to 20)
#    0.000    1.750    1.250    2.250    7.000    4.500 
#    2.250    3.750    0.000    0.000    0.000    0.000 
#    0.000    0.000    0.000    0.000    0.000    0.000 
#
# Total GULP energy -178644.090178 kJ/mol
# GULP energy per Si atom -5582.627818 kJ/mol
# Density = 2.620942 g / cm^3
# Si number density = 26.269209 Si / 1000 Ang^3
#
#
#
# Elastic Constant Matrix: (Units=GPa)
#
#
# Indices 1 2 3 4 5 6 
#
# 1 143.1059 37.7126 -10.0610 0.0000 0.0000 0.0000
# 2 37.7126 159.1354 -7.4270 0.0000 0.0000 0.0000
# 3 -10.0610 -7.4270 35.0589 0.0000 0.0000 0.0000
# 4 0.0000 0.0000 0.0000 3.9749 0.0000 0.0000
# 5 0.0000 0.0000 0.0000 0.0000 21.2796 0.0000
# 6 0.0000 0.0000 0.0000 0.0000 0.0000 34.5628
#
#
#
# Elastic Compliance Matrix: (Units=1/GPa)
#
#
# Indices 1 2 3 4 5 6 
#
# 1 0.007565 -0.001708 0.001809 0.000000 0.000000 0.000000
# 2 -0.001708 0.006733 0.000936 0.000000 0.000000 0.000000
# 3 0.001809 0.000936 0.029241 0.000000 0.000000 0.000000
# 4 0.000000 0.000000 0.000000 0.251578 0.000000 0.000000
# 5 0.000000 0.000000 0.000000 0.000000 0.046993 0.000000
# 6 0.000000 0.000000 0.000000 0.000000 0.000000 0.028933
#
#
# Mechanical properties :
#
#
# Convention : Reuss Voigt Hill
#
# Bulk Modulus (GPa) = 21.92410 41.97218 31.94814
# Shear Modulus (GPa) = 13.01494 33.10182 23.05838
#
# Velocity S-wave (km/s) = 2.22827 3.55364 2.96594
# Velocity P-wave (km/s) = 3.87096 5.73151 4.89053
#
# Compressibility (1/GPa) = 0.04561192
#
# Stress axis : x y z
#
# Youngs Moduli (GPa) = 132.18361 148.53310 34.19871
#
# Poissons Ratio (x) = 0.25376 -0.06187
# Poissons Ratio (y) = 0.22582 -0.03201
# Poissons Ratio (z) = -0.23913 -0.13902
#
# Static dielectric constant tensor:
#      x y z
#    x 2.321220 0.000000 0.000000 
#    y 0.000000 2.068520 0.000000 
#    z 0.000000 0.000000 2.082030 
# 
# From -- ./inp_files/9511.got.cif
#   From: 2010.05.17/outbox.cif.g08.bks.cpg/sg41_5_cif.got.tgz:9511.got - 2010.06.03 18:54:24.
