data_PCOD9366242
_publ_section_title
;
Structure prediction by ZEFSAII (Michael W. Deem and Ramdas Pophale) SiO2 
 PCOD9366242
Probable space group: A B A 2
;
_chemical_formula_sum "Si O2"
_cell_formula_units_Z 52
_cell_length_a 9.724894
_cell_length_b 14.630851
_cell_length_c 17.108426
_cell_angle_alpha 90.000000
_cell_angle_beta 90.000000
_cell_angle_gamma 90.000000
_cell_volume 2434.246305
_symmetry_space_group_name_H-M "A B A 2"
_symmetry_group_IT_number 41
_symmetry_cell_setting 'orthorhombic'
loop_
_space_group_symop_operation_xyz
x,y,z
-x,-y,z
1/2-x,y,1/2+z
1/2+x,-y,1/2+z
x,1/2+y,1/2+z
-x,1/2-y,1/2+z
1/2-x,1/2+y,z
1/2+x,1/2-y,z
loop_
_atom_site_type_symbol
_atom_site_label
_atom_site_fract_x
_atom_site_fract_y
_atom_site_fract_z
Si Si1 0.500000 0.500000 0.725631
Si Si2 0.000000 0.500000 0.518993
Si Si3 0.500000 0.000000 0.996916
Si Si4 0.266326 0.240060 0.668477
Si Si5 0.012602 0.204629 0.770686
Si Si6 0.455643 0.195911 0.445530
Si Si7 0.272349 0.444878 0.609464
Si Si8 0.666709 0.825412 0.005972
O O1 0.513032 0.595563 0.769160
O O2 0.359629 0.501344 0.674005
O O3 0.016890 0.589955 0.465722
O O4 0.134952 0.487003 0.572981
O O5 0.394197 0.080052 0.970074
O O6 0.608904 0.061826 0.044135
O O7 0.164830 0.218833 0.739157
O O8 0.416441 0.243453 0.708057
O O9 0.241920 0.344010 0.640261
O O10 0.230632 0.175786 0.594084
O O11 0.997289 0.230297 0.860699
O O12 0.293271 0.209517 0.454475
O O13 0.542778 0.253960 0.506974
#
# Coordination Sequence:
#
# PCOD9366242 Si02
#       8
#     4   4   4   8   8   8   8   8
#     4   9  21  42  64  88 135 179 220 266 352 412
#     4  12  23  40  65 103 135 172 230 292 331 406
#     4  11  22  42  61  99 134 173 224 286 351 390
#     4  11  22  40  66  94 127 174 226 276 328 404
#     4  11  24  42  65  96 137 178 220 277 352 413
#     4  12  26  42  67 101 141 180 228 285 355 409
#     4  10  20  37  63  98 123 168 224 285 321 397
#     4  12  24  43  69 100 135 182 236 289 338 415
#
# _framework density 21.36185
#
# number of rings (size 3 to 8) (size 9 to 14) (size 15 to 20)
#    0.000    0.923    3.077    6.000    0.000    0.000 
#    0.000    1.538    0.000    0.000    0.000    0.000 
#    0.000    0.000    0.000    0.000    0.000    0.000 
#
# Total GULP energy -144966.924132 kJ/mol
# GULP energy per Si atom -5575.650928 kJ/mol
# Density = 2.131323 g / cm^3
# Si number density = 21.361850 Si / 1000 Ang^3
#
#
#
# Elastic Constant Matrix: (Units=GPa)
#
#
# Indices 1 2 3 4 5 6 
#
# 1 112.0422 17.6538 21.6536 0.0000 0.0000 0.0000
# 2 17.6538 75.8493 -1.7059 0.0000 0.0000 0.0000
# 3 21.6536 -1.7059 65.4905 0.0000 0.0000 0.0000
# 4 0.0000 0.0000 0.0000 5.9602 0.0000 0.0000
# 5 0.0000 0.0000 0.0000 0.0000 19.7116 0.0000
# 6 0.0000 0.0000 0.0000 0.0000 0.0000 37.9891
#
#
#
# Elastic Compliance Matrix: (Units=1/GPa)
#
#
# Indices 1 2 3 4 5 6 
#
# 1 0.009950 -0.002391 -0.003352 0.000000 0.000000 0.000000
# 2 -0.002391 0.013766 0.001149 0.000000 0.000000 0.000000
# 3 -0.003352 0.001149 0.016408 0.000000 0.000000 0.000000
# 4 0.000000 0.000000 0.000000 0.167779 0.000000 0.000000
# 5 0.000000 0.000000 0.000000 0.000000 0.050732 0.000000
# 6 0.000000 0.000000 0.000000 0.000000 0.000000 0.026323
#
#
# Mechanical properties :
#
#
# Convention : Reuss Voigt Hill
#
# Bulk Modulus (GPa) = 32.32502 36.50945 34.41723
# Shear Modulus (GPa) = 16.42265 27.11755 21.77010
#
# Velocity S-wave (km/s) = 2.77570 3.56678 3.19582
# Velocity P-wave (km/s) = 5.04358 5.83872 5.45565
#
# Compressibility (1/GPa) = 0.03093579
#
# Stress axis : x y z
#
# Youngs Moduli (GPa) = 100.50454 72.64045 60.94723
#
# Poissons Ratio (x) = 0.17370 0.20430
# Poissons Ratio (y) = 0.24033 -0.07004
# Poissons Ratio (z) = 0.33690 -0.08348
#
# Static dielectric constant tensor:
#      x y z
#    x 1.772600 0.000000 0.000000 
#    y 0.000000 1.820500 0.000000 
#    z 0.000000 0.000000 1.797810 
# 
# From -- ./inp_files/9748.got.cif
#   From: 2010.05.17/outbox.cif.g08.bks.cpg/sg41_5_cif.got.tgz:9748.got - 2010.06.03 18:54:24.
