data_PCOD9366984
_publ_section_title
;
Structure prediction by ZEFSAII (Michael W. Deem and Ramdas Pophale) SiO2 
 PCOD9366984
Probable space group: A B A 2
;
_chemical_formula_sum "Si O2"
_cell_formula_units_Z 60
_cell_length_a 30.951373
_cell_length_b 10.213707
_cell_length_c 8.788849
_cell_angle_alpha 90.000000
_cell_angle_beta 90.000000
_cell_angle_gamma 90.000000
_cell_volume 2778.403498
_symmetry_space_group_name_H-M "A B A 2"
_symmetry_group_IT_number 41
_symmetry_cell_setting 'orthorhombic'
loop_
_space_group_symop_operation_xyz
x,y,z
-x,-y,z
1/2-x,y,1/2+z
1/2+x,-y,1/2+z
x,1/2+y,1/2+z
-x,1/2-y,1/2+z
1/2-x,1/2+y,z
1/2+x,1/2-y,z
loop_
_atom_site_type_symbol
_atom_site_label
_atom_site_fract_x
_atom_site_fract_y
_atom_site_fract_z
Si Si1 0.936027 0.062863 0.650420
Si Si2 0.434872 0.957769 0.495138
Si Si3 0.000000 0.000000 0.419217
Si Si4 0.988164 0.324196 0.645832
Si Si5 0.296603 0.101260 0.641019
Si Si6 0.701897 0.897623 0.000302
Si Si7 0.849656 0.160753 0.141093
Si Si8 0.849207 0.663767 0.999579
O O1 0.957537 0.974823 0.520225
O O2 0.971022 0.179581 0.658511
O O3 0.891299 0.121995 0.593251
O O4 0.931999 0.004573 0.818211
O O5 0.474582 0.858151 0.525096
O O6 0.391678 0.888770 0.551927
O O7 0.447890 0.083631 0.595593
O O8 0.993659 0.121539 0.305293
O O9 0.249001 0.116137 0.572960
O O10 0.328782 0.202029 0.559024
O O11 0.313934 0.953535 0.621672
O O12 0.296022 0.130679 0.820600
O O13 0.669012 0.796000 0.077449
O O14 0.684883 0.045456 0.019821
O O15 0.859550 0.172915 0.320379
#
# Coordination Sequence:
#
# PCOD9366984 Si02
#       8
#     8   8   4   8   8   8   8   8
#     4  12  23  38  62  89 120 160 203 250 305 360
#     4  10  22  39  61  89 120 159 206 251 301 359
#     4  10  22  38  60  86 118 160 204 248 302 362
#     4  10  22  41  59  84 123 161 202 253 302 358
#     4  11  24  44  66  92 124 161 203 250 307 367
#     4  11  25  42  65  94 124 159 203 252 306 367
#     4  11  24  43  65  91 127 165 204 254 306 365
#     4  11  25  41  64  95 125 162 207 253 306 366
#
# _framework density 21.595137000000001
#
# number of rings (size 3 to 8) (size 9 to 14) (size 15 to 20)
#    0.000    1.333    0.000    6.400    0.000   11.733 
#    0.000    0.000    0.000    0.000    0.000    0.000 
#    0.000    0.000    0.000    0.000    0.000    0.000 
#
# Total GULP energy -167908.027832 kJ/mol
# GULP energy per Si atom -5596.934261 kJ/mol
# Density = 2.154599 g / cm^3
# Si number density = 21.595137 Si / 1000 Ang^3
#
#
#
# Elastic Constant Matrix: (Units=GPa)
#
#
# Indices 1 2 3 4 5 6 
#
# 1 59.4230 -24.8151 9.7715 0.0000 0.0000 0.0000
# 2 -24.8151 47.4971 7.7460 0.0000 0.0000 0.0000
# 3 9.7715 7.7460 110.5919 0.0000 0.0000 0.0000
# 4 0.0000 0.0000 0.0000 27.1704 0.0000 0.0000
# 5 0.0000 0.0000 0.0000 0.0000 41.7021 0.0000
# 6 0.0000 0.0000 0.0000 0.0000 0.0000 24.5019
#
#
#
# Elastic Compliance Matrix: (Units=1/GPa)
#
#
# Indices 1 2 3 4 5 6 
#
# 1 0.022366 0.012146 -0.002827 0.000000 0.000000 0.000000
# 2 0.012146 0.027893 -0.003027 0.000000 0.000000 0.000000
# 3 -0.002827 -0.003027 0.009504 0.000000 0.000000 0.000000
# 4 0.000000 0.000000 0.000000 0.036805 0.000000 0.000000
# 5 0.000000 0.000000 0.000000 0.000000 0.023980 0.000000
# 6 0.000000 0.000000 0.000000 0.000000 0.000000 0.040813
#
#
# Mechanical properties :
#
#
# Convention : Reuss Voigt Hill
#
# Bulk Modulus (GPa) = 13.82218 22.54628 18.18423
# Shear Modulus (GPa) = 28.91986 33.66219 31.29102
#
# Velocity S-wave (km/s) = 3.66346 3.95243 3.81068
# Velocity P-wave (km/s) = 4.93042 5.59393 5.27262
#
# Compressibility (1/GPa) = 0.07234749
#
# Stress axis : x y z
#
# Youngs Moduli (GPa) = 44.71166 35.85090 105.21852
#
# Poissons Ratio (x) = -0.43545 0.29744
# Poissons Ratio (y) = -0.54307 0.31848
# Poissons Ratio (z) = 0.12639 0.10852
#
# Static dielectric constant tensor:
#      x y z
#    x 1.747800 0.000000 0.000000 
#    y 0.000000 1.794780 0.000000 
#    z 0.000000 0.000000 1.778610 
# 
# From -- ./inp_files/3798.got.cif
#   From: 2010.05.17/outbox.cif.g08.bks.cpg/sg41_2_cif.got.tgz:3798.got - 2010.06.03 18:54:24.
