data_PCOD9366316
_publ_section_title
;
Structure prediction by ZEFSAII (Michael W. Deem and Ramdas Pophale) SiO2 
 PCOD9366316
Probable space group: A B A 2
;
_chemical_formula_sum "Si O2"
_cell_formula_units_Z 48
_cell_length_a 18.713389
_cell_length_b 10.283412
_cell_length_c 9.409090
_cell_angle_alpha 90.000000
_cell_angle_beta 90.000000
_cell_angle_gamma 90.000000
_cell_volume 1810.661653
_symmetry_space_group_name_H-M "A B A 2"
_symmetry_group_IT_number 41
_symmetry_cell_setting 'orthorhombic'
loop_
_space_group_symop_operation_xyz
x,y,z
-x,-y,z
1/2-x,y,1/2+z
1/2+x,-y,1/2+z
x,1/2+y,1/2+z
-x,1/2-y,1/2+z
1/2-x,1/2+y,z
1/2+x,1/2-y,z
loop_
_atom_site_type_symbol
_atom_site_label
_atom_site_fract_x
_atom_site_fract_y
_atom_site_fract_z
Si Si1 0.870866 0.816508 0.449300
Si Si2 0.906743 0.558965 0.103724
Si Si3 0.502128 0.685347 0.069531
Si Si4 0.887638 0.433625 0.397890
Si Si5 0.284731 0.372832 0.788530
Si Si6 0.636585 0.690200 0.240659
O O1 0.901457 0.961268 0.470329
O O2 0.812316 0.770137 0.337338
O O3 0.839922 0.778011 0.604388
O O4 0.940804 0.720642 0.443111
O O5 0.959693 0.679692 0.093678
O O6 0.923339 0.476118 0.247698
O O7 0.826784 0.603488 0.142314
O O8 0.443344 0.580168 0.024462
O O9 0.444267 0.845830 0.699416
O O10 0.821440 0.531254 0.404840
O O11 0.863620 0.286853 0.372632
O O12 0.202378 0.402799 0.768024
#
# Coordination Sequence:
#
# PCOD9366316 Si02
#       6
#     8   8   8   8   8   8
#     4   9  21  37  68 101 138 180 256 278 384 432
#     4   9  21  42  71  97 146 192 235 309 369 436
#     4  10  20  38  72 107 129 192 251 297 363 454
#     4   9  22  41  74  98 143 195 239 302 383 424
#     4  10  21  44  68  97 148 194 232 308 374 450
#     4   9  22  41  64 108 145 180 260 296 367 461
#
# _framework density 26.509646
#
# number of rings (size 3 to 8) (size 9 to 14) (size 15 to 20)
#    2.000    0.667    0.000    0.500    2.333    3.333 
#    6.000    1.667    3.667    0.000    0.000    0.000 
#    0.000    0.000    0.000    0.000    0.000    0.000 
#
# Total GULP energy -133866.321412 kJ/mol
# GULP energy per Si atom -5577.763392 kJ/mol
# Density = 2.644931 g / cm^3
# Si number density = 26.509646 Si / 1000 Ang^3
#
#
#
# Elastic Constant Matrix: (Units=GPa)
#
#
# Indices 1 2 3 4 5 6 
#
# 1 176.1552 61.2705 37.5276 0.0000 0.0000 0.0000
# 2 61.2705 95.4015 43.2433 0.0000 0.0000 0.0000
# 3 37.5276 43.2433 44.3832 0.0000 0.0000 0.0000
# 4 0.0000 0.0000 0.0000 41.8313 0.0000 0.0000
# 5 0.0000 0.0000 0.0000 0.0000 35.7910 0.0000
# 6 0.0000 0.0000 0.0000 0.0000 0.0000 26.4638
#
#
#
# Elastic Compliance Matrix: (Units=1/GPa)
#
#
# Indices 1 2 3 4 5 6 
#
# 1 0.007521 -0.003488 -0.002960 0.000000 0.000000 0.000000
# 2 -0.003488 0.020391 -0.016918 0.000000 0.000000 0.000000
# 3 -0.002960 -0.016918 0.041517 0.000000 0.000000 0.000000
# 4 0.000000 0.000000 0.000000 0.023906 0.000000 0.000000
# 5 0.000000 0.000000 0.000000 0.000000 0.027940 0.000000
# 6 0.000000 0.000000 0.000000 0.000000 0.000000 0.037787
#
#
# Mechanical properties :
#
#
# Convention : Reuss Voigt Hill
#
# Bulk Modulus (GPa) = 44.06011 66.66919 55.36465
# Shear Modulus (GPa) = 23.43462 32.41043 27.92253
#
# Velocity S-wave (km/s) = 2.97645 3.50035 3.24897
# Velocity P-wave (km/s) = 5.33562 6.44517 5.91646
#
# Compressibility (1/GPa) = 0.02269627
#
# Stress axis : x y z
#
# Youngs Moduli (GPa) = 132.96500 49.04221 24.08636
#
# Poissons Ratio (x) = 0.17107 0.07131
# Poissons Ratio (y) = 0.46381 0.40748
# Poissons Ratio (z) = 0.39364 0.82967
#
# Static dielectric constant tensor:
#      x y z
#    x 2.081280 0.000000 0.000000 
#    y 0.000000 2.249640 0.000000 
#    z 0.000000 0.000000 2.104230 
# 
# From -- ./inp_files/6190.got.cif
#   From: 2010.05.17/outbox.cif.g08.bks.cpg/sg41_4_cif.got.tgz:6190.got - 2010.06.03 18:54:24.
