data_PCOD9366370
_publ_section_title
;
Structure prediction by ZEFSAII (Michael W. Deem and Ramdas Pophale) SiO2 
 PCOD9366370
Probable space group: A B A 2
;
_chemical_formula_sum "Si O2"
_cell_formula_units_Z 64
_cell_length_a 14.517028
_cell_length_b 16.708513
_cell_length_c 11.869172
_cell_angle_alpha 90.000000
_cell_angle_beta 90.000000
_cell_angle_gamma 90.000000
_cell_volume 2878.962041
_symmetry_space_group_name_H-M "A B A 2"
_symmetry_group_IT_number 41
_symmetry_cell_setting 'orthorhombic'
loop_
_space_group_symop_operation_xyz
x,y,z
-x,-y,z
1/2-x,y,1/2+z
1/2+x,-y,1/2+z
x,1/2+y,1/2+z
-x,1/2-y,1/2+z
1/2-x,1/2+y,z
1/2+x,1/2-y,z
loop_
_atom_site_type_symbol
_atom_site_label
_atom_site_fract_x
_atom_site_fract_y
_atom_site_fract_z
Si Si1 0.400056 0.474962 0.562920
Si Si2 0.724708 0.932159 0.615897
Si Si3 0.565465 0.155545 0.718230
Si Si4 0.608772 0.499967 0.306513
Si Si5 0.438856 0.767649 0.349297
Si Si6 0.674726 0.765409 0.072715
Si Si7 0.863558 0.199446 0.606522
Si Si8 0.555626 0.364780 0.009581
O O1 0.500000 0.500000 0.610361
O O2 0.303882 0.500420 0.619910
O O3 0.386692 0.512460 0.438950
O O4 0.406686 0.379817 0.556628
O O5 0.781527 0.850748 0.599412
O O6 0.641771 0.926185 0.521786
O O7 0.667669 0.939668 0.731868
O O8 0.633901 0.091226 0.772156
O O9 0.493495 0.188266 0.809437
O O10 0.608399 0.237683 0.672310
O O11 0.520219 0.116704 0.605697
O O12 0.500000 0.500000 0.279833
O O13 0.376278 0.741813 0.454380
O O14 0.382228 0.795380 0.239864
O O15 0.504584 0.840212 0.394301
O O16 0.756779 0.701507 0.076574
O O17 0.905068 0.279165 0.551608
#
# Coordination Sequence:
#
# PCOD9366370 Si02
#       8
#     8   8   8   8   8   8   8   8
#     4  11  27  42  67  98 139 178 222 279 343 420
#     4  11  24  42  66 100 138 171 227 283 337 408
#     4  10  20  39  69  91 128 177 226 274 333 408
#     4  11  23  42  69  93 131 186 225 269 350 408
#     4  10  22  38  72  97 133 176 228 290 355 386
#     4  10  24  40  68 100 135 170 233 287 334 420
#     4  10  22  43  64  97 136 175 226 280 342 419
#     4   9  20  39  65  99 123 168 231 280 326 407
#
# _framework density 22.230236000000001
#
# number of rings (size 3 to 8) (size 9 to 14) (size 15 to 20)
#    0.000    1.750    1.250    1.500    8.750    5.000 
#    0.000    0.000    0.000    0.000    0.000    0.000 
#    0.000    0.000    0.000    0.000    0.000    0.000 
#
# Total GULP energy -178575.928839 kJ/mol
# GULP energy per Si atom -5580.497776 kJ/mol
# Density = 2.217964 g / cm^3
# Si number density = 22.230236 Si / 1000 Ang^3
#
#
#
# Elastic Constant Matrix: (Units=GPa)
#
#
# Indices 1 2 3 4 5 6 
#
# 1 85.5294 3.3901 32.4976 0.0000 0.0000 0.0000
# 2 3.3901 32.1030 2.0016 0.0000 0.0000 0.0000
# 3 32.4976 2.0016 68.9232 0.0000 0.0000 0.0000
# 4 0.0000 0.0000 0.0000 25.7987 0.0000 0.0000
# 5 0.0000 0.0000 0.0000 0.0000 34.2568 0.0000
# 6 0.0000 0.0000 0.0000 0.0000 0.0000 34.1925
#
#
#
# Elastic Compliance Matrix: (Units=1/GPa)
#
#
# Indices 1 2 3 4 5 6 
#
# 1 0.014282 -0.001090 -0.006702 0.000000 0.000000 0.000000
# 2 -0.001090 0.031289 -0.000395 0.000000 0.000000 0.000000
# 3 -0.006702 -0.000395 0.017680 0.000000 0.000000 0.000000
# 4 0.000000 0.000000 0.000000 0.038762 0.000000 0.000000
# 5 0.000000 0.000000 0.000000 0.000000 0.029191 0.000000
# 6 0.000000 0.000000 0.000000 0.000000 0.000000 0.029246
#
#
# Mechanical properties :
#
#
# Convention : Reuss Voigt Hill
#
# Bulk Modulus (GPa) = 21.33224 29.14826 25.24025
# Shear Modulus (GPa) = 25.98066 28.76067 27.37067
#
# Velocity S-wave (km/s) = 3.42235 3.60079 3.51270
# Velocity P-wave (km/s) = 5.02329 5.51617 5.27549
#
# Compressibility (1/GPa) = 0.04687741
#
# Stress axis : x y z
#
# Youngs Moduli (GPa) = 70.01984 31.95964 56.55951
#
# Poissons Ratio (x) = 0.03484 0.37907
# Poissons Ratio (y) = 0.07634 0.02232
# Poissons Ratio (z) = 0.46929 0.01261
#
# Static dielectric constant tensor:
#      x y z
#    x 1.954840 0.000000 0.000000 
#    y 0.000000 1.873590 0.000000 
#    z 0.000000 0.000000 1.806410 
# 
# From -- ./inp_files/5740.got.cif
#   From: 2010.05.17/outbox.cif.g08.bks.cpg/sg41_3_cif.got.tgz:5740.got - 2010.06.03 18:54:24.
