data_PCOD9366043
_publ_section_title
;
Structure prediction by ZEFSAII (Michael W. Deem and Ramdas Pophale) SiO2 
 PCOD9366043
Probable space group: A B A 2
;
_chemical_formula_sum "Si O2"
_cell_formula_units_Z 64
_cell_length_a 14.089920
_cell_length_b 13.568906
_cell_length_c 15.220714
_cell_angle_alpha 90.000000
_cell_angle_beta 90.000000
_cell_angle_gamma 90.000000
_cell_volume 2909.969162
_symmetry_space_group_name_H-M "A B A 2"
_symmetry_group_IT_number 41
_symmetry_cell_setting 'orthorhombic'
loop_
_space_group_symop_operation_xyz
x,y,z
-x,-y,z
1/2-x,y,1/2+z
1/2+x,-y,1/2+z
x,1/2+y,1/2+z
-x,1/2-y,1/2+z
1/2-x,1/2+y,z
1/2+x,1/2-y,z
loop_
_atom_site_type_symbol
_atom_site_label
_atom_site_fract_x
_atom_site_fract_y
_atom_site_fract_z
Si Si1 0.800324 0.100366 0.022110
Si Si2 0.846362 0.238120 0.719718
Si Si3 0.203107 0.715865 0.523021
Si Si4 0.141300 0.558299 0.398307
Si Si5 0.682052 0.950557 0.776685
Si Si6 0.530238 0.863376 0.234975
Si Si7 0.825603 0.445166 0.110547
Si Si8 0.637684 0.157677 0.715855
O O1 0.753416 0.193535 0.975918
O O2 0.853832 0.132955 0.111535
O O3 0.707894 0.038241 0.054592
O O4 0.867635 0.036661 0.960073
O O5 0.847489 0.254182 0.614063
O O6 0.867072 0.343616 0.765642
O O7 0.740823 0.201493 0.741851
O O8 0.918492 0.150743 0.740375
O O9 0.136804 0.652714 0.461375
O O10 0.289088 0.646736 0.554648
O O11 0.248730 0.550156 0.360041
O O12 0.072861 0.580245 0.318053
O O13 0.755242 0.950606 0.694408
O O14 0.623885 0.052489 0.764973
O O15 0.572573 0.919228 0.149975
O O16 0.568789 0.750082 0.231287
#
# Coordination Sequence:
#
# PCOD9366043 Si02
#       8
#     8   8   8   8   8   8   8   8
#     4   9  17  31  60  82 110 159 199 245 296 366
#     4  10  20  38  63  86 117 158 205 250 299 380
#     4   9  17  35  57  82 112 159 205 237 310 363
#     4  10  20  33  57  89 122 149 197 261 306 356
#     4   9  18  34  57  82 114 156 197 243 297 359
#     4  11  20  36  62  88 121 159 201 255 309 363
#     4   8  15  33  52  81 109 151 202 238 285 363
#     4  10  19  38  62  84 115 165 212 239 303 370
#
# _framework density 21.993359999999999
#
# number of rings (size 3 to 8) (size 9 to 14) (size 15 to 20)
#    0.000    2.500    5.000    0.750    1.750    0.500 
#    0.000   12.500    5.500    0.000    0.000    0.000 
#    0.000    0.000    0.000    0.000    0.000    0.000 
#
# Total GULP energy -178569.652688 kJ/mol
# GULP energy per Si atom -5580.301647 kJ/mol
# Density = 2.194330 g / cm^3
# Si number density = 21.993360 Si / 1000 Ang^3
#
#
#
# Elastic Constant Matrix: (Units=GPa)
#
#
# Indices 1 2 3 4 5 6 
#
# 1 39.9862 9.8747 6.8272 0.0000 0.0000 0.0000
# 2 9.8747 128.2773 29.6974 0.0000 0.0000 0.0000
# 3 6.8272 29.6974 67.4569 0.0000 0.0000 0.0000
# 4 0.0000 0.0000 0.0000 -4.2530 0.0000 0.0000
# 5 0.0000 0.0000 0.0000 0.0000 5.8107 0.0000
# 6 0.0000 0.0000 0.0000 0.0000 0.0000 25.8396
#
#
#
# Elastic Compliance Matrix: (Units=1/GPa)
#
#
# Indices 1 2 3 4 5 6 
#
# 1 0.025716 -0.001533 -0.001928 0.000000 0.000000 0.000000
# 2 -0.001533 0.008772 -0.003707 0.000000 0.000000 0.000000
# 3 -0.001928 -0.003707 0.016651 0.000000 0.000000 0.000000
# 4 0.000000 0.000000 0.000000 -0.235131 0.000000 0.000000
# 5 0.000000 0.000000 0.000000 0.000000 0.172097 0.000000
# 6 0.000000 0.000000 0.000000 0.000000 0.000000 0.038700
#
#
# Mechanical properties :
#
#
# Convention : Reuss Voigt Hill
#
# Bulk Modulus (GPa) = 27.17079 36.50213 31.83646
# Shear Modulus (GPa) = 93.61734 18.10086 55.85910
#
# Velocity S-wave (km/s) = 6.53135 2.87194 5.04513
# Velocity P-wave (km/s) = 8.32220 5.25645 6.96022
#
# Compressibility (1/GPa) = 0.03680423
#
# Stress axis : x y z
#
# Youngs Moduli (GPa) = 38.88562 114.00244 60.05594
#
# Poissons Ratio (x) = 0.17481 0.11577
# Poissons Ratio (y) = 0.05963 0.22260
# Poissons Ratio (z) = 0.07496 0.42255
#
# Static dielectric constant tensor:
#      x y z
#    x 1.794550 0.000000 0.000000 
#    y 0.000000 1.909650 0.000000 
#    z 0.000000 0.000000 1.836280 
# 
# From -- ./inp_files/10463.got.cif
#   From: 2010.05.17/outbox.cif.g08.bks.cpg/sg41_6_cif.got.tgz:10463.got - 2010.06.03 18:54:24.
