data_PCOD9366531
_publ_section_title
;
Structure prediction by ZEFSAII (Michael W. Deem and Ramdas Pophale) SiO2 
 PCOD9366531
Probable space group: A B A 2
;
_chemical_formula_sum "Si O2"
_cell_formula_units_Z 64
_cell_length_a 9.699960
_cell_length_b 14.805407
_cell_length_c 17.450038
_cell_angle_alpha 90.000000
_cell_angle_beta 90.000000
_cell_angle_gamma 90.000000
_cell_volume 2506.032339
_symmetry_space_group_name_H-M "A B A 2"
_symmetry_group_IT_number 41
_symmetry_cell_setting 'orthorhombic'
loop_
_space_group_symop_operation_xyz
x,y,z
-x,-y,z
1/2-x,y,1/2+z
1/2+x,-y,1/2+z
x,1/2+y,1/2+z
-x,1/2-y,1/2+z
1/2-x,1/2+y,z
1/2+x,1/2-y,z
loop_
_atom_site_type_symbol
_atom_site_label
_atom_site_fract_x
_atom_site_fract_y
_atom_site_fract_z
Si Si1 0.050294 0.101165 0.485720
Si Si2 0.693537 0.330362 0.030895
Si Si3 0.527436 0.284619 0.176234
Si Si4 0.801550 0.145734 0.845971
Si Si5 0.890998 0.915261 0.314539
Si Si6 0.755265 0.135201 0.516218
Si Si7 0.375125 0.667541 0.859127
Si Si8 0.253756 0.862340 0.182044
O O1 0.183855 0.098735 0.538000
O O2 0.078006 0.128388 0.398261
O O3 0.919579 0.153385 0.515522
O O4 0.000000 0.000000 0.480928
O O5 0.587685 0.329028 0.099280
O O6 0.789443 0.239928 0.020736
O O7 0.622143 0.348812 0.950361
O O8 0.572507 0.349675 0.245125
O O9 0.600896 0.188487 0.178900
O O10 0.363454 0.284476 0.180988
O O11 0.705326 0.236347 0.847815
O O12 0.751929 0.095942 0.767357
O O13 0.964299 0.165824 0.836901
O O14 0.780707 0.100297 0.930680
O O15 0.722467 0.908757 0.320110
O O16 0.000000 0.000000 0.309886
O O17 0.725969 0.090749 0.599391
#
# Coordination Sequence:
#
# PCOD9366531 Si02
#       8
#     8   8   8   8   8   8   8   8
#     4  10  22  44  67  94 129 183 225 276 346 424
#     4   9  22  34  64  93 132 163 222 275 340 392
#     4  11  22  38  60  92 130 164 210 272 332 388
#     4  11  21  35  62  97 133 164 219 275 341 390
#     4  10  22  40  64  86 126 176 225 255 336 408
#     4  10  23  35  65  95 133 166 225 276 332 398
#     4  10  21  35  61  96 123 170 215 275 328 401
#     4  11  23  35  61  95 128 163 212 279 333 387
#
# _framework density 25.538377000000001
#
# number of rings (size 3 to 8) (size 9 to 14) (size 15 to 20)
#    0.000    1.750    1.250    2.250   17.500    0.000 
#    2.250    0.000    0.000   10.500    0.000    0.000 
#    0.000    0.000    0.000    0.000    0.000    0.000 
#
# Total GULP energy -178468.841789 kJ/mol
# GULP energy per Si atom -5577.151306 kJ/mol
# Density = 2.548025 g / cm^3
# Si number density = 25.538377 Si / 1000 Ang^3
#
#
#
# Elastic Constant Matrix: (Units=GPa)
#
#
# Indices 1 2 3 4 5 6 
#
# 1 130.4777 0.2240 24.9644 0.0000 0.0000 0.0000
# 2 0.2240 41.3889 35.5206 0.0000 0.0000 0.0000
# 3 24.9644 35.5206 189.3329 0.0000 0.0000 0.0000
# 4 0.0000 0.0000 0.0000 8.9639 0.0000 0.0000
# 5 0.0000 0.0000 0.0000 0.0000 30.8631 0.0000
# 6 0.0000 0.0000 0.0000 0.0000 0.0000 9.8671
#
#
#
# Elastic Compliance Matrix: (Units=1/GPa)
#
#
# Indices 1 2 3 4 5 6 
#
# 1 0.007898 0.001014 -0.001232 0.000000 0.000000 0.000000
# 2 0.001014 0.028928 -0.005561 0.000000 0.000000 0.000000
# 3 -0.001232 -0.005561 0.006487 0.000000 0.000000 0.000000
# 4 0.000000 0.000000 0.000000 0.111558 0.000000 0.000000
# 5 0.000000 0.000000 0.000000 0.000000 0.032401 0.000000
# 6 0.000000 0.000000 0.000000 0.000000 0.000000 0.101346
#
#
# Mechanical properties :
#
#
# Convention : Reuss Voigt Hill
#
# Bulk Modulus (GPa) = 31.48919 53.62417 42.55668
# Shear Modulus (GPa) = 16.08950 29.97154 23.03052
#
# Velocity S-wave (km/s) = 2.51273 3.42948 3.00626
# Velocity P-wave (km/s) = 4.55799 6.06011 5.36191
#
# Compressibility (1/GPa) = 0.03175693
#
# Stress axis : x y z
#
# Youngs Moduli (GPa) = 126.61335 34.56851 154.14530
#
# Poissons Ratio (x) = -0.03506 0.18986
# Poissons Ratio (y) = -0.12843 0.85719
# Poissons Ratio (z) = 0.15595 0.19223
#
# Static dielectric constant tensor:
#      x y z
#    x 1.821380 0.000000 0.000000 
#    y 0.000000 2.405270 0.000000 
#    z 0.000000 0.000000 2.090550 
# 
# From -- ./inp_files/9846.got.cif
#   From: 2010.05.17/outbox.cif.g08.bks.cpg/sg41_5_cif.got.tgz:9846.got - 2010.06.03 18:54:24.
