data_PCOD9366649
_publ_section_title
;
Structure prediction by ZEFSAII (Michael W. Deem and Ramdas Pophale) SiO2 
 PCOD9366649
Probable space group: A B A 2
;
_chemical_formula_sum "Si O2"
_cell_formula_units_Z 56
_cell_length_a 13.566409
_cell_length_b 26.943172
_cell_length_c 5.739389
_cell_angle_alpha 90.000000
_cell_angle_beta 90.000000
_cell_angle_gamma 90.000000
_cell_volume 2097.873469
_symmetry_space_group_name_H-M "A B A 2"
_symmetry_group_IT_number 41
_symmetry_cell_setting 'orthorhombic'
loop_
_space_group_symop_operation_xyz
x,y,z
-x,-y,z
1/2-x,y,1/2+z
1/2+x,-y,1/2+z
x,1/2+y,1/2+z
-x,1/2-y,1/2+z
1/2-x,1/2+y,z
1/2+x,1/2-y,z
loop_
_atom_site_type_symbol
_atom_site_label
_atom_site_fract_x
_atom_site_fract_y
_atom_site_fract_z
Si Si1 0.807047 0.629434 0.739100
Si Si2 0.384634 0.188487 0.861341
Si Si3 0.782443 0.889902 0.867640
Si Si4 0.894942 0.025043 0.695531
Si Si5 0.000215 0.628587 0.218024
Si Si6 0.438387 0.290312 0.056969
Si Si7 0.890515 0.522621 0.696749
O O1 0.746415 0.627245 0.491896
O O2 0.868901 0.679766 0.731912
O O3 0.879531 0.582240 0.711187
O O4 0.450197 0.144760 0.976124
O O5 0.392171 0.236439 0.025457
O O6 0.277750 0.163128 0.842643
O O7 0.448271 0.208626 0.643783
O O8 0.751526 0.912211 0.615919
O O9 0.901190 0.885009 0.867932
O O10 0.849735 0.009195 0.450763
O O11 0.925982 0.082878 0.703424
O O12 0.849187 0.010528 0.941665
O O13 0.000000 0.000000 0.694439
O O14 0.944002 0.675500 0.327100
O O15 0.000000 0.500000 0.694152
#
# Coordination Sequence:
#
# PCOD9366649 Si02
#       7
#     8   8   8   8   8   8   8
#     4  12  28  45  70 107 150 191 244 307 366 436
#     4  11  24  41  66  98 141 185 246 289 350 430
#     4  10  22  39  62  96 132 170 215 291 336 394
#     4  10  21  38  71 106 130 179 235 282 347 438
#     4  11  22  40  69  97 137 181 230 291 361 426
#     4  12  24  42  68  97 136 197 244 287 363 437
#     4  10  21  43  74  99 134 183 234 288 359 428
#
# _framework density 26.693695999999999
#
# number of rings (size 3 to 8) (size 9 to 14) (size 15 to 20)
#    0.000    1.143    4.286    1.714    2.000    2.286 
#    0.000    0.000    0.000   48.000    0.000    0.000 
#    0.000    0.000    0.000    0.000    0.000    0.000 
#
# Total GULP energy -156384.079275 kJ/mol
# GULP energy per Si atom -5585.145688 kJ/mol
# Density = 2.663294 g / cm^3
# Si number density = 26.693696 Si / 1000 Ang^3
#
#
#
# Elastic Constant Matrix: (Units=GPa)
#
#
# Indices 1 2 3 4 5 6 
#
# 1 145.8862 27.2479 61.3427 0.0000 0.0000 0.0000
# 2 27.2479 61.3752 47.2679 0.0000 0.0000 0.0000
# 3 61.3427 47.2679 240.6406 0.0000 0.0000 0.0000
# 4 0.0000 0.0000 0.0000 4.5989 0.0000 0.0000
# 5 0.0000 0.0000 0.0000 0.0000 23.3436 0.0000
# 6 0.0000 0.0000 0.0000 0.0000 0.0000 34.5597
#
#
#
# Elastic Compliance Matrix: (Units=1/GPa)
#
#
# Indices 1 2 3 4 5 6 
#
# 1 0.007948 -0.002319 -0.001571 0.000000 0.000000 0.000000
# 2 -0.002319 0.019874 -0.003313 0.000000 0.000000 0.000000
# 3 -0.001571 -0.003313 0.005207 0.000000 0.000000 0.000000
# 4 0.000000 0.000000 0.000000 0.217444 0.000000 0.000000
# 5 0.000000 0.000000 0.000000 0.000000 0.042838 0.000000
# 6 0.000000 0.000000 0.000000 0.000000 0.000000 0.028935
#
#
# Mechanical properties :
#
#
# Convention : Reuss Voigt Hill
#
# Bulk Modulus (GPa) = 53.69329 79.95767 66.82548
# Shear Modulus (GPa) = 14.58323 33.30333 23.94328
#
# Velocity S-wave (km/s) = 2.33988 3.53598 2.99818
# Velocity P-wave (km/s) = 5.24007 6.83299 6.08884
#
# Compressibility (1/GPa) = 0.01862430
#
# Stress axis : x y z
#
# Youngs Moduli (GPa) = 125.81454 50.31704 192.06342
#
# Poissons Ratio (x) = 0.11669 0.30165
# Poissons Ratio (y) = 0.29177 0.63623
# Poissons Ratio (z) = 0.19760 0.16668
#
# Static dielectric constant tensor:
#      x y z
#    x 2.133420 0.000000 0.000000 
#    y 0.000000 2.208550 0.000000 
#    z 0.000000 0.000000 2.200080 
# 
# From -- ./inp_files/342.got.cif
#   From: 2010.05.17/outbox.cif.g08.bks.cpg/sg41_1_cif.got.tgz:342.got - 2010.06.03 18:54:24.
