data_PCOD9366106
_publ_section_title
;
Structure prediction by ZEFSAII (Michael W. Deem and Ramdas Pophale) SiO2 
 PCOD9366106
Probable space group: A B A 2
;
_chemical_formula_sum "Si O2"
_cell_formula_units_Z 48
_cell_length_a 11.806483
_cell_length_b 11.414303
_cell_length_c 15.934202
_cell_angle_alpha 90.000000
_cell_angle_beta 90.000000
_cell_angle_gamma 90.000000
_cell_volume 2147.337268
_symmetry_space_group_name_H-M "A B A 2"
_symmetry_group_IT_number 41
_symmetry_cell_setting 'orthorhombic'
loop_
_space_group_symop_operation_xyz
x,y,z
-x,-y,z
1/2-x,y,1/2+z
1/2+x,-y,1/2+z
x,1/2+y,1/2+z
-x,1/2-y,1/2+z
1/2-x,1/2+y,z
1/2+x,1/2-y,z
loop_
_atom_site_type_symbol
_atom_site_label
_atom_site_fract_x
_atom_site_fract_y
_atom_site_fract_z
Si Si1 0.796428 0.332173 0.524100
Si Si2 0.000000 0.000000 0.276956
Si Si3 0.451754 0.623751 0.556983
Si Si4 0.102852 0.318628 0.894141
Si Si5 0.000000 0.000000 0.976741
Si Si6 0.912072 0.272730 0.681699
Si Si7 0.457528 0.378852 0.819338
O O1 0.677656 0.394530 0.531734
O O2 0.795821 0.241451 0.446329
O O3 0.906635 0.417975 0.519264
O O4 0.814945 0.269653 0.612591
O O5 0.092384 0.934802 0.337435
O O6 0.942972 0.899206 0.220054
O O7 0.500000 0.500000 0.584514
O O8 0.515516 0.661286 0.471456
O O9 0.481374 0.716662 0.630312
O O10 0.057788 0.213900 0.835010
O O11 0.074217 0.920110 0.912654
O O12 0.875790 0.189391 0.758516
O O13 0.500000 0.500000 0.779950
#
# Coordination Sequence:
#
# PCOD9366106 Si02
#       7
#     8   4   8   8   4   8   8
#     4  10  21  41  65  98 127 173 224 271 343 398
#     4  10  19  42  65  90 142 164 218 274 329 408
#     4  11  23  43  67  97 133 172 231 281 337 400
#     4   9  19  40  65  93 125 173 218 274 324 397
#     4   8  17  38  65  94 122 166 216 274 331 400
#     4  10  21  39  64  93 129 173 215 273 337 403
#     4   8  16  35  65  87 129 158 217 274 324 400
#
# _framework density 22.353263999999999
#
# number of rings (size 3 to 8) (size 9 to 14) (size 15 to 20)
#    0.500    2.000    0.833    1.000    0.000    0.000 
#   24.000   11.667    3.667    0.000    0.000    0.000 
#    0.000    0.000    0.000    0.000    0.000    0.000 
#
# Total GULP energy -133622.078699 kJ/mol
# GULP energy per Si atom -5567.586612 kJ/mol
# Density = 2.230239 g / cm^3
# Si number density = 22.353264 Si / 1000 Ang^3
#
#
#
# Elastic Constant Matrix: (Units=GPa)
#
#
# Indices 1 2 3 4 5 6 
#
# 1 61.1070 19.9815 17.7653 0.0000 0.0000 0.0000
# 2 19.9815 143.3529 47.6008 0.0000 0.0000 0.0000
# 3 17.7653 47.6008 108.4370 0.0000 0.0000 0.0000
# 4 0.0000 0.0000 0.0000 65.3829 0.0000 0.0000
# 5 0.0000 0.0000 0.0000 0.0000 -7.4953 0.0000
# 6 0.0000 0.0000 0.0000 0.0000 0.0000 20.2578
#
#
#
# Elastic Compliance Matrix: (Units=1/GPa)
#
#
# Indices 1 2 3 4 5 6 
#
# 1 0.017549 -0.001746 -0.002109 0.000000 0.000000 0.000000
# 2 -0.001746 0.008340 -0.003375 0.000000 0.000000 0.000000
# 3 -0.002109 -0.003375 0.011049 0.000000 0.000000 0.000000
# 4 0.000000 0.000000 0.000000 0.015295 0.000000 0.000000
# 5 0.000000 0.000000 0.000000 0.000000 -0.133417 0.000000
# 6 0.000000 0.000000 0.000000 0.000000 0.000000 0.049364
#
#
# Mechanical properties :
#
#
# Convention : Reuss Voigt Hill
#
# Bulk Modulus (GPa) = 44.48688 53.73246 49.10967
# Shear Modulus (GPa) = -506.58207 30.79904 -237.89151
#
# Velocity S-wave (km/s) = -15.07042 3.71594 -10.32737
# Velocity P-wave (km/s) = 16.81899 6.51928 10.96306
#
# Compressibility (1/GPa) = 0.02247854
#
# Stress axis : x y z
#
# Youngs Moduli (GPa) = 56.98439 119.90703 90.50681
#
# Poissons Ratio (x) = 0.20934 0.19084
# Poissons Ratio (y) = 0.09949 0.30545
# Poissons Ratio (z) = 0.12016 0.40468
#
# Static dielectric constant tensor:
#      x y z
#    x 1.844700 0.000000 0.000000 
#    y 0.000000 1.697660 0.000000 
#    z 0.000000 0.000000 1.853820 
# 
# From -- ./inp_files/9991.got.cif
#   From: 2010.05.17/outbox.cif.g08.bks.cpg/sg41_5_cif.got.tgz:9991.got - 2010.06.03 18:54:24.
