data_PCOD9366619
_publ_section_title
;
Structure prediction by ZEFSAII (Michael W. Deem and Ramdas Pophale) SiO2 
 PCOD9366619
Probable space group: A B A 2
;
_chemical_formula_sum "Si O2"
_cell_formula_units_Z 60
_cell_length_a 30.479564
_cell_length_b 16.093982
_cell_length_c 5.356771
_cell_angle_alpha 90.000000
_cell_angle_beta 90.000000
_cell_angle_gamma 90.000000
_cell_volume 2627.697346
_symmetry_space_group_name_H-M "A B A 2"
_symmetry_group_IT_number 41
_symmetry_cell_setting 'orthorhombic'
loop_
_space_group_symop_operation_xyz
x,y,z
-x,-y,z
1/2-x,y,1/2+z
1/2+x,-y,1/2+z
x,1/2+y,1/2+z
-x,1/2-y,1/2+z
1/2-x,1/2+y,z
1/2+x,1/2-y,z
loop_
_atom_site_type_symbol
_atom_site_label
_atom_site_fract_x
_atom_site_fract_y
_atom_site_fract_z
Si Si1 0.644403 0.058367 0.323170
Si Si2 0.129410 0.303095 0.685133
Si Si3 0.069419 0.412899 0.940032
Si Si4 0.273507 0.104965 0.640166
Si Si5 0.761286 0.081336 0.631624
Si Si6 0.000000 0.000000 0.729046
Si Si7 0.137768 0.201298 0.178622
Si Si8 0.581466 0.940418 0.554966
O O1 0.651829 0.113300 0.572324
O O2 0.688199 0.056056 0.163095
O O3 0.623619 0.970771 0.395125
O O4 0.604775 0.097350 0.161605
O O5 0.080560 0.337657 0.754249
O O6 0.133085 0.243651 0.447795
O O7 0.146657 0.260688 0.938699
O O8 0.079502 0.498444 0.792512
O O9 0.022336 0.428958 0.059362
O O10 0.256847 0.133492 0.369853
O O11 0.267428 0.004122 0.631548
O O12 0.321793 0.137386 0.694898
O O13 0.752097 0.129067 0.379558
O O14 0.038017 0.040148 0.897867
O O15 0.092517 0.152773 0.125129
#
# Coordination Sequence:
#
# PCOD9366619 Si02
#       8
#     8   8   8   8   8   4   8   8
#     4  10  22  43  71  97 134 188 230 284 343 419
#     4  11  25  45  70  98 144 190 231 278 353 438
#     4  10  22  44  76 100 139 182 230 285 352 424
#     4  10  21  38  61  96 138 173 227 300 342 387
#     4  10  22  35  61  97 131 166 231 293 335 383
#     4  10  22  44  74 110 140 168 236 302 354 408
#     4  12  25  43  72 104 142 189 241 282 356 429
#     4  10  23  39  76 104 134 177 237 288 342 418
#
# _framework density 22.833682
#
# number of rings (size 3 to 8) (size 9 to 14) (size 15 to 20)
#    0.000    1.600    1.333    2.800   11.200    0.000 
#    0.000    4.000   11.733    0.000    0.000    0.000 
#    0.000    0.000    0.000    0.000    0.000    0.000 
#
# Total GULP energy -167530.564371 kJ/mol
# GULP energy per Si atom -5584.352146 kJ/mol
# Density = 2.278171 g / cm^3
# Si number density = 22.833682 Si / 1000 Ang^3
#
#
#
# Elastic Constant Matrix: (Units=GPa)
#
#
# Indices 1 2 3 4 5 6 
#
# 1 87.3507 20.9126 9.1127 0.0000 0.0000 0.0000
# 2 20.9126 47.2289 6.1296 0.0000 0.0000 0.0000
# 3 9.1127 6.1296 120.8236 0.0000 0.0000 0.0000
# 4 0.0000 0.0000 0.0000 28.0754 0.0000 0.0000
# 5 0.0000 0.0000 0.0000 0.0000 31.6917 0.0000
# 6 0.0000 0.0000 0.0000 0.0000 0.0000 14.8496
#
#
#
# Elastic Compliance Matrix: (Units=1/GPa)
#
#
# Indices 1 2 3 4 5 6 
#
# 1 0.012862 -0.005606 -0.000686 0.000000 0.000000 0.000000
# 2 -0.005606 0.023757 -0.000782 0.000000 0.000000 0.000000
# 3 -0.000686 -0.000782 0.008368 0.000000 0.000000 0.000000
# 4 0.000000 0.000000 0.000000 0.035618 0.000000 0.000000
# 5 0.000000 0.000000 0.000000 0.000000 0.031554 0.000000
# 6 0.000000 0.000000 0.000000 0.000000 0.000000 0.067342
#
#
# Mechanical properties :
#
#
# Convention : Reuss Voigt Hill
#
# Bulk Modulus (GPa) = 32.42680 36.41257 34.41969
# Shear Modulus (GPa) = 24.51834 29.53991 27.02912
#
# Velocity S-wave (km/s) = 3.28041 3.60070 3.44428
# Velocity P-wave (km/s) = 5.34605 5.76786 5.56096
#
# Compressibility (1/GPa) = 0.03083869
#
# Stress axis : x y z
#
# Youngs Moduli (GPa) = 77.74966 42.09221 119.50379
#
# Poissons Ratio (x) = 0.23597 0.08194
# Poissons Ratio (y) = 0.43587 0.09350
# Poissons Ratio (z) = 0.05331 0.03293
#
# Static dielectric constant tensor:
#      x y z
#    x 1.843230 0.000000 0.000000 
#    y 0.000000 1.893970 0.000000 
#    z 0.000000 0.000000 1.933470 
# 
# From -- ./inp_files/1192.got.cif
#   From: 2010.05.17/outbox.cif.g08.bks.cpg/sg41_1_cif.got.tgz:1192.got - 2010.06.03 18:54:24.
