data_PCOD9366898
_publ_section_title
;
Structure prediction by ZEFSAII (Michael W. Deem and Ramdas Pophale) SiO2 
 PCOD9366898
Probable space group: A B A 2
;
_chemical_formula_sum "Si O2"
_cell_formula_units_Z 32
_cell_length_a 13.574327
_cell_length_b 7.407284
_cell_length_c 12.329576
_cell_angle_alpha 90.000000
_cell_angle_beta 90.000000
_cell_angle_gamma 90.000000
_cell_volume 1239.725245
_symmetry_space_group_name_H-M "A B A 2"
_symmetry_group_IT_number 41
_symmetry_cell_setting 'orthorhombic'
loop_
_space_group_symop_operation_xyz
x,y,z
-x,-y,z
1/2-x,y,1/2+z
1/2+x,-y,1/2+z
x,1/2+y,1/2+z
-x,1/2-y,1/2+z
1/2-x,1/2+y,z
1/2+x,1/2-y,z
loop_
_atom_site_type_symbol
_atom_site_label
_atom_site_fract_x
_atom_site_fract_y
_atom_site_fract_z
Si Si1 0.377129 0.621090 0.601980
Si Si2 0.881837 0.017160 0.367452
Si Si3 0.439581 0.170868 0.488741
Si Si4 0.314074 0.745896 0.181285
O O1 0.343400 0.547040 0.484863
O O2 0.479631 0.710139 0.559865
O O3 0.301703 0.760986 0.655162
O O4 0.365814 0.443262 0.679051
O O5 0.883597 0.232168 0.389471
O O6 0.834176 0.879874 0.283820
O O7 0.000000 0.000000 0.351564
O O8 0.359880 0.136961 0.580318
O O9 0.500000 0.000000 0.450079
#
# Coordination Sequence:
#
# PCOD9366898 Si02
#       4
#     8   8   8   8
#     4  10  23  41  63  98 142 184 231 298 357 413
#     4   9  21  41  64  96 134 178 235 289 351 421
#     4  10  21  43  69  97 144 189 230 296 357 417
#     4  11  21  39  67  97 137 185 239 291 352 427
#
# _framework density 25.812172
#
# number of rings (size 3 to 8) (size 9 to 14) (size 15 to 20)
#    0.000    2.000    0.000    4.500    0.000    4.000 
#    0.000   25.000    0.000    0.000    0.000    0.000 
#    0.000    0.000    0.000    0.000    0.000    0.000 
#
# Total GULP energy -89109.211950 kJ/mol
# GULP energy per Si atom -5569.325747 kJ/mol
# Density = 2.575342 g / cm^3
# Si number density = 25.812172 Si / 1000 Ang^3
#
#
#
# Elastic Constant Matrix: (Units=GPa)
#
#
# Indices 1 2 3 4 5 6 
#
# 1 112.3030 43.8552 36.1711 0.0000 0.0000 0.0000
# 2 43.8552 159.4212 62.7952 0.0000 0.0000 0.0000
# 3 36.1711 62.7952 105.1305 0.0000 0.0000 0.0000
# 4 0.0000 0.0000 0.0000 43.2228 0.0000 0.0000
# 5 0.0000 0.0000 0.0000 0.0000 20.2407 0.0000
# 6 0.0000 0.0000 0.0000 0.0000 0.0000 33.9118
#
#
#
# Elastic Compliance Matrix: (Units=1/GPa)
#
#
# Indices 1 2 3 4 5 6 
#
# 1 0.010439 -0.001905 -0.002454 0.000000 0.000000 0.000000
# 2 -0.001905 0.008550 -0.004452 0.000000 0.000000 0.000000
# 3 -0.002454 -0.004452 0.013015 0.000000 0.000000 0.000000
# 4 0.000000 0.000000 0.000000 0.023136 0.000000 0.000000
# 5 0.000000 0.000000 0.000000 0.000000 0.049405 0.000000
# 6 0.000000 0.000000 0.000000 0.000000 0.000000 0.029488
#
#
# Mechanical properties :
#
#
# Convention : Reuss Voigt Hill
#
# Bulk Modulus (GPa) = 69.52457 73.61084 71.56770
# Shear Modulus (GPa) = 31.95932 35.07727 33.51830
#
# Velocity S-wave (km/s) = 3.52255 3.69038 3.60744
# Velocity P-wave (km/s) = 6.59832 6.83655 6.71849
#
# Compressibility (1/GPa) = 0.01438341
#
# Stress axis : x y z
#
# Youngs Moduli (GPa) = 95.79724 116.95554 76.83344
#
# Poissons Ratio (x) = 0.22282 0.18852
# Poissons Ratio (y) = 0.18251 0.34204
# Poissons Ratio (z) = 0.23505 0.52065
#
# Static dielectric constant tensor:
#      x y z
#    x 2.098240 0.000000 0.000000 
#    y 0.000000 2.222300 0.000000 
#    z 0.000000 0.000000 2.010480 
# 
# From -- ./inp_files/5797.got.cif
#   From: 2010.05.17/outbox.cif.g08.bks.cpg/sg41_3_cif.got.tgz:5797.got - 2010.06.03 18:54:24.
