data_PCOD9366173
_publ_section_title
;
Structure prediction by ZEFSAII (Michael W. Deem and Ramdas Pophale) SiO2 
 PCOD9366173
Probable space group: A B A 2
;
_chemical_formula_sum "Si O2"
_cell_formula_units_Z 60
_cell_length_a 29.275536
_cell_length_b 8.398544
_cell_length_c 10.930802
_cell_angle_alpha 90.000000
_cell_angle_beta 90.000000
_cell_angle_gamma 90.000000
_cell_volume 2687.576807
_symmetry_space_group_name_H-M "A B A 2"
_symmetry_group_IT_number 41
_symmetry_cell_setting 'orthorhombic'
loop_
_space_group_symop_operation_xyz
x,y,z
-x,-y,z
1/2-x,y,1/2+z
1/2+x,-y,1/2+z
x,1/2+y,1/2+z
-x,1/2-y,1/2+z
1/2-x,1/2+y,z
1/2+x,1/2-y,z
loop_
_atom_site_type_symbol
_atom_site_label
_atom_site_fract_x
_atom_site_fract_y
_atom_site_fract_z
Si Si1 0.410015 0.416774 0.292060
Si Si2 0.263290 0.759809 0.876916
Si Si3 0.188946 0.052953 0.260422
Si Si4 0.558180 0.256611 0.291314
Si Si5 0.909037 0.581819 0.062940
Si Si6 0.113009 0.752826 0.041031
Si Si7 0.700286 0.526327 0.000107
Si Si8 0.500000 0.000000 0.179637
O O1 0.363321 0.521745 0.291567
O O2 0.447735 0.554601 0.280450
O O3 0.411654 0.340675 0.428115
O O4 0.406745 0.309349 0.172291
O O5 0.287164 0.883639 0.788207
O O6 0.215305 0.689529 0.831020
O O7 0.295313 0.606537 0.894941
O O8 0.246232 0.867794 0.990775
O O9 0.197013 0.082277 0.119107
O O10 0.591921 0.197292 0.179821
O O11 0.579073 0.225352 0.425279
O O12 0.513095 0.151629 0.263334
O O13 0.874205 0.434270 0.056853
O O14 0.956476 0.488258 0.091631
O O15 0.156420 0.861925 0.009858
#
# Coordination Sequence:
#
# PCOD9366173 Si02
#       8
#     8   8   8   8   8   8   8   4
#     4  10  21  38  59  90 114 150 195 236 283 348
#     4  10  20  36  56  82 114 158 188 236 284 326
#     4  10  21  36  56  83 118 149 196 236 280 335
#     4   9  20  41  58  81 118 147 187 234 291 343
#     4   9  20  41  58  81 118 147 187 234 291 343
#     4  10  21  38  59  90 114 150 195 236 283 348
#     4  10  21  36  56  83 118 149 196 236 280 335
#     4   8  20  44  60  80 116 148 184 240 288 356
#
# _framework density 22.324943000000001
#
# number of rings (size 3 to 8) (size 9 to 14) (size 15 to 20)
#    0.800    1.600    0.000    2.400    0.000    5.333 
#    9.600    6.667    0.000    0.000    0.000    0.000 
#    0.000    0.000    0.000    0.000    0.000    0.000 
#
# Total GULP energy -167070.695811 kJ/mol
# GULP energy per Si atom -5569.023194 kJ/mol
# Density = 2.227413 g / cm^3
# Si number density = 22.324943 Si / 1000 Ang^3
#
#
#
# Elastic Constant Matrix: (Units=GPa)
#
#
# Indices 1 2 3 4 5 6 
#
# 1 34.7399 0.2933 8.4426 0.0000 0.0000 0.0000
# 2 0.2933 47.0317 17.4103 0.0000 0.0000 0.0000
# 3 8.4426 17.4103 133.5855 0.0000 0.0000 0.0000
# 4 0.0000 0.0000 0.0000 28.5222 0.0000 0.0000
# 5 0.0000 0.0000 0.0000 0.0000 24.6129 0.0000
# 6 0.0000 0.0000 0.0000 0.0000 0.0000 24.1279
#
#
#
# Elastic Compliance Matrix: (Units=1/GPa)
#
#
# Indices 1 2 3 4 5 6 
#
# 1 0.029247 0.000527 -0.001917 0.000000 0.000000 0.000000
# 2 0.000527 0.022350 -0.002946 0.000000 0.000000 0.000000
# 3 -0.001917 -0.002946 0.007991 0.000000 0.000000 0.000000
# 4 0.000000 0.000000 0.000000 0.035060 0.000000 0.000000
# 5 0.000000 0.000000 0.000000 0.000000 0.040629 0.000000
# 6 0.000000 0.000000 0.000000 0.000000 0.000000 0.041446
#
#
# Mechanical properties :
#
#
# Convention : Reuss Voigt Hill
#
# Bulk Modulus (GPa) = 19.64043 29.73883 24.68963
# Shear Modulus (GPa) = 24.70765 28.06666 26.38716
#
# Velocity S-wave (km/s) = 3.33036 3.54953 3.44169
# Velocity P-wave (km/s) = 4.85850 5.49078 5.18429
#
# Compressibility (1/GPa) = 0.05091539
#
# Stress axis : x y z
#
# Youngs Moduli (GPa) = 34.19179 44.74358 125.14116
#
# Poissons Ratio (x) = -0.02359 0.23991
# Poissons Ratio (y) = -0.01803 0.36869
# Poissons Ratio (z) = 0.06555 0.13182
#
# Static dielectric constant tensor:
#      x y z
#    x 1.882530 0.000000 0.000000 
#    y 0.000000 1.850980 0.000000 
#    z 0.000000 0.000000 1.841220 
# 
# From -- ./inp_files/6647.got.cif
#   From: 2010.05.17/outbox.cif.g08.bks.cpg/sg41_4_cif.got.tgz:6647.got - 2010.06.03 18:54:24.
