data_PCOD9366899
_publ_section_title
;
Structure prediction by ZEFSAII (Michael W. Deem and Ramdas Pophale) SiO2 
 PCOD9366899
Probable space group: A B A 2
;
_chemical_formula_sum "Si O2"
_cell_formula_units_Z 52
_cell_length_a 10.017009
_cell_length_b 22.376633
_cell_length_c 9.007593
_cell_angle_alpha 90.000000
_cell_angle_beta 90.000000
_cell_angle_gamma 90.000000
_cell_volume 2019.024355
_symmetry_space_group_name_H-M "A B A 2"
_symmetry_group_IT_number 41
_symmetry_cell_setting 'orthorhombic'
loop_
_space_group_symop_operation_xyz
x,y,z
-x,-y,z
1/2-x,y,1/2+z
1/2+x,-y,1/2+z
x,1/2+y,1/2+z
-x,1/2-y,1/2+z
1/2-x,1/2+y,z
1/2+x,1/2-y,z
loop_
_atom_site_type_symbol
_atom_site_label
_atom_site_fract_x
_atom_site_fract_y
_atom_site_fract_z
Si Si1 0.923764 0.778362 0.914180
Si Si2 0.076756 0.121084 0.433743
Si Si3 0.698229 0.110652 0.017537
Si Si4 0.288625 0.974242 0.260406
Si Si5 0.336391 0.612370 0.769636
Si Si6 0.319039 0.768432 0.597857
Si Si7 0.000000 0.000000 0.282014
O O1 0.074079 0.855202 0.440070
O O2 0.931784 0.849408 0.876217
O O3 0.873950 0.752111 0.756502
O O4 0.814390 0.764106 0.040207
O O5 0.189849 0.137519 0.315883
O O6 0.136880 0.124808 0.597629
O O7 0.048691 0.052970 0.386334
O O8 0.637255 0.065102 0.138518
O O9 0.772098 0.068662 0.900885
O O10 0.567154 0.241935 0.473850
O O11 0.785464 0.160985 0.096200
O O12 0.135212 0.981958 0.198835
O O13 0.340750 0.040681 0.292174
#
# Coordination Sequence:
#
# PCOD9366899 Si02
#       7
#     8   8   8   8   8   8   4
#     4  12  29  51  80 114 147 208 255 329 377 461
#     4  10  22  41  69  99 152 187 245 293 371 440
#     4  11  25  47  72 109 145 203 239 311 376 462
#     4  10  21  43  70 106 151 191 239 303 378 453
#     4  11  23  43  74 110 144 195 245 305 370 451
#     4  12  29  54  80 110 155 199 268 315 391 453
#     4   8  18  40  62 104 144 198 230 294 366 448
#
# _framework density 25.755013999999999
#
# number of rings (size 3 to 8) (size 9 to 14) (size 15 to 20)
#    0.000    1.231    0.000    5.538    8.615    0.000 
#   22.154    0.000    0.000    0.000    0.000    0.000 
#    0.000    0.000    0.000    0.000    0.000    0.000 
#
# Total GULP energy -145579.694248 kJ/mol
# GULP energy per Si atom -5599.219010 kJ/mol
# Density = 2.569639 g / cm^3
# Si number density = 25.755014 Si / 1000 Ang^3
#
#
#
# Elastic Constant Matrix: (Units=GPa)
#
#
# Indices 1 2 3 4 5 6 
#
# 1 87.0611 13.1522 33.9216 0.0000 0.0000 0.0000
# 2 13.1522 123.5328 21.1976 0.0000 0.0000 0.0000
# 3 33.9216 21.1976 102.6963 0.0000 0.0000 0.0000
# 4 0.0000 0.0000 0.0000 38.7335 0.0000 0.0000
# 5 0.0000 0.0000 0.0000 0.0000 40.1160 0.0000
# 6 0.0000 0.0000 0.0000 0.0000 0.0000 31.9847
#
#
#
# Elastic Compliance Matrix: (Units=1/GPa)
#
#
# Indices 1 2 3 4 5 6 
#
# 1 0.013238 -0.000683 -0.004232 0.000000 0.000000 0.000000
# 2 -0.000683 0.008428 -0.001514 0.000000 0.000000 0.000000
# 3 -0.004232 -0.001514 0.011448 0.000000 0.000000 0.000000
# 4 0.000000 0.000000 0.000000 0.025817 0.000000 0.000000
# 5 0.000000 0.000000 0.000000 0.000000 0.024928 0.000000
# 6 0.000000 0.000000 0.000000 0.000000 0.000000 0.031265
#
#
# Mechanical properties :
#
#
# Convention : Reuss Voigt Hill
#
# Bulk Modulus (GPa) = 49.36857 49.98146 49.67501
# Shear Modulus (GPa) = 37.11043 38.50143 37.80593
#
# Velocity S-wave (km/s) = 3.80004 3.87060 3.83548
# Velocity P-wave (km/s) = 6.20192 6.27886 6.24051
#
# Compressibility (1/GPa) = 0.02025580
#
# Stress axis : x y z
#
# Youngs Moduli (GPa) = 75.53895 118.65873 87.35389
#
# Poissons Ratio (x) = 0.08108 0.36965
# Poissons Ratio (y) = 0.05162 0.13224
# Poissons Ratio (z) = 0.31966 0.17963
#
# Static dielectric constant tensor:
#      x y z
#    x 2.070460 0.000000 0.000000 
#    y 0.000000 2.077520 0.000000 
#    z 0.000000 0.000000 1.943520 
# 
# From -- ./inp_files/2745.got.cif
#   From: 2010.05.17/outbox.cif.g08.bks.cpg/sg41_2_cif.got.tgz:2745.got - 2010.06.03 18:54:24.
