data_PCOD9366607
_publ_section_title
;
Structure prediction by ZEFSAII (Michael W. Deem and Ramdas Pophale) SiO2 
 PCOD9366607
Probable space group: A B A 2
;
_chemical_formula_sum "Si O2"
_cell_formula_units_Z 52
_cell_length_a 16.464250
_cell_length_b 16.284847
_cell_length_c 9.689413
_cell_angle_alpha 90.000000
_cell_angle_beta 90.000000
_cell_angle_gamma 90.000000
_cell_volume 2597.904021
_symmetry_space_group_name_H-M "A B A 2"
_symmetry_group_IT_number 41
_symmetry_cell_setting 'orthorhombic'
loop_
_space_group_symop_operation_xyz
x,y,z
-x,-y,z
1/2-x,y,1/2+z
1/2+x,-y,1/2+z
x,1/2+y,1/2+z
-x,1/2-y,1/2+z
1/2-x,1/2+y,z
1/2+x,1/2-y,z
loop_
_atom_site_type_symbol
_atom_site_label
_atom_site_fract_x
_atom_site_fract_y
_atom_site_fract_z
Si Si1 0.713539 0.618457 0.842280
Si Si2 0.912525 0.755397 0.352413
Si Si3 0.236960 0.651031 0.959587
Si Si4 0.188047 0.232432 0.721373
Si Si5 0.184757 0.978044 0.563887
Si Si6 0.000000 0.000000 0.577575
Si Si7 0.011769 0.191947 0.614151
O O1 0.634981 0.670960 0.889599
O O2 0.777087 0.683513 0.779042
O O3 0.688806 0.554104 0.721730
O O4 0.760981 0.580246 0.969488
O O5 0.845430 0.825623 0.376002
O O6 0.985457 0.782922 0.453209
O O7 0.942338 0.737502 0.198972
O O8 0.242692 0.713112 0.087216
O O9 0.225230 0.565680 0.035431
O O10 0.303720 0.665375 0.843790
O O11 0.096898 0.227461 0.668938
O O12 0.090558 0.985823 0.515077
O O13 0.010994 0.093152 0.639997
#
# Coordination Sequence:
#
# PCOD9366607 Si02
#       7
#     8   8   8   8   8   4   8
#     4  11  24  40  66  93 129 169 218 261 319 386
#     4  10  22  41  61  93 123 169 212 260 315 392
#     4  10  21  38  60  86 124 158 212 249 309 370
#     4  10  21  39  59  91 122 164 210 258 305 381
#     4  12  23  41  65  94 128 167 213 263 322 384
#     4  12  24  42  64  94 124 176 196 268 334 384
#     4  11  23  40  65  89 128 161 213 257 325 375
#
# _framework density 20.016134999999998
#
# number of rings (size 3 to 8) (size 9 to 14) (size 15 to 20)
#    0.000    1.231    4.615    3.692    2.154    2.462 
#    0.000    0.000    0.000    1.846    0.000    0.000 
#    0.000    0.000    0.000    0.000    0.000    0.000 
#
# Total GULP energy -144791.365834 kJ/mol
# GULP energy per Si atom -5568.898686 kJ/mol
# Density = 1.997058 g / cm^3
# Si number density = 20.016135 Si / 1000 Ang^3
#
#
#
# Elastic Constant Matrix: (Units=GPa)
#
#
# Indices 1 2 3 4 5 6 
#
# 1 29.3418 -3.0637 -5.0927 0.0000 0.0000 0.0000
# 2 -3.0637 85.7044 13.9787 0.0000 0.0000 0.0000
# 3 -5.0927 13.9787 43.5920 0.0000 0.0000 0.0000
# 4 0.0000 0.0000 0.0000 33.6837 0.0000 0.0000
# 5 0.0000 0.0000 0.0000 0.0000 29.2247 0.0000
# 6 0.0000 0.0000 0.0000 0.0000 0.0000 30.9779
#
#
#
# Elastic Compliance Matrix: (Units=1/GPa)
#
#
# Indices 1 2 3 4 5 6 
#
# 1 0.034817 0.000613 0.003871 0.000000 0.000000 0.000000
# 2 0.000613 0.012323 -0.003880 0.000000 0.000000 0.000000
# 3 0.003871 -0.003880 0.024636 0.000000 0.000000 0.000000
# 4 0.000000 0.000000 0.000000 0.029688 0.000000 0.000000
# 5 0.000000 0.000000 0.000000 0.000000 0.034218 0.000000
# 6 0.000000 0.000000 0.000000 0.000000 0.000000 0.032281
#
#
# Mechanical properties :
#
#
# Convention : Reuss Voigt Hill
#
# Bulk Modulus (GPa) = 13.70153 18.92031 16.31092
# Shear Modulus (GPa) = 26.16672 28.96500 27.56586
#
# Velocity S-wave (km/s) = 3.61956 3.80818 3.71507
# Velocity P-wave (km/s) = 4.93238 5.36744 5.15450
#
# Compressibility (1/GPa) = 0.07298456
#
# Stress axis : x y z
#
# Youngs Moduli (GPa) = 28.72164 81.15064 40.59041
#
# Poissons Ratio (x) = -0.04977 -0.15712
# Poissons Ratio (y) = -0.01761 0.15749
# Poissons Ratio (z) = -0.11118 0.31486
#
# Static dielectric constant tensor:
#      x y z
#    x 1.740360 0.000000 0.000000 
#    y 0.000000 1.761900 0.000000 
#    z 0.000000 0.000000 1.773780 
# 
# From -- ./inp_files/3120.got.cif
#   From: 2010.05.17/outbox.cif.g08.bks.cpg/sg41_2_cif.got.tgz:3120.got - 2010.06.03 18:54:24.
