data_PCOD9366091
_publ_section_title
;
Structure prediction by ZEFSAII (Michael W. Deem and Ramdas Pophale) SiO2 
 PCOD9366091
Probable space group: A B A 2
;
_chemical_formula_sum "Si O2"
_cell_formula_units_Z 56
_cell_length_a 29.949031
_cell_length_b 14.108350
_cell_length_c 5.451260
_cell_angle_alpha 90.000000
_cell_angle_beta 90.000000
_cell_angle_gamma 90.000000
_cell_volume 2303.328582
_symmetry_space_group_name_H-M "A B A 2"
_symmetry_group_IT_number 41
_symmetry_cell_setting 'orthorhombic'
loop_
_space_group_symop_operation_xyz
x,y,z
-x,-y,z
1/2-x,y,1/2+z
1/2+x,-y,1/2+z
x,1/2+y,1/2+z
-x,1/2-y,1/2+z
1/2-x,1/2+y,z
1/2+x,1/2-y,z
loop_
_atom_site_type_symbol
_atom_site_label
_atom_site_fract_x
_atom_site_fract_y
_atom_site_fract_z
Si Si1 0.511656 0.194625 0.322850
Si Si2 0.851881 0.827382 0.192123
Si Si3 0.760250 0.533777 0.379743
Si Si4 0.605209 0.709924 0.049059
Si Si5 0.575904 0.384745 0.880865
Si Si6 0.644097 0.525607 0.064014
Si Si7 0.725515 0.245172 0.889617
O O1 0.494704 0.265264 0.545517
O O2 0.562640 0.174833 0.391449
O O3 0.476849 0.107771 0.358173
O O4 0.852459 0.748193 0.396113
O O5 0.904890 0.838475 0.131335
O O6 0.822034 0.789651 0.966644
O O7 0.841090 0.937626 0.237414
O O8 0.746100 0.481857 0.625846
O O9 0.812369 0.554546 0.413796
O O10 0.730252 0.629907 0.380896
O O11 0.622169 0.616536 0.189916
O O12 0.589277 0.802553 0.192086
O O13 0.607451 0.476727 0.882230
O O14 0.744048 0.273033 0.624353
#
# Coordination Sequence:
#
# PCOD9366091 Si02
#       7
#     8   8   8   8   8   8   8
#     4  10  19  40  67  97 135 179 223 271 342 402
#     4  10  23  42  61  97 131 166 229 272 332 398
#     4  10  22  39  60  91 126 167 222 270 331 402
#     4  11  21  42  71  90 139 181 212 283 337 399
#     4   9  23  41  61 100 130 169 225 274 328 402
#     4  10  24  42  63 103 125 174 230 271 338 407
#     4  10  22  38  64  89 127 175 217 277 336 391
#
# _framework density 24.312642
#
# number of rings (size 3 to 8) (size 9 to 14) (size 15 to 20)
#    0.857    1.143    1.429    1.714    6.000    2.857 
#    2.571    0.000    0.000    3.429    0.000    0.000 
#    0.000    0.000    0.000    0.000    0.000    0.000 
#
# Total GULP energy -155877.004798 kJ/mol
# GULP energy per Si atom -5567.035886 kJ/mol
# Density = 2.425730 g / cm^3
# Si number density = 24.312642 Si / 1000 Ang^3
#
#
#
# Elastic Constant Matrix: (Units=GPa)
#
#
# Indices 1 2 3 4 5 6 
#
# 1 74.9096 51.6092 10.9879 0.0000 0.0000 0.0000
# 2 51.6092 102.4393 27.6714 0.0000 0.0000 0.0000
# 3 10.9879 27.6714 99.5595 0.0000 0.0000 0.0000
# 4 0.0000 0.0000 0.0000 7.9765 0.0000 0.0000
# 5 0.0000 0.0000 0.0000 0.0000 29.1697 0.0000
# 6 0.0000 0.0000 0.0000 0.0000 0.0000 28.7700
#
#
#
# Elastic Compliance Matrix: (Units=1/GPa)
#
#
# Indices 1 2 3 4 5 6 
#
# 1 0.020486 -0.010498 0.000657 0.000000 0.000000 0.000000
# 2 -0.010498 0.015934 -0.003270 0.000000 0.000000 0.000000
# 3 0.000657 -0.003270 0.010881 0.000000 0.000000 0.000000
# 4 0.000000 0.000000 0.000000 0.125368 0.000000 0.000000
# 5 0.000000 0.000000 0.000000 0.000000 0.034282 0.000000
# 6 0.000000 0.000000 0.000000 0.000000 0.000000 0.034758
#
#
# Mechanical properties :
#
#
# Convention : Reuss Voigt Hill
#
# Bulk Modulus (GPa) = 47.44305 50.82726 49.13516
# Shear Modulus (GPa) = 18.18458 25.62588 21.90523
#
# Velocity S-wave (km/s) = 2.73783 3.25008 3.00489
# Velocity P-wave (km/s) = 5.43603 5.91905 5.68267
#
# Compressibility (1/GPa) = 0.02107790
#
# Stress axis : x y z
#
# Youngs Moduli (GPa) = 48.81401 62.75764 91.90646
#
# Poissons Ratio (x) = 0.65885 -0.06038
# Poissons Ratio (y) = 0.51247 0.30054
# Poissons Ratio (z) = -0.03207 0.20522
#
# Static dielectric constant tensor:
#      x y z
#    x 1.982970 0.000000 0.000000 
#    y 0.000000 1.963100 0.000000 
#    z 0.000000 0.000000 2.029320 
# 
# From -- ./inp_files/1346.got.cif
#   From: 2010.05.17/outbox.cif.g08.bks.cpg/sg41_1_cif.got.tgz:1346.got - 2010.06.03 18:54:24.
