data_PCOD9366082
_publ_section_title
;
Structure prediction by ZEFSAII (Michael W. Deem and Ramdas Pophale) SiO2 
 PCOD9366082
Probable space group: A B A 2
;
_chemical_formula_sum "Si O2"
_cell_formula_units_Z 56
_cell_length_a 13.612727
_cell_length_b 13.335945
_cell_length_c 12.980920
_cell_angle_alpha 90.000000
_cell_angle_beta 90.000000
_cell_angle_gamma 90.000000
_cell_volume 2356.537765
_symmetry_space_group_name_H-M "A B A 2"
_symmetry_group_IT_number 41
_symmetry_cell_setting 'orthorhombic'
loop_
_space_group_symop_operation_xyz
x,y,z
-x,-y,z
1/2-x,y,1/2+z
1/2+x,-y,1/2+z
x,1/2+y,1/2+z
-x,1/2-y,1/2+z
1/2-x,1/2+y,z
1/2+x,1/2-y,z
loop_
_atom_site_type_symbol
_atom_site_label
_atom_site_fract_x
_atom_site_fract_y
_atom_site_fract_z
Si Si1 0.205421 0.273699 0.066860
Si Si2 0.390328 0.340714 0.372302
Si Si3 0.785842 0.959642 0.319313
Si Si4 0.446875 0.176057 0.715672
Si Si5 0.500000 0.000000 0.023056
Si Si6 0.669894 0.393640 0.653486
Si Si7 0.000000 0.000000 0.060051
Si Si8 0.208751 0.488276 0.525537
O O1 0.117881 0.254966 0.149567
O O2 0.300899 0.213720 0.108591
O O3 0.162362 0.261935 0.949960
O O4 0.242828 0.385462 0.055166
O O5 0.317704 0.420958 0.313242
O O6 0.462454 0.290911 0.288157
O O7 0.452320 0.414878 0.449028
O O8 0.873939 0.884895 0.290943
O O9 0.682282 0.919777 0.272473
O O10 0.769908 0.953812 0.441399
O O11 0.488749 0.096209 0.633666
O O12 0.579713 0.946040 0.097468
O O13 0.776153 0.447785 0.627356
O O14 0.902892 0.017597 0.995652
#
# Coordination Sequence:
#
# PCOD9366082 Si02
#       8
#     8   8   8   8   4   8   4   8
#     4  10  24  40  68 106 146 174 236 306 348 400
#     4  11  19  41  73 104 132 195 242 274 351 440
#     4  10  19  39  70  94 138 192 230 276 360 414
#     4  11  19  41  73 104 132 195 242 274 351 440
#     4  12  21  39  76  92 140 192 237 281 358 422
#     4  11  22  43  66  98 142 181 231 298 347 415
#     4  12  21  39  76  92 140 192 237 281 358 422
#     4  11  22  43  66  98 142 181 231 298 347 415
#
# _framework density 23.763677000000001
#
# number of rings (size 3 to 8) (size 9 to 14) (size 15 to 20)
#    0.000    1.143    8.571    0.000    0.000    1.714 
#    0.000   15.714    0.000    0.000    0.000    0.000 
#    0.000    0.000    0.000    0.000    0.000    0.000 
#
# Total GULP energy -156057.638551 kJ/mol
# GULP energy per Si atom -5573.487091 kJ/mol
# Density = 2.370959 g / cm^3
# Si number density = 23.763677 Si / 1000 Ang^3
#
#
#
# Elastic Constant Matrix: (Units=GPa)
#
#
# Indices 1 2 3 4 5 6 
#
# 1 71.7806 18.3496 39.2263 0.0000 0.0000 0.0000
# 2 18.3496 58.1591 45.5891 0.0000 0.0000 0.0000
# 3 39.2263 45.5891 82.5031 0.0000 0.0000 0.0000
# 4 0.0000 0.0000 0.0000 13.1536 0.0000 0.0000
# 5 0.0000 0.0000 0.0000 0.0000 5.4536 0.0000
# 6 0.0000 0.0000 0.0000 0.0000 0.0000 28.1559
#
#
#
# Elastic Compliance Matrix: (Units=1/GPa)
#
#
# Indices 1 2 3 4 5 6 
#
# 1 0.018941 0.001911 -0.010062 0.000000 0.000000 0.000000
# 2 0.001911 0.030525 -0.017776 0.000000 0.000000 0.000000
# 3 -0.010062 -0.017776 0.026727 0.000000 0.000000 0.000000
# 4 0.000000 0.000000 0.000000 0.076025 0.000000 0.000000
# 5 0.000000 0.000000 0.000000 0.000000 0.183365 0.000000
# 6 0.000000 0.000000 0.000000 0.000000 0.000000 0.035516
#
#
# Mechanical properties :
#
#
# Convention : Reuss Voigt Hill
#
# Bulk Modulus (GPa) = 41.08423 46.53031 43.80727
# Shear Modulus (GPa) = 11.59913 16.63782 14.11847
#
# Velocity S-wave (km/s) = 2.21170 2.64888 2.44010
# Velocity P-wave (km/s) = 4.88348 5.38316 5.13939
#
# Compressibility (1/GPa) = 0.02434024
#
# Stress axis : x y z
#
# Youngs Moduli (GPa) = 52.79490 32.75956 37.41517
#
# Poissons Ratio (x) = -0.06260 0.37645
# Poissons Ratio (y) = -0.10088 0.66509
# Poissons Ratio (z) = 0.53120 0.58234
#
# Static dielectric constant tensor:
#      x y z
#    x 2.026890 0.000000 0.000000 
#    y 0.000000 2.035250 0.000000 
#    z 0.000000 0.000000 1.913530 
# 
# From -- ./inp_files/5642.got.cif
#   From: 2010.05.17/outbox.cif.g08.bks.cpg/sg41_3_cif.got.tgz:5642.got - 2010.06.03 18:54:24.
