data_PCOD9366573
_publ_section_title
;
Structure prediction by ZEFSAII (Michael W. Deem and Ramdas Pophale) SiO2 
 PCOD9366573
Probable space group: A B A 2
;
_chemical_formula_sum "Si O2"
_cell_formula_units_Z 60
_cell_length_a 14.210336
_cell_length_b 25.190342
_cell_length_c 8.550155
_cell_angle_alpha 90.000000
_cell_angle_beta 90.000000
_cell_angle_gamma 90.000000
_cell_volume 3060.641048
_symmetry_space_group_name_H-M "A B A 2"
_symmetry_group_IT_number 41
_symmetry_cell_setting 'orthorhombic'
loop_
_space_group_symop_operation_xyz
x,y,z
-x,-y,z
1/2-x,y,1/2+z
1/2+x,-y,1/2+z
x,1/2+y,1/2+z
-x,1/2-y,1/2+z
1/2-x,1/2+y,z
1/2+x,1/2-y,z
loop_
_atom_site_type_symbol
_atom_site_label
_atom_site_fract_x
_atom_site_fract_y
_atom_site_fract_z
Si Si1 0.345241 0.456455 0.512360
Si Si2 0.135263 0.574792 0.608133
Si Si3 0.647183 0.666504 0.563677
Si Si4 0.000000 0.500000 0.802633
Si Si5 0.333802 0.793834 0.712911
Si Si6 0.202150 0.025387 0.800068
Si Si7 0.980571 0.285143 0.233703
Si Si8 0.518791 0.320557 0.091200
O O1 0.326295 0.395216 0.547326
O O2 0.440187 0.461571 0.413363
O O3 0.266094 0.485142 0.404834
O O4 0.351351 0.489834 0.672667
O O5 0.144545 0.558482 0.427072
O O6 0.233400 0.565581 0.698481
O O7 0.088823 0.631993 0.623391
O O8 0.067899 0.533329 0.693696
O O9 0.651108 0.693758 0.394592
O O10 0.727757 0.694873 0.666034
O O11 0.543012 0.673504 0.636566
O O12 0.377007 0.735045 0.678509
O O13 0.407936 0.832437 0.622717
O O14 0.974279 0.302112 0.412355
O O15 0.036177 0.229481 0.205547
#
# Coordination Sequence:
#
# PCOD9366573 Si02
#       8
#     8   8   8   4   8   8   8   8
#     4  10  21  37  61  92 121 161 201 258 313 375
#     4  10  21  41  63  86 124 169 204 260 321 375
#     4  12  21  38  67  87 121 165 204 247 329 368
#     4  10  22  36  60  90 128 160 204 264 316 374
#     4  10  22  38  58  90 121 153 205 260 295 375
#     4   9  21  41  59  91 128 153 213 262 297 382
#     4  10  22  42  58  89 126 153 207 266 293 381
#     4  10  21  42  60  85 123 161 204 254 316 362
#
# _framework density 19.603736999999999
#
# number of rings (size 3 to 8) (size 9 to 14) (size 15 to 20)
#    0.800    1.067    1.333    2.400    0.000    4.800 
#    2.400    4.000    0.000    0.000    0.000    0.000 
#    0.000    0.000    0.000    0.000    0.000    0.000 
#
# Total GULP energy -167192.103484 kJ/mol
# GULP energy per Si atom -5573.070116 kJ/mol
# Density = 1.955912 g / cm^3
# Si number density = 19.603737 Si / 1000 Ang^3
#
#
#
# Elastic Constant Matrix: (Units=GPa)
#
#
# Indices 1 2 3 4 5 6 
#
# 1 33.8447 1.3187 14.1584 0.0000 0.0000 0.0000
# 2 1.3187 55.5962 13.1808 0.0000 0.0000 0.0000
# 3 14.1584 13.1808 87.2414 0.0000 0.0000 0.0000
# 4 0.0000 0.0000 0.0000 13.1854 0.0000 0.0000
# 5 0.0000 0.0000 0.0000 0.0000 18.0917 0.0000
# 6 0.0000 0.0000 0.0000 0.0000 0.0000 21.3145
#
#
#
# Elastic Compliance Matrix: (Units=1/GPa)
#
#
# Indices 1 2 3 4 5 6 
#
# 1 0.031711 0.000485 -0.005220 0.000000 0.000000 0.000000
# 2 0.000485 0.018662 -0.002898 0.000000 0.000000 0.000000
# 3 -0.005220 -0.002898 0.012747 0.000000 0.000000 0.000000
# 4 0.000000 0.000000 0.000000 0.075841 0.000000 0.000000
# 5 0.000000 0.000000 0.000000 0.000000 0.055274 0.000000
# 6 0.000000 0.000000 0.000000 0.000000 0.000000 0.046917
#
#
# Mechanical properties :
#
#
# Convention : Reuss Voigt Hill
#
# Bulk Modulus (GPa) = 20.89613 25.99979 23.44796
# Shear Modulus (GPa) = 18.35735 20.38662 19.37198
#
# Velocity S-wave (km/s) = 3.06342 3.22830 3.14694
# Velocity P-wave (km/s) = 4.81613 5.21415 5.01909
#
# Compressibility (1/GPa) = 0.04785574
#
# Stress axis : x y z
#
# Youngs Moduli (GPa) = 31.53439 53.58350 78.44702
#
# Poissons Ratio (x) = -0.02601 0.40947
# Poissons Ratio (y) = -0.01531 0.22737
# Poissons Ratio (z) = 0.16460 0.15530
#
# Static dielectric constant tensor:
#      x y z
#    x 1.755920 0.000000 0.000000 
#    y 0.000000 1.687040 0.000000 
#    z 0.000000 0.000000 1.671580 
# 
# From -- ./inp_files/2774.got.cif
#   From: 2010.05.17/outbox.cif.g08.bks.cpg/sg41_2_cif.got.tgz:2774.got - 2010.06.03 18:54:24.
