data_PCOD9366058
_publ_section_title
;
Structure prediction by ZEFSAII (Michael W. Deem and Ramdas Pophale) SiO2 
 PCOD9366058
Probable space group: A B A 2
;
_chemical_formula_sum "Si O2"
_cell_formula_units_Z 60
_cell_length_a 15.378954
_cell_length_b 11.780373
_cell_length_c 17.477184
_cell_angle_alpha 90.000000
_cell_angle_beta 90.000000
_cell_angle_gamma 90.000000
_cell_volume 3166.338183
_symmetry_space_group_name_H-M "A B A 2"
_symmetry_group_IT_number 41
_symmetry_cell_setting 'orthorhombic'
loop_
_space_group_symop_operation_xyz
x,y,z
-x,-y,z
1/2-x,y,1/2+z
1/2+x,-y,1/2+z
x,1/2+y,1/2+z
-x,1/2-y,1/2+z
1/2-x,1/2+y,z
1/2+x,1/2-y,z
loop_
_atom_site_type_symbol
_atom_site_label
_atom_site_fract_x
_atom_site_fract_y
_atom_site_fract_z
Si Si1 0.894978 0.300122 0.243120
Si Si2 0.640676 0.119840 0.869034
Si Si3 0.301545 0.515207 0.848196
Si Si4 0.041876 0.875278 0.833384
Si Si5 0.000000 0.000000 0.474173
Si Si6 0.691632 0.315714 0.983550
Si Si7 0.493639 0.136471 0.502859
Si Si8 0.121011 0.182251 0.563208
O O1 0.875122 0.185475 0.289618
O O2 0.837901 0.395995 0.286804
O O3 0.876725 0.317106 0.154749
O O4 0.997836 0.316108 0.261733
O O5 0.559200 0.075703 0.917732
O O6 0.689361 0.207510 0.926758
O O7 0.701104 0.013762 0.847923
O O8 0.356374 0.399108 0.837331
O O9 0.318704 0.572756 0.930141
O O10 0.005490 0.828312 0.913241
O O11 0.000000 0.000000 0.831033
O O12 0.062628 0.080532 0.526101
O O13 0.600580 0.318074 0.029659
O O14 0.781623 0.320708 0.028879
O O15 0.572145 0.200715 0.542812
O O16 0.500000 0.000000 0.509227
#
# Coordination Sequence:
#
# PCOD9366058 Si02
#       8
#     8   8   8   8   4   8   8   8
#     4  10  23  43  59  95 132 166 225 266 341 399
#     4  11  22  43  66  92 127 175 223 275 324 411
#     4  10  19  38  65  89 118 168 220 265 317 404
#     4   9  15  34  66  84 110 161 212 262 302 387
#     4  12  24  42  72 100 140 172 220 292 344 386
#     4  11  21  39  67  95 125 168 225 265 333 399
#     4  11  20  42  68  91 124 172 227 267 324 403
#     4  12  26  41  64 102 140 171 216 290 345 394
#
# _framework density 18.949332999999999
#
# number of rings (size 3 to 8) (size 9 to 14) (size 15 to 20)
#    0.000    1.333    8.000    0.800    2.800    0.000 
#    8.400    0.000    0.000    0.000    0.000    0.000 
#    0.000    0.000    0.000    0.000    0.000    0.000 
#
# Total GULP energy -167158.740253 kJ/mol
# GULP energy per Si atom -5571.958008 kJ/mol
# Density = 1.890620 g / cm^3
# Si number density = 18.949333 Si / 1000 Ang^3
#
#
#
# Elastic Constant Matrix: (Units=GPa)
#
#
# Indices 1 2 3 4 5 6 
#
# 1 104.9135 21.2953 62.2624 0.0000 0.0000 0.0000
# 2 21.2953 58.3188 26.9046 0.0000 0.0000 0.0000
# 3 62.2624 26.9046 109.3969 0.0000 0.0000 0.0000
# 4 0.0000 0.0000 0.0000 12.7840 0.0000 0.0000
# 5 0.0000 0.0000 0.0000 0.0000 22.1493 0.0000
# 6 0.0000 0.0000 0.0000 0.0000 0.0000 30.1558
#
#
#
# Elastic Compliance Matrix: (Units=1/GPa)
#
#
# Indices 1 2 3 4 5 6 
#
# 1 0.014538 -0.001682 -0.007860 0.000000 0.000000 0.000000
# 2 -0.001682 0.019536 -0.003847 0.000000 0.000000 0.000000
# 3 -0.007860 -0.003847 0.014561 0.000000 0.000000 0.000000
# 4 0.000000 0.000000 0.000000 0.078223 0.000000 0.000000
# 5 0.000000 0.000000 0.000000 0.000000 0.045148 0.000000
# 6 0.000000 0.000000 0.000000 0.000000 0.000000 0.033161
#
#
# Mechanical properties :
#
#
# Convention : Reuss Voigt Hill
#
# Bulk Modulus (GPa) = 45.75551 54.83930 50.29741
# Shear Modulus (GPa) = 20.90021 23.82896 22.36459
#
# Velocity S-wave (km/s) = 3.32468 3.54998 3.43918
# Velocity P-wave (km/s) = 6.23992 6.76801 6.50932
#
# Compressibility (1/GPa) = 0.02185529
#
# Stress axis : x y z
#
# Youngs Moduli (GPa) = 68.78506 51.18685 68.67698
#
# Poissons Ratio (x) = 0.08611 0.53983
# Poissons Ratio (y) = 0.11572 0.26421
# Poissons Ratio (z) = 0.54068 0.19693
#
# Static dielectric constant tensor:
#      x y z
#    x 1.735730 0.000000 0.000000 
#    y 0.000000 1.704420 0.000000 
#    z 0.000000 0.000000 1.649480 
# 
# From -- ./inp_files/10389.got.cif
#   From: 2010.05.17/outbox.cif.g08.bks.cpg/sg41_6_cif.got.tgz:10389.got - 2010.06.03 18:54:24.
