data_PCOD9366907
_publ_section_title
;
Structure prediction by ZEFSAII (Michael W. Deem and Ramdas Pophale) SiO2 
 PCOD9366907
Probable space group: A B A 2
;
_chemical_formula_sum "Si O2"
_cell_formula_units_Z 48
_cell_length_a 24.439599
_cell_length_b 7.025512
_cell_length_c 11.611637
_cell_angle_alpha 90.000000
_cell_angle_beta 90.000000
_cell_angle_gamma 90.000000
_cell_volume 1993.726155
_symmetry_space_group_name_H-M "A B A 2"
_symmetry_group_IT_number 41
_symmetry_cell_setting 'orthorhombic'
loop_
_space_group_symop_operation_xyz
x,y,z
-x,-y,z
1/2-x,y,1/2+z
1/2+x,-y,1/2+z
x,1/2+y,1/2+z
-x,1/2-y,1/2+z
1/2-x,1/2+y,z
1/2+x,1/2-y,z
loop_
_atom_site_type_symbol
_atom_site_label
_atom_site_fract_x
_atom_site_fract_y
_atom_site_fract_z
Si Si1 0.072447 0.357334 0.854940
Si Si2 0.699617 0.213515 0.265175
Si Si3 0.824996 0.655231 0.724754
Si Si4 0.110412 0.839036 0.593385
Si Si5 0.364660 0.925567 0.479400
Si Si6 0.544062 0.227741 0.311610
O O1 0.125822 0.262575 0.800420
O O2 0.057663 0.549445 0.787713
O O3 0.019402 0.224394 0.846318
O O4 0.087525 0.438685 0.980457
O O5 0.677887 0.431066 0.262322
O O6 0.764151 0.225806 0.247985
O O7 0.667562 0.116969 0.157719
O O8 0.682037 0.106691 0.381857
O O9 0.842347 0.680038 0.592829
O O10 0.120674 0.630440 0.535041
O O11 0.064720 0.860443 0.692022
O O12 0.418273 0.849152 0.414537
#
# Coordination Sequence:
#
# PCOD9366907 Si02
#       6
#     8   8   8   8   8   8
#     4  11  23  41  68  93 128 169 212 268 322 378
#     4  10  24  42  62  96 128 168 218 262 321 391
#     4  11  24  41  65  93 129 172 211 269 324 381
#     4  10  23  44  64  96 128 169 214 265 320 385
#     4  10  21  44  65  89 134 170 207 270 325 375
#     4  10  23  45  63  94 131 167 218 265 321 387
#
# _framework density 24.075524999999999
#
# number of rings (size 3 to 8) (size 9 to 14) (size 15 to 20)
#    0.000    1.667    5.000    0.000    7.000    3.333 
#    3.000    0.000    0.000    0.000    0.000    0.000 
#    0.000    0.000    0.000    0.000    0.000    0.000 
#
# Total GULP energy -134094.768711 kJ/mol
# GULP energy per Si atom -5587.282030 kJ/mol
# Density = 2.402073 g / cm^3
# Si number density = 24.075525 Si / 1000 Ang^3
#
#
#
# Elastic Constant Matrix: (Units=GPa)
#
#
# Indices 1 2 3 4 5 6 
#
# 1 224.2065 14.6741 86.5409 0.0000 0.0000 0.0000
# 2 14.6741 58.6972 20.1236 0.0000 0.0000 0.0000
# 3 86.5409 20.1236 188.1829 0.0000 0.0000 0.0000
# 4 0.0000 0.0000 0.0000 33.8667 0.0000 0.0000
# 5 0.0000 0.0000 0.0000 0.0000 21.5444 0.0000
# 6 0.0000 0.0000 0.0000 0.0000 0.0000 30.3391
#
#
#
# Elastic Compliance Matrix: (Units=1/GPa)
#
#
# Indices 1 2 3 4 5 6 
#
# 1 0.005438 -0.000521 -0.002445 0.000000 0.000000 0.000000
# 2 -0.000521 0.017735 -0.001657 0.000000 0.000000 0.000000
# 3 -0.002445 -0.001657 0.006616 0.000000 0.000000 0.000000
# 4 0.000000 0.000000 0.000000 0.029528 0.000000 0.000000
# 5 0.000000 0.000000 0.000000 0.000000 0.046416 0.000000
# 6 0.000000 0.000000 0.000000 0.000000 0.000000 0.032961
#
#
# Mechanical properties :
#
#
# Convention : Reuss Voigt Hill
#
# Bulk Modulus (GPa) = 48.68004 79.30709 63.99357
# Shear Modulus (GPa) = 32.30259 40.46658 36.38458
#
# Velocity S-wave (km/s) = 3.66692 4.10423 3.89172
# Velocity P-wave (km/s) = 6.17997 7.44795 6.84339
#
# Compressibility (1/GPa) = 0.02054230
#
# Stress axis : x y z
#
# Youngs Moduli (GPa) = 183.88890 56.38597 151.15792
#
# Poissons Ratio (x) = 0.02939 0.36960
# Poissons Ratio (y) = 0.09585 0.25044
# Poissons Ratio (z) = 0.44963 0.09342
#
# Static dielectric constant tensor:
#      x y z
#    x 1.924210 0.000000 0.000000 
#    y 0.000000 2.086940 0.000000 
#    z 0.000000 0.000000 1.912340 
# 
# From -- ./inp_files/6403.got.cif
#   From: 2010.05.17/outbox.cif.g08.bks.cpg/sg41_4_cif.got.tgz:6403.got - 2010.06.03 18:54:24.
