data_PCOD9366481
_publ_section_title
;
Structure prediction by ZEFSAII (Michael W. Deem and Ramdas Pophale) SiO2 
 PCOD9366481
Probable space group: A B A 2
;
_chemical_formula_sum "Si O2"
_cell_formula_units_Z 60
_cell_length_a 12.665256
_cell_length_b 13.404306
_cell_length_c 15.432015
_cell_angle_alpha 90.000000
_cell_angle_beta 90.000000
_cell_angle_gamma 90.000000
_cell_volume 2619.877245
_symmetry_space_group_name_H-M "A B A 2"
_symmetry_group_IT_number 41
_symmetry_cell_setting 'orthorhombic'
loop_
_space_group_symop_operation_xyz
x,y,z
-x,-y,z
1/2-x,y,1/2+z
1/2+x,-y,1/2+z
x,1/2+y,1/2+z
-x,1/2-y,1/2+z
1/2-x,1/2+y,z
1/2+x,1/2-y,z
loop_
_atom_site_type_symbol
_atom_site_label
_atom_site_fract_x
_atom_site_fract_y
_atom_site_fract_z
Si Si1 0.515377 0.114339 0.448370
Si Si2 0.688286 0.337877 0.050592
Si Si3 0.698122 0.442808 0.707451
Si Si4 0.133195 0.058411 0.456102
Si Si5 0.000000 0.000000 0.596860
Si Si6 0.759325 0.650511 0.980466
Si Si7 0.899121 0.040839 0.271680
Si Si8 0.617832 0.758094 0.324378
O O1 0.428114 0.131239 0.522859
O O2 0.634715 0.133482 0.476241
O O3 0.480137 0.193597 0.375966
O O4 0.500000 0.000000 0.417527
O O5 0.731113 0.392910 0.133236
O O6 0.771658 0.366389 0.973344
O O7 0.703079 0.220081 0.058629
O O8 0.598037 0.495227 0.662806
O O9 0.777657 0.522972 0.747116
O O10 0.665189 0.351491 0.770981
O O11 0.184713 0.955046 0.487525
O O12 0.098794 0.031496 0.359066
O O13 0.038578 0.082166 0.523788
O O14 0.805174 0.703910 0.894239
O O15 0.916414 0.159688 0.273019
O O16 0.000000 0.000000 0.218971
#
# Coordination Sequence:
#
# PCOD9366481 Si02
#       8
#     8   8   8   8   4   8   8   8
#     4  11  22  42  73 103 130 181 236 293 346 420
#     4  10  23  41  63 100 136 174 230 280 348 410
#     4  11  26  45  65 100 143 182 227 287 349 434
#     4  10  20  42  70  95 125 182 234 281 326 417
#     4  10  24  44  72  94 138 184 232 276 350 416
#     4  10  22  40  69  97 132 172 231 291 335 409
#     4  11  24  45  70  98 142 180 232 289 351 417
#     4  10  26  41  66 105 130 184 225 286 356 416
#
# _framework density 22.901835999999999
#
# number of rings (size 3 to 8) (size 9 to 14) (size 15 to 20)
#    0.000    1.600    2.000    1.600    6.533    5.867 
#    4.800    0.000    0.000    0.000    0.000    0.000 
#    0.000    0.000    0.000    0.000    0.000    0.000 
#
# Total GULP energy -167259.952696 kJ/mol
# GULP energy per Si atom -5575.331757 kJ/mol
# Density = 2.284971 g / cm^3
# Si number density = 22.901836 Si / 1000 Ang^3
#
#
#
# Elastic Constant Matrix: (Units=GPa)
#
#
# Indices 1 2 3 4 5 6 
#
# 1 134.6741 13.6252 3.2215 0.0000 0.0000 0.0000
# 2 13.6252 103.6590 -6.4993 0.0000 0.0000 0.0000
# 3 3.2215 -6.4993 31.1555 0.0000 0.0000 0.0000
# 4 0.0000 0.0000 0.0000 18.5981 0.0000 0.0000
# 5 0.0000 0.0000 0.0000 0.0000 94.9684 0.0000
# 6 0.0000 0.0000 0.0000 0.0000 0.0000 37.0928
#
#
#
# Elastic Compliance Matrix: (Units=1/GPa)
#
#
# Indices 1 2 3 4 5 6 
#
# 1 0.007556 -0.001056 -0.001002 0.000000 0.000000 0.000000
# 2 -0.001056 0.009922 0.002179 0.000000 0.000000 0.000000
# 3 -0.001002 0.002179 0.032655 0.000000 0.000000 0.000000
# 4 0.000000 0.000000 0.000000 0.053769 0.000000 0.000000
# 5 0.000000 0.000000 0.000000 0.000000 0.010530 0.000000
# 6 0.000000 0.000000 0.000000 0.000000 0.000000 0.026959
#
#
# Mechanical properties :
#
#
# Convention : Reuss Voigt Hill
#
# Bulk Modulus (GPa) = 19.85041 32.24259 26.04650
# Shear Modulus (GPa) = 31.65735 47.40795 39.53265
#
# Velocity S-wave (km/s) = 3.72197 4.55472 4.15924
# Velocity P-wave (km/s) = 5.21126 6.46295 5.87056
#
# Compressibility (1/GPa) = 0.05037679
#
# Stress axis : x y z
#
# Youngs Moduli (GPa) = 132.34293 100.78157 30.62300
#
# Poissons Ratio (x) = 0.10642 0.03067
# Poissons Ratio (y) = 0.13975 -0.06673
# Poissons Ratio (z) = 0.13255 -0.21961
#
# Static dielectric constant tensor:
#      x y z
#    x 1.713550 0.000000 0.000000 
#    y 0.000000 1.912980 0.000000 
#    z 0.000000 0.000000 1.963150 
# 
# From -- ./inp_files/10097.got.cif
#   From: 2010.05.17/outbox.cif.g08.bks.cpg/sg41_6_cif.got.tgz:10097.got - 2010.06.03 18:54:24.
