data_PCOD9366941
_publ_section_title
;
Structure prediction by ZEFSAII (Michael W. Deem and Ramdas Pophale) SiO2 
 PCOD9366941
Probable space group: A B A 2
;
_chemical_formula_sum "Si O2"
_cell_formula_units_Z 44
_cell_length_a 13.029353
_cell_length_b 18.291465
_cell_length_c 8.716946
_cell_angle_alpha 90.000000
_cell_angle_beta 90.000000
_cell_angle_gamma 90.000000
_cell_volume 2077.474475
_symmetry_space_group_name_H-M "A B A 2"
_symmetry_group_IT_number 41
_symmetry_cell_setting 'orthorhombic'
loop_
_space_group_symop_operation_xyz
x,y,z
-x,-y,z
1/2-x,y,1/2+z
1/2+x,-y,1/2+z
x,1/2+y,1/2+z
-x,1/2-y,1/2+z
1/2-x,1/2+y,z
1/2+x,1/2-y,z
loop_
_atom_site_type_symbol
_atom_site_label
_atom_site_fract_x
_atom_site_fract_y
_atom_site_fract_z
Si Si1 0.352764 0.883553 0.182030
Si Si2 0.555552 0.874823 0.382246
Si Si3 0.840104 0.282255 0.598275
Si Si4 0.000000 0.500000 0.617879
Si Si5 0.331586 0.462313 0.361446
Si Si6 0.219000 0.628142 0.868603
O O1 0.459970 0.880443 0.271829
O O2 0.321929 0.800023 0.146883
O O3 0.269964 0.925572 0.287797
O O4 0.361786 0.921662 0.016966
O O5 0.566987 0.799439 0.480134
O O6 0.665414 0.882232 0.300373
O O7 0.549823 0.939670 0.506973
O O8 0.853049 0.332116 0.747840
O O9 0.743650 0.316827 0.506907
O O10 0.916357 0.537469 0.727561
O O11 0.316544 0.547209 0.405540
#
# Coordination Sequence:
#
# PCOD9366941 Si02
#       6
#     8   8   8   4   8   8
#     4  12  25  45  71 107 141 186 239 298 362 419
#     4  10  24  44  69  98 148 182 237 292 353 424
#     4  10  23  44  67 100 138 186 228 295 349 428
#     4  12  24  46  70 112 144 182 246 294 350 428
#     4  12  25  43  74 105 139 189 240 295 353 429
#     4  10  21  46  68  95 137 185 230 282 355 419
#
# _framework density 21.179559999999999
#
# number of rings (size 3 to 8) (size 9 to 14) (size 15 to 20)
#    1.091    0.000    1.818    5.455    0.000    5.091 
#    6.545    0.000    0.000    0.000    0.000    0.000 
#    0.000    0.000    0.000    0.000    0.000    0.000 
#
# Total GULP energy -122796.548105 kJ/mol
# GULP energy per Si atom -5581.661277 kJ/mol
# Density = 2.113135 g / cm^3
# Si number density = 21.179560 Si / 1000 Ang^3
#
#
#
# Elastic Constant Matrix: (Units=GPa)
#
#
# Indices 1 2 3 4 5 6 
#
# 1 51.7585 2.4427 25.8043 0.0000 0.0000 0.0000
# 2 2.4427 137.3257 49.2486 0.0000 0.0000 0.0000
# 3 25.8043 49.2486 119.1907 0.0000 0.0000 0.0000
# 4 0.0000 0.0000 0.0000 14.4948 0.0000 0.0000
# 5 0.0000 0.0000 0.0000 0.0000 34.7087 0.0000
# 6 0.0000 0.0000 0.0000 0.0000 0.0000 1.6376
#
#
#
# Elastic Compliance Matrix: (Units=1/GPa)
#
#
# Indices 1 2 3 4 5 6 
#
# 1 0.021933 0.001541 -0.005385 0.000000 0.000000 0.000000
# 2 0.001541 0.008657 -0.003911 0.000000 0.000000 0.000000
# 3 -0.005385 -0.003911 0.011172 0.000000 0.000000 0.000000
# 4 0.000000 0.000000 0.000000 0.068990 0.000000 0.000000
# 5 0.000000 0.000000 0.000000 0.000000 0.028811 0.000000
# 6 0.000000 0.000000 0.000000 0.000000 0.000000 0.610654
#
#
# Mechanical properties :
#
#
# Convention : Reuss Voigt Hill
#
# Bulk Modulus (GPa) = 38.09250 51.47402 44.78326
# Shear Modulus (GPa) = 6.45597 25.55350 16.00474
#
# Velocity S-wave (km/s) = 1.74781 3.47726 2.75193
# Velocity P-wave (km/s) = 4.70081 6.36225 5.59356
#
# Compressibility (1/GPa) = 0.02625189
#
# Stress axis : x y z
#
# Youngs Moduli (GPa) = 45.59440 115.51342 89.51263
#
# Poissons Ratio (x) = -0.17802 0.48203
# Poissons Ratio (y) = -0.07027 0.35005
# Poissons Ratio (z) = 0.24553 0.45173
#
# Static dielectric constant tensor:
#      x y z
#    x 1.772330 0.000000 0.000000 
#    y 0.000000 1.774260 0.000000 
#    z 0.000000 0.000000 1.751360 
# 
# From -- ./inp_files/2488.got.cif
#   From: 2010.05.17/outbox.cif.g08.bks.cpg/sg41_2_cif.got.tgz:2488.got - 2010.06.03 18:54:24.
