data_PCOD9366154
_publ_section_title
;
Structure prediction by ZEFSAII (Michael W. Deem and Ramdas Pophale) SiO2 
 PCOD9366154
Probable space group: A B A 2
;
_chemical_formula_sum "Si O2"
_cell_formula_units_Z 64
_cell_length_a 16.267171
_cell_length_b 12.568519
_cell_length_c 15.922004
_cell_angle_alpha 90.000000
_cell_angle_beta 90.000000
_cell_angle_gamma 90.000000
_cell_volume 3255.321351
_symmetry_space_group_name_H-M "A B A 2"
_symmetry_group_IT_number 41
_symmetry_cell_setting 'orthorhombic'
loop_
_space_group_symop_operation_xyz
x,y,z
-x,-y,z
1/2-x,y,1/2+z
1/2+x,-y,1/2+z
x,1/2+y,1/2+z
-x,1/2-y,1/2+z
1/2-x,1/2+y,z
1/2+x,1/2-y,z
loop_
_atom_site_type_symbol
_atom_site_label
_atom_site_fract_x
_atom_site_fract_y
_atom_site_fract_z
Si Si1 0.132107 0.161775 0.380270
Si Si2 0.178985 0.390744 0.314095
Si Si3 0.367892 0.838223 0.832384
Si Si4 0.551150 0.103605 0.179257
Si Si5 0.479671 0.656432 0.223215
Si Si6 0.051150 0.603605 0.533397
Si Si7 0.321014 0.109255 0.398560
Si Si8 0.979671 0.156432 0.489439
O O1 0.143950 0.289130 0.365162
O O2 0.087515 0.127944 0.293777
O O3 0.222720 0.118229 0.395959
O O4 0.069285 0.129330 0.453492
O O5 0.277280 0.381770 0.316695
O O6 0.141402 0.394367 0.220569
O O7 0.152628 0.499999 0.356328
O O8 0.430714 0.870668 0.759162
O O9 0.356049 0.710869 0.847492
O O10 0.412484 0.872055 0.918877
O O11 0.515530 0.215528 0.212049
O O12 0.546328 0.109719 0.078646
O O13 0.500000 0.000000 0.206568
O O14 0.453673 0.609719 0.134008
O O15 0.141401 0.605634 0.492086
O O16 0.015529 0.715528 0.500605
O O17 0.000000 0.500000 0.506086
#
# Coordination Sequence:
#
# PCOD9366154 Si02
#       8
#     8   8   8   8   8   8   8   8
#     4   9  19  37  58  79 108 144 180 221 272 328
#     4  10  20  35  57  83 108 140 183 228 272 320
#     4   9  19  37  58  79 108 144 180 221 272 328
#     4  10  20  35  56  82 109 140 181 226 270 319
#     4   9  19  37  57  79 109 144 180 220 272 328
#     4  10  20  35  56  82 109 140 181 226 270 319
#     4  10  20  35  57  83 108 140 183 228 272 320
#     4   9  19  37  57  79 109 144 180 220 272 328
#
# _framework density 19.660117
#
# number of rings (size 3 to 8) (size 9 to 14) (size 15 to 20)
#    0.000    2.500    0.000    1.500    0.000    4.500 
#    0.000   22.500    0.000    0.000    0.000    0.000 
#    0.000    0.000    0.000    0.000    0.000    0.000 
#
# Total GULP energy -178472.976459 kJ/mol
# GULP energy per Si atom -5577.280514 kJ/mol
# Density = 1.961537 g / cm^3
# Si number density = 19.660117 Si / 1000 Ang^3
#
#
#
# Elastic Constant Matrix: (Units=GPa)
#
#
# Indices 1 2 3 4 5 6 
#
# 1 127.8058 23.3924 72.7076 0.0000 0.0000 0.0000
# 2 23.3924 96.2062 21.4101 0.0000 0.0000 0.0000
# 3 72.7076 21.4101 121.0536 0.0000 0.0000 0.0000
# 4 0.0000 0.0000 0.0000 7.4113 0.0000 0.0000
# 5 0.0000 0.0000 0.0000 0.0000 13.4117 0.0000
# 6 0.0000 0.0000 0.0000 0.0000 0.0000 11.9638
#
#
#
# Elastic Compliance Matrix: (Units=1/GPa)
#
#
# Indices 1 2 3 4 5 6 
#
# 1 0.012058 -0.001374 -0.006999 0.000000 0.000000 0.000000
# 2 -0.001374 0.010977 -0.001116 0.000000 0.000000 0.000000
# 3 -0.006999 -0.001116 0.012662 0.000000 0.000000 0.000000
# 4 0.000000 0.000000 0.000000 0.134929 0.000000 0.000000
# 5 0.000000 0.000000 0.000000 0.000000 0.074562 0.000000
# 6 0.000000 0.000000 0.000000 0.000000 0.000000 0.083586
#
#
# Mechanical properties :
#
#
# Convention : Reuss Voigt Hill
#
# Bulk Modulus (GPa) = 59.81621 64.45400 62.13511
# Shear Modulus (GPa) = 14.15131 21.72772 17.93951
#
# Velocity S-wave (km/s) = 2.68582 3.32801 3.02401
# Velocity P-wave (km/s) = 6.33319 6.90093 6.62315
#
# Compressibility (1/GPa) = 0.01671788
#
# Stress axis : x y z
#
# Youngs Moduli (GPa) = 82.93548 91.10083 78.97673
#
# Poissons Ratio (x) = 0.12519 0.55276
# Poissons Ratio (y) = 0.11397 0.08814
# Poissons Ratio (z) = 0.58047 0.10167
#
# Static dielectric constant tensor:
#      x y z
#    x 1.651230 0.000000 0.000000 
#    y 0.000000 1.744920 0.000000 
#    z 0.000000 0.000000 1.667960 
# 
# From -- ./inp_files/8847.got.cif
#   From: 2010.05.17/outbox.cif.g08.bks.cpg/sg41_5_cif.got.tgz:8847.got - 2010.06.03 18:54:24.
