data_PCOD9366689
_publ_section_title
;
Structure prediction by ZEFSAII (Michael W. Deem and Ramdas Pophale) SiO2 
 PCOD9366689
Probable space group: A B A 2
;
_chemical_formula_sum "Si O2"
_cell_formula_units_Z 56
_cell_length_a 5.217663
_cell_length_b 30.514297
_cell_length_c 16.812722
_cell_angle_alpha 90.000000
_cell_angle_beta 90.000000
_cell_angle_gamma 90.000000
_cell_volume 2676.809261
_symmetry_space_group_name_H-M "A B A 2"
_symmetry_group_IT_number 41
_symmetry_cell_setting 'orthorhombic'
loop_
_space_group_symop_operation_xyz
x,y,z
-x,-y,z
1/2-x,y,1/2+z
1/2+x,-y,1/2+z
x,1/2+y,1/2+z
-x,1/2-y,1/2+z
1/2-x,1/2+y,z
1/2+x,1/2-y,z
loop_
_atom_site_type_symbol
_atom_site_label
_atom_site_fract_x
_atom_site_fract_y
_atom_site_fract_z
Si Si1 0.872060 0.547542 0.364800
Si Si2 0.547482 0.141333 0.381041
Si Si3 0.919191 0.723443 0.081823
Si Si4 0.066497 0.140490 0.482565
Si Si5 0.417370 0.776619 0.273010
Si Si6 0.589355 0.550657 0.533087
Si Si7 0.758010 0.029552 0.196063
O O1 0.033954 0.591990 0.355875
O O2 0.754490 0.550665 0.452644
O O3 0.699473 0.548655 0.284615
O O4 0.000000 0.500000 0.364498
O O5 0.333327 0.155058 0.444371
O O6 0.550266 0.175810 0.310438
O O7 0.833063 0.139471 0.418538
O O8 0.647160 0.743629 0.056906
O O9 0.920956 0.720770 0.177521
O O10 0.976366 0.675957 0.046492
O O11 0.100377 0.091374 0.518097
O O12 0.651277 0.745472 0.298490
O O13 0.500000 0.500000 0.537739
O O14 0.719103 0.559812 0.618715
O O15 0.500000 0.000000 0.202059
O O16 0.000000 0.000000 0.176524
#
# Coordination Sequence:
#
# PCOD9366689 Si02
#       7
#     8   8   8   8   8   8   8
#     4  10  21  39  64  89 130 168 207 261 307 371
#     4  11  24  39  62  94 123 162 211 254 317 373
#     4  10  22  41  64  89 123 163 204 255 321 379
#     4  11  24  39  62  94 123 162 211 254 317 373
#     4  10  22  41  64  89 123 163 204 255 321 379
#     4  10  21  39  64  89 130 168 207 261 307 371
#     4  10  22  38  60  90 116 162 216 250 306 364
#
# _framework density 20.920428000000001
#
# number of rings (size 3 to 8) (size 9 to 14) (size 15 to 20)
#    0.000    1.714    0.000    3.429    2.000   10.286 
#    0.000    0.000    3.143    0.000    0.000    0.000 
#    0.000    0.000    0.000    0.000    0.000    0.000 
#
# Total GULP energy -156127.178123 kJ/mol
# GULP energy per Si atom -5575.970647 kJ/mol
# Density = 2.087281 g / cm^3
# Si number density = 20.920428 Si / 1000 Ang^3
#
#
#
# Elastic Constant Matrix: (Units=GPa)
#
#
# Indices 1 2 3 4 5 6 
#
# 1 61.8297 -6.9017 -5.5629 0.0000 0.0000 0.0000
# 2 -6.9017 97.1398 14.3170 0.0000 0.0000 0.0000
# 3 -5.5629 14.3170 63.5981 0.0000 0.0000 0.0000
# 4 0.0000 0.0000 0.0000 5.0387 0.0000 0.0000
# 5 0.0000 0.0000 0.0000 0.0000 15.1555 0.0000
# 6 0.0000 0.0000 0.0000 0.0000 0.0000 28.0404
#
#
#
# Elastic Compliance Matrix: (Units=1/GPa)
#
#
# Indices 1 2 3 4 5 6 
#
# 1 0.016393 0.000986 0.001212 0.000000 0.000000 0.000000
# 2 0.000986 0.010707 -0.002324 0.000000 0.000000 0.000000
# 3 0.001212 -0.002324 0.016353 0.000000 0.000000 0.000000
# 4 0.000000 0.000000 0.000000 0.198465 0.000000 0.000000
# 5 0.000000 0.000000 0.000000 0.000000 0.065983 0.000000
# 6 0.000000 0.000000 0.000000 0.000000 0.000000 0.035663
#
#
# Mechanical properties :
#
#
# Convention : Reuss Voigt Hill
#
# Bulk Modulus (GPa) = 23.14801 25.14137 24.14469
# Shear Modulus (GPa) = 13.95807 24.36127 19.15967
#
# Velocity S-wave (km/s) = 2.58582 3.41614 3.02956
# Velocity P-wave (km/s) = 4.47259 5.25392 4.87892
#
# Compressibility (1/GPa) = 0.04320025
#
# Stress axis : x y z
#
# Youngs Moduli (GPa) = 61.00325 93.39654 61.15112
#
# Poissons Ratio (x) = -0.09209 -0.07411
# Poissons Ratio (y) = -0.06015 0.14212
# Poissons Ratio (z) = -0.07393 0.21706
#
# Static dielectric constant tensor:
#      x y z
#    x 1.778170 0.000000 0.000000 
#    y 0.000000 1.774490 0.000000 
#    z 0.000000 0.000000 1.802390 
# 
# From -- ./inp_files/6954.got.cif
#   From: 2010.05.17/outbox.cif.g08.bks.cpg/sg41_4_cif.got.tgz:6954.got - 2010.06.03 18:54:24.
