data_PCOD9366033
_publ_section_title
;
Structure prediction by ZEFSAII (Michael W. Deem and Ramdas Pophale) SiO2 
 PCOD9366033
Probable space group: A B A 2
;
_chemical_formula_sum "Si O2"
_cell_formula_units_Z 60
_cell_length_a 29.955822
_cell_length_b 14.078211
_cell_length_c 5.368723
_cell_angle_alpha 90.000000
_cell_angle_beta 90.000000
_cell_angle_gamma 90.000000
_cell_volume 2264.121394
_symmetry_space_group_name_H-M "A B A 2"
_symmetry_group_IT_number 41
_symmetry_cell_setting 'orthorhombic'
loop_
_space_group_symop_operation_xyz
x,y,z
-x,-y,z
1/2-x,y,1/2+z
1/2+x,-y,1/2+z
x,1/2+y,1/2+z
-x,1/2-y,1/2+z
1/2-x,1/2+y,z
1/2+x,1/2-y,z
loop_
_atom_site_type_symbol
_atom_site_label
_atom_site_fract_x
_atom_site_fract_y
_atom_site_fract_z
Si Si1 0.640014 0.422109 0.871660
Si Si2 0.921558 0.891476 0.473216
Si Si3 0.000000 0.500000 0.084546
Si Si4 0.761189 0.001100 0.919859
Si Si5 0.725346 0.790907 0.924146
Si Si6 0.077163 0.415138 0.429617
Si Si7 0.471209 0.757177 0.732337
Si Si8 0.132156 0.254571 0.188807
O O1 0.623102 0.434989 0.587675
O O2 0.688290 0.465867 0.917713
O O3 0.604709 0.491357 0.015744
O O4 0.643934 0.309966 0.946004
O O5 0.940788 0.836426 0.718874
O O6 0.908005 0.810220 0.289850
O O7 0.964646 0.950011 0.402888
O O8 0.033891 0.444005 0.267084
O O9 0.750303 0.055166 0.669275
O O10 0.729577 0.906791 0.921577
O O11 0.757162 0.763381 0.694540
O O12 0.676197 0.755224 0.857829
O O13 0.059704 0.346709 0.652085
O O14 0.110860 0.357452 0.242458
O O15 0.495066 0.758705 0.998238
#
# Coordination Sequence:
#
# PCOD9366033 Si02
#       8
#     8   8   4   8   8   8   8   8
#     4  11  23  42  67 100 145 181 234 304 363 426
#     4  10  23  36  67  93 132 178 232 288 353 423
#     4  10  20  44  66  96 138 180 238 296 356 428
#     4  10  19  37  68  97 134 187 231 276 362 443
#     4  10  19  37  70 101 135 184 234 283 361 449
#     4  10  25  44  67 108 139 184 252 299 368 445
#     4  11  24  44  69  95 132 180 234 285 352 425
#     4  11  23  41  68 100 140 187 236 303 363 437
#
# _framework density 26.500343999999998
#
# number of rings (size 3 to 8) (size 9 to 14) (size 15 to 20)
#    0.000    1.600    4.000    1.600    3.733    1.067 
#    0.000    2.000    0.000    0.000    0.000    0.000 
#    0.000    0.000    0.000    0.000    0.000    0.000 
#
# Total GULP energy -167650.584874 kJ/mol
# GULP energy per Si atom -5588.352829 kJ/mol
# Density = 2.644003 g / cm^3
# Si number density = 26.500344 Si / 1000 Ang^3
#
#
#
# Elastic Constant Matrix: (Units=GPa)
#
#
# Indices 1 2 3 4 5 6 
#
# 1 157.0750 24.6030 36.7242 0.0000 0.0000 0.0000
# 2 24.6030 113.2960 3.6073 0.0000 0.0000 0.0000
# 3 36.7242 3.6073 118.6919 0.0000 0.0000 0.0000
# 4 0.0000 0.0000 0.0000 13.8188 0.0000 0.0000
# 5 0.0000 0.0000 0.0000 0.0000 54.7794 0.0000
# 6 0.0000 0.0000 0.0000 0.0000 0.0000 0.9321
#
#
#
# Elastic Compliance Matrix: (Units=1/GPa)
#
#
# Indices 1 2 3 4 5 6 
#
# 1 0.007100 -0.001473 -0.002152 0.000000 0.000000 0.000000
# 2 -0.001473 0.009141 0.000178 0.000000 0.000000 0.000000
# 3 -0.002152 0.000178 0.009086 0.000000 0.000000 0.000000
# 4 0.000000 0.000000 0.000000 0.072365 0.000000 0.000000
# 5 0.000000 0.000000 0.000000 0.000000 0.018255 0.000000
# 6 0.000000 0.000000 0.000000 0.000000 0.000000 1.072877
#
#
# Mechanical properties :
#
#
# Convention : Reuss Voigt Hill
#
# Bulk Modulus (GPa) = 54.25389 57.65910 55.95650
# Shear Modulus (GPa) = 4.16021 35.51459 19.83740
#
# Velocity S-wave (km/s) = 1.25430 3.66479 2.73897
# Velocity P-wave (km/s) = 4.75553 6.30180 5.58246
#
# Compressibility (1/GPa) = 0.01843186
#
# Stress axis : x y z
#
# Youngs Moduli (GPa) = 140.83855 109.40056 110.06369
#
# Poissons Ratio (x) = 0.16119 0.23687
# Poissons Ratio (y) = 0.20751 -0.01960
# Poissons Ratio (z) = 0.30310 -0.01948
#
# Static dielectric constant tensor:
#      x y z
#    x 1.982320 0.000000 0.000000 
#    y 0.000000 2.214310 0.000000 
#    z 0.000000 0.000000 2.186940 
# 
# From -- ./inp_files/1387.got.cif
#   From: 2010.05.17/outbox.cif.g08.bks.cpg/sg41_1_cif.got.tgz:1387.got - 2010.06.03 18:54:24.
