data_PCOD9366455
_publ_section_title
;
Structure prediction by ZEFSAII (Michael W. Deem and Ramdas Pophale) SiO2 
 PCOD9366455
Probable space group: A B A 2
;
_chemical_formula_sum "Si O2"
_cell_formula_units_Z 48
_cell_length_a 10.912271
_cell_length_b 15.582684
_cell_length_c 13.527294
_cell_angle_alpha 90.000000
_cell_angle_beta 90.000000
_cell_angle_gamma 90.000000
_cell_volume 2300.214494
_symmetry_space_group_name_H-M "A B A 2"
_symmetry_group_IT_number 41
_symmetry_cell_setting 'orthorhombic'
loop_
_space_group_symop_operation_xyz
x,y,z
-x,-y,z
1/2-x,y,1/2+z
1/2+x,-y,1/2+z
x,1/2+y,1/2+z
-x,1/2-y,1/2+z
1/2-x,1/2+y,z
1/2+x,1/2-y,z
loop_
_atom_site_type_symbol
_atom_site_label
_atom_site_fract_x
_atom_site_fract_y
_atom_site_fract_z
Si Si1 0.007263 0.131984 0.617760
Si Si2 0.742572 0.750571 0.875564
Si Si3 0.489636 0.307944 0.419765
Si Si4 0.764177 0.401693 0.713641
Si Si5 0.514956 0.168683 0.682384
Si Si6 0.239761 0.907261 0.728584
O O1 0.985204 0.118876 0.501447
O O2 0.892035 0.093915 0.676072
O O3 0.141158 0.100757 0.649029
O O4 0.006056 0.234109 0.644360
O O5 0.868558 0.748576 0.935037
O O6 0.619667 0.762890 0.936810
O O7 0.751084 0.826718 0.795028
O O8 0.730455 0.661079 0.817077
O O9 0.488210 0.330517 0.303577
O O10 0.772221 0.496326 0.759842
O O11 0.890590 0.381506 0.655995
O O12 0.646999 0.126673 0.660580
#
# Coordination Sequence:
#
# PCOD9366455 Si02
#       6
#     8   8   8   8   8   8
#     4  12  21  38  63  93 122 166 204 259 307 360
#     4  10  20  42  60  94 118 168 202 250 318 364
#     4  10  22  35  66  87 124 161 204 248 312 366
#     4  11  21  39  66  91 122 162 209 255 304 367
#     4  10  21  43  61  88 122 167 202 247 315 368
#     4  11  21  39  66  91 122 162 209 255 304 367
#
# _framework density 20.867619000000001
#
# number of rings (size 3 to 8) (size 9 to 14) (size 15 to 20)
#    0.000    1.333    6.667    1.000    4.667    0.000 
#    0.000   13.333    0.000    0.000    0.000    0.000 
#    0.000    0.000    0.000    0.000    0.000    0.000 
#
# Total GULP energy -133840.519178 kJ/mol
# GULP energy per Si atom -5576.688299 kJ/mol
# Density = 2.082012 g / cm^3
# Si number density = 20.867619 Si / 1000 Ang^3
#
#
#
# Elastic Constant Matrix: (Units=GPa)
#
#
# Indices 1 2 3 4 5 6 
#
# 1 148.3959 -39.8073 -9.8847 0.0000 0.0000 0.0000
# 2 -39.8073 72.2912 -7.9945 0.0000 0.0000 0.0000
# 3 -9.8847 -7.9945 47.9175 0.0000 0.0000 0.0000
# 4 0.0000 0.0000 0.0000 -11.0657 0.0000 0.0000
# 5 0.0000 0.0000 0.0000 0.0000 -7.1643 0.0000
# 6 0.0000 0.0000 0.0000 0.0000 0.0000 19.6404
#
#
#
# Elastic Compliance Matrix: (Units=1/GPa)
#
#
# Indices 1 2 3 4 5 6 
#
# 1 0.008188 0.004784 0.002487 0.000000 0.000000 0.000000
# 2 0.004784 0.016888 0.003804 0.000000 0.000000 0.000000
# 3 0.002487 0.003804 0.022017 0.000000 0.000000 0.000000
# 4 0.000000 0.000000 0.000000 -0.090369 0.000000 0.000000
# 5 0.000000 0.000000 0.000000 0.000000 -0.139581 0.000000
# 6 0.000000 0.000000 0.000000 0.000000 0.000000 0.050915
#
#
# Mechanical properties :
#
#
# Convention : Reuss Voigt Hill
#
# Bulk Modulus (GPa) = 14.44209 17.02574 15.73391
# Shear Modulus (GPa) = -38.16455 22.03481 -8.06487
#
# Velocity S-wave (km/s) = -4.28119 3.25304 -1.96804
# Velocity P-wave (km/s) = 4.18357 4.72084 1.54661
#
# Compressibility (1/GPa) = 0.06924207
#
# Stress axis : x y z
#
# Youngs Moduli (GPa) = 122.13615 59.21460 45.41955
#
# Poissons Ratio (x) = -0.28326 -0.11296
# Poissons Ratio (y) = -0.58424 -0.17279
# Poissons Ratio (z) = -0.30376 -0.22527
#
# Static dielectric constant tensor:
#      x y z
#    x 1.816520 0.000000 0.000000 
#    y 0.000000 1.772180 0.000000 
#    z 0.000000 0.000000 1.746730 
# 
# From -- ./inp_files/7902.got.cif
#   From: 2010.05.17/outbox.cif.g08.bks.cpg/sg41_4_cif.got.tgz:7902.got - 2010.06.03 18:54:24.
