data_PCOD9366510
_publ_section_title
;
Structure prediction by ZEFSAII (Michael W. Deem and Ramdas Pophale) SiO2 
 PCOD9366510
Probable space group: A B A 2
;
_chemical_formula_sum "Si O2"
_cell_formula_units_Z 64
_cell_length_a 8.719736
_cell_length_b 22.449007
_cell_length_c 14.624276
_cell_angle_alpha 90.000000
_cell_angle_beta 90.000000
_cell_angle_gamma 90.000000
_cell_volume 2862.693465
_symmetry_space_group_name_H-M "A B A 2"
_symmetry_group_IT_number 41
_symmetry_cell_setting 'orthorhombic'
loop_
_space_group_symop_operation_xyz
x,y,z
-x,-y,z
1/2-x,y,1/2+z
1/2+x,-y,1/2+z
x,1/2+y,1/2+z
-x,1/2-y,1/2+z
1/2-x,1/2+y,z
1/2+x,1/2-y,z
loop_
_atom_site_type_symbol
_atom_site_label
_atom_site_fract_x
_atom_site_fract_y
_atom_site_fract_z
Si Si1 0.336947 0.517233 0.004650
Si Si2 0.477468 0.304907 0.793600
Si Si3 0.824378 0.630891 0.763005
Si Si4 0.878976 0.051526 0.641713
Si Si5 0.078519 0.170470 0.605025
Si Si6 0.625831 0.887001 0.657306
Si Si7 0.281039 0.106735 0.349212
Si Si8 0.486840 0.187209 0.906867
O O1 0.500000 0.500000 0.961445
O O2 0.222911 0.470687 0.054629
O O3 0.392010 0.558777 0.088684
O O4 0.259242 0.556027 0.924754
O O5 0.302286 0.317871 0.768727
O O6 0.555916 0.293086 0.696786
O O7 0.549849 0.365727 0.835408
O O8 0.505952 0.249557 0.857496
O O9 0.734299 0.573179 0.723409
O O10 0.965928 0.638962 0.692990
O O11 0.901596 0.636613 0.863388
O O12 0.985195 0.108288 0.617300
O O13 0.000000 0.000000 0.666963
O O14 0.259296 0.156764 0.604059
O O15 0.008672 0.196920 0.514128
O O16 0.715271 0.908450 0.748908
O O17 0.180440 0.162449 0.382435
#
# Coordination Sequence:
#
# PCOD9366510 Si02
#       8
#     8   8   8   8   8   8   8   8
#     4  12  23  43  67 102 135 187 231 277 348 408
#     4  10  23  45  67 104 135 179 228 289 348 398
#     4  10  23  41  67 100 139 173 230 283 332 418
#     4  11  21  40  68  98 141 183 227 274 345 410
#     4  10  22  43  70 101 137 179 226 290 334 410
#     4  10  20  44  69  93 138 178 221 281 341 395
#     4  10  23  43  67  98 140 175 229 287 333 418
#     4  11  21  45  71  98 135 182 232 280 348 410
#
# _framework density 22.356566999999998
#
# number of rings (size 3 to 8) (size 9 to 14) (size 15 to 20)
#    0.000    1.500    3.750    0.750    0.000    1.000 
#   13.500    4.375    0.000    0.000    0.000    0.000 
#    0.000    0.000    0.000    0.000    0.000    0.000 
#
# Total GULP energy -178596.777063 kJ/mol
# GULP energy per Si atom -5581.149283 kJ/mol
# Density = 2.230568 g / cm^3
# Si number density = 22.356567 Si / 1000 Ang^3
#
#
#
# Elastic Constant Matrix: (Units=GPa)
#
#
# Indices 1 2 3 4 5 6 
#
# 1 111.7294 29.7046 3.3563 0.0000 0.0000 0.0000
# 2 29.7046 73.4019 53.9081 0.0000 0.0000 0.0000
# 3 3.3563 53.9081 107.1743 0.0000 0.0000 0.0000
# 4 0.0000 0.0000 0.0000 -13.5232 0.0000 0.0000
# 5 0.0000 0.0000 0.0000 0.0000 4.4373 0.0000
# 6 0.0000 0.0000 0.0000 0.0000 0.0000 23.9491
#
#
#
# Elastic Compliance Matrix: (Units=1/GPa)
#
#
# Indices 1 2 3 4 5 6 
#
# 1 0.010563 -0.006394 0.002885 0.000000 0.000000 0.000000
# 2 -0.006394 0.025475 -0.012613 0.000000 0.000000 0.000000
# 3 0.002885 -0.012613 0.015585 0.000000 0.000000 0.000000
# 4 0.000000 0.000000 0.000000 -0.073947 0.000000 0.000000
# 5 0.000000 0.000000 0.000000 0.000000 0.225360 0.000000
# 6 0.000000 0.000000 0.000000 0.000000 0.000000 0.041755
#
#
# Mechanical properties :
#
#
# Convention : Reuss Voigt Hill
#
# Bulk Modulus (GPa) = 51.60269 51.80486 51.70377
# Shear Modulus (GPa) = 17.63700 16.66174 17.14937
#
# Velocity S-wave (km/s) = 2.81178 2.73293 2.77263
# Velocity P-wave (km/s) = 5.80286 5.76029 5.78162
#
# Compressibility (1/GPa) = 0.01937883
#
# Stress axis : x y z
#
# Youngs Moduli (GPa) = 94.66643 39.25458 64.16533
#
# Poissons Ratio (x) = 0.25099 -0.18513
# Poissons Ratio (y) = 0.60528 0.80935
# Poissons Ratio (z) = -0.27314 0.49514
#
# Static dielectric constant tensor:
#      x y z
#    x 1.904190 0.000000 0.000000 
#    y 0.000000 1.869970 0.000000 
#    z 0.000000 0.000000 1.833440 
# 
# From -- ./inp_files/7591.got.cif
#   From: 2010.05.17/outbox.cif.g08.bks.cpg/sg41_4_cif.got.tgz:7591.got - 2010.06.03 18:54:24.
