data_PCOD9366965
_publ_section_title
;
Structure prediction by ZEFSAII (Michael W. Deem and Ramdas Pophale) SiO2 
 PCOD9366965
Probable space group: A B A 2
;
_chemical_formula_sum "Si O2"
_cell_formula_units_Z 56
_cell_length_a 22.191282
_cell_length_b 5.474243
_cell_length_c 20.353426
_cell_angle_alpha 90.000000
_cell_angle_beta 90.000000
_cell_angle_gamma 90.000000
_cell_volume 2472.543760
_symmetry_space_group_name_H-M "A B A 2"
_symmetry_group_IT_number 41
_symmetry_cell_setting 'orthorhombic'
loop_
_space_group_symop_operation_xyz
x,y,z
-x,-y,z
1/2-x,y,1/2+z
1/2+x,-y,1/2+z
x,1/2+y,1/2+z
-x,1/2-y,1/2+z
1/2-x,1/2+y,z
1/2+x,1/2-y,z
loop_
_atom_site_type_symbol
_atom_site_label
_atom_site_fract_x
_atom_site_fract_y
_atom_site_fract_z
Si Si1 0.216956 0.533604 0.597660
Si Si2 0.569101 0.898086 0.163329
Si Si3 0.500000 0.000000 0.813675
Si Si4 0.217704 0.535169 0.756296
Si Si5 0.602898 0.670016 0.787970
Si Si6 0.401506 0.776814 0.047901
Si Si7 0.563843 0.860370 0.406517
Si Si8 0.000000 0.000000 0.116659
O O1 0.242503 0.269177 0.577318
O O2 0.215013 0.533923 0.676949
O O3 0.151429 0.596857 0.570074
O O4 0.554129 0.613386 0.158566
O O5 0.500000 0.000000 0.166759
O O6 0.606668 0.983263 0.226344
O O7 0.602235 0.987610 0.096403
O O8 0.537655 0.793715 0.777945
O O9 0.453518 0.861290 0.859642
O O10 0.238483 0.263094 0.776235
O O11 0.153677 0.626427 0.782226
O O12 0.601258 0.541731 0.859082
O O13 0.467734 0.687537 0.068917
O O14 0.404147 0.757386 0.969550
O O15 0.500000 0.000000 0.422472
#
# Coordination Sequence:
#
# PCOD9366965 Si02
#       8
#     8   8   4   8   8   8   8   4
#     4  10  23  44  66  98 133 179 229 289 346 401
#     4  10  22  37  59 100 128 165 221 278 344 398
#     4  10  24  41  68  92 143 178 214 270 347 420
#     4  10  23  43  69  97 134 179 235 289 350 406
#     4  11  23  43  64  99 133 183 224 282 349 418
#     4  11  22  40  66  97 131 178 225 280 340 414
#     4  10  23  41  63  96 136 180 220 263 353 425
#     4  10  24  37  66  98 137 166 218 286 343 414
#
# _framework density 22.648738999999999
#
# number of rings (size 3 to 8) (size 9 to 14) (size 15 to 20)
#    0.000    1.714    2.143    1.286    7.000    6.286 
#    0.000    1.429    0.000    0.000    0.000    0.000 
#    0.000    0.000    0.000    0.000    0.000    0.000 
#
# Total GULP energy -156287.812796 kJ/mol
# GULP energy per Si atom -5581.707600 kJ/mol
# Density = 2.259719 g / cm^3
# Si number density = 22.648739 Si / 1000 Ang^3
#
#
#
# Elastic Constant Matrix: (Units=GPa)
#
#
# Indices 1 2 3 4 5 6 
#
# 1 64.8140 5.7245 23.4834 0.0000 0.0000 0.0000
# 2 5.7245 61.2984 36.9102 0.0000 0.0000 0.0000
# 3 23.4834 36.9102 101.7977 0.0000 0.0000 0.0000
# 4 0.0000 0.0000 0.0000 16.3676 0.0000 0.0000
# 5 0.0000 0.0000 0.0000 0.0000 15.0616 0.0000
# 6 0.0000 0.0000 0.0000 0.0000 0.0000 40.3963
#
#
#
# Elastic Compliance Matrix: (Units=1/GPa)
#
#
# Indices 1 2 3 4 5 6 
#
# 1 0.016882 0.000983 -0.004251 0.000000 0.000000 0.000000
# 2 0.000983 0.020927 -0.007815 0.000000 0.000000 0.000000
# 3 -0.004251 -0.007815 0.013638 0.000000 0.000000 0.000000
# 4 0.000000 0.000000 0.000000 0.061096 0.000000 0.000000
# 5 0.000000 0.000000 0.000000 0.000000 0.066394 0.000000
# 6 0.000000 0.000000 0.000000 0.000000 0.000000 0.024755
#
#
# Mechanical properties :
#
#
# Convention : Reuss Voigt Hill
#
# Bulk Modulus (GPa) = 34.15078 40.01625 37.08351
# Shear Modulus (GPa) = 21.22082 25.15125 23.18603
#
# Velocity S-wave (km/s) = 3.06429 3.33602 3.20304
# Velocity P-wave (km/s) = 5.25652 5.70485 5.48527
#
# Compressibility (1/GPa) = 0.02928191
#
# Stress axis : x y z
#
# Youngs Moduli (GPa) = 59.23425 47.78430 73.32710
#
# Poissons Ratio (x) = -0.04698 0.31171
# Poissons Ratio (y) = -0.05823 0.57303
# Poissons Ratio (z) = 0.25180 0.37342
#
# Static dielectric constant tensor:
#      x y z
#    x 1.857590 0.000000 0.000000 
#    y 0.000000 2.171870 0.000000 
#    z 0.000000 0.000000 1.852580 
# 
# From -- ./inp_files/11744.got.cif
#   From: 2010.05.17/outbox.cif.g08.bks.cpg/sg41_6_cif.got.tgz:11744.got - 2010.06.03 18:54:24.
