data_PCOD9366615
_publ_section_title
;
Structure prediction by ZEFSAII (Michael W. Deem and Ramdas Pophale) SiO2 
 PCOD9366615
Probable space group: A B A 2
;
_chemical_formula_sum "Si O2"
_cell_formula_units_Z 64
_cell_length_a 8.329864
_cell_length_b 13.846492
_cell_length_c 23.324849
_cell_angle_alpha 90.000000
_cell_angle_beta 90.000000
_cell_angle_gamma 90.000000
_cell_volume 2690.273978
_symmetry_space_group_name_H-M "A B A 2"
_symmetry_group_IT_number 41
_symmetry_cell_setting 'orthorhombic'
loop_
_space_group_symop_operation_xyz
x,y,z
-x,-y,z
1/2-x,y,1/2+z
1/2+x,-y,1/2+z
x,1/2+y,1/2+z
-x,1/2-y,1/2+z
1/2-x,1/2+y,z
1/2+x,1/2-y,z
loop_
_atom_site_type_symbol
_atom_site_label
_atom_site_fract_x
_atom_site_fract_y
_atom_site_fract_z
Si Si1 0.194767 0.628081 0.774490
Si Si2 0.677456 0.873418 0.900334
Si Si3 0.491130 0.727392 0.719642
Si Si4 0.669216 0.561374 0.524775
Si Si5 0.508045 0.777695 0.086878
Si Si6 0.687630 0.364818 0.025454
Si Si7 0.342365 0.932231 0.289713
Si Si8 0.184946 0.892874 0.402412
O O1 0.247753 0.655611 0.839254
O O2 0.321656 0.677143 0.732282
O O3 0.027823 0.677696 0.757410
O O4 0.208788 0.512075 0.772595
O O5 0.490258 0.845979 0.897629
O O6 0.676114 0.990009 0.899811
O O7 0.765007 0.845945 0.958965
O O8 0.501532 0.749199 0.652858
O O9 0.615720 0.644935 0.741135
O O10 0.500000 0.500000 0.512093
O O11 0.618794 0.636214 0.573179
O O12 0.798783 0.479078 0.535561
O O13 0.725998 0.620551 0.468887
O O14 0.470401 0.688357 0.045525
O O15 0.676748 0.820775 0.067114
O O16 0.298666 0.875650 0.348337
O O17 0.500000 0.000000 0.299349
#
# Coordination Sequence:
#
# PCOD9366615 Si02
#       8
#     8   8   8   8   8   8   8   8
#     4  10  23  39  59  86 119 157 200 254 308 364
#     4   9  17  34  61  89 115 147 195 246 302 365
#     4  11  24  40  56  85 122 161 206 247 300 363
#     4   9  17  36  62  87 108 156 199 236 300 369
#     4  11  22  38  61  84 116 160 204 246 292 362
#     4  10  21  38  61  89 115 149 201 252 302 360
#     4   9  21  38  59  87 122 160 200 252 311 364
#     4   9  14  33  61  87 117 144 194 245 297 365
#
# _framework density 23.789399
#
# number of rings (size 3 to 8) (size 9 to 14) (size 15 to 20)
#    0.000    2.250    3.750    0.750    1.750    7.500 
#    0.000    4.375    0.000    3.000    0.000    0.000 
#    0.000    0.000    0.000    0.000    0.000    0.000 
#
# Total GULP energy -178760.967328 kJ/mol
# GULP energy per Si atom -5586.280229 kJ/mol
# Density = 2.373525 g / cm^3
# Si number density = 23.789399 Si / 1000 Ang^3
#
#
#
# Elastic Constant Matrix: (Units=GPa)
#
#
# Indices 1 2 3 4 5 6 
#
# 1 30.2011 13.9714 16.3480 0.0000 0.0000 0.0000
# 2 13.9714 91.6648 6.2024 0.0000 0.0000 0.0000
# 3 16.3480 6.2024 139.4929 0.0000 0.0000 0.0000
# 4 0.0000 0.0000 0.0000 20.3456 0.0000 0.0000
# 5 0.0000 0.0000 0.0000 0.0000 30.8681 0.0000
# 6 0.0000 0.0000 0.0000 0.0000 0.0000 37.4817
#
#
#
# Elastic Compliance Matrix: (Units=1/GPa)
#
#
# Indices 1 2 3 4 5 6 
#
# 1 0.037928 -0.005497 -0.004201 0.000000 0.000000 0.000000
# 2 -0.005497 0.011739 0.000122 0.000000 0.000000 0.000000
# 3 -0.004201 0.000122 0.007656 0.000000 0.000000 0.000000
# 4 0.000000 0.000000 0.000000 0.049151 0.000000 0.000000
# 5 0.000000 0.000000 0.000000 0.000000 0.032396 0.000000
# 6 0.000000 0.000000 0.000000 0.000000 0.000000 0.026680
#
#
# Mechanical properties :
#
#
# Convention : Reuss Voigt Hill
#
# Bulk Modulus (GPa) = 26.19690 37.15581 31.67635
# Shear Modulus (GPa) = 25.32631 32.72822 29.02727
#
# Velocity S-wave (km/s) = 3.26637 3.71313 3.49689
# Velocity P-wave (km/s) = 5.02608 5.83401 5.44505
#
# Compressibility (1/GPa) = 0.03817246
#
# Stress axis : x y z
#
# Youngs Moduli (GPa) = 26.36568 85.18726 130.62193
#
# Poissons Ratio (x) = 0.46825 0.54869
# Poissons Ratio (y) = 0.14492 -0.01597
# Poissons Ratio (z) = 0.11075 -0.01041
#
# Static dielectric constant tensor:
#      x y z
#    x 1.996280 0.000000 0.000000 
#    y 0.000000 1.942600 0.000000 
#    z 0.000000 0.000000 1.855790 
# 
# From -- ./inp_files/12014.got.cif
#   From: 2010.05.17/outbox.cif.g08.bks.cpg/sg41_7_cif.got.tgz:12014.got - 2010.06.03 18:54:24.
