data_PCOD9366483
_publ_section_title
;
Structure prediction by ZEFSAII (Michael W. Deem and Ramdas Pophale) SiO2 
 PCOD9366483
Probable space group: A B A 2
;
_chemical_formula_sum "Si O2"
_cell_formula_units_Z 32
_cell_length_a 19.186361
_cell_length_b 13.276156
_cell_length_c 5.053366
_cell_angle_alpha 90.000000
_cell_angle_beta 90.000000
_cell_angle_gamma 90.000000
_cell_volume 1287.199056
_symmetry_space_group_name_H-M "A B A 2"
_symmetry_group_IT_number 41
_symmetry_cell_setting 'orthorhombic'
loop_
_space_group_symop_operation_xyz
x,y,z
-x,-y,z
1/2-x,y,1/2+z
1/2+x,-y,1/2+z
x,1/2+y,1/2+z
-x,1/2-y,1/2+z
1/2-x,1/2+y,z
1/2+x,1/2-y,z
loop_
_atom_site_type_symbol
_atom_site_label
_atom_site_fract_x
_atom_site_fract_y
_atom_site_fract_z
Si Si1 0.908504 0.823350 0.705570
Si Si2 0.378245 0.876612 0.970345
Si Si3 0.291702 0.060949 0.889337
Si Si4 0.035777 0.370401 0.488064
O O1 0.857002 0.879736 0.510774
O O2 0.960349 0.751301 0.536455
O O3 0.869736 0.739806 0.886110
O O4 0.958968 0.892796 0.881683
O O5 0.406612 0.888546 0.263949
O O6 0.311028 0.943672 0.921200
O O7 0.437392 0.914676 0.763156
O O8 0.228007 0.083053 0.088801
#
# Coordination Sequence:
#
# PCOD9366483 Si02
#       4
#     8   8   8   8
#     4  10  23  43  74  97 135 170 237 284 365 402
#     4  10  22  43  66  96 137 171 223 288 351 406
#     4  12  29  44  63 100 141 190 239 268 333 437
#     4  10  20  42  71 101 128 168 222 300 363 407
#
# _framework density 24.860178000000001
#
# number of rings (size 3 to 8) (size 9 to 14) (size 15 to 20)
#    1.500    0.000    2.500    1.500    3.500    3.000 
#    0.000    5.000    0.000    0.000    0.000    0.000 
#    0.000    0.000    0.000    0.000    0.000    0.000 
#
# Total GULP energy -89489.936392 kJ/mol
# GULP energy per Si atom -5593.121024 kJ/mol
# Density = 2.480360 g / cm^3
# Si number density = 24.860178 Si / 1000 Ang^3
#
#
#
# Elastic Constant Matrix: (Units=GPa)
#
#
# Indices 1 2 3 4 5 6 
#
# 1 59.7827 21.7960 3.1677 0.0000 0.0000 0.0000
# 2 21.7960 44.7196 17.0861 0.0000 0.0000 0.0000
# 3 3.1677 17.0861 95.6609 0.0000 0.0000 0.0000
# 4 0.0000 0.0000 0.0000 31.1743 0.0000 0.0000
# 5 0.0000 0.0000 0.0000 0.0000 46.7138 0.0000
# 6 0.0000 0.0000 0.0000 0.0000 0.0000 53.6682
#
#
#
# Elastic Compliance Matrix: (Units=1/GPa)
#
#
# Indices 1 2 3 4 5 6 
#
# 1 0.020466 -0.010428 0.001185 0.000000 0.000000 0.000000
# 2 -0.010428 0.029312 -0.004890 0.000000 0.000000 0.000000
# 3 0.001185 -0.004890 0.011288 0.000000 0.000000 0.000000
# 4 0.000000 0.000000 0.000000 0.032078 0.000000 0.000000
# 5 0.000000 0.000000 0.000000 0.000000 0.021407 0.000000
# 6 0.000000 0.000000 0.000000 0.000000 0.000000 0.018633
#
#
# Mechanical properties :
#
#
# Convention : Reuss Voigt Hill
#
# Bulk Modulus (GPa) = 30.48771 31.58474 31.03622
# Shear Modulus (GPa) = 29.00502 36.85217 32.92859
#
# Velocity S-wave (km/s) = 3.41944 3.85434 3.64339
# Velocity P-wave (km/s) = 5.28019 5.70443 5.49640
#
# Compressibility (1/GPa) = 0.03280010
#
# Stress axis : x y z
#
# Youngs Moduli (GPa) = 48.86084 34.11524 88.59115
#
# Poissons Ratio (x) = 0.35575 -0.10496
# Poissons Ratio (y) = 0.50951 0.43323
# Poissons Ratio (z) = -0.05789 0.16683
#
# Static dielectric constant tensor:
#      x y z
#    x 1.974950 0.000000 0.000000 
#    y 0.000000 2.031320 0.000000 
#    z 0.000000 0.000000 1.928120 
# 
# From -- ./inp_files/397.got.cif
#   From: 2010.05.17/outbox.cif.g08.bks.cpg/sg41_1_cif.got.tgz:397.got - 2010.06.03 18:54:24.
