data_PCOD9366129
_publ_section_title
;
Structure prediction by ZEFSAII (Michael W. Deem and Ramdas Pophale) SiO2 
 PCOD9366129
Probable space group: A B A 2
;
_chemical_formula_sum "Si O2"
_cell_formula_units_Z 64
_cell_length_a 14.597735
_cell_length_b 24.442299
_cell_length_c 9.974512
_cell_angle_alpha 90.000000
_cell_angle_beta 90.000000
_cell_angle_gamma 90.000000
_cell_volume 3558.927861
_symmetry_space_group_name_H-M "A B A 2"
_symmetry_group_IT_number 41
_symmetry_cell_setting 'orthorhombic'
loop_
_space_group_symop_operation_xyz
x,y,z
-x,-y,z
1/2-x,y,1/2+z
1/2+x,-y,1/2+z
x,1/2+y,1/2+z
-x,1/2-y,1/2+z
1/2-x,1/2+y,z
1/2+x,1/2-y,z
loop_
_atom_site_type_symbol
_atom_site_label
_atom_site_fract_x
_atom_site_fract_y
_atom_site_fract_z
Si Si1 0.849746 0.995554 0.634460
Si Si2 0.542868 0.192083 0.992585
Si Si3 0.596594 0.120555 0.449252
Si Si4 0.220353 0.269351 0.154429
Si Si5 0.498386 0.409187 0.684995
Si Si6 0.863264 0.137583 0.239959
Si Si7 0.356141 0.253217 0.928648
Si Si8 0.759785 0.538425 0.873328
O O1 0.803478 0.003126 0.491020
O O2 0.777363 0.001788 0.753153
O O3 0.917545 0.047795 0.650478
O O4 0.908793 0.941451 0.656082
O O5 0.582327 0.170959 0.851568
O O6 0.456088 0.229733 0.959260
O O7 0.627738 0.218861 0.072204
O O8 0.511649 0.142539 0.088500
O O9 0.518545 0.106711 0.340715
O O10 0.577540 0.124380 0.607649
O O11 0.633761 0.180970 0.414681
O O12 0.676510 0.075504 0.431267
O O13 0.275468 0.325628 0.193246
O O14 0.191942 0.237586 0.288895
O O15 0.290765 0.240358 0.053813
O O16 0.828881 0.082406 0.309588
#
# Coordination Sequence:
#
# PCOD9366129 Si02
#       8
#     8   8   8   8   8   8   8   8
#     4  10  21  35  64  87 115 154 202 248 318 359
#     4  12  23  38  61  91 128 163 207 254 323 378
#     4  10  20  33  59  89 117 148 200 256 301 357
#     4  11  21  39  56  92 123 159 212 260 297 368
#     4  10  21  40  57  87 123 155 191 258 314 368
#     4  11  19  34  60  91 119 153 206 263 307 347
#     4  11  24  36  62  91 122 168 209 255 312 373
#     4  11  17  35  60  92 111 151 202 257 298 361
#
# _framework density 17.982942999999999
#
# number of rings (size 3 to 8) (size 9 to 14) (size 15 to 20)
#    0.000    1.250    6.250    1.500    3.500    0.000 
#    0.000    2.500    2.750    0.000    0.000    0.000 
#    0.000    0.000    0.000    0.000    0.000    0.000 
#
# Total GULP energy -178546.618002 kJ/mol
# GULP energy per Si atom -5579.581813 kJ/mol
# Density = 1.794201 g / cm^3
# Si number density = 17.982943 Si / 1000 Ang^3
#
#
#
# Elastic Constant Matrix: (Units=GPa)
#
#
# Indices 1 2 3 4 5 6 
#
# 1 104.5008 31.5559 72.3535 0.0000 0.0000 0.0000
# 2 31.5559 15.7519 26.4765 0.0000 0.0000 0.0000
# 3 72.3535 26.4765 169.6692 0.0000 0.0000 0.0000
# 4 0.0000 0.0000 0.0000 16.7132 0.0000 0.0000
# 5 0.0000 0.0000 0.0000 0.0000 29.2171 0.0000
# 6 0.0000 0.0000 0.0000 0.0000 0.0000 18.0730
#
#
#
# Elastic Compliance Matrix: (Units=1/GPa)
#
#
# Indices 1 2 3 4 5 6 
#
# 1 0.026107 -0.045529 -0.004028 0.000000 0.000000 0.000000
# 2 -0.045529 0.165457 -0.006404 0.000000 0.000000 0.000000
# 3 -0.004028 -0.006404 0.008611 0.000000 0.000000 0.000000
# 4 0.000000 0.000000 0.000000 0.059833 0.000000 0.000000
# 5 0.000000 0.000000 0.000000 0.000000 0.034226 0.000000
# 6 0.000000 0.000000 0.000000 0.000000 0.000000 0.055331
#
#
# Mechanical properties :
#
#
# Convention : Reuss Voigt Hill
#
# Bulk Modulus (GPa) = 11.33110 61.18819 36.25965
# Shear Modulus (GPa) = 10.18528 23.43641 16.81084
#
# Velocity S-wave (km/s) = 2.38247 3.61398 3.06080
# Velocity P-wave (km/s) = 3.72598 7.17733 5.71826
#
# Compressibility (1/GPa) = 0.08825265
#
# Stress axis : x y z
#
# Youngs Moduli (GPa) = 38.30457 6.04386 116.13175
#
# Poissons Ratio (x) = 0.27517 0.46780
# Poissons Ratio (y) = 1.74396 0.74371
# Poissons Ratio (z) = 0.15430 0.03870
#
# Static dielectric constant tensor:
#      x y z
#    x 1.613870 0.000000 0.000000 
#    y 0.000000 1.597150 0.000000 
#    z 0.000000 0.000000 1.641890 
# 
# From -- ./inp_files/2799.got.cif
#   From: 2010.05.17/outbox.cif.g08.bks.cpg/sg41_2_cif.got.tgz:2799.got - 2010.06.03 18:54:24.
