data_PCOD9366118
_publ_section_title
;
Structure prediction by ZEFSAII (Michael W. Deem and Ramdas Pophale) SiO2 
 PCOD9366118
Probable space group: A B A 2
;
_chemical_formula_sum "Si O2"
_cell_formula_units_Z 64
_cell_length_a 14.222459
_cell_length_b 16.544806
_cell_length_c 10.309746
_cell_angle_alpha 90.000000
_cell_angle_beta 90.000000
_cell_angle_gamma 90.000000
_cell_volume 2425.963908
_symmetry_space_group_name_H-M "A B A 2"
_symmetry_group_IT_number 41
_symmetry_cell_setting 'orthorhombic'
loop_
_space_group_symop_operation_xyz
x,y,z
-x,-y,z
1/2-x,y,1/2+z
1/2+x,-y,1/2+z
x,1/2+y,1/2+z
-x,1/2-y,1/2+z
1/2-x,1/2+y,z
1/2+x,1/2-y,z
loop_
_atom_site_type_symbol
_atom_site_label
_atom_site_fract_x
_atom_site_fract_y
_atom_site_fract_z
Si Si1 0.625952 0.559314 0.384010
Si Si2 0.141553 0.534907 0.631283
Si Si3 0.182466 0.180091 0.284717
Si Si4 0.829846 0.916606 0.526635
Si Si5 0.801280 0.241568 0.091878
Si Si6 0.348436 0.913203 0.431857
Si Si7 0.409501 0.269283 0.485240
Si Si8 0.533519 0.197780 0.280308
O O1 0.606393 0.523751 0.243132
O O2 0.601591 0.486592 0.482682
O O3 0.739310 0.573338 0.395194
O O4 0.579355 0.643350 0.417280
O O5 0.128845 0.627350 0.673313
O O6 0.255263 0.539572 0.618677
O O7 0.112751 0.494627 0.497318
O O8 0.214724 0.113925 0.388705
O O9 0.257289 0.245967 0.235033
O O10 0.101819 0.234488 0.344749
O O11 0.852569 0.829262 0.584911
O O12 0.701543 0.243299 0.014325
O O13 0.847961 0.158404 0.044458
O O14 0.410894 0.884317 0.311799
O O15 0.445816 0.205482 0.377867
O O16 0.459472 0.279651 0.627664
#
# Coordination Sequence:
#
# PCOD9366118 Si02
#       8
#     8   8   8   8   8   8   8   8
#     4   9  20  35  59  88 120 154 202 260 314 364
#     4   9  19  32  56  90 120 153 200 252 322 366
#     4   9  18  35  57  86 124 158 200 251 316 365
#     4   9  16  33  55  91 117 153 195 255 313 372
#     4   9  18  34  59  88 119 153 200 265 313 361
#     4  10  20  32  62  89 115 153 210 256 313 363
#     4  10  24  40  58  89 129 162 211 255 314 370
#     4  11  23  41  62  89 123 171 209 259 308 382
#
# _framework density 26.381264999999999
#
# number of rings (size 3 to 8) (size 9 to 14) (size 15 to 20)
#    0.000    2.500    1.250    0.000    8.750    0.000 
#    0.000    2.500    2.750    2.250   26.000    0.000 
#    0.000    0.000    0.000    0.000    0.000    0.000 
#
# Total GULP energy -178317.852448 kJ/mol
# GULP energy per Si atom -5572.432889 kJ/mol
# Density = 2.632122 g / cm^3
# Si number density = 26.381265 Si / 1000 Ang^3
#
#
#
# Elastic Constant Matrix: (Units=GPa)
#
#
# Indices 1 2 3 4 5 6 
#
# 1 60.9519 9.9082 17.0503 0.0000 0.0000 0.0000
# 2 9.9082 87.9969 16.7255 0.0000 0.0000 0.0000
# 3 17.0503 16.7255 92.2068 0.0000 0.0000 0.0000
# 4 0.0000 0.0000 0.0000 51.4620 0.0000 0.0000
# 5 0.0000 0.0000 0.0000 0.0000 17.8603 0.0000
# 6 0.0000 0.0000 0.0000 0.0000 0.0000 23.2814
#
#
#
# Elastic Compliance Matrix: (Units=1/GPa)
#
#
# Indices 1 2 3 4 5 6 
#
# 1 0.017467 -0.001401 -0.002976 0.000000 0.000000 0.000000
# 2 -0.001401 0.011882 -0.001896 0.000000 0.000000 0.000000
# 3 -0.002976 -0.001896 0.011739 0.000000 0.000000 0.000000
# 4 0.000000 0.000000 0.000000 0.019432 0.000000 0.000000
# 5 0.000000 0.000000 0.000000 0.000000 0.055990 0.000000
# 6 0.000000 0.000000 0.000000 0.000000 0.000000 0.042953
#
#
# Mechanical properties :
#
#
# Convention : Reuss Voigt Hill
#
# Bulk Modulus (GPa) = 35.03594 36.50263 35.76929
# Shear Modulus (GPa) = 27.54473 31.68550 29.61512
#
# Velocity S-wave (km/s) = 3.23476 3.46939 3.35413
# Velocity P-wave (km/s) = 5.22121 5.46951 5.34680
#
# Compressibility (1/GPa) = 0.02854212
#
# Stress axis : x y z
#
# Youngs Moduli (GPa) = 57.25238 84.15939 85.18336
#
# Poissons Ratio (x) = 0.11792 0.25348
# Poissons Ratio (y) = 0.08022 0.16153
# Poissons Ratio (z) = 0.17036 0.15959
#
# Static dielectric constant tensor:
#      x y z
#    x 2.133650 0.000000 0.000000 
#    y 0.000000 2.051460 0.000000 
#    z 0.000000 0.000000 2.177200 
# 
# From -- ./inp_files/5739.got.cif
#   From: 2010.05.17/outbox.cif.g08.bks.cpg/sg41_3_cif.got.tgz:5739.got - 2010.06.03 18:54:24.
