data_PCOD9366045
_publ_section_title
;
Structure prediction by ZEFSAII (Michael W. Deem and Ramdas Pophale) SiO2 
 PCOD9366045
Probable space group: A B A 2
;
_chemical_formula_sum "Si O2"
_cell_formula_units_Z 64
_cell_length_a 16.599313
_cell_length_b 14.332347
_cell_length_c 12.104197
_cell_angle_alpha 90.000000
_cell_angle_beta 90.000000
_cell_angle_gamma 90.000000
_cell_volume 2879.674574
_symmetry_space_group_name_H-M "A B A 2"
_symmetry_group_IT_number 41
_symmetry_cell_setting 'orthorhombic'
loop_
_space_group_symop_operation_xyz
x,y,z
-x,-y,z
1/2-x,y,1/2+z
1/2+x,-y,1/2+z
x,1/2+y,1/2+z
-x,1/2-y,1/2+z
1/2-x,1/2+y,z
1/2+x,1/2-y,z
loop_
_atom_site_type_symbol
_atom_site_label
_atom_site_fract_x
_atom_site_fract_y
_atom_site_fract_z
Si Si1 0.172663 0.839667 0.587650
Si Si2 0.639463 0.546776 0.369408
Si Si3 0.325935 0.999569 0.330536
Si Si4 0.084271 0.619142 0.170735
Si Si5 0.588270 0.357803 0.430756
Si Si6 0.775445 0.815394 0.928522
Si Si7 0.322985 0.803450 0.722258
Si Si8 0.066852 0.834015 0.806724
O O1 0.182893 0.742816 0.523203
O O2 0.262525 0.854106 0.638073
O O3 0.115303 0.823338 0.691580
O O4 0.144868 0.913244 0.494405
O O5 0.732611 0.528737 0.334296
O O6 0.589320 0.452390 0.359902
O O7 0.615778 0.627905 0.284786
O O8 0.356855 0.035644 0.210096
O O9 0.326608 0.092960 0.402667
O O10 0.381257 0.913930 0.368286
O O11 0.129848 0.717922 0.169494
O O12 0.017665 0.625083 0.266093
O O13 0.049010 0.614213 0.047745
O O14 0.684112 0.343432 0.453717
O O15 0.559602 0.262577 0.373540
O O16 0.773155 0.748336 0.820652
#
# Coordination Sequence:
#
# PCOD9366045 Si02
#       8
#     8   8   8   8   8   8   8   8
#     4  11  19  38  66  94 128 165 215 265 331 380
#     4  10  22  37  67 101 120 162 217 280 320 375
#     4  10  21  40  61  95 127 160 217 266 320 386
#     4  11  25  40  65  92 132 178 212 264 338 399
#     4  11  22  40  62  95 125 165 225 268 323 391
#     4   9  19  35  63  96 124 159 210 275 314 375
#     4  10  19  38  62  93 128 163 210 269 323 382
#     4  12  24  42  64  93 134 177 211 271 330 398
#
# _framework density 22.224734000000002
#
# number of rings (size 3 to 8) (size 9 to 14) (size 15 to 20)
#    0.000    1.500    3.750    1.875    0.000    3.000 
#    2.250    1.875    0.000    0.000    0.000    0.000 
#    0.000    0.000    0.000    0.000    0.000    0.000 
#
# Total GULP energy -178688.441241 kJ/mol
# GULP energy per Si atom -5584.013789 kJ/mol
# Density = 2.217415 g / cm^3
# Si number density = 22.224734 Si / 1000 Ang^3
#
#
#
# Elastic Constant Matrix: (Units=GPa)
#
#
# Indices 1 2 3 4 5 6 
#
# 1 61.4829 5.4224 8.3868 0.0000 0.0000 0.0000
# 2 5.4224 118.9174 36.2859 0.0000 0.0000 0.0000
# 3 8.3868 36.2859 73.4844 0.0000 0.0000 0.0000
# 4 0.0000 0.0000 0.0000 32.1300 0.0000 0.0000
# 5 0.0000 0.0000 0.0000 0.0000 17.6629 0.0000
# 6 0.0000 0.0000 0.0000 0.0000 0.0000 20.6707
#
#
#
# Elastic Compliance Matrix: (Units=1/GPa)
#
#
# Indices 1 2 3 4 5 6 
#
# 1 0.016526 -0.000210 -0.001783 0.000000 0.000000 0.000000
# 2 -0.000210 0.009904 -0.004866 0.000000 0.000000 0.000000
# 3 -0.001783 -0.004866 0.016215 0.000000 0.000000 0.000000
# 4 0.000000 0.000000 0.000000 0.031124 0.000000 0.000000
# 5 0.000000 0.000000 0.000000 0.000000 0.056616 0.000000
# 6 0.000000 0.000000 0.000000 0.000000 0.000000 0.048378
#
#
# Mechanical properties :
#
#
# Convention : Reuss Voigt Hill
#
# Bulk Modulus (GPa) = 34.56929 39.34167 36.95548
# Shear Modulus (GPa) = 24.73755 27.67868 26.20811
#
# Velocity S-wave (km/s) = 3.33988 3.53285 3.43772
# Velocity P-wave (km/s) = 5.51917 5.86358 5.69398
#
# Compressibility (1/GPa) = 0.02892741
#
# Stress axis : x y z
#
# Youngs Moduli (GPa) = 60.50944 100.97267 61.67218
#
# Poissons Ratio (x) = 0.02117 0.10994
# Poissons Ratio (y) = 0.01268 0.30012
# Poissons Ratio (z) = 0.10787 0.49137
#
# Static dielectric constant tensor:
#      x y z
#    x 1.883200 0.000000 0.000000 
#    y 0.000000 1.835310 0.000000 
#    z 0.000000 0.000000 1.834790 
# 
# From -- ./inp_files/6044.got.cif
#   From: 2010.05.17/outbox.cif.g08.bks.cpg/sg41_4_cif.got.tgz:6044.got - 2010.06.03 18:54:24.
