data_PCOD9366943
_publ_section_title
;
Structure prediction by ZEFSAII (Michael W. Deem and Ramdas Pophale) SiO2 
 PCOD9366943
Probable space group: A B A 2
;
_chemical_formula_sum "Si O2"
_cell_formula_units_Z 48
_cell_length_a 9.304949
_cell_length_b 14.723382
_cell_length_c 13.274037
_cell_angle_alpha 90.000000
_cell_angle_beta 90.000000
_cell_angle_gamma 90.000000
_cell_volume 1818.547298
_symmetry_space_group_name_H-M "A B A 2"
_symmetry_group_IT_number 41
_symmetry_cell_setting 'orthorhombic'
loop_
_space_group_symop_operation_xyz
x,y,z
-x,-y,z
1/2-x,y,1/2+z
1/2+x,-y,1/2+z
x,1/2+y,1/2+z
-x,1/2-y,1/2+z
1/2-x,1/2+y,z
1/2+x,1/2-y,z
loop_
_atom_site_type_symbol
_atom_site_label
_atom_site_fract_x
_atom_site_fract_y
_atom_site_fract_z
Si Si1 0.500000 0.000000 0.847380
Si Si2 0.672566 0.928444 0.662483
Si Si3 0.374336 0.810879 0.859438
Si Si4 0.129369 0.419782 0.540216
Si Si5 0.799363 0.752847 0.059036
Si Si6 0.000000 0.500000 0.349652
Si Si7 0.431586 0.822118 0.245363
O O1 0.376108 0.042889 0.773514
O O2 0.567438 0.090553 0.897313
O O3 0.522625 0.914509 0.599175
O O4 0.749638 0.837241 0.627389
O O5 0.732201 0.019288 0.610490
O O6 0.226371 0.823657 0.798143
O O7 0.489145 0.767693 0.784474
O O8 0.362402 0.735104 0.947644
O O9 0.175042 0.317303 0.531560
O O10 0.117829 0.468598 0.432394
O O11 0.906030 0.695076 0.128535
O O12 0.017161 0.587983 0.279740
#
# Coordination Sequence:
#
# PCOD9366943 Si02
#       7
#     4   8   8   8   8   4   8
#     4  10  21  47  68 104 158 200 248 320 402 466
#     4   9  19  41  72  93 138 196 246 310 387 459
#     4  12  27  47  77 115 158 204 269 337 404 478
#     4   9  19  41  72  98 139 200 251 309 396 460
#     4  12  24  43  76 110 147 199 272 317 395 486
#     4  10  21  47  66 104 160 200 250 322 406 470
#     4  12  27  47  78 113 155 207 266 329 404 488
#
# _framework density 26.394694999999999
#
# number of rings (size 3 to 8) (size 9 to 14) (size 15 to 20)
#    0.000    1.667    3.333    4.000    0.000    2.000 
#    6.000    0.000    0.000    0.000    0.000    0.000 
#    0.000    0.000    0.000    0.000    0.000    0.000 
#
# Total GULP energy -134115.093931 kJ/mol
# GULP energy per Si atom -5588.128914 kJ/mol
# Density = 2.633462 g / cm^3
# Si number density = 26.394695 Si / 1000 Ang^3
#
#
#
# Elastic Constant Matrix: (Units=GPa)
#
#
# Indices 1 2 3 4 5 6 
#
# 1 65.1245 20.2685 -0.4289 0.0000 0.0000 0.0000
# 2 20.2685 143.2742 1.5575 0.0000 0.0000 0.0000
# 3 -0.4289 1.5575 91.0137 0.0000 0.0000 0.0000
# 4 0.0000 0.0000 0.0000 55.8782 0.0000 0.0000
# 5 0.0000 0.0000 0.0000 0.0000 20.5413 0.0000
# 6 0.0000 0.0000 0.0000 0.0000 0.0000 45.7390
#
#
#
# Elastic Compliance Matrix: (Units=1/GPa)
#
#
# Indices 1 2 3 4 5 6 
#
# 1 0.016064 -0.002274 0.000115 0.000000 0.000000 0.000000
# 2 -0.002274 0.007303 -0.000136 0.000000 0.000000 0.000000
# 3 0.000115 -0.000136 0.010990 0.000000 0.000000 0.000000
# 4 0.000000 0.000000 0.000000 0.017896 0.000000 0.000000
# 5 0.000000 0.000000 0.000000 0.000000 0.048682 0.000000
# 6 0.000000 0.000000 0.000000 0.000000 0.000000 0.021863
#
#
# Mechanical properties :
#
#
# Convention : Reuss Voigt Hill
#
# Bulk Modulus (GPa) = 33.59425 38.02296 35.80860
# Shear Modulus (GPa) = 36.41393 42.96606 39.69000
#
# Velocity S-wave (km/s) = 3.71832 4.03901 3.88198
# Velocity P-wave (km/s) = 5.58478 6.01567 5.80423
#
# Compressibility (1/GPa) = 0.02976700
#
# Stress axis : x y z
#
# Youngs Moduli (GPa) = 62.25259 136.93474 90.98996
#
# Poissons Ratio (x) = 0.31135 -0.01043
# Poissons Ratio (y) = 0.14154 0.01235
# Poissons Ratio (z) = -0.00713 0.01858
#
# Static dielectric constant tensor:
#      x y z
#    x 2.214570 0.000000 0.000000 
#    y 0.000000 2.222970 0.000000 
#    z 0.000000 0.000000 2.026070 
# 
# From -- ./inp_files/7927.got.cif
#   From: 2010.05.17/outbox.cif.g08.bks.cpg/sg41_4_cif.got.tgz:7927.got - 2010.06.03 18:54:24.
