data_PCOD9366211
_publ_section_title
;
Structure prediction by ZEFSAII (Michael W. Deem and Ramdas Pophale) SiO2 
 PCOD9366211
Probable space group: A B A 2
;
_chemical_formula_sum "Si O2"
_cell_formula_units_Z 60
_cell_length_a 5.348002
_cell_length_b 18.075909
_cell_length_c 30.473077
_cell_angle_alpha 90.000000
_cell_angle_beta 90.000000
_cell_angle_gamma 90.000000
_cell_volume 2945.832277
_symmetry_space_group_name_H-M "A B A 2"
_symmetry_group_IT_number 41
_symmetry_cell_setting 'orthorhombic'
loop_
_space_group_symop_operation_xyz
x,y,z
-x,-y,z
1/2-x,y,1/2+z
1/2+x,-y,1/2+z
x,1/2+y,1/2+z
-x,1/2-y,1/2+z
1/2-x,1/2+y,z
1/2+x,1/2-y,z
loop_
_atom_site_type_symbol
_atom_site_label
_atom_site_fract_x
_atom_site_fract_y
_atom_site_fract_z
Si Si1 0.141380 0.704285 0.937630
Si Si2 0.622194 0.078730 0.442125
Si Si3 0.685317 0.367950 0.861749
Si Si4 0.460989 0.699664 0.586526
Si Si5 0.584202 0.296873 0.685107
Si Si6 0.510872 0.590084 0.507825
Si Si7 0.000000 0.000000 0.380035
Si Si8 0.533977 0.702651 0.777348
O O1 0.375623 0.756961 0.947922
O O2 0.124239 0.689883 0.884308
O O3 0.155070 0.633267 0.970983
O O4 0.478048 0.124785 0.405875
O O5 0.712765 0.106919 0.488685
O O6 0.861257 0.055261 0.412718
O O7 0.500000 0.000000 0.449833
O O8 0.530678 0.344033 0.820154
O O9 0.812869 0.447510 0.853797
O O10 0.713174 0.749088 0.580753
O O11 0.455529 0.670373 0.636894
O O12 0.462368 0.631877 0.552839
O O13 0.370338 0.232122 0.686770
O O14 0.521697 0.337591 0.730805
O O15 0.500000 0.500000 0.509391
O O16 0.817287 0.733248 0.778233
#
# Coordination Sequence:
#
# PCOD9366211 Si02
#       8
#     8   8   8   8   8   8   4   8
#     4  12  25  39  56  83 121 159 201 255 301 348
#     4  10  20  37  55  78 116 164 213 246 290 365
#     4  11  22  35  58  82 123 160 209 254 302 358
#     4  10  22  41  64  92 122 155 201 255 311 367
#     4   8  16  35  60  86 115 149 190 243 304 368
#     4  12  23  40  61  88 119 165 206 253 303 373
#     4  10  20  38  54  78 112 166 214 238 300 366
#     4  10  21  35  58  91 119 153 200 249 307 364
#
# _framework density 20.367759
#
# number of rings (size 3 to 8) (size 9 to 14) (size 15 to 20)
#    0.000    1.600    2.000    3.200    1.867    2.133 
#    0.000    0.000    0.000    2.400    0.000    0.000 
#    2.000    0.000    0.000    0.000    0.000    0.000 
#
# Total GULP energy -167050.876608 kJ/mol
# GULP energy per Si atom -5568.362554 kJ/mol
# Density = 2.032140 g / cm^3
# Si number density = 20.367759 Si / 1000 Ang^3
#
#
#
# Elastic Constant Matrix: (Units=GPa)
#
#
# Indices 1 2 3 4 5 6 
#
# 1 86.8052 10.2635 12.5585 0.0000 0.0000 0.0000
# 2 10.2635 69.0685 44.1403 0.0000 0.0000 0.0000
# 3 12.5585 44.1403 153.0968 0.0000 0.0000 0.0000
# 4 0.0000 0.0000 0.0000 11.9293 0.0000 0.0000
# 5 0.0000 0.0000 0.0000 0.0000 175.3211 0.0000
# 6 0.0000 0.0000 0.0000 0.0000 0.0000 24.6484
#
#
#
# Elastic Compliance Matrix: (Units=1/GPa)
#
#
# Indices 1 2 3 4 5 6 
#
# 1 0.011766 -0.001387 -0.000565 0.000000 0.000000 0.000000
# 2 -0.001387 0.017912 -0.005051 0.000000 0.000000 0.000000
# 3 -0.000565 -0.005051 0.008034 0.000000 0.000000 0.000000
# 4 0.000000 0.000000 0.000000 0.083827 0.000000 0.000000
# 5 0.000000 0.000000 0.000000 0.000000 0.005704 0.000000
# 6 0.000000 0.000000 0.000000 0.000000 0.000000 0.040571
#
#
# Mechanical properties :
#
#
# Convention : Reuss Voigt Hill
#
# Bulk Modulus (GPa) = 42.18257 49.21055 45.69656
# Shear Modulus (GPa) = 26.35429 58.51364 42.43396
#
# Velocity S-wave (km/s) = 3.60102 5.36572 4.56937
# Velocity P-wave (km/s) = 6.16808 7.91210 7.09389
#
# Compressibility (1/GPa) = 0.02370647
#
# Stress axis : x y z
#
# Youngs Moduli (GPa) = 84.99192 55.82772 124.46561
#
# Poissons Ratio (x) = 0.07744 0.07035
# Poissons Ratio (y) = 0.11790 0.62863
# Poissons Ratio (z) = 0.04804 0.28196
#
# Static dielectric constant tensor:
#      x y z
#    x 1.992920 0.000000 0.000000 
#    y 0.000000 2.173060 0.000000 
#    z 0.000000 0.000000 1.748720 
# 
# From -- ./inp_files/12650.got.cif
#   From: 2010.05.17/outbox.cif.g08.bks.cpg/sg41_7_cif.got.tgz:12650.got - 2010.06.03 18:54:24.
