data_PCOD9366110
_publ_section_title
;
Structure prediction by ZEFSAII (Michael W. Deem and Ramdas Pophale) SiO2 
 PCOD9366110
Probable space group: A B A 2
;
_chemical_formula_sum "Si O2"
_cell_formula_units_Z 48
_cell_length_a 8.674061
_cell_length_b 19.494405
_cell_length_c 14.095253
_cell_angle_alpha 90.000000
_cell_angle_beta 90.000000
_cell_angle_gamma 90.000000
_cell_volume 2383.446083
_symmetry_space_group_name_H-M "A B A 2"
_symmetry_group_IT_number 41
_symmetry_cell_setting 'orthorhombic'
loop_
_space_group_symop_operation_xyz
x,y,z
-x,-y,z
1/2-x,y,1/2+z
1/2+x,-y,1/2+z
x,1/2+y,1/2+z
-x,1/2-y,1/2+z
1/2-x,1/2+y,z
1/2+x,1/2-y,z
loop_
_atom_site_type_symbol
_atom_site_label
_atom_site_fract_x
_atom_site_fract_y
_atom_site_fract_z
Si Si1 0.532694 0.377460 0.325740
Si Si2 0.287726 0.587223 0.136366
Si Si3 0.500000 0.000000 0.186273
Si Si4 0.318512 0.914174 0.340422
Si Si5 0.209331 0.180231 0.482825
Si Si6 0.484284 0.274696 0.882278
Si Si7 0.500000 0.500000 0.997429
O O1 0.637060 0.405341 0.240207
O O2 0.365948 0.412251 0.332208
O O3 0.621034 0.380998 0.426773
O O4 0.509235 0.294073 0.318022
O O5 0.257386 0.660124 0.087077
O O6 0.404520 0.549690 0.065539
O O7 0.126496 0.546747 0.135536
O O8 0.395977 0.950849 0.251415
O O9 0.382740 0.836673 0.344190
O O10 0.385749 0.955521 0.430891
O O11 0.096947 0.245008 0.477053
O O12 0.350703 0.197925 0.413433
#
# Coordination Sequence:
#
# PCOD9366110 Si02
#       7
#     8   8   4   8   8   8   4
#     4  10  23  43  72  97 133 180 226 288 343 403
#     4  12  25  46  64 108 134 182 237 276 338 416
#     4  11  28  42  63  98 140 182 229 282 329 418
#     4  11  22  45  68  94 136 184 222 276 349 397
#     4  10  22  43  68  99 136 169 228 280 342 402
#     4  10  19  43  68  97 129 175 217 281 348 394
#     4  11  26  40  71  96 142 182 225 280 329 418
#
# _framework density 20.138909000000002
#
# number of rings (size 3 to 8) (size 9 to 14) (size 15 to 20)
#    1.000    0.333    3.333    2.000    4.667    0.000 
#    9.000    0.000    0.000    0.000    0.000    0.000 
#    0.000    0.000    0.000    0.000    0.000    0.000 
#
# Total GULP energy -133845.629380 kJ/mol
# GULP energy per Si atom -5576.901224 kJ/mol
# Density = 2.009307 g / cm^3
# Si number density = 20.138909 Si / 1000 Ang^3
#
#
#
# Elastic Constant Matrix: (Units=GPa)
#
#
# Indices 1 2 3 4 5 6 
#
# 1 129.8060 19.0906 25.5415 0.0000 0.0000 0.0000
# 2 19.0906 64.9364 16.0296 0.0000 0.0000 0.0000
# 3 25.5415 16.0296 58.9921 0.0000 0.0000 0.0000
# 4 0.0000 0.0000 0.0000 50.8862 0.0000 0.0000
# 5 0.0000 0.0000 0.0000 0.0000 32.4694 0.0000
# 6 0.0000 0.0000 0.0000 0.0000 0.0000 26.9830
#
#
#
# Elastic Compliance Matrix: (Units=1/GPa)
#
#
# Indices 1 2 3 4 5 6 
#
# 1 0.008598 -0.001724 -0.003254 0.000000 0.000000 0.000000
# 2 -0.001724 0.016853 -0.003833 0.000000 0.000000 0.000000
# 3 -0.003254 -0.003833 0.019402 0.000000 0.000000 0.000000
# 4 0.000000 0.000000 0.000000 0.019652 0.000000 0.000000
# 5 0.000000 0.000000 0.000000 0.000000 0.030798 0.000000
# 6 0.000000 0.000000 0.000000 0.000000 0.000000 0.037060
#
#
# Mechanical properties :
#
#
# Convention : Reuss Voigt Hill
#
# Bulk Modulus (GPa) = 36.72412 41.67311 39.19861
# Shear Modulus (GPa) = 31.43445 34.93924 33.18685
#
# Velocity S-wave (km/s) = 3.95509 4.16975 4.06383
# Velocity P-wave (km/s) = 6.25555 6.62723 6.44407
#
# Compressibility (1/GPa) = 0.02723006
#
# Stress axis : x y z
#
# Youngs Moduli (GPa) = 116.31045 59.33749 51.54182
#
# Poissons Ratio (x) = 0.10232 0.16771
# Poissons Ratio (y) = 0.20056 0.19755
# Poissons Ratio (z) = 0.37847 0.22742
#
# Static dielectric constant tensor:
#      x y z
#    x 1.751410 0.000000 0.000000 
#    y 0.000000 1.561900 0.000000 
#    z 0.000000 0.000000 1.681280 
# 
# From -- ./inp_files/7389.got.cif
#   From: 2010.05.17/outbox.cif.g08.bks.cpg/sg41_4_cif.got.tgz:7389.got - 2010.06.03 18:54:24.
