data_PCOD9366440
_publ_section_title
;
Structure prediction by ZEFSAII (Michael W. Deem and Ramdas Pophale) SiO2 
 PCOD9366440
Probable space group: A B A 2
;
_chemical_formula_sum "Si O2"
_cell_formula_units_Z 60
_cell_length_a 15.461261
_cell_length_b 15.834887
_cell_length_c 11.023197
_cell_angle_alpha 90.000000
_cell_angle_beta 90.000000
_cell_angle_gamma 90.000000
_cell_volume 2698.779788
_symmetry_space_group_name_H-M "A B A 2"
_symmetry_group_IT_number 41
_symmetry_cell_setting 'orthorhombic'
loop_
_space_group_symop_operation_xyz
x,y,z
-x,-y,z
1/2-x,y,1/2+z
1/2+x,-y,1/2+z
x,1/2+y,1/2+z
-x,1/2-y,1/2+z
1/2-x,1/2+y,z
1/2+x,1/2-y,z
loop_
_atom_site_type_symbol
_atom_site_label
_atom_site_fract_x
_atom_site_fract_y
_atom_site_fract_z
Si Si1 0.000000 0.500000 0.041790
Si Si2 0.752309 0.773484 0.942058
Si Si3 0.529947 0.168866 0.656638
Si Si4 0.837811 0.522647 0.708049
Si Si5 0.399363 0.089306 0.482442
Si Si6 0.184297 0.730287 0.184074
Si Si7 0.652418 0.966198 0.223358
Si Si8 0.414596 0.120122 0.871192
O O1 0.085137 0.502003 0.124294
O O2 0.012520 0.584663 0.961352
O O3 0.831239 0.835449 0.970349
O O4 0.733829 0.728261 0.069744
O O5 0.778947 0.735668 0.812213
O O6 0.663365 0.825266 0.923130
O O7 0.487500 0.130947 0.534546
O O8 0.582490 0.255206 0.658649
O O9 0.456413 0.168681 0.758239
O O10 0.604800 0.105473 0.700807
O O11 0.863211 0.473552 0.584438
O O12 0.735556 0.526590 0.725764
O O13 0.872945 0.464838 0.816859
O O14 0.396660 0.044852 0.351748
O O15 0.192143 0.627669 0.192466
#
# Coordination Sequence:
#
# PCOD9366440 Si02
#       8
#     4   8   8   8   8   8   8   8
#     4  12  22  38  64 104 126 158 238 282 302 396
#     4  11  21  43  70  90 128 184 220 265 330 424
#     4  11  25  38  65 100 134 169 218 284 336 393
#     4  11  20  42  67  92 123 177 216 268 330 403
#     4  10  20  41  66  94 126 170 222 267 335 402
#     4  11  23  44  63  94 129 179 222 268 339 402
#     4  11  24  40  68  94 132 177 223 274 333 394
#     4  11  19  40  69  95 125 171 223 273 334 393
#
# _framework density 22.23227
#
# number of rings (size 3 to 8) (size 9 to 14) (size 15 to 20)
#    0.000    1.067    6.667    2.000    1.867    2.133 
#    4.800    1.333    0.000    0.000    0.000    0.000 
#    0.000    0.000    0.000    0.000    0.000    0.000 
#
# Total GULP energy -167477.036331 kJ/mol
# GULP energy per Si atom -5582.567878 kJ/mol
# Density = 2.218167 g / cm^3
# Si number density = 22.232270 Si / 1000 Ang^3
#
#
#
# Elastic Constant Matrix: (Units=GPa)
#
#
# Indices 1 2 3 4 5 6 
#
# 1 94.1435 14.0979 32.9332 0.0000 0.0000 0.0000
# 2 14.0979 22.8626 7.4814 0.0000 0.0000 0.0000
# 3 32.9332 7.4814 145.6198 0.0000 0.0000 0.0000
# 4 0.0000 0.0000 0.0000 9.3647 0.0000 0.0000
# 5 0.0000 0.0000 0.0000 0.0000 36.9257 0.0000
# 6 0.0000 0.0000 0.0000 0.0000 0.0000 25.3486
#
#
#
# Elastic Compliance Matrix: (Units=1/GPa)
#
#
# Indices 1 2 3 4 5 6 
#
# 1 0.012524 -0.006912 -0.002477 0.000000 0.000000 0.000000
# 2 -0.006912 0.048302 -0.000918 0.000000 0.000000 0.000000
# 3 -0.002477 -0.000918 0.007475 0.000000 0.000000 0.000000
# 4 0.000000 0.000000 0.000000 0.106784 0.000000 0.000000
# 5 0.000000 0.000000 0.000000 0.000000 0.027081 0.000000
# 6 0.000000 0.000000 0.000000 0.000000 0.000000 0.039450
#
#
# Mechanical properties :
#
#
# Convention : Reuss Voigt Hill
#
# Bulk Modulus (GPa) = 20.97075 41.29455 31.13265
# Shear Modulus (GPa) = 17.97744 28.20203 23.08973
#
# Velocity S-wave (km/s) = 2.84671 3.56549 3.22618
# Velocity P-wave (km/s) = 4.50089 5.96362 5.28312
#
# Compressibility (1/GPa) = 0.04768546
#
# Stress axis : x y z
#
# Youngs Moduli (GPa) = 79.84844 20.70295 133.78585
#
# Poissons Ratio (x) = 0.14310 0.33142
# Poissons Ratio (y) = 0.55191 0.12287
# Poissons Ratio (z) = 0.19780 0.01901
#
# Static dielectric constant tensor:
#      x y z
#    x 1.794390 0.000000 0.000000 
#    y 0.000000 1.839820 0.000000 
#    z 0.000000 0.000000 1.892590 
# 
# From -- ./inp_files/5691.got.cif
#   From: 2010.05.17/outbox.cif.g08.bks.cpg/sg41_3_cif.got.tgz:5691.got - 2010.06.03 18:54:24.
