data_PCOD9366156
_publ_section_title
;
Structure prediction by ZEFSAII (Michael W. Deem and Ramdas Pophale) SiO2 
 PCOD9366156
Probable space group: A B A 2
;
_chemical_formula_sum "Si O2"
_cell_formula_units_Z 48
_cell_length_a 27.344164
_cell_length_b 9.719925
_cell_length_c 8.482372
_cell_angle_alpha 90.000000
_cell_angle_beta 90.000000
_cell_angle_gamma 90.000000
_cell_volume 2254.472171
_symmetry_space_group_name_H-M "A B A 2"
_symmetry_group_IT_number 41
_symmetry_cell_setting 'orthorhombic'
loop_
_space_group_symop_operation_xyz
x,y,z
-x,-y,z
1/2-x,y,1/2+z
1/2+x,-y,1/2+z
x,1/2+y,1/2+z
-x,1/2-y,1/2+z
1/2-x,1/2+y,z
1/2+x,1/2-y,z
loop_
_atom_site_type_symbol
_atom_site_label
_atom_site_fract_x
_atom_site_fract_y
_atom_site_fract_z
Si Si1 0.321918 0.803035 0.981510
Si Si2 0.258157 0.202380 0.191184
Si Si3 0.179042 0.599365 0.900136
Si Si4 0.010723 0.342993 0.285933
Si Si5 0.041289 0.893704 0.149848
Si Si6 0.599897 0.839283 0.673561
O O1 0.292210 0.752299 0.830962
O O2 0.341322 0.953252 0.949713
O O3 0.281414 0.809008 0.120904
O O4 0.365588 0.704088 0.030119
O O5 0.221183 0.088546 0.265056
O O6 0.292935 0.161293 0.048359
O O7 0.133998 0.681737 0.827342
O O8 0.027086 0.354340 0.469388
O O9 0.053844 0.262572 0.192902
O O10 0.000000 0.500000 0.234350
O O11 0.963785 0.244232 0.253479
O O12 0.000000 0.000000 0.211745
O O13 0.086717 0.998868 0.155266
#
# Coordination Sequence:
#
# PCOD9366156 Si02
#       6
#     8   8   8   8   8   8
#     4  10  20  36  58  85 121 160 200 243 289 348
#     4   9  20  37  56  83 118 163 203 238 291 346
#     4  10  20  35  58  85 120 160 200 244 290 349
#     4  10  22  41  64  84 113 156 194 239 304 366
#     4   9  21  41  60  83 115 148 189 241 295 355
#     4  10  23  38  57  92 123 149 197 251 296 354
#
# _framework density 21.291015000000002
#
# number of rings (size 3 to 8) (size 9 to 14) (size 15 to 20)
#    0.000    2.333    0.000    1.000    0.000   10.000 
#    0.000    3.333    0.000    0.000    0.000    0.000 
#    0.000    0.000    0.000    0.000    0.000    0.000 
#
# Total GULP energy -133737.787429 kJ/mol
# GULP energy per Si atom -5572.407810 kJ/mol
# Density = 2.124256 g / cm^3
# Si number density = 21.291015 Si / 1000 Ang^3
#
#
#
# Elastic Constant Matrix: (Units=GPa)
#
#
# Indices 1 2 3 4 5 6 
#
# 1 82.9242 35.4016 36.1401 0.0000 0.0000 0.0000
# 2 35.4016 104.5115 28.4264 0.0000 0.0000 0.0000
# 3 36.1401 28.4264 80.0932 0.0000 0.0000 0.0000
# 4 0.0000 0.0000 0.0000 24.3345 0.0000 0.0000
# 5 0.0000 0.0000 0.0000 0.0000 547.4248 0.0000
# 6 0.0000 0.0000 0.0000 0.0000 0.0000 86.2632
#
#
#
# Elastic Compliance Matrix: (Units=1/GPa)
#
#
# Indices 1 2 3 4 5 6 
#
# 1 0.016335 -0.003905 -0.005985 0.000000 0.000000 0.000000
# 2 -0.003905 0.011524 -0.002328 0.000000 0.000000 0.000000
# 3 -0.005985 -0.002328 0.016012 0.000000 0.000000 0.000000
# 4 0.000000 0.000000 0.000000 0.041094 0.000000 0.000000
# 5 0.000000 0.000000 0.000000 0.000000 0.001827 0.000000
# 6 0.000000 0.000000 0.000000 0.000000 0.000000 0.011592
#
#
# Mechanical properties :
#
#
# Convention : Reuss Voigt Hill
#
# Bulk Modulus (GPa) = 51.45266 51.94056 51.69661
# Shear Modulus (GPa) = 38.67025 142.77523 90.72274
#
# Velocity S-wave (km/s) = 4.26640 8.19783 6.53478
# Velocity P-wave (km/s) = 6.96336 10.67963 9.01507
#
# Compressibility (1/GPa) = 0.01943534
#
# Stress axis : x y z
#
# Youngs Moduli (GPa) = 61.21961 86.77239 62.45286
#
# Poissons Ratio (x) = 0.33888 0.37375
# Poissons Ratio (y) = 0.23908 0.14539
# Poissons Ratio (z) = 0.36637 0.20201
#
# Static dielectric constant tensor:
#      x y z
#    x 1.810200 0.000000 0.000000 
#    y 0.000000 1.778730 0.000000 
#    z 0.000000 0.000000 1.785120 
# 
# From -- ./inp_files/3935.got.cif
#   From: 2010.05.17/outbox.cif.g08.bks.cpg/sg41_2_cif.got.tgz:3935.got - 2010.06.03 18:54:24.
