data_PCOD9366509
_publ_section_title
;
Structure prediction by ZEFSAII (Michael W. Deem and Ramdas Pophale) SiO2 
 PCOD9366509
Probable space group: A B A 2
;
_chemical_formula_sum "Si O2"
_cell_formula_units_Z 52
_cell_length_a 15.926397
_cell_length_b 14.444378
_cell_length_c 9.254591
_cell_angle_alpha 90.000000
_cell_angle_beta 90.000000
_cell_angle_gamma 90.000000
_cell_volume 2128.989956
_symmetry_space_group_name_H-M "A B A 2"
_symmetry_group_IT_number 41
_symmetry_cell_setting 'orthorhombic'
loop_
_space_group_symop_operation_xyz
x,y,z
-x,-y,z
1/2-x,y,1/2+z
1/2+x,-y,1/2+z
x,1/2+y,1/2+z
-x,1/2-y,1/2+z
1/2-x,1/2+y,z
1/2+x,1/2-y,z
loop_
_atom_site_type_symbol
_atom_site_label
_atom_site_fract_x
_atom_site_fract_y
_atom_site_fract_z
Si Si1 0.174018 0.462104 0.244430
Si Si2 0.136270 0.197449 0.375442
Si Si3 0.482931 0.850046 0.734856
Si Si4 0.165597 0.955513 0.078204
Si Si5 0.752315 0.859562 0.139503
Si Si6 0.000000 0.000000 0.760709
Si Si7 0.977889 0.812134 0.922294
O O1 0.171343 0.433366 0.409966
O O2 0.250109 0.417881 0.155783
O O3 0.199125 0.570865 0.239357
O O4 0.080589 0.460101 0.177910
O O5 0.062513 0.121071 0.336129
O O6 0.074810 0.282333 0.398295
O O7 0.199422 0.209623 0.243015
O O8 0.191862 0.175709 0.514613
O O9 0.678459 0.933260 0.582579
O O10 0.528815 0.805524 0.594318
O O11 0.435287 0.768579 0.825581
O O12 0.083685 0.920824 0.164991
O O13 0.969217 0.915207 0.861303
#
# Coordination Sequence:
#
# PCOD9366509 Si02
#       7
#     8   8   8   8   8   4   8
#     4  10  23  40  72 106 144 197 243 309 376 471
#     4  10  24  43  70 114 154 211 253 327 391 461
#     4  10  24  48  71 107 156 200 264 315 400 454
#     4  10  21  46  69 110 146 198 248 314 387 474
#     4  10  20  44  69 114 159 190 260 314 398 455
#     4  12  24  48  72  98 144 204 256 294 406 466
#     4  10  26  45  71 110 143 211 253 322 385 476
#
# _framework density 24.424728000000002
#
# number of rings (size 3 to 8) (size 9 to 14) (size 15 to 20)
#    1.846    0.000    3.077    0.000    4.308    0.615 
#    8.308    0.000    0.000    0.000    0.000    0.000 
#    0.000    0.000    0.000    0.000    0.000    0.000 
#
# Total GULP energy -144804.972870 kJ/mol
# GULP energy per Si atom -5569.422033 kJ/mol
# Density = 2.436914 g / cm^3
# Si number density = 24.424728 Si / 1000 Ang^3
#
#
#
# Elastic Constant Matrix: (Units=GPa)
#
#
# Indices 1 2 3 4 5 6 
#
# 1 169.1267 20.1504 72.0602 0.0000 0.0000 0.0000
# 2 20.1504 49.8185 29.0237 0.0000 0.0000 0.0000
# 3 72.0602 29.0237 103.9834 0.0000 0.0000 0.0000
# 4 0.0000 0.0000 0.0000 18.9473 0.0000 0.0000
# 5 0.0000 0.0000 0.0000 0.0000 53.8222 0.0000
# 6 0.0000 0.0000 0.0000 0.0000 0.0000 46.2312
#
#
#
# Elastic Compliance Matrix: (Units=1/GPa)
#
#
# Indices 1 2 3 4 5 6 
#
# 1 0.008390 -0.000007 -0.005812 0.000000 0.000000 0.000000
# 2 -0.000007 0.023971 -0.006686 0.000000 0.000000 0.000000
# 3 -0.005812 -0.006686 0.015511 0.000000 0.000000 0.000000
# 4 0.000000 0.000000 0.000000 0.052778 0.000000 0.000000
# 5 0.000000 0.000000 0.000000 0.000000 0.018580 0.000000
# 6 0.000000 0.000000 0.000000 0.000000 0.000000 0.021630
#
#
# Mechanical properties :
#
#
# Convention : Reuss Voigt Hill
#
# Bulk Modulus (GPa) = 43.74209 62.82191 53.28200
# Shear Modulus (GPa) = 28.82003 37.24642 33.03323
#
# Velocity S-wave (km/s) = 3.43877 3.90929 3.68156
# Velocity P-wave (km/s) = 5.80643 6.79362 6.31933
#
# Compressibility (1/GPa) = 0.02286128
#
# Stress axis : x y z
#
# Youngs Moduli (GPa) = 119.18922 41.71749 64.47130
#
# Poissons Ratio (x) = 0.00031 0.37472
# Poissons Ratio (y) = 0.00089 0.43102
# Poissons Ratio (z) = 0.69275 0.27890
#
# Static dielectric constant tensor:
#      x y z
#    x 2.052810 0.000000 0.000000 
#    y 0.000000 2.035030 0.000000 
#    z 0.000000 0.000000 1.948990 
# 
# From -- ./inp_files/3119.got.cif
#   From: 2010.05.17/outbox.cif.g08.bks.cpg/sg41_2_cif.got.tgz:3119.got - 2010.06.03 18:54:24.
