data_PCOD9366428
_publ_section_title
;
Structure prediction by ZEFSAII (Michael W. Deem and Ramdas Pophale) SiO2 
 PCOD9366428
Probable space group: A B A 2
;
_chemical_formula_sum "Si O2"
_cell_formula_units_Z 60
_cell_length_a 18.842508
_cell_length_b 13.466909
_cell_length_c 11.280267
_cell_angle_alpha 90.000000
_cell_angle_beta 90.000000
_cell_angle_gamma 90.000000
_cell_volume 2862.371593
_symmetry_space_group_name_H-M "A B A 2"
_symmetry_group_IT_number 41
_symmetry_cell_setting 'orthorhombic'
loop_
_space_group_symop_operation_xyz
x,y,z
-x,-y,z
1/2-x,y,1/2+z
1/2+x,-y,1/2+z
x,1/2+y,1/2+z
-x,1/2-y,1/2+z
1/2-x,1/2+y,z
1/2+x,1/2-y,z
loop_
_atom_site_type_symbol
_atom_site_label
_atom_site_fract_x
_atom_site_fract_y
_atom_site_fract_z
Si Si1 0.379708 0.003969 0.941970
Si Si2 0.963858 0.208562 0.174221
Si Si3 0.500000 0.500000 0.055990
Si Si4 0.003609 0.835054 0.438189
Si Si5 0.257765 0.616433 0.561231
Si Si6 0.140601 0.493548 0.426037
Si Si7 0.685452 0.179053 0.588231
Si Si8 0.245566 0.485758 0.753214
O O1 0.436101 0.091998 0.915996
O O2 0.428103 0.906672 0.958908
O O3 0.319336 0.977071 0.845312
O O4 0.329425 0.052829 0.041729
O O5 0.987392 0.223563 0.311798
O O6 0.878630 0.219799 0.168283
O O7 0.981405 0.093691 0.139299
O O8 0.992182 0.272889 0.060845
O O9 0.435912 0.526892 0.967696
O O10 0.196393 0.570651 0.481827
O O11 0.271248 0.730066 0.537484
O O12 0.234918 0.593415 0.694620
O O13 0.150135 0.385911 0.485725
O O14 0.174038 0.480324 0.298270
O O15 0.732287 0.101387 0.660050
#
# Coordination Sequence:
#
# PCOD9366428 Si02
#       8
#     8   8   4   8   8   8   8   8
#     4  10  21  42  65  93 135 178 228 280 342 422
#     4  11  23  42  70  99 133 186 224 283 344 405
#     4  10  22  46  62  94 140 172 234 278 344 422
#     4  11  23  42  69  97 136 183 228 280 344 410
#     4  10  21  39  63  95 124 172 231 279 339 397
#     4   9  22  40  62  92 127 180 217 282 344 402
#     4  10  20  41  63  92 137 165 232 283 326 418
#     4  10  21  40  64  92 128 183 216 282 350 394
#
# _framework density 20.961639000000002
#
# number of rings (size 3 to 8) (size 9 to 14) (size 15 to 20)
#    0.000    1.867    2.667    0.800    3.733    3.200 
#   12.000    0.000    0.000    0.000    0.000    0.000 
#    0.000    0.000    0.000    0.000    0.000    0.000 
#
# Total GULP energy -167093.168485 kJ/mol
# GULP energy per Si atom -5569.772283 kJ/mol
# Density = 2.091393 g / cm^3
# Si number density = 20.961639 Si / 1000 Ang^3
#
#
#
# Elastic Constant Matrix: (Units=GPa)
#
#
# Indices 1 2 3 4 5 6 
#
# 1 83.1004 6.8052 -3.2750 0.0000 0.0000 0.0000
# 2 6.8052 70.9651 13.3164 0.0000 0.0000 0.0000
# 3 -3.2750 13.3164 60.1618 0.0000 0.0000 0.0000
# 4 0.0000 0.0000 0.0000 9.3331 0.0000 0.0000
# 5 0.0000 0.0000 0.0000 0.0000 32.9875 0.0000
# 6 0.0000 0.0000 0.0000 0.0000 0.0000 63.8911
#
#
#
# Elastic Compliance Matrix: (Units=1/GPa)
#
#
# Indices 1 2 3 4 5 6 
#
# 1 0.012182 -0.001349 0.000962 0.000000 0.000000 0.000000
# 2 -0.001349 0.014851 -0.003361 0.000000 0.000000 0.000000
# 3 0.000962 -0.003361 0.017418 0.000000 0.000000 0.000000
# 4 0.000000 0.000000 0.000000 0.107146 0.000000 0.000000
# 5 0.000000 0.000000 0.000000 0.000000 0.030314 0.000000
# 6 0.000000 0.000000 0.000000 0.000000 0.000000 0.015652
#
#
# Mechanical properties :
#
#
# Convention : Reuss Voigt Hill
#
# Bulk Modulus (GPa) = 27.05914 27.54673 27.30293
# Shear Modulus (GPa) = 23.00148 34.40107 28.70127
#
# Velocity S-wave (km/s) = 3.31617 4.05550 3.70432
# Velocity P-wave (km/s) = 5.25352 5.92448 5.59906
#
# Compressibility (1/GPa) = 0.03695609
#
# Stress axis : x y z
#
# Youngs Moduli (GPa) = 82.08848 67.33382 57.41176
#
# Poissons Ratio (x) = 0.09081 -0.05521
# Poissons Ratio (y) = 0.11071 0.19294
# Poissons Ratio (z) = -0.07894 0.22629
#
# Static dielectric constant tensor:
#      x y z
#    x 1.768740 0.000000 0.000000 
#    y 0.000000 1.747720 0.000000 
#    z 0.000000 0.000000 1.864650 
# 
# From -- ./inp_files/6276.got.cif
#   From: 2010.05.17/outbox.cif.g08.bks.cpg/sg41_4_cif.got.tgz:6276.got - 2010.06.03 18:54:24.
