data_PCOD9366529
_publ_section_title
;
Structure prediction by ZEFSAII (Michael W. Deem and Ramdas Pophale) SiO2 
 PCOD9366529
Probable space group: A B A 2
;
_chemical_formula_sum "Si O2"
_cell_formula_units_Z 40
_cell_length_a 8.558786
_cell_length_b 17.040054
_cell_length_c 14.494737
_cell_angle_alpha 90.000000
_cell_angle_beta 90.000000
_cell_angle_gamma 90.000000
_cell_volume 2113.943979
_symmetry_space_group_name_H-M "A B A 2"
_symmetry_group_IT_number 41
_symmetry_cell_setting 'orthorhombic'
loop_
_space_group_symop_operation_xyz
x,y,z
-x,-y,z
1/2-x,y,1/2+z
1/2+x,-y,1/2+z
x,1/2+y,1/2+z
-x,1/2-y,1/2+z
1/2-x,1/2+y,z
1/2+x,1/2-y,z
loop_
_atom_site_type_symbol
_atom_site_label
_atom_site_fract_x
_atom_site_fract_y
_atom_site_fract_z
Si Si1 0.554755 0.913200 0.265090
Si Si2 0.694529 0.653369 0.886853
Si Si3 0.177129 0.017061 0.952851
Si Si4 0.930284 0.749224 0.986305
Si Si5 0.675712 0.356669 0.579256
O O1 0.399825 0.863920 0.292848
O O2 0.649155 0.931087 0.359990
O O3 0.654995 0.872530 0.186885
O O4 0.500000 0.000000 0.233483
O O5 0.742591 0.567404 0.923352
O O6 0.837605 0.713025 0.898456
O O7 0.562327 0.690864 0.952741
O O8 0.277875 0.064169 0.025552
O O9 0.000000 0.000000 0.987524
O O10 0.810320 0.794990 0.051691
O O11 0.015911 0.679234 0.039502
#
# Coordination Sequence:
#
# PCOD9366529 Si02
#       5
#     8   8   8   8   8
#     4   9  20  37  60  87 116 158 207 247 295 349
#     4   9  19  38  58  82 120 158 188 249 299 348
#     4   9  18  39  62  79 120 162 191 250 296 348
#     4  10  21  35  59  90 118 158 195 240 317 353
#     4  11  21  37  61  89 119 161 205 242 303 365
#
# _framework density 18.921976999999998
#
# number of rings (size 3 to 8) (size 9 to 14) (size 15 to 20)
#    0.000    2.800    4.000    0.000    2.800    1.600 
#    0.000    0.000    8.800    0.000    0.000    0.000 
#    0.000    0.000    0.000    0.000    0.000    0.000 
#
# Total GULP energy -111432.829596 kJ/mol
# GULP energy per Si atom -5571.641480 kJ/mol
# Density = 1.887891 g / cm^3
# Si number density = 18.921977 Si / 1000 Ang^3
#
#
#
# Elastic Constant Matrix: (Units=GPa)
#
#
# Indices 1 2 3 4 5 6 
#
# 1 43.6556 16.0144 36.3799 0.0000 0.0000 0.0000
# 2 16.0144 68.6912 44.2071 0.0000 0.0000 0.0000
# 3 36.3799 44.2071 63.6412 0.0000 0.0000 0.0000
# 4 0.0000 0.0000 0.0000 20.3873 0.0000 0.0000
# 5 0.0000 0.0000 0.0000 0.0000 12.1265 0.0000
# 6 0.0000 0.0000 0.0000 0.0000 0.0000 15.2119
#
#
#
# Elastic Compliance Matrix: (Units=1/GPa)
#
#
# Indices 1 2 3 4 5 6 
#
# 1 0.048535 0.011827 -0.035960 0.000000 0.000000 0.000000
# 2 0.011827 0.029209 -0.027051 0.000000 0.000000 0.000000
# 3 -0.035960 -0.027051 0.055059 0.000000 0.000000 0.000000
# 4 0.000000 0.000000 0.000000 0.049050 0.000000 0.000000
# 5 0.000000 0.000000 0.000000 0.000000 0.082464 0.000000
# 6 0.000000 0.000000 0.000000 0.000000 0.000000 0.065738
#
#
# Mechanical properties :
#
#
# Convention : Reuss Voigt Hill
#
# Bulk Modulus (GPa) = 32.85489 41.02120 36.93805
# Shear Modulus (GPa) = 11.29771 14.83760 13.06765
#
# Velocity S-wave (km/s) = 2.44615 2.80330 2.63079
# Velocity P-wave (km/s) = 5.03778 5.67487 5.36579
#
# Compressibility (1/GPa) = 0.03043687
#
# Stress axis : x y z
#
# Youngs Moduli (GPa) = 20.60374 34.23575 18.16219
#
# Poissons Ratio (x) = -0.40492 0.65311
# Poissons Ratio (y) = -0.24369 0.49130
# Poissons Ratio (z) = 0.74091 0.92610
#
# Static dielectric constant tensor:
#      x y z
#    x 1.669530 0.000000 0.000000 
#    y 0.000000 1.694220 0.000000 
#    z 0.000000 0.000000 1.647180 
# 
# From -- ./inp_files/7232.got.cif
#   From: 2010.05.17/outbox.cif.g08.bks.cpg/sg41_4_cif.got.tgz:7232.got - 2010.06.03 18:54:24.
