data_PCOD9366846
_publ_section_title
;
Structure prediction by ZEFSAII (Michael W. Deem and Ramdas Pophale) SiO2 
 PCOD9366846
Probable space group: A B A 2
;
_chemical_formula_sum "Si O2"
_cell_formula_units_Z 48
_cell_length_a 22.757330
_cell_length_b 12.456527
_cell_length_c 8.013784
_cell_angle_alpha 90.000000
_cell_angle_beta 90.000000
_cell_angle_gamma 90.000000
_cell_volume 2271.725816
_symmetry_space_group_name_H-M "A B A 2"
_symmetry_group_IT_number 41
_symmetry_cell_setting 'orthorhombic'
loop_
_space_group_symop_operation_xyz
x,y,z
-x,-y,z
1/2-x,y,1/2+z
1/2+x,-y,1/2+z
x,1/2+y,1/2+z
-x,1/2-y,1/2+z
1/2-x,1/2+y,z
1/2+x,1/2-y,z
loop_
_atom_site_type_symbol
_atom_site_label
_atom_site_fract_x
_atom_site_fract_y
_atom_site_fract_z
Si Si1 0.064787 0.982522 0.008130
Si Si2 0.278114 0.577377 0.463513
Si Si3 0.577217 0.277671 0.898815
Si Si4 0.018859 0.881008 0.666429
Si Si5 0.184047 0.943510 0.160881
Si Si6 0.299020 0.721556 0.747473
O O1 0.116818 0.928259 0.108189
O O2 0.054847 0.917490 0.834318
O O3 0.000000 0.000000 0.085477
O O4 0.084335 0.104862 0.980787
O O5 0.220166 0.519384 0.535358
O O6 0.312124 0.498837 0.341289
O O7 0.313648 0.626484 0.617348
O O8 0.253653 0.676305 0.356416
O O9 0.533764 0.306918 0.743478
O O10 0.642760 0.248098 0.846934
O O11 0.550531 0.190459 0.026358
O O12 0.000000 0.000000 0.600568
O O13 0.218077 0.831366 0.159014
#
# Coordination Sequence:
#
# PCOD9366846 Si02
#       6
#     8   8   8   8   8   8
#     4   9  21  41  63  92 130 162 206 261 316 375
#     4  10  24  44  61  90 130 161 217 267 317 377
#     4  10  21  42  64  89 126 165 205 259 319 378
#     4   9  22  42  61  90 129 163 207 258 314 390
#     4  11  22  42  66  94 123 172 212 265 317 384
#     4  11  23  41  63  91 120 165 209 260 323 376
#
# _framework density 21.129311000000001
#
# number of rings (size 3 to 8) (size 9 to 14) (size 15 to 20)
#    0.000    2.333    1.667    1.000    4.667    4.000 
#    6.000    0.000    0.000    0.000    0.000    0.000 
#    0.000    0.000    0.000    0.000    0.000    0.000 
#
# Total GULP energy -133839.132709 kJ/mol
# GULP energy per Si atom -5576.630530 kJ/mol
# Density = 2.108122 g / cm^3
# Si number density = 21.129311 Si / 1000 Ang^3
#
#
#
# Elastic Constant Matrix: (Units=GPa)
#
#
# Indices 1 2 3 4 5 6 
#
# 1 59.6075 19.4691 20.5208 0.0000 0.0000 0.0000
# 2 19.4691 76.6936 9.7198 0.0000 0.0000 0.0000
# 3 20.5208 9.7198 38.3759 0.0000 0.0000 0.0000
# 4 0.0000 0.0000 0.0000 8.8846 0.0000 0.0000
# 5 0.0000 0.0000 0.0000 0.0000 14.2466 0.0000
# 6 0.0000 0.0000 0.0000 0.0000 0.0000 19.5449
#
#
#
# Elastic Compliance Matrix: (Units=1/GPa)
#
#
# Indices 1 2 3 4 5 6 
#
# 1 0.021791 -0.004189 -0.010591 0.000000 0.000000 0.000000
# 2 -0.004189 0.014277 -0.001376 0.000000 0.000000 0.000000
# 3 -0.010591 -0.001376 0.032070 0.000000 0.000000 0.000000
# 4 0.000000 0.000000 0.000000 0.112555 0.000000 0.000000
# 5 0.000000 0.000000 0.000000 0.000000 0.070192 0.000000
# 6 0.000000 0.000000 0.000000 0.000000 0.000000 0.051164
#
#
# Mechanical properties :
#
#
# Convention : Reuss Voigt Hill
#
# Bulk Modulus (GPa) = 27.91364 30.45516 29.18440
# Shear Modulus (GPa) = 14.43822 16.86637 15.65230
#
# Velocity S-wave (km/s) = 2.61689 2.82839 2.72469
# Velocity P-wave (km/s) = 4.72973 5.01112 4.87246
#
# Compressibility (1/GPa) = 0.03582478
#
# Stress axis : x y z
#
# Youngs Moduli (GPa) = 45.89060 70.04382 31.18187
#
# Poissons Ratio (x) = 0.29345 0.33025
# Poissons Ratio (y) = 0.19226 0.04290
# Poissons Ratio (z) = 0.48604 0.09636
#
# Static dielectric constant tensor:
#      x y z
#    x 1.810380 0.000000 0.000000 
#    y 0.000000 1.810940 0.000000 
#    z 0.000000 0.000000 1.806450 
# 
# From -- ./inp_files/3619.got.cif
#   From: 2010.05.17/outbox.cif.g08.bks.cpg/sg41_2_cif.got.tgz:3619.got - 2010.06.03 18:54:24.
