data_PCOD9366341
_publ_section_title
;
Structure prediction by ZEFSAII (Michael W. Deem and Ramdas Pophale) SiO2 
 PCOD9366341
Probable space group: A B A 2
;
_chemical_formula_sum "Si O2"
_cell_formula_units_Z 36
_cell_length_a 5.508005
_cell_length_b 15.815121
_cell_length_c 16.308654
_cell_angle_alpha 90.000000
_cell_angle_beta 90.000000
_cell_angle_gamma 90.000000
_cell_volume 1420.643026
_symmetry_space_group_name_H-M "A B A 2"
_symmetry_group_IT_number 41
_symmetry_cell_setting 'orthorhombic'
loop_
_space_group_symop_operation_xyz
x,y,z
-x,-y,z
1/2-x,y,1/2+z
1/2+x,-y,1/2+z
x,1/2+y,1/2+z
-x,1/2-y,1/2+z
1/2-x,1/2+y,z
1/2+x,1/2-y,z
loop_
_atom_site_type_symbol
_atom_site_label
_atom_site_fract_x
_atom_site_fract_y
_atom_site_fract_z
Si Si1 0.492877 0.678378 0.519780
Si Si2 0.000000 0.000000 0.210888
Si Si3 0.990034 0.142191 0.077541
Si Si4 0.247419 0.471328 0.863817
Si Si5 0.581655 0.717393 0.336234
O O1 0.488917 0.755327 0.585876
O O2 0.245649 0.627591 0.531851
O O3 0.513211 0.727369 0.433198
O O4 0.739227 0.626212 0.529345
O O5 0.025077 0.917383 0.155639
O O6 0.219708 0.015890 0.274480
O O7 0.500000 0.500000 0.900408
O O8 0.000000 0.500000 0.908273
O O9 0.207337 0.374328 0.839627
O O10 0.805631 0.773810 0.301585
#
# Coordination Sequence:
#
# PCOD9366341 Si02
#       5
#     8   4   8   8   8
#     4  10  20  40  61  98 117 160 204 267 323 374
#     4  10  26  44  60  90 132 174 218 254 316 388
#     4  10  20  39  64  86 130 157 208 258 316 378
#     4  10  25  46  62  93 134 178 217 266 323 384
#     4  12  21  43  70  95 131 162 222 271 324 393
#
# _framework density 25.340638999999999
#
# number of rings (size 3 to 8) (size 9 to 14) (size 15 to 20)
#    0.667    0.889    4.444    1.333    3.111    0.000 
#   14.000    0.000    0.000    0.000    0.000    0.000 
#    0.000    0.000    0.000    0.000    0.000    0.000 
#
# Total GULP energy -100275.491313 kJ/mol
# GULP energy per Si atom -5570.860628 kJ/mol
# Density = 2.528296 g / cm^3
# Si number density = 25.340639 Si / 1000 Ang^3
#
#
#
# Elastic Constant Matrix: (Units=GPa)
#
#
# Indices 1 2 3 4 5 6 
#
# 1 287.1138 25.4674 19.9763 0.0000 0.0000 0.0000
# 2 25.4674 87.9148 16.0720 0.0000 0.0000 0.0000
# 3 19.9763 16.0720 42.0652 0.0000 0.0000 0.0000
# 4 0.0000 0.0000 0.0000 36.5222 0.0000 0.0000
# 5 0.0000 0.0000 0.0000 0.0000 17.1783 0.0000
# 6 0.0000 0.0000 0.0000 0.0000 0.0000 33.8090
#
#
#
# Elastic Compliance Matrix: (Units=1/GPa)
#
#
# Indices 1 2 3 4 5 6 
#
# 1 0.003653 -0.000797 -0.001430 0.000000 0.000000 0.000000
# 2 -0.000797 0.012403 -0.004360 0.000000 0.000000 0.000000
# 3 -0.001430 -0.004360 0.026118 0.000000 0.000000 0.000000
# 4 0.000000 0.000000 0.000000 0.027381 0.000000 0.000000
# 5 0.000000 0.000000 0.000000 0.000000 0.058213 0.000000
# 6 0.000000 0.000000 0.000000 0.000000 0.000000 0.029578
#
#
# Mechanical properties :
#
#
# Convention : Reuss Voigt Hill
#
# Bulk Modulus (GPa) = 34.48444 60.01391 47.24917
# Shear Modulus (GPa) = 27.74906 41.20711 34.47809
#
# Velocity S-wave (km/s) = 3.31273 4.03690 3.69261
# Velocity P-wave (km/s) = 5.31697 6.74263 6.07179
#
# Compressibility (1/GPa) = 0.02899859
#
# Stress axis : x y z
#
# Youngs Moduli (GPa) = 273.73743 80.62837 38.28798
#
# Poissons Ratio (x) = 0.06424 0.05477
# Poissons Ratio (y) = 0.21810 0.16695
# Poissons Ratio (z) = 0.39156 0.35157
#
# Static dielectric constant tensor:
#      x y z
#    x 2.089120 0.000000 0.000000 
#    y 0.000000 2.083700 0.000000 
#    z 0.000000 0.000000 2.017330 
# 
# From -- ./inp_files/10892.got.cif
#   From: 2010.05.17/outbox.cif.g08.bks.cpg/sg41_6_cif.got.tgz:10892.got - 2010.06.03 18:54:24.
