data_PCOD9366377
_publ_section_title
;
Structure prediction by ZEFSAII (Michael W. Deem and Ramdas Pophale) SiO2 
 PCOD9366377
Probable space group: A B A 2
;
_chemical_formula_sum "Si O2"
_cell_formula_units_Z 52
_cell_length_a 13.951173
_cell_length_b 21.596216
_cell_length_c 9.694587
_cell_angle_alpha 90.000000
_cell_angle_beta 90.000000
_cell_angle_gamma 90.000000
_cell_volume 2920.906795
_symmetry_space_group_name_H-M "A B A 2"
_symmetry_group_IT_number 41
_symmetry_cell_setting 'orthorhombic'
loop_
_space_group_symop_operation_xyz
x,y,z
-x,-y,z
1/2-x,y,1/2+z
1/2+x,-y,1/2+z
x,1/2+y,1/2+z
-x,1/2-y,1/2+z
1/2-x,1/2+y,z
1/2+x,1/2-y,z
loop_
_atom_site_type_symbol
_atom_site_label
_atom_site_fract_x
_atom_site_fract_y
_atom_site_fract_z
Si Si1 0.567214 0.618475 0.223230
Si Si2 0.248258 0.708298 0.520623
Si Si3 0.965848 0.310506 0.946696
Si Si4 0.755791 0.704262 0.776259
Si Si5 0.035196 0.809478 0.757323
Si Si6 0.000000 0.500000 0.596699
Si Si7 0.430275 0.121091 0.479549
O O1 0.509799 0.632198 0.363302
O O2 0.667925 0.652926 0.232547
O O3 0.565687 0.545785 0.187651
O O4 0.506383 0.646166 0.094214
O O5 0.351786 0.686007 0.468440
O O6 0.219583 0.766468 0.424129
O O7 0.257656 0.737410 0.672030
O O8 0.169427 0.654943 0.508547
O O9 0.985610 0.252536 0.845373
O O10 0.011292 0.302285 0.097135
O O11 0.648068 0.678414 0.776524
O O12 0.970271 0.861209 0.830185
O O13 0.064039 0.547681 0.507980
#
# Coordination Sequence:
#
# PCOD9366377 Si02
#       7
#     8   8   8   8   8   4   8
#     4  10  20  40  59  79 114 158 205 232 283 354
#     4  11  21  32  57  93 118 145 188 245 306 348
#     4  11  21  34  58  91 121 153 185 247 306 348
#     4  11  21  32  57  93 118 145 188 245 306 348
#     4  11  21  34  58  91 121 153 185 247 306 348
#     4   8  24  40  66  72 114 176 202 226 292 340
#     4  10  20  40  59  79 114 158 205 232 283 354
#
# _framework density 17.802690999999999
#
# number of rings (size 3 to 8) (size 9 to 14) (size 15 to 20)
#    0.923    0.615    0.000    9.231    0.000    0.000 
#    0.000    2.308    0.000    0.000    0.000    0.000 
#    0.000    0.000    0.000    0.000    0.000    0.000 
#
# Total GULP energy -145033.210987 kJ/mol
# GULP energy per Si atom -5578.200423 kJ/mol
# Density = 1.776217 g / cm^3
# Si number density = 17.802691 Si / 1000 Ang^3
#
#
#
# Elastic Constant Matrix: (Units=GPa)
#
#
# Indices 1 2 3 4 5 6 
#
# 1 88.6468 39.1185 7.9853 0.0000 0.0000 0.0000
# 2 39.1185 94.9828 16.2771 0.0000 0.0000 0.0000
# 3 7.9853 16.2771 96.6916 0.0000 0.0000 0.0000
# 4 0.0000 0.0000 0.0000 21.3322 0.0000 0.0000
# 5 0.0000 0.0000 0.0000 0.0000 26.8367 0.0000
# 6 0.0000 0.0000 0.0000 0.0000 0.0000 18.3866
#
#
#
# Elastic Compliance Matrix: (Units=1/GPa)
#
#
# Indices 1 2 3 4 5 6 
#
# 1 0.013790 -0.005647 -0.000188 0.000000 0.000000 0.000000
# 2 -0.005647 0.013153 -0.001748 0.000000 0.000000 0.000000
# 3 -0.000188 -0.001748 0.010652 0.000000 0.000000 0.000000
# 4 0.000000 0.000000 0.000000 0.046878 0.000000 0.000000
# 5 0.000000 0.000000 0.000000 0.000000 0.037262 0.000000
# 6 0.000000 0.000000 0.000000 0.000000 0.000000 0.054387
#
#
# Mechanical properties :
#
#
# Convention : Reuss Voigt Hill
#
# Bulk Modulus (GPa) = 44.58546 45.23146 44.90846
# Shear Modulus (GPa) = 25.15534 27.77376 26.46455
#
# Velocity S-wave (km/s) = 3.76308 3.95408 3.85976
# Velocity P-wave (km/s) = 6.63171 6.80504 6.71894
#
# Compressibility (1/GPa) = 0.02242884
#
# Stress axis : x y z
#
# Youngs Moduli (GPa) = 72.51838 76.02563 93.87959
#
# Poissons Ratio (x) = 0.42932 0.01767
# Poissons Ratio (y) = 0.40951 0.16409
# Poissons Ratio (z) = 0.01365 0.13289
#
# Static dielectric constant tensor:
#      x y z
#    x 1.625830 0.000000 0.000000 
#    y 0.000000 1.604560 0.000000 
#    z 0.000000 0.000000 1.620970 
# 
# From -- ./inp_files/2645.got.cif
#   From: 2010.05.17/outbox.cif.g08.bks.cpg/sg41_2_cif.got.tgz:2645.got - 2010.06.03 18:54:24.
