data_PCOD9366593
_publ_section_title
;
Structure prediction by ZEFSAII (Michael W. Deem and Ramdas Pophale) SiO2 
 PCOD9366593
Probable space group: A B A 2
;
_chemical_formula_sum "Si O2"
_cell_formula_units_Z 60
_cell_length_a 17.055189
_cell_length_b 5.335663
_cell_length_c 34.739412
_cell_angle_alpha 90.000000
_cell_angle_beta 90.000000
_cell_angle_gamma 90.000000
_cell_volume 3161.312231
_symmetry_space_group_name_H-M "A B A 2"
_symmetry_group_IT_number 41
_symmetry_cell_setting 'orthorhombic'
loop_
_space_group_symop_operation_xyz
x,y,z
-x,-y,z
1/2-x,y,1/2+z
1/2+x,-y,1/2+z
x,1/2+y,1/2+z
-x,1/2-y,1/2+z
1/2-x,1/2+y,z
1/2+x,1/2-y,z
loop_
_atom_site_type_symbol
_atom_site_label
_atom_site_fract_x
_atom_site_fract_y
_atom_site_fract_z
Si Si1 0.000000 0.500000 0.386160
Si Si2 0.588793 0.105084 0.859769
Si Si3 0.699802 0.919762 0.793443
Si Si4 0.802336 0.381630 0.011397
Si Si5 0.094482 0.004276 0.586038
Si Si6 0.082982 0.601403 0.939632
Si Si7 0.197497 0.038600 0.206971
Si Si8 0.406049 0.002735 0.632433
O O1 0.932366 0.395624 0.357834
O O2 0.947702 0.659394 0.416065
O O3 0.641309 0.984439 0.827808
O O4 0.500000 0.000000 0.858377
O O5 0.615035 0.065807 0.904009
O O6 0.765438 0.140004 0.796252
O O7 0.664551 0.950758 0.750562
O O8 0.757540 0.116059 0.012931
O O9 0.853584 0.377175 0.972467
O O10 0.861057 0.430539 0.046868
O O11 0.116063 0.733730 0.604117
O O12 0.115321 0.231826 0.614949
O O13 0.000000 0.000000 0.580441
O O14 0.000000 0.500000 0.956037
O O15 0.253412 0.281315 0.203251
O O16 0.134161 0.044210 0.173356
O O17 0.500000 0.000000 0.636256
#
# Coordination Sequence:
#
# PCOD9366593 Si02
#       8
#     4   8   8   8   8   8   8   8
#     4   8  18  38  62  82 110 152 216 232 300 348
#     4   9  20  37  61  86 113 154 202 245 291 345
#     4  10  23  38  57  86 123 158 195 235 293 353
#     4  12  27  40  58  91 124 149 196 246 291 343
#     4  10  22  42  61  85 116 156 192 235 293 353
#     4   9  21  40  61  83 113 161 197 239 296 355
#     4  10  21  38  58  85 119 158 190 230 291 355
#     4  10  21  38  64  88 113 147 199 243 284 340
#
# _framework density 18.97946
#
# number of rings (size 3 to 8) (size 9 to 14) (size 15 to 20)
#    0.000    2.400    0.000    2.000    7.467    4.800 
#    3.600    0.000    4.400    0.000    0.000    0.000 
#    0.000    0.000    0.000    0.000    0.000    0.000 
#
# Total GULP energy -167062.181901 kJ/mol
# GULP energy per Si atom -5568.739397 kJ/mol
# Density = 1.893626 g / cm^3
# Si number density = 18.979460 Si / 1000 Ang^3
#
#
#
# Elastic Constant Matrix: (Units=GPa)
#
#
# Indices 1 2 3 4 5 6 
#
# 1 21.2456 -2.6693 30.5276 0.0000 0.0000 0.0000
# 2 -2.6693 73.7818 -3.8889 0.0000 0.0000 0.0000
# 3 30.5276 -3.8889 83.9198 0.0000 0.0000 0.0000
# 4 0.0000 0.0000 0.0000 21.5631 0.0000 0.0000
# 5 0.0000 0.0000 0.0000 0.0000 48.3910 0.0000
# 6 0.0000 0.0000 0.0000 0.0000 0.0000 16.5792
#
#
#
# Elastic Compliance Matrix: (Units=1/GPa)
#
#
# Indices 1 2 3 4 5 6 
#
# 1 0.098823 0.001685 -0.035871 0.000000 0.000000 0.000000
# 2 0.001685 0.013615 0.000018 0.000000 0.000000 0.000000
# 3 -0.035871 0.000018 0.024966 0.000000 0.000000 0.000000
# 4 0.000000 0.000000 0.000000 0.046376 0.000000 0.000000
# 5 0.000000 0.000000 0.000000 0.000000 0.020665 0.000000
# 6 0.000000 0.000000 0.000000 0.000000 0.000000 0.060316
#
#
# Mechanical properties :
#
#
# Convention : Reuss Voigt Hill
#
# Bulk Modulus (GPa) = 14.47856 25.20955 19.84405
# Shear Modulus (GPa) = 14.04024 27.63851 20.83938
#
# Velocity S-wave (km/s) = 2.72280 3.82020 3.31720
# Velocity P-wave (km/s) = 4.18688 5.72451 5.01497
#
# Compressibility (1/GPa) = 0.06906765
#
# Stress axis : x y z
#
# Youngs Moduli (GPa) = 10.11914 73.44638 40.05493
#
# Poissons Ratio (x) = -0.12372 1.43680
# Poissons Ratio (y) = -0.01705 -0.00073
# Poissons Ratio (z) = 0.36298 -0.00133
#
# Static dielectric constant tensor:
#      x y z
#    x 1.633660 0.000000 0.000000 
#    y 0.000000 1.929990 0.000000 
#    z 0.000000 0.000000 1.634470 
# 
# From -- ./inp_files/12757.got.cif
#   From: 2010.05.17/outbox.cif.g08.bks.cpg/sg41_7_cif.got.tgz:12757.got - 2010.06.03 18:54:24.
