data_PCOD9366189
_publ_section_title
;
Structure prediction by ZEFSAII (Michael W. Deem and Ramdas Pophale) SiO2 
 PCOD9366189
Probable space group: A B A 2
;
_chemical_formula_sum "Si O2"
_cell_formula_units_Z 52
_cell_length_a 19.015503
_cell_length_b 11.797653
_cell_length_c 11.815207
_cell_angle_alpha 90.000000
_cell_angle_beta 90.000000
_cell_angle_gamma 90.000000
_cell_volume 2650.603524
_symmetry_space_group_name_H-M "A B A 2"
_symmetry_group_IT_number 41
_symmetry_cell_setting 'orthorhombic'
loop_
_space_group_symop_operation_xyz
x,y,z
-x,-y,z
1/2-x,y,1/2+z
1/2+x,-y,1/2+z
x,1/2+y,1/2+z
-x,1/2-y,1/2+z
1/2-x,1/2+y,z
1/2+x,1/2-y,z
loop_
_atom_site_type_symbol
_atom_site_label
_atom_site_fract_x
_atom_site_fract_y
_atom_site_fract_z
Si Si1 0.247836 0.310656 0.315130
Si Si2 0.629953 0.836852 0.400794
Si Si3 0.481916 0.750210 0.350160
Si Si4 0.870675 0.600750 0.470449
Si Si5 0.857000 0.029246 0.220920
Si Si6 0.500000 0.500000 0.353177
Si Si7 0.365349 0.226007 0.658380
O O1 0.299232 0.205192 0.339643
O O2 0.193508 0.330216 0.416229
O O3 0.299741 0.416071 0.301503
O O4 0.197666 0.303099 0.205180
O O5 0.560733 0.795744 0.334107
O O6 0.624804 0.775000 0.524012
O O7 0.629402 0.971533 0.423544
O O8 0.441621 0.837121 0.431992
O O9 0.482374 0.623373 0.405303
O O10 0.435637 0.746440 0.234035
O O11 0.862073 0.596609 0.604202
O O12 0.932789 0.029427 0.277881
O O13 0.840699 0.900305 0.190857
#
# Coordination Sequence:
#
# PCOD9366189 Si02
#       7
#     8   8   8   8   8   4   8
#     4  11  20  38  58  86 122 149 188 244 295 342
#     4  11  21  37  63  85 114 157 192 238 298 344
#     4  10  21  37  60  83 116 149 195 243 281 346
#     4  10  23  36  61  89 115 152 196 238 290 348
#     4  10  20  36  61  83 114 154 198 228 288 356
#     4  10  20  38  58  84 112 158 194 244 282 350
#     4   9  22  37  56  86 119 147 197 241 284 353
#
# _framework density 19.618174
#
# number of rings (size 3 to 8) (size 9 to 14) (size 15 to 20)
#    0.000    1.846    1.538    2.308    6.462    0.000 
#    0.000    0.000   13.538    0.000    0.000    0.000 
#    0.000    0.000    0.000    0.000    0.000    0.000 
#
# Total GULP energy -145045.229035 kJ/mol
# GULP energy per Si atom -5578.662655 kJ/mol
# Density = 1.957352 g / cm^3
# Si number density = 19.618174 Si / 1000 Ang^3
#
#
#
# Elastic Constant Matrix: (Units=GPa)
#
#
# Indices 1 2 3 4 5 6 
#
# 1 120.6659 31.5610 12.4391 0.0000 0.0000 0.0000
# 2 31.5610 46.3473 -9.6904 0.0000 0.0000 0.0000
# 3 12.4391 -9.6904 18.2932 0.0000 0.0000 0.0000
# 4 0.0000 0.0000 0.0000 24.7506 0.0000 0.0000
# 5 0.0000 0.0000 0.0000 0.0000 9.1063 0.0000
# 6 0.0000 0.0000 0.0000 0.0000 0.0000 40.3385
#
#
#
# Elastic Compliance Matrix: (Units=1/GPa)
#
#
# Indices 1 2 3 4 5 6 
#
# 1 0.013005 -0.012038 -0.015220 0.000000 0.000000 0.000000
# 2 -0.012038 0.035407 0.026942 0.000000 0.000000 0.000000
# 3 -0.015220 0.026942 0.079286 0.000000 0.000000 0.000000
# 4 0.000000 0.000000 0.000000 0.040403 0.000000 0.000000
# 5 0.000000 0.000000 0.000000 0.000000 0.109814 0.000000
# 6 0.000000 0.000000 0.000000 0.000000 0.000000 0.024790
#
#
# Mechanical properties :
#
#
# Convention : Reuss Voigt Hill
#
# Bulk Modulus (GPa) = 7.86998 28.21396 18.04197
# Shear Modulus (GPa) = 14.46364 24.90553 19.68459
#
# Velocity S-wave (km/s) = 2.71819 3.56689 3.17106
# Velocity P-wave (km/s) = 3.72448 5.60146 4.75647
#
# Compressibility (1/GPa) = 0.12706520
#
# Stress axis : x y z
#
# Youngs Moduli (GPa) = 76.89316 28.24297 12.61251
#
# Poissons Ratio (x) = 0.34000 0.19197
# Poissons Ratio (y) = 0.92566 -0.33981
# Poissons Ratio (z) = 1.17033 -0.76092
#
# Static dielectric constant tensor:
#      x y z
#    x 1.700350 0.000000 0.000000 
#    y 0.000000 1.737500 0.000000 
#    z 0.000000 0.000000 1.691350 
# 
# From -- ./inp_files/5973.got.cif
#   From: 2010.05.17/outbox.cif.g08.bks.cpg/sg41_3_cif.got.tgz:5973.got - 2010.06.03 18:54:24.
