data_PCOD9366679
_publ_section_title
;
Structure prediction by ZEFSAII (Michael W. Deem and Ramdas Pophale) SiO2 
 PCOD9366679
Probable space group: A B A 2
;
_chemical_formula_sum "Si O2"
_cell_formula_units_Z 52
_cell_length_a 26.540233
_cell_length_b 11.511825
_cell_length_c 8.946529
_cell_angle_alpha 90.000000
_cell_angle_beta 90.000000
_cell_angle_gamma 90.000000
_cell_volume 2733.401851
_symmetry_space_group_name_H-M "A B A 2"
_symmetry_group_IT_number 41
_symmetry_cell_setting 'orthorhombic'
loop_
_space_group_symop_operation_xyz
x,y,z
-x,-y,z
1/2-x,y,1/2+z
1/2+x,-y,1/2+z
x,1/2+y,1/2+z
-x,1/2-y,1/2+z
1/2-x,1/2+y,z
1/2+x,1/2-y,z
loop_
_atom_site_type_symbol
_atom_site_label
_atom_site_fract_x
_atom_site_fract_y
_atom_site_fract_z
Si Si1 0.925630 0.957254 0.588440
Si Si2 0.253557 0.093010 0.440557
Si Si3 0.072135 0.597766 0.744325
Si Si4 0.316484 0.478891 0.677356
Si Si5 0.818486 0.294081 0.700141
Si Si6 0.011700 0.336301 0.240109
Si Si7 0.500000 0.500000 0.015510
O O1 0.928327 0.955699 0.409813
O O2 0.958546 0.851620 0.655521
O O3 0.868473 0.955320 0.643290
O O4 0.951396 0.073837 0.653755
O O5 0.214974 0.170163 0.343485
O O6 0.286795 0.167473 0.555217
O O7 0.289631 0.027852 0.324481
O O8 0.221157 0.003693 0.539884
O O9 0.128419 0.639168 0.706714
O O10 0.035635 0.710245 0.743944
O O11 0.048509 0.513230 0.620786
O O12 0.327194 0.343103 0.695387
O O13 0.004474 0.389947 0.405180
#
# Coordination Sequence:
#
# PCOD9366679 Si02
#       7
#     8   8   8   8   8   8   4
#     4  10  21  39  63  87 122 158 195 249 307 351
#     4  10  24  41  62  91 123 156 208 251 299 362
#     4  12  22  40  63  90 123 159 202 246 301 364
#     4  11  21  43  63  89 124 160 199 256 303 359
#     4  11  23  39  66  90 120 163 200 248 307 360
#     4  10  23  42  60  86 123 161 196 251 297 359
#     4  10  24  38  60  90 118 154 208 242 294 366
#
# _framework density 19.023913
#
# number of rings (size 3 to 8) (size 9 to 14) (size 15 to 20)
#    0.000    1.538    3.077    2.769    4.308    0.000 
#    0.000    1.538    0.000    0.000    0.000    0.000 
#    0.000    0.000    0.000    0.000    0.000    0.000 
#
# Total GULP energy -145297.538397 kJ/mol
# GULP energy per Si atom -5588.366861 kJ/mol
# Density = 1.898061 g / cm^3
# Si number density = 19.023913 Si / 1000 Ang^3
#
#
#
# Elastic Constant Matrix: (Units=GPa)
#
#
# Indices 1 2 3 4 5 6 
#
# 1 121.2866 15.5092 57.4362 0.0000 0.0000 0.0000
# 2 15.5092 24.5642 18.2133 0.0000 0.0000 0.0000
# 3 57.4362 18.2133 127.8644 0.0000 0.0000 0.0000
# 4 0.0000 0.0000 0.0000 11.4102 0.0000 0.0000
# 5 0.0000 0.0000 0.0000 0.0000 -79.6576 0.0000
# 6 0.0000 0.0000 0.0000 0.0000 0.0000 -352.3008
#
#
#
# Elastic Compliance Matrix: (Units=1/GPa)
#
#
# Indices 1 2 3 4 5 6 
#
# 1 0.010748 -0.003585 -0.004317 0.000000 0.000000 0.000000
# 2 -0.003585 0.046713 -0.005044 0.000000 0.000000 0.000000
# 3 -0.004317 -0.005044 0.010478 0.000000 0.000000 0.000000
# 4 0.000000 0.000000 0.000000 0.087641 0.000000 0.000000
# 5 0.000000 0.000000 0.000000 0.000000 -0.012554 0.000000
# 6 0.000000 0.000000 0.000000 0.000000 0.000000 -0.002838
#
#
# Mechanical properties :
#
#
# Convention : Reuss Voigt Hill
#
# Bulk Modulus (GPa) = 23.78258 50.67029 37.22643
# Shear Modulus (GPa) = 27.76320 -71.93920 -22.08800
#
# Velocity S-wave (km/s) = 3.82433 -6.15607 -3.41114
# Velocity P-wave (km/s) = 5.65944 4.88229 2.02392
#
# Compressibility (1/GPa) = 0.04204759
#
# Stress axis : x y z
#
# Youngs Moduli (GPa) = 93.04227 21.40753 95.43370
#
# Poissons Ratio (x) = 0.07674 0.41201
# Poissons Ratio (y) = 0.33354 0.48132
# Poissons Ratio (z) = 0.40169 0.10797
#
# Static dielectric constant tensor:
#      x y z
#    x 1.648700 0.000000 0.000000 
#    y 0.000000 1.637320 0.000000 
#    z 0.000000 0.000000 1.645140 
# 
# From -- ./inp_files/3775.got.cif
#   From: 2010.05.17/outbox.cif.g08.bks.cpg/sg41_2_cif.got.tgz:3775.got - 2010.06.03 18:54:24.
