data_PCOD9366200
_publ_section_title
;
Structure prediction by ZEFSAII (Michael W. Deem and Ramdas Pophale) SiO2 
 PCOD9366200
Probable space group: A B A 2
;
_chemical_formula_sum "Si O2"
_cell_formula_units_Z 60
_cell_length_a 13.478274
_cell_length_b 22.884786
_cell_length_c 7.984899
_cell_angle_alpha 90.000000
_cell_angle_beta 90.000000
_cell_angle_gamma 90.000000
_cell_volume 2462.921465
_symmetry_space_group_name_H-M "A B A 2"
_symmetry_group_IT_number 41
_symmetry_cell_setting 'orthorhombic'
loop_
_space_group_symop_operation_xyz
x,y,z
-x,-y,z
1/2-x,y,1/2+z
1/2+x,-y,1/2+z
x,1/2+y,1/2+z
-x,1/2-y,1/2+z
1/2-x,1/2+y,z
1/2+x,1/2-y,z
loop_
_atom_site_type_symbol
_atom_site_label
_atom_site_fract_x
_atom_site_fract_y
_atom_site_fract_z
Si Si1 0.000000 0.000000 0.828231
Si Si2 0.264612 0.203407 0.399761
Si Si3 0.906661 0.617079 0.435001
Si Si4 0.905146 0.284297 0.692302
Si Si5 0.794392 0.586008 0.740777
Si Si6 0.657424 0.011311 0.035170
Si Si7 0.116426 0.111886 0.402710
Si Si8 0.049490 0.185413 0.699017
O O1 0.909253 0.996244 0.696332
O O2 0.031380 0.943939 0.934826
O O3 0.163009 0.235476 0.351186
O O4 0.225959 0.138518 0.439250
O O5 0.336770 0.195736 0.243047
O O6 0.334200 0.229045 0.538378
O O7 0.857483 0.626321 0.616549
O O8 0.810935 0.611435 0.308415
O O9 0.986334 0.660548 0.354241
O O10 0.914728 0.353292 0.734254
O O11 0.001849 0.247735 0.665281
O O12 0.761360 0.530443 0.622837
O O13 0.855077 0.564963 0.904065
O O14 0.633261 0.956056 0.917770
O O15 0.046605 0.138828 0.548470
#
# Coordination Sequence:
#
# PCOD9366200 Si02
#       8
#     4   8   8   8   8   8   8   8
#     4  10  20  38  56  92 120 156 212 266 300 380
#     4  10  22  41  58  93 129 158 219 267 320 382
#     4  10  22  41  63  92 129 171 214 263 323 392
#     4  10  23  39  62  93 130 164 211 270 324 386
#     4   9  22  40  58  92 131 166 210 260 327 385
#     4  10  20  36  64  85 123 164 204 265 318 379
#     4  10  21  40  63  93 121 166 211 268 325 375
#     4  12  22  41  68  91 128 171 218 268 323 396
#
# _framework density 24.361312000000002
#
# number of rings (size 3 to 8) (size 9 to 14) (size 15 to 20)
#    0.800    1.067    2.667    0.800    3.733    2.667 
#    2.400    0.000    0.000    0.000    0.000    0.000 
#    0.000    0.000    0.000    0.000    0.000    0.000 
#
# Total GULP energy -167175.617812 kJ/mol
# GULP energy per Si atom -5572.520594 kJ/mol
# Density = 2.430586 g / cm^3
# Si number density = 24.361312 Si / 1000 Ang^3
#
#
#
# Elastic Constant Matrix: (Units=GPa)
#
#
# Indices 1 2 3 4 5 6 
#
# 1 89.0500 20.9221 9.3501 0.0000 0.0000 0.0000
# 2 20.9221 39.0730 -3.6977 0.0000 0.0000 0.0000
# 3 9.3501 -3.6977 81.4683 0.0000 0.0000 0.0000
# 4 0.0000 0.0000 0.0000 21.1013 0.0000 0.0000
# 5 0.0000 0.0000 0.0000 0.0000 36.8903 0.0000
# 6 0.0000 0.0000 0.0000 0.0000 0.0000 -1.5022
#
#
#
# Elastic Compliance Matrix: (Units=1/GPa)
#
#
# Indices 1 2 3 4 5 6 
#
# 1 0.013112 -0.007194 -0.001831 0.000000 0.000000 0.000000
# 2 -0.007194 0.029651 0.002172 0.000000 0.000000 0.000000
# 3 -0.001831 0.002172 0.012583 0.000000 0.000000 0.000000
# 4 0.000000 0.000000 0.000000 0.047390 0.000000 0.000000
# 5 0.000000 0.000000 0.000000 0.000000 0.027107 0.000000
# 6 0.000000 0.000000 0.000000 0.000000 0.000000 -0.665710
#
#
# Mechanical properties :
#
#
# Convention : Reuss Voigt Hill
#
# Bulk Modulus (GPa) = 24.01652 29.19336 26.60494
# Shear Modulus (GPa) = -9.83715 23.49901 6.83093
#
# Velocity S-wave (km/s) = -2.01166 3.10918 1.67633
# Velocity P-wave (km/s) = 2.11758 4.98987 3.83295
#
# Compressibility (1/GPa) = 0.04163800
#
# Stress axis : x y z
#
# Youngs Moduli (GPa) = 76.26449 33.72569 79.46934
#
# Poissons Ratio (x) = 0.24264 0.14554
# Poissons Ratio (y) = 0.54868 -0.17257
# Poissons Ratio (z) = 0.13967 -0.07324
#
# Static dielectric constant tensor:
#      x y z
#    x 1.958690 0.000000 0.000000 
#    y 0.000000 1.974950 0.000000 
#    z 0.000000 0.000000 2.038510 
# 
# From -- ./inp_files/2162.got.cif
#   From: 2010.05.17/outbox.cif.g08.bks.cpg/sg41_2_cif.got.tgz:2162.got - 2010.06.03 18:54:24.
