data_PCOD9366443
_publ_section_title
;
Structure prediction by ZEFSAII (Michael W. Deem and Ramdas Pophale) SiO2 
 PCOD9366443
Probable space group: A B A 2
;
_chemical_formula_sum "Si O2"
_cell_formula_units_Z 36
_cell_length_a 20.175912
_cell_length_b 12.904624
_cell_length_c 5.284744
_cell_angle_alpha 90.000000
_cell_angle_beta 90.000000
_cell_angle_gamma 90.000000
_cell_volume 1375.949467
_symmetry_space_group_name_H-M "A B A 2"
_symmetry_group_IT_number 41
_symmetry_cell_setting 'orthorhombic'
loop_
_space_group_symop_operation_xyz
x,y,z
-x,-y,z
1/2-x,y,1/2+z
1/2+x,-y,1/2+z
x,1/2+y,1/2+z
-x,1/2-y,1/2+z
1/2-x,1/2+y,z
1/2+x,1/2-y,z
loop_
_atom_site_type_symbol
_atom_site_label
_atom_site_fract_x
_atom_site_fract_y
_atom_site_fract_z
Si Si1 0.595703 0.353216 0.020040
Si Si2 0.316551 0.465259 0.171191
Si Si3 0.874900 0.125071 0.655181
Si Si4 0.000000 0.000000 0.775694
Si Si5 0.719451 0.347677 0.674978
O O1 0.631427 0.439345 0.190719
O O2 0.597019 0.241389 0.144342
O O3 0.526831 0.403595 0.941128
O O4 0.644971 0.347580 0.774339
O O5 0.328479 0.391649 0.409749
O O6 0.249655 0.534944 0.149203
O O7 0.339143 0.404034 0.919050
O O8 0.937461 0.047264 0.631190
O O9 0.737824 0.300076 0.406053
#
# Coordination Sequence:
#
# PCOD9366443 Si02
#       5
#     8   8   8   4   8
#     4  10  24  45  69 100 136 180 228 281 341 405
#     4  10  23  45  67  98 135 172 223 285 336 406
#     4  11  25  44  72 100 134 184 229 275 345 407
#     4  10  24  44  66  96 136 176 230 288 330 400
#     4  10  20  41  67  95 137 172 213 279 339 399
#
# _framework density 26.163753
#
# number of rings (size 3 to 8) (size 9 to 14) (size 15 to 20)
#    0.000    1.778    0.000    4.000    0.000   16.000 
#    0.000   35.556    0.000    0.000    0.000    0.000 
#    0.000    0.000    0.000    0.000    0.000    0.000 
#
# Total GULP energy -100663.357628 kJ/mol
# GULP energy per Si atom -5592.408757 kJ/mol
# Density = 2.610420 g / cm^3
# Si number density = 26.163753 Si / 1000 Ang^3
#
#
#
# Elastic Constant Matrix: (Units=GPa)
#
#
# Indices 1 2 3 4 5 6 
#
# 1 76.3524 34.8729 8.4193 0.0000 0.0000 0.0000
# 2 34.8729 206.2561 48.0860 0.0000 0.0000 0.0000
# 3 8.4193 48.0860 140.3458 0.0000 0.0000 0.0000
# 4 0.0000 0.0000 0.0000 11.9488 0.0000 0.0000
# 5 0.0000 0.0000 0.0000 0.0000 34.8855 0.0000
# 6 0.0000 0.0000 0.0000 0.0000 0.0000 53.9124
#
#
#
# Elastic Compliance Matrix: (Units=1/GPa)
#
#
# Indices 1 2 3 4 5 6 
#
# 1 0.014193 -0.002392 -0.000032 0.000000 0.000000 0.000000
# 2 -0.002392 0.005672 -0.001800 0.000000 0.000000 0.000000
# 3 -0.000032 -0.001800 0.007744 0.000000 0.000000 0.000000
# 4 0.000000 0.000000 0.000000 0.083690 0.000000 0.000000
# 5 0.000000 0.000000 0.000000 0.000000 0.028665 0.000000
# 6 0.000000 0.000000 0.000000 0.000000 0.000000 0.018549
#
#
# Mechanical properties :
#
#
# Convention : Reuss Voigt Hill
#
# Bulk Modulus (GPa) = 52.18816 67.30119 59.74467
# Shear Modulus (GPa) = 28.84354 42.25442 35.54898
#
# Velocity S-wave (km/s) = 3.32388 4.02306 3.69007
# Velocity P-wave (km/s) = 5.89245 6.88179 6.40624
#
# Compressibility (1/GPa) = 0.01916144
#
# Stress axis : x y z
#
# Youngs Moduli (GPa) = 70.45565 176.28980 129.13396
#
# Poissons Ratio (x) = 0.42174 0.00410
# Poissons Ratio (y) = 0.16855 0.23244
# Poissons Ratio (z) = 0.00224 0.31732
#
# Static dielectric constant tensor:
#      x y z
#    x 2.098910 0.000000 0.000000 
#    y 0.000000 2.062760 0.000000 
#    z 0.000000 0.000000 2.176830 
# 
# From -- ./inp_files/636.got.cif
#   From: 2010.05.17/outbox.cif.g08.bks.cpg/sg41_1_cif.got.tgz:636.got - 2010.06.03 18:54:24.
