data_PCOD9366839
_publ_section_title
;
Structure prediction by ZEFSAII (Michael W. Deem and Ramdas Pophale) SiO2 
 PCOD9366839
Probable space group: A B A 2
;
_chemical_formula_sum "Si O2"
_cell_formula_units_Z 64
_cell_length_a 12.869769
_cell_length_b 26.938816
_cell_length_c 7.691363
_cell_angle_alpha 90.000000
_cell_angle_beta 90.000000
_cell_angle_gamma 90.000000
_cell_volume 2666.567394
_symmetry_space_group_name_H-M "A B A 2"
_symmetry_group_IT_number 41
_symmetry_cell_setting 'orthorhombic'
loop_
_space_group_symop_operation_xyz
x,y,z
-x,-y,z
1/2-x,y,1/2+z
1/2+x,-y,1/2+z
x,1/2+y,1/2+z
-x,1/2-y,1/2+z
1/2-x,1/2+y,z
1/2+x,1/2-y,z
loop_
_atom_site_type_symbol
_atom_site_label
_atom_site_fract_x
_atom_site_fract_y
_atom_site_fract_z
Si Si1 0.563543 0.804631 0.820300
Si Si2 0.583431 0.375775 0.839175
Si Si3 0.783619 0.886429 0.182996
Si Si4 0.588812 0.117269 0.704671
Si Si5 0.080099 0.464883 0.310467
Si Si6 0.551841 0.198255 0.187059
Si Si7 0.581721 0.467598 0.166919
Si Si8 0.693187 0.106804 0.077001
O O1 0.657877 0.843123 0.790094
O O2 0.463913 0.829246 0.723415
O O3 0.592396 0.751624 0.741512
O O4 0.519998 0.798910 0.015148
O O5 0.660688 0.380863 0.676776
O O6 0.495020 0.417044 0.831710
O O7 0.524970 0.323805 0.833674
O O8 0.666311 0.382527 0.991693
O O9 0.814456 0.942954 0.238524
O O10 0.493459 0.081200 0.662609
O O11 0.683084 0.113877 0.569749
O O12 0.639794 0.102529 0.889340
O O13 0.171196 0.441901 0.195145
O O14 0.000000 0.500000 0.208367
O O15 0.102973 0.498065 0.489649
O O16 0.641183 0.156987 0.155244
O O17 0.500000 0.500000 0.275042
#
# Coordination Sequence:
#
# PCOD9366839 Si02
#       8
#     8   8   8   8   8   8   8   8
#     4  10  22  42  66  95 127 170 212 260 322 387
#     4  11  22  39  63  91 128 166 209 269 317 380
#     4  11  22  39  63  91 128 166 209 269 317 380
#     4  10  24  41  65  95 130 167 214 267 323 383
#     4  10  21  42  62  88 125 168 219 259 325 373
#     4  10  22  42  66  95 127 170 212 260 322 387
#     4  10  21  42  62  88 125 168 219 259 325 373
#     4  10  24  41  65  95 130 167 214 267 323 383
#
# _framework density 24.000893999999999
#
# number of rings (size 3 to 8) (size 9 to 14) (size 15 to 20)
#    0.000    1.750    2.500    1.500    3.500    5.500 
#    0.000    2.500    0.000    0.000    0.000    0.000 
#    0.000    0.000    0.000    0.000    0.000    0.000 
#
# Total GULP energy -178315.170862 kJ/mol
# GULP energy per Si atom -5572.349089 kJ/mol
# Density = 2.394627 g / cm^3
# Si number density = 24.000894 Si / 1000 Ang^3
#
#
#
# Elastic Constant Matrix: (Units=GPa)
#
#
# Indices 1 2 3 4 5 6 
#
# 1 99.3022 29.1275 18.3077 0.0000 0.0000 0.0000
# 2 29.1275 139.2091 25.8400 0.0000 0.0000 0.0000
# 3 18.3077 25.8400 78.8725 0.0000 0.0000 0.0000
# 4 0.0000 0.0000 0.0000 -28.6124 0.0000 0.0000
# 5 0.0000 0.0000 0.0000 0.0000 32.7974 0.0000
# 6 0.0000 0.0000 0.0000 0.0000 0.0000 25.9390
#
#
#
# Elastic Compliance Matrix: (Units=1/GPa)
#
#
# Indices 1 2 3 4 5 6 
#
# 1 0.010994 -0.001945 -0.001915 0.000000 0.000000 0.000000
# 2 -0.001945 0.007993 -0.002167 0.000000 0.000000 0.000000
# 3 -0.001915 -0.002167 0.013833 0.000000 0.000000 0.000000
# 4 0.000000 0.000000 0.000000 -0.034950 0.000000 0.000000
# 5 0.000000 0.000000 0.000000 0.000000 0.030490 0.000000
# 6 0.000000 0.000000 0.000000 0.000000 0.000000 0.038552
#
#
# Mechanical properties :
#
#
# Convention : Reuss Voigt Hill
#
# Bulk Modulus (GPa) = 48.15518 51.54825 49.85171
# Shear Modulus (GPa) = 58.21584 22.29868 40.25726
#
# Velocity S-wave (km/s) = 4.93035 3.05138 4.09996
# Velocity P-wave (km/s) = 7.24697 5.82571 6.57486
#
# Compressibility (1/GPa) = 0.02076620
#
# Stress axis : x y z
#
# Youngs Moduli (GPa) = 90.96084 125.11524 72.29041
#
# Poissons Ratio (x) = 0.24333 0.13841
# Poissons Ratio (y) = 0.17691 0.15666
# Poissons Ratio (z) = 0.17416 0.27114
#
# Static dielectric constant tensor:
#      x y z
#    x 1.959680 0.000000 0.000000 
#    y 0.000000 1.955740 0.000000 
#    z 0.000000 0.000000 2.075800 
# 
# From -- ./inp_files/2852.got.cif
#   From: 2010.05.17/outbox.cif.g08.bks.cpg/sg41_2_cif.got.tgz:2852.got - 2010.06.03 18:54:24.
