data_PCOD9366976
_publ_section_title
;
Structure prediction by ZEFSAII (Michael W. Deem and Ramdas Pophale) SiO2 
 PCOD9366976
Probable space group: A B A 2
;
_chemical_formula_sum "Si O2"
_cell_formula_units_Z 44
_cell_length_a 26.655281
_cell_length_b 5.191118
_cell_length_c 13.915415
_cell_angle_alpha 90.000000
_cell_angle_beta 90.000000
_cell_angle_gamma 90.000000
_cell_volume 1925.485839
_symmetry_space_group_name_H-M "A B A 2"
_symmetry_group_IT_number 41
_symmetry_cell_setting 'orthorhombic'
loop_
_space_group_symop_operation_xyz
x,y,z
-x,-y,z
1/2-x,y,1/2+z
1/2+x,-y,1/2+z
x,1/2+y,1/2+z
-x,1/2-y,1/2+z
1/2-x,1/2+y,z
1/2+x,1/2-y,z
loop_
_atom_site_type_symbol
_atom_site_label
_atom_site_fract_x
_atom_site_fract_y
_atom_site_fract_z
Si Si1 0.281103 0.708570 0.740920
Si Si2 0.108099 0.607105 0.316450
Si Si3 0.379867 0.100767 0.936467
Si Si4 0.225675 0.216287 0.510728
Si Si5 0.526425 0.748564 0.022619
Si Si6 0.500000 0.000000 0.326793
O O1 0.248284 0.463546 0.774511
O O2 0.340279 0.693598 0.765533
O O3 0.277856 0.710765 0.625608
O O4 0.118897 0.320040 0.354826
O O5 0.051234 0.584228 0.273505
O O6 0.101797 0.822341 0.400479
O O7 0.414327 0.211889 0.022671
O O8 0.323554 0.085161 0.970433
O O9 0.230559 0.515351 0.483009
O O10 0.500000 0.500000 0.066812
O O11 0.515852 0.715808 0.906708
O O12 0.500000 0.000000 0.059218
#
# Coordination Sequence:
#
# PCOD9366976 Si02
#       6
#     8   8   8   8   8   4
#     4  10  22  40  55  79 111 152 181 221 281 332
#     4  11  21  33  59  82 114 138 186 231 267 326
#     4  11  20  33  55  87 101 142 181 229 263 315
#     4  10  22  38  56  76 113 148 179 218 279 333
#     4   9  15  29  47  72 102 134 165 208 261 321
#     4   8  18  30  50  76 108 140 170 208 284 308
#
# _framework density 22.851375000000001
#
# number of rings (size 3 to 8) (size 9 to 14) (size 15 to 20)
#    0.545    1.455    1.818    2.182    0.000    4.364 
#    0.000    0.000    2.000    0.000    4.727    0.000 
#    0.000    0.000    0.000    0.000    0.000    0.000 
#
# Total GULP energy -122604.567300 kJ/mol
# GULP energy per Si atom -5572.934877 kJ/mol
# Density = 2.279936 g / cm^3
# Si number density = 22.851375 Si / 1000 Ang^3
#
#
#
# Elastic Constant Matrix: (Units=GPa)
#
#
# Indices 1 2 3 4 5 6 
#
# 1 141.8477 36.4257 6.3508 0.0000 0.0000 0.0000
# 2 36.4257 131.1270 -1.5801 0.0000 0.0000 0.0000
# 3 6.3508 -1.5801 43.4942 0.0000 0.0000 0.0000
# 4 0.0000 0.0000 0.0000 -2.3478 0.0000 0.0000
# 5 0.0000 0.0000 0.0000 0.0000 17.3682 0.0000
# 6 0.0000 0.0000 0.0000 0.0000 0.0000 34.7679
#
#
#
# Elastic Compliance Matrix: (Units=1/GPa)
#
#
# Indices 1 2 3 4 5 6 
#
# 1 0.007653 -0.002140 -0.001195 0.000000 0.000000 0.000000
# 2 -0.002140 0.008228 0.000611 0.000000 0.000000 0.000000
# 3 -0.001195 0.000611 0.023188 0.000000 0.000000 0.000000
# 4 0.000000 0.000000 0.000000 -0.425925 0.000000 0.000000
# 5 0.000000 0.000000 0.000000 0.000000 0.057576 0.000000
# 6 0.000000 0.000000 0.000000 0.000000 0.000000 0.028762
#
#
# Mechanical properties :
#
#
# Convention : Reuss Voigt Hill
#
# Bulk Modulus (GPa) = 29.74312 44.31797 37.03054
# Shear Modulus (GPa) = -17.61420 28.30916 5.34748
#
# Velocity S-wave (km/s) = -2.77937 3.52353 1.53140
# Velocity P-wave (km/s) = 1.65659 5.99915 4.40080
#
# Compressibility (1/GPa) = 0.03362122
#
# Stress axis : x y z
#
# Youngs Moduli (GPa) = 130.66860 121.53441 43.12520
#
# Poissons Ratio (x) = 0.26012 0.05154
# Poissons Ratio (y) = 0.27967 -0.02637
# Poissons Ratio (z) = 0.15617 -0.07431
#
# Static dielectric constant tensor:
#      x y z
#    x 1.952490 0.000000 0.000000 
#    y 0.000000 1.855570 0.000000 
#    z 0.000000 0.000000 1.903590 
# 
# From -- ./inp_files/11674.got.cif
#   From: 2010.05.17/outbox.cif.g08.bks.cpg/sg41_6_cif.got.tgz:11674.got - 2010.06.03 18:54:24.
