data_PCOD9366192
_publ_section_title
;
Structure prediction by ZEFSAII (Michael W. Deem and Ramdas Pophale) SiO2 
 PCOD9366192
Probable space group: A B A 2
;
_chemical_formula_sum "Si O2"
_cell_formula_units_Z 44
_cell_length_a 24.491616
_cell_length_b 5.294465
_cell_length_c 13.917727
_cell_angle_alpha 90.000000
_cell_angle_beta 90.000000
_cell_angle_gamma 90.000000
_cell_volume 1804.711712
_symmetry_space_group_name_H-M "A B A 2"
_symmetry_group_IT_number 41
_symmetry_cell_setting 'orthorhombic'
loop_
_space_group_symop_operation_xyz
x,y,z
-x,-y,z
1/2-x,y,1/2+z
1/2+x,-y,1/2+z
x,1/2+y,1/2+z
-x,1/2-y,1/2+z
1/2-x,1/2+y,z
1/2+x,1/2-y,z
loop_
_atom_site_type_symbol
_atom_site_label
_atom_site_fract_x
_atom_site_fract_y
_atom_site_fract_z
Si Si1 0.000000 0.500000 0.076150
Si Si2 0.273928 0.131576 0.724253
Si Si3 0.611394 0.346624 0.508644
Si Si4 0.231176 0.534179 0.008789
Si Si5 0.568534 0.673275 0.196046
Si Si6 0.890865 0.186103 0.794461
O O1 0.987389 0.262723 0.144403
O O2 0.943881 0.514326 0.017167
O O3 0.269305 0.843368 0.759387
O O4 0.260363 0.095247 0.610793
O O5 0.331749 0.253581 0.748869
O O6 0.666674 0.505806 0.516073
O O7 0.608502 0.166733 0.602499
O O8 0.610718 0.197799 0.409327
O O9 0.238975 0.803930 0.958967
O O10 0.587142 0.920332 0.256121
O O11 0.573620 0.426526 0.259417
#
# Coordination Sequence:
#
# PCOD9366192 Si02
#       6
#     4   8   8   8   8   8
#     4   8  24  50  68 106 136 190 224 300 348 408
#     4  10  20  36  61  98 133 174 224 273 338 407
#     4  10  24  46  70 107 141 183 237 287 346 419
#     4  10  20  37  64  94 138 176 218 280 338 400
#     4  10  24  46  65 102 137 180 233 288 343 406
#     4  12  24  43  76  98 140 189 230 287 349 415
#
# _framework density 24.380624999999998
#
# number of rings (size 3 to 8) (size 9 to 14) (size 15 to 20)
#    1.091    0.727    0.000    5.455    0.000    6.545 
#    0.000    0.000    0.000    0.000    0.000    0.000 
#    0.000    0.000    0.000    0.000    0.000    0.000 
#
# Total GULP energy -122821.021055 kJ/mol
# GULP energy per Si atom -5582.773684 kJ/mol
# Density = 2.432513 g / cm^3
# Si number density = 24.380625 Si / 1000 Ang^3
#
#
#
# Elastic Constant Matrix: (Units=GPa)
#
#
# Indices 1 2 3 4 5 6 
#
# 1 100.8663 21.2803 24.7349 0.0000 0.0000 0.0000
# 2 21.2803 146.9802 24.2066 0.0000 0.0000 0.0000
# 3 24.7349 24.2066 154.9996 0.0000 0.0000 0.0000
# 4 0.0000 0.0000 0.0000 -10.7051 0.0000 0.0000
# 5 0.0000 0.0000 0.0000 0.0000 25.2654 0.0000
# 6 0.0000 0.0000 0.0000 0.0000 0.0000 28.1157
#
#
#
# Elastic Compliance Matrix: (Units=1/GPa)
#
#
# Indices 1 2 3 4 5 6 
#
# 1 0.010548 -0.001283 -0.001483 0.000000 0.000000 0.000000
# 2 -0.001283 0.007139 -0.000910 0.000000 0.000000 0.000000
# 3 -0.001483 -0.000910 0.006830 0.000000 0.000000 0.000000
# 4 0.000000 0.000000 0.000000 -0.093413 0.000000 0.000000
# 5 0.000000 0.000000 0.000000 0.000000 0.039580 0.000000
# 6 0.000000 0.000000 0.000000 0.000000 0.000000 0.035567
#
#
# Mechanical properties :
#
#
# Convention : Reuss Voigt Hill
#
# Bulk Modulus (GPa) = 58.25527 60.36551 59.31039
# Shear Modulus (GPa) = 258.71361 30.71015 144.71188
#
# Velocity S-wave (km/s) = 10.31236 3.55295 7.71260
# Velocity P-wave (km/s) = 12.87397 6.45327 10.18292
#
# Compressibility (1/GPa) = 0.01716583
#
# Stress axis : x y z
#
# Youngs Moduli (GPa) = 94.80059 140.06973 146.40364
#
# Poissons Ratio (x) = 0.17971 0.21711
# Poissons Ratio (y) = 0.12163 0.13326
# Poissons Ratio (z) = 0.14059 0.12749
#
# Static dielectric constant tensor:
#      x y z
#    x 2.013090 0.000000 0.000000 
#    y 0.000000 2.047520 0.000000 
#    z 0.000000 0.000000 1.982350 
# 
# From -- ./inp_files/9206.got.cif
#   From: 2010.05.17/outbox.cif.g08.bks.cpg/sg41_5_cif.got.tgz:9206.got - 2010.06.03 18:54:24.
