data_PCOD9366504
_publ_section_title
;
Structure prediction by ZEFSAII (Michael W. Deem and Ramdas Pophale) SiO2 
 PCOD9366504
Probable space group: A B A 2
;
_chemical_formula_sum "Si O2"
_cell_formula_units_Z 60
_cell_length_a 11.986122
_cell_length_b 17.257286
_cell_length_c 14.833025
_cell_angle_alpha 90.000000
_cell_angle_beta 90.000000
_cell_angle_gamma 90.000000
_cell_volume 3068.180597
_symmetry_space_group_name_H-M "A B A 2"
_symmetry_group_IT_number 41
_symmetry_cell_setting 'orthorhombic'
loop_
_space_group_symop_operation_xyz
x,y,z
-x,-y,z
1/2-x,y,1/2+z
1/2+x,-y,1/2+z
x,1/2+y,1/2+z
-x,1/2-y,1/2+z
1/2-x,1/2+y,z
1/2+x,1/2-y,z
loop_
_atom_site_type_symbol
_atom_site_label
_atom_site_fract_x
_atom_site_fract_y
_atom_site_fract_z
Si Si1 0.165698 0.918186 0.617050
Si Si2 0.510247 0.224027 0.398804
Si Si3 0.751669 0.916908 0.172656
Si Si4 0.030962 0.186917 0.693297
Si Si5 0.691570 0.825335 0.504778
Si Si6 0.000000 0.000000 0.475149
Si Si7 0.853704 0.381098 0.863733
Si Si8 0.861951 0.693964 0.563292
O O1 0.279156 0.872714 0.594475
O O2 0.082700 0.856589 0.664669
O O3 0.209614 0.994658 0.668526
O O4 0.087493 0.952083 0.536811
O O5 0.474928 0.196090 0.300763
O O6 0.403315 0.230043 0.463707
O O7 0.578463 0.301596 0.377773
O O8 0.583806 0.171662 0.466884
O O9 0.636424 0.868160 0.173481
O O10 0.822640 0.886686 0.086051
O O11 0.822560 0.898794 0.261507
O O12 0.054100 0.267771 0.638251
O O13 0.740334 0.872510 0.420569
O O14 0.783986 0.766639 0.540158
O O15 0.072003 0.055154 0.412105
#
# Coordination Sequence:
#
# PCOD9366504 Si02
#       8
#     8   8   8   8   8   4   8   8
#     4  12  23  44  71  97 133 186 228 277 348 413
#     4  11  24  41  68  98 133 177 221 281 347 396
#     4  11  23  43  67  98 136 178 227 279 342 410
#     4  11  23  42  69  96 134 178 227 279 339 414
#     4  10  20  44  65  90 139 171 226 281 327 411
#     4  12  22  44  68  92 142 184 226 274 358 412
#     4  11  24  40  67 103 130 180 224 283 337 411
#     4  10  24  38  67 103 126 175 231 278 332 403
#
# _framework density 19.555562999999999
#
# number of rings (size 3 to 8) (size 9 to 14) (size 15 to 20)
#    0.000    1.067    4.000    3.200    5.600    2.133 
#    0.000    0.000    0.000    0.000    0.000    0.000 
#    0.000    0.000    0.000    0.000    0.000    0.000 
#
# Total GULP energy -167167.459158 kJ/mol
# GULP energy per Si atom -5572.248639 kJ/mol
# Density = 1.951105 g / cm^3
# Si number density = 19.555563 Si / 1000 Ang^3
#
#
#
# Elastic Constant Matrix: (Units=GPa)
#
#
# Indices 1 2 3 4 5 6 
#
# 1 63.2015 21.9604 54.9489 0.0000 0.0000 0.0000
# 2 21.9604 53.0479 45.3786 0.0000 0.0000 0.0000
# 3 54.9489 45.3786 148.9200 0.0000 0.0000 0.0000
# 4 0.0000 0.0000 0.0000 10.1333 0.0000 0.0000
# 5 0.0000 0.0000 0.0000 0.0000 46.2739 0.0000
# 6 0.0000 0.0000 0.0000 0.0000 0.0000 46.5511
#
#
#
# Elastic Compliance Matrix: (Units=1/GPa)
#
#
# Indices 1 2 3 4 5 6 
#
# 1 0.023678 -0.003149 -0.007777 0.000000 0.000000 0.000000
# 2 -0.003149 0.025916 -0.006735 0.000000 0.000000 0.000000
# 3 -0.007777 -0.006735 0.011637 0.000000 0.000000 0.000000
# 4 0.000000 0.000000 0.000000 0.098684 0.000000 0.000000
# 5 0.000000 0.000000 0.000000 0.000000 0.021610 0.000000
# 6 0.000000 0.000000 0.000000 0.000000 0.000000 0.021482
#
#
# Mechanical properties :
#
#
# Convention : Reuss Voigt Hill
#
# Bulk Modulus (GPa) = 38.59796 56.63834 47.61815
# Shear Modulus (GPa) = 20.24563 30.11711 25.18137
#
# Velocity S-wave (km/s) = 3.22108 3.92864 3.59232
# Velocity P-wave (km/s) = 5.79778 7.04305 6.45054
#
# Compressibility (1/GPa) = 0.02590811
#
# Stress axis : x y z
#
# Youngs Moduli (GPa) = 42.23253 38.58631 85.93308
#
# Poissons Ratio (x) = 0.12152 0.66832
# Poissons Ratio (y) = 0.13301 0.57876
# Poissons Ratio (z) = 0.32845 0.25988
#
# Static dielectric constant tensor:
#      x y z
#    x 1.736870 0.000000 0.000000 
#    y 0.000000 1.821740 0.000000 
#    z 0.000000 0.000000 1.700680 
# 
# From -- ./inp_files/8069.got.cif
#   From: 2010.05.17/outbox.cif.g08.bks.cpg/sg41_5_cif.got.tgz:8069.got - 2010.06.03 18:54:24.
