data_PCOD9366465
_publ_section_title
;
Structure prediction by ZEFSAII (Michael W. Deem and Ramdas Pophale) SiO2 
 PCOD9366465
Probable space group: A B A 2
;
_chemical_formula_sum "Si O2"
_cell_formula_units_Z 52
_cell_length_a 9.135976
_cell_length_b 12.951612
_cell_length_c 21.026062
_cell_angle_alpha 90.000000
_cell_angle_beta 90.000000
_cell_angle_gamma 90.000000
_cell_volume 2487.921746
_symmetry_space_group_name_H-M "A B A 2"
_symmetry_group_IT_number 41
_symmetry_cell_setting 'orthorhombic'
loop_
_space_group_symop_operation_xyz
x,y,z
-x,-y,z
1/2-x,y,1/2+z
1/2+x,-y,1/2+z
x,1/2+y,1/2+z
-x,1/2-y,1/2+z
1/2-x,1/2+y,z
1/2+x,1/2-y,z
loop_
_atom_site_type_symbol
_atom_site_label
_atom_site_fract_x
_atom_site_fract_y
_atom_site_fract_z
Si Si1 0.500000 0.000000 0.365391
Si Si2 0.187181 0.663106 0.421411
Si Si3 0.305848 0.435570 0.203819
Si Si4 0.190313 0.320482 0.094625
Si Si5 0.673638 0.692624 0.810661
Si Si6 0.066103 0.236600 0.507141
Si Si7 0.384440 0.657104 0.197774
O O1 0.360476 0.048216 0.401667
O O2 0.558554 0.104596 0.331934
O O3 0.246542 0.739495 0.365172
O O4 0.320381 0.663490 0.470965
O O5 0.043256 0.709573 0.456582
O O6 0.196519 0.409220 0.147046
O O7 0.285596 0.373581 0.268635
O O8 0.296413 0.555819 0.217668
O O9 0.459748 0.390495 0.178451
O O10 0.186909 0.217682 0.139159
O O11 0.328128 0.313800 0.046868
O O12 0.042065 0.320531 0.055016
O O13 0.603290 0.768812 0.758427
#
# Coordination Sequence:
#
# PCOD9366465 Si02
#       7
#     4   8   8   8   8   8   8
#     4  12  24  44  70 102 134 186 226 286 362 410
#     4  11  23  45  69 100 136 184 228 288 340 415
#     4  10  21  38  65  96 129 172 220 278 354 409
#     4  10  20  42  65  95 130 178 221 281 341 411
#     4  11  23  42  68  97 137 172 230 280 351 415
#     4  10  22  43  67  92 141 180 227 287 338 395
#     4  10  21  40  66  96 131 168 219 286 344 414
#
# _framework density 20.900979
#
# number of rings (size 3 to 8) (size 9 to 14) (size 15 to 20)
#    0.000    1.538    3.077    1.846    0.000    1.231 
#    5.538    1.538    0.000    0.000    0.000    0.000 
#    0.000    0.000    0.000    0.000    0.000    0.000 
#
# Total GULP energy -144941.455326 kJ/mol
# GULP energy per Si atom -5574.671359 kJ/mol
# Density = 2.085341 g / cm^3
# Si number density = 20.900979 Si / 1000 Ang^3
#
#
#
# Elastic Constant Matrix: (Units=GPa)
#
#
# Indices 1 2 3 4 5 6 
#
# 1 89.1384 28.7895 39.6216 0.0000 0.0000 0.0000
# 2 28.7895 126.1206 49.3182 0.0000 0.0000 0.0000
# 3 39.6216 49.3182 107.0143 0.0000 0.0000 0.0000
# 4 0.0000 0.0000 0.0000 8.3337 0.0000 0.0000
# 5 0.0000 0.0000 0.0000 0.0000 38.0285 0.0000
# 6 0.0000 0.0000 0.0000 0.0000 0.0000 26.5804
#
#
#
# Elastic Compliance Matrix: (Units=1/GPa)
#
#
# Indices 1 2 3 4 5 6 
#
# 1 0.013625 -0.001388 -0.004405 0.000000 0.000000 0.000000
# 2 -0.001388 0.009813 -0.004009 0.000000 0.000000 0.000000
# 3 -0.004405 -0.004009 0.012823 0.000000 0.000000 0.000000
# 4 0.000000 0.000000 0.000000 0.119995 0.000000 0.000000
# 5 0.000000 0.000000 0.000000 0.000000 0.026296 0.000000
# 6 0.000000 0.000000 0.000000 0.000000 0.000000 0.037622
#
#
# Mechanical properties :
#
#
# Convention : Reuss Voigt Hill
#
# Bulk Modulus (GPa) = 60.03052 61.97023 61.00037
# Shear Modulus (GPa) = 20.38078 28.22477 24.30277
#
# Velocity S-wave (km/s) = 3.12606 3.67877 3.41362
# Velocity P-wave (km/s) = 6.46633 6.91074 6.69222
#
# Compressibility (1/GPa) = 0.01665819
#
# Stress axis : x y z
#
# Youngs Moduli (GPa) = 73.39634 101.90308 77.98523
#
# Poissons Ratio (x) = 0.14140 0.34353
# Poissons Ratio (y) = 0.10184 0.31262
# Poissons Ratio (z) = 0.32331 0.40850
#
# Static dielectric constant tensor:
#      x y z
#    x 1.831940 0.000000 0.000000 
#    y 0.000000 1.752560 0.000000 
#    z 0.000000 0.000000 1.785190 
# 
# From -- ./inp_files/11172.got.cif
#   From: 2010.05.17/outbox.cif.g08.bks.cpg/sg41_6_cif.got.tgz:11172.got - 2010.06.03 18:54:24.
