data_PCOD9366807
_publ_section_title
;
Structure prediction by ZEFSAII (Michael W. Deem and Ramdas Pophale) SiO2 
 PCOD9366807
Probable space group: A B A 2
;
_chemical_formula_sum "Si O2"
_cell_formula_units_Z 56
_cell_length_a 16.639548
_cell_length_b 5.490772
_cell_length_c 25.199091
_cell_angle_alpha 90.000000
_cell_angle_beta 90.000000
_cell_angle_gamma 90.000000
_cell_volume 2302.288849
_symmetry_space_group_name_H-M "A B A 2"
_symmetry_group_IT_number 41
_symmetry_cell_setting 'orthorhombic'
loop_
_space_group_symop_operation_xyz
x,y,z
-x,-y,z
1/2-x,y,1/2+z
1/2+x,-y,1/2+z
x,1/2+y,1/2+z
-x,1/2-y,1/2+z
1/2-x,1/2+y,z
1/2+x,1/2-y,z
loop_
_atom_site_type_symbol
_atom_site_label
_atom_site_fract_x
_atom_site_fract_y
_atom_site_fract_z
Si Si1 0.972338 0.748590 0.136380
Si Si2 0.216341 0.711553 0.608950
Si Si3 0.500000 0.000000 0.863257
Si Si4 0.000000 0.500000 0.038423
Si Si5 0.200103 0.533398 0.383666
Si Si6 0.583784 0.132360 0.293660
Si Si7 0.778541 0.286954 0.730998
Si Si8 0.430663 0.682922 0.956991
O O1 0.879521 0.760208 0.117886
O O2 0.000000 0.500000 0.164862
O O3 0.022061 0.710808 0.080636
O O4 0.000000 0.000000 0.162077
O O5 0.244281 0.454485 0.584476
O O6 0.248173 0.692199 0.670074
O O7 0.565651 0.877005 0.826317
O O8 0.463346 0.802309 0.902768
O O9 0.069698 0.397321 0.000392
O O10 0.249495 0.282193 0.382194
O O11 0.141185 0.519117 0.332846
O O12 0.148685 0.547135 0.438296
O O13 0.630767 0.199254 0.240324
O O14 0.500000 0.000000 0.286178
O O15 0.770371 0.557582 0.754211
O O16 0.500000 0.500000 0.975192
#
# Coordination Sequence:
#
# PCOD9366807 Si02
#       8
#     8   8   4   4   8   8   8   8
#     4  10  21  41  66 102 127 162 220 263 321 392
#     4  10  21  42  69  95 134 176 209 257 332 395
#     4  11  20  38  62  90 120 164 222 258 320 363
#     4   9  24  38  72  90 128 164 212 264 332 373
#     4  12  25  40  61  89 125 168 214 263 318 376
#     4  12  24  39  61  92 126 171 221 272 314 378
#     4  10  24  43  62  93 132 174 212 261 323 380
#     4  11  21  42  66  86 126 169 216 263 319 389
#
# _framework density 24.323620999999999
#
# number of rings (size 3 to 8) (size 9 to 14) (size 15 to 20)
#    0.429    0.857    2.857    3.000    4.000    0.571 
#    1.286    1.429    0.000    0.000    0.000    0.000 
#    0.000    0.000    0.000    0.000    0.000    0.000 
#
# Total GULP energy -156326.646705 kJ/mol
# GULP energy per Si atom -5583.094525 kJ/mol
# Density = 2.426826 g / cm^3
# Si number density = 24.323621 Si / 1000 Ang^3
#
#
#
# Elastic Constant Matrix: (Units=GPa)
#
#
# Indices 1 2 3 4 5 6 
#
# 1 90.9317 52.7525 -5.4366 0.0000 0.0000 0.0000
# 2 52.7525 180.4790 7.4261 0.0000 0.0000 0.0000
# 3 -5.4366 7.4261 53.7204 0.0000 0.0000 0.0000
# 4 0.0000 0.0000 0.0000 -10.5192 0.0000 0.0000
# 5 0.0000 0.0000 0.0000 0.0000 8.6088 0.0000
# 6 0.0000 0.0000 0.0000 0.0000 0.0000 53.2741
#
#
#
# Elastic Compliance Matrix: (Units=1/GPa)
#
#
# Indices 1 2 3 4 5 6 
#
# 1 0.013436 -0.004006 0.001913 0.000000 0.000000 0.000000
# 2 -0.004006 0.006767 -0.001341 0.000000 0.000000 0.000000
# 3 0.001913 -0.001341 0.018994 0.000000 0.000000 0.000000
# 4 0.000000 0.000000 0.000000 -0.095065 0.000000 0.000000
# 5 0.000000 0.000000 0.000000 0.000000 0.116161 0.000000
# 6 0.000000 0.000000 0.000000 0.000000 0.000000 0.018771
#
#
# Mechanical properties :
#
#
# Convention : Reuss Voigt Hill
#
# Bulk Modulus (GPa) = 30.93111 48.29058 39.61084
# Shear Modulus (GPa) = 51.70286 28.29868 40.00077
#
# Velocity S-wave (km/s) = 4.61545 3.41460 4.05967
# Velocity P-wave (km/s) = 6.41461 5.95336 6.18828
#
# Compressibility (1/GPa) = 0.03232991
#
# Stress axis : x y z
#
# Youngs Moduli (GPa) = 74.42921 147.77911 52.64850
#
# Poissons Ratio (x) = 0.59198 -0.10074
# Poissons Ratio (y) = 0.29815 0.07059
# Poissons Ratio (z) = -0.14242 0.19815
#
# Static dielectric constant tensor:
#      x y z
#    x 1.958200 0.000000 0.000000 
#    y 0.000000 2.094710 0.000000 
#    z 0.000000 0.000000 1.944240 
# 
# From -- ./inp_files/12751.got.cif
#   From: 2010.05.17/outbox.cif.g08.bks.cpg/sg41_7_cif.got.tgz:12751.got - 2010.06.03 18:54:24.
