data_PCOD9366884
_publ_section_title
;
Structure prediction by ZEFSAII (Michael W. Deem and Ramdas Pophale) SiO2 
 PCOD9366884
Probable space group: A B A 2
;
_chemical_formula_sum "Si O2"
_cell_formula_units_Z 64
_cell_length_a 18.443967
_cell_length_b 13.857220
_cell_length_c 12.481335
_cell_angle_alpha 90.000000
_cell_angle_beta 90.000000
_cell_angle_gamma 90.000000
_cell_volume 3190.005915
_symmetry_space_group_name_H-M "A B A 2"
_symmetry_group_IT_number 41
_symmetry_cell_setting 'orthorhombic'
loop_
_space_group_symop_operation_xyz
x,y,z
-x,-y,z
1/2-x,y,1/2+z
1/2+x,-y,1/2+z
x,1/2+y,1/2+z
-x,1/2-y,1/2+z
1/2-x,1/2+y,z
1/2+x,1/2-y,z
loop_
_atom_site_type_symbol
_atom_site_label
_atom_site_fract_x
_atom_site_fract_y
_atom_site_fract_z
Si Si1 0.973344 0.708588 0.634440
Si Si2 0.330859 0.515207 0.140467
Si Si3 0.098101 0.644569 0.479415
Si Si4 0.307249 0.808608 0.886941
Si Si5 0.706355 0.845972 0.194646
Si Si6 0.316447 0.819450 0.542504
Si Si7 0.933498 0.559845 0.811049
Si Si8 0.948992 0.907731 0.742048
O O1 0.903494 0.686495 0.558305
O O2 0.963382 0.652381 0.746553
O O3 0.977572 0.819685 0.669132
O O4 0.041053 0.671799 0.569657
O O5 0.355672 0.555544 0.025300
O O6 0.276182 0.587858 0.196977
O O7 0.297079 0.409720 0.119718
O O8 0.400302 0.504993 0.216296
O O9 0.149893 0.736171 0.464819
O O10 0.058420 0.620642 0.367696
O O11 0.298816 0.739671 0.782671
O O12 0.362472 0.898686 0.871816
O O13 0.228630 0.835365 0.934033
O O14 0.706238 0.785457 0.085449
O O15 0.635398 0.912842 0.206424
O O16 0.000000 0.500000 0.863538
O O17 0.000000 0.000000 0.730117
#
# Coordination Sequence:
#
# PCOD9366884 Si02
#       8
#     8   8   8   8   8   8   8   8
#     4  10  21  43  64  89 131 167 211 268 323 384
#     4  11  22  38  69  92 121 175 214 258 320 392
#     4  11  22  39  66  93 123 165 219 258 323 389
#     4  11  22  44  65  91 134 165 211 274 319 379
#     4  10  21  44  61  93 137 164 207 275 324 377
#     4  10  22  41  64  92 126 169 212 260 322 381
#     4  11  21  41  66  91 127 171 212 257 319 391
#     4  10  23  41  66  94 127 165 213 273 321 380
#
# _framework density 20.062657999999999
#
# number of rings (size 3 to 8) (size 9 to 14) (size 15 to 20)
#    0.000    1.500    7.500    0.000    3.500    3.000 
#    4.500    1.875    0.000    0.000    0.000    0.000 
#    0.000    0.000    0.000    0.000    0.000    0.000 
#
# Total GULP energy -178281.041086 kJ/mol
# GULP energy per Si atom -5571.282534 kJ/mol
# Density = 2.001699 g / cm^3
# Si number density = 20.062658 Si / 1000 Ang^3
#
#
#
# Elastic Constant Matrix: (Units=GPa)
#
#
# Indices 1 2 3 4 5 6 
#
# 1 56.2210 47.0037 31.2791 0.0000 0.0000 0.0000
# 2 47.0037 86.6993 17.5055 0.0000 0.0000 0.0000
# 3 31.2791 17.5055 39.0932 0.0000 0.0000 0.0000
# 4 0.0000 0.0000 0.0000 22.3915 0.0000 0.0000
# 5 0.0000 0.0000 0.0000 0.0000 26.0510 0.0000
# 6 0.0000 0.0000 0.0000 0.0000 0.0000 32.1567
#
#
#
# Elastic Compliance Matrix: (Units=1/GPa)
#
#
# Indices 1 2 3 4 5 6 
#
# 1 0.057514 -0.024065 -0.035242 0.000000 0.000000 0.000000
# 2 -0.024065 0.022750 0.009068 0.000000 0.000000 0.000000
# 3 -0.035242 0.009068 0.049717 0.000000 0.000000 0.000000
# 4 0.000000 0.000000 0.000000 0.044660 0.000000 0.000000
# 5 0.000000 0.000000 0.000000 0.000000 0.038386 0.000000
# 6 0.000000 0.000000 0.000000 0.000000 0.000000 0.031098
#
#
# Mechanical properties :
#
#
# Convention : Reuss Voigt Hill
#
# Bulk Modulus (GPa) = 33.89532 41.51002 37.70267
# Shear Modulus (GPa) = 14.10690 21.86819 17.98754
#
# Velocity S-wave (km/s) = 2.65456 3.30509 2.99752
# Velocity P-wave (km/s) = 5.13098 5.94137 5.55099
#
# Compressibility (1/GPa) = 0.02950260
#
# Stress axis : x y z
#
# Youngs Moduli (GPa) = 17.38719 43.95589 20.11391
#
# Poissons Ratio (x) = 1.05781 0.70884
# Poissons Ratio (y) = 0.41843 -0.18239
# Poissons Ratio (z) = 0.61275 -0.39858
#
# Static dielectric constant tensor:
#      x y z
#    x 1.730210 0.000000 0.000000 
#    y 0.000000 1.720470 0.000000 
#    z 0.000000 0.000000 1.741050 
# 
# From -- ./inp_files/6031.got.cif
#   From: 2010.05.17/outbox.cif.g08.bks.cpg/sg41_4_cif.got.tgz:6031.got - 2010.06.03 18:54:24.
