data_PCOD9366771
_publ_section_title
;
Structure prediction by ZEFSAII (Michael W. Deem and Ramdas Pophale) SiO2 
 PCOD9366771
Probable space group: A B A 2
;
_chemical_formula_sum "Si O2"
_cell_formula_units_Z 48
_cell_length_a 14.507814
_cell_length_b 9.907247
_cell_length_c 13.167177
_cell_angle_alpha 90.000000
_cell_angle_beta 90.000000
_cell_angle_gamma 90.000000
_cell_volume 1892.551225
_symmetry_space_group_name_H-M "A B A 2"
_symmetry_group_IT_number 41
_symmetry_cell_setting 'orthorhombic'
loop_
_space_group_symop_operation_xyz
x,y,z
-x,-y,z
1/2-x,y,1/2+z
1/2+x,-y,1/2+z
x,1/2+y,1/2+z
-x,1/2-y,1/2+z
1/2-x,1/2+y,z
1/2+x,1/2-y,z
loop_
_atom_site_type_symbol
_atom_site_label
_atom_site_fract_x
_atom_site_fract_y
_atom_site_fract_z
Si Si1 0.345302 0.607307 0.208560
Si Si2 0.082295 0.404758 0.039717
Si Si3 0.000099 0.698477 0.230533
Si Si4 0.238811 0.485197 0.897591
Si Si5 0.302226 0.812236 0.705382
Si Si6 0.062435 0.608767 0.446496
O O1 0.448424 0.658986 0.219209
O O2 0.310409 0.592715 0.324382
O O3 0.279077 0.721343 0.160379
O O4 0.326981 0.460080 0.161818
O O5 0.062588 0.397352 0.159995
O O6 0.072194 0.251130 0.002012
O O7 0.000000 0.500000 0.997886
O O8 0.177316 0.460102 0.996301
O O9 0.000000 0.500000 0.503974
O O10 0.105762 0.722617 0.199177
O O11 0.227776 0.355847 0.821081
O O12 0.340375 0.538968 0.920121
O O13 0.493300 0.645974 0.844142
#
# Coordination Sequence:
#
# PCOD9366771 Si02
#       6
#     8   8   8   8   8   8
#     4  10  21  40  74 105 147 198 260 316 389 474
#     4  12  28  48  75 117 161 203 264 342 402 483
#     4  12  23  46  74 112 149 213 258 325 402 473
#     4  10  22  46  74 110 149 206 259 331 391 476
#     4  10  21  41  74 107 142 199 264 315 389 470
#     4  12  25  49  79 109 156 207 267 327 403 488
#
# _framework density 25.362587000000001
#
# number of rings (size 3 to 8) (size 9 to 14) (size 15 to 20)
#    1.000    0.000    3.333    3.000    0.000    4.000 
#    9.000    0.000    0.000    0.000    0.000    0.000 
#    0.000    0.000    0.000    0.000    0.000    0.000 
#
# Total GULP energy -134171.956826 kJ/mol
# GULP energy per Si atom -5590.498201 kJ/mol
# Density = 2.530486 g / cm^3
# Si number density = 25.362587 Si / 1000 Ang^3
#
#
#
# Elastic Constant Matrix: (Units=GPa)
#
#
# Indices 1 2 3 4 5 6 
#
# 1 106.7994 52.9504 39.3287 0.0000 0.0000 0.0000
# 2 52.9504 118.3597 24.6302 0.0000 0.0000 0.0000
# 3 39.3287 24.6302 114.5857 0.0000 0.0000 0.0000
# 4 0.0000 0.0000 0.0000 22.7445 0.0000 0.0000
# 5 0.0000 0.0000 0.0000 0.0000 40.0317 0.0000
# 6 0.0000 0.0000 0.0000 0.0000 0.0000 46.6615
#
#
#
# Elastic Compliance Matrix: (Units=1/GPa)
#
#
# Indices 1 2 3 4 5 6 
#
# 1 0.013194 -0.005193 -0.003413 0.000000 0.000000 0.000000
# 2 -0.005193 0.010888 -0.000558 0.000000 0.000000 0.000000
# 3 -0.003413 -0.000558 0.010018 0.000000 0.000000 0.000000
# 4 0.000000 0.000000 0.000000 0.043967 0.000000 0.000000
# 5 0.000000 0.000000 0.000000 0.000000 0.024980 0.000000
# 6 0.000000 0.000000 0.000000 0.000000 0.000000 0.021431
#
#
# Mechanical properties :
#
#
# Convention : Reuss Voigt Hill
#
# Bulk Modulus (GPa) = 63.39464 63.72925 63.56194
# Shear Modulus (GPa) = 33.76934 36.74325 35.25629
#
# Velocity S-wave (km/s) = 3.65288 3.81033 3.73244
# Velocity P-wave (km/s) = 6.54530 6.67383 6.60988
#
# Compressibility (1/GPa) = 0.01577421
#
# Stress axis : x y z
#
# Youngs Moduli (GPa) = 75.78916 91.84423 99.81708
#
# Poissons Ratio (x) = 0.47692 0.34063
# Poissons Ratio (y) = 0.39355 0.05571
# Poissons Ratio (z) = 0.25863 0.05126
#
# Static dielectric constant tensor:
#      x y z
#    x 1.926550 0.000000 0.000000 
#    y 0.000000 2.061970 0.000000 
#    z 0.000000 0.000000 2.040330 
# 
# From -- ./inp_files/8353.got.cif
#   From: 2010.05.17/outbox.cif.g08.bks.cpg/sg41_5_cif.got.tgz:8353.got - 2010.06.03 18:54:24.
