data_PCOD9366656
_publ_section_title
;
Structure prediction by ZEFSAII (Michael W. Deem and Ramdas Pophale) SiO2 
 PCOD9366656
Probable space group: A B A 2
;
_chemical_formula_sum "Si O2"
_cell_formula_units_Z 48
_cell_length_a 32.728452
_cell_length_b 4.951192
_cell_length_c 13.864428
_cell_angle_alpha 90.000000
_cell_angle_beta 90.000000
_cell_angle_gamma 90.000000
_cell_volume 2246.659152
_symmetry_space_group_name_H-M "A B A 2"
_symmetry_group_IT_number 41
_symmetry_cell_setting 'orthorhombic'
loop_
_space_group_symop_operation_xyz
x,y,z
-x,-y,z
1/2-x,y,1/2+z
1/2+x,-y,1/2+z
x,1/2+y,1/2+z
-x,1/2-y,1/2+z
1/2-x,1/2+y,z
1/2+x,1/2-y,z
loop_
_atom_site_type_symbol
_atom_site_label
_atom_site_fract_x
_atom_site_fract_y
_atom_site_fract_z
Si Si1 0.342402 0.605734 0.360940
Si Si2 0.898192 0.397112 0.372398
Si Si3 0.275454 0.299242 0.484966
Si Si4 0.952019 0.525973 0.556799
Si Si5 0.451797 0.969182 0.186421
Si Si6 0.276065 0.303823 0.715054
O O1 0.361954 0.888745 0.391937
O O2 0.312660 0.445871 0.433479
O O3 0.315277 0.685333 0.268223
O O4 0.379377 0.395088 0.349725
O O5 0.926340 0.423946 0.466372
O O6 0.924171 0.478126 0.278647
O O7 0.236567 0.492528 0.460833
O O8 0.281966 0.301242 0.600018
O O9 0.944453 0.328445 0.646508
O O10 0.000000 0.500000 0.532409
O O11 0.943280 0.824233 0.597785
O O12 0.500000 0.000000 0.210234
O O13 0.262023 0.606461 0.739967
#
# Coordination Sequence:
#
# PCOD9366656 Si02
#       6
#     8   8   8   8   8   8
#     4  12  24  37  59  90 125 158 191 248 313 361
#     4  12  25  39  60  94 129 160 195 248 312 365
#     4  10  21  39  61  83 112 156 206 249 292 353
#     4  10  22  42  66  89 119 163 209 249 292 354
#     4  10  22  42  66  89 119 163 209 249 292 354
#     4  10  21  39  61  83 112 156 206 249 292 353
#
# _framework density 21.365055999999999
#
# number of rings (size 3 to 8) (size 9 to 14) (size 15 to 20)
#    0.000    1.333    0.000    5.500    0.000    4.000 
#    0.000    6.667    0.000    0.000    0.000    0.000 
#    0.000    0.000    0.000    0.000    0.000    0.000 
#
# Total GULP energy -134198.846358 kJ/mol
# GULP energy per Si atom -5591.618598 kJ/mol
# Density = 2.131643 g / cm^3
# Si number density = 21.365056 Si / 1000 Ang^3
#
#
#
# Elastic Constant Matrix: (Units=GPa)
#
#
# Indices 1 2 3 4 5 6 
#
# 1 56.0142 5.8172 41.3726 0.0000 0.0000 0.0000
# 2 5.8172 97.3961 -6.6991 0.0000 0.0000 0.0000
# 3 41.3726 -6.6991 91.5795 0.0000 0.0000 0.0000
# 4 0.0000 0.0000 0.0000 20.0524 0.0000 0.0000
# 5 0.0000 0.0000 0.0000 0.0000 -6.9840 0.0000
# 6 0.0000 0.0000 0.0000 0.0000 0.0000 38.8580
#
#
#
# Elastic Compliance Matrix: (Units=1/GPa)
#
#
# Indices 1 2 3 4 5 6 
#
# 1 0.027385 -0.002499 -0.012554 0.000000 0.000000 0.000000
# 2 -0.002499 0.010547 0.001901 0.000000 0.000000 0.000000
# 3 -0.012554 0.001901 0.016730 0.000000 0.000000 0.000000
# 4 0.000000 0.000000 0.000000 0.049869 0.000000 0.000000
# 5 0.000000 0.000000 0.000000 0.000000 -0.143185 0.000000
# 6 0.000000 0.000000 0.000000 0.000000 0.000000 0.025735
#
#
# Mechanical properties :
#
#
# Convention : Reuss Voigt Hill
#
# Bulk Modulus (GPa) = 35.26529 36.21901 35.74215
# Shear Modulus (GPa) = 218.91594 24.01857 121.46726
#
# Velocity S-wave (km/s) = 10.13346 3.35654 7.54829
# Velocity P-wave (km/s) = 12.38781 5.65784 9.62987
#
# Compressibility (1/GPa) = 0.02835649
#
# Stress axis : x y z
#
# Youngs Moduli (GPa) = 36.51640 94.81063 59.77221
#
# Poissons Ratio (x) = 0.23694 0.75041
# Poissons Ratio (y) = 0.09126 -0.11360
# Poissons Ratio (z) = 0.45844 -0.18019
#
# Static dielectric constant tensor:
#      x y z
#    x 1.778650 0.000000 0.000000 
#    y 0.000000 1.743770 0.000000 
#    z 0.000000 0.000000 1.740180 
# 
# From -- ./inp_files/9257.got.cif
#   From: 2010.05.17/outbox.cif.g08.bks.cpg/sg41_5_cif.got.tgz:9257.got - 2010.06.03 18:54:24.
