data_PCOD9366852
_publ_section_title
;
Structure prediction by ZEFSAII (Michael W. Deem and Ramdas Pophale) SiO2 
 PCOD9366852
Probable space group: A B A 2
;
_chemical_formula_sum "Si O2"
_cell_formula_units_Z 36
_cell_length_a 10.147210
_cell_length_b 8.389177
_cell_length_c 20.709032
_cell_angle_alpha 90.000000
_cell_angle_beta 90.000000
_cell_angle_gamma 90.000000
_cell_volume 1762.892398
_symmetry_space_group_name_H-M "A B A 2"
_symmetry_group_IT_number 41
_symmetry_cell_setting 'orthorhombic'
loop_
_space_group_symop_operation_xyz
x,y,z
-x,-y,z
1/2-x,y,1/2+z
1/2+x,-y,1/2+z
x,1/2+y,1/2+z
-x,1/2-y,1/2+z
1/2-x,1/2+y,z
1/2+x,1/2-y,z
loop_
_atom_site_type_symbol
_atom_site_label
_atom_site_fract_x
_atom_site_fract_y
_atom_site_fract_z
Si Si1 0.433719 0.792588 0.971820
Si Si2 0.806328 0.878211 0.523239
Si Si3 0.873123 0.087282 0.228342
Si Si4 0.362819 0.081887 0.165530
Si Si5 0.000000 0.500000 0.853261
O O1 0.480574 0.850074 0.900858
O O2 0.571431 0.760820 0.007297
O O3 0.323540 0.659768 0.982122
O O4 0.362157 0.948171 0.003440
O O5 0.789435 0.865204 0.599847
O O6 0.890246 0.273318 0.214463
O O7 0.881768 0.021385 0.301800
O O8 0.734644 0.039973 0.199333
O O9 0.000000 0.000000 0.196509
O O10 0.500000 0.000000 0.146850
#
# Coordination Sequence:
#
# PCOD9366852 Si02
#       5
#     8   8   8   8   4
#     4  10  21  42  65  84 130 157 215 270 317 379
#     4  10  22  38  63  94 119 166 202 271 324 388
#     4  10  24  39  64  91 131 174 213 269 323 392
#     4  12  22  41  64  98 134 166 219 270 333 394
#     4   8  22  44  60  88 126 162 224 262 312 396
#
# _framework density 20.420984000000001
#
# number of rings (size 3 to 8) (size 9 to 14) (size 15 to 20)
#    0.667    1.333    2.222    2.667    3.111    4.444 
#    0.000    0.000    0.000    0.000    0.000    0.000 
#    0.000    0.000    0.000    0.000    0.000    0.000 
#
# Total GULP energy -100209.655474 kJ/mol
# GULP energy per Si atom -5567.203082 kJ/mol
# Density = 2.037450 g / cm^3
# Si number density = 20.420984 Si / 1000 Ang^3
#
#
#
# Elastic Constant Matrix: (Units=GPa)
#
#
# Indices 1 2 3 4 5 6 
#
# 1 35.2856 7.3391 23.2468 0.0000 0.0000 0.0000
# 2 7.3391 45.7209 1.5595 0.0000 0.0000 0.0000
# 3 23.2468 1.5595 113.5593 0.0000 0.0000 0.0000
# 4 0.0000 0.0000 0.0000 22.2829 0.0000 0.0000
# 5 0.0000 0.0000 0.0000 0.0000 13.3750 0.0000
# 6 0.0000 0.0000 0.0000 0.0000 0.0000 30.4663
#
#
#
# Elastic Compliance Matrix: (Units=1/GPa)
#
#
# Indices 1 2 3 4 5 6 
#
# 1 0.033958 -0.005216 -0.006880 0.000000 0.000000 0.000000
# 2 -0.005216 0.022683 0.000756 0.000000 0.000000 0.000000
# 3 -0.006880 0.000756 0.010204 0.000000 0.000000 0.000000
# 4 0.000000 0.000000 0.000000 0.044877 0.000000 0.000000
# 5 0.000000 0.000000 0.000000 0.000000 0.074766 0.000000
# 6 0.000000 0.000000 0.000000 0.000000 0.000000 0.032823
#
#
# Mechanical properties :
#
#
# Convention : Reuss Voigt Hill
#
# Bulk Modulus (GPa) = 22.64214 28.76185 25.70200
# Shear Modulus (GPa) = 19.47699 24.05288 21.76493
#
# Velocity S-wave (km/s) = 3.09167 3.43571 3.26822
# Velocity P-wave (km/s) = 4.88430 5.46386 5.18219
#
# Compressibility (1/GPa) = 0.04416543
#
# Stress axis : x y z
#
# Youngs Moduli (GPa) = 29.44843 44.08515 98.00117
#
# Poissons Ratio (x) = 0.22996 0.67423
# Poissons Ratio (y) = 0.15361 -0.07412
# Poissons Ratio (z) = 0.20260 -0.03334
#
# Static dielectric constant tensor:
#      x y z
#    x 1.729650 0.000000 0.000000 
#    y 0.000000 1.769070 0.000000 
#    z 0.000000 0.000000 1.758070 
# 
# From -- ./inp_files/11093.got.cif
#   From: 2010.05.17/outbox.cif.g08.bks.cpg/sg41_6_cif.got.tgz:11093.got - 2010.06.03 18:54:24.
