data_PCOD9366867
_publ_section_title
;
Structure prediction by ZEFSAII (Michael W. Deem and Ramdas Pophale) SiO2 
 PCOD9366867
Probable space group: A B A 2
;
_chemical_formula_sum "Si O2"
_cell_formula_units_Z 60
_cell_length_a 17.582057
_cell_length_b 15.575495
_cell_length_c 8.968812
_cell_angle_alpha 90.000000
_cell_angle_beta 90.000000
_cell_angle_gamma 90.000000
_cell_volume 2456.102358
_symmetry_space_group_name_H-M "A B A 2"
_symmetry_group_IT_number 41
_symmetry_cell_setting 'orthorhombic'
loop_
_space_group_symop_operation_xyz
x,y,z
-x,-y,z
1/2-x,y,1/2+z
1/2+x,-y,1/2+z
x,1/2+y,1/2+z
-x,1/2-y,1/2+z
1/2-x,1/2+y,z
1/2+x,1/2-y,z
loop_
_atom_site_type_symbol
_atom_site_label
_atom_site_fract_x
_atom_site_fract_y
_atom_site_fract_z
Si Si1 0.015387 0.140616 0.792650
Si Si2 0.831293 0.911846 0.745112
Si Si3 0.219866 0.538394 0.949078
Si Si4 0.889933 0.077505 0.269331
Si Si5 0.487288 0.798192 0.964652
Si Si6 0.338462 0.725725 0.362381
Si Si7 0.500000 0.000000 0.536581
Si Si8 0.775932 0.722448 0.653415
O O1 0.080274 0.081592 0.718224
O O2 0.054009 0.214725 0.895564
O O3 0.980484 0.183479 0.641906
O O4 0.983307 0.079125 0.922115
O O5 0.784882 0.964872 0.624706
O O6 0.806536 0.951083 0.900430
O O7 0.809421 0.813444 0.712919
O O8 0.167744 0.466229 0.882942
O O9 0.183050 0.625928 0.881554
O O10 0.956896 0.123419 0.365125
O O11 0.835389 0.148939 0.195390
O O12 0.929375 0.012124 0.152526
O O13 0.574712 0.771660 0.919420
O O14 0.311125 0.770713 0.210179
O O15 0.281636 0.772919 0.476538
#
# Coordination Sequence:
#
# PCOD9366867 Si02
#       8
#     8   8   8   8   8   8   4   8
#     4  12  26  47  72 108 148 198 249 312 373 458
#     4  10  22  46  69 103 139 196 242 303 372 451
#     4  10  23  41  73 100 147 186 239 303 373 440
#     4  12  26  48  73 112 147 197 245 318 374 458
#     4  12  24  48  76 106 148 194 257 305 380 448
#     4  10  21  42  68 101 137 189 232 301 354 442
#     4  12  30  42  72 108 156 194 254 310 386 442
#     4  10  21  44  69 101 140 184 246 289 364 441
#
# _framework density 24.42895
#
# number of rings (size 3 to 8) (size 9 to 14) (size 15 to 20)
#    0.000    1.067    4.000    2.400    3.733    2.133 
#    9.600    0.000    0.000    0.000    0.000    0.000 
#    0.000    0.000    0.000    0.000    0.000    0.000 
#
# Total GULP energy -167213.358255 kJ/mol
# GULP energy per Si atom -5573.778609 kJ/mol
# Density = 2.437335 g / cm^3
# Si number density = 24.428950 Si / 1000 Ang^3
#
#
#
# Elastic Constant Matrix: (Units=GPa)
#
#
# Indices 1 2 3 4 5 6 
#
# 1 66.8845 6.2765 9.7283 0.0000 0.0000 0.0000
# 2 6.2765 55.6878 33.0903 0.0000 0.0000 0.0000
# 3 9.7283 33.0903 71.1170 0.0000 0.0000 0.0000
# 4 0.0000 0.0000 0.0000 27.3795 0.0000 0.0000
# 5 0.0000 0.0000 0.0000 0.0000 29.2286 0.0000
# 6 0.0000 0.0000 0.0000 0.0000 0.0000 30.9695
#
#
#
# Elastic Compliance Matrix: (Units=1/GPa)
#
#
# Indices 1 2 3 4 5 6 
#
# 1 0.015272 -0.000663 -0.001781 0.000000 0.000000 0.000000
# 2 -0.000663 0.024848 -0.011471 0.000000 0.000000 0.000000
# 3 -0.001781 -0.011471 0.019642 0.000000 0.000000 0.000000
# 4 0.000000 0.000000 0.000000 0.036524 0.000000 0.000000
# 5 0.000000 0.000000 0.000000 0.000000 0.034213 0.000000
# 6 0.000000 0.000000 0.000000 0.000000 0.000000 0.032290
#
#
# Mechanical properties :
#
#
# Convention : Reuss Voigt Hill
#
# Bulk Modulus (GPa) = 31.31536 32.43106 31.87321
# Shear Modulus (GPa) = 24.84308 27.15515 25.99912
#
# Velocity S-wave (km/s) = 3.19243 3.33768 3.26586
# Velocity P-wave (km/s) = 5.14156 5.30641 5.22463
#
# Compressibility (1/GPa) = 0.03193321
#
# Stress axis : x y z
#
# Youngs Moduli (GPa) = 65.47775 40.24440 50.91066
#
# Poissons Ratio (x) = 0.02670 0.09065
# Poissons Ratio (y) = 0.04343 0.58399
# Poissons Ratio (z) = 0.11658 0.46164
#
# Static dielectric constant tensor:
#      x y z
#    x 2.000430 0.000000 0.000000 
#    y 0.000000 1.992890 0.000000 
#    z 0.000000 0.000000 1.953080 
# 
# From -- ./inp_files/3170.got.cif
#   From: 2010.05.17/outbox.cif.g08.bks.cpg/sg41_2_cif.got.tgz:3170.got - 2010.06.03 18:54:24.
