data_PCOD9366991
_publ_section_title
;
Structure prediction by ZEFSAII (Michael W. Deem and Ramdas Pophale) SiO2 
 PCOD9366991
Probable space group: A B A 2
;
_chemical_formula_sum "Si O2"
_cell_formula_units_Z 56
_cell_length_a 5.432097
_cell_length_b 32.385302
_cell_length_c 13.067826
_cell_angle_alpha 90.000000
_cell_angle_beta 90.000000
_cell_angle_gamma 90.000000
_cell_volume 2298.893281
_symmetry_space_group_name_H-M "A B A 2"
_symmetry_group_IT_number 41
_symmetry_cell_setting 'orthorhombic'
loop_
_space_group_symop_operation_xyz
x,y,z
-x,-y,z
1/2-x,y,1/2+z
1/2+x,-y,1/2+z
x,1/2+y,1/2+z
-x,1/2-y,1/2+z
1/2-x,1/2+y,z
1/2+x,1/2-y,z
loop_
_atom_site_type_symbol
_atom_site_label
_atom_site_fract_x
_atom_site_fract_y
_atom_site_fract_z
Si Si1 0.211156 0.604627 0.723980
Si Si2 0.376232 0.744221 0.893086
Si Si3 0.113019 0.856232 0.586579
Si Si4 0.016813 0.911908 0.005810
Si Si5 0.863135 0.725157 0.667223
Si Si6 0.710888 0.343296 0.396755
Si Si7 0.736300 0.975266 0.363269
O O1 0.459971 0.627235 0.684067
O O2 0.077430 0.595582 0.619218
O O3 0.076026 0.635345 0.802176
O O4 0.223216 0.561736 0.784033
O O5 0.629102 0.745555 0.951684
O O6 0.370009 0.773422 0.793414
O O7 0.342844 0.697433 0.859069
O O8 0.201759 0.897999 0.524730
O O9 0.303674 0.820456 0.622005
O O10 0.945916 0.835248 0.498521
O O11 0.912433 0.876673 0.931514
O O12 0.894813 0.953657 0.962793
O O13 0.630119 0.755216 0.644200
O O14 0.500000 0.000000 0.320418
O O15 0.000000 0.000000 0.378628
#
# Coordination Sequence:
#
# PCOD9366991 Si02
#       7
#     8   8   8   8   8   8   8
#     4  10  24  46  75 106 140 197 249 294 379 462
#     4  10  22  38  62  93 136 189 249 307 370 426
#     4  11  25  43  75 105 153 202 263 325 376 467
#     4  10  26  45  75 107 149 191 253 302 384 455
#     4  10  23  41  64 100 145 196 254 319 381 430
#     4  10  24  43  66 102 145 196 249 316 375 450
#     4  11  28  50  79 112 154 184 237 308 383 467
#
# _framework density 24.359546000000002
#
# number of rings (size 3 to 8) (size 9 to 14) (size 15 to 20)
#    0.000    1.714    0.000    1.714   18.000    3.429 
#    0.000    0.000    0.000    0.000    0.000    0.000 
#    0.000    0.000    0.000    0.000    0.000    0.000 
#
# Total GULP energy -156179.701500 kJ/mol
# GULP energy per Si atom -5577.846482 kJ/mol
# Density = 2.430410 g / cm^3
# Si number density = 24.359546 Si / 1000 Ang^3
#
#
#
# Elastic Constant Matrix: (Units=GPa)
#
#
# Indices 1 2 3 4 5 6 
#
# 1 133.9878 42.6805 25.5537 0.0000 0.0000 0.0000
# 2 42.6805 132.0788 35.9432 0.0000 0.0000 0.0000
# 3 25.5537 35.9432 109.4014 0.0000 0.0000 0.0000
# 4 0.0000 0.0000 0.0000 26.3763 0.0000 0.0000
# 5 0.0000 0.0000 0.0000 0.0000 13.4979 0.0000
# 6 0.0000 0.0000 0.0000 0.0000 0.0000 37.3228
#
#
#
# Elastic Compliance Matrix: (Units=1/GPa)
#
#
# Indices 1 2 3 4 5 6 
#
# 1 0.008457 -0.002411 -0.001183 0.000000 0.000000 0.000000
# 2 -0.002411 0.009002 -0.002394 0.000000 0.000000 0.000000
# 3 -0.001183 -0.002394 0.010204 0.000000 0.000000 0.000000
# 4 0.000000 0.000000 0.000000 0.037913 0.000000 0.000000
# 5 0.000000 0.000000 0.000000 0.000000 0.074086 0.000000
# 6 0.000000 0.000000 0.000000 0.000000 0.000000 0.026793
#
#
# Mechanical properties :
#
#
# Convention : Reuss Voigt Hill
#
# Bulk Modulus (GPa) = 63.75300 64.86921 64.31110
# Shear Modulus (GPa) = 27.22424 33.52545 30.37484
#
# Velocity S-wave (km/s) = 3.34668 3.71384 3.53503
# Velocity P-wave (km/s) = 6.41578 6.71401 6.56658
#
# Compressibility (1/GPa) = 0.01568554
#
# Stress axis : x y z
#
# Youngs Moduli (GPa) = 118.24554 111.08794 98.00354
#
# Poissons Ratio (x) = 0.26781 0.11597
# Poissons Ratio (y) = 0.28507 0.23466
# Poissons Ratio (z) = 0.13992 0.26599
#
# Static dielectric constant tensor:
#      x y z
#    x 2.086900 0.000000 0.000000 
#    y 0.000000 1.964400 0.000000 
#    z 0.000000 0.000000 1.951500 
# 
# From -- ./inp_files/6981.got.cif
#   From: 2010.05.17/outbox.cif.g08.bks.cpg/sg41_4_cif.got.tgz:6981.got - 2010.06.03 18:54:24.
