data_PCOD9366781
_publ_section_title
;
Structure prediction by ZEFSAII (Michael W. Deem and Ramdas Pophale) SiO2 
 PCOD9366781
Probable space group: A B A 2
;
_chemical_formula_sum "Si O2"
_cell_formula_units_Z 48
_cell_length_a 13.363933
_cell_length_b 15.987314
_cell_length_c 12.078583
_cell_angle_alpha 90.000000
_cell_angle_beta 90.000000
_cell_angle_gamma 90.000000
_cell_volume 2580.630242
_symmetry_space_group_name_H-M "A B A 2"
_symmetry_group_IT_number 41
_symmetry_cell_setting 'orthorhombic'
loop_
_space_group_symop_operation_xyz
x,y,z
-x,-y,z
1/2-x,y,1/2+z
1/2+x,-y,1/2+z
x,1/2+y,1/2+z
-x,1/2-y,1/2+z
1/2-x,1/2+y,z
1/2+x,1/2-y,z
loop_
_atom_site_type_symbol
_atom_site_label
_atom_site_fract_x
_atom_site_fract_y
_atom_site_fract_z
Si Si1 0.891290 0.040676 0.417170
Si Si2 0.296642 0.517734 0.003468
Si Si3 0.541542 0.839480 0.537389
Si Si4 0.653297 0.111348 0.677272
Si Si5 0.435447 0.915569 0.339828
Si Si6 0.357193 0.830403 0.117563
O O1 0.863804 0.089216 0.304575
O O2 0.877826 0.106759 0.516184
O O3 0.811653 0.968544 0.451197
O O4 0.000000 0.000000 0.408840
O O5 0.347637 0.452387 0.917512
O O6 0.367535 0.595811 0.022903
O O7 0.298110 0.470665 0.120588
O O8 0.453529 0.870455 0.620052
O O9 0.491425 0.846528 0.415646
O O10 0.586928 0.754174 0.583098
O O11 0.738202 0.179509 0.645061
O O12 0.400841 0.872918 0.227898
O O13 0.500000 0.000000 0.318106
#
# Coordination Sequence:
#
# PCOD9366781 Si02
#       6
#     8   8   8   8   8   8
#     4  11  22  37  62  91 122 162 208 255 310 381
#     4   9  19  40  63  84 115 167 211 246 306 384
#     4  10  22  38  64  89 119 163 211 253 317 374
#     4  10  21  41  62  84 123 166 205 252 315 376
#     4   9  18  39  62  84 122 169 207 249 313 380
#     4  11  23  37  60  92 126 159 203 269 317 359
#
# _framework density 18.600107999999999
#
# number of rings (size 3 to 8) (size 9 to 14) (size 15 to 20)
#    0.000    2.000    1.667    3.000    2.333    1.333 
#    0.000    3.333    0.000    0.000    0.000    0.000 
#    0.000    0.000    0.000    0.000    0.000    0.000 
#
# Total GULP energy -133699.486292 kJ/mol
# GULP energy per Si atom -5570.811929 kJ/mol
# Density = 1.855777 g / cm^3
# Si number density = 18.600108 Si / 1000 Ang^3
#
#
#
# Elastic Constant Matrix: (Units=GPa)
#
#
# Indices 1 2 3 4 5 6 
#
# 1 130.3673 41.6852 50.3562 0.0000 0.0000 0.0000
# 2 41.6852 57.6788 57.6952 0.0000 0.0000 0.0000
# 3 50.3562 57.6952 160.7972 0.0000 0.0000 0.0000
# 4 0.0000 0.0000 0.0000 16.2793 0.0000 0.0000
# 5 0.0000 0.0000 0.0000 0.0000 -21.3943 0.0000
# 6 0.0000 0.0000 0.0000 0.0000 0.0000 27.9419
#
#
#
# Elastic Compliance Matrix: (Units=1/GPa)
#
#
# Indices 1 2 3 4 5 6 
#
# 1 0.010049 -0.006418 -0.000844 0.000000 0.000000 0.000000
# 2 -0.006418 0.031143 -0.009164 0.000000 0.000000 0.000000
# 3 -0.000844 -0.009164 0.009772 0.000000 0.000000 0.000000
# 4 0.000000 0.000000 0.000000 0.061428 0.000000 0.000000
# 5 0.000000 0.000000 0.000000 0.000000 -0.046742 0.000000
# 6 0.000000 0.000000 0.000000 0.000000 0.000000 0.035789
#
#
# Mechanical properties :
#
#
# Convention : Reuss Voigt Hill
#
# Bulk Modulus (GPa) = 55.21759 72.03515 63.62637
# Shear Modulus (GPa) = 35.63090 17.83918 26.73504
#
# Velocity S-wave (km/s) = 4.38154 3.10028 3.79537
# Velocity P-wave (km/s) = 7.43964 7.18527 7.31356
#
# Compressibility (1/GPa) = 0.01811017
#
# Stress axis : x y z
#
# Youngs Moduli (GPa) = 99.51349 32.11017 102.33765
#
# Poissons Ratio (x) = 0.20609 0.08638
# Poissons Ratio (y) = 0.63869 0.93785
# Poissons Ratio (z) = 0.08400 0.29427
#
# Static dielectric constant tensor:
#      x y z
#    x 1.722460 0.000000 0.000000 
#    y 0.000000 1.638820 0.000000 
#    z 0.000000 0.000000 1.629850 
# 
# From -- ./inp_files/4963.got.cif
#   From: 2010.05.17/outbox.cif.g08.bks.cpg/sg41_3_cif.got.tgz:4963.got - 2010.06.03 18:54:24.
