data_PCOD9366224
_publ_section_title
;
Structure prediction by ZEFSAII (Michael W. Deem and Ramdas Pophale) SiO2 
 PCOD9366224
Probable space group: A B A 2
;
_chemical_formula_sum "Si O2"
_cell_formula_units_Z 64
_cell_length_a 19.531468
_cell_length_b 9.236232
_cell_length_c 17.301540
_cell_angle_alpha 90.000000
_cell_angle_beta 90.000000
_cell_angle_gamma 90.000000
_cell_volume 3121.148848
_symmetry_space_group_name_H-M "A B A 2"
_symmetry_group_IT_number 41
_symmetry_cell_setting 'orthorhombic'
loop_
_space_group_symop_operation_xyz
x,y,z
-x,-y,z
1/2-x,y,1/2+z
1/2+x,-y,1/2+z
x,1/2+y,1/2+z
-x,1/2-y,1/2+z
1/2-x,1/2+y,z
1/2+x,1/2-y,z
loop_
_atom_site_type_symbol
_atom_site_label
_atom_site_fract_x
_atom_site_fract_y
_atom_site_fract_z
Si Si1 0.261971 0.281477 0.722640
Si Si2 0.053291 0.883867 0.850157
Si Si3 0.335034 0.298380 0.978054
Si Si4 0.366420 0.348980 0.137180
Si Si5 0.886914 0.318612 0.615975
Si Si6 0.325596 0.537078 0.799849
Si Si7 0.493349 0.325774 0.226650
Si Si8 0.804872 0.870672 0.968822
O O1 0.211108 0.364418 0.665358
O O2 0.329483 0.233086 0.677110
O O3 0.281707 0.386802 0.793576
O O4 0.217063 0.143581 0.746241
O O5 0.106962 0.819162 0.912598
O O6 0.017228 0.756914 0.803008
O O7 0.098238 0.976680 0.788392
O O8 0.000000 0.000000 0.885469
O O9 0.271023 0.194365 0.964592
O O10 0.303520 0.459295 0.990890
O O11 0.368526 0.255661 0.059730
O O12 0.393583 0.507748 0.117488
O O13 0.415273 0.292878 0.204601
O O14 0.959364 0.274408 0.653768
O O15 0.854776 0.290614 0.530542
O O16 0.331012 0.619777 0.881295
O O17 0.500000 0.500000 0.237911
#
# Coordination Sequence:
#
# PCOD9366224 Si02
#       8
#     8   8   8   8   8   8   8   8
#     4  12  20  37  59  91 120 156 203 263 302 364
#     4  11  23  41  59  87 124 163 203 258 317 377
#     4  10  22  39  63  90 124 162 206 262 317 380
#     4  10  21  37  62  93 119 160 206 250 311 374
#     4  10  20  37  61  85 123 158 206 256 305 362
#     4  11  23  35  61  88 122 158 203 256 312 371
#     4  10  22  40  63  90 120 166 207 251 308 386
#     4  10  21  38  58  91 121 161 205 254 317 366
#
# _framework density 20.505269999999999
#
# number of rings (size 3 to 8) (size 9 to 14) (size 15 to 20)
#    0.000    1.500    3.750    2.250    0.000    3.500 
#    0.000    2.500    0.000    2.250    0.000    0.000 
#    0.000    0.000    0.000    0.000    0.000    0.000 
#
# Total GULP energy -178188.737479 kJ/mol
# GULP energy per Si atom -5568.398046 kJ/mol
# Density = 2.045860 g / cm^3
# Si number density = 20.505270 Si / 1000 Ang^3
#
#
#
# Elastic Constant Matrix: (Units=GPa)
#
#
# Indices 1 2 3 4 5 6 
#
# 1 85.5676 22.6324 18.3192 0.0000 0.0000 0.0000
# 2 22.6324 47.1028 19.0078 0.0000 0.0000 0.0000
# 3 18.3192 19.0078 83.1728 0.0000 0.0000 0.0000
# 4 0.0000 0.0000 0.0000 17.6926 0.0000 0.0000
# 5 0.0000 0.0000 0.0000 0.0000 29.1855 0.0000
# 6 0.0000 0.0000 0.0000 0.0000 0.0000 37.2952
#
#
#
# Elastic Compliance Matrix: (Units=1/GPa)
#
#
# Indices 1 2 3 4 5 6 
#
# 1 0.013592 -0.005863 -0.001654 0.000000 0.000000 0.000000
# 2 -0.005863 0.025916 -0.004631 0.000000 0.000000 0.000000
# 3 -0.001654 -0.004631 0.013446 0.000000 0.000000 0.000000
# 4 0.000000 0.000000 0.000000 0.056521 0.000000 0.000000
# 5 0.000000 0.000000 0.000000 0.000000 0.034264 0.000000
# 6 0.000000 0.000000 0.000000 0.000000 0.000000 0.026813
#
#
# Mechanical properties :
#
#
# Convention : Reuss Voigt Hill
#
# Bulk Modulus (GPa) = 34.89534 37.30689 36.10112
# Shear Modulus (GPa) = 24.46184 27.22692 25.84438
#
# Velocity S-wave (km/s) = 3.45766 3.64785 3.55403
# Velocity P-wave (km/s) = 5.74415 5.99798 5.87244
#
# Compressibility (1/GPa) = 0.02865712
#
# Stress axis : x y z
#
# Youngs Moduli (GPa) = 73.57531 38.58575 74.37265
#
# Poissons Ratio (x) = 0.22624 0.12299
# Poissons Ratio (y) = 0.43139 0.34445
# Poissons Ratio (z) = 0.12167 0.17870
#
# Static dielectric constant tensor:
#      x y z
#    x 1.753160 0.000000 0.000000 
#    y 0.000000 1.747130 0.000000 
#    z 0.000000 0.000000 1.812670 
# 
# From -- ./inp_files/10681.got.cif
#   From: 2010.05.17/outbox.cif.g08.bks.cpg/sg41_6_cif.got.tgz:10681.got - 2010.06.03 18:54:24.
