data_PCOD9366866
_publ_section_title
;
Structure prediction by ZEFSAII (Michael W. Deem and Ramdas Pophale) SiO2 
 PCOD9366866
Probable space group: A B A 2
;
_chemical_formula_sum "Si O2"
_cell_formula_units_Z 48
_cell_length_a 16.024505
_cell_length_b 8.935138
_cell_length_c 13.600649
_cell_angle_alpha 90.000000
_cell_angle_beta 90.000000
_cell_angle_gamma 90.000000
_cell_volume 1947.356749
_symmetry_space_group_name_H-M "A B A 2"
_symmetry_group_IT_number 41
_symmetry_cell_setting 'orthorhombic'
loop_
_space_group_symop_operation_xyz
x,y,z
-x,-y,z
1/2-x,y,1/2+z
1/2+x,-y,1/2+z
x,1/2+y,1/2+z
-x,1/2-y,1/2+z
1/2-x,1/2+y,z
1/2+x,1/2-y,z
loop_
_atom_site_type_symbol
_atom_site_label
_atom_site_fract_x
_atom_site_fract_y
_atom_site_fract_z
Si Si1 0.032732 0.665682 0.858640
Si Si2 0.888875 0.736635 0.078325
Si Si3 0.634275 0.404949 0.527912
Si Si4 0.196891 0.804770 0.777942
Si Si5 0.805499 0.392239 0.404748
Si Si6 0.040471 0.165016 0.700974
O O1 0.121376 0.693704 0.805986
O O2 0.965221 0.775401 0.810964
O O3 0.000000 0.500000 0.842910
O O4 0.064531 0.687820 0.968799
O O5 0.895691 0.576079 0.025598
O O6 0.814570 0.700442 0.159438
O O7 0.972753 0.763288 0.140573
O O8 0.869658 0.854197 0.992630
O O9 0.721691 0.404525 0.473065
O O10 0.624974 0.347699 0.639318
O O11 0.279606 0.739937 0.828917
O O12 0.179952 0.961849 0.835728
O O13 0.000000 0.000000 0.702308
#
# Coordination Sequence:
#
# PCOD9366866 Si02
#       6
#     8   8   8   8   8   8
#     4  10  21  44  64  97 137 177 239 288 360 436
#     4  10  21  42  67  96 138 183 232 292 357 435
#     4  10  21  43  67  95 137 180 232 294 359 424
#     4  10  24  41  66 102 133 182 239 289 369 435
#     4  11  22  43  65 103 138 181 239 295 362 443
#     4   9  20  43  65  97 135 181 236 291 361 425
#
# _framework density 24.648795
#
# number of rings (size 3 to 8) (size 9 to 14) (size 15 to 20)
#    0.000    2.000    1.667    1.500    2.333    0.000 
#   36.000    0.000    0.000    0.000    0.000    0.000 
#    0.000    0.000    0.000    0.000    0.000    0.000 
#
# Total GULP energy -133810.152005 kJ/mol
# GULP energy per Si atom -5575.423000 kJ/mol
# Density = 2.459269 g / cm^3
# Si number density = 24.648795 Si / 1000 Ang^3
#
#
#
# Elastic Constant Matrix: (Units=GPa)
#
#
# Indices 1 2 3 4 5 6 
#
# 1 76.7330 2.7544 36.5083 0.0000 0.0000 0.0000
# 2 2.7544 64.6338 38.5845 0.0000 0.0000 0.0000
# 3 36.5083 38.5845 147.1830 0.0000 0.0000 0.0000
# 4 0.0000 0.0000 0.0000 36.1674 0.0000 0.0000
# 5 0.0000 0.0000 0.0000 0.0000 56.2374 0.0000
# 6 0.0000 0.0000 0.0000 0.0000 0.0000 28.0015
#
#
#
# Elastic Compliance Matrix: (Units=1/GPa)
#
#
# Indices 1 2 3 4 5 6 
#
# 1 0.014964 0.001871 -0.004202 0.000000 0.000000 0.000000
# 2 0.001871 0.018576 -0.005334 0.000000 0.000000 0.000000
# 3 -0.004202 -0.005334 0.009235 0.000000 0.000000 0.000000
# 4 0.000000 0.000000 0.000000 0.027649 0.000000 0.000000
# 5 0.000000 0.000000 0.000000 0.000000 0.017782 0.000000
# 6 0.000000 0.000000 0.000000 0.000000 0.000000 0.035712
#
#
# Mechanical properties :
#
#
# Convention : Reuss Voigt Hill
#
# Bulk Modulus (GPa) = 36.43649 49.36047 42.89848
# Shear Modulus (GPa) = 33.69321 38.12811 35.91066
#
# Velocity S-wave (km/s) = 3.70121 3.93727 3.82107
# Velocity P-wave (km/s) = 5.75149 6.38267 6.07528
#
# Compressibility (1/GPa) = 0.02744501
#
# Stress axis : x y z
#
# Youngs Moduli (GPa) = 66.82503 53.83226 108.28431
#
# Poissons Ratio (x) = -0.10072 0.45505
# Poissons Ratio (y) = -0.12503 0.57758
# Poissons Ratio (z) = 0.28082 0.28714
#
# Static dielectric constant tensor:
#      x y z
#    x 2.049210 0.000000 0.000000 
#    y 0.000000 1.917150 0.000000 
#    z 0.000000 0.000000 2.090040 
# 
# From -- ./inp_files/8715.got.cif
#   From: 2010.05.17/outbox.cif.g08.bks.cpg/sg41_5_cif.got.tgz:8715.got - 2010.06.03 18:54:24.
