data_PCOD9366464
_publ_section_title
;
Structure prediction by ZEFSAII (Michael W. Deem and Ramdas Pophale) SiO2 
 PCOD9366464
Probable space group: A B A 2
;
_chemical_formula_sum "Si O2"
_cell_formula_units_Z 60
_cell_length_a 27.270517
_cell_length_b 17.437594
_cell_length_c 5.370568
_cell_angle_alpha 90.000000
_cell_angle_beta 90.000000
_cell_angle_gamma 90.000000
_cell_volume 2553.878036
_symmetry_space_group_name_H-M "A B A 2"
_symmetry_group_IT_number 41
_symmetry_cell_setting 'orthorhombic'
loop_
_space_group_symop_operation_xyz
x,y,z
-x,-y,z
1/2-x,y,1/2+z
1/2+x,-y,1/2+z
x,1/2+y,1/2+z
-x,1/2-y,1/2+z
1/2-x,1/2+y,z
1/2+x,1/2-y,z
loop_
_atom_site_type_symbol
_atom_site_label
_atom_site_fract_x
_atom_site_fract_y
_atom_site_fract_z
Si Si1 0.268996 0.068841 0.134860
Si Si2 0.415306 0.756859 0.518452
Si Si3 0.019335 0.630241 0.989493
Si Si4 0.233660 0.242721 0.780569
Si Si5 0.630355 0.801129 0.512690
Si Si6 0.073483 0.416735 0.317612
Si Si7 0.500000 0.500000 0.112139
Si Si8 0.120956 0.057522 0.698570
O O1 0.259859 0.031626 0.405751
O O2 0.250583 0.155409 0.203548
O O3 0.326507 0.074650 0.071313
O O4 0.467797 0.718679 0.452959
O O5 0.406419 0.735037 0.806209
O O6 0.410183 0.847121 0.485915
O O7 0.381390 0.721219 0.295971
O O8 0.006133 0.579125 0.754560
O O9 0.071399 0.593063 0.078239
O O10 0.972338 0.615719 0.161287
O O11 0.233917 0.278726 0.503235
O O12 0.180898 0.233939 0.909145
O O13 0.628102 0.892257 0.453907
O O14 0.049017 0.487510 0.461357
O O15 0.115528 0.465162 0.184639
#
# Coordination Sequence:
#
# PCOD9366464 Si02
#       8
#     8   8   8   8   8   8   4   8
#     4   9  19  34  58  93 124 155 204 258 317 370
#     4  11  27  39  63  87 132 173 208 258 316 375
#     4  11  24  41  61  93 127 167 215 264 314 380
#     4   9  16  30  60  91 120 153 201 266 314 362
#     4  10  22  42  61  94 126 165 216 254 318 384
#     4  12  25  42  61  95 124 169 217 261 317 384
#     4  12  22  40  66  88 126 160 222 258 312 372
#     4  10  20  42  65  91 128 166 211 266 314 371
#
# _framework density 23.493683999999998
#
# number of rings (size 3 to 8) (size 9 to 14) (size 15 to 20)
#    0.000    1.600    2.667    1.600    5.600    7.467 
#    0.000    0.000    0.000    4.800    0.000    0.000 
#    0.000    0.000    0.000    0.000    0.000    0.000 
#
# Total GULP energy -167107.319157 kJ/mol
# GULP energy per Si atom -5570.243972 kJ/mol
# Density = 2.344021 g / cm^3
# Si number density = 23.493684 Si / 1000 Ang^3
#
#
#
# Elastic Constant Matrix: (Units=GPa)
#
#
# Indices 1 2 3 4 5 6 
#
# 1 63.5737 -0.5407 21.4991 0.0000 0.0000 0.0000
# 2 -0.5407 72.4728 -0.5944 0.0000 0.0000 0.0000
# 3 21.4991 -0.5944 98.8863 0.0000 0.0000 0.0000
# 4 0.0000 0.0000 0.0000 -25.6886 0.0000 0.0000
# 5 0.0000 0.0000 0.0000 0.0000 -2.6883 0.0000
# 6 0.0000 0.0000 0.0000 0.0000 0.0000 8.9830
#
#
#
# Elastic Compliance Matrix: (Units=1/GPa)
#
#
# Indices 1 2 3 4 5 6 
#
# 1 0.016979 0.000096 -0.003691 0.000000 0.000000 0.000000
# 2 0.000096 0.013800 0.000062 0.000000 0.000000 0.000000
# 3 -0.003691 0.000062 0.010915 0.000000 0.000000 0.000000
# 4 0.000000 0.000000 0.000000 -0.038928 0.000000 0.000000
# 5 0.000000 0.000000 0.000000 0.000000 -0.371978 0.000000
# 6 0.000000 0.000000 0.000000 0.000000 0.000000 0.111321
#
#
# Mechanical properties :
#
#
# Convention : Reuss Voigt Hill
#
# Bulk Modulus (GPa) = 28.87766 30.62897 29.75332
# Shear Modulus (GPa) = -20.89580 10.42580 -5.23500
#
# Velocity S-wave (km/s) = -2.98555 2.10887 -1.49435
# Velocity P-wave (km/s) = 0.65852 4.35835 3.11680
#
# Compressibility (1/GPa) = 0.03462884
#
# Stress axis : x y z
#
# Youngs Moduli (GPa) = 58.89722 72.46636 91.61350
#
# Poissons Ratio (x) = -0.00699 0.33813
# Poissons Ratio (y) = -0.00568 -0.00568
# Poissons Ratio (z) = 0.21738 -0.00449
#
# Static dielectric constant tensor:
#      x y z
#    x 1.936520 0.000000 0.000000 
#    y 0.000000 2.086590 0.000000 
#    z 0.000000 0.000000 2.062430 
# 
# From -- ./inp_files/1199.got.cif
#   From: 2010.05.17/outbox.cif.g08.bks.cpg/sg41_1_cif.got.tgz:1199.got - 2010.06.03 18:54:24.
