data_PCOD9366016
_publ_section_title
;
Structure prediction by ZEFSAII (Michael W. Deem and Ramdas Pophale) SiO2 
 PCOD9366016
Probable space group: A B A 2
;
_chemical_formula_sum "Si O2"
_cell_formula_units_Z 52
_cell_length_a 13.402617
_cell_length_b 20.607634
_cell_length_c 7.336036
_cell_angle_alpha 90.000000
_cell_angle_beta 90.000000
_cell_angle_gamma 90.000000
_cell_volume 2026.185455
_symmetry_space_group_name_H-M "A B A 2"
_symmetry_group_IT_number 41
_symmetry_cell_setting 'orthorhombic'
loop_
_space_group_symop_operation_xyz
x,y,z
-x,-y,z
1/2-x,y,1/2+z
1/2+x,-y,1/2+z
x,1/2+y,1/2+z
-x,1/2-y,1/2+z
1/2-x,1/2+y,z
1/2+x,1/2-y,z
loop_
_atom_site_type_symbol
_atom_site_label
_atom_site_fract_x
_atom_site_fract_y
_atom_site_fract_z
Si Si1 0.194019 0.081105 0.742150
Si Si2 0.500000 0.500000 0.349663
Si Si3 0.384231 0.744126 0.176199
Si Si4 0.168244 0.777953 0.293218
Si Si5 0.401238 0.627858 0.420018
Si Si6 0.847342 0.150032 0.928064
Si Si7 0.164007 0.994645 0.047822
O O1 0.300660 0.105416 0.813823
O O2 0.137536 0.134839 0.625410
O O3 0.226549 0.018490 0.616855
O O4 0.133389 0.052676 0.911392
O O5 0.478517 0.568899 0.440489
O O6 0.405224 0.490141 0.221384
O O7 0.265815 0.738432 0.224621
O O8 0.389913 0.742773 0.957774
O O9 0.434432 0.688996 0.301206
O O10 0.405039 0.815351 0.261581
O O11 0.123527 0.809530 0.110492
O O12 0.229196 0.835611 0.396268
O O13 0.850709 0.073747 0.950749
#
# Coordination Sequence:
#
# PCOD9366016 Si02
#       7
#     8   4   8   8   8   8   8
#     4   9  20  32  60  83 102 150 194 237 280 328
#     4  10  24  38  52  74 116 160 172 236 280 334
#     4   9  16  29  51  80 108 139 175 233 281 339
#     4   8  16  26  48  88 108 134 174 226 304 310
#     4  10  19  37  55  82 114 142 193 235 283 345
#     4   9  16  29  51  80 108 139 175 233 281 339
#     4  10  19  37  55  82 114 142 193 235 283 345
#
# _framework density 25.663989000000001
#
# number of rings (size 3 to 8) (size 9 to 14) (size 15 to 20)
#    0.923    1.846    0.000    1.846    0.000    0.615 
#    0.000    0.000    3.385    0.000    0.000    0.000 
#    0.000    0.000    0.000    0.000    0.000    0.000 
#
# Total GULP energy -144953.072655 kJ/mol
# GULP energy per Si atom -5575.118179 kJ/mol
# Density = 2.560558 g / cm^3
# Si number density = 25.663989 Si / 1000 Ang^3
#
#
#
# Elastic Constant Matrix: (Units=GPa)
#
#
# Indices 1 2 3 4 5 6 
#
# 1 52.3664 1.8104 15.1813 0.0000 0.0000 0.0000
# 2 1.8104 62.8204 3.4674 0.0000 0.0000 0.0000
# 3 15.1813 3.4674 119.3310 0.0000 0.0000 0.0000
# 4 0.0000 0.0000 0.0000 35.3160 0.0000 0.0000
# 5 0.0000 0.0000 0.0000 0.0000 12.7241 0.0000
# 6 0.0000 0.0000 0.0000 0.0000 0.0000 18.7446
#
#
#
# Elastic Compliance Matrix: (Units=1/GPa)
#
#
# Indices 1 2 3 4 5 6 
#
# 1 0.019839 -0.000433 -0.002511 0.000000 0.000000 0.000000
# 2 -0.000433 0.015953 -0.000408 0.000000 0.000000 0.000000
# 3 -0.002511 -0.000408 0.008711 0.000000 0.000000 0.000000
# 4 0.000000 0.000000 0.000000 0.028316 0.000000 0.000000
# 5 0.000000 0.000000 0.000000 0.000000 0.078591 0.000000
# 6 0.000000 0.000000 0.000000 0.000000 0.000000 0.053349
#
#
# Mechanical properties :
#
#
# Convention : Reuss Voigt Hill
#
# Bulk Modulus (GPa) = 26.45631 30.60401 28.53016
# Shear Modulus (GPa) = 22.31497 27.62751 24.97124
#
# Velocity S-wave (km/s) = 2.95194 3.28458 3.12269
# Velocity P-wave (km/s) = 4.68505 5.13180 4.91350
#
# Compressibility (1/GPa) = 0.03779817
#
# Stress axis : x y z
#
# Youngs Moduli (GPa) = 50.40517 62.68252 114.79189
#
# Poissons Ratio (x) = 0.02715 0.28828
# Poissons Ratio (y) = 0.02183 0.04689
# Poissons Ratio (z) = 0.12659 0.02560
#
# Static dielectric constant tensor:
#      x y z
#    x 2.124810 0.000000 0.000000 
#    y 0.000000 2.129830 0.000000 
#    z 0.000000 0.000000 2.082540 
# 
# From -- ./inp_files/2649.got.cif
#   From: 2010.05.17/outbox.cif.g08.bks.cpg/sg41_2_cif.got.tgz:2649.got - 2010.06.03 18:54:24.
