data_PCOD9366307
_publ_section_title
;
Structure prediction by ZEFSAII (Michael W. Deem and Ramdas Pophale) SiO2 
 PCOD9366307
Probable space group: A B A 2
;
_chemical_formula_sum "Si O2"
_cell_formula_units_Z 60
_cell_length_a 11.613570
_cell_length_b 15.397337
_cell_length_c 16.317326
_cell_angle_alpha 90.000000
_cell_angle_beta 90.000000
_cell_angle_gamma 90.000000
_cell_volume 2917.832434
_symmetry_space_group_name_H-M "A B A 2"
_symmetry_group_IT_number 41
_symmetry_cell_setting 'orthorhombic'
loop_
_space_group_symop_operation_xyz
x,y,z
-x,-y,z
1/2-x,y,1/2+z
1/2+x,-y,1/2+z
x,1/2+y,1/2+z
-x,1/2-y,1/2+z
1/2-x,1/2+y,z
1/2+x,1/2-y,z
loop_
_atom_site_type_symbol
_atom_site_label
_atom_site_fract_x
_atom_site_fract_y
_atom_site_fract_z
Si Si1 0.199450 0.114595 0.570970
Si Si2 0.421999 0.068524 0.803616
Si Si3 0.903791 0.729181 0.790737
Si Si4 0.378638 0.476047 0.128832
Si Si5 0.979723 0.128613 0.675093
Si Si6 0.500000 0.500000 0.819667
Si Si7 0.806696 0.877548 0.891907
Si Si8 0.760159 0.697882 0.650033
O O1 0.274293 0.032025 0.596165
O O2 0.071463 0.097237 0.606914
O O3 0.238052 0.126079 0.477090
O O4 0.233714 0.206020 0.613457
O O5 0.506106 0.151433 0.798751
O O6 0.392240 0.013350 0.721404
O O7 0.297914 0.101439 0.830781
O O8 0.500000 0.000000 0.855335
O O9 0.959545 0.792045 0.722547
O O10 0.870568 0.787364 0.868746
O O11 0.784938 0.700333 0.747602
O O12 0.500000 0.500000 0.087497
O O13 0.353239 0.373975 0.121235
O O14 0.864250 0.159491 0.632792
O O15 0.948477 0.066534 0.751882
O O16 0.596174 0.451405 0.874352
#
# Coordination Sequence:
#
# PCOD9366307 Si02
#       8
#     8   8   8   8   8   4   8   8
#     4  11  26  41  61 101 144 177 227 287 361 435
#     4  11  21  42  69  95 129 174 237 296 345 410
#     4  10  20  39  66  98 125 176 222 289 339 417
#     4  11  22  42  71  95 127 176 237 285 339 418
#     4  10  20  38  67  95 128 169 235 282 336 405
#     4  10  22  42  72  94 130 188 236 294 338 422
#     4  11  25  44  62 102 145 179 227 289 368 442
#     4  11  21  40  70  96 127 177 230 293 350 410
#
# _framework density 20.563210999999999
#
# number of rings (size 3 to 8) (size 9 to 14) (size 15 to 20)
#    0.000    1.333    2.667    5.600    2.800    1.067 
#    6.000    0.000    0.000    0.000    0.000    0.000 
#    0.000    0.000    0.000    0.000    0.000    0.000 
#
# Total GULP energy -167028.584512 kJ/mol
# GULP energy per Si atom -5567.619484 kJ/mol
# Density = 2.051641 g / cm^3
# Si number density = 20.563211 Si / 1000 Ang^3
#
#
#
# Elastic Constant Matrix: (Units=GPa)
#
#
# Indices 1 2 3 4 5 6 
#
# 1 67.4358 -8.4382 7.0754 0.0000 0.0000 0.0000
# 2 -8.4382 73.2968 0.3462 0.0000 0.0000 0.0000
# 3 7.0754 0.3462 44.1346 0.0000 0.0000 0.0000
# 4 0.0000 0.0000 0.0000 4.5268 0.0000 0.0000
# 5 0.0000 0.0000 0.0000 0.0000 6.5401 0.0000
# 6 0.0000 0.0000 0.0000 0.0000 0.0000 29.7848
#
#
#
# Elastic Compliance Matrix: (Units=1/GPa)
#
#
# Indices 1 2 3 4 5 6 
#
# 1 0.015310 0.001774 -0.002468 0.000000 0.000000 0.000000
# 2 0.001774 0.013849 -0.000393 0.000000 0.000000 0.000000
# 3 -0.002468 -0.000393 0.023057 0.000000 0.000000 0.000000
# 4 0.000000 0.000000 0.000000 0.220907 0.000000 0.000000
# 5 0.000000 0.000000 0.000000 0.000000 0.152903 0.000000
# 6 0.000000 0.000000 0.000000 0.000000 0.000000 0.033574
#
#
# Mechanical properties :
#
#
# Convention : Reuss Voigt Hill
#
# Bulk Modulus (GPa) = 19.98340 20.31489 20.14914
# Shear Modulus (GPa) = 10.45030 20.56258 15.50644
#
# Velocity S-wave (km/s) = 2.25678 3.16566 2.74904
# Velocity P-wave (km/s) = 4.06570 4.82313 4.46052
#
# Compressibility (1/GPa) = 0.05004155
#
# Stress axis : x y z
#
# Youngs Moduli (GPa) = 65.31719 72.20600 43.37125
#
# Poissons Ratio (x) = -0.12811 0.10705
# Poissons Ratio (y) = -0.11589 0.01705
# Poissons Ratio (z) = 0.16122 0.02838
#
# Static dielectric constant tensor:
#      x y z
#    x 1.786910 0.000000 0.000000 
#    y 0.000000 1.832240 0.000000 
#    z 0.000000 0.000000 1.806930 
# 
# From -- ./inp_files/10088.got.cif
#   From: 2010.05.17/outbox.cif.g08.bks.cpg/sg41_6_cif.got.tgz:10088.got - 2010.06.03 18:54:24.
