data_PCOD9366539
_publ_section_title
;
Structure prediction by ZEFSAII (Michael W. Deem and Ramdas Pophale) SiO2 
 PCOD9366539
Probable space group: A B A 2
;
_chemical_formula_sum "Si O2"
_cell_formula_units_Z 56
_cell_length_a 16.324429
_cell_length_b 5.405289
_cell_length_c 26.842336
_cell_angle_alpha 90.000000
_cell_angle_beta 90.000000
_cell_angle_gamma 90.000000
_cell_volume 2368.520929
_symmetry_space_group_name_H-M "A B A 2"
_symmetry_group_IT_number 41
_symmetry_cell_setting 'orthorhombic'
loop_
_space_group_symop_operation_xyz
x,y,z
-x,-y,z
1/2-x,y,1/2+z
1/2+x,-y,1/2+z
x,1/2+y,1/2+z
-x,1/2-y,1/2+z
1/2-x,1/2+y,z
1/2+x,1/2-y,z
loop_
_atom_site_type_symbol
_atom_site_label
_atom_site_fract_x
_atom_site_fract_y
_atom_site_fract_z
Si Si1 0.205622 0.818491 0.666290
Si Si2 0.225413 0.796468 0.056963
Si Si3 0.204508 0.643470 0.925696
Si Si4 0.032806 0.249331 0.461900
Si Si5 0.052972 0.749681 0.731162
Si Si6 0.465538 0.251843 0.077543
Si Si7 0.802278 0.821599 0.309206
O O1 0.256940 0.579038 0.684054
O O2 0.217545 0.813807 0.606568
O O3 0.114062 0.788299 0.684594
O O4 0.258249 0.554093 0.029973
O O5 0.132334 0.769555 0.074823
O O6 0.225888 0.354080 0.931291
O O7 0.129916 0.728539 0.960347
O O8 0.177505 0.677852 0.868013
O O9 0.004080 0.250642 0.519653
O O10 0.000000 0.500000 0.438390
O O11 0.000000 0.000000 0.437573
O O12 0.116328 0.708870 0.776733
O O13 0.000000 0.500000 0.725919
O O14 0.000000 0.000000 0.737616
O O15 0.500000 0.500000 0.101336
O O16 0.500000 0.000000 0.099878
O O17 0.744357 0.581968 0.299314
#
# Coordination Sequence:
#
# PCOD9366539 Si02
#       7
#     8   8   8   8   8   8   8
#     4  10  21  41  60  80 112 148 184 226 284 342
#     4  10  21  38  59  83 109 146 187 228 284 340
#     4  10  21  36  57  86 115 150 195 233 271 328
#     4  10  21  36  56  82 118 154 184 231 289 330
#     4  12  24  38  60  89 114 145 190 237 280 335
#     4  10  21  38  58  84 114 148 190 235 280 332
#     4  10  21  39  60  82 116 155 188 230 280 331
#
# _framework density 23.643446000000001
#
# number of rings (size 3 to 8) (size 9 to 14) (size 15 to 20)
#    0.000    1.714    0.000    4.286    0.000    2.286 
#    0.000   17.143    0.000    0.000    0.000    0.000 
#    0.000    0.000    0.000    0.000    0.000    0.000 
#
# Total GULP energy -156673.134047 kJ/mol
# GULP energy per Si atom -5595.469073 kJ/mol
# Density = 2.358963 g / cm^3
# Si number density = 23.643446 Si / 1000 Ang^3
#
#
#
# Elastic Constant Matrix: (Units=GPa)
#
#
# Indices 1 2 3 4 5 6 
#
# 1 117.6620 91.9494 2.4825 0.0000 0.0000 0.0000
# 2 91.9494 265.6213 11.0822 0.0000 0.0000 0.0000
# 3 2.4825 11.0822 62.8207 0.0000 0.0000 0.0000
# 4 0.0000 0.0000 0.0000 -0.0942 0.0000 0.0000
# 5 0.0000 0.0000 0.0000 0.0000 30.0009 0.0000
# 6 0.0000 0.0000 0.0000 0.0000 0.0000 52.8793
#
#
#
# Elastic Compliance Matrix: (Units=1/GPa)
#
#
# Indices 1 2 3 4 5 6 
#
# 1 0.011655 -0.004045 0.000253 0.000000 0.000000 0.000000
# 2 -0.004045 0.005197 -0.000757 0.000000 0.000000 0.000000
# 3 0.000253 -0.000757 0.016042 0.000000 0.000000 0.000000
# 4 0.000000 0.000000 0.000000-10.617754 0.000000 0.000000
# 5 0.000000 0.000000 0.000000 0.000000 0.033332 0.000000
# 6 0.000000 0.000000 0.000000 0.000000 0.000000 0.018911
#
#
# Mechanical properties :
#
#
# Convention : Reuss Voigt Hill
#
# Bulk Modulus (GPa) = 42.02507 73.01469 57.51988
# Shear Modulus (GPa) = -0.47548 39.26318 19.39385
#
# Velocity S-wave (km/s) = -0.44894 4.07951 2.86713
# Velocity P-wave (km/s) = 4.18860 7.28962 5.94487
#
# Compressibility (1/GPa) = 0.02379532
#
# Stress axis : x y z
#
# Youngs Moduli (GPa) = 85.80274 192.43394 62.33698
#
# Poissons Ratio (x) = 0.77840 -0.01577
# Poissons Ratio (y) = 0.34707 0.04718
# Poissons Ratio (z) = -0.02171 0.14565
#
# Static dielectric constant tensor:
#      x y z
#    x 1.869240 0.000000 0.000000 
#    y 0.000000 2.002900 0.000000 
#    z 0.000000 0.000000 1.945610 
# 
# From -- ./inp_files/12733.got.cif
#   From: 2010.05.17/outbox.cif.g08.bks.cpg/sg41_7_cif.got.tgz:12733.got - 2010.06.03 18:54:24.
