data_PCOD9366880
_publ_section_title
;
Structure prediction by ZEFSAII (Michael W. Deem and Ramdas Pophale) SiO2 
 PCOD9366880
Probable space group: A B A 2
;
_chemical_formula_sum "Si O2"
_cell_formula_units_Z 56
_cell_length_a 5.615586
_cell_length_b 34.013738
_cell_length_c 13.971951
_cell_angle_alpha 90.000000
_cell_angle_beta 90.000000
_cell_angle_gamma 90.000000
_cell_volume 2668.741436
_symmetry_space_group_name_H-M "A B A 2"
_symmetry_group_IT_number 41
_symmetry_cell_setting 'orthorhombic'
loop_
_space_group_symop_operation_xyz
x,y,z
-x,-y,z
1/2-x,y,1/2+z
1/2+x,-y,1/2+z
x,1/2+y,1/2+z
-x,1/2-y,1/2+z
1/2-x,1/2+y,z
1/2+x,1/2-y,z
loop_
_atom_site_type_symbol
_atom_site_label
_atom_site_fract_x
_atom_site_fract_y
_atom_site_fract_z
Si Si1 0.686141 0.227205 0.555780
Si Si2 0.143328 0.917204 0.131473
Si Si3 0.257698 0.624439 0.035110
Si Si4 0.104610 0.338894 0.178428
Si Si5 0.894260 0.670706 0.393113
Si Si6 0.363702 0.407021 0.424331
Si Si7 0.253817 0.477140 0.283495
O O1 0.430788 0.248162 0.569041
O O2 0.710939 0.191828 0.632555
O O3 0.690427 0.209452 0.448000
O O4 0.275599 0.881789 0.185564
O O5 0.205678 0.958228 0.178791
O O6 0.873426 0.902769 0.118190
O O7 0.229571 0.915277 0.023063
O O8 0.088939 0.653708 0.095100
O O9 0.419188 0.651513 0.967481
O O10 0.134675 0.594686 0.959700
O O11 0.021878 0.325242 0.283466
O O12 0.689634 0.637413 0.391537
O O13 0.272164 0.439304 0.351961
O O14 0.500000 0.500000 0.305389
O O15 0.000000 0.500000 0.291064
#
# Coordination Sequence:
#
# PCOD9366880 Si02
#       7
#     8   8   8   8   8   8   8
#     4  12  27  48  68 109 156 184 238 312 379 438
#     4  10  23  43  73 100 138 193 250 295 364 448
#     4  10  21  42  74 109 136 192 266 318 347 452
#     4  11  23  43  74 103 142 197 256 307 370 453
#     4  11  23  43  74 103 142 197 256 307 370 453
#     4  10  23  43  73 100 138 193 250 295 364 448
#     4  12  30  46  70 112 152 180 238 318 376 434
#
# _framework density 20.983675000000002
#
# number of rings (size 3 to 8) (size 9 to 14) (size 15 to 20)
#    0.000    1.143    5.714    0.857   10.000    2.286 
#    0.000    0.000    0.000    0.000    0.000    0.000 
#    0.000    0.000    0.000    0.000    0.000    0.000 
#
# Total GULP energy -155995.115666 kJ/mol
# GULP energy per Si atom -5571.254131 kJ/mol
# Density = 2.093591 g / cm^3
# Si number density = 20.983675 Si / 1000 Ang^3
#
#
#
# Elastic Constant Matrix: (Units=GPa)
#
#
# Indices 1 2 3 4 5 6 
#
# 1 101.9412 32.8761 11.7212 0.0000 0.0000 0.0000
# 2 32.8761 59.8604 8.0124 0.0000 0.0000 0.0000
# 3 11.7212 8.0124 100.9242 0.0000 0.0000 0.0000
# 4 0.0000 0.0000 0.0000 35.6479 0.0000 0.0000
# 5 0.0000 0.0000 0.0000 0.0000 2.7955 0.0000
# 6 0.0000 0.0000 0.0000 0.0000 0.0000 28.0253
#
#
#
# Elastic Compliance Matrix: (Units=1/GPa)
#
#
# Indices 1 2 3 4 5 6 
#
# 1 0.011998 -0.006472 -0.000880 0.000000 0.000000 0.000000
# 2 -0.006472 0.020376 -0.000866 0.000000 0.000000 0.000000
# 3 -0.000880 -0.000866 0.010079 0.000000 0.000000 0.000000
# 4 0.000000 0.000000 0.000000 0.028052 0.000000 0.000000
# 5 0.000000 0.000000 0.000000 0.000000 0.357714 0.000000
# 6 0.000000 0.000000 0.000000 0.000000 0.000000 0.035682
#
#
# Mechanical properties :
#
#
# Convention : Reuss Voigt Hill
#
# Bulk Modulus (GPa) = 38.43442 40.88282 39.65862
# Shear Modulus (GPa) = 10.22477 27.30148 18.76313
#
# Velocity S-wave (km/s) = 2.20982 3.61096 2.99352
# Velocity P-wave (km/s) = 4.98670 6.07543 5.55779
#
# Compressibility (1/GPa) = 0.02601834
#
# Stress axis : x y z
#
# Youngs Moduli (GPa) = 83.34855 49.07798 99.21286
#
# Poissons Ratio (x) = 0.31761 0.08727
# Poissons Ratio (y) = 0.53940 0.08592
# Poissons Ratio (z) = 0.07332 0.04250
#
# Static dielectric constant tensor:
#      x y z
#    x 2.018240 0.000000 0.000000 
#    y 0.000000 1.781060 0.000000 
#    z 0.000000 0.000000 1.784380 
# 
# From -- ./inp_files/6959.got.cif
#   From: 2010.05.17/outbox.cif.g08.bks.cpg/sg41_4_cif.got.tgz:6959.got - 2010.06.03 18:54:24.
