data_PCOD9366172
_publ_section_title
;
Structure prediction by ZEFSAII (Michael W. Deem and Ramdas Pophale) SiO2 
 PCOD9366172
Probable space group: A B A 2
;
_chemical_formula_sum "Si O2"
_cell_formula_units_Z 60
_cell_length_a 28.778413
_cell_length_b 11.873429
_cell_length_c 8.574575
_cell_angle_alpha 90.000000
_cell_angle_beta 90.000000
_cell_angle_gamma 90.000000
_cell_volume 2929.918931
_symmetry_space_group_name_H-M "A B A 2"
_symmetry_group_IT_number 41
_symmetry_cell_setting 'orthorhombic'
loop_
_space_group_symop_operation_xyz
x,y,z
-x,-y,z
1/2-x,y,1/2+z
1/2+x,-y,1/2+z
x,1/2+y,1/2+z
-x,1/2-y,1/2+z
1/2-x,1/2+y,z
1/2+x,1/2-y,z
loop_
_atom_site_type_symbol
_atom_site_label
_atom_site_fract_x
_atom_site_fract_y
_atom_site_fract_z
Si Si1 0.064363 0.372305 0.135570
Si Si2 0.096912 0.189279 0.349878
Si Si3 0.766081 0.224361 0.555747
Si Si4 0.414517 0.934757 0.784428
Si Si5 0.809463 0.604092 0.757810
Si Si6 0.000000 0.500000 0.342203
Si Si7 0.698944 0.849170 0.852308
Si Si8 0.018791 0.297159 0.564054
O O1 0.099582 0.293661 0.229906
O O2 0.045111 0.477010 0.235737
O O3 0.019788 0.290188 0.118069
O O4 0.081908 0.410601 0.968475
O O5 0.147653 0.169459 0.421460
O O6 0.057983 0.227104 0.471754
O O7 0.083320 0.070655 0.267729
O O8 0.796264 0.168027 0.419074
O O9 0.724010 0.147593 0.621227
O O10 0.739374 0.328065 0.475331
O O11 0.793661 0.264831 0.707260
O O12 0.364586 0.890133 0.725202
O O13 0.455690 0.868729 0.698372
O O14 0.799185 0.473995 0.787457
O O15 0.996355 0.389643 0.449024
#
# Coordination Sequence:
#
# PCOD9366172 Si02
#       8
#     8   8   8   8   8   4   8   8
#     4  11  22  37  56  79 108 144 184 226 273 324
#     4  10  22  37  55  80 112 143 179 227 274 322
#     4  10  20  36  58  82 112 144 180 222 272 330
#     4  11  22  37  58  83 110 144 188 230 273 328
#     4  10  21  36  57  84 112 145 182 225 275 329
#     4  10  22  36  52  76 104 138 178 220 270 318
#     4  10  20  36  56  81 110 143 180 222 271 324
#     4  11  22  37  56  79 108 144 184 226 273 324
#
# _framework density 20.478382
#
# number of rings (size 3 to 8) (size 9 to 14) (size 15 to 20)
#    0.000    1.600    0.000    5.600    0.000    1.600 
#    0.000    0.000    0.000   22.400    0.000    0.000 
#    0.000    0.000    0.000    0.000    0.000    0.000 
#
# Total GULP energy -167620.175155 kJ/mol
# GULP energy per Si atom -5587.339172 kJ/mol
# Density = 2.043177 g / cm^3
# Si number density = 20.478382 Si / 1000 Ang^3
#
#
#
# Elastic Constant Matrix: (Units=GPa)
#
#
# Indices 1 2 3 4 5 6 
#
# 1 58.4094 15.8402 -7.6842 0.0000 0.0000 0.0000
# 2 15.8402 51.0792 -13.9853 0.0000 0.0000 0.0000
# 3 -7.6842 -13.9853 28.4093 0.0000 0.0000 0.0000
# 4 0.0000 0.0000 0.0000 23.2217 0.0000 0.0000
# 5 0.0000 0.0000 0.0000 0.0000 22.8373 0.0000
# 6 0.0000 0.0000 0.0000 0.0000 0.0000 36.8809
#
#
#
# Elastic Compliance Matrix: (Units=1/GPa)
#
#
# Indices 1 2 3 4 5 6 
#
# 1 0.018853 -0.005144 0.002567 0.000000 0.000000 0.000000
# 2 -0.005144 0.024031 0.010438 0.000000 0.000000 0.000000
# 3 0.002567 0.010438 0.041033 0.000000 0.000000 0.000000
# 4 0.000000 0.000000 0.000000 0.043063 0.000000 0.000000
# 5 0.000000 0.000000 0.000000 0.000000 0.043788 0.000000
# 6 0.000000 0.000000 0.000000 0.000000 0.000000 0.027114
#
#
# Mechanical properties :
#
#
# Convention : Reuss Voigt Hill
#
# Bulk Modulus (GPa) = 10.03603 14.02658 12.03130
# Shear Modulus (GPa) = 23.21571 26.16979 24.69275
#
# Velocity S-wave (km/s) = 3.37065 3.57868 3.47622
# Velocity P-wave (km/s) = 4.47882 4.89288 4.69042
#
# Compressibility (1/GPa) = 0.09964098
#
# Stress axis : x y z
#
# Youngs Moduli (GPa) = 53.04136 41.61367 24.37073
#
# Poissons Ratio (x) = 0.21405 -0.06257
# Poissons Ratio (y) = 0.27283 -0.25439
# Poissons Ratio (z) = -0.13618 -0.43438
#
# Static dielectric constant tensor:
#      x y z
#    x 1.718620 0.000000 0.000000 
#    y 0.000000 1.713840 0.000000 
#    z 0.000000 0.000000 1.742780 
# 
# From -- ./inp_files/3796.got.cif
#   From: 2010.05.17/outbox.cif.g08.bks.cpg/sg41_2_cif.got.tgz:3796.got - 2010.06.03 18:54:24.
