data_PCOD9366900
_publ_section_title
;
Structure prediction by ZEFSAII (Michael W. Deem and Ramdas Pophale) SiO2 
 PCOD9366900
Probable space group: A B A 2
;
_chemical_formula_sum "Si O2"
_cell_formula_units_Z 64
_cell_length_a 11.414075
_cell_length_b 21.185384
_cell_length_c 10.430011
_cell_angle_alpha 90.000000
_cell_angle_beta 90.000000
_cell_angle_gamma 90.000000
_cell_volume 2522.097250
_symmetry_space_group_name_H-M "A B A 2"
_symmetry_group_IT_number 41
_symmetry_cell_setting 'orthorhombic'
loop_
_space_group_symop_operation_xyz
x,y,z
-x,-y,z
1/2-x,y,1/2+z
1/2+x,-y,1/2+z
x,1/2+y,1/2+z
-x,1/2-y,1/2+z
1/2-x,1/2+y,z
1/2+x,1/2-y,z
loop_
_atom_site_type_symbol
_atom_site_label
_atom_site_fract_x
_atom_site_fract_y
_atom_site_fract_z
Si Si1 0.405399 0.549628 0.927770
Si Si2 0.301921 0.838281 0.688581
Si Si3 0.506230 0.569045 0.460494
Si Si4 0.151113 0.810121 0.921930
Si Si5 0.229763 0.933026 0.998049
Si Si6 0.123518 0.196215 0.533883
Si Si7 0.291153 0.667317 0.798342
Si Si8 0.555260 0.887525 0.698959
O O1 0.500000 0.500000 0.875220
O O2 0.296391 0.504473 0.966558
O O3 0.366243 0.605692 0.835927
O O4 0.444260 0.576586 0.065667
O O5 0.223004 0.805631 0.793502
O O6 0.274250 0.804664 0.553353
O O7 0.271784 0.911276 0.647318
O O8 0.441102 0.842727 0.709293
O O9 0.500000 0.500000 0.524334
O O10 0.643075 0.584536 0.446830
O O11 0.442926 0.629268 0.522236
O O12 0.451734 0.565515 0.318973
O O13 0.134415 0.885773 0.931124
O O14 0.059800 0.755184 0.957602
O O15 0.236599 0.189383 0.436068
O O16 0.136739 0.204619 0.687862
O O17 0.175171 0.649407 0.718131
#
# Coordination Sequence:
#
# PCOD9366900 Si02
#       8
#     8   8   8   8   8   8   8   8
#     4  12  23  43  70 109 144 198 250 315 392 467
#     4  10  21  43  71 104 141 189 249 306 377 453
#     4  11  24  43  69 104 144 198 242 308 393 456
#     4  10  22  44  71  99 141 191 246 304 371 455
#     4  10  23  42  68 104 143 189 248 311 371 466
#     4  11  24  48  69  99 147 193 247 312 382 451
#     4  11  25  44  69 102 144 191 245 315 370 460
#     4  11  21  44  70 103 143 193 245 301 386 454
#
# _framework density 25.375707999999999
#
# number of rings (size 3 to 8) (size 9 to 14) (size 15 to 20)
#    0.750    0.500    3.750    2.625    0.000    1.500 
#    6.750    0.000    0.000    0.000    0.000    0.000 
#    0.000    0.000    0.000    0.000    0.000    0.000 
#
# Total GULP energy -178315.516151 kJ/mol
# GULP energy per Si atom -5572.359880 kJ/mol
# Density = 2.531795 g / cm^3
# Si number density = 25.375708 Si / 1000 Ang^3
#
#
#
# Elastic Constant Matrix: (Units=GPa)
#
#
# Indices 1 2 3 4 5 6 
#
# 1 46.1803 0.0966 8.2289 0.0000 0.0000 0.0000
# 2 0.0966 103.5721 18.1209 0.0000 0.0000 0.0000
# 3 8.2289 18.1209 113.3906 0.0000 0.0000 0.0000
# 4 0.0000 0.0000 0.0000 26.2447 0.0000 0.0000
# 5 0.0000 0.0000 0.0000 0.0000 27.7450 0.0000
# 6 0.0000 0.0000 0.0000 0.0000 0.0000 29.9716
#
#
#
# Elastic Compliance Matrix: (Units=1/GPa)
#
#
# Indices 1 2 3 4 5 6 
#
# 1 0.021945 0.000266 -0.001635 0.000000 0.000000 0.000000
# 2 0.000266 0.009936 -0.001607 0.000000 0.000000 0.000000
# 3 -0.001635 -0.001607 0.009195 0.000000 0.000000 0.000000
# 4 0.000000 0.000000 0.000000 0.038103 0.000000 0.000000
# 5 0.000000 0.000000 0.000000 0.000000 0.036043 0.000000
# 6 0.000000 0.000000 0.000000 0.000000 0.000000 0.033365
#
#
# Mechanical properties :
#
#
# Convention : Reuss Voigt Hill
#
# Bulk Modulus (GPa) = 28.47178 35.11510 31.79344
# Shear Modulus (GPa) = 30.07578 32.57203 31.32390
#
# Velocity S-wave (km/s) = 3.44644 3.58661 3.51722
# Velocity P-wave (km/s) = 5.20401 5.56954 5.38987
#
# Compressibility (1/GPa) = 0.03512250
#
# Stress axis : x y z
#
# Youngs Moduli (GPa) = 45.56835 100.64365 108.75989
#
# Poissons Ratio (x) = -0.02673 0.17782
# Poissons Ratio (y) = -0.01210 0.17479
# Poissons Ratio (z) = 0.07451 0.16175
#
# Static dielectric constant tensor:
#      x y z
#    x 2.106500 0.000000 0.000000 
#    y 0.000000 2.272540 0.000000 
#    z 0.000000 0.000000 1.974660 
# 
# From -- ./inp_files/5178.got.cif
#   From: 2010.05.17/outbox.cif.g08.bks.cpg/sg41_3_cif.got.tgz:5178.got - 2010.06.03 18:54:24.
