data_PCOD9366393
_publ_section_title
;
Structure prediction by ZEFSAII (Michael W. Deem and Ramdas Pophale) SiO2 
 PCOD9366393
Probable space group: A B A 2
;
_chemical_formula_sum "Si O2"
_cell_formula_units_Z 48
_cell_length_a 11.539284
_cell_length_b 9.035587
_cell_length_c 21.712358
_cell_angle_alpha 90.000000
_cell_angle_beta 90.000000
_cell_angle_gamma 90.000000
_cell_volume 2263.821735
_symmetry_space_group_name_H-M "A B A 2"
_symmetry_group_IT_number 41
_symmetry_cell_setting 'orthorhombic'
loop_
_space_group_symop_operation_xyz
x,y,z
-x,-y,z
1/2-x,y,1/2+z
1/2+x,-y,1/2+z
x,1/2+y,1/2+z
-x,1/2-y,1/2+z
1/2-x,1/2+y,z
1/2+x,1/2-y,z
loop_
_atom_site_type_symbol
_atom_site_label
_atom_site_fract_x
_atom_site_fract_y
_atom_site_fract_z
Si Si1 0.526478 0.222196 0.630100
Si Si2 0.861884 0.875908 0.527547
Si Si3 0.125972 0.075438 0.875974
Si Si4 0.287781 0.353363 0.448595
Si Si5 0.876203 0.918132 0.734263
Si Si6 0.308939 0.545642 0.138229
O O1 0.529062 0.323623 0.569102
O O2 0.592690 0.284281 0.689339
O O3 0.397299 0.180464 0.649886
O O4 0.606167 0.082137 0.615107
O O5 0.805886 0.739581 0.489185
O O6 0.772371 0.912584 0.582127
O O7 0.861234 0.023118 0.485780
O O8 0.136859 0.224794 0.916290
O O9 0.152524 0.113149 0.804809
O O10 0.216508 0.953548 0.900363
O O11 0.000000 0.000000 0.880543
O O12 0.769461 0.992513 0.697434
O O13 0.000000 0.000000 0.734625
#
# Coordination Sequence:
#
# PCOD9366393 Si02
#       6
#     8   8   8   8   8   8
#     4  10  22  38  66  97 131 175 209 274 341 400
#     4  10  20  40  64  97 130 170 219 268 340 402
#     4  10  24  45  67  94 132 180 231 284 336 393
#     4  10  22  41  67  93 133 179 223 280 328 399
#     4  10  24  39  66  93 130 172 223 273 337 399
#     4  10  22  39  64  98 135 167 215 276 337 404
#
# _framework density 21.203082999999999
#
# number of rings (size 3 to 8) (size 9 to 14) (size 15 to 20)
#    0.000    2.000    1.667    0.000    7.000    4.000 
#    0.000   10.000    0.000    0.000    0.000    0.000 
#    0.000    0.000    0.000    0.000    0.000    0.000 
#
# Total GULP energy -133892.275159 kJ/mol
# GULP energy per Si atom -5578.844798 kJ/mol
# Density = 2.115482 g / cm^3
# Si number density = 21.203083 Si / 1000 Ang^3
#
#
#
# Elastic Constant Matrix: (Units=GPa)
#
#
# Indices 1 2 3 4 5 6 
#
# 1 76.7359 23.1433 42.5405 0.0000 0.0000 0.0000
# 2 23.1433 105.7636 58.4983 0.0000 0.0000 0.0000
# 3 42.5405 58.4983 145.3598 0.0000 0.0000 0.0000
# 4 0.0000 0.0000 0.0000 19.0430 0.0000 0.0000
# 5 0.0000 0.0000 0.0000 0.0000 25.3755 0.0000
# 6 0.0000 0.0000 0.0000 0.0000 0.0000 30.2688
#
#
#
# Elastic Compliance Matrix: (Units=1/GPa)
#
#
# Indices 1 2 3 4 5 6 
#
# 1 0.015663 -0.001147 -0.004122 0.000000 0.000000 0.000000
# 2 -0.001147 0.012246 -0.004593 0.000000 0.000000 0.000000
# 3 -0.004122 -0.004593 0.009934 0.000000 0.000000 0.000000
# 4 0.000000 0.000000 0.000000 0.052513 0.000000 0.000000
# 5 0.000000 0.000000 0.000000 0.000000 0.039408 0.000000
# 6 0.000000 0.000000 0.000000 0.000000 0.000000 0.033037
#
#
# Mechanical properties :
#
#
# Convention : Reuss Voigt Hill
#
# Bulk Modulus (GPa) = 55.19033 64.02482 59.60757
# Shear Modulus (GPa) = 26.51598 28.51593 27.51596
#
# Velocity S-wave (km/s) = 3.54018 3.67126 3.60632
# Velocity P-wave (km/s) = 6.54189 6.94496 6.74644
#
# Compressibility (1/GPa) = 0.01811912
#
# Stress axis : x y z
#
# Youngs Moduli (GPa) = 63.84490 81.65727 100.66373
#
# Poissons Ratio (x) = 0.09370 0.41495
# Poissons Ratio (y) = 0.07326 0.46231
# Poissons Ratio (z) = 0.26317 0.37502
#
# Static dielectric constant tensor:
#      x y z
#    x 1.856070 0.000000 0.000000 
#    y 0.000000 1.865360 0.000000 
#    z 0.000000 0.000000 1.743620 
# 
# From -- ./inp_files/12105.got.cif
#   From: 2010.05.17/outbox.cif.g08.bks.cpg/sg41_7_cif.got.tgz:12105.got - 2010.06.03 18:54:24.
