data_PCOD9366777
_publ_section_title
;
Structure prediction by ZEFSAII (Michael W. Deem and Ramdas Pophale) SiO2 
 PCOD9366777
Probable space group: A B A 2
;
_chemical_formula_sum "Si O2"
_cell_formula_units_Z 60
_cell_length_a 29.275339
_cell_length_b 8.476960
_cell_length_c 11.328962
_cell_angle_alpha 90.000000
_cell_angle_beta 90.000000
_cell_angle_gamma 90.000000
_cell_volume 2811.461798
_symmetry_space_group_name_H-M "A B A 2"
_symmetry_group_IT_number 41
_symmetry_cell_setting 'orthorhombic'
loop_
_space_group_symop_operation_xyz
x,y,z
-x,-y,z
1/2-x,y,1/2+z
1/2+x,-y,1/2+z
x,1/2+y,1/2+z
-x,1/2-y,1/2+z
1/2-x,1/2+y,z
1/2+x,1/2-y,z
loop_
_atom_site_type_symbol
_atom_site_label
_atom_site_fract_x
_atom_site_fract_y
_atom_site_fract_z
Si Si1 0.812148 0.295106 0.632390
Si Si2 0.573661 0.225547 0.394402
Si Si3 0.000000 0.500000 0.297594
Si Si4 0.305462 0.933709 0.909420
Si Si5 0.151099 0.473655 0.298424
Si Si6 0.079477 0.176981 0.656933
Si Si7 0.113280 0.010564 0.236660
Si Si8 0.242543 0.156133 0.814499
O O1 0.808476 0.178017 0.522410
O O2 0.852073 0.426252 0.634774
O O3 0.765417 0.366736 0.685551
O O4 0.828902 0.179380 0.735818
O O5 0.527520 0.127590 0.374699
O O6 0.575446 0.319497 0.516242
O O7 0.582380 0.347091 0.286474
O O8 0.614278 0.095527 0.389364
O O9 0.036517 0.592032 0.217057
O O10 0.271235 0.837976 0.823985
O O11 0.353384 0.959350 0.844807
O O12 0.279488 0.100964 0.912510
O O13 0.123452 0.581094 0.204742
O O14 0.194585 0.570844 0.340562
O O15 0.085411 0.358194 0.697019
#
# Coordination Sequence:
#
# PCOD9366777 Si02
#       8
#     8   8   4   8   8   8   8   8
#     4  10  23  38  56  85 127 170 212 262 307 346
#     4  10  24  44  66  92 125 160 196 256 320 370
#     4  10  26  44  62 100 124 144 202 252 306 406
#     4  11  23  37  57  86 126 170 213 260 305 345
#     4  10  21  41  57  88 127 157 214 256 294 374
#     4  11  23  42  71  91 123 164 193 254 323 368
#     4  10  23  41  62  95 120 160 218 251 298 386
#     4  11  22  36  54  87 123 165 218 259 290 358
#
# _framework density 21.341211999999999
#
# number of rings (size 3 to 8) (size 9 to 14) (size 15 to 20)
#    0.000    1.600    2.667    0.800    3.733    3.733 
#    0.000    0.000    0.000    0.000    0.000    0.000 
#    0.000    0.000    0.000    0.000    0.000    0.000 
#
# Total GULP energy -167439.668834 kJ/mol
# GULP energy per Si atom -5581.322294 kJ/mol
# Density = 2.129264 g / cm^3
# Si number density = 21.341212 Si / 1000 Ang^3
#
#
#
# Elastic Constant Matrix: (Units=GPa)
#
#
# Indices 1 2 3 4 5 6 
#
# 1 80.3100 19.4560 13.9232 0.0000 0.0000 0.0000
# 2 19.4560 82.1164 5.7974 0.0000 0.0000 0.0000
# 3 13.9232 5.7974 59.7971 0.0000 0.0000 0.0000
# 4 0.0000 0.0000 0.0000 41.6277 0.0000 0.0000
# 5 0.0000 0.0000 0.0000 0.0000 3.3027 0.0000
# 6 0.0000 0.0000 0.0000 0.0000 0.0000 45.6449
#
#
#
# Elastic Compliance Matrix: (Units=1/GPa)
#
#
# Indices 1 2 3 4 5 6 
#
# 1 0.013690 -0.003039 -0.002893 0.000000 0.000000 0.000000
# 2 -0.003039 0.012937 -0.000547 0.000000 0.000000 0.000000
# 3 -0.002893 -0.000547 0.017450 0.000000 0.000000 0.000000
# 4 0.000000 0.000000 0.000000 0.024022 0.000000 0.000000
# 5 0.000000 0.000000 0.000000 0.000000 0.302786 0.000000
# 6 0.000000 0.000000 0.000000 0.000000 0.000000 0.021908
#
#
# Mechanical properties :
#
#
# Convention : Reuss Voigt Hill
#
# Bulk Modulus (GPa) = 32.13517 33.39745 32.76631
# Shear Modulus (GPa) = 12.01568 30.31817 21.16692
#
# Velocity S-wave (km/s) = 2.37539 3.77323 3.15275
# Velocity P-wave (km/s) = 4.75540 5.88780 5.35164
#
# Compressibility (1/GPa) = 0.03111855
#
# Stress axis : x y z
#
# Youngs Moduli (GPa) = 73.04831 77.30054 57.30735
#
# Poissons Ratio (x) = 0.23494 0.16578
# Poissons Ratio (y) = 0.22201 0.03132
# Poissons Ratio (z) = 0.21132 0.04225
#
# Static dielectric constant tensor:
#      x y z
#    x 1.784710 0.000000 0.000000 
#    y 0.000000 1.791850 0.000000 
#    z 0.000000 0.000000 1.783350 
# 
# From -- ./inp_files/6567.got.cif
#   From: 2010.05.17/outbox.cif.g08.bks.cpg/sg41_4_cif.got.tgz:6567.got - 2010.06.03 18:54:24.
