data_PCOD9366165
_publ_section_title
;
Structure prediction by ZEFSAII (Michael W. Deem and Ramdas Pophale) SiO2 
 PCOD9366165
Probable space group: A B A 2
;
_chemical_formula_sum "Si O2"
_cell_formula_units_Z 64
_cell_length_a 13.048837
_cell_length_b 9.492384
_cell_length_c 22.081681
_cell_angle_alpha 90.000000
_cell_angle_beta 90.000000
_cell_angle_gamma 90.000000
_cell_volume 2735.137956
_symmetry_space_group_name_H-M "A B A 2"
_symmetry_group_IT_number 41
_symmetry_cell_setting 'orthorhombic'
loop_
_space_group_symop_operation_xyz
x,y,z
-x,-y,z
1/2-x,y,1/2+z
1/2+x,-y,1/2+z
x,1/2+y,1/2+z
-x,1/2-y,1/2+z
1/2-x,1/2+y,z
1/2+x,1/2-y,z
loop_
_atom_site_type_symbol
_atom_site_label
_atom_site_fract_x
_atom_site_fract_y
_atom_site_fract_z
Si Si1 0.677534 0.588037 0.132150
Si Si2 0.586557 0.115333 0.278286
Si Si3 0.356842 0.272765 0.014282
Si Si4 0.806736 0.356167 0.831012
Si Si5 0.686537 0.616615 0.267347
Si Si6 0.250073 0.039519 0.961952
Si Si7 0.909434 0.109660 0.643780
Si Si8 0.578050 0.352648 0.048258
O O1 0.646599 0.631695 0.199498
O O2 0.796016 0.543754 0.138620
O O3 0.609453 0.469846 0.099321
O O4 0.675500 0.715838 0.084593
O O5 0.605835 0.232162 0.329806
O O6 0.576942 0.182094 0.210426
O O7 0.500000 0.000000 0.289170
O O8 0.698580 0.046858 0.269802
O O9 0.350161 0.112629 0.992033
O O10 0.281976 0.378946 0.976391
O O11 0.468958 0.343070 0.014469
O O12 0.866447 0.488493 0.801071
O O13 0.761668 0.419580 0.892503
O O14 0.714820 0.263753 0.798972
O O15 0.161745 0.125460 0.996811
O O16 0.918390 0.213177 0.587867
O O17 0.000000 0.000000 0.641219
#
# Coordination Sequence:
#
# PCOD9366165 Si02
#       8
#     8   8   8   8   8   8   8   8
#     4  10  20  39  61  93 133 170 205 278 336 398
#     4   8  18  37  59  97 126 168 220 269 331 396
#     4  11  25  42  66  97 129 178 219 276 334 405
#     4  10  20  39  63  92 124 175 220 260 324 389
#     4   9  20  35  66  89 127 167 215 262 334 384
#     4  11  23  43  64  92 134 177 223 268 326 386
#     4  10  20  35  63  98 135 174 218 278 339 410
#     4  11  24  40  65  97 135 172 226 271 345 402
#
# _framework density 23.399184999999999
#
# number of rings (size 3 to 8) (size 9 to 14) (size 15 to 20)
#    0.750    1.250    1.250    3.000    3.500    0.000 
#    6.750    0.000    0.000    0.000    0.000    0.000 
#    0.000    0.000    0.000    0.000    0.000    0.000 
#
# Total GULP energy -178138.520070 kJ/mol
# GULP energy per Si atom -5566.828752 kJ/mol
# Density = 2.334593 g / cm^3
# Si number density = 23.399185 Si / 1000 Ang^3
#
#
#
# Elastic Constant Matrix: (Units=GPa)
#
#
# Indices 1 2 3 4 5 6 
#
# 1 65.8424 7.9554 -1.2213 0.0000 0.0000 0.0000
# 2 7.9554 85.1841 34.4244 0.0000 0.0000 0.0000
# 3 -1.2213 34.4244 132.2806 0.0000 0.0000 0.0000
# 4 0.0000 0.0000 0.0000 4.7849 0.0000 0.0000
# 5 0.0000 0.0000 0.0000 0.0000 8.0052 0.0000
# 6 0.0000 0.0000 0.0000 0.0000 0.0000 22.1928
#
#
#
# Elastic Compliance Matrix: (Units=1/GPa)
#
#
# Indices 1 2 3 4 5 6 
#
# 1 0.015400 -0.001672 0.000577 0.000000 0.000000 0.000000
# 2 -0.001672 0.013300 -0.003477 0.000000 0.000000 0.000000
# 3 0.000577 -0.003477 0.008470 0.000000 0.000000 0.000000
# 4 0.000000 0.000000 0.000000 0.208991 0.000000 0.000000
# 5 0.000000 0.000000 0.000000 0.000000 0.124919 0.000000
# 6 0.000000 0.000000 0.000000 0.000000 0.000000 0.045060
#
#
# Mechanical properties :
#
#
# Convention : Reuss Voigt Hill
#
# Bulk Modulus (GPa) = 35.67792 40.62492 38.15142
# Shear Modulus (GPa) = 11.50417 23.13981 17.32199
#
# Velocity S-wave (km/s) = 2.21972 3.14811 2.72376
# Velocity P-wave (km/s) = 4.67441 5.53295 5.12170
#
# Compressibility (1/GPa) = 0.02802854
#
# Stress axis : x y z
#
# Youngs Moduli (GPa) = 64.93321 75.18582 118.06670
#
# Poissons Ratio (x) = 0.12567 -0.06815
# Poissons Ratio (y) = 0.10854 0.41048
# Poissons Ratio (z) = -0.03748 0.26140
#
# Static dielectric constant tensor:
#      x y z
#    x 1.983840 0.000000 0.000000 
#    y 0.000000 2.012380 0.000000 
#    z 0.000000 0.000000 1.985890 
# 
# From -- ./inp_files/11729.got.cif
#   From: 2010.05.17/outbox.cif.g08.bks.cpg/sg41_6_cif.got.tgz:11729.got - 2010.06.03 18:54:24.
