data_PCOD9366855
_publ_section_title
;
Structure prediction by ZEFSAII (Michael W. Deem and Ramdas Pophale) SiO2 
 PCOD9366855
Probable space group: A B A 2
;
_chemical_formula_sum "Si O2"
_cell_formula_units_Z 40
_cell_length_a 20.385750
_cell_length_b 11.602903
_cell_length_c 7.385709
_cell_angle_alpha 90.000000
_cell_angle_beta 90.000000
_cell_angle_gamma 90.000000
_cell_volume 1746.970405
_symmetry_space_group_name_H-M "A B A 2"
_symmetry_group_IT_number 41
_symmetry_cell_setting 'orthorhombic'
loop_
_space_group_symop_operation_xyz
x,y,z
-x,-y,z
1/2-x,y,1/2+z
1/2+x,-y,1/2+z
x,1/2+y,1/2+z
-x,1/2-y,1/2+z
1/2-x,1/2+y,z
1/2+x,1/2-y,z
loop_
_atom_site_type_symbol
_atom_site_label
_atom_site_fract_x
_atom_site_fract_y
_atom_site_fract_z
Si Si1 0.056031 0.909585 0.629120
Si Si2 0.320457 0.517726 0.037230
Si Si3 0.378021 0.784902 0.433860
Si Si4 0.676479 0.920441 0.153440
Si Si5 0.942280 0.078478 0.219469
O O1 0.078257 0.802786 0.754529
O O2 0.122249 0.983913 0.616036
O O3 0.040173 0.883883 0.421325
O O4 0.000000 0.000000 0.698410
O O5 0.326510 0.391936 0.941395
O O6 0.331994 0.606078 0.869807
O O7 0.377614 0.501618 0.186201
O O8 0.250939 0.539879 0.125994
O O9 0.338774 0.676300 0.504248
O O10 0.428562 0.811808 0.596523
O O11 0.000000 0.000000 0.146169
#
# Coordination Sequence:
#
# PCOD9366855 Si02
#       5
#     8   8   8   8   8
#     4  10  21  42  65  93 133 169 213 281 334 388
#     4   9  22  38  62  89 131 161 217 274 317 392
#     4   9  22  40  63  91 126 164 219 267 321 404
#     4  11  21  41  63  93 126 178 214 269 343 387
#     4   9  19  43  67  90 130 172 207 278 333 382
#
# _framework density 22.896782000000002
#
# number of rings (size 3 to 8) (size 9 to 14) (size 15 to 20)
#    1.200    1.200    0.000    1.800    0.000    3.200 
#   14.400    0.000    0.000    0.000    0.000    0.000 
#    0.000    0.000    0.000    0.000    0.000    0.000 
#
# Total GULP energy -111362.761820 kJ/mol
# GULP energy per Si atom -5568.138091 kJ/mol
# Density = 2.284467 g / cm^3
# Si number density = 22.896782 Si / 1000 Ang^3
#
#
#
# Elastic Constant Matrix: (Units=GPa)
#
#
# Indices 1 2 3 4 5 6 
#
# 1 97.8493 25.1628 11.1665 0.0000 0.0000 0.0000
# 2 25.1628 48.4965 19.4892 0.0000 0.0000 0.0000
# 3 11.1665 19.4892 113.7368 0.0000 0.0000 0.0000
# 4 0.0000 0.0000 0.0000 16.2260 0.0000 0.0000
# 5 0.0000 0.0000 0.0000 0.0000 8.5477 0.0000
# 6 0.0000 0.0000 0.0000 0.0000 0.0000 27.0041
#
#
#
# Elastic Compliance Matrix: (Units=1/GPa)
#
#
# Indices 1 2 3 4 5 6 
#
# 1 0.011795 -0.006073 -0.000117 0.000000 0.000000 0.000000
# 2 -0.006073 0.025272 -0.003734 0.000000 0.000000 0.000000
# 3 -0.000117 -0.003734 0.009444 0.000000 0.000000 0.000000
# 4 0.000000 0.000000 0.000000 0.061629 0.000000 0.000000
# 5 0.000000 0.000000 0.000000 0.000000 0.116990 0.000000
# 6 0.000000 0.000000 0.000000 0.000000 0.000000 0.037031
#
#
# Mechanical properties :
#
#
# Convention : Reuss Voigt Hill
#
# Bulk Modulus (GPa) = 37.50725 41.30215 39.40470
# Shear Modulus (GPa) = 17.18823 23.97318 20.58071
#
# Velocity S-wave (km/s) = 2.74283 3.23927 3.00133
# Velocity P-wave (km/s) = 5.14270 5.66286 5.40904
#
# Compressibility (1/GPa) = 0.02666151
#
# Stress axis : x y z
#
# Youngs Moduli (GPa) = 84.78292 39.57022 105.89159
#
# Poissons Ratio (x) = 0.24030 0.01243
# Poissons Ratio (y) = 0.51486 0.39542
# Poissons Ratio (z) = 0.00996 0.14776
#
# Static dielectric constant tensor:
#      x y z
#    x 1.817360 0.000000 0.000000 
#    y 0.000000 1.932070 0.000000 
#    z 0.000000 0.000000 1.952970 
# 
# From -- ./inp_files/3327.got.cif
#   From: 2010.05.17/outbox.cif.g08.bks.cpg/sg41_2_cif.got.tgz:3327.got - 2010.06.03 18:54:24.
