data_PCOD9366441
_publ_section_title
;
Structure prediction by ZEFSAII (Michael W. Deem and Ramdas Pophale) SiO2 
 PCOD9366441
Probable space group: A B A 2
;
_chemical_formula_sum "Si O2"
_cell_formula_units_Z 60
_cell_length_a 28.644843
_cell_length_b 7.896062
_cell_length_c 11.438845
_cell_angle_alpha 90.000000
_cell_angle_beta 90.000000
_cell_angle_gamma 90.000000
_cell_volume 2587.254621
_symmetry_space_group_name_H-M "A B A 2"
_symmetry_group_IT_number 41
_symmetry_cell_setting 'orthorhombic'
loop_
_space_group_symop_operation_xyz
x,y,z
-x,-y,z
1/2-x,y,1/2+z
1/2+x,-y,1/2+z
x,1/2+y,1/2+z
-x,1/2-y,1/2+z
1/2-x,1/2+y,z
1/2+x,1/2-y,z
loop_
_atom_site_type_symbol
_atom_site_label
_atom_site_fract_x
_atom_site_fract_y
_atom_site_fract_z
Si Si1 0.828152 0.638428 0.902970
Si Si2 0.096562 0.381280 0.314015
Si Si3 0.713575 0.951211 0.697960
Si Si4 0.576137 0.011781 0.852280
Si Si5 0.000000 0.500000 0.655500
Si Si6 0.554767 0.190083 0.087925
Si Si7 0.861251 0.436109 0.522141
Si Si8 0.684583 0.061887 0.161544
O O1 0.792009 0.549177 0.819496
O O2 0.878180 0.625913 0.842043
O O3 0.823864 0.831619 0.942831
O O4 0.830331 0.542329 0.026704
O O5 0.093900 0.181072 0.343390
O O6 0.056024 0.399044 0.215415
O O7 0.102681 0.463867 0.441014
O O8 0.140850 0.461323 0.245681
O O9 0.673689 0.029675 0.611040
O O10 0.699286 0.754993 0.694174
O O11 0.767832 0.958421 0.669076
O O12 0.541948 0.042314 0.744589
O O13 0.554199 0.066114 0.977042
O O14 0.984866 0.334016 0.584326
O O15 0.604035 0.297963 0.082651
#
# Coordination Sequence:
#
# PCOD9366441 Si02
#       8
#     8   8   8   8   4   8   8   8
#     4  10  21  43  61  81 132 171 207 262 327 372
#     4  11  21  40  64  90 123 168 213 251 315 379
#     4  11  23  39  56  89 127 165 223 270 312 363
#     4  10  20  41  67  88 125 169 200 256 325 385
#     4  10  22  36  70  94 122 156 208 266 312 384
#     4  10  21  45  63  91 131 163 204 262 322 381
#     4  10  23  40  63  91 120 174 214 253 326 375
#     4  11  24  37  59  89 125 168 216 268 314 364
#
# _framework density 23.190604
#
# number of rings (size 3 to 8) (size 9 to 14) (size 15 to 20)
#    0.000    1.600    5.333    0.800    3.733    5.333 
#    0.000    2.667    0.000    0.000    0.000    0.000 
#    0.000    0.000    0.000    0.000    0.000    0.000 
#
# Total GULP energy -167239.865359 kJ/mol
# GULP energy per Si atom -5574.662179 kJ/mol
# Density = 2.313782 g / cm^3
# Si number density = 23.190604 Si / 1000 Ang^3
#
#
#
# Elastic Constant Matrix: (Units=GPa)
#
#
# Indices 1 2 3 4 5 6 
#
# 1 66.1693 -3.6183 0.5561 0.0000 0.0000 0.0000
# 2 -3.6183 22.7490 31.0496 0.0000 0.0000 0.0000
# 3 0.5561 31.0496 96.2215 0.0000 0.0000 0.0000
# 4 0.0000 0.0000 0.0000 32.9703 0.0000 0.0000
# 5 0.0000 0.0000 0.0000 0.0000 31.0577 0.0000
# 6 0.0000 0.0000 0.0000 0.0000 0.0000 28.7735
#
#
#
# Elastic Compliance Matrix: (Units=1/GPa)
#
#
# Indices 1 2 3 4 5 6 
#
# 1 0.015377 0.004588 -0.001569 0.000000 0.000000 0.000000
# 2 0.004588 0.079925 -0.025818 0.000000 0.000000 0.000000
# 3 -0.001569 -0.025818 0.018733 0.000000 0.000000 0.000000
# 4 0.000000 0.000000 0.000000 0.030330 0.000000 0.000000
# 5 0.000000 0.000000 0.000000 0.000000 0.032198 0.000000
# 6 0.000000 0.000000 0.000000 0.000000 0.000000 0.034754
#
#
# Mechanical properties :
#
#
# Convention : Reuss Voigt Hill
#
# Bulk Modulus (GPa) = 14.61206 26.79049 20.70127
# Shear Modulus (GPa) = 17.87449 29.03712 23.45580
#
# Velocity S-wave (km/s) = 2.77928 3.54235 3.18376
# Velocity P-wave (km/s) = 4.07599 5.32056 4.73931
#
# Compressibility (1/GPa) = 0.06843664
#
# Stress axis : x y z
#
# Youngs Moduli (GPa) = 65.03304 12.51166 53.38240
#
# Poissons Ratio (x) = -0.05740 0.08377
# Poissons Ratio (y) = -0.29834 1.37820
# Poissons Ratio (z) = 0.10205 0.32302
#
# Static dielectric constant tensor:
#      x y z
#    x 1.907970 0.000000 0.000000 
#    y 0.000000 1.916800 0.000000 
#    z 0.000000 0.000000 1.953590 
# 
# From -- ./inp_files/6584.got.cif
#   From: 2010.05.17/outbox.cif.g08.bks.cpg/sg41_4_cif.got.tgz:6584.got - 2010.06.03 18:54:24.
