data_PCOD9366744
_publ_section_title
;
Structure prediction by ZEFSAII (Michael W. Deem and Ramdas Pophale) SiO2 
 PCOD9366744
Probable space group: A B A 2
;
_chemical_formula_sum "Si O2"
_cell_formula_units_Z 40
_cell_length_a 8.791992
_cell_length_b 9.820250
_cell_length_c 21.036122
_cell_angle_alpha 90.000000
_cell_angle_beta 90.000000
_cell_angle_gamma 90.000000
_cell_volume 1816.249506
_symmetry_space_group_name_H-M "A B A 2"
_symmetry_group_IT_number 41
_symmetry_cell_setting 'orthorhombic'
loop_
_space_group_symop_operation_xyz
x,y,z
-x,-y,z
1/2-x,y,1/2+z
1/2+x,-y,1/2+z
x,1/2+y,1/2+z
-x,1/2-y,1/2+z
1/2-x,1/2+y,z
1/2+x,1/2-y,z
loop_
_atom_site_type_symbol
_atom_site_label
_atom_site_fract_x
_atom_site_fract_y
_atom_site_fract_z
Si Si1 0.436303 0.858598 0.465260
Si Si2 0.895218 0.363262 0.281302
Si Si3 0.915150 0.358977 0.857608
Si Si4 0.945722 0.349651 0.139569
Si Si5 0.299002 0.253127 0.552368
O O1 0.382697 0.741052 0.417100
O O2 0.584225 0.804310 0.501692
O O3 0.299323 0.871471 0.516915
O O4 0.500000 0.000000 0.436311
O O5 0.736657 0.390158 0.317344
O O6 0.877268 0.313524 0.208059
O O7 0.000000 0.500000 0.283858
O O8 0.976136 0.237032 0.315741
O O9 0.000000 0.500000 0.875206
O O10 0.830676 0.342268 0.080901
O O11 0.000000 0.500000 0.148381
O O12 0.096771 0.276838 0.114312
#
# Coordination Sequence:
#
# PCOD9366744 Si02
#       5
#     8   8   8   8   8
#     4  11  24  42  65  94 130 170 214 264 321 384
#     4  11  24  44  68  97 132 173 219 271 328 390
#     4  12  26  43  66  96 133 177 223 272 326 385
#     4  10  21  40  65  93 127 165 209 261 320 385
#     4  10  22  39  64  96 128 165 209 262 321 384
#
# _framework density 22.023405
#
# number of rings (size 3 to 8) (size 9 to 14) (size 15 to 20)
#    0.000    1.200    0.000    5.400    0.000    9.600 
#    0.000    5.000    0.000    0.000    0.000    0.000 
#    0.000    0.000    0.000    0.000    0.000    0.000 
#
# Total GULP energy -111548.637879 kJ/mol
# GULP energy per Si atom -5577.431894 kJ/mol
# Density = 2.197328 g / cm^3
# Si number density = 22.023405 Si / 1000 Ang^3
#
#
#
# Elastic Constant Matrix: (Units=GPa)
#
#
# Indices 1 2 3 4 5 6 
#
# 1 123.1025 25.4892 37.0618 0.0000 0.0000 0.0000
# 2 25.4892 88.6923 28.5804 0.0000 0.0000 0.0000
# 3 37.0618 28.5804 113.6624 0.0000 0.0000 0.0000
# 4 0.0000 0.0000 0.0000 32.5723 0.0000 0.0000
# 5 0.0000 0.0000 0.0000 0.0000 42.4644 0.0000
# 6 0.0000 0.0000 0.0000 0.0000 0.0000 25.2681
#
#
#
# Elastic Compliance Matrix: (Units=1/GPa)
#
#
# Indices 1 2 3 4 5 6 
#
# 1 0.009276 -0.001840 -0.002562 0.000000 0.000000 0.000000
# 2 -0.001840 0.012634 -0.002577 0.000000 0.000000 0.000000
# 3 -0.002562 -0.002577 0.010281 0.000000 0.000000 0.000000
# 4 0.000000 0.000000 0.000000 0.030701 0.000000 0.000000
# 5 0.000000 0.000000 0.000000 0.000000 0.023549 0.000000
# 6 0.000000 0.000000 0.000000 0.000000 0.000000 0.039576
#
#
# Mechanical properties :
#
#
# Convention : Reuss Voigt Hill
#
# Bulk Modulus (GPa) = 54.84439 56.41334 55.62886
# Shear Modulus (GPa) = 34.23439 35.68269 34.95854
#
# Velocity S-wave (km/s) = 3.94693 4.02956 3.98846
# Velocity P-wave (km/s) = 6.76224 6.87899 6.82087
#
# Compressibility (1/GPa) = 0.01823340
#
# Stress axis : x y z
#
# Youngs Moduli (GPa) = 107.80979 79.15058 97.26450
#
# Poissons Ratio (x) = 0.14565 0.24917
# Poissons Ratio (y) = 0.19839 0.25063
# Poissons Ratio (z) = 0.27618 0.20396
#
# Static dielectric constant tensor:
#      x y z
#    x 1.790320 0.000000 0.000000 
#    y 0.000000 1.817610 0.000000 
#    z 0.000000 0.000000 1.912970 
# 
# From -- ./inp_files/11110.got.cif
#   From: 2010.05.17/outbox.cif.g08.bks.cpg/sg41_6_cif.got.tgz:11110.got - 2010.06.03 18:54:24.
