data_PCOD9366386
_publ_section_title
;
Structure prediction by ZEFSAII (Michael W. Deem and Ramdas Pophale) SiO2 
 PCOD9366386
Probable space group: A B A 2
;
_chemical_formula_sum "Si O2"
_cell_formula_units_Z 64
_cell_length_a 8.812566
_cell_length_b 22.777340
_cell_length_c 16.175271
_cell_angle_alpha 90.000000
_cell_angle_beta 90.000000
_cell_angle_gamma 90.000000
_cell_volume 3246.810582
_symmetry_space_group_name_H-M "A B A 2"
_symmetry_group_IT_number 41
_symmetry_cell_setting 'orthorhombic'
loop_
_space_group_symop_operation_xyz
x,y,z
-x,-y,z
1/2-x,y,1/2+z
1/2+x,-y,1/2+z
x,1/2+y,1/2+z
-x,1/2-y,1/2+z
1/2-x,1/2+y,z
1/2+x,1/2-y,z
loop_
_atom_site_type_symbol
_atom_site_label
_atom_site_fract_x
_atom_site_fract_y
_atom_site_fract_z
Si Si1 0.249999 0.618834 0.519670
Si Si2 0.495980 0.802952 0.450633
Si Si3 0.037822 0.837379 0.269671
Si Si4 0.249999 0.393103 0.019670
Si Si5 0.494467 0.435585 0.406126
Si Si6 0.505535 0.564415 0.133215
Si Si7 0.004018 0.302952 0.088707
Si Si8 0.633083 0.227869 0.269670
O O1 0.153102 0.662180 0.460800
O O2 0.363514 0.579962 0.464835
O O3 0.136481 0.579962 0.574504
O O4 0.346898 0.662179 0.578541
O O5 0.367654 0.849250 0.476645
O O6 0.499996 0.750001 0.519671
O O7 0.454100 0.787193 0.356037
O O8 0.028828 0.880367 0.346962
O O9 0.197203 0.800230 0.269670
O O10 0.028826 0.880368 0.192380
O O11 0.886992 0.797757 0.269670
O O12 0.343680 0.434341 0.079075
O O13 0.132346 0.349247 0.062693
O O14 0.156314 0.434342 0.960268
O O15 0.500000 0.500000 0.367055
O O16 0.500000 0.500000 0.172284
O O17 0.045899 0.287193 0.183303
#
# Coordination Sequence:
#
# PCOD9366386 Si02
#       8
#     8   8   8   8   8   8   8   8
#     4  10  24  40  66 100 126 177 227 272 346 402
#     4  11  23  39  64  95 139 175 219 277 337 414
#     4  12  27  42  67 100 130 183 220 282 341 409
#     4  10  20  40  62  94 128 169 231 266 340 400
#     4  11  23  44  67  94 133 177 231 279 333 402
#     4  11  23  44  67  94 133 177 231 279 333 402
#     4  11  23  39  64  95 139 175 219 277 337 414
#     4  12  26  42  67  98 140 176 223 281 349 399
#
# _framework density 19.711652000000001
#
# number of rings (size 3 to 8) (size 9 to 14) (size 15 to 20)
#    0.000    1.000    2.500    4.875    7.000    0.000 
#    0.000    0.000    0.000    1.500    0.000    0.000 
#    0.000    0.000    0.000    0.000    0.000    0.000 
#
# Total GULP energy -178483.799840 kJ/mol
# GULP energy per Si atom -5577.618745 kJ/mol
# Density = 1.966679 g / cm^3
# Si number density = 19.711652 Si / 1000 Ang^3
#
#
#
# Elastic Constant Matrix: (Units=GPa)
#
#
# Indices 1 2 3 4 5 6 
#
# 1 97.3828 52.3399 31.3686 0.0000 0.0000 0.0000
# 2 52.3399 132.5555 41.5508 0.0000 0.0000 0.0000
# 3 31.3686 41.5508 101.8214 0.0000 0.0000 0.0000
# 4 0.0000 0.0000 0.0000 -0.9566 0.0000 0.0000
# 5 0.0000 0.0000 0.0000 0.0000 15.0062 0.0000
# 6 0.0000 0.0000 0.0000 0.0000 0.0000 6.2205
#
#
#
# Elastic Compliance Matrix: (Units=1/GPa)
#
#
# Indices 1 2 3 4 5 6 
#
# 1 0.013478 -0.004610 -0.002271 0.000000 0.000000 0.000000
# 2 -0.004610 0.010227 -0.002753 0.000000 0.000000 0.000000
# 3 -0.002271 -0.002753 0.011644 0.000000 0.000000 0.000000
# 4 0.000000 0.000000 0.000000 -1.045337 0.000000 0.000000
# 5 0.000000 0.000000 0.000000 0.000000 0.066639 0.000000
# 6 0.000000 0.000000 0.000000 0.000000 0.000000 0.160758
#
#
# Mechanical properties :
#
#
# Convention : Reuss Voigt Hill
#
# Bulk Modulus (GPa) = 62.18496 64.69761 63.44128
# Shear Modulus (GPa) = -6.59664 17.82071 5.61204
#
# Velocity S-wave (km/s) = -1.83135 3.01004 1.68916
# Velocity P-wave (km/s) = 5.20999 6.70624 6.00490
#
# Compressibility (1/GPa) = 0.01608106
#
# Stress axis : x y z
#
# Youngs Moduli (GPa) = 74.19515 97.77741 85.87878
#
# Poissons Ratio (x) = 0.45075 0.19503
# Poissons Ratio (y) = 0.34204 0.23645
# Poissons Ratio (z) = 0.16850 0.26921
#
# Static dielectric constant tensor:
#      x y z
#    x 1.754430 0.000000 0.000000 
#    y 0.000000 1.690260 0.000000 
#    z 0.000000 0.000000 1.891820 
# 
# From -- ./inp_files/9849.got.cif
#   From: 2010.05.17/outbox.cif.g08.bks.cpg/sg41_5_cif.got.tgz:9849.got - 2010.06.03 18:54:24.
