data_PCOD9366208
_publ_section_title
;
Structure prediction by ZEFSAII (Michael W. Deem and Ramdas Pophale) SiO2 
 PCOD9366208
Probable space group: A B A 2
;
_chemical_formula_sum "Si O2"
_cell_formula_units_Z 60
_cell_length_a 12.410440
_cell_length_b 24.737838
_cell_length_c 8.748396
_cell_angle_alpha 90.000000
_cell_angle_beta 90.000000
_cell_angle_gamma 90.000000
_cell_volume 2685.822785
_symmetry_space_group_name_H-M "A B A 2"
_symmetry_group_IT_number 41
_symmetry_cell_setting 'orthorhombic'
loop_
_space_group_symop_operation_xyz
x,y,z
-x,-y,z
1/2-x,y,1/2+z
1/2+x,-y,1/2+z
x,1/2+y,1/2+z
-x,1/2-y,1/2+z
1/2-x,1/2+y,z
1/2+x,1/2-y,z
loop_
_atom_site_type_symbol
_atom_site_label
_atom_site_fract_x
_atom_site_fract_y
_atom_site_fract_z
Si Si1 0.017907 0.291677 0.510300
Si Si2 0.953315 0.183526 0.364290
Si Si3 0.855211 0.021807 0.328260
Si Si4 0.702105 0.081042 0.121671
Si Si5 0.296885 0.346485 0.887089
Si Si6 0.000000 0.500000 0.555396
Si Si7 0.879542 0.894734 0.981250
Si Si8 0.354904 0.603428 0.344448
O O1 0.024507 0.298438 0.690979
O O2 0.137234 0.294443 0.437561
O O3 0.961451 0.236274 0.468253
O O4 0.958978 0.345234 0.445209
O O5 0.830793 0.162463 0.366650
O O6 0.047540 0.140582 0.405288
O O7 0.869572 0.960149 0.375810
O O8 0.930468 0.032944 0.182041
O O9 0.742206 0.036692 0.245129
O O10 0.865270 0.054777 0.484939
O O11 0.657278 0.127758 0.231435
O O12 0.798419 0.110690 0.026851
O O13 0.067739 0.544967 0.462347
O O14 0.857236 0.891733 0.161932
O O15 0.765548 0.884974 0.900990
#
# Coordination Sequence:
#
# PCOD9366208 Si02
#       8
#     8   8   8   8   8   4   8   8
#     4  11  26  46  72  99 136 184 238 293 357 411
#     4  11  27  46  71 101 136 185 235 296 353 414
#     4  10  20  37  64 100 130 185 219 276 343 414
#     4  10  22  37  68  95 136 171 225 277 336 418
#     4  11  23  46  69 103 137 176 230 290 351 414
#     4  10  20  36  72  96 148 178 232 280 356 416
#     4  10  23  45  70 100 137 189 227 288 348 422
#     4  10  23  44  68  98 142 179 232 277 351 414
#
# _framework density 22.339523
#
# number of rings (size 3 to 8) (size 9 to 14) (size 15 to 20)
#    0.000    1.600    1.333    2.400   13.067    2.133 
#    0.000    1.333    0.000    1.600    0.000    0.000 
#    0.000    0.000    0.000    0.000    0.000    0.000 
#
# Total GULP energy -167390.031573 kJ/mol
# GULP energy per Si atom -5579.667719 kJ/mol
# Density = 2.228868 g / cm^3
# Si number density = 22.339523 Si / 1000 Ang^3
#
#
#
# Elastic Constant Matrix: (Units=GPa)
#
#
# Indices 1 2 3 4 5 6 
#
# 1 99.1144 50.3724 18.0034 0.0000 0.0000 0.0000
# 2 50.3724 105.8110 52.4304 0.0000 0.0000 0.0000
# 3 18.0034 52.4304 58.9234 0.0000 0.0000 0.0000
# 4 0.0000 0.0000 0.0000 40.0811 0.0000 0.0000
# 5 0.0000 0.0000 0.0000 0.0000 27.7432 0.0000
# 6 0.0000 0.0000 0.0000 0.0000 0.0000 30.4456
#
#
#
# Elastic Compliance Matrix: (Units=1/GPa)
#
#
# Indices 1 2 3 4 5 6 
#
# 1 0.013575 -0.007883 0.002867 0.000000 0.000000 0.000000
# 2 -0.007883 0.021481 -0.016706 0.000000 0.000000 0.000000
# 3 0.002867 -0.016706 0.030960 0.000000 0.000000 0.000000
# 4 0.000000 0.000000 0.000000 0.024949 0.000000 0.000000
# 5 0.000000 0.000000 0.000000 0.000000 0.036045 0.000000
# 6 0.000000 0.000000 0.000000 0.000000 0.000000 0.032845
#
#
# Mechanical properties :
#
#
# Convention : Reuss Voigt Hill
#
# Bulk Modulus (GPa) = 44.30184 56.16236 50.23210
# Shear Modulus (GPa) = 23.71639 29.19018 26.45328
#
# Velocity S-wave (km/s) = 3.26181 3.61870 3.44488
# Velocity P-wave (km/s) = 5.83610 6.53107 6.19334
#
# Compressibility (1/GPa) = 0.02257243
#
# Stress axis : x y z
#
# Youngs Moduli (GPa) = 73.66509 46.55180 32.29948
#
# Poissons Ratio (x) = 0.36696 -0.09259
# Poissons Ratio (y) = 0.58070 0.53959
# Poissons Ratio (z) = -0.21117 0.77768
#
# Static dielectric constant tensor:
#      x y z
#    x 1.932480 0.000000 0.000000 
#    y 0.000000 1.866200 0.000000 
#    z 0.000000 0.000000 1.808690 
# 
# From -- ./inp_files/2179.got.cif
#   From: 2010.05.17/outbox.cif.g08.bks.cpg/sg41_2_cif.got.tgz:2179.got - 2010.06.03 18:54:24.
