data_PCOD9366798
_publ_section_title
;
Structure prediction by ZEFSAII (Michael W. Deem and Ramdas Pophale) SiO2 
 PCOD9366798
Probable space group: A B A 2
;
_chemical_formula_sum "Si O2"
_cell_formula_units_Z 60
_cell_length_a 17.005293
_cell_length_b 16.165200
_cell_length_c 9.726695
_cell_angle_alpha 90.000000
_cell_angle_beta 90.000000
_cell_angle_gamma 90.000000
_cell_volume 2673.809730
_symmetry_space_group_name_H-M "A B A 2"
_symmetry_group_IT_number 41
_symmetry_cell_setting 'orthorhombic'
loop_
_space_group_symop_operation_xyz
x,y,z
-x,-y,z
1/2-x,y,1/2+z
1/2+x,-y,1/2+z
x,1/2+y,1/2+z
-x,1/2-y,1/2+z
1/2-x,1/2+y,z
1/2+x,1/2-y,z
loop_
_atom_site_type_symbol
_atom_site_label
_atom_site_fract_x
_atom_site_fract_y
_atom_site_fract_z
Si Si1 0.837399 0.821751 0.992040
Si Si2 0.500000 0.000000 0.913065
Si Si3 0.197976 0.016110 0.812871
Si Si4 0.163526 0.219785 0.512399
Si Si5 0.468281 0.627492 0.175577
Si Si6 0.836536 0.470749 0.996690
Si Si7 0.572162 0.618251 0.908780
Si Si8 0.446685 0.213474 0.272046
O O1 0.904490 0.767539 0.917274
O O2 0.819929 0.895209 0.883224
O O3 0.758035 0.772507 0.023610
O O4 0.879702 0.866312 0.119414
O O5 0.517208 0.926792 0.807678
O O6 0.578330 0.011908 0.999964
O O7 0.130587 0.952528 0.859651
O O8 0.200879 0.024021 0.648546
O O9 0.280042 0.989486 0.882734
O O10 0.153546 0.126288 0.457112
O O11 0.121815 0.296139 0.434286
O O12 0.121049 0.212553 0.659105
O O13 0.494243 0.718244 0.218833
O O14 0.526793 0.599597 0.051983
O O15 0.501178 0.634316 0.801458
#
# Coordination Sequence:
#
# PCOD9366798 Si02
#       8
#     8   4   8   8   8   8   8   8
#     4  10  22  42  73  93 137 187 226 288 345 426
#     4  12  26  40  70 100 138 184 226 296 352 412
#     4  11  25  47  68 103 138 183 234 290 348 425
#     4  10  22  43  67 100 129 182 224 281 348 411
#     4  10  23  41  67 101 139 178 236 284 351 424
#     4  11  27  44  71  99 143 178 237 285 349 425
#     4  10  23  43  70  97 139 181 227 293 347 422
#     4  10  21  41  64  97 134 173 230 277 339 418
#
# _framework density 22.439890999999999
#
# number of rings (size 3 to 8) (size 9 to 14) (size 15 to 20)
#    0.000    1.600    1.333    1.600    7.467    3.733 
#    4.800    0.000    0.000    0.000    0.000    0.000 
#    0.000    0.000    0.000    0.000    0.000    0.000 
#
# Total GULP energy -167612.050502 kJ/mol
# GULP energy per Si atom -5587.068350 kJ/mol
# Density = 2.238882 g / cm^3
# Si number density = 22.439891 Si / 1000 Ang^3
#
#
#
# Elastic Constant Matrix: (Units=GPa)
#
#
# Indices 1 2 3 4 5 6 
#
# 1 141.8490 16.7274 52.7230 0.0000 0.0000 0.0000
# 2 16.7274 33.2634 32.5808 0.0000 0.0000 0.0000
# 3 52.7230 32.5808 86.4669 0.0000 0.0000 0.0000
# 4 0.0000 0.0000 0.0000 26.4539 0.0000 0.0000
# 5 0.0000 0.0000 0.0000 0.0000 22.6142 0.0000
# 6 0.0000 0.0000 0.0000 0.0000 0.0000 26.3696
#
#
#
# Elastic Compliance Matrix: (Units=1/GPa)
#
#
# Indices 1 2 3 4 5 6 
#
# 1 0.009155 0.001369 -0.006098 0.000000 0.000000 0.000000
# 2 0.001369 0.047853 -0.018866 0.000000 0.000000 0.000000
# 3 -0.006098 -0.018866 0.022392 0.000000 0.000000 0.000000
# 4 0.000000 0.000000 0.000000 0.037802 0.000000 0.000000
# 5 0.000000 0.000000 0.000000 0.000000 0.044220 0.000000
# 6 0.000000 0.000000 0.000000 0.000000 0.000000 0.037922
#
#
# Mechanical properties :
#
#
# Convention : Reuss Voigt Hill
#
# Bulk Modulus (GPa) = 31.04576 51.73798 41.39187
# Shear Modulus (GPa) = 19.43475 25.72408 22.57942
#
# Velocity S-wave (km/s) = 2.94612 3.38946 3.17553
# Velocity P-wave (km/s) = 5.04360 6.19873 5.65076
#
# Compressibility (1/GPa) = 0.03221052
#
# Stress axis : x y z
#
# Youngs Moduli (GPa) = 109.23183 20.89714 44.65857
#
# Poissons Ratio (x) = -0.02861 0.27233
# Poissons Ratio (y) = -0.14955 0.84253
# Poissons Ratio (z) = 0.66610 0.39425
#
# Static dielectric constant tensor:
#      x y z
#    x 1.890850 0.000000 0.000000 
#    y 0.000000 1.378610 0.000000 
#    z 0.000000 0.000000 1.855500 
# 
# From -- ./inp_files/3166.got.cif
#   From: 2010.05.17/outbox.cif.g08.bks.cpg/sg41_2_cif.got.tgz:3166.got - 2010.06.03 18:54:24.
