data_PCOD9366821
_publ_section_title
;
Structure prediction by ZEFSAII (Michael W. Deem and Ramdas Pophale) SiO2 
 PCOD9366821
Probable space group: A B A 2
;
_chemical_formula_sum "Si O2"
_cell_formula_units_Z 56
_cell_length_a 13.685804
_cell_length_b 26.690339
_cell_length_c 5.516278
_cell_angle_alpha 90.000000
_cell_angle_beta 90.000000
_cell_angle_gamma 90.000000
_cell_volume 2014.979123
_symmetry_space_group_name_H-M "A B A 2"
_symmetry_group_IT_number 41
_symmetry_cell_setting 'orthorhombic'
loop_
_space_group_symop_operation_xyz
x,y,z
-x,-y,z
1/2-x,y,1/2+z
1/2+x,-y,1/2+z
x,1/2+y,1/2+z
-x,1/2-y,1/2+z
1/2-x,1/2+y,z
1/2+x,1/2-y,z
loop_
_atom_site_type_symbol
_atom_site_label
_atom_site_fract_x
_atom_site_fract_y
_atom_site_fract_z
Si Si1 0.335370 0.274620 0.530430
Si Si2 0.016865 0.377447 0.504958
Si Si3 0.856957 0.117716 0.508776
Si Si4 0.126737 0.030108 0.035264
Si Si5 0.662510 0.507680 0.536697
Si Si6 0.033685 0.210267 0.292044
Si Si7 0.212872 0.172262 0.520223
O O1 0.295148 0.330749 0.528423
O O2 0.404089 0.260282 0.755966
O O3 0.421758 0.277041 0.333826
O O4 0.263033 0.228093 0.514142
O O5 0.074862 0.380286 0.250963
O O6 0.933955 0.419652 0.513946
O O7 0.963122 0.324675 0.555760
O O8 0.083205 0.382632 0.752928
O O9 0.801720 0.065070 0.519986
O O10 0.245127 0.029648 0.041521
O O11 0.104582 0.004389 0.292940
O O12 0.107688 0.998910 0.789880
O O13 0.096696 0.178908 0.487646
O O14 0.253372 0.148398 0.271513
#
# Coordination Sequence:
#
# PCOD9366821 Si02
#       7
#     8   8   8   8   8   8   8
#     4  10  21  41  67  98 140 178 226 282 338 402
#     4  11  24  41  68 103 130 176 229 280 341 415
#     4  11  24  41  68 103 130 176 229 280 341 415
#     4  10  22  43  64  96 132 177 217 281 346 401
#     4  10  22  43  64  96 132 177 217 281 346 401
#     4  10  21  41  67  98 140 178 226 282 338 402
#     4  10  22  40  60  98 128 180 222 266 338 396
#
# _framework density 27.79185
#
# number of rings (size 3 to 8) (size 9 to 14) (size 15 to 20)
#    0.000    1.714    0.000    3.429    0.000   10.286 
#   20.571    0.000    0.000    0.000    0.000    0.000 
#    0.000    0.000    0.000    0.000    0.000    0.000 
#
# Total GULP energy -156596.383064 kJ/mol
# GULP energy per Si atom -5592.727967 kJ/mol
# Density = 2.772859 g / cm^3
# Si number density = 27.791850 Si / 1000 Ang^3
#
#
#
# Elastic Constant Matrix: (Units=GPa)
#
#
# Indices 1 2 3 4 5 6 
#
# 1 103.7011 26.0584 52.1305 0.0000 0.0000 0.0000
# 2 26.0584 92.2531 12.8641 0.0000 0.0000 0.0000
# 3 52.1305 12.8641 226.4995 0.0000 0.0000 0.0000
# 4 0.0000 0.0000 0.0000 33.2720 0.0000 0.0000
# 5 0.0000 0.0000 0.0000 0.0000 35.1714 0.0000
# 6 0.0000 0.0000 0.0000 0.0000 0.0000 41.1609
#
#
#
# Elastic Compliance Matrix: (Units=1/GPa)
#
#
# Indices 1 2 3 4 5 6 
#
# 1 0.011645 -0.002939 -0.002513 0.000000 0.000000 0.000000
# 2 -0.002939 0.011668 0.000014 0.000000 0.000000 0.000000
# 3 -0.002513 0.000014 0.004993 0.000000 0.000000 0.000000
# 4 0.000000 0.000000 0.000000 0.030055 0.000000 0.000000
# 5 0.000000 0.000000 0.000000 0.000000 0.028432 0.000000
# 6 0.000000 0.000000 0.000000 0.000000 0.000000 0.024295
#
#
# Mechanical properties :
#
#
# Convention : Reuss Voigt Hill
#
# Bulk Modulus (GPa) = 57.37621 67.17329 62.27475
# Shear Modulus (GPa) = 39.13144 44.01424 41.57284
#
# Velocity S-wave (km/s) = 3.75643 3.98390 3.87184
# Velocity P-wave (km/s) = 6.28523 6.73681 6.51493
#
# Compressibility (1/GPa) = 0.01742883
#
# Stress axis : x y z
#
# Youngs Moduli (GPa) = 85.87370 85.70482 200.29289
#
# Poissons Ratio (x) = 0.25187 0.50339
# Poissons Ratio (y) = 0.25237 -0.00275
# Poissons Ratio (z) = 0.21582 -0.00118
#
# Static dielectric constant tensor:
#      x y z
#    x 2.186830 0.000000 0.000000 
#    y 0.000000 2.140560 0.000000 
#    z 0.000000 0.000000 2.307250 
# 
# From -- ./inp_files/339.got.cif
#   From: 2010.05.17/outbox.cif.g08.bks.cpg/sg41_1_cif.got.tgz:339.got - 2010.06.03 18:54:24.
