data_PCOD9366560
_publ_section_title
;
Structure prediction by ZEFSAII (Michael W. Deem and Ramdas Pophale) SiO2 
 PCOD9366560
Probable space group: A B A 2
;
_chemical_formula_sum "Si O2"
_cell_formula_units_Z 56
_cell_length_a 5.006267
_cell_length_b 14.923869
_cell_length_c 33.486664
_cell_angle_alpha 90.000000
_cell_angle_beta 90.000000
_cell_angle_gamma 90.000000
_cell_volume 2501.884871
_symmetry_space_group_name_H-M "A B A 2"
_symmetry_group_IT_number 41
_symmetry_cell_setting 'orthorhombic'
loop_
_space_group_symop_operation_xyz
x,y,z
-x,-y,z
1/2-x,y,1/2+z
1/2+x,-y,1/2+z
x,1/2+y,1/2+z
-x,1/2-y,1/2+z
1/2-x,1/2+y,z
1/2+x,1/2-y,z
loop_
_atom_site_type_symbol
_atom_site_label
_atom_site_fract_x
_atom_site_fract_y
_atom_site_fract_z
Si Si1 0.526914 0.392861 0.394530
Si Si2 0.976200 0.608083 0.348468
Si Si3 0.526914 0.892861 0.638068
Si Si4 0.280792 0.190279 0.060658
Si Si5 0.280792 0.190279 0.471940
Si Si6 0.523800 0.108083 0.184130
Si Si7 0.708964 0.692579 0.766299
O O1 0.500000 0.500000 0.393083
O O2 0.730554 0.359153 0.360440
O O3 0.666075 0.368520 0.436142
O O4 0.232669 0.360404 0.382567
O O5 0.869467 0.639193 0.306031
O O6 0.000000 0.500000 0.348551
O O7 0.666075 0.868520 0.596456
O O8 0.232669 0.860404 0.650031
O O9 0.730554 0.859153 0.672158
O O10 0.500000 0.000000 0.639515
O O11 0.586193 0.222545 0.062920
O O12 0.250000 0.149999 0.016299
O O13 0.586193 0.222545 0.469678
O O14 0.630533 0.139193 0.226567
O O15 0.500000 0.000000 0.184047
O O16 0.017616 0.720163 0.766299
#
# Coordination Sequence:
#
# PCOD9366560 Si02
#       7
#     8   8   8   8   8   8   8
#     4  10  21  38  60  85 111 148 195 235 278 336
#     4  10  22  40  59  80 114 153 187 231 289 342
#     4  10  21  38  60  85 111 148 195 235 278 336
#     4  10  21  37  57  83 116 151 185 227 284 341
#     4  10  21  37  57  83 116 151 185 227 284 341
#     4  10  22  40  59  80 114 153 187 231 289 342
#     4  12  25  38  57  88 116 144 192 240 283 338
#
# _framework density 22.383123999999999
#
# number of rings (size 3 to 8) (size 9 to 14) (size 15 to 20)
#    0.000    1.714    0.000    3.857    0.000    6.857 
#    0.000   14.286    0.000    0.000    0.000    0.000 
#    0.000    0.000    0.000    0.000    0.000    0.000 
#
# Total GULP energy -156449.404631 kJ/mol
# GULP energy per Si atom -5587.478737 kJ/mol
# Density = 2.233218 g / cm^3
# Si number density = 22.383124 Si / 1000 Ang^3
#
#
#
# Elastic Constant Matrix: (Units=GPa)
#
#
# Indices 1 2 3 4 5 6 
#
# 1 92.0599 6.3243 25.9815 0.0000 0.0000 0.0000
# 2 6.3243 23.6090 8.7916 0.0000 0.0000 0.0000
# 3 25.9815 8.7916 148.2072 0.0000 0.0000 0.0000
# 4 0.0000 0.0000 0.0000 86.0026 0.0000 0.0000
# 5 0.0000 0.0000 0.0000 0.0000 32.4192 0.0000
# 6 0.0000 0.0000 0.0000 0.0000 0.0000 23.3170
#
#
#
# Elastic Compliance Matrix: (Units=1/GPa)
#
#
# Indices 1 2 3 4 5 6 
#
# 1 0.011559 -0.002395 -0.001884 0.000000 0.000000 0.000000
# 2 -0.002395 0.043810 -0.002179 0.000000 0.000000 0.000000
# 3 -0.001884 -0.002179 0.007207 0.000000 0.000000 0.000000
# 4 0.000000 0.000000 0.000000 0.011628 0.000000 0.000000
# 5 0.000000 0.000000 0.000000 0.000000 0.030846 0.000000
# 6 0.000000 0.000000 0.000000 0.000000 0.000000 0.042887
#
#
# Mechanical properties :
#
#
# Convention : Reuss Voigt Hill
#
# Bulk Modulus (GPa) = 20.13712 38.45232 29.29472
# Shear Modulus (GPa) = 28.18412 43.19968 35.69190
#
# Velocity S-wave (km/s) = 3.55233 4.39796 3.99756
# Velocity P-wave (km/s) = 5.08345 6.55788 5.86717
#
# Compressibility (1/GPa) = 0.04965954
#
# Stress axis : x y z
#
# Youngs Moduli (GPa) = 86.51427 22.82602 138.75619
#
# Poissons Ratio (x) = 0.05466 0.26145
# Poissons Ratio (y) = 0.20717 0.30235
# Poissons Ratio (z) = 0.16302 0.04974
#
# Static dielectric constant tensor:
#      x y z
#    x 1.800390 0.000000 0.000000 
#    y 0.000000 1.813490 0.000000 
#    z 0.000000 0.000000 1.816390 
# 
# From -- ./inp_files/12627.got.cif
#   From: 2010.05.17/outbox.cif.g08.bks.cpg/sg41_7_cif.got.tgz:12627.got - 2010.06.03 18:54:24.
