data_PCOD9366364
_publ_section_title
;
Structure prediction by ZEFSAII (Michael W. Deem and Ramdas Pophale) SiO2 
 PCOD9366364
Probable space group: A B A 2
;
_chemical_formula_sum "Si O2"
_cell_formula_units_Z 32
_cell_length_a 14.011690
_cell_length_b 11.981285
_cell_length_c 7.429600
_cell_angle_alpha 90.000000
_cell_angle_beta 90.000000
_cell_angle_gamma 90.000000
_cell_volume 1247.266769
_symmetry_space_group_name_H-M "A B A 2"
_symmetry_group_IT_number 41
_symmetry_cell_setting 'orthorhombic'
loop_
_space_group_symop_operation_xyz
x,y,z
-x,-y,z
1/2-x,y,1/2+z
1/2+x,-y,1/2+z
x,1/2+y,1/2+z
-x,1/2-y,1/2+z
1/2-x,1/2+y,z
1/2+x,1/2-y,z
loop_
_atom_site_type_symbol
_atom_site_label
_atom_site_fract_x
_atom_site_fract_y
_atom_site_fract_z
Si Si1 0.613120 0.492504 0.850730
Si Si2 0.796442 0.056988 0.465666
Si Si3 0.098584 0.747923 0.264781
Si Si4 0.931400 0.888342 0.399659
O O1 0.500000 0.500000 0.865077
O O2 0.650822 0.540030 0.657630
O O3 0.623819 0.361197 0.881365
O O4 0.682663 0.557536 0.984037
O O5 0.831229 0.161610 0.351338
O O6 0.831475 0.947011 0.354239
O O7 0.994537 0.806419 0.279692
O O8 0.094051 0.689069 0.070486
O O9 0.000000 0.000000 0.424156
#
# Coordination Sequence:
#
# PCOD9366364 Si02
#       4
#     8   8   8   8
#     4  11  25  44  65  98 136 171 225 278 324 400
#     4  10  23  42  63  95 135 173 223 276 327 398
#     4  10  20  39  67  92 136 181 215 279 337 382
#     4   9  20  41  65  99 137 173 225 277 326 400
#
# _framework density 25.656099999999999
#
# number of rings (size 3 to 8) (size 9 to 14) (size 15 to 20)
#    0.000    2.000    0.000    6.000    0.000   10.000 
#    0.000    7.500    0.000    0.000    0.000    0.000 
#    0.000    0.000    0.000    0.000    0.000    0.000 
#
# Total GULP energy -89185.980362 kJ/mol
# GULP energy per Si atom -5574.123773 kJ/mol
# Density = 2.559771 g / cm^3
# Si number density = 25.656100 Si / 1000 Ang^3
#
#
#
# Elastic Constant Matrix: (Units=GPa)
#
#
# Indices 1 2 3 4 5 6 
#
# 1 180.5751 61.6804 38.0991 0.0000 0.0000 0.0000
# 2 61.6804 201.0689 65.4705 0.0000 0.0000 0.0000
# 3 38.0991 65.4705 93.0261 0.0000 0.0000 0.0000
# 4 0.0000 0.0000 0.0000 25.4072 0.0000 0.0000
# 5 0.0000 0.0000 0.0000 0.0000 25.7631 0.0000
# 6 0.0000 0.0000 0.0000 0.0000 0.0000 27.0039
#
#
#
# Elastic Compliance Matrix: (Units=1/GPa)
#
#
# Indices 1 2 3 4 5 6 
#
# 1 0.006364 -0.001432 -0.001599 0.000000 0.000000 0.000000
# 2 -0.001432 0.006774 -0.004181 0.000000 0.000000 0.000000
# 3 -0.001599 -0.004181 0.014347 0.000000 0.000000 0.000000
# 4 0.000000 0.000000 0.000000 0.039359 0.000000 0.000000
# 5 0.000000 0.000000 0.000000 0.000000 0.038815 0.000000
# 6 0.000000 0.000000 0.000000 0.000000 0.000000 0.037032
#
#
# Mechanical properties :
#
#
# Convention : Reuss Voigt Hill
#
# Bulk Modulus (GPa) = 76.55801 89.46336 83.01068
# Shear Modulus (GPa) = 30.96576 36.26284 33.61430
#
# Velocity S-wave (km/s) = 3.47790 3.76363 3.62358
# Velocity P-wave (km/s) = 6.78473 7.33706 7.06629
#
# Compressibility (1/GPa) = 0.01306199
#
# Stress axis : x y z
#
# Youngs Moduli (GPa) = 157.12789 147.62255 69.70047
#
# Poissons Ratio (x) = 0.21135 0.11144
# Poissons Ratio (y) = 0.22496 0.29143
# Poissons Ratio (z) = 0.25123 0.61723
#
# Static dielectric constant tensor:
#      x y z
#    x 2.156950 0.000000 0.000000 
#    y 0.000000 2.164510 0.000000 
#    z 0.000000 0.000000 2.189700 
# 
# From -- ./inp_files/2331.got.cif
#   From: 2010.05.17/outbox.cif.g08.bks.cpg/sg41_2_cif.got.tgz:2331.got - 2010.06.03 18:54:24.
