data_PCOD9366065
_publ_section_title
;
Structure prediction by ZEFSAII (Michael W. Deem and Ramdas Pophale) SiO2 
 PCOD9366065
Probable space group: A B A 2
;
_chemical_formula_sum "Si O2"
_cell_formula_units_Z 52
_cell_length_a 25.869927
_cell_length_b 11.860429
_cell_length_c 7.475677
_cell_angle_alpha 90.000000
_cell_angle_beta 90.000000
_cell_angle_gamma 90.000000
_cell_volume 2293.750255
_symmetry_space_group_name_H-M "A B A 2"
_symmetry_group_IT_number 41
_symmetry_cell_setting 'orthorhombic'
loop_
_space_group_symop_operation_xyz
x,y,z
-x,-y,z
1/2-x,y,1/2+z
1/2+x,-y,1/2+z
x,1/2+y,1/2+z
-x,1/2-y,1/2+z
1/2-x,1/2+y,z
1/2+x,1/2-y,z
loop_
_atom_site_type_symbol
_atom_site_label
_atom_site_fract_x
_atom_site_fract_y
_atom_site_fract_z
Si Si1 0.272431 0.342332 0.318590
Si Si2 0.820466 0.280375 0.992217
Si Si3 0.433637 0.167508 0.034832
Si Si4 0.193000 0.971853 0.644120
Si Si5 0.541381 0.273354 0.947553
Si Si6 0.917142 0.075614 0.669923
Si Si7 0.000000 0.500000 0.451897
O O1 0.223978 0.258722 0.355001
O O2 0.309023 0.297639 0.164446
O O3 0.243634 0.457159 0.261603
O O4 0.302444 0.373327 0.496739
O O5 0.881589 0.279721 0.951079
O O6 0.809981 0.407521 0.054345
O O7 0.438090 0.203422 0.246361
O O8 0.428445 0.031780 0.039636
O O9 0.486523 0.208048 0.946395
O O10 0.139730 0.949071 0.746073
O O11 0.530795 0.396132 0.038656
O O12 0.577460 0.190855 0.061413
O O13 0.959545 0.064188 0.823647
#
# Coordination Sequence:
#
# PCOD9366065 Si02
#       7
#     8   8   8   8   8   8   4
#     4  10  21  37  59  85 114 148 188 236 283 334
#     4  10  21  38  57  87 112 146 193 233 284 339
#     4  10  22  36  62  83 116 155 189 237 286 340
#     4  10  21  36  62  82 115 152 184 235 284 337
#     4  11  19  39  57  81 119 147 192 234 279 344
#     4  10  19  39  60  82 114 156 185 230 293 334
#     4  10  22  36  56  84 114 154 188 238 288 334
#
# _framework density 22.670297000000001
#
# number of rings (size 3 to 8) (size 9 to 14) (size 15 to 20)
#    0.000    1.846    3.077    1.846    2.154    0.000 
#    2.769    0.000    3.385    0.000    0.000    0.000 
#    0.000    0.000    0.000    0.000    0.000    0.000 
#
# Total GULP energy -145205.704823 kJ/mol
# GULP energy per Si atom -5584.834801 kJ/mol
# Density = 2.261870 g / cm^3
# Si number density = 22.670297 Si / 1000 Ang^3
#
#
#
# Elastic Constant Matrix: (Units=GPa)
#
#
# Indices 1 2 3 4 5 6 
#
# 1 83.5002 -0.4195 -5.1278 0.0000 0.0000 0.0000
# 2 -0.4195 96.3921 7.0902 0.0000 0.0000 0.0000
# 3 -5.1278 7.0902 40.0803 0.0000 0.0000 0.0000
# 4 0.0000 0.0000 0.0000 6.2922 0.0000 0.0000
# 5 0.0000 0.0000 0.0000 0.0000 16.0419 0.0000
# 6 0.0000 0.0000 0.0000 0.0000 0.0000 -13.7050
#
#
#
# Elastic Compliance Matrix: (Units=1/GPa)
#
#
# Indices 1 2 3 4 5 6 
#
# 1 0.012071 -0.000062 0.001555 0.000000 0.000000 0.000000
# 2 -0.000062 0.010511 -0.001867 0.000000 0.000000 0.000000
# 3 0.001555 -0.001867 0.025479 0.000000 0.000000 0.000000
# 4 0.000000 0.000000 0.000000 0.158927 0.000000 0.000000
# 5 0.000000 0.000000 0.000000 0.000000 0.062337 0.000000
# 6 0.000000 0.000000 0.000000 0.000000 0.000000 -0.072966
#
#
# Mechanical properties :
#
#
# Convention : Reuss Voigt Hill
#
# Bulk Modulus (GPa) = 21.13541 24.78426 22.95983
# Shear Modulus (GPa) = 23.48756 16.28780 19.88768
#
# Velocity S-wave (km/s) = 3.22226 2.68333 2.96507
# Velocity P-wave (km/s) = 4.81531 4.53393 4.67674
#
# Compressibility (1/GPa) = 0.04731395
#
# Stress axis : x y z
#
# Youngs Moduli (GPa) = 82.84162 95.13494 39.24770
#
# Poissons Ratio (x) = 0.00589 -0.06104
# Poissons Ratio (y) = 0.00512 0.07329
# Poissons Ratio (z) = -0.12884 0.17765
#
# Static dielectric constant tensor:
#      x y z
#    x 1.841510 0.000000 0.000000 
#    y 0.000000 1.872800 0.000000 
#    z 0.000000 0.000000 1.854540 
# 
# From -- ./inp_files/3778.got.cif
#   From: 2010.05.17/outbox.cif.g08.bks.cpg/sg41_2_cif.got.tgz:3778.got - 2010.06.03 18:54:24.
