data_PCOD9366890
_publ_section_title
;
Structure prediction by ZEFSAII (Michael W. Deem and Ramdas Pophale) SiO2 
 PCOD9366890
Probable space group: A B A 2
;
_chemical_formula_sum "Si O2"
_cell_formula_units_Z 60
_cell_length_a 16.912693
_cell_length_b 18.355036
_cell_length_c 9.144417
_cell_angle_alpha 90.000000
_cell_angle_beta 90.000000
_cell_angle_gamma 90.000000
_cell_volume 2838.729615
_symmetry_space_group_name_H-M "A B A 2"
_symmetry_group_IT_number 41
_symmetry_cell_setting 'orthorhombic'
loop_
_space_group_symop_operation_xyz
x,y,z
-x,-y,z
1/2-x,y,1/2+z
1/2+x,-y,1/2+z
x,1/2+y,1/2+z
-x,1/2-y,1/2+z
1/2-x,1/2+y,z
1/2+x,1/2-y,z
loop_
_atom_site_type_symbol
_atom_site_label
_atom_site_fract_x
_atom_site_fract_y
_atom_site_fract_z
Si Si1 0.500000 0.500000 0.721210
Si Si2 0.182330 0.778275 0.385002
Si Si3 0.086700 0.390898 0.410781
Si Si4 0.834774 0.986295 0.548869
Si Si5 0.896165 0.239558 0.682523
Si Si6 0.249876 0.432464 0.312068
Si Si7 0.176744 0.674329 0.920895
Si Si8 0.571843 0.725372 0.131517
O O1 0.483485 0.433785 0.832319
O O2 0.578065 0.491093 0.621239
O O3 0.162200 0.786557 0.555247
O O4 0.226233 0.847140 0.311076
O O5 0.238506 0.708171 0.380278
O O6 0.101728 0.769215 0.296346
O O7 0.100590 0.322606 0.303904
O O8 0.167779 0.436020 0.404150
O O9 0.073715 0.356502 0.568649
O O10 0.818327 0.903991 0.496315
O O11 0.774919 0.023651 0.666509
O O12 0.821379 0.031799 0.401113
O O13 0.871385 0.313274 0.768860
O O14 0.983161 0.247263 0.616990
O O15 0.133151 0.726190 0.038706
#
# Coordination Sequence:
#
# PCOD9366890 Si02
#       8
#     4   8   8   8   8   8   8   8
#     4  10  22  44  72  94 142 188 226 288 360 420
#     4  12  22  40  73  93 135 179 230 287 336 418
#     4  10  21  43  66  96 133 181 226 272 346 418
#     4  11  26  43  68 101 137 180 231 288 354 418
#     4  11  23  40  66  98 133 174 230 283 352 408
#     4  11  23  42  69  95 132 182 234 279 340 428
#     4  11  25  41  65  98 139 175 226 284 355 406
#     4  11  23  40  67 101 132 174 229 285 342 412
#
# _framework density 21.136215
#
# number of rings (size 3 to 8) (size 9 to 14) (size 15 to 20)
#    0.000    1.067    2.667    5.600    3.733    1.067 
#    2.400    1.333    0.000    1.600    0.000    0.000 
#    0.000    0.000    0.000    0.000    0.000    0.000 
#
# Total GULP energy -167421.394919 kJ/mol
# GULP energy per Si atom -5580.713164 kJ/mol
# Density = 2.108811 g / cm^3
# Si number density = 21.136215 Si / 1000 Ang^3
#
#
#
# Elastic Constant Matrix: (Units=GPa)
#
#
# Indices 1 2 3 4 5 6 
#
# 1 80.7988 19.4830 32.0268 0.0000 0.0000 0.0000
# 2 19.4830 103.5567 38.1369 0.0000 0.0000 0.0000
# 3 32.0268 38.1369 103.3651 0.0000 0.0000 0.0000
# 4 0.0000 0.0000 0.0000 34.8482 0.0000 0.0000
# 5 0.0000 0.0000 0.0000 0.0000 41.6457 0.0000
# 6 0.0000 0.0000 0.0000 0.0000 0.0000 22.9055
#
#
#
# Elastic Compliance Matrix: (Units=1/GPa)
#
#
# Indices 1 2 3 4 5 6 
#
# 1 0.014241 -0.001220 -0.003962 0.000000 0.000000 0.000000
# 2 -0.001220 0.011279 -0.003784 0.000000 0.000000 0.000000
# 3 -0.003962 -0.003784 0.012298 0.000000 0.000000 0.000000
# 4 0.000000 0.000000 0.000000 0.028696 0.000000 0.000000
# 5 0.000000 0.000000 0.000000 0.000000 0.024012 0.000000
# 6 0.000000 0.000000 0.000000 0.000000 0.000000 0.043658
#
#
# Mechanical properties :
#
#
# Convention : Reuss Voigt Hill
#
# Bulk Modulus (GPa) = 50.28475 51.89045 51.08760
# Shear Modulus (GPa) = 31.49697 33.08481 32.29089
#
# Velocity S-wave (km/s) = 3.86449 3.96070 3.91289
# Velocity P-wave (km/s) = 6.61474 6.74685 6.68112
#
# Compressibility (1/GPa) = 0.01988675
#
# Stress axis : x y z
#
# Youngs Moduli (GPa) = 70.21877 88.65662 81.31331
#
# Poissons Ratio (x) = 0.10817 0.32219
# Poissons Ratio (y) = 0.08567 0.30765
# Poissons Ratio (z) = 0.27823 0.33544
#
# Static dielectric constant tensor:
#      x y z
#    x 1.744230 0.000000 0.000000 
#    y 0.000000 1.862630 0.000000 
#    z 0.000000 0.000000 1.774550 
# 
# From -- ./inp_files/3151.got.cif
#   From: 2010.05.17/outbox.cif.g08.bks.cpg/sg41_2_cif.got.tgz:3151.got - 2010.06.03 18:54:24.
