data_PCOD9366648
_publ_section_title
;
Structure prediction by ZEFSAII (Michael W. Deem and Ramdas Pophale) SiO2 
 PCOD9366648
Probable space group: A B A 2
;
_chemical_formula_sum "Si O2"
_cell_formula_units_Z 48
_cell_length_a 14.461506
_cell_length_b 17.089700
_cell_length_c 8.575983
_cell_angle_alpha 90.000000
_cell_angle_beta 90.000000
_cell_angle_gamma 90.000000
_cell_volume 2119.492444
_symmetry_space_group_name_H-M "A B A 2"
_symmetry_group_IT_number 41
_symmetry_cell_setting 'orthorhombic'
loop_
_space_group_symop_operation_xyz
x,y,z
-x,-y,z
1/2-x,y,1/2+z
1/2+x,-y,1/2+z
x,1/2+y,1/2+z
-x,1/2-y,1/2+z
1/2-x,1/2+y,z
1/2+x,1/2-y,z
loop_
_atom_site_type_symbol
_atom_site_label
_atom_site_fract_x
_atom_site_fract_y
_atom_site_fract_z
Si Si1 0.466762 0.859893 0.025410
Si Si2 0.641375 0.041275 0.671792
Si Si3 0.538180 0.883545 0.683437
Si Si4 0.151341 0.665025 0.162251
Si Si5 0.327472 0.724935 0.004234
Si Si6 0.335863 0.486223 0.542776
O O1 0.543630 0.817817 0.130106
O O2 0.422575 0.936147 0.105334
O O3 0.523571 0.882992 0.869829
O O4 0.378668 0.807231 0.978217
O O5 0.568308 0.109121 0.630553
O O6 0.739723 0.051041 0.595471
O O7 0.591256 0.960673 0.624245
O O8 0.655441 0.025988 0.856785
O O9 0.603817 0.815117 0.628472
O O10 0.170897 0.676412 0.344168
O O11 0.166023 0.575329 0.104420
O O12 0.224184 0.719831 0.071266
#
# Coordination Sequence:
#
# PCOD9366648 Si02
#       6
#     8   8   8   8   8   8
#     4  11  25  44  68  97 138 175 231 282 345 409
#     4  10  21  38  69  92 130 168 225 279 330 400
#     4  10  21  43  63  95 131 179 221 277 342 399
#     4  12  24  44  67  98 133 179 228 279 342 417
#     4  12  26  42  69  98 135 184 222 283 352 419
#     4  11  22  41  68  99 126 178 221 285 331 407
#
# _framework density 22.646930000000001
#
# number of rings (size 3 to 8) (size 9 to 14) (size 15 to 20)
#    0.000    1.000    3.333    3.500    0.000    5.333 
#    3.000    0.000    0.000    0.000    0.000    0.000 
#    0.000    0.000    0.000    0.000    0.000    0.000 
#
# Total GULP energy -134051.978530 kJ/mol
# GULP energy per Si atom -5585.499105 kJ/mol
# Density = 2.259538 g / cm^3
# Si number density = 22.646930 Si / 1000 Ang^3
#
#
#
# Elastic Constant Matrix: (Units=GPa)
#
#
# Indices 1 2 3 4 5 6 
#
# 1 162.9964 39.0720 43.3877 0.0000 0.0000 0.0000
# 2 39.0720 49.3298 -5.6372 0.0000 0.0000 0.0000
# 3 43.3877 -5.6372 40.9192 0.0000 0.0000 0.0000
# 4 0.0000 0.0000 0.0000 18.5017 0.0000 0.0000
# 5 0.0000 0.0000 0.0000 0.0000 14.1393 0.0000
# 6 0.0000 0.0000 0.0000 0.0000 0.0000 43.9534
#
#
#
# Elastic Compliance Matrix: (Units=1/GPa)
#
#
# Indices 1 2 3 4 5 6 
#
# 1 0.013299 -0.012339 -0.015801 0.000000 0.000000 0.000000
# 2 -0.012339 0.032045 0.017498 0.000000 0.000000 0.000000
# 3 -0.015801 0.017498 0.043604 0.000000 0.000000 0.000000
# 4 0.000000 0.000000 0.000000 0.054049 0.000000 0.000000
# 5 0.000000 0.000000 0.000000 0.000000 0.070725 0.000000
# 6 0.000000 0.000000 0.000000 0.000000 0.000000 0.022751
#
#
# Mechanical properties :
#
#
# Convention : Reuss Voigt Hill
#
# Bulk Modulus (GPa) = 14.77916 45.21005 29.99461
# Shear Modulus (GPa) = 17.83728 27.08039 22.45884
#
# Velocity S-wave (km/s) = 2.80951 3.46173 3.15253
# Velocity P-wave (km/s) = 4.13092 5.99871 5.15019
#
# Compressibility (1/GPa) = 0.06766283
#
# Stress axis : x y z
#
# Youngs Moduli (GPa) = 75.19314 31.20631 22.93392
#
# Poissons Ratio (x) = 0.38506 0.36239
# Poissons Ratio (y) = 0.92783 -0.40130
# Poissons Ratio (z) = 1.18815 -0.54606
#
# Static dielectric constant tensor:
#      x y z
#    x 1.869220 0.000000 0.000000 
#    y 0.000000 1.933750 0.000000 
#    z 0.000000 0.000000 1.816540 
# 
# From -- ./inp_files/2521.got.cif
#   From: 2010.05.17/outbox.cif.g08.bks.cpg/sg41_2_cif.got.tgz:2521.got - 2010.06.03 18:54:24.
