data_PCOD9366929
_publ_section_title
;
Structure prediction by ZEFSAII (Michael W. Deem and Ramdas Pophale) SiO2 
 PCOD9366929
Probable space group: A B A 2
;
_chemical_formula_sum "Si O2"
_cell_formula_units_Z 56
_cell_length_a 15.105836
_cell_length_b 18.150817
_cell_length_c 7.312207
_cell_angle_alpha 90.000000
_cell_angle_beta 90.000000
_cell_angle_gamma 90.000000
_cell_volume 2004.884789
_symmetry_space_group_name_H-M "A B A 2"
_symmetry_group_IT_number 41
_symmetry_cell_setting 'orthorhombic'
loop_
_space_group_symop_operation_xyz
x,y,z
-x,-y,z
1/2-x,y,1/2+z
1/2+x,-y,1/2+z
x,1/2+y,1/2+z
-x,1/2-y,1/2+z
1/2-x,1/2+y,z
1/2+x,1/2-y,z
loop_
_atom_site_type_symbol
_atom_site_label
_atom_site_fract_x
_atom_site_fract_y
_atom_site_fract_z
Si Si1 0.394075 0.508421 0.035500
Si Si2 0.345385 0.344957 0.987588
Si Si3 0.492210 0.748102 0.133372
Si Si4 0.146811 0.160845 0.662631
Si Si5 0.603456 0.488694 0.599963
Si Si6 0.145472 0.353825 0.054532
Si Si7 0.159461 0.144312 0.306001
O O1 0.500000 0.500000 0.058677
O O2 0.348846 0.429778 0.067604
O O3 0.357673 0.570561 0.170004
O O4 0.379255 0.525583 0.816191
O O5 0.432929 0.310042 0.077210
O O6 0.335708 0.207112 0.983233
O O7 0.241428 0.325914 0.006784
O O8 0.554686 0.810505 0.238854
O O9 0.439373 0.805265 0.995667
O O10 0.412710 0.697841 0.203600
O O11 0.132100 0.090150 0.514705
O O12 0.233486 0.150432 0.772914
O O13 0.500000 0.500000 0.581003
O O14 0.642983 0.559702 0.507380
O O15 0.135552 0.354038 0.272899
#
# Coordination Sequence:
#
# PCOD9366929 Si02
#       7
#     8   8   8   8   8   8   8
#     4  10  21  44  74 101 137 181 229 288 345 407
#     4  11  25  45  71 101 135 181 229 283 346 407
#     4  12  26  46  66  98 138 184 230 280 340 412
#     4  12  27  45  72 105 140 184 232 287 347 413
#     4  10  21  44  74 101 137 181 229 288 345 407
#     4  11  25  45  71 101 135 181 229 283 346 407
#     4  12  27  45  72 105 140 184 232 287 347 413
#
# _framework density 27.931778000000001
#
# number of rings (size 3 to 8) (size 9 to 14) (size 15 to 20)
#    0.000    0.857    2.857    3.429    0.000    9.714 
#    0.000    0.000    0.000    0.000    0.000    0.000 
#    0.000    0.000    0.000    0.000    0.000    0.000 
#
# Total GULP energy -156141.267985 kJ/mol
# GULP energy per Si atom -5576.473857 kJ/mol
# Density = 2.786820 g / cm^3
# Si number density = 27.931778 Si / 1000 Ang^3
#
#
#
# Elastic Constant Matrix: (Units=GPa)
#
#
# Indices 1 2 3 4 5 6 
#
# 1 192.6385 72.3276 7.0225 0.0000 0.0000 0.0000
# 2 72.3276 125.1780 -5.1353 0.0000 0.0000 0.0000
# 3 7.0225 -5.1353 103.8975 0.0000 0.0000 0.0000
# 4 0.0000 0.0000 0.0000 41.1996 0.0000 0.0000
# 5 0.0000 0.0000 0.0000 0.0000 25.3012 0.0000
# 6 0.0000 0.0000 0.0000 0.0000 0.0000 51.3659
#
#
#
# Elastic Compliance Matrix: (Units=1/GPa)
#
#
# Indices 1 2 3 4 5 6 
#
# 1 0.006672 -0.003881 -0.000643 0.000000 0.000000 0.000000
# 2 -0.003881 0.010263 0.000770 0.000000 0.000000 0.000000
# 3 -0.000643 0.000770 0.009706 0.000000 0.000000 0.000000
# 4 0.000000 0.000000 0.000000 0.024272 0.000000 0.000000
# 5 0.000000 0.000000 0.000000 0.000000 0.039524 0.000000
# 6 0.000000 0.000000 0.000000 0.000000 0.000000 0.019468
#
#
# Mechanical properties :
#
#
# Convention : Reuss Voigt Hill
#
# Bulk Modulus (GPa) = 52.26860 63.34928 57.80894
# Shear Modulus (GPa) = 40.39053 46.73994 43.56523
#
# Velocity S-wave (km/s) = 3.80681 4.09511 3.95359
# Velocity P-wave (km/s) = 6.17058 6.71485 6.44846
#
# Compressibility (1/GPa) = 0.01913194
#
# Stress axis : x y z
#
# Youngs Moduli (GPa) = 149.88535 97.43924 103.02523
#
# Poissons Ratio (x) = 0.37819 0.06622
# Poissons Ratio (y) = 0.58175 -0.07929
# Poissons Ratio (z) = 0.09634 -0.07499
#
# Static dielectric constant tensor:
#      x y z
#    x 2.165110 0.000000 0.000000 
#    y 0.000000 2.718810 0.000000 
#    z 0.000000 0.000000 2.374340 
# 
# From -- ./inp_files/10437.got.cif
#   From: 2010.05.17/outbox.cif.g08.bks.cpg/sg41_6_cif.got.tgz:10437.got - 2010.06.03 18:54:24.
