data_PCOD9366484
_publ_section_title
;
Structure prediction by ZEFSAII (Michael W. Deem and Ramdas Pophale) SiO2 
 PCOD9366484
Probable space group: A B A 2
;
_chemical_formula_sum "Si O2"
_cell_formula_units_Z 60
_cell_length_a 27.635494
_cell_length_b 17.165552
_cell_length_c 5.389563
_cell_angle_alpha 90.000000
_cell_angle_beta 90.000000
_cell_angle_gamma 90.000000
_cell_volume 2556.692862
_symmetry_space_group_name_H-M "A B A 2"
_symmetry_group_IT_number 41
_symmetry_cell_setting 'orthorhombic'
loop_
_space_group_symop_operation_xyz
x,y,z
-x,-y,z
1/2-x,y,1/2+z
1/2+x,-y,1/2+z
x,1/2+y,1/2+z
-x,1/2-y,1/2+z
1/2-x,1/2+y,z
1/2+x,1/2-y,z
loop_
_atom_site_type_symbol
_atom_site_label
_atom_site_fract_x
_atom_site_fract_y
_atom_site_fract_z
Si Si1 0.226872 0.119879 0.923060
Si Si2 0.236575 0.939344 0.353447
Si Si3 0.898896 0.499455 0.105425
Si Si4 0.070548 0.781936 0.066439
Si Si5 0.032184 0.145670 0.223799
Si Si6 0.132811 0.930174 0.094445
Si Si7 0.000000 0.000000 0.555854
Si Si8 0.115103 0.146522 0.851470
O O1 0.244978 0.153017 0.660516
O O2 0.169518 0.136214 0.952013
O O3 0.244282 0.028302 0.903120
O O4 0.231997 0.903635 0.628550
O O5 0.185041 0.933032 0.220406
O O6 0.865156 0.525774 0.332106
O O7 0.952287 0.521419 0.204582
O O8 0.887266 0.407640 0.105110
O O9 0.896531 0.534929 0.830989
O O10 0.109295 0.848706 0.017537
O O11 0.096148 0.732129 0.284708
O O12 0.018778 0.821100 0.123855
O O13 0.057721 0.718638 0.858483
O O14 0.071652 0.116329 0.025979
O O15 0.016812 0.074308 0.398738
#
# Coordination Sequence:
#
# PCOD9366484 Si02
#       8
#     8   8   8   8   8   8   4   8
#     4  10  22  42  73 105 141 185 252 326 379 442
#     4  10  20  42  71 103 138 181 244 314 377 438
#     4  12  26  43  71 108 147 190 257 310 364 446
#     4  12  28  46  72 107 162 206 246 311 392 478
#     4  12  27  51  70 112 155 212 257 320 388 468
#     4  12  27  46  76 109 147 199 249 311 389 464
#     4  12  26  44  72 108 146 192 266 310 362 450
#     4  12  27  45  77 108 151 207 262 317 393 462
#
# _framework density 23.467815999999999
#
# number of rings (size 3 to 8) (size 9 to 14) (size 15 to 20)
#    0.000    0.533    4.000    4.800    7.467    0.533 
#    0.000    1.333    0.000    0.000    0.000    0.000 
#    0.000    0.000    0.000    0.000    0.000    0.000 
#
# Total GULP energy -167353.630107 kJ/mol
# GULP energy per Si atom -5578.454337 kJ/mol
# Density = 2.341440 g / cm^3
# Si number density = 23.467816 Si / 1000 Ang^3
#
#
#
# Elastic Constant Matrix: (Units=GPa)
#
#
# Indices 1 2 3 4 5 6 
#
# 1 149.0231 30.8472 6.7583 0.0000 0.0000 0.0000
# 2 30.8472 66.8644 29.4290 0.0000 0.0000 0.0000
# 3 6.7583 29.4290 99.4840 0.0000 0.0000 0.0000
# 4 0.0000 0.0000 0.0000 27.9261 0.0000 0.0000
# 5 0.0000 0.0000 0.0000 0.0000 36.7949 0.0000
# 6 0.0000 0.0000 0.0000 0.0000 0.0000 28.0408
#
#
#
# Elastic Compliance Matrix: (Units=1/GPa)
#
#
# Indices 1 2 3 4 5 6 
#
# 1 0.007449 -0.003695 0.000587 0.000000 0.000000 0.000000
# 2 -0.003695 0.019027 -0.005377 0.000000 0.000000 0.000000
# 3 0.000587 -0.005377 0.011603 0.000000 0.000000 0.000000
# 4 0.000000 0.000000 0.000000 0.035809 0.000000 0.000000
# 5 0.000000 0.000000 0.000000 0.000000 0.027178 0.000000
# 6 0.000000 0.000000 0.000000 0.000000 0.000000 0.035662
#
#
# Mechanical properties :
#
#
# Convention : Reuss Voigt Hill
#
# Bulk Modulus (GPa) = 47.37584 49.93785 48.65684
# Shear Modulus (GPa) = 31.10742 35.10816 33.10779
#
# Velocity S-wave (km/s) = 3.64474 3.87203 3.76010
# Velocity P-wave (km/s) = 6.15984 6.42772 6.29520
#
# Compressibility (1/GPa) = 0.02110781
#
# Stress axis : x y z
#
# Youngs Moduli (GPa) = 134.25480 52.55715 86.18650
#
# Poissons Ratio (x) = 0.19418 -0.05059
# Poissons Ratio (y) = 0.49602 0.46347
# Poissons Ratio (z) = -0.07880 0.28263
#
# Static dielectric constant tensor:
#      x y z
#    x 2.091710 0.000000 0.000000 
#    y 0.000000 1.950600 0.000000 
#    z 0.000000 0.000000 2.060290 
# 
# From -- ./inp_files/1180.got.cif
#   From: 2010.05.17/outbox.cif.g08.bks.cpg/sg41_1_cif.got.tgz:1180.got - 2010.06.03 18:54:24.
