data_PCOD9366379
_publ_section_title
;
Structure prediction by ZEFSAII (Michael W. Deem and Ramdas Pophale) SiO2 
 PCOD9366379
Probable space group: A B A 2
;
_chemical_formula_sum "Si O2"
_cell_formula_units_Z 44
_cell_length_a 5.260148
_cell_length_b 24.711365
_cell_length_c 14.390560
_cell_angle_alpha 90.000000
_cell_angle_beta 90.000000
_cell_angle_gamma 90.000000
_cell_volume 1870.563233
_symmetry_space_group_name_H-M "A B A 2"
_symmetry_group_IT_number 41
_symmetry_cell_setting 'orthorhombic'
loop_
_space_group_symop_operation_xyz
x,y,z
-x,-y,z
1/2-x,y,1/2+z
1/2+x,-y,1/2+z
x,1/2+y,1/2+z
-x,1/2-y,1/2+z
1/2-x,1/2+y,z
1/2+x,1/2-y,z
loop_
_atom_site_type_symbol
_atom_site_label
_atom_site_fract_x
_atom_site_fract_y
_atom_site_fract_z
Si Si1 0.999160 0.666282 0.258830
Si Si2 0.267771 0.108703 0.103083
Si Si3 0.757991 0.219408 0.412017
Si Si4 0.883799 0.873041 0.406211
Si Si5 0.121509 0.932789 0.255650
Si Si6 0.000000 0.500000 0.161072
O O1 0.807743 0.711022 0.300427
O O2 0.854195 0.609173 0.271548
O O3 0.100002 0.660134 0.154172
O O4 0.238348 0.662990 0.329020
O O5 0.034648 0.092344 0.169231
O O6 0.445488 0.054700 0.104966
O O7 0.213879 0.118773 0.996144
O O8 0.488639 0.242322 0.444607
O O9 0.867004 0.160442 0.437952
O O10 0.962936 0.926464 0.350111
O O11 0.257481 0.987707 0.225542
#
# Coordination Sequence:
#
# PCOD9366379 Si02
#       6
#     8   8   8   8   8   4
#     4   9  20  39  63  92 128 179 212 273 339 400
#     4  10  21  40  64  93 133 174 228 280 341 405
#     4  11  21  40  69  96 132 171 222 274 334 404
#     4  10  21  40  67  98 130 179 223 282 346 401
#     4   9  20  38  64  88 127 171 220 280 341 404
#     4  10  20  40  60  90 130 172 222 282 328 416
#
# _framework density 23.522328000000002
#
# number of rings (size 3 to 8) (size 9 to 14) (size 15 to 20)
#    0.000    2.182    1.818    0.545    0.000    5.818 
#    9.818    1.818    0.000    0.000    0.000    0.000 
#    0.000    0.000    0.000    0.000    0.000    0.000 
#
# Total GULP energy -122531.422495 kJ/mol
# GULP energy per Si atom -5569.610113 kJ/mol
# Density = 2.346879 g / cm^3
# Si number density = 23.522328 Si / 1000 Ang^3
#
#
#
# Elastic Constant Matrix: (Units=GPa)
#
#
# Indices 1 2 3 4 5 6 
#
# 1 113.0864 12.7948 26.3328 0.0000 0.0000 0.0000
# 2 12.7948 56.6303 13.3526 0.0000 0.0000 0.0000
# 3 26.3328 13.3526 123.9128 0.0000 0.0000 0.0000
# 4 0.0000 0.0000 0.0000 15.2281 0.0000 0.0000
# 5 0.0000 0.0000 0.0000 0.0000 16.0445 0.0000
# 6 0.0000 0.0000 0.0000 0.0000 0.0000 38.3312
#
#
#
# Elastic Compliance Matrix: (Units=1/GPa)
#
#
# Indices 1 2 3 4 5 6 
#
# 1 0.009461 -0.001707 -0.001827 0.000000 0.000000 0.000000
# 2 -0.001707 0.018427 -0.001623 0.000000 0.000000 0.000000
# 3 -0.001827 -0.001623 0.008633 0.000000 0.000000 0.000000
# 4 0.000000 0.000000 0.000000 0.065668 0.000000 0.000000
# 5 0.000000 0.000000 0.000000 0.000000 0.062327 0.000000
# 6 0.000000 0.000000 0.000000 0.000000 0.000000 0.026088
#
#
# Mechanical properties :
#
#
# Convention : Reuss Voigt Hill
#
# Bulk Modulus (GPa) = 38.15596 44.28777 41.22187
# Shear Modulus (GPa) = 23.84891 29.99738 26.92315
#
# Velocity S-wave (km/s) = 3.18761 3.57497 3.38683
# Velocity P-wave (km/s) = 5.45932 5.99244 5.73208
#
# Compressibility (1/GPa) = 0.02620822
#
# Stress axis : x y z
#
# Youngs Moduli (GPa) = 105.69397 54.26908 115.83102
#
# Poissons Ratio (x) = 0.09263 0.21159
# Poissons Ratio (y) = 0.18041 0.18798
# Poissons Ratio (z) = 0.19307 0.08807
#
# Static dielectric constant tensor:
#      x y z
#    x 1.997820 0.000000 0.000000 
#    y 0.000000 2.034980 0.000000 
#    z 0.000000 0.000000 1.887850 
# 
# From -- ./inp_files/6926.got.cif
#   From: 2010.05.17/outbox.cif.g08.bks.cpg/sg41_4_cif.got.tgz:6926.got - 2010.06.03 18:54:24.
