data_PCOD9366315
_publ_section_title
;
Structure prediction by ZEFSAII (Michael W. Deem and Ramdas Pophale) SiO2 
 PCOD9366315
Probable space group: A B A 2
;
_chemical_formula_sum "Si O2"
_cell_formula_units_Z 60
_cell_length_a 24.469826
_cell_length_b 12.376466
_cell_length_c 8.344156
_cell_angle_alpha 90.000000
_cell_angle_beta 90.000000
_cell_angle_gamma 90.000000
_cell_volume 2527.027390
_symmetry_space_group_name_H-M "A B A 2"
_symmetry_group_IT_number 41
_symmetry_cell_setting 'orthorhombic'
loop_
_space_group_symop_operation_xyz
x,y,z
-x,-y,z
1/2-x,y,1/2+z
1/2+x,-y,1/2+z
x,1/2+y,1/2+z
-x,1/2-y,1/2+z
1/2-x,1/2+y,z
1/2+x,1/2-y,z
loop_
_atom_site_type_symbol
_atom_site_label
_atom_site_fract_x
_atom_site_fract_y
_atom_site_fract_z
Si Si1 0.675411 0.329177 0.656710
Si Si2 0.740074 0.891290 0.881637
Si Si3 0.166937 0.034200 0.126988
Si Si4 0.493401 0.740462 0.914161
Si Si5 0.500000 0.000000 0.272068
Si Si6 0.386090 0.953292 0.114345
Si Si7 0.600891 0.640327 0.262585
Si Si8 0.910991 0.767451 0.216853
O O1 0.695790 0.320472 0.476251
O O2 0.730128 0.314891 0.756928
O O3 0.655032 0.452587 0.660479
O O4 0.632044 0.251666 0.734010
O O5 0.707217 0.979416 0.779520
O O6 0.789261 0.941193 0.987711
O O7 0.127819 0.136470 0.161415
O O8 0.123621 0.936348 0.121474
O O9 0.494992 0.612579 0.870227
O O10 0.460525 0.819173 0.790802
O O11 0.556089 0.779224 0.884784
O O12 0.458017 0.749909 0.077393
O O13 0.553662 0.006748 0.163116
O O14 0.377476 0.843355 0.212079
O O15 0.385158 0.921781 0.927588
#
# Coordination Sequence:
#
# PCOD9366315 Si02
#       8
#     8   8   8   8   4   8   8   8
#     4  11  22  46  67  97 131 174 229 283 347 414
#     4  10  24  45  67  94 132 177 232 288 356 409
#     4  11  24  45  65 102 134 175 236 294 348 427
#     4  10  22  41  66 103 137 189 222 277 350 424
#     4  10  20  38  70  98 144 180 226 272 346 420
#     4  10  21  42  68  96 135 182 217 282 336 418
#     4  11  23  40  70  98 136 178 226 283 348 421
#     4  10  24  43  66 101 142 179 232 276 348 424
#
# _framework density 23.743312
#
# number of rings (size 3 to 8) (size 9 to 14) (size 15 to 20)
#    0.000    1.600    2.667    1.600    0.000    6.933 
#   14.400    0.000    0.000    0.000    0.000    0.000 
#    0.000    0.000    0.000    0.000    0.000    0.000 
#
# Total GULP energy -167422.730232 kJ/mol
# GULP energy per Si atom -5580.757674 kJ/mol
# Density = 2.368927 g / cm^3
# Si number density = 23.743312 Si / 1000 Ang^3
#
#
#
# Elastic Constant Matrix: (Units=GPa)
#
#
# Indices 1 2 3 4 5 6 
#
# 1 73.6802 18.3340 10.3748 0.0000 0.0000 0.0000
# 2 18.3340 93.7458 -1.4142 0.0000 0.0000 0.0000
# 3 10.3748 -1.4142 58.2595 0.0000 0.0000 0.0000
# 4 0.0000 0.0000 0.0000 19.7292 0.0000 0.0000
# 5 0.0000 0.0000 0.0000 0.0000 54.0256 0.0000
# 6 0.0000 0.0000 0.0000 0.0000 0.0000 12.0546
#
#
#
# Elastic Compliance Matrix: (Units=1/GPa)
#
#
# Indices 1 2 3 4 5 6 
#
# 1 0.014674 -0.002910 -0.002684 0.000000 0.000000 0.000000
# 2 -0.002910 0.011248 0.000791 0.000000 0.000000 0.000000
# 3 -0.002684 0.000791 0.017662 0.000000 0.000000 0.000000
# 4 0.000000 0.000000 0.000000 0.050686 0.000000 0.000000
# 5 0.000000 0.000000 0.000000 0.000000 0.018510 0.000000
# 6 0.000000 0.000000 0.000000 0.000000 0.000000 0.082956
#
#
# Mechanical properties :
#
#
# Convention : Reuss Voigt Hill
#
# Bulk Modulus (GPa) = 29.43035 31.14163 30.28599
# Shear Modulus (GPa) = 23.07676 30.38793 26.73234
#
# Velocity S-wave (km/s) = 3.12096 3.58138 3.35907
# Velocity P-wave (km/s) = 5.04076 5.49965 5.27520
#
# Compressibility (1/GPa) = 0.03397853
#
# Stress axis : x y z
#
# Youngs Moduli (GPa) = 68.14650 88.90266 56.61960
#
# Poissons Ratio (x) = 0.25874 0.15196
# Poissons Ratio (y) = 0.19833 -0.04480
# Poissons Ratio (z) = 0.18289 -0.07035
#
# Static dielectric constant tensor:
#      x y z
#    x 1.879280 0.000000 0.000000 
#    y 0.000000 1.884590 0.000000 
#    z 0.000000 0.000000 2.010440 
# 
# From -- ./inp_files/3830.got.cif
#   From: 2010.05.17/outbox.cif.g08.bks.cpg/sg41_2_cif.got.tgz:3830.got - 2010.06.03 18:54:24.
