data_PCOD9366026
_publ_section_title
;
Structure prediction by ZEFSAII (Michael W. Deem and Ramdas Pophale) SiO2 
 PCOD9366026
Probable space group: A B A 2
;
_chemical_formula_sum "Si O2"
_cell_formula_units_Z 64
_cell_length_a 17.470361
_cell_length_b 11.839152
_cell_length_c 15.088446
_cell_angle_alpha 90.000000
_cell_angle_beta 90.000000
_cell_angle_gamma 90.000000
_cell_volume 3120.807554
_symmetry_space_group_name_H-M "A B A 2"
_symmetry_group_IT_number 41
_symmetry_cell_setting 'orthorhombic'
loop_
_space_group_symop_operation_xyz
x,y,z
-x,-y,z
1/2-x,y,1/2+z
1/2+x,-y,1/2+z
x,1/2+y,1/2+z
-x,1/2-y,1/2+z
1/2-x,1/2+y,z
1/2+x,1/2-y,z
loop_
_atom_site_type_symbol
_atom_site_label
_atom_site_fract_x
_atom_site_fract_y
_atom_site_fract_z
Si Si1 0.860996 0.649012 0.089360
Si Si2 0.360996 0.149012 0.133349
Si Si3 0.916497 0.536044 0.256818
Si Si4 0.685700 0.620226 0.092456
Si Si5 0.290474 0.376706 0.883153
Si Si6 0.583503 0.463956 0.465892
Si Si7 0.185699 0.620224 0.630250
Si Si8 0.790475 0.376711 0.839553
O O1 0.918187 0.608285 0.165764
O O2 0.774490 0.623642 0.125026
O O3 0.860350 0.782181 0.081801
O O4 0.874625 0.578338 0.000742
O O5 0.360350 0.282181 0.140908
O O6 0.274490 0.123643 0.097683
O O7 0.374625 0.078337 0.221968
O O8 0.418187 0.108286 0.056946
O O9 0.867809 0.606819 0.326336
O O10 0.000000 0.500000 0.287493
O O11 0.651336 0.500000 0.111350
O O12 0.691997 0.632674 0.987192
O O13 0.249999 0.499997 0.861353
O O14 0.256527 0.249998 0.861352
O O15 0.500000 0.500000 0.435216
O O16 0.632191 0.393182 0.396373
O O17 0.191994 0.632667 0.735515
#
# Coordination Sequence:
#
# PCOD9366026 Si02
#       8
#     8   8   8   8   8   8   8   8
#     4  10  19  37  62  97 122 163 215 264 316 386
#     4  10  19  37  62  97 122 163 215 264 316 386
#     4  11  22  41  67  90 125 177 220 261 325 407
#     4  11  21  36  66  96 129 156 216 277 323 371
#     4  12  24  42  66  99 135 170 220 284 332 389
#     4  11  22  41  67  90 125 177 220 261 325 407
#     4  11  21  36  66  96 129 156 216 277 323 371
#     4  12  24  42  66  99 135 170 220 284 332 389
#
# _framework density 20.507511999999998
#
# number of rings (size 3 to 8) (size 9 to 14) (size 15 to 20)
#    0.000    1.000    7.500    1.500    3.500    0.000 
#    0.000    3.750    0.000    0.000    0.000    0.000 
#    0.000    0.000    0.000    0.000    0.000    0.000 
#
# Total GULP energy -178333.097634 kJ/mol
# GULP energy per Si atom -5572.909301 kJ/mol
# Density = 2.046084 g / cm^3
# Si number density = 20.507512 Si / 1000 Ang^3
#
#
#
# Elastic Constant Matrix: (Units=GPa)
#
#
# Indices 1 2 3 4 5 6 
#
# 1 51.1066 12.9857 1.4057 0.0000 0.0000 0.0000
# 2 12.9857 193.0303 7.4351 0.0000 0.0000 0.0000
# 3 1.4057 7.4351 61.8363 0.0000 0.0000 0.0000
# 4 0.0000 0.0000 0.0000 25.9929 0.0000 0.0000
# 5 0.0000 0.0000 0.0000 0.0000 21.8880 0.0000
# 6 0.0000 0.0000 0.0000 0.0000 0.0000 21.1589
#
#
#
# Elastic Compliance Matrix: (Units=1/GPa)
#
#
# Indices 1 2 3 4 5 6 
#
# 1 0.019913 -0.001328 -0.000293 0.000000 0.000000 0.000000
# 2 -0.001328 0.005293 -0.000606 0.000000 0.000000 0.000000
# 3 -0.000293 -0.000606 0.016251 0.000000 0.000000 0.000000
# 4 0.000000 0.000000 0.000000 0.038472 0.000000 0.000000
# 5 0.000000 0.000000 0.000000 0.000000 0.045687 0.000000
# 6 0.000000 0.000000 0.000000 0.000000 0.000000 0.047261
#
#
# Mechanical properties :
#
#
# Convention : Reuss Voigt Hill
#
# Bulk Modulus (GPa) = 27.02553 38.84735 32.93644
# Shear Modulus (GPa) = 26.36205 32.75108 29.55656
#
# Velocity S-wave (km/s) = 3.58925 4.00062 3.80051
# Velocity P-wave (km/s) = 5.51216 6.35012 5.94592
#
# Compressibility (1/GPa) = 0.03700205
#
# Stress axis : x y z
#
# Youngs Moduli (GPa) = 50.21970 188.92014 61.53355
#
# Poissons Ratio (x) = 0.25094 0.01803
# Poissons Ratio (y) = 0.06671 0.03731
# Poissons Ratio (z) = 0.01471 0.11453
#
# Static dielectric constant tensor:
#      x y z
#    x 1.764600 0.000000 0.000000 
#    y 0.000000 1.749260 0.000000 
#    z 0.000000 0.000000 1.784810 
# 
# From -- ./inp_files/6038.got.cif
#   From: 2010.05.17/outbox.cif.g08.bks.cpg/sg41_4_cif.got.tgz:6038.got - 2010.06.03 18:54:24.
