data_PCOD9366180
_publ_section_title
;
Structure prediction by ZEFSAII (Michael W. Deem and Ramdas Pophale) SiO2 
 PCOD9366180
Probable space group: A B A 2
;
_chemical_formula_sum "Si O2"
_cell_formula_units_Z 60
_cell_length_a 10.875805
_cell_length_b 8.146957
_cell_length_c 25.136680
_cell_angle_alpha 90.000000
_cell_angle_beta 90.000000
_cell_angle_gamma 90.000000
_cell_volume 2227.228384
_symmetry_space_group_name_H-M "A B A 2"
_symmetry_group_IT_number 41
_symmetry_cell_setting 'orthorhombic'
loop_
_space_group_symop_operation_xyz
x,y,z
-x,-y,z
1/2-x,y,1/2+z
1/2+x,-y,1/2+z
x,1/2+y,1/2+z
-x,1/2-y,1/2+z
1/2-x,1/2+y,z
1/2+x,1/2-y,z
loop_
_atom_site_type_symbol
_atom_site_label
_atom_site_fract_x
_atom_site_fract_y
_atom_site_fract_z
Si Si1 0.833630 0.466831 0.669520
Si Si2 0.869672 0.062551 0.990913
Si Si3 0.171586 0.796385 0.744658
Si Si4 0.158306 0.069577 0.818026
Si Si5 0.110568 0.392962 0.872396
Si Si6 0.644411 0.391608 0.469121
Si Si7 0.753716 0.174513 0.597293
Si Si8 0.000000 0.500000 0.068993
O O1 0.738591 0.576280 0.704661
O O2 0.870156 0.609365 0.629043
O O3 0.899048 0.342451 0.710007
O O4 0.771138 0.350262 0.624767
O O5 0.782019 0.135429 0.037063
O O6 0.884272 0.209401 0.948097
O O7 0.000000 0.000000 0.009677
O O8 0.790824 0.909916 0.971573
O O9 0.102054 0.912669 0.786050
O O10 0.276312 0.692259 0.775232
O O11 0.099032 0.202455 0.857734
O O12 0.266808 0.975549 0.849221
O O13 0.111593 0.449590 0.933834
O O14 0.000000 0.500000 0.847308
O O15 0.576700 0.393634 0.526006
O O16 0.894758 0.099858 0.600410
#
# Coordination Sequence:
#
# PCOD9366180 Si02
#       8
#     8   8   8   8   8   8   8   4
#     4   9  17  33  63  83 125 168 212 266 327 386
#     4  11  26  41  65  91 131 176 232 279 337 399
#     4   8  16  35  64  88 123 170 196 272 331 385
#     4   9  19  37  66  91 126 169 206 261 340 389
#     4  11  22  40  66  96 128 167 218 272 324 405
#     4  11  24  42  62  93 131 179 223 284 340 389
#     4  10  20  36  58  90 122 178 223 269 330 394
#     4  10  22  36  62  82 136 174 220 280 334 386
#
# _framework density 26.939314
#
# number of rings (size 3 to 8) (size 9 to 14) (size 15 to 20)
#    0.000    2.133    0.667    2.400    5.600    1.067 
#    0.000    2.667   46.933    1.600    0.000    0.000 
#    0.000    0.000    0.000    0.000    0.000    0.000 
#
# Total GULP energy -167004.980580 kJ/mol
# GULP energy per Si atom -5566.832686 kJ/mol
# Density = 2.687800 g / cm^3
# Si number density = 26.939314 Si / 1000 Ang^3
#
#
#
# Elastic Constant Matrix: (Units=GPa)
#
#
# Indices 1 2 3 4 5 6 
#
# 1 80.3142 23.5418 10.6962 0.0000 0.0000 0.0000
# 2 23.5418 121.4078 29.0996 0.0000 0.0000 0.0000
# 3 10.6962 29.0996 101.1461 0.0000 0.0000 0.0000
# 4 0.0000 0.0000 0.0000 52.8934 0.0000 0.0000
# 5 0.0000 0.0000 0.0000 0.0000 17.0783 0.0000
# 6 0.0000 0.0000 0.0000 0.0000 0.0000 25.9187
#
#
#
# Elastic Compliance Matrix: (Units=1/GPa)
#
#
# Indices 1 2 3 4 5 6 
#
# 1 0.013249 -0.002399 -0.000711 0.000000 0.000000 0.000000
# 2 -0.002399 0.009281 -0.002416 0.000000 0.000000 0.000000
# 3 -0.000711 -0.002416 0.010657 0.000000 0.000000 0.000000
# 4 0.000000 0.000000 0.000000 0.018906 0.000000 0.000000
# 5 0.000000 0.000000 0.000000 0.000000 0.058554 0.000000
# 6 0.000000 0.000000 0.000000 0.000000 0.000000 0.038582
#
#
# Mechanical properties :
#
#
# Convention : Reuss Voigt Hill
#
# Bulk Modulus (GPa) = 45.17778 47.72705 46.45242
# Shear Modulus (GPa) = 29.82236 35.14677 32.48456
#
# Velocity S-wave (km/s) = 3.33080 3.61593 3.47629
# Velocity P-wave (km/s) = 5.62129 5.93197 5.77872
#
# Compressibility (1/GPa) = 0.02213477
#
# Stress axis : x y z
#
# Youngs Moduli (GPa) = 75.47806 107.74688 93.83426
#
# Poissons Ratio (x) = 0.25845 0.06671
# Poissons Ratio (y) = 0.18104 0.22675
# Poissons Ratio (z) = 0.05366 0.26037
#
# Static dielectric constant tensor:
#      x y z
#    x 2.215100 0.000000 0.000000 
#    y 0.000000 2.245930 0.000000 
#    z 0.000000 0.000000 2.213490 
# 
# From -- ./inp_files/12708.got.cif
#   From: 2010.05.17/outbox.cif.g08.bks.cpg/sg41_7_cif.got.tgz:12708.got - 2010.06.03 18:54:24.
