data_PCOD9366498
_publ_section_title
;
Structure prediction by ZEFSAII (Michael W. Deem and Ramdas Pophale) SiO2 
 PCOD9366498
Probable space group: A B A 2
;
_chemical_formula_sum "Si O2"
_cell_formula_units_Z 60
_cell_length_a 9.481329
_cell_length_b 20.099245
_cell_length_c 13.200921
_cell_angle_alpha 90.000000
_cell_angle_beta 90.000000
_cell_angle_gamma 90.000000
_cell_volume 2515.667232
_symmetry_space_group_name_H-M "A B A 2"
_symmetry_group_IT_number 41
_symmetry_cell_setting 'orthorhombic'
loop_
_space_group_symop_operation_xyz
x,y,z
-x,-y,z
1/2-x,y,1/2+z
1/2+x,-y,1/2+z
x,1/2+y,1/2+z
-x,1/2-y,1/2+z
1/2-x,1/2+y,z
1/2+x,1/2-y,z
loop_
_atom_site_type_symbol
_atom_site_label
_atom_site_fract_x
_atom_site_fract_y
_atom_site_fract_z
Si Si1 0.279997 0.462588 0.719750
Si Si2 0.182583 0.730329 0.376204
Si Si3 0.432244 0.237864 0.017691
Si Si4 0.304089 0.378051 0.895237
Si Si5 0.192858 0.615567 0.752272
Si Si6 0.500117 0.611169 0.443371
Si Si7 0.500000 0.500000 0.560056
Si Si8 0.553301 0.131103 0.611879
O O1 0.362057 0.421431 0.805348
O O2 0.244684 0.538872 0.751971
O O3 0.387281 0.464623 0.628311
O O4 0.145924 0.418460 0.681548
O O5 0.025385 0.733111 0.422298
O O6 0.281461 0.715270 0.474250
O O7 0.243750 0.805418 0.357291
O O8 0.201661 0.675187 0.288214
O O9 0.513102 0.168780 0.027671
O O10 0.420453 0.288561 0.109962
O O11 0.156075 0.413336 0.921250
O O12 0.398854 0.381311 0.995618
O O13 0.072600 0.627768 0.838013
O O14 0.108369 0.623884 0.646811
O O15 0.415867 0.552177 0.492848
#
# Coordination Sequence:
#
# PCOD9366498 Si02
#       8
#     8   8   8   8   8   8   4   8
#     4  12  26  43  64 103 136 187 241 286 375 437
#     4   9  21  43  69  99 134 180 233 291 359 405
#     4   9  21  41  69 101 134 182 236 292 357 415
#     4  10  21  45  71  95 141 185 234 301 357 429
#     4  11  24  42  67 102 136 179 231 287 360 436
#     4  10  20  43  71  95 137 182 236 296 357 432
#     4  12  26  42  64 102 136 186 236 300 366 442
#     4  11  23  43  70 102 139 185 237 292 367 441
#
# _framework density 23.850532000000001
#
# number of rings (size 3 to 8) (size 9 to 14) (size 15 to 20)
#    0.000    1.600    2.667    1.200    0.000    5.333 
#    7.200    0.000    0.000    0.000    0.000    0.000 
#    0.000    0.000    0.000    0.000    0.000    0.000 
#
# Total GULP energy -167010.789421 kJ/mol
# GULP energy per Si atom -5567.026314 kJ/mol
# Density = 2.379625 g / cm^3
# Si number density = 23.850532 Si / 1000 Ang^3
#
#
#
# Elastic Constant Matrix: (Units=GPa)
#
#
# Indices 1 2 3 4 5 6 
#
# 1 49.1744 12.2077 17.2483 0.0000 0.0000 0.0000
# 2 12.2077 135.1371 60.3960 0.0000 0.0000 0.0000
# 3 17.2483 60.3960 70.9016 0.0000 0.0000 0.0000
# 4 0.0000 0.0000 0.0000 53.0655 0.0000 0.0000
# 5 0.0000 0.0000 0.0000 0.0000 -11.4259 0.0000
# 6 0.0000 0.0000 0.0000 0.0000 0.0000 23.2587
#
#
#
# Elastic Compliance Matrix: (Units=1/GPa)
#
#
# Indices 1 2 3 4 5 6 
#
# 1 0.022269 0.000661 -0.005981 0.000000 0.000000 0.000000
# 2 0.000661 0.011968 -0.010356 0.000000 0.000000 0.000000
# 3 -0.005981 -0.010356 0.024381 0.000000 0.000000 0.000000
# 4 0.000000 0.000000 0.000000 0.018845 0.000000 0.000000
# 5 0.000000 0.000000 0.000000 0.000000 -0.087520 0.000000
# 6 0.000000 0.000000 0.000000 0.000000 0.000000 0.042995
#
#
# Mechanical properties :
#
#
# Convention : Reuss Voigt Hill
#
# Bulk Modulus (GPa) = 36.67378 48.32413 42.49895
# Shear Modulus (GPa) = 68.14060 24.00372 46.07216
#
# Velocity S-wave (km/s) = 5.35088 3.17586 4.39988
# Velocity P-wave (km/s) = 7.32023 5.80976 6.60829
#
# Compressibility (1/GPa) = 0.02726744
#
# Stress axis : x y z
#
# Youngs Moduli (GPa) = 44.90454 83.55281 41.01636
#
# Poissons Ratio (x) = -0.05525 0.24531
# Poissons Ratio (y) = -0.02969 0.42476
# Poissons Ratio (z) = 0.26856 0.86527
#
# Static dielectric constant tensor:
#      x y z
#    x 1.928110 0.000000 0.000000 
#    y 0.000000 2.144520 0.000000 
#    z 0.000000 0.000000 2.043420 
# 
# From -- ./inp_files/5134.got.cif
#   From: 2010.05.17/outbox.cif.g08.bks.cpg/sg41_3_cif.got.tgz:5134.got - 2010.06.03 18:54:24.
