data_PCOD9366828
_publ_section_title
;
Structure prediction by ZEFSAII (Michael W. Deem and Ramdas Pophale) SiO2 
 PCOD9366828
Probable space group: A B A 2
;
_chemical_formula_sum "Si O2"
_cell_formula_units_Z 40
_cell_length_a 25.593428
_cell_length_b 4.817336
_cell_length_c 13.846954
_cell_angle_alpha 90.000000
_cell_angle_beta 90.000000
_cell_angle_gamma 90.000000
_cell_volume 1707.220620
_symmetry_space_group_name_H-M "A B A 2"
_symmetry_group_IT_number 41
_symmetry_cell_setting 'orthorhombic'
loop_
_space_group_symop_operation_xyz
x,y,z
-x,-y,z
1/2-x,y,1/2+z
1/2+x,-y,1/2+z
x,1/2+y,1/2+z
-x,1/2-y,1/2+z
1/2-x,1/2+y,z
1/2+x,1/2-y,z
loop_
_atom_site_type_symbol
_atom_site_label
_atom_site_fract_x
_atom_site_fract_y
_atom_site_fract_z
Si Si1 0.716717 0.687682 0.063920
Si Si2 0.851059 0.279420 0.880969
Si Si3 0.058992 0.043952 0.984488
Si Si4 0.559615 0.450251 0.620982
Si Si5 0.653597 0.824445 0.253699
O O1 0.689953 0.729310 0.166598
O O2 0.730452 0.365518 0.054577
O O3 0.679207 0.804294 0.981102
O O4 0.818750 0.067489 0.813804
O O5 0.859738 0.563397 0.822930
O O6 0.068242 0.352162 0.026484
O O7 0.063039 0.861371 0.081633
O O8 0.000000 0.000000 0.948460
O O9 0.098410 0.906107 0.909604
O O10 0.500000 0.500000 0.653839
O O11 0.603199 0.468185 0.702547
#
# Coordination Sequence:
#
# PCOD9366828 Si02
#       5
#     8   8   8   8   8
#     4  12  28  48  74 100 138 182 232 298 358 408
#     4  12  26  44  74 105 140 181 233 288 350 421
#     4  10  21  41  70 101 140 188 230 277 342 418
#     4  10  21  41  70 101 140 188 230 277 342 418
#     4  12  26  44  74 105 140 181 233 288 350 421
#
# _framework density 23.429895999999999
#
# number of rings (size 3 to 8) (size 9 to 14) (size 15 to 20)
#    0.000    0.800    2.000    4.800    2.800    5.600 
#    0.000    2.000    0.000    0.000    0.000    0.000 
#    0.000    0.000    0.000    0.000    0.000    0.000 
#
# Total GULP energy -111858.024825 kJ/mol
# GULP energy per Si atom -5592.901241 kJ/mol
# Density = 2.337657 g / cm^3
# Si number density = 23.429896 Si / 1000 Ang^3
#
#
#
# Elastic Constant Matrix: (Units=GPa)
#
#
# Indices 1 2 3 4 5 6 
#
# 1 58.5513 15.4978 34.1747 0.0000 0.0000 0.0000
# 2 15.4978 119.7486 30.3435 0.0000 0.0000 0.0000
# 3 34.1747 30.3435 101.2979 0.0000 0.0000 0.0000
# 4 0.0000 0.0000 0.0000 29.0620 0.0000 0.0000
# 5 0.0000 0.0000 0.0000 0.0000 -5.6237 0.0000
# 6 0.0000 0.0000 0.0000 0.0000 0.0000 29.2364
#
#
#
# Elastic Compliance Matrix: (Units=1/GPa)
#
#
# Indices 1 2 3 4 5 6 
#
# 1 0.021380 -0.001016 -0.006909 0.000000 0.000000 0.000000
# 2 -0.001016 0.009085 -0.002378 0.000000 0.000000 0.000000
# 3 -0.006909 -0.002378 0.012915 0.000000 0.000000 0.000000
# 4 0.000000 0.000000 0.000000 0.034409 0.000000 0.000000
# 5 0.000000 0.000000 0.000000 0.000000 -0.177820 0.000000
# 6 0.000000 0.000000 0.000000 0.000000 0.000000 0.034204
#
#
# Mechanical properties :
#
#
# Convention : Reuss Voigt Hill
#
# Bulk Modulus (GPa) = 43.91068 48.84776 46.37922
# Shear Modulus (GPa) = -132.87946 23.84041 -54.51953
#
# Velocity S-wave (km/s) = -7.53902 3.19332 -4.82905
# Velocity P-wave (km/s) = 7.54986 5.87283 3.35486
#
# Compressibility (1/GPa) = 0.02277350
#
# Stress axis : x y z
#
# Youngs Moduli (GPa) = 46.77170 110.07066 77.42877
#
# Poissons Ratio (x) = 0.11188 0.53493
# Poissons Ratio (y) = 0.04754 0.18416
# Poissons Ratio (z) = 0.32313 0.26180
#
# Static dielectric constant tensor:
#      x y z
#    x 1.973130 0.000000 0.000000 
#    y 0.000000 1.860840 0.000000 
#    z 0.000000 0.000000 1.893490 
# 
# From -- ./inp_files/6501.got.cif
#   From: 2010.05.17/outbox.cif.g08.bks.cpg/sg41_4_cif.got.tgz:6501.got - 2010.06.03 18:54:24.
