data_PCOD9366446
_publ_section_title
;
Structure prediction by ZEFSAII (Michael W. Deem and Ramdas Pophale) SiO2 
 PCOD9366446
Probable space group: A B A 2
;
_chemical_formula_sum "Si O2"
_cell_formula_units_Z 32
_cell_length_a 17.932140
_cell_length_b 5.114808
_cell_length_c 13.247990
_cell_angle_alpha 90.000000
_cell_angle_beta 90.000000
_cell_angle_gamma 90.000000
_cell_volume 1215.098398
_symmetry_space_group_name_H-M "A B A 2"
_symmetry_group_IT_number 41
_symmetry_cell_setting 'orthorhombic'
loop_
_space_group_symop_operation_xyz
x,y,z
-x,-y,z
1/2-x,y,1/2+z
1/2+x,-y,1/2+z
x,1/2+y,1/2+z
-x,1/2-y,1/2+z
1/2-x,1/2+y,z
1/2+x,1/2-y,z
loop_
_atom_site_type_symbol
_atom_site_label
_atom_site_fract_x
_atom_site_fract_y
_atom_site_fract_z
Si Si1 0.881914 0.676667 0.530120
Si Si2 0.584541 0.041230 0.325869
Si Si3 0.797940 0.698599 0.732710
Si Si4 0.040211 0.784859 0.602088
O O1 0.874447 0.711484 0.410987
O O2 0.820698 0.722797 0.614467
O O3 0.948897 0.885150 0.564208
O O4 0.898022 0.362141 0.533076
O O5 0.571168 0.163006 0.215843
O O6 0.500000 0.000000 0.366791
O O7 0.630777 0.782112 0.298642
O O8 0.735881 0.917483 0.751949
O O9 0.000000 0.500000 0.625822
#
# Coordination Sequence:
#
# PCOD9366446 Si02
#       4
#     8   8   8   8
#     4  11  23  44  72 107 151 194 257 319 393 454
#     4  11  22  47  75 113 144 197 268 326 384 456
#     4  12  28  51  74 108 165 210 252 319 395 478
#     4  10  20  41  68 111 143 181 244 334 374 434
#
# _framework density 26.335315999999999
#
# number of rings (size 3 to 8) (size 9 to 14) (size 15 to 20)
#    0.000    1.000    7.500    1.500    0.000    2.000 
#   13.500    0.000    0.000    0.000    0.000    0.000 
#    0.000    0.000    0.000    0.000    0.000    0.000 
#
# Total GULP energy -89238.480631 kJ/mol
# GULP energy per Si atom -5577.405039 kJ/mol
# Density = 2.627538 g / cm^3
# Si number density = 26.335316 Si / 1000 Ang^3
#
#
#
# Elastic Constant Matrix: (Units=GPa)
#
#
# Indices 1 2 3 4 5 6 
#
# 1 94.4102 52.3694 34.1368 0.0000 0.0000 0.0000
# 2 52.3694 199.8042 70.4692 0.0000 0.0000 0.0000
# 3 34.1368 70.4692 185.8934 0.0000 0.0000 0.0000
# 4 0.0000 0.0000 0.0000 18.0095 0.0000 0.0000
# 5 0.0000 0.0000 0.0000 0.0000 16.2053 0.0000
# 6 0.0000 0.0000 0.0000 0.0000 0.0000 44.1653
#
#
#
# Elastic Compliance Matrix: (Units=1/GPa)
#
#
# Indices 1 2 3 4 5 6 
#
# 1 0.012633 -0.002878 -0.001229 0.000000 0.000000 0.000000
# 2 -0.002878 0.006433 -0.001910 0.000000 0.000000 0.000000
# 3 -0.001229 -0.001910 0.006329 0.000000 0.000000 0.000000
# 4 0.000000 0.000000 0.000000 0.055526 0.000000 0.000000
# 5 0.000000 0.000000 0.000000 0.000000 0.061708 0.000000
# 6 0.000000 0.000000 0.000000 0.000000 0.000000 0.022642
#
#
# Mechanical properties :
#
#
# Convention : Reuss Voigt Hill
#
# Bulk Modulus (GPa) = 74.84329 88.22874 81.53601
# Shear Modulus (GPa) = 27.50903 37.21819 32.36361
#
# Velocity S-wave (km/s) = 3.23548 3.76339 3.50938
# Velocity P-wave (km/s) = 6.51451 7.24285 6.88832
#
# Compressibility (1/GPa) = 0.01336125
#
# Stress axis : x y z
#
# Youngs Moduli (GPa) = 79.15988 155.45268 157.99758
#
# Poissons Ratio (x) = 0.44733 0.19417
# Poissons Ratio (y) = 0.22779 0.30180
# Poissons Ratio (z) = 0.09728 0.29694
#
# Static dielectric constant tensor:
#      x y z
#    x 2.521900 0.000000 0.000000 
#    y 0.000000 2.086810 0.000000 
#    z 0.000000 0.000000 2.010710 
# 
# From -- ./inp_files/6123.got.cif
#   From: 2010.05.17/outbox.cif.g08.bks.cpg/sg41_4_cif.got.tgz:6123.got - 2010.06.03 18:54:24.
