data_PCOD9366837
_publ_section_title
;
Structure prediction by ZEFSAII (Michael W. Deem and Ramdas Pophale) SiO2 
 PCOD9366837
Probable space group: A B A 2
;
_chemical_formula_sum "Si O2"
_cell_formula_units_Z 48
_cell_length_a 20.547603
_cell_length_b 10.330547
_cell_length_c 9.301972
_cell_angle_alpha 90.000000
_cell_angle_beta 90.000000
_cell_angle_gamma 90.000000
_cell_volume 1974.510793
_symmetry_space_group_name_H-M "A B A 2"
_symmetry_group_IT_number 41
_symmetry_cell_setting 'orthorhombic'
loop_
_space_group_symop_operation_xyz
x,y,z
-x,-y,z
1/2-x,y,1/2+z
1/2+x,-y,1/2+z
x,1/2+y,1/2+z
-x,1/2-y,1/2+z
1/2-x,1/2+y,z
1/2+x,1/2-y,z
loop_
_atom_site_type_symbol
_atom_site_label
_atom_site_fract_x
_atom_site_fract_y
_atom_site_fract_z
Si Si1 0.097967 0.965031 0.467150
Si Si2 0.802586 0.520405 0.187443
Si Si3 0.904624 0.888270 0.870601
Si Si4 0.406985 0.432724 0.129636
Si Si5 0.015050 0.686807 0.112278
Si Si6 0.702745 0.734183 0.227175
O O1 0.170736 0.954761 0.527971
O O2 0.091886 0.970134 0.296696
O O3 0.052647 0.855719 0.542673
O O4 0.067247 0.099381 0.525927
O O5 0.868064 0.502062 0.280891
O O6 0.759464 0.633167 0.251985
O O7 0.771010 0.376528 0.185538
O O8 0.968886 0.850763 0.779206
O O9 0.851271 0.774000 0.847444
O O10 0.907975 0.945074 0.027431
O O11 0.466132 0.335532 0.099286
O O12 0.342587 0.342248 0.112525
#
# Coordination Sequence:
#
# PCOD9366837 Si02
#       6
#     8   8   8   8   8   8
#     4  10  21  41  73 101 141 184 234 295 359 429
#     4   9  20  46  70  98 145 194 228 303 347 428
#     4   8  20  42  70  98 141 186 233 294 347 428
#     4  11  21  43  68 107 137 186 241 290 366 419
#     4   9  21  45  64 101 146 179 233 290 365 437
#     4   9  21  45  68 104 139 191 244 285 357 422
#
# _framework density 24.309819999999998
#
# number of rings (size 3 to 8) (size 9 to 14) (size 15 to 20)
#    1.000    1.667    1.667    0.000    0.000    5.333 
#   12.000   16.667    0.000    0.000    0.000    0.000 
#    0.000    0.000    0.000    0.000    0.000    0.000 
#
# Total GULP energy -133979.811252 kJ/mol
# GULP energy per Si atom -5582.492136 kJ/mol
# Density = 2.425449 g / cm^3
# Si number density = 24.309820 Si / 1000 Ang^3
#
#
#
# Elastic Constant Matrix: (Units=GPa)
#
#
# Indices 1 2 3 4 5 6 
#
# 1 86.2374 46.0198 39.9335 0.0000 0.0000 0.0000
# 2 46.0198 113.2281 74.0211 0.0000 0.0000 0.0000
# 3 39.9335 74.0211 148.2590 0.0000 0.0000 0.0000
# 4 0.0000 0.0000 0.0000 40.1921 0.0000 0.0000
# 5 0.0000 0.0000 0.0000 0.0000 17.3097 0.0000
# 6 0.0000 0.0000 0.0000 0.0000 0.0000 46.4135
#
#
#
# Elastic Compliance Matrix: (Units=1/GPa)
#
#
# Indices 1 2 3 4 5 6 
#
# 1 0.015024 -0.005138 -0.001482 0.000000 0.000000 0.000000
# 2 -0.005138 0.014868 -0.006039 0.000000 0.000000 0.000000
# 3 -0.001482 -0.006039 0.010159 0.000000 0.000000 0.000000
# 4 0.000000 0.000000 0.000000 0.024881 0.000000 0.000000
# 5 0.000000 0.000000 0.000000 0.000000 0.057771 0.000000
# 6 0.000000 0.000000 0.000000 0.000000 0.000000 0.021545
#
#
# Mechanical properties :
#
#
# Convention : Reuss Voigt Hill
#
# Bulk Modulus (GPa) = 67.87067 74.18592 71.02829
# Shear Modulus (GPa) = 28.65726 33.29973 30.97850
#
# Velocity S-wave (km/s) = 3.43714 3.70510 3.57363
# Velocity P-wave (km/s) = 6.61298 6.99191 6.80509
#
# Compressibility (1/GPa) = 0.01473390
#
# Stress axis : x y z
#
# Youngs Moduli (GPa) = 66.56209 67.25913 98.43261
#
# Poissons Ratio (x) = 0.34555 0.14584
# Poissons Ratio (y) = 0.34196 0.59446
# Poissons Ratio (z) = 0.09862 0.40620
#
# Static dielectric constant tensor:
#      x y z
#    x 2.005460 0.000000 0.000000 
#    y 0.000000 1.988920 0.000000 
#    z 0.000000 0.000000 2.024140 
# 
# From -- ./inp_files/3618.got.cif
#   From: 2010.05.17/outbox.cif.g08.bks.cpg/sg41_2_cif.got.tgz:3618.got - 2010.06.03 18:54:24.
