data_PCOD9366580
_publ_section_title
;
Structure prediction by ZEFSAII (Michael W. Deem and Ramdas Pophale) SiO2 
 PCOD9366580
Probable space group: A B A 2
;
_chemical_formula_sum "Si O2"
_cell_formula_units_Z 40
_cell_length_a 9.878929
_cell_length_b 9.898094
_cell_length_c 20.613220
_cell_angle_alpha 90.000000
_cell_angle_beta 90.000000
_cell_angle_gamma 90.000000
_cell_volume 2015.613583
_symmetry_space_group_name_H-M "A B A 2"
_symmetry_group_IT_number 41
_symmetry_cell_setting 'orthorhombic'
loop_
_space_group_symop_operation_xyz
x,y,z
-x,-y,z
1/2-x,y,1/2+z
1/2+x,-y,1/2+z
x,1/2+y,1/2+z
-x,1/2-y,1/2+z
1/2-x,1/2+y,z
1/2+x,1/2-y,z
loop_
_atom_site_type_symbol
_atom_site_label
_atom_site_fract_x
_atom_site_fract_y
_atom_site_fract_z
Si Si1 0.000000 0.500000 0.643000
Si Si2 0.658125 0.887295 0.524360
Si Si3 0.000000 0.500000 0.260289
Si Si4 0.814354 0.202436 0.825746
Si Si5 0.367574 0.314626 0.975157
Si Si6 0.450773 0.286450 0.246163
O O1 0.893873 0.425186 0.596131
O O2 0.929966 0.608641 0.689432
O O3 0.785580 0.789759 0.519700
O O4 0.527776 0.817856 0.489852
O O5 0.680503 0.031854 0.489504
O O6 0.118127 0.441436 0.306168
O O7 0.046291 0.631401 0.221405
O O8 0.835376 0.224100 0.901308
O O9 0.662480 0.206131 0.801189
O O10 0.904617 0.304298 0.781905
#
# Coordination Sequence:
#
# PCOD9366580 Si02
#       6
#     4   8   4   8   8   8
#     4  10  24  43  58  90 129 158 222 254 300 376
#     4  10  24  43  62  90 119 175 205 263 299 363
#     4   8  22  39  58  98 125 162 200 244 326 360
#     4  10  21  37  64  96 125 156 201 258 322 367
#     4  10  21  40  67  89 128 155 212 255 317 367
#     4  10  23  36  63  92 129 163 199 257 318 370
#
# _framework density 19.845074
#
# number of rings (size 3 to 8) (size 9 to 14) (size 15 to 20)
#    1.200    1.200    0.000    2.400    5.600    4.000 
#    0.000    0.000    0.000    0.000    0.000    0.000 
#    0.000    0.000    0.000    0.000    0.000    0.000 
#
# Total GULP energy -111469.095727 kJ/mol
# GULP energy per Si atom -5573.454786 kJ/mol
# Density = 1.979991 g / cm^3
# Si number density = 19.845074 Si / 1000 Ang^3
#
#
#
# Elastic Constant Matrix: (Units=GPa)
#
#
# Indices 1 2 3 4 5 6 
#
# 1 26.5458 13.6069 6.3977 0.0000 0.0000 0.0000
# 2 13.6069 59.6320 14.4161 0.0000 0.0000 0.0000
# 3 6.3977 14.4161 101.6675 0.0000 0.0000 0.0000
# 4 0.0000 0.0000 0.0000 26.0867 0.0000 0.0000
# 5 0.0000 0.0000 0.0000 0.0000 -8.6477 0.0000
# 6 0.0000 0.0000 0.0000 0.0000 0.0000 22.4061
#
#
#
# Elastic Compliance Matrix: (Units=1/GPa)
#
#
# Indices 1 2 3 4 5 6 
#
# 1 0.042840 -0.009447 -0.001356 0.000000 0.000000 0.000000
# 2 -0.009447 0.019448 -0.002163 0.000000 0.000000 0.000000
# 3 -0.001356 -0.002163 0.010228 0.000000 0.000000 0.000000
# 4 0.000000 0.000000 0.000000 0.038334 0.000000 0.000000
# 5 0.000000 0.000000 0.000000 0.000000 -0.115638 0.000000
# 6 0.000000 0.000000 0.000000 0.000000 0.000000 0.044631
#
#
# Mechanical properties :
#
#
# Convention : Reuss Voigt Hill
#
# Bulk Modulus (GPa) = 21.46715 28.52072 24.99394
# Shear Modulus (GPa) = 61.49750 18.19733 39.84741
#
# Velocity S-wave (km/s) = 5.57280 3.03144 4.48585
# Velocity P-wave (km/s) = 7.22834 5.16292 6.28111
#
# Compressibility (1/GPa) = 0.04658280
#
# Stress axis : x y z
#
# Youngs Moduli (GPa) = 23.34256 51.41863 97.77024
#
# Poissons Ratio (x) = 0.48577 0.13260
# Poissons Ratio (y) = 0.22053 0.21149
# Poissons Ratio (z) = 0.03166 0.11123
#
# Static dielectric constant tensor:
#      x y z
#    x 1.710900 0.000000 0.000000 
#    y 0.000000 1.721560 0.000000 
#    z 0.000000 0.000000 1.683940 
# 
# From -- ./inp_files/9573.got.cif
#   From: 2010.05.17/outbox.cif.g08.bks.cpg/sg41_5_cif.got.tgz:9573.got - 2010.06.03 18:54:24.
