data_PCOD9366470
_publ_section_title
;
Structure prediction by ZEFSAII (Michael W. Deem and Ramdas Pophale) SiO2 
 PCOD9366470
Probable space group: A B A 2
;
_chemical_formula_sum "Si O2"
_cell_formula_units_Z 60
_cell_length_a 7.883368
_cell_length_b 26.496075
_cell_length_c 11.441010
_cell_angle_alpha 90.000000
_cell_angle_beta 90.000000
_cell_angle_gamma 90.000000
_cell_volume 2389.778831
_symmetry_space_group_name_H-M "A B A 2"
_symmetry_group_IT_number 41
_symmetry_cell_setting 'orthorhombic'
loop_
_space_group_symop_operation_xyz
x,y,z
-x,-y,z
1/2-x,y,1/2+z
1/2+x,-y,1/2+z
x,1/2+y,1/2+z
-x,1/2-y,1/2+z
1/2-x,1/2+y,z
1/2+x,1/2-y,z
loop_
_atom_site_type_symbol
_atom_site_label
_atom_site_fract_x
_atom_site_fract_y
_atom_site_fract_z
Si Si1 0.318885 0.247288 0.785330
Si Si2 0.770920 0.528132 0.652099
Si Si3 0.743219 0.859057 0.380338
Si Si4 0.922113 0.598011 0.829837
Si Si5 0.500000 0.000000 0.445307
Si Si6 0.113662 0.340624 0.433666
Si Si7 0.948670 0.691563 0.666136
Si Si8 0.913224 0.432998 0.224910
O O1 0.308113 0.198334 0.868832
O O2 0.407348 0.296971 0.837997
O O3 0.137514 0.272519 0.762084
O O4 0.376665 0.221937 0.662212
O O5 0.878706 0.546046 0.764840
O O6 0.713477 0.470028 0.659015
O O7 0.597809 0.561353 0.664797
O O8 0.873175 0.529478 0.532010
O O9 0.576455 0.860413 0.460863
O O10 0.661644 0.879010 0.256712
O O11 0.905878 0.894953 0.404672
O O12 0.754541 0.619857 0.892707
O O13 0.957361 0.636676 0.723056
O O14 0.425401 0.040020 0.352917
O O15 0.164377 0.313550 0.552830
#
# Coordination Sequence:
#
# PCOD9366470 Si02
#       8
#     8   8   8   8   4   8   8   8
#     4  10  22  42  61  94 128 175 224 274 332 399
#     4  10  20  42  67  94 136 171 215 275 332 396
#     4  11  22  43  67  90 136 171 220 276 328 389
#     4  10  23  41  66  97 128 175 217 267 339 393
#     4  10  22  40  70  96 138 176 226 272 344 408
#     4  11  23  43  64  92 134 170 221 282 324 399
#     4  10  23  37  63  92 127 169 220 274 333 389
#     4  10  24  43  68  99 135 181 219 282 345 392
#
# _framework density 25.106926999999999
#
# number of rings (size 3 to 8) (size 9 to 14) (size 15 to 20)
#    0.000    1.867    2.667    0.800    3.733    0.000 
#    0.000   13.333    0.000    0.000    0.000    0.000 
#    0.000    0.000    0.000    0.000    0.000    0.000 
#
# Total GULP energy -167310.734109 kJ/mol
# GULP energy per Si atom -5577.024470 kJ/mol
# Density = 2.504978 g / cm^3
# Si number density = 25.106927 Si / 1000 Ang^3
#
#
#
# Elastic Constant Matrix: (Units=GPa)
#
#
# Indices 1 2 3 4 5 6 
#
# 1 121.9899 33.2764 32.2968 0.0000 0.0000 0.0000
# 2 33.2764 87.4825 10.6923 0.0000 0.0000 0.0000
# 3 32.2968 10.6923 66.7623 0.0000 0.0000 0.0000
# 4 0.0000 0.0000 0.0000 26.2039 0.0000 0.0000
# 5 0.0000 0.0000 0.0000 0.0000 22.5190 0.0000
# 6 0.0000 0.0000 0.0000 0.0000 0.0000 40.4170
#
#
#
# Elastic Compliance Matrix: (Units=1/GPa)
#
#
# Indices 1 2 3 4 5 6 
#
# 1 0.010293 -0.003373 -0.004439 0.000000 0.000000 0.000000
# 2 -0.003373 0.012764 -0.000413 0.000000 0.000000 0.000000
# 3 -0.004439 -0.000413 0.017192 0.000000 0.000000 0.000000
# 4 0.000000 0.000000 0.000000 0.038162 0.000000 0.000000
# 5 0.000000 0.000000 0.000000 0.000000 0.044407 0.000000
# 6 0.000000 0.000000 0.000000 0.000000 0.000000 0.024742
#
#
# Mechanical properties :
#
#
# Convention : Reuss Voigt Hill
#
# Bulk Modulus (GPa) = 42.01645 47.64061 44.82853
# Shear Modulus (GPa) = 29.07957 31.15925 30.11941
#
# Velocity S-wave (km/s) = 3.40697 3.52669 3.46735
# Velocity P-wave (km/s) = 5.67872 5.96655 5.82441
#
# Compressibility (1/GPa) = 0.02380020
#
# Stress axis : x y z
#
# Youngs Moduli (GPa) = 97.15741 78.34448 58.16652
#
# Poissons Ratio (x) = 0.26422 0.25820
# Poissons Ratio (y) = 0.32767 0.02401
# Poissons Ratio (z) = 0.43128 0.03234
#
# Static dielectric constant tensor:
#      x y z
#    x 2.227640 0.000000 0.000000 
#    y 0.000000 2.085450 0.000000 
#    z 0.000000 0.000000 2.004020 
# 
# From -- ./inp_files/4605.got.cif
#   From: 2010.05.17/outbox.cif.g08.bks.cpg/sg41_3_cif.got.tgz:4605.got - 2010.06.03 18:54:24.
