data_PCOD9366374
_publ_section_title
;
Structure prediction by ZEFSAII (Michael W. Deem and Ramdas Pophale) SiO2 
 PCOD9366374
Probable space group: A B A 2
;
_chemical_formula_sum "Si O2"
_cell_formula_units_Z 52
_cell_length_a 14.995103
_cell_length_b 9.559176
_cell_length_c 16.574029
_cell_angle_alpha 90.000000
_cell_angle_beta 90.000000
_cell_angle_gamma 90.000000
_cell_volume 2375.735052
_symmetry_space_group_name_H-M "A B A 2"
_symmetry_group_IT_number 41
_symmetry_cell_setting 'orthorhombic'
loop_
_space_group_symop_operation_xyz
x,y,z
-x,-y,z
1/2-x,y,1/2+z
1/2+x,-y,1/2+z
x,1/2+y,1/2+z
-x,1/2-y,1/2+z
1/2-x,1/2+y,z
1/2+x,1/2-y,z
loop_
_atom_site_type_symbol
_atom_site_label
_atom_site_fract_x
_atom_site_fract_y
_atom_site_fract_z
Si Si1 0.753525 0.215843 0.996090
Si Si2 0.682941 0.379030 0.739044
Si Si3 0.197353 0.535985 0.888954
Si Si4 0.500000 0.000000 0.909446
Si Si5 0.552685 0.215643 0.046806
Si Si6 0.000000 0.500000 0.613638
Si Si7 0.000000 0.500000 0.186146
Si Si8 0.684660 0.081446 0.656916
O O1 0.799340 0.354882 0.963208
O O2 0.734935 0.109597 0.922771
O O3 0.656617 0.246658 0.033496
O O4 0.806689 0.139232 0.066427
O O5 0.736669 0.407934 0.820760
O O6 0.581228 0.433877 0.736926
O O7 0.688321 0.216950 0.714423
O O8 0.736399 0.473328 0.674218
O O9 0.093701 0.521476 0.863981
O O10 0.482135 0.869700 0.969679
O O11 0.504861 0.361499 0.060326
O O12 0.536823 0.120084 0.125783
O O13 0.089792 0.492980 0.665249
#
# Coordination Sequence:
#
# PCOD9366374 Si02
#       8
#     8   8   8   4   8   4   4   8
#     4  11  22  43  69 101 135 182 232 287 342 422
#     4  12  26  45  69  99 142 187 231 293 360 422
#     4  11  24  44  67 102 141 184 228 281 361 421
#     4   9  22  41  70  98 144 190 228 286 361 425
#     4  10  20  39  71 106 136 179 238 299 347 410
#     4  12  22  37  63 113 133 170 236 304 338 409
#     4  11  22  46  69  99 139 188 232 298 363 416
#     4  12  25  42  70 103 136 182 238 291 340 423
#
# _framework density 21.887964
#
# number of rings (size 3 to 8) (size 9 to 14) (size 15 to 20)
#    0.000    0.923    3.077    4.615    2.154    0.615 
#    0.000   10.769    0.000    0.000    0.000    0.000 
#    0.000    0.000    0.000    0.000    0.000    0.000 
#
# Total GULP energy -145527.329389 kJ/mol
# GULP energy per Si atom -5597.204977 kJ/mol
# Density = 2.183815 g / cm^3
# Si number density = 21.887964 Si / 1000 Ang^3
#
#
#
# Elastic Constant Matrix: (Units=GPa)
#
#
# Indices 1 2 3 4 5 6 
#
# 1 137.2999 -7.3521 17.3854 0.0000 0.0000 0.0000
# 2 -7.3521 66.7651 -11.6307 0.0000 0.0000 0.0000
# 3 17.3854 -11.6307 65.5884 0.0000 0.0000 0.0000
# 4 0.0000 0.0000 0.0000 53.0629 0.0000 0.0000
# 5 0.0000 0.0000 0.0000 0.0000 11.2067 0.0000
# 6 0.0000 0.0000 0.0000 0.0000 0.0000 29.1074
#
#
#
# Elastic Compliance Matrix: (Units=1/GPa)
#
#
# Indices 1 2 3 4 5 6 
#
# 1 0.007552 0.000498 -0.001914 0.000000 0.000000 0.000000
# 2 0.000498 0.015488 0.002614 0.000000 0.000000 0.000000
# 3 -0.001914 0.002614 0.016217 0.000000 0.000000 0.000000
# 4 0.000000 0.000000 0.000000 0.018846 0.000000 0.000000
# 5 0.000000 0.000000 0.000000 0.000000 0.089232 0.000000
# 6 0.000000 0.000000 0.000000 0.000000 0.000000 0.034356
#
#
# Mechanical properties :
#
#
# Convention : Reuss Voigt Hill
#
# Bulk Modulus (GPa) = 24.00597 29.60654 26.80626
# Shear Modulus (GPa) = 25.88282 36.75877 31.32080
#
# Velocity S-wave (km/s) = 3.44250 4.10250 3.78691
# Velocity P-wave (km/s) = 5.17615 5.99970 5.60308
#
# Compressibility (1/GPa) = 0.04165630
#
# Stress axis : x y z
#
# Youngs Moduli (GPa) = 132.40993 64.56530 61.66211
#
# Poissons Ratio (x) = -0.03217 0.11799
# Poissons Ratio (y) = -0.06598 -0.16121
# Poissons Ratio (z) = 0.25337 -0.16880
#
# Static dielectric constant tensor:
#      x y z
#    x 1.827650 0.000000 0.000000 
#    y 0.000000 1.772720 0.000000 
#    z 0.000000 0.000000 1.809830 
# 
# From -- ./inp_files/11527.got.cif
#   From: 2010.05.17/outbox.cif.g08.bks.cpg/sg41_6_cif.got.tgz:11527.got - 2010.06.03 18:54:24.
