data_PCOD9366576
_publ_section_title
;
Structure prediction by ZEFSAII (Michael W. Deem and Ramdas Pophale) SiO2 
 PCOD9366576
Probable space group: A B A 2
;
_chemical_formula_sum "Si O2"
_cell_formula_units_Z 64
_cell_length_a 11.977231
_cell_length_b 9.987613
_cell_length_c 24.379584
_cell_angle_alpha 90.000000
_cell_angle_beta 90.000000
_cell_angle_gamma 90.000000
_cell_volume 2916.382090
_symmetry_space_group_name_H-M "A B A 2"
_symmetry_group_IT_number 41
_symmetry_cell_setting 'orthorhombic'
loop_
_space_group_symop_operation_xyz
x,y,z
-x,-y,z
1/2-x,y,1/2+z
1/2+x,-y,1/2+z
x,1/2+y,1/2+z
-x,1/2-y,1/2+z
1/2-x,1/2+y,z
1/2+x,1/2-y,z
loop_
_atom_site_type_symbol
_atom_site_label
_atom_site_fract_x
_atom_site_fract_y
_atom_site_fract_z
Si Si1 0.499504 0.215092 0.704860
Si Si2 0.897760 0.598816 0.508960
Si Si3 0.271401 0.491783 0.805446
Si Si4 0.934359 0.140364 0.890383
Si Si5 0.691283 0.992378 0.689426
Si Si6 0.691526 0.030609 0.072741
Si Si7 0.105178 0.766760 0.319801
Si Si8 0.990340 0.812741 0.588675
O O1 0.378252 0.144348 0.700650
O O2 0.531564 0.263089 0.765238
O O3 0.509882 0.316533 0.654548
O O4 0.595881 0.105526 0.692219
O O5 0.884628 0.671500 0.450198
O O6 0.782981 0.529868 0.525788
O O7 0.937621 0.682481 0.561687
O O8 0.000000 0.500000 0.501564
O O9 0.348523 0.395070 0.841941
O O10 0.277925 0.486346 0.739270
O O11 0.302526 0.645469 0.821154
O O12 0.152560 0.417689 0.815730
O O13 0.023391 0.249121 0.870902
O O14 0.000000 0.000000 0.893725
O O15 0.749447 0.001453 0.630811
O O16 0.619805 0.167830 0.072623
O O17 0.594584 0.923030 0.066595
#
# Coordination Sequence:
#
# PCOD9366576 Si02
#       8
#     8   8   8   8   8   8   8   8
#     4  10  21  37  63  96 134 177 213 274 337 414
#     4  11  24  44  71  93 130 182 228 281 344 413
#     4  10  22  40  64  95 129 175 217 275 340 402
#     4   9  22  44  64  93 129 172 222 276 335 399
#     4  10  21  37  62  97 133 173 218 267 340 409
#     4  11  25  41  63 101 136 175 224 282 342 413
#     4  10  22  40  65  97 133 169 227 273 337 411
#     4  11  25  41  63 100 136 175 222 281 345 406
#
# _framework density 21.944998999999999
#
# number of rings (size 3 to 8) (size 9 to 14) (size 15 to 20)
#    0.000    1.750    1.250    1.500    7.000    2.000 
#    4.500    0.000    0.000    1.500    0.000    0.000 
#    0.000    0.000    0.000    0.000    0.000    0.000 
#
# Total GULP energy -178447.917034 kJ/mol
# GULP energy per Si atom -5576.497407 kJ/mol
# Density = 2.189505 g / cm^3
# Si number density = 21.944999 Si / 1000 Ang^3
#
#
#
# Elastic Constant Matrix: (Units=GPa)
#
#
# Indices 1 2 3 4 5 6 
#
# 1 98.8726 16.7528 57.9831 0.0000 0.0000 0.0000
# 2 16.7528 35.7510 15.0009 0.0000 0.0000 0.0000
# 3 57.9831 15.0009 123.2970 0.0000 0.0000 0.0000
# 4 0.0000 0.0000 0.0000 18.4295 0.0000 0.0000
# 5 0.0000 0.0000 0.0000 0.0000 34.4603 0.0000
# 6 0.0000 0.0000 0.0000 0.0000 0.0000 25.3128
#
#
#
# Elastic Compliance Matrix: (Units=1/GPa)
#
#
# Indices 1 2 3 4 5 6 
#
# 1 0.014528 -0.004153 -0.006327 0.000000 0.000000 0.000000
# 2 -0.004153 0.030663 -0.001778 0.000000 0.000000 0.000000
# 3 -0.006327 -0.001778 0.011302 0.000000 0.000000 0.000000
# 4 0.000000 0.000000 0.000000 0.054261 0.000000 0.000000
# 5 0.000000 0.000000 0.000000 0.000000 0.029019 0.000000
# 6 0.000000 0.000000 0.000000 0.000000 0.000000 0.039506
#
#
# Mechanical properties :
#
#
# Convention : Reuss Voigt Hill
#
# Bulk Modulus (GPa) = 31.27112 48.59935 39.93524
# Shear Modulus (GPa) = 23.31509 26.85277 25.08393
#
# Velocity S-wave (km/s) = 3.26303 3.50185 3.38455
# Velocity P-wave (km/s) = 5.33641 6.20844 5.78886
#
# Compressibility (1/GPa) = 0.03197838
#
# Stress axis : x y z
#
# Youngs Moduli (GPa) = 68.83233 32.61238 88.47911
#
# Poissons Ratio (x) = 0.13544 0.55979
# Poissons Ratio (y) = 0.28587 0.15727
# Poissons Ratio (z) = 0.43549 0.05797
#
# Static dielectric constant tensor:
#      x y z
#    x 1.822530 0.000000 0.000000 
#    y 0.000000 1.864360 0.000000 
#    z 0.000000 0.000000 1.824240 
# 
# From -- ./inp_files/12174.got.cif
#   From: 2010.05.17/outbox.cif.g08.bks.cpg/sg41_7_cif.got.tgz:12174.got - 2010.06.03 18:54:24.
