data_PCOD9366746
_publ_section_title
;
Structure prediction by ZEFSAII (Michael W. Deem and Ramdas Pophale) SiO2 
 PCOD9366746
Probable space group: A B A 2
;
_chemical_formula_sum "Si O2"
_cell_formula_units_Z 40
_cell_length_a 26.048547
_cell_length_b 13.149238
_cell_length_c 4.845625
_cell_angle_alpha 90.000000
_cell_angle_beta 90.000000
_cell_angle_gamma 90.000000
_cell_volume 1659.716420
_symmetry_space_group_name_H-M "A B A 2"
_symmetry_group_IT_number 41
_symmetry_cell_setting 'orthorhombic'
loop_
_space_group_symop_operation_xyz
x,y,z
-x,-y,z
1/2-x,y,1/2+z
1/2+x,-y,1/2+z
x,1/2+y,1/2+z
-x,1/2-y,1/2+z
1/2-x,1/2+y,z
1/2+x,1/2-y,z
loop_
_atom_site_type_symbol
_atom_site_label
_atom_site_fract_x
_atom_site_fract_y
_atom_site_fract_z
Si Si1 0.874150 0.557723 0.991090
Si Si2 0.524104 0.296514 0.282511
Si Si3 0.081071 0.541374 0.496523
Si Si4 0.285689 0.105609 0.063679
Si Si5 0.134526 0.726602 0.754859
O O1 0.898751 0.548719 0.690917
O O2 0.822569 0.490370 0.009153
O O3 0.915089 0.500113 0.190546
O O4 0.861136 0.669125 0.093831
O O5 0.486125 0.284126 0.536793
O O6 0.579842 0.273521 0.412091
O O7 0.530734 0.402508 0.117291
O O8 0.122846 0.632534 0.545390
O O9 0.235423 0.104976 0.871267
O O10 0.319440 0.200662 0.958222
#
# Coordination Sequence:
#
# PCOD9366746 Si02
#       5
#     8   8   8   8   8
#     4  11  21  42  63  92 121 173 207 261 328 370
#     4  10  21  40  65  93 130 171 209 258 321 382
#     4   9  22  38  63  88 131 163 206 262 307 369
#     4  11  24  41  64  94 126 167 216 270 326 387
#     4   9  24  41  68  88 135 167 211 267 323 379
#
# _framework density 24.100503
#
# number of rings (size 3 to 8) (size 9 to 14) (size 15 to 20)
#    1.200    0.800    0.000    3.600    0.000    8.000 
#    0.000    6.000    0.000    0.000    0.000    0.000 
#    0.000    0.000    0.000    0.000    0.000    0.000 
#
# Total GULP energy -111756.854739 kJ/mol
# GULP energy per Si atom -5587.842737 kJ/mol
# Density = 2.404565 g / cm^3
# Si number density = 24.100503 Si / 1000 Ang^3
#
#
#
# Elastic Constant Matrix: (Units=GPa)
#
#
# Indices 1 2 3 4 5 6 
#
# 1 60.1001 7.3956 4.4684 0.0000 0.0000 0.0000
# 2 7.3956 128.8460 8.8916 0.0000 0.0000 0.0000
# 3 4.4684 8.8916 75.5452 0.0000 0.0000 0.0000
# 4 0.0000 0.0000 0.0000 34.8594 0.0000 0.0000
# 5 0.0000 0.0000 0.0000 0.0000 19.1815 0.0000
# 6 0.0000 0.0000 0.0000 0.0000 0.0000 11.5904
#
#
#
# Elastic Compliance Matrix: (Units=1/GPa)
#
#
# Indices 1 2 3 4 5 6 
#
# 1 0.016816 -0.000904 -0.000888 0.000000 0.000000 0.000000
# 2 -0.000904 0.007873 -0.000873 0.000000 0.000000 0.000000
# 3 -0.000888 -0.000873 0.013392 0.000000 0.000000 0.000000
# 4 0.000000 0.000000 0.000000 0.028687 0.000000 0.000000
# 5 0.000000 0.000000 0.000000 0.000000 0.052134 0.000000
# 6 0.000000 0.000000 0.000000 0.000000 0.000000 0.086278
#
#
# Mechanical properties :
#
#
# Convention : Reuss Voigt Hill
#
# Bulk Modulus (GPa) = 30.53329 34.00027 32.26678
# Shear Modulus (GPa) = 22.58066 29.37530 25.97798
#
# Velocity S-wave (km/s) = 3.06426 3.49501 3.28670
# Velocity P-wave (km/s) = 5.02158 5.51590 5.27453
#
# Compressibility (1/GPa) = 0.03275114
#
# Stress axis : x y z
#
# Youngs Moduli (GPa) = 59.46655 127.01077 74.66904
#
# Poissons Ratio (x) = 0.11481 0.06633
# Poissons Ratio (y) = 0.05375 0.06520
# Poissons Ratio (z) = 0.05282 0.11091
#
# Static dielectric constant tensor:
#      x y z
#    x 1.977460 0.000000 0.000000 
#    y 0.000000 1.932020 0.000000 
#    z 0.000000 0.000000 1.877950 
# 
# From -- ./inp_files/909.got.cif
#   From: 2010.05.17/outbox.cif.g08.bks.cpg/sg41_1_cif.got.tgz:909.got - 2010.06.03 18:54:24.
