data_PCOD9366345
_publ_section_title
;
Structure prediction by ZEFSAII (Michael W. Deem and Ramdas Pophale) SiO2 
 PCOD9366345
Probable space group: A B A 2
;
_chemical_formula_sum "Si O2"
_cell_formula_units_Z 48
_cell_length_a 15.038883
_cell_length_b 13.356651
_cell_length_c 10.006425
_cell_angle_alpha 90.000000
_cell_angle_beta 90.000000
_cell_angle_gamma 90.000000
_cell_volume 2009.981701
_symmetry_space_group_name_H-M "A B A 2"
_symmetry_group_IT_number 41
_symmetry_cell_setting 'orthorhombic'
loop_
_space_group_symop_operation_xyz
x,y,z
-x,-y,z
1/2-x,y,1/2+z
1/2+x,-y,1/2+z
x,1/2+y,1/2+z
-x,1/2-y,1/2+z
1/2-x,1/2+y,z
1/2+x,1/2-y,z
loop_
_atom_site_type_symbol
_atom_site_label
_atom_site_fract_x
_atom_site_fract_y
_atom_site_fract_z
Si Si1 0.000000 0.500000 0.010590
Si Si2 0.671669 0.016100 0.173750
Si Si3 0.707627 0.281140 0.404174
Si Si4 0.306111 0.005576 0.456352
Si Si5 0.974903 0.331080 0.787158
Si Si6 0.500000 0.500000 0.069407
Si Si7 0.353903 0.223137 0.202883
O O1 0.919755 0.539864 0.101075
O O2 0.020779 0.594945 0.915873
O O3 0.692318 0.055374 0.319925
O O4 0.661179 0.896255 0.195995
O O5 0.753347 0.041385 0.078876
O O6 0.750282 0.391410 0.437238
O O7 0.624976 0.290935 0.301231
O O8 0.669341 0.244549 0.548866
O O9 0.788006 0.235447 0.317270
O O10 0.409659 0.013965 0.488810
O O11 0.998127 0.404031 0.664993
O O12 0.048423 0.246239 0.762217
#
# Coordination Sequence:
#
# PCOD9366345 Si02
#       7
#     4   8   8   8   8   4   8
#     4  11  21  42  66  96 132 178 216 286 340 412
#     4  10  21  40  67  89 126 171 227 270 344 404
#     4  10  21  44  68  91 132 182 223 282 350 411
#     4  10  20  39  64  93 121 179 218 272 335 412
#     4  11  23  40  66  99 137 179 225 287 351 401
#     4  11  23  38  62  96 140 172 226 282 340 412
#     4  10  22  41  65  94 124 177 228 271 338 416
#
# _framework density 23.880814000000001
#
# number of rings (size 3 to 8) (size 9 to 14) (size 15 to 20)
#    0.000    1.667    3.333    3.500    2.333    4.000 
#    3.000    0.000    0.000    0.000    0.000    0.000 
#    0.000    0.000    0.000    0.000    0.000    0.000 
#
# Total GULP energy -133949.850690 kJ/mol
# GULP energy per Si atom -5581.243779 kJ/mol
# Density = 2.382646 g / cm^3
# Si number density = 23.880814 Si / 1000 Ang^3
#
#
#
# Elastic Constant Matrix: (Units=GPa)
#
#
# Indices 1 2 3 4 5 6 
#
# 1 168.6379 8.0040 26.4481 0.0000 0.0000 0.0000
# 2 8.0040 55.1916 -25.7781 0.0000 0.0000 0.0000
# 3 26.4481 -25.7781 85.3418 0.0000 0.0000 0.0000
# 4 0.0000 0.0000 0.0000 -9.3125 0.0000 0.0000
# 5 0.0000 0.0000 0.0000 0.0000 59.4860 0.0000
# 6 0.0000 0.0000 0.0000 0.0000 0.0000 32.6453
#
#
#
# Elastic Compliance Matrix: (Units=1/GPa)
#
#
# Indices 1 2 3 4 5 6 
#
# 1 0.006450 -0.002176 -0.002656 0.000000 0.000000 0.000000
# 2 -0.002176 0.021829 0.007268 0.000000 0.000000 0.000000
# 3 -0.002656 0.007268 0.014736 0.000000 0.000000 0.000000
# 4 0.000000 0.000000 0.000000 -0.107382 0.000000 0.000000
# 5 0.000000 0.000000 0.000000 0.000000 0.016811 0.000000
# 6 0.000000 0.000000 0.000000 0.000000 0.000000 0.030632
#
#
# Mechanical properties :
#
#
# Convention : Reuss Voigt Hill
#
# Bulk Modulus (GPa) = 20.88276 36.27993 28.58135
# Shear Modulus (GPa) = -856.95445 36.59692 -410.17877
#
# Velocity S-wave (km/s) = -18.96379 3.91894 -13.11997
# Velocity P-wave (km/s) = 21.69648 5.97516 14.74847
#
# Compressibility (1/GPa) = 0.04788639
#
# Stress axis : x y z
#
# Youngs Moduli (GPa) = 155.04606 45.81098 67.86088
#
# Poissons Ratio (x) = 0.09968 0.18024
# Poissons Ratio (y) = 0.33736 -0.49320
# Poissons Ratio (z) = 0.41181 -0.33295
#
# Static dielectric constant tensor:
#      x y z
#    x 1.980810 0.000000 0.000000 
#    y 0.000000 2.063800 0.000000 
#    z 0.000000 0.000000 2.013020 
# 
# From -- ./inp_files/5001.got.cif
#   From: 2010.05.17/outbox.cif.g08.bks.cpg/sg41_3_cif.got.tgz:5001.got - 2010.06.03 18:54:24.
