data_PCOD9366819
_publ_section_title
;
Structure prediction by ZEFSAII (Michael W. Deem and Ramdas Pophale) SiO2 
 PCOD9366819
Probable space group: A B A 2
;
_chemical_formula_sum "Si O2"
_cell_formula_units_Z 60
_cell_length_a 10.515743
_cell_length_b 20.520394
_cell_length_c 11.045246
_cell_angle_alpha 90.000000
_cell_angle_beta 90.000000
_cell_angle_gamma 90.000000
_cell_volume 2383.422592
_symmetry_space_group_name_H-M "A B A 2"
_symmetry_group_IT_number 41
_symmetry_cell_setting 'orthorhombic'
loop_
_space_group_symop_operation_xyz
x,y,z
-x,-y,z
1/2-x,y,1/2+z
1/2+x,-y,1/2+z
x,1/2+y,1/2+z
-x,1/2-y,1/2+z
1/2-x,1/2+y,z
1/2+x,1/2-y,z
loop_
_atom_site_type_symbol
_atom_site_label
_atom_site_fract_x
_atom_site_fract_y
_atom_site_fract_z
Si Si1 0.500000 0.000000 0.048680
Si Si2 0.533708 0.304078 0.344206
Si Si3 0.318843 0.968048 0.383895
Si Si4 0.125471 0.661341 0.606862
Si Si5 0.693404 0.699332 0.535545
Si Si6 0.440340 0.837485 0.381598
Si Si7 0.702969 0.405704 0.455198
Si Si8 0.257940 0.931638 0.151089
O O1 0.571581 0.945237 0.970262
O O2 0.387606 0.971701 0.129105
O O3 0.528691 0.343151 0.218033
O O4 0.431081 0.310548 0.451366
O O5 0.525304 0.227472 0.306351
O O6 0.665013 0.336638 0.395394
O O7 0.419648 0.912327 0.342677
O O8 0.209803 0.947863 0.285384
O O9 0.314976 0.951664 0.527830
O O10 0.299941 0.045916 0.385819
O O11 0.191175 0.731909 0.602637
O O12 0.235035 0.608418 0.586806
O O13 0.045826 0.658692 0.484781
O O14 0.810753 0.687470 0.445611
O O15 0.709011 0.643767 0.635614
#
# Coordination Sequence:
#
# PCOD9366819 Si02
#       8
#     4   8   8   8   8   8   8   8
#     4  10  22  42  66  94 138 192 236 288 360 448
#     4  11  23  43  72 102 144 186 243 307 379 448
#     4  10  24  41  69  97 137 187 235 299 363 434
#     4  11  25  42  71 108 141 188 245 317 366 442
#     4  10  21  44  68 100 141 189 240 295 374 452
#     4  10  23  46  65 103 141 184 242 294 378 445
#     4  11  24  46  66 106 140 192 248 300 365 445
#     4  10  21  41  67  96 134 181 241 287 363 432
#
# _framework density 25.173883
#
# number of rings (size 3 to 8) (size 9 to 14) (size 15 to 20)
#    0.000    1.600    2.667    0.800    3.733    6.933 
#    0.000    0.000    0.000    0.000    0.000    0.000 
#    0.000    0.000    0.000    0.000    0.000    0.000 
#
# Total GULP energy -167064.292722 kJ/mol
# GULP energy per Si atom -5568.809757 kJ/mol
# Density = 2.511659 g / cm^3
# Si number density = 25.173883 Si / 1000 Ang^3
#
#
#
# Elastic Constant Matrix: (Units=GPa)
#
#
# Indices 1 2 3 4 5 6 
#
# 1 53.4513 26.6101 -13.5217 0.0000 0.0000 0.0000
# 2 26.6101 110.7266 1.8080 0.0000 0.0000 0.0000
# 3 -13.5217 1.8080 59.4464 0.0000 0.0000 0.0000
# 4 0.0000 0.0000 0.0000 30.5915 0.0000 0.0000
# 5 0.0000 0.0000 0.0000 0.0000 20.1006 0.0000
# 6 0.0000 0.0000 0.0000 0.0000 0.0000 25.9024
#
#
#
# Elastic Compliance Matrix: (Units=1/GPa)
#
#
# Indices 1 2 3 4 5 6 
#
# 1 0.022842 -0.005577 0.005365 0.000000 0.000000 0.000000
# 2 -0.005577 0.010397 -0.001585 0.000000 0.000000 0.000000
# 3 0.005365 -0.001585 0.018090 0.000000 0.000000 0.000000
# 4 0.000000 0.000000 0.000000 0.032689 0.000000 0.000000
# 5 0.000000 0.000000 0.000000 0.000000 0.049750 0.000000
# 6 0.000000 0.000000 0.000000 0.000000 0.000000 0.038606
#
#
# Mechanical properties :
#
#
# Convention : Reuss Voigt Hill
#
# Bulk Modulus (GPa) = 20.94803 28.15745 24.55274
# Shear Modulus (GPa) = 26.05783 29.23411 27.64597
#
# Velocity S-wave (km/s) = 3.22081 3.41146 3.31751
# Velocity P-wave (km/s) = 4.70860 5.16981 4.94458
#
# Compressibility (1/GPa) = 0.04773720
#
# Stress axis : x y z
#
# Youngs Moduli (GPa) = 43.77814 96.17740 55.27766
#
# Poissons Ratio (x) = 0.53640 -0.29659
# Poissons Ratio (y) = 0.24416 0.08760
# Poissons Ratio (z) = -0.23489 0.15242
#
# Static dielectric constant tensor:
#      x y z
#    x 2.108460 0.000000 0.000000 
#    y 0.000000 2.061170 0.000000 
#    z 0.000000 0.000000 2.078500 
# 
# From -- ./inp_files/5148.got.cif
#   From: 2010.05.17/outbox.cif.g08.bks.cpg/sg41_3_cif.got.tgz:5148.got - 2010.06.03 18:54:24.
