data_PCOD9366618
_publ_section_title
;
Structure prediction by ZEFSAII (Michael W. Deem and Ramdas Pophale) SiO2 
 PCOD9366618
Probable space group: A B A 2
;
_chemical_formula_sum "Si O2"
_cell_formula_units_Z 60
_cell_length_a 30.427005
_cell_length_b 5.354139
_cell_length_c 16.112082
_cell_angle_alpha 90.000000
_cell_angle_beta 90.000000
_cell_angle_gamma 90.000000
_cell_volume 2624.825951
_symmetry_space_group_name_H-M "A B A 2"
_symmetry_group_IT_number 41
_symmetry_cell_setting 'orthorhombic'
loop_
_space_group_symop_operation_xyz
x,y,z
-x,-y,z
1/2-x,y,1/2+z
1/2+x,-y,1/2+z
x,1/2+y,1/2+z
-x,1/2-y,1/2+z
1/2-x,1/2+y,z
1/2+x,1/2-y,z
loop_
_atom_site_type_symbol
_atom_site_label
_atom_site_fract_x
_atom_site_fract_y
_atom_site_fract_z
Si Si1 0.862278 0.100927 0.714530
Si Si2 0.500000 0.500000 0.433234
Si Si3 0.238682 0.348840 0.997351
Si Si4 0.629174 0.094527 0.612734
Si Si5 0.644282 0.458756 0.474575
Si Si6 0.918378 0.226626 0.856396
Si Si7 0.773523 0.142290 0.811170
Si Si8 0.568333 0.841392 0.503130
O O1 0.853507 0.340430 0.654889
O O2 0.907475 0.155107 0.763421
O O3 0.867226 0.831560 0.672408
O O4 0.821686 0.084735 0.778173
O O5 0.538469 0.386018 0.376658
O O6 0.521579 0.712846 0.490717
O O7 0.252070 0.596822 0.045053
O O8 0.188051 0.380227 0.972374
O O9 0.267450 0.349145 0.911949
O O10 0.651643 0.209673 0.529587
O O11 0.580277 0.025930 0.578260
O O12 0.624133 0.382772 0.386915
O O13 0.604242 0.620220 0.512302
O O14 0.921932 0.989507 0.917687
O O15 0.742771 0.913673 0.782832
#
# Coordination Sequence:
#
# PCOD9366618 Si02
#       8
#     8   4   8   8   8   8   8   8
#     4  12  25  43  72 102 147 188 235 286 357 435
#     4  10  22  44  74 110 140 168 236 302 354 408
#     4  10  22  35  61  97 133 165 232 293 332 382
#     4  11  25  45  70 100 140 191 236 276 352 435
#     4  10  22  43  71  99 132 184 239 283 337 416
#     4  10  23  39  76 102 137 176 230 290 349 414
#     4  10  21  38  61  96 136 178 232 286 344 400
#     4  10  22  44  76 102 135 184 236 285 347 425
#
# _framework density 22.858658999999999
#
# number of rings (size 3 to 8) (size 9 to 14) (size 15 to 20)
#    0.000    1.600    1.333    2.800   11.200    0.000 
#    0.000    4.000   11.733    0.000    0.000    0.000 
#    0.000    0.000    0.000    0.000    0.000    0.000 
#
# Total GULP energy -167544.981229 kJ/mol
# GULP energy per Si atom -5584.832708 kJ/mol
# Density = 2.280663 g / cm^3
# Si number density = 22.858659 Si / 1000 Ang^3
#
#
#
# Elastic Constant Matrix: (Units=GPa)
#
#
# Indices 1 2 3 4 5 6 
#
# 1 90.4494 11.2092 22.2196 0.0000 0.0000 0.0000
# 2 11.2092 123.8519 6.8625 0.0000 0.0000 0.0000
# 3 22.2196 6.8625 48.0657 0.0000 0.0000 0.0000
# 4 0.0000 0.0000 0.0000 28.8133 0.0000 0.0000
# 5 0.0000 0.0000 0.0000 0.0000 15.5870 0.0000
# 6 0.0000 0.0000 0.0000 0.0000 0.0000 39.5752
#
#
#
# Elastic Compliance Matrix: (Units=1/GPa)
#
#
# Indices 1 2 3 4 5 6 
#
# 1 0.012555 -0.000821 -0.005686 0.000000 0.000000 0.000000
# 2 -0.000821 0.008192 -0.000790 0.000000 0.000000 0.000000
# 3 -0.005686 -0.000790 0.023546 0.000000 0.000000 0.000000
# 4 0.000000 0.000000 0.000000 0.034706 0.000000 0.000000
# 5 0.000000 0.000000 0.000000 0.000000 0.064156 0.000000
# 6 0.000000 0.000000 0.000000 0.000000 0.000000 0.025268
#
#
# Mechanical properties :
#
#
# Convention : Reuss Voigt Hill
#
# Bulk Modulus (GPa) = 33.67238 38.10551 35.88894
# Shear Modulus (GPa) = 25.91770 31.60014 28.75892
#
# Velocity S-wave (km/s) = 3.37088 3.72212 3.55085
# Velocity P-wave (km/s) = 5.46929 5.93114 5.70489
#
# Compressibility (1/GPa) = 0.02969793
#
# Stress axis : x y z
#
# Youngs Moduli (GPa) = 79.65213 122.06652 42.46940
#
# Poissons Ratio (x) = 0.10024 0.24150
# Poissons Ratio (y) = 0.06541 0.03355
# Poissons Ratio (z) = 0.45294 0.09644
#
# Static dielectric constant tensor:
#      x y z
#    x 1.850690 0.000000 0.000000 
#    y 0.000000 1.935070 0.000000 
#    z 0.000000 0.000000 1.887180 
# 
# From -- ./inp_files/10821.got.cif
#   From: 2010.05.17/outbox.cif.g08.bks.cpg/sg41_6_cif.got.tgz:10821.got - 2010.06.03 18:54:24.
