data_PCOD9366625
_publ_section_title
;
Structure prediction by ZEFSAII (Michael W. Deem and Ramdas Pophale) SiO2 
 PCOD9366625
Probable space group: A B A 2
;
_chemical_formula_sum "Si O2"
_cell_formula_units_Z 56
_cell_length_a 9.681747
_cell_length_b 22.236499
_cell_length_c 14.454095
_cell_angle_alpha 90.000000
_cell_angle_beta 90.000000
_cell_angle_gamma 90.000000
_cell_volume 3111.795481
_symmetry_space_group_name_H-M "A B A 2"
_symmetry_group_IT_number 41
_symmetry_cell_setting 'orthorhombic'
loop_
_space_group_symop_operation_xyz
x,y,z
-x,-y,z
1/2-x,y,1/2+z
1/2+x,-y,1/2+z
x,1/2+y,1/2+z
-x,1/2-y,1/2+z
1/2-x,1/2+y,z
1/2+x,1/2-y,z
loop_
_atom_site_type_symbol
_atom_site_label
_atom_site_fract_x
_atom_site_fract_y
_atom_site_fract_z
Si Si1 0.839144 0.996183 0.011610
Si Si2 0.839149 0.496092 0.292183
Si Si3 0.026916 0.820854 0.151669
Si Si4 0.473013 0.820850 0.151846
Si Si5 0.254450 0.867807 0.511595
Si Si6 0.250058 0.601888 0.651823
Si Si7 0.254372 0.367929 0.791882
O O1 0.765098 0.942793 0.065048
O O2 0.839280 0.985021 0.901906
O O3 0.767509 0.060491 0.028362
O O4 0.000000 0.000000 0.042003
O O5 0.765308 0.442617 0.238810
O O6 0.767333 0.560350 0.275293
O O7 0.000000 0.500000 0.261809
O O8 0.125102 0.840788 0.236642
O O9 0.999923 0.750005 0.151880
O O10 0.884786 0.856981 0.156976
O O11 0.110421 0.838992 0.059027
O O12 0.615188 0.856938 0.146458
O O13 0.389513 0.839161 0.244405
O O14 0.374861 0.840667 0.066791
O O15 0.248722 0.857581 0.401728
#
# Coordination Sequence:
#
# PCOD9366625 Si02
#       7
#     8   8   8   8   8   8   8
#     4  10  21  38  62  92 122 155 199 250 308 366
#     4  10  21  38  62  92 122 155 199 250 308 366
#     4  11  24  41  60  89 122 160 209 248 289 360
#     4  11  24  41  60  89 122 160 209 248 289 360
#     4  10  22  42  63  85 122 161 197 250 308 355
#     4  12  22  36  66  90 120 162 198 250 312 350
#     4  10  22  42  63  85 122 161 197 250 308 355
#
# _framework density 17.996041999999999
#
# number of rings (size 3 to 8) (size 9 to 14) (size 15 to 20)
#    0.000    1.429    2.857    3.429    0.000    2.286 
#    0.000    5.714    0.000    0.000    0.000    0.000 
#    0.000    0.000    0.000    0.000    0.000    0.000 
#
# Total GULP energy -156452.715985 kJ/mol
# GULP energy per Si atom -5587.596999 kJ/mol
# Density = 1.795508 g / cm^3
# Si number density = 17.996042 Si / 1000 Ang^3
#
#
#
# Elastic Constant Matrix: (Units=GPa)
#
#
# Indices 1 2 3 4 5 6 
#
# 1 148.4802 89.6798 68.5470 0.0000 0.0000 0.0000
# 2 89.6798 180.6291 79.5253 0.0000 0.0000 0.0000
# 3 68.5470 79.5253 115.5727 0.0000 0.0000 0.0000
# 4 0.0000 0.0000 0.0000 9.5664 0.0000 0.0000
# 5 0.0000 0.0000 0.0000 0.0000 22.8055 0.0000
# 6 0.0000 0.0000 0.0000 0.0000 0.0000 14.3592
#
#
#
# Elastic Compliance Matrix: (Units=1/GPa)
#
#
# Indices 1 2 3 4 5 6 
#
# 1 0.010699 -0.003612 -0.003860 0.000000 0.000000 0.000000
# 2 -0.003612 0.009162 -0.004162 0.000000 0.000000 0.000000
# 3 -0.003860 -0.004162 0.013806 0.000000 0.000000 0.000000
# 4 0.000000 0.000000 0.000000 0.104533 0.000000 0.000000
# 5 0.000000 0.000000 0.000000 0.000000 0.043849 0.000000
# 6 0.000000 0.000000 0.000000 0.000000 0.000000 0.069642
#
#
# Mechanical properties :
#
#
# Convention : Reuss Voigt Hill
#
# Bulk Modulus (GPa) = 96.17002 102.24294 99.20648
# Shear Modulus (GPa) = 17.95823 23.14154 20.54988
#
# Velocity S-wave (km/s) = 3.16238 3.58987 3.38288
# Velocity P-wave (km/s) = 8.17862 8.60932 8.39673
#
# Compressibility (1/GPa) = 0.01039825
#
# Stress axis : x y z
#
# Youngs Moduli (GPa) = 93.47001 109.14612 72.43454
#
# Poissons Ratio (x) = 0.39428 0.27958
# Poissons Ratio (y) = 0.33765 0.30146
# Poissons Ratio (z) = 0.36077 0.45425
#
# Static dielectric constant tensor:
#      x y z
#    x 1.607400 0.000000 0.000000 
#    y 0.000000 1.594880 0.000000 
#    z 0.000000 0.000000 1.617170 
# 
# From -- ./inp_files/7477.got.cif
#   From: 2010.05.17/outbox.cif.g08.bks.cpg/sg41_4_cif.got.tgz:7477.got - 2010.06.03 18:54:24.
