data_PCOD9366174
_publ_section_title
;
Structure prediction by ZEFSAII (Michael W. Deem and Ramdas Pophale) SiO2 
 PCOD9366174
Probable space group: A B A 2
;
_chemical_formula_sum "Si O2"
_cell_formula_units_Z 56
_cell_length_a 9.380328
_cell_length_b 21.711048
_cell_length_c 13.208448
_cell_angle_alpha 90.000000
_cell_angle_beta 90.000000
_cell_angle_gamma 90.000000
_cell_volume 2689.989612
_symmetry_space_group_name_H-M "A B A 2"
_symmetry_group_IT_number 41
_symmetry_cell_setting 'orthorhombic'
loop_
_space_group_symop_operation_xyz
x,y,z
-x,-y,z
1/2-x,y,1/2+z
1/2+x,-y,1/2+z
x,1/2+y,1/2+z
-x,1/2-y,1/2+z
1/2-x,1/2+y,z
1/2+x,1/2-y,z
loop_
_atom_site_type_symbol
_atom_site_label
_atom_site_fract_x
_atom_site_fract_y
_atom_site_fract_z
Si Si1 0.320516 0.082856 0.886680
Si Si2 0.382607 0.949252 0.534100
Si Si3 0.543954 0.251541 0.859861
Si Si4 0.663512 0.523054 0.245379
Si Si5 0.859849 0.114998 0.400158
Si Si6 0.211145 0.196073 0.242143
Si Si7 0.894291 0.347759 0.533231
O O1 0.485150 0.083911 0.922720
O O2 0.307754 0.129045 0.791746
O O3 0.271742 0.019208 0.834708
O O4 0.223148 0.110765 0.974781
O O5 0.296607 0.979761 0.628044
O O6 0.266899 0.913613 0.466167
O O7 0.485435 0.894238 0.572787
O O8 0.500000 0.000000 0.494613
O O9 0.612886 0.187873 0.901132
O O10 0.391972 0.236515 0.812740
O O11 0.634193 0.278450 0.766582
O O12 0.544241 0.301450 0.948839
O O13 0.500000 0.500000 0.243519
O O14 0.673562 0.592303 0.286097
O O15 0.170938 0.190506 0.125684
#
# Coordination Sequence:
#
# PCOD9366174 Si02
#       7
#     8   8   8   8   8   8   8
#     4   9  20  39  59  83 113 151 196 246 299 360
#     4  11  21  35  60  89 112 147 195 242 299 362
#     4  10  22  37  56  86 121 156 202 250 297 366
#     4   9  18  35  58  79 109 145 184 235 292 354
#     4  10  20  36  57  82 114 150 190 237 292 351
#     4  10  21  38  58  83 116 156 199 247 305 361
#     4  11  22  38  60  84 118 159 198 247 308 370
#
# _framework density 20.817924000000001
#
# number of rings (size 3 to 8) (size 9 to 14) (size 15 to 20)
#    0.000    2.000    0.000    5.143    0.000    5.714 
#    0.000    2.857    0.000    7.714    0.000    0.000 
#    0.000    0.000    0.000    0.000    0.000    0.000 
#
# Total GULP energy -156053.312461 kJ/mol
# GULP energy per Si atom -5573.332588 kJ/mol
# Density = 2.077054 g / cm^3
# Si number density = 20.817924 Si / 1000 Ang^3
#
#
#
# Elastic Constant Matrix: (Units=GPa)
#
#
# Indices 1 2 3 4 5 6 
#
# 1 28.8516 12.7388 9.8049 0.0000 0.0000 0.0000
# 2 12.7388 69.8847 7.5531 0.0000 0.0000 0.0000
# 3 9.8049 7.5531 85.6138 0.0000 0.0000 0.0000
# 4 0.0000 0.0000 0.0000 20.9312 0.0000 0.0000
# 5 0.0000 0.0000 0.0000 0.0000 19.9067 0.0000
# 6 0.0000 0.0000 0.0000 0.0000 0.0000 16.6772
#
#
#
# Elastic Compliance Matrix: (Units=1/GPa)
#
#
# Indices 1 2 3 4 5 6 
#
# 1 0.038923 -0.006677 -0.003869 0.000000 0.000000 0.000000
# 2 -0.006677 0.015592 -0.000611 0.000000 0.000000 0.000000
# 3 -0.003869 -0.000611 0.012177 0.000000 0.000000 0.000000
# 4 0.000000 0.000000 0.000000 0.047775 0.000000 0.000000
# 5 0.000000 0.000000 0.000000 0.000000 0.050234 0.000000
# 6 0.000000 0.000000 0.000000 0.000000 0.000000 0.059962
#
#
# Mechanical properties :
#
#
# Convention : Reuss Voigt Hill
#
# Bulk Modulus (GPa) = 22.53276 27.17150 24.85213
# Shear Modulus (GPa) = 19.10070 21.78658 20.44364
#
# Velocity S-wave (km/s) = 3.03233 3.23852 3.13712
# Velocity P-wave (km/s) = 4.80700 5.20234 5.00857
#
# Compressibility (1/GPa) = 0.04437982
#
# Stress axis : x y z
#
# Youngs Moduli (GPa) = 25.69184 64.13379 82.11997
#
# Poissons Ratio (x) = 0.42821 0.31769
# Poissons Ratio (y) = 0.17154 0.05017
# Poissons Ratio (z) = 0.09939 0.03918
#
# Static dielectric constant tensor:
#      x y z
#    x 1.746800 0.000000 0.000000 
#    y 0.000000 1.805520 0.000000 
#    z 0.000000 0.000000 1.754670 
# 
# From -- ./inp_files/5078.got.cif
#   From: 2010.05.17/outbox.cif.g08.bks.cpg/sg41_3_cif.got.tgz:5078.got - 2010.06.03 18:54:24.
