data_PCOD9366414
_publ_section_title
;
Structure prediction by ZEFSAII (Michael W. Deem and Ramdas Pophale) SiO2 
 PCOD9366414
Probable space group: A B A 2
;
_chemical_formula_sum "Si O2"
_cell_formula_units_Z 60
_cell_length_a 12.675336
_cell_length_b 12.648734
_cell_length_c 16.526763
_cell_angle_alpha 90.000000
_cell_angle_beta 90.000000
_cell_angle_gamma 90.000000
_cell_volume 2649.685562
_symmetry_space_group_name_H-M "A B A 2"
_symmetry_group_IT_number 41
_symmetry_cell_setting 'orthorhombic'
loop_
_space_group_symop_operation_xyz
x,y,z
-x,-y,z
1/2-x,y,1/2+z
1/2+x,-y,1/2+z
x,1/2+y,1/2+z
-x,1/2-y,1/2+z
1/2-x,1/2+y,z
1/2+x,1/2-y,z
loop_
_atom_site_type_symbol
_atom_site_label
_atom_site_fract_x
_atom_site_fract_y
_atom_site_fract_z
Si Si1 0.873836 0.491448 0.754740
Si Si2 0.119573 0.805271 0.170321
Si Si3 0.500000 0.000000 0.396951
Si Si4 0.722000 0.270388 0.961131
Si Si5 0.045826 0.724501 0.332351
Si Si6 0.215458 0.132845 0.113678
Si Si7 0.332569 0.932689 0.523031
Si Si8 0.417562 0.088645 0.921579
O O1 0.825978 0.602026 0.724423
O O2 0.840268 0.396266 0.697437
O O3 0.857519 0.471105 0.848569
O O4 0.000000 0.500000 0.744437
O O5 0.045098 0.753742 0.237873
O O6 0.191294 0.710466 0.138812
O O7 0.092854 0.871029 0.088551
O O8 0.500453 0.892044 0.346791
O O9 0.400423 0.992728 0.456621
O O10 0.660057 0.278967 0.877218
O O11 0.825141 0.346606 0.965792
O O12 0.655957 0.304849 0.041127
O O13 0.760927 0.152569 0.978513
O O14 0.985558 0.817328 0.380334
O O15 0.233187 0.016610 0.075380
O O16 0.500000 0.000000 0.956620
#
# Coordination Sequence:
#
# PCOD9366414 Si02
#       8
#     8   8   4   8   8   8   8   8
#     4  10  20  40  69  92 129 179 227 279 345 427
#     4  10  22  41  64  94 132 169 230 281 342 417
#     4  12  24  44  70 100 138 182 238 288 358 420
#     4  11  24  41  65  99 137 177 234 283 350 416
#     4  12  24  43  70 103 137 180 232 301 349 421
#     4  10  22  39  64  96 129 178 228 280 345 419
#     4  10  23  42  66  92 135 185 224 281 348 435
#     4  11  23  42  68 101 135 182 233 286 356 424
#
# _framework density 22.644196000000001
#
# number of rings (size 3 to 8) (size 9 to 14) (size 15 to 20)
#    0.000    1.333    5.333    0.800    5.600    0.000 
#    4.800    1.333    5.867    0.000    0.000    0.000 
#    0.000    0.000    0.000    0.000    0.000    0.000 
#
# Total GULP energy -167243.426470 kJ/mol
# GULP energy per Si atom -5574.780882 kJ/mol
# Density = 2.259266 g / cm^3
# Si number density = 22.644196 Si / 1000 Ang^3
#
#
#
# Elastic Constant Matrix: (Units=GPa)
#
#
# Indices 1 2 3 4 5 6 
#
# 1 39.1703 33.8839 16.5477 0.0000 0.0000 0.0000
# 2 33.8839 141.6643 29.8111 0.0000 0.0000 0.0000
# 3 16.5477 29.8111 64.7680 0.0000 0.0000 0.0000
# 4 0.0000 0.0000 0.0000 58.4073 0.0000 0.0000
# 5 0.0000 0.0000 0.0000 0.0000 22.0773 0.0000
# 6 0.0000 0.0000 0.0000 0.0000 0.0000 32.7605
#
#
#
# Elastic Compliance Matrix: (Units=1/GPa)
#
#
# Indices 1 2 3 4 5 6 
#
# 1 0.033841 -0.006948 -0.005448 0.000000 0.000000 0.000000
# 2 -0.006948 0.009242 -0.002479 0.000000 0.000000 0.000000
# 3 -0.005448 -0.002479 0.017973 0.000000 0.000000 0.000000
# 4 0.000000 0.000000 0.000000 0.017121 0.000000 0.000000
# 5 0.000000 0.000000 0.000000 0.000000 0.045295 0.000000
# 6 0.000000 0.000000 0.000000 0.000000 0.000000 0.030525
#
#
# Mechanical properties :
#
#
# Convention : Reuss Voigt Hill
#
# Bulk Modulus (GPa) = 31.94236 45.12089 38.53162
# Shear Modulus (GPa) = 25.74892 33.67303 29.71097
#
# Velocity S-wave (km/s) = 3.37576 3.86041 3.62619
# Velocity P-wave (km/s) = 5.41583 6.31187 5.88094
#
# Compressibility (1/GPa) = 0.03130640
#
# Stress axis : x y z
#
# Youngs Moduli (GPa) = 29.54968 108.19687 55.63996
#
# Poissons Ratio (x) = 0.75173 0.30314
# Poissons Ratio (y) = 0.20531 0.13793
# Poissons Ratio (z) = 0.16099 0.26821
#
# Static dielectric constant tensor:
#      x y z
#    x 1.881680 0.000000 0.000000 
#    y 0.000000 1.866020 0.000000 
#    z 0.000000 0.000000 1.919820 
# 
# From -- ./inp_files/10370.got.cif
#   From: 2010.05.17/outbox.cif.g08.bks.cpg/sg41_6_cif.got.tgz:10370.got - 2010.06.03 18:54:24.
