data_PCOD9366119
_publ_section_title
;
Structure prediction by ZEFSAII (Michael W. Deem and Ramdas Pophale) SiO2 
 PCOD9366119
Probable space group: A B A 2
;
_chemical_formula_sum "Si O2"
_cell_formula_units_Z 64
_cell_length_a 17.848378
_cell_length_b 11.878537
_cell_length_c 11.089675
_cell_angle_alpha 90.000000
_cell_angle_beta 90.000000
_cell_angle_gamma 90.000000
_cell_volume 2351.151035
_symmetry_space_group_name_H-M "A B A 2"
_symmetry_group_IT_number 41
_symmetry_cell_setting 'orthorhombic'
loop_
_space_group_symop_operation_xyz
x,y,z
-x,-y,z
1/2-x,y,1/2+z
1/2+x,-y,1/2+z
x,1/2+y,1/2+z
-x,1/2-y,1/2+z
1/2-x,1/2+y,z
1/2+x,1/2-y,z
loop_
_atom_site_type_symbol
_atom_site_label
_atom_site_fract_x
_atom_site_fract_y
_atom_site_fract_z
Si Si1 0.814143 0.733151 0.120230
Si Si2 0.811867 0.085848 0.087000
Si Si3 0.896133 0.405246 0.438850
Si Si4 0.443114 0.913404 0.743098
Si Si5 0.137787 0.074186 0.439960
Si Si6 0.232214 0.087624 0.773459
Si Si7 0.563388 0.575473 0.637614
Si Si8 0.982612 0.263521 0.937690
O O1 0.754516 0.663602 0.040706
O O2 0.763867 0.799664 0.214257
O O3 0.875448 0.658900 0.192486
O O4 0.858250 0.813960 0.029836
O O5 0.876992 0.141193 0.167934
O O6 0.765826 0.005336 0.181566
O O7 0.864453 0.020166 0.994030
O O8 0.854245 0.402685 0.309686
O O9 0.981483 0.360129 0.440126
O O10 0.405438 0.999451 0.839026
O O11 0.500000 0.000000 0.677085
O O12 0.486570 0.817016 0.813232
O O13 0.223120 0.072389 0.400036
O O14 0.114737 0.010019 0.560045
O O15 0.103711 0.199615 0.442017
O O16 0.500000 0.500000 0.700597
O O17 0.518940 0.656479 0.542361
#
# Coordination Sequence:
#
# PCOD9366119 Si02
#       8
#     8   8   8   8   8   8   8   8
#     4  10  20  33  50  73 100 131 166 202 242 288
#     4  10  20  33  50  73 100 131 166 202 242 288
#     4  10  20  33  50  73 100 131 166 202 242 288
#     4   8  14  27  48  70  92 123 162 201 242 289
#     4   8  14  27  48  70  92 123 162 201 242 289
#     4  10  20  33  50  73 100 131 166 202 242 288
#     4   8  14  27  48  70  92 123 162 201 242 289
#     4   8  14  27  48  70  92 123 162 201 242 289
#
# _framework density 27.22071
#
# number of rings (size 3 to 8) (size 9 to 14) (size 15 to 20)
#    0.000    3.000    0.000    3.000    0.000    3.000 
#    0.000    2.500    0.000    9.000    0.000    0.000 
#    0.000    0.000    0.000    0.000    0.000    0.000 
#
# Total GULP energy -178902.105279 kJ/mol
# GULP energy per Si atom -5590.690790 kJ/mol
# Density = 2.715875 g / cm^3
# Si number density = 27.220710 Si / 1000 Ang^3
#
#
#
# Elastic Constant Matrix: (Units=GPa)
#
#
# Indices 1 2 3 4 5 6 
#
# 1 105.7084 9.9119 10.8953 0.0000 0.0000 0.0000
# 2 9.9119 53.8797 26.5083 0.0000 0.0000 0.0000
# 3 10.8953 26.5083 64.2421 0.0000 0.0000 0.0000
# 4 0.0000 0.0000 0.0000 17.8730 0.0000 0.0000
# 5 0.0000 0.0000 0.0000 0.0000 26.2112 0.0000
# 6 0.0000 0.0000 0.0000 0.0000 0.0000 36.7760
#
#
#
# Elastic Compliance Matrix: (Units=1/GPa)
#
#
# Indices 1 2 3 4 5 6 
#
# 1 0.009692 -0.001222 -0.001139 0.000000 0.000000 0.000000
# 2 -0.001222 0.023442 -0.009465 0.000000 0.000000 0.000000
# 3 -0.001139 -0.009465 0.019665 0.000000 0.000000 0.000000
# 4 0.000000 0.000000 0.000000 0.055950 0.000000 0.000000
# 5 0.000000 0.000000 0.000000 0.000000 0.038152 0.000000
# 6 0.000000 0.000000 0.000000 0.000000 0.000000 0.027192
#
#
# Mechanical properties :
#
#
# Convention : Reuss Voigt Hill
#
# Bulk Modulus (GPa) = 34.31195 35.38457 34.84826
# Shear Modulus (GPa) = 24.10088 27.93971 26.02030
#
# Velocity S-wave (km/s) = 2.97877 3.20724 3.09512
# Velocity P-wave (km/s) = 4.94603 5.17132 5.05993
#
# Compressibility (1/GPa) = 0.02914437
#
# Stress axis : x y z
#
# Youngs Moduli (GPa) = 103.17748 42.65916 50.85163
#
# Poissons Ratio (x) = 0.05215 0.05794
# Poissons Ratio (y) = 0.12613 0.48133
# Poissons Ratio (z) = 0.11755 0.40379
#
# Static dielectric constant tensor:
#      x y z
#    x 2.116710 0.000000 0.000000 
#    y 0.000000 2.192770 0.000000 
#    z 0.000000 0.000000 2.189450 
# 
# From -- ./inp_files/8901.got.cif
#   From: 2010.05.17/outbox.cif.g08.bks.cpg/sg41_5_cif.got.tgz:8901.got - 2010.06.03 18:54:24.
