data_PCOD9366829
_publ_section_title
;
Structure prediction by ZEFSAII (Michael W. Deem and Ramdas Pophale) SiO2 
 PCOD9366829
Probable space group: A B A 2
;
_chemical_formula_sum "Si O2"
_cell_formula_units_Z 32
_cell_length_a 13.804243
_cell_length_b 12.120630
_cell_length_c 8.200161
_cell_angle_alpha 90.000000
_cell_angle_beta 90.000000
_cell_angle_gamma 90.000000
_cell_volume 1372.019137
_symmetry_space_group_name_H-M "A B A 2"
_symmetry_group_IT_number 41
_symmetry_cell_setting 'orthorhombic'
loop_
_space_group_symop_operation_xyz
x,y,z
-x,-y,z
1/2-x,y,1/2+z
1/2+x,-y,1/2+z
x,1/2+y,1/2+z
-x,1/2-y,1/2+z
1/2-x,1/2+y,z
1/2+x,1/2-y,z
loop_
_atom_site_type_symbol
_atom_site_label
_atom_site_fract_x
_atom_site_fract_y
_atom_site_fract_z
Si Si1 0.213343 0.527687 0.675400
Si Si2 0.609883 0.039055 0.344495
Si Si3 0.906666 0.762702 0.194884
Si Si4 0.435634 0.894028 0.883299
O O1 0.327100 0.508848 0.694604
O O2 0.166088 0.500502 0.502987
O O3 0.182696 0.653547 0.703343
O O4 0.160103 0.445547 0.802470
O O5 0.608265 0.169852 0.330219
O O6 0.500000 0.000000 0.345913
O O7 0.001004 0.834112 0.241951
O O8 0.917514 0.695066 0.025961
O O9 0.500000 0.000000 0.937667
#
# Coordination Sequence:
#
# PCOD9366829 Si02
#       4
#     8   8   8   8
#     4  11  26  46  69 104 142 181 237 291 348 425
#     4  12  26  47  73 104 141 184 237 291 351 425
#     4  11  23  42  72 102 144 189 229 292 355 409
#     4  10  21  41  70 106 141 184 237 286 346 423
#
# _framework density 23.323288999999999
#
# number of rings (size 3 to 8) (size 9 to 14) (size 15 to 20)
#    0.000    1.000    0.000    7.500    0.000    8.000 
#    0.000    3.750    0.000    0.000    0.000    0.000 
#    0.000    0.000    0.000    0.000    0.000    0.000 
#
# Total GULP energy -89622.760355 kJ/mol
# GULP energy per Si atom -5601.422522 kJ/mol
# Density = 2.327020 g / cm^3
# Si number density = 23.323289 Si / 1000 Ang^3
#
#
#
# Elastic Constant Matrix: (Units=GPa)
#
#
# Indices 1 2 3 4 5 6 
#
# 1 173.3858 57.9724 53.2773 0.0000 0.0000 0.0000
# 2 57.9724 161.7251 43.8284 0.0000 0.0000 0.0000
# 3 53.2773 43.8284 73.4156 0.0000 0.0000 0.0000
# 4 0.0000 0.0000 0.0000 40.2654 0.0000 0.0000
# 5 0.0000 0.0000 0.0000 0.0000 37.4005 0.0000
# 6 0.0000 0.0000 0.0000 0.0000 0.0000 20.8459
#
#
#
# Elastic Compliance Matrix: (Units=1/GPa)
#
#
# Indices 1 2 3 4 5 6 
#
# 1 0.007712 -0.001489 -0.004708 0.000000 0.000000 0.000000
# 2 -0.001489 0.007664 -0.003495 0.000000 0.000000 0.000000
# 3 -0.004708 -0.003495 0.019124 0.000000 0.000000 0.000000
# 4 0.000000 0.000000 0.000000 0.024835 0.000000 0.000000
# 5 0.000000 0.000000 0.000000 0.000000 0.026738 0.000000
# 6 0.000000 0.000000 0.000000 0.000000 0.000000 0.047971
#
#
# Mechanical properties :
#
#
# Convention : Reuss Voigt Hill
#
# Bulk Modulus (GPa) = 66.15061 79.85362 73.00212
# Shear Modulus (GPa) = 31.55254 36.59891 34.07572
#
# Velocity S-wave (km/s) = 3.68208 3.96561 3.82647
# Velocity P-wave (km/s) = 6.81916 7.43506 7.13376
#
# Compressibility (1/GPa) = 0.01511702
#
# Stress axis : x y z
#
# Youngs Moduli (GPa) = 129.67202 130.47778 52.29017
#
# Poissons Ratio (x) = 0.19422 0.24617
# Poissons Ratio (y) = 0.19302 0.18276
# Poissons Ratio (z) = 0.61046 0.45604
#
# Static dielectric constant tensor:
#      x y z
#    x 1.888700 0.000000 0.000000 
#    y 0.000000 1.815740 0.000000 
#    z 0.000000 0.000000 1.953440 
# 
# From -- ./inp_files/2289.got.cif
#   From: 2010.05.17/outbox.cif.g08.bks.cpg/sg41_2_cif.got.tgz:2289.got - 2010.06.03 18:54:24.
