data_PCOD9366932
_publ_section_title
;
Structure prediction by ZEFSAII (Michael W. Deem and Ramdas Pophale) SiO2 
 PCOD9366932
Probable space group: A B A 2
;
_chemical_formula_sum "Si O2"
_cell_formula_units_Z 48
_cell_length_a 22.235020
_cell_length_b 7.755495
_cell_length_c 11.418485
_cell_angle_alpha 90.000000
_cell_angle_beta 90.000000
_cell_angle_gamma 90.000000
_cell_volume 1969.044505
_symmetry_space_group_name_H-M "A B A 2"
_symmetry_group_IT_number 41
_symmetry_cell_setting 'orthorhombic'
loop_
_space_group_symop_operation_xyz
x,y,z
-x,-y,z
1/2-x,y,1/2+z
1/2+x,-y,1/2+z
x,1/2+y,1/2+z
-x,1/2-y,1/2+z
1/2-x,1/2+y,z
1/2+x,1/2-y,z
loop_
_atom_site_type_symbol
_atom_site_label
_atom_site_fract_x
_atom_site_fract_y
_atom_site_fract_z
Si Si1 0.437053 0.923445 0.761720
Si Si2 0.347939 0.906606 0.552986
Si Si3 0.154721 0.968491 0.700484
Si Si4 0.935190 0.432932 0.383474
Si Si5 0.157598 0.048173 0.434304
Si Si6 0.772011 0.673485 0.751376
O O1 0.399954 0.865163 0.648114
O O2 0.445406 0.760249 0.844197
O O3 0.500000 0.000000 0.726158
O O4 0.397560 0.048834 0.843100
O O5 0.330038 0.743521 0.474349
O O6 0.291861 0.939136 0.636902
O O7 0.380291 0.048556 0.474618
O O8 0.092174 0.968549 0.770119
O O9 0.144628 0.964999 0.561611
O O10 0.191356 0.146086 0.739105
O O11 0.200692 0.818642 0.738208
O O12 0.000000 0.500000 0.423655
O O13 0.206912 0.932460 0.365904
#
# Coordination Sequence:
#
# PCOD9366932 Si02
#       6
#     8   8   8   8   8   8
#     4  11  23  46  68  95 138 182 228 281 339 409
#     4  10  23  46  67 102 137 175 236 283 341 405
#     4  11  25  44  67 105 138 178 234 282 351 416
#     4  12  25  46  67 104 140 182 233 283 344 418
#     4  10  21  45  66  97 140 177 222 288 344 405
#     4  10  24  43  69  99 140 179 227 289 346 412
#
# _framework density 24.377306999999998
#
# number of rings (size 3 to 8) (size 9 to 14) (size 15 to 20)
#    0.000    1.333    5.000    1.500    4.667    3.333 
#    9.000    0.000    0.000    0.000    0.000    0.000 
#    0.000    0.000    0.000    0.000    0.000    0.000 
#
# Total GULP energy -134152.011578 kJ/mol
# GULP energy per Si atom -5589.667149 kJ/mol
# Density = 2.432182 g / cm^3
# Si number density = 24.377307 Si / 1000 Ang^3
#
#
#
# Elastic Constant Matrix: (Units=GPa)
#
#
# Indices 1 2 3 4 5 6 
#
# 1 86.0570 4.5969 19.6231 0.0000 0.0000 0.0000
# 2 4.5969 89.8473 20.6819 0.0000 0.0000 0.0000
# 3 19.6231 20.6819 133.7794 0.0000 0.0000 0.0000
# 4 0.0000 0.0000 0.0000 32.6552 0.0000 0.0000
# 5 0.0000 0.0000 0.0000 0.0000 27.4931 0.0000
# 6 0.0000 0.0000 0.0000 0.0000 0.0000 30.2522
#
#
#
# Elastic Compliance Matrix: (Units=1/GPa)
#
#
# Indices 1 2 3 4 5 6 
#
# 1 0.012026 -0.000217 -0.001731 0.000000 0.000000 0.000000
# 2 -0.000217 0.011545 -0.001753 0.000000 0.000000 0.000000
# 3 -0.001731 -0.001753 0.008000 0.000000 0.000000 0.000000
# 4 0.000000 0.000000 0.000000 0.030623 0.000000 0.000000
# 5 0.000000 0.000000 0.000000 0.000000 0.036373 0.000000
# 6 0.000000 0.000000 0.000000 0.000000 0.000000 0.033055
#
#
# Mechanical properties :
#
#
# Convention : Reuss Voigt Hill
#
# Bulk Modulus (GPa) = 41.37362 44.38748 42.88055
# Shear Modulus (GPa) = 33.99521 35.73222 34.86371
#
# Velocity S-wave (km/s) = 3.73841 3.83273 3.78586
# Velocity P-wave (km/s) = 5.97020 6.15097 6.06126
#
# Compressibility (1/GPa) = 0.02416999
#
# Stress axis : x y z
#
# Youngs Moduli (GPa) = 83.15048 86.62055 125.00266
#
# Poissons Ratio (x) = 0.01879 0.21632
# Poissons Ratio (y) = 0.01804 0.21912
# Poissons Ratio (z) = 0.14389 0.15184
#
# Static dielectric constant tensor:
#      x y z
#    x 1.928200 0.000000 0.000000 
#    y 0.000000 2.056580 0.000000 
#    z 0.000000 0.000000 1.950270 
# 
# From -- ./inp_files/6384.got.cif
#   From: 2010.05.17/outbox.cif.g08.bks.cpg/sg41_4_cif.got.tgz:6384.got - 2010.06.03 18:54:24.
