data_PCOD9366659
_publ_section_title
;
Structure prediction by ZEFSAII (Michael W. Deem and Ramdas Pophale) SiO2 
 PCOD9366659
Probable space group: A B A 2
;
_chemical_formula_sum "Si O2"
_cell_formula_units_Z 60
_cell_length_a 24.208583
_cell_length_b 25.534322
_cell_length_c 5.090441
_cell_angle_alpha 90.000000
_cell_angle_beta 90.000000
_cell_angle_gamma 90.000000
_cell_volume 3146.654849
_symmetry_space_group_name_H-M "A B A 2"
_symmetry_group_IT_number 41
_symmetry_cell_setting 'orthorhombic'
loop_
_space_group_symop_operation_xyz
x,y,z
-x,-y,z
1/2-x,y,1/2+z
1/2+x,-y,1/2+z
x,1/2+y,1/2+z
-x,1/2-y,1/2+z
1/2-x,1/2+y,z
1/2+x,1/2-y,z
loop_
_atom_site_type_symbol
_atom_site_label
_atom_site_fract_x
_atom_site_fract_y
_atom_site_fract_z
Si Si1 0.551983 0.403276 0.009500
Si Si2 0.461482 0.751104 0.570524
Si Si3 0.102833 0.645563 0.033492
Si Si4 0.069296 0.863107 0.905590
Si Si5 0.401735 0.927622 0.912057
Si Si6 0.500000 0.000000 0.763966
Si Si7 0.211813 0.991027 0.397785
Si Si8 0.783852 0.385620 0.850048
O O1 0.570328 0.377054 0.281868
O O2 0.537038 0.462533 0.081086
O O3 0.595786 0.393546 0.780095
O O4 0.496062 0.376078 0.908408
O O5 0.494536 0.761823 0.839513
O O6 0.422670 0.701175 0.609044
O O7 0.427970 0.802063 0.475032
O O8 0.165539 0.649093 0.942748
O O9 0.093619 0.883172 0.633137
O O10 0.094984 0.898880 0.132814
O O11 0.345638 0.960644 0.929838
O O12 0.456655 0.964544 0.925934
O O13 0.254262 0.979390 0.633190
O O14 0.199663 0.053387 0.388475
O O15 0.766508 0.377090 0.550861
#
# Coordination Sequence:
#
# PCOD9366659 Si02
#       8
#     8   8   8   8   8   4   8   8
#     4  11  22  35  55  87 121 159 190 230 292 373
#     4  12  22  39  62  88 120 161 204 249 296 372
#     4  12  22  38  62  84 117 160 199 247 300 358
#     4  11  22  37  56  87 124 153 195 245 297 348
#     4  11  23  38  59  86 124 162 197 249 301 369
#     4  10  24  36  56  90 132 162 188 236 318 386
#     4  10  21  39  61  85 113 159 209 248 290 357
#     4  10  22  38  59  85 115 148 200 253 301 354
#
# _framework density 19.067869000000002
#
# number of rings (size 3 to 8) (size 9 to 14) (size 15 to 20)
#    0.000    1.067    2.667    4.800    0.000    9.067 
#    0.000    0.000    0.000    4.800    0.000    0.000 
#    0.000    0.000    0.000    0.000    0.000    0.000 
#
# Total GULP energy -167738.440553 kJ/mol
# GULP energy per Si atom -5591.281352 kJ/mol
# Density = 1.902447 g / cm^3
# Si number density = 19.067869 Si / 1000 Ang^3
#
#
#
# Elastic Constant Matrix: (Units=GPa)
#
#
# Indices 1 2 3 4 5 6 
#
# 1 59.9681 24.7948 -3.7951 0.0000 0.0000 0.0000
# 2 24.7948 51.5211 -9.5246 0.0000 0.0000 0.0000
# 3 -3.7951 -9.5246 51.8185 0.0000 0.0000 0.0000
# 4 0.0000 0.0000 0.0000 21.5912 0.0000 0.0000
# 5 0.0000 0.0000 0.0000 0.0000 16.5964 0.0000
# 6 0.0000 0.0000 0.0000 0.0000 0.0000 22.1528
#
#
#
# Elastic Compliance Matrix: (Units=1/GPa)
#
#
# Indices 1 2 3 4 5 6 
#
# 1 0.020823 -0.010082 -0.000328 0.000000 0.000000 0.000000
# 2 -0.010082 0.024974 0.003852 0.000000 0.000000 0.000000
# 3 -0.000328 0.003852 0.019982 0.000000 0.000000 0.000000
# 4 0.000000 0.000000 0.000000 0.046315 0.000000 0.000000
# 5 0.000000 0.000000 0.000000 0.000000 0.060254 0.000000
# 6 0.000000 0.000000 0.000000 0.000000 0.000000 0.045141
#
#
# Mechanical properties :
#
#
# Convention : Reuss Voigt Hill
#
# Bulk Modulus (GPa) = 18.98873 20.69532 19.84202
# Shear Modulus (GPa) = 20.14831 22.19025 21.16928
#
# Velocity S-wave (km/s) = 3.25416 3.41508 3.33559
# Velocity P-wave (km/s) = 4.90913 5.14076 5.02628
#
# Compressibility (1/GPa) = 0.05266283
#
# Stress axis : x y z
#
# Youngs Moduli (GPa) = 48.02302 40.04226 50.04475
#
# Poissons Ratio (x) = 0.40371 0.01642
# Poissons Ratio (y) = 0.48417 -0.19277
# Poissons Ratio (z) = 0.01576 -0.15424
#
# Static dielectric constant tensor:
#      x y z
#    x 1.654360 0.000000 0.000000 
#    y 0.000000 1.667810 0.000000 
#    z 0.000000 0.000000 1.667620 
# 
# From -- ./inp_files/789.got.cif
#   From: 2010.05.17/outbox.cif.g08.bks.cpg/sg41_1_cif.got.tgz:789.got - 2010.06.03 18:54:24.
