data_PCOD9366494
_publ_section_title
;
Structure prediction by ZEFSAII (Michael W. Deem and Ramdas Pophale) SiO2 
 PCOD9366494
Probable space group: A B A 2
;
_chemical_formula_sum "Si O2"
_cell_formula_units_Z 44
_cell_length_a 15.299496
_cell_length_b 10.672461
_cell_length_c 9.817823
_cell_angle_alpha 90.000000
_cell_angle_beta 90.000000
_cell_angle_gamma 90.000000
_cell_volume 1603.086287
_symmetry_space_group_name_H-M "A B A 2"
_symmetry_group_IT_number 41
_symmetry_cell_setting 'orthorhombic'
loop_
_space_group_symop_operation_xyz
x,y,z
-x,-y,z
1/2-x,y,1/2+z
1/2+x,-y,1/2+z
x,1/2+y,1/2+z
-x,1/2-y,1/2+z
1/2-x,1/2+y,z
1/2+x,1/2-y,z
loop_
_atom_site_type_symbol
_atom_site_label
_atom_site_fract_x
_atom_site_fract_y
_atom_site_fract_z
Si Si1 0.000000 0.500000 0.430230
Si Si2 0.180980 0.613259 0.169422
Si Si3 0.862742 0.335963 0.723053
Si Si4 0.627671 0.049130 0.940372
Si Si5 0.460399 0.257229 0.277375
Si Si6 0.178291 0.408029 0.408230
O O1 0.981702 0.379610 0.335333
O O2 0.906467 0.543063 0.493542
O O3 0.279868 0.645578 0.125025
O O4 0.133589 0.741764 0.208139
O O5 0.188211 0.518362 0.295653
O O6 0.117281 0.544647 0.064898
O O7 0.871268 0.462300 0.808186
O O8 0.839607 0.222692 0.829196
O O9 0.961257 0.302552 0.680779
O O10 0.556182 0.151971 0.905407
O O11 0.725175 0.101928 0.971165
#
# Coordination Sequence:
#
# PCOD9366494 Si02
#       6
#     4   8   8   8   8   8
#     4   8  18  38  66  86 124 184 212 276 370 392
#     4  10  22  41  67 100 130 189 235 280 364 429
#     4  10  21  42  61  96 148 177 224 309 357 409
#     4  11  22  39  70  97 132 184 237 283 354 433
#     4  10  20  43  66  98 144 178 235 302 351 425
#     4   9  19  40  62  88 139 172 222 296 343 416
#
# _framework density 27.447058999999999
#
# number of rings (size 3 to 8) (size 9 to 14) (size 15 to 20)
#    0.000    2.182    1.818    0.545    0.000    1.455 
#   19.636    1.818    0.000    0.000    0.000    0.000 
#    0.000    0.000    0.000    0.000    0.000    0.000 
#
# Total GULP energy -123052.580534 kJ/mol
# GULP energy per Si atom -5593.299115 kJ/mol
# Density = 2.738459 g / cm^3
# Si number density = 27.447059 Si / 1000 Ang^3
#
#
#
# Elastic Constant Matrix: (Units=GPa)
#
#
# Indices 1 2 3 4 5 6 
#
# 1 173.0365 53.4097 19.2297 0.0000 0.0000 0.0000
# 2 53.4097 139.3195 26.2625 0.0000 0.0000 0.0000
# 3 19.2297 26.2625 60.4694 0.0000 0.0000 0.0000
# 4 0.0000 0.0000 0.0000 42.7612 0.0000 0.0000
# 5 0.0000 0.0000 0.0000 0.0000 18.0666 0.0000
# 6 0.0000 0.0000 0.0000 0.0000 0.0000 23.4982
#
#
#
# Elastic Compliance Matrix: (Units=1/GPa)
#
#
# Indices 1 2 3 4 5 6 
#
# 1 0.006620 -0.002332 -0.001092 0.000000 0.000000 0.000000
# 2 -0.002332 0.008639 -0.003011 0.000000 0.000000 0.000000
# 3 -0.001092 -0.003011 0.018192 0.000000 0.000000 0.000000
# 4 0.000000 0.000000 0.000000 0.023386 0.000000 0.000000
# 5 0.000000 0.000000 0.000000 0.000000 0.055351 0.000000
# 6 0.000000 0.000000 0.000000 0.000000 0.000000 0.042556
#
#
# Mechanical properties :
#
#
# Convention : Reuss Voigt Hill
#
# Bulk Modulus (GPa) = 48.58679 63.40323 55.99501
# Shear Modulus (GPa) = 28.65734 35.12678 31.89206
#
# Velocity S-wave (km/s) = 3.23475 3.58131 3.41243
# Velocity P-wave (km/s) = 5.62956 6.34440 5.99764
#
# Compressibility (1/GPa) = 0.02058173
#
# Stress axis : x y z
#
# Youngs Moduli (GPa) = 151.04946 115.75071 54.96861
#
# Poissons Ratio (x) = 0.26994 0.06005
# Poissons Ratio (y) = 0.35225 0.16548
# Poissons Ratio (z) = 0.16502 0.34847
#
# Static dielectric constant tensor:
#      x y z
#    x 2.169280 0.000000 0.000000 
#    y 0.000000 2.070300 0.000000 
#    z 0.000000 0.000000 2.103710 
# 
# From -- ./inp_files/8299.got.cif
#   From: 2010.05.17/outbox.cif.g08.bks.cpg/sg41_5_cif.got.tgz:8299.got - 2010.06.03 18:54:24.
