data_PCOD9366112
_publ_section_title
;
Structure prediction by ZEFSAII (Michael W. Deem and Ramdas Pophale) SiO2 
 PCOD9366112
Probable space group: A B A 2
;
_chemical_formula_sum "Si O2"
_cell_formula_units_Z 48
_cell_length_a 24.397841
_cell_length_b 6.957684
_cell_length_c 11.624254
_cell_angle_alpha 90.000000
_cell_angle_beta 90.000000
_cell_angle_gamma 90.000000
_cell_volume 1973.245805
_symmetry_space_group_name_H-M "A B A 2"
_symmetry_group_IT_number 41
_symmetry_cell_setting 'orthorhombic'
loop_
_space_group_symop_operation_xyz
x,y,z
-x,-y,z
1/2-x,y,1/2+z
1/2+x,-y,1/2+z
x,1/2+y,1/2+z
-x,1/2-y,1/2+z
1/2-x,1/2+y,z
1/2+x,1/2-y,z
loop_
_atom_site_type_symbol
_atom_site_label
_atom_site_fract_x
_atom_site_fract_y
_atom_site_fract_z
Si Si1 0.293576 0.753685 0.747660
Si Si2 0.383053 0.410325 0.419602
Si Si3 0.174061 0.351814 0.295220
Si Si4 0.357379 0.327274 0.034033
Si Si5 0.427241 0.318438 0.663438
Si Si6 0.950546 0.724237 0.705295
O O1 0.329388 0.841909 0.850394
O O2 0.314649 0.539980 0.719929
O O3 0.231011 0.741077 0.787062
O O4 0.309150 0.853849 0.627440
O O5 0.367185 0.617998 0.473766
O O6 0.405784 0.305819 0.533677
O O7 0.430556 0.368974 0.324563
O O8 0.159589 0.437610 0.419742
O O9 0.121906 0.245930 0.243454
O O10 0.413329 0.363239 0.103137
O O11 0.484903 0.216106 0.683709
O O12 0.436628 0.544621 0.699463
#
# Coordination Sequence:
#
# PCOD9366112 Si02
#       6
#     8   8   8   8   8   8
#     4  11  25  44  62  96 128 171 218 268 323 383
#     4  10  19  44  67  91 133 169 212 265 325 379
#     4  12  24  43  67  93 130 172 216 267 328 380
#     4  10  23  43  66  95 127 173 212 266 323 386
#     4  10  21  40  68  98 131 171 211 268 329 384
#     4   9  20  42  68  97 133 169 211 266 329 393
#
# _framework density 24.325406000000001
#
# number of rings (size 3 to 8) (size 9 to 14) (size 15 to 20)
#    0.000    1.667    5.000    1.000    4.667    1.333 
#    6.000    0.000    0.000    0.000    0.000    0.000 
#    0.000    0.000    0.000    0.000    0.000    0.000 
#
# Total GULP energy -134111.568005 kJ/mol
# GULP energy per Si atom -5587.982000 kJ/mol
# Density = 2.427004 g / cm^3
# Si number density = 24.325406 Si / 1000 Ang^3
#
#
#
# Elastic Constant Matrix: (Units=GPa)
#
#
# Indices 1 2 3 4 5 6 
#
# 1 221.4808 13.6341 91.8500 0.0000 0.0000 0.0000
# 2 13.6341 66.6441 21.6316 0.0000 0.0000 0.0000
# 3 91.8500 21.6316 206.3886 0.0000 0.0000 0.0000
# 4 0.0000 0.0000 0.0000 32.9525 0.0000 0.0000
# 5 0.0000 0.0000 0.0000 0.0000 20.4467 0.0000
# 6 0.0000 0.0000 0.0000 0.0000 0.0000 22.0069
#
#
#
# Elastic Compliance Matrix: (Units=1/GPa)
#
#
# Indices 1 2 3 4 5 6 
#
# 1 0.005545 -0.000345 -0.002431 0.000000 0.000000 0.000000
# 2 -0.000345 0.015555 -0.001477 0.000000 0.000000 0.000000
# 3 -0.002431 -0.001477 0.006082 0.000000 0.000000 0.000000
# 4 0.000000 0.000000 0.000000 0.030347 0.000000 0.000000
# 5 0.000000 0.000000 0.000000 0.000000 0.048908 0.000000
# 6 0.000000 0.000000 0.000000 0.000000 0.000000 0.045440
#
#
# Mechanical properties :
#
#
# Convention : Reuss Voigt Hill
#
# Bulk Modulus (GPa) = 53.54691 83.19388 68.37040
# Shear Modulus (GPa) = 30.01061 39.57442 34.79252
#
# Velocity S-wave (km/s) = 3.51624 4.03783 3.78603
# Velocity P-wave (km/s) = 6.20852 7.48421 6.87602
#
# Compressibility (1/GPa) = 0.01867521
#
# Stress axis : x y z
#
# Youngs Moduli (GPa) = 180.35496 64.28796 164.41831
#
# Poissons Ratio (x) = 0.02219 0.39976
# Poissons Ratio (y) = 0.06225 0.24280
# Poissons Ratio (z) = 0.43851 0.09494
#
# Static dielectric constant tensor:
#      x y z
#    x 1.943430 0.000000 0.000000 
#    y 0.000000 2.059760 0.000000 
#    z 0.000000 0.000000 1.897960 
# 
# From -- ./inp_files/6397.got.cif
#   From: 2010.05.17/outbox.cif.g08.bks.cpg/sg41_4_cif.got.tgz:6397.got - 2010.06.03 18:54:24.
