data_PCOD9366952
_publ_section_title
;
Structure prediction by ZEFSAII (Michael W. Deem and Ramdas Pophale) SiO2 
 PCOD9366952
Probable space group: A B A 2
;
_chemical_formula_sum "Si O2"
_cell_formula_units_Z 44
_cell_length_a 5.055410
_cell_length_b 22.237061
_cell_length_c 19.165079
_cell_angle_alpha 90.000000
_cell_angle_beta 90.000000
_cell_angle_gamma 90.000000
_cell_volume 2154.489512
_symmetry_space_group_name_H-M "A B A 2"
_symmetry_group_IT_number 41
_symmetry_cell_setting 'orthorhombic'
loop_
_space_group_symop_operation_xyz
x,y,z
-x,-y,z
1/2-x,y,1/2+z
1/2+x,-y,1/2+z
x,1/2+y,1/2+z
-x,1/2-y,1/2+z
1/2-x,1/2+y,z
1/2+x,1/2-y,z
loop_
_atom_site_type_symbol
_atom_site_label
_atom_site_fract_x
_atom_site_fract_y
_atom_site_fract_z
Si Si1 0.459938 0.071175 0.572230
Si Si2 0.500000 0.706319 0.777759
Si Si3 0.500000 0.000000 0.277759
Si Si4 0.959938 0.071175 0.483289
Si Si5 0.801623 0.608895 0.713172
Si Si6 0.801622 0.891105 0.342347
O O1 0.165306 0.083626 0.546064
O O2 0.544028 0.106210 0.641162
O O3 0.665306 0.083626 0.509455
O O4 0.500000 0.000000 0.586801
O O5 0.250000 0.750000 0.777759
O O6 0.571995 0.659073 0.716144
O O7 0.428005 0.659073 0.839374
O O8 0.673202 0.044112 0.229994
O O9 0.326799 0.044112 0.325524
O O10 0.044028 0.106210 0.414357
O O11 0.000000 0.000000 0.468717
O O12 1.000000 0.621194 0.777759
#
# Coordination Sequence:
#
# PCOD9366952 Si02
#       6
#     8   8   4   8   8   8
#     4  10  23  37  58  91 134 171 204 248 319 397
#     4  11  24  43  66  95 116 161 222 274 320 369
#     4  10  22  32  60 102 128 152 218 252 332 368
#     4  10  23  37  58  91 134 171 204 248 319 397
#     4  11  23  39  66  92 131 166 211 273 315 396
#     4  11  23  39  66  92 131 166 211 273 315 396
#
# _framework density 20.422469
#
# number of rings (size 3 to 8) (size 9 to 14) (size 15 to 20)
#    0.000    1.455    1.818    2.727   17.818    0.000 
#    0.000    0.000    0.000    6.545    0.000    0.000 
#    0.000    0.000    0.000    0.000    0.000    0.000 
#
# Total GULP energy -122895.838318 kJ/mol
# GULP energy per Si atom -5586.174469 kJ/mol
# Density = 2.037599 g / cm^3
# Si number density = 20.422469 Si / 1000 Ang^3
#
#
#
# Elastic Constant Matrix: (Units=GPa)
#
#
# Indices 1 2 3 4 5 6 
#
# 1 93.7925 38.8386 7.3970 0.0000 0.0000 0.0000
# 2 38.8386 109.7835 25.1490 0.0000 0.0000 0.0000
# 3 7.3970 25.1490 85.2244 0.0000 0.0000 0.0000
# 4 0.0000 0.0000 0.0000 9.5657 0.0000 0.0000
# 5 0.0000 0.0000 0.0000 0.0000 38.6846 0.0000
# 6 0.0000 0.0000 0.0000 0.0000 0.0000 48.1737
#
#
#
# Elastic Compliance Matrix: (Units=1/GPa)
#
#
# Indices 1 2 3 4 5 6 
#
# 1 0.012496 -0.004475 0.000236 0.000000 0.000000 0.000000
# 2 -0.004475 0.011372 -0.002967 0.000000 0.000000 0.000000
# 3 0.000236 -0.002967 0.012589 0.000000 0.000000 0.000000
# 4 0.000000 0.000000 0.000000 0.104540 0.000000 0.000000
# 5 0.000000 0.000000 0.000000 0.000000 0.025850 0.000000
# 6 0.000000 0.000000 0.000000 0.000000 0.000000 0.020758
#
#
# Mechanical properties :
#
#
# Convention : Reuss Voigt Hill
#
# Bulk Modulus (GPa) = 45.36332 47.95216 46.65774
# Shear Modulus (GPa) = 23.88160 33.77917 28.83039
#
# Velocity S-wave (km/s) = 3.42333 4.07138 3.76133
# Velocity P-wave (km/s) = 6.15518 6.75519 6.46215
#
# Compressibility (1/GPa) = 0.02204424
#
# Stress axis : x y z
#
# Youngs Moduli (GPa) = 80.02407 87.93777 79.43518
#
# Poissons Ratio (x) = 0.39351 -0.01874
# Poissons Ratio (y) = 0.35810 0.23571
# Poissons Ratio (z) = -0.01888 0.26094
#
# Static dielectric constant tensor:
#      x y z
#    x 3.787440 0.000000 0.000000 
#    y 0.000000 1.736250 0.000000 
#    z 0.000000 0.000000 1.717160 
# 
# From -- ./inp_files/9410.got.cif
#   From: 2010.05.17/outbox.cif.g08.bks.cpg/sg41_5_cif.got.tgz:9410.got - 2010.06.03 18:54:24.
