data_PCOD9366830
_publ_section_title
;
Structure prediction by ZEFSAII (Michael W. Deem and Ramdas Pophale) SiO2 
 PCOD9366830
Probable space group: A B A 2
;
_chemical_formula_sum "Si O2"
_cell_formula_units_Z 52
_cell_length_a 13.019874
_cell_length_b 8.731064
_cell_length_c 21.709922
_cell_angle_alpha 90.000000
_cell_angle_beta 90.000000
_cell_angle_gamma 90.000000
_cell_volume 2467.926470
_symmetry_space_group_name_H-M "A B A 2"
_symmetry_group_IT_number 41
_symmetry_cell_setting 'orthorhombic'
loop_
_space_group_symop_operation_xyz
x,y,z
-x,-y,z
1/2-x,y,1/2+z
1/2+x,-y,1/2+z
x,1/2+y,1/2+z
-x,1/2-y,1/2+z
1/2-x,1/2+y,z
1/2+x,1/2-y,z
loop_
_atom_site_type_symbol
_atom_site_label
_atom_site_fract_x
_atom_site_fract_y
_atom_site_fract_z
Si Si1 0.711790 0.475579 0.772150
Si Si2 0.614419 0.539927 0.504194
Si Si3 0.525418 0.333805 0.697084
Si Si4 0.889281 0.759740 0.306894
Si Si5 0.667447 0.095408 0.650393
Si Si6 0.500000 0.500000 0.384903
Si Si7 0.289171 0.173493 0.564991
O O1 0.620865 0.377130 0.741661
O O2 0.657776 0.592947 0.819492
O O3 0.793460 0.371664 0.805811
O O4 0.777198 0.549613 0.714915
O O5 0.500000 0.500000 0.529050
O O6 0.595763 0.524895 0.431013
O O7 0.646528 0.712319 0.521980
O O8 0.698807 0.419909 0.529563
O O9 0.500000 0.500000 0.668193
O O10 0.433212 0.272515 0.738606
O O11 0.564790 0.193240 0.658085
O O12 0.975983 0.848766 0.345051
O O13 0.742220 0.212230 0.615489
O O14 0.652631 0.952825 0.605264
#
# Coordination Sequence:
#
# PCOD9366830 Si02
#       7
#     8   8   8   8   8   4   8
#     4  11  21  40  61  98 140 165 213 264 319 429
#     4   9  23  47  65  92 132 163 242 296 324 397
#     4  10  22  38  60 100 140 171 214 269 316 418
#     4  11  23  40  65  92 130 175 214 268 333 393
#     4  11  19  38  63  99 132 171 216 248 342 415
#     4  10  24  44  68  92 124 176 232 284 348 372
#     4  10  21  41  70  93 131 179 216 282 341 392
#
# _framework density 21.070319999999999
#
# number of rings (size 3 to 8) (size 9 to 14) (size 15 to 20)
#    0.462    1.231    3.077    0.923    0.000    1.846 
#    8.308    2.308   10.154    0.000    0.000    0.000 
#    0.000    0.000    0.000    0.000    0.000    0.000 
#
# Total GULP energy -145007.167767 kJ/mol
# GULP energy per Si atom -5577.198760 kJ/mol
# Density = 2.102236 g / cm^3
# Si number density = 21.070320 Si / 1000 Ang^3
#
#
#
# Elastic Constant Matrix: (Units=GPa)
#
#
# Indices 1 2 3 4 5 6 
#
# 1 73.8104 38.5422 1.1517 0.0000 0.0000 0.0000
# 2 38.5422 142.0676 26.1057 0.0000 0.0000 0.0000
# 3 1.1517 26.1057 23.6059 0.0000 0.0000 0.0000
# 4 0.0000 0.0000 0.0000 14.6218 0.0000 0.0000
# 5 0.0000 0.0000 0.0000 0.0000 25.2287 0.0000
# 6 0.0000 0.0000 0.0000 0.0000 0.0000 52.8610
#
#
#
# Elastic Compliance Matrix: (Units=1/GPa)
#
#
# Indices 1 2 3 4 5 6 
#
# 1 0.016264 -0.005355 0.005128 0.000000 0.000000 0.000000
# 2 -0.005355 0.010597 -0.011458 0.000000 0.000000 0.000000
# 3 0.005128 -0.011458 0.054783 0.000000 0.000000 0.000000
# 4 0.000000 0.000000 0.000000 0.068391 0.000000 0.000000
# 5 0.000000 0.000000 0.000000 0.000000 0.039637 0.000000
# 6 0.000000 0.000000 0.000000 0.000000 0.000000 0.018918
#
#
# Mechanical properties :
#
#
# Convention : Reuss Voigt Hill
#
# Bulk Modulus (GPa) = 17.15975 41.23145 29.19560
# Shear Modulus (GPa) = 19.88978 30.12125 25.00552
#
# Velocity S-wave (km/s) = 3.07575 3.78505 3.44868
# Velocity P-wave (km/s) = 4.55800 6.22199 5.45383
#
# Compressibility (1/GPa) = 0.05827589
#
# Stress axis : x y z
#
# Youngs Moduli (GPa) = 61.48415 94.36547 18.25369
#
# Poissons Ratio (x) = 0.50531 -0.09361
# Poissons Ratio (y) = 0.32923 0.20915
# Poissons Ratio (z) = -0.31531 1.08124
#
# Static dielectric constant tensor:
#      x y z
#    x 1.742540 0.000000 0.000000 
#    y 0.000000 1.828910 0.000000 
#    z 0.000000 0.000000 1.781490 
# 
# From -- ./inp_files/12193.got.cif
#   From: 2010.05.17/outbox.cif.g08.bks.cpg/sg41_7_cif.got.tgz:12193.got - 2010.06.03 18:54:24.
