data_PCOD9366096
_publ_section_title
;
Structure prediction by ZEFSAII (Michael W. Deem and Ramdas Pophale) SiO2 
 PCOD9366096
Probable space group: A B A 2
;
_chemical_formula_sum "Si O2"
_cell_formula_units_Z 60
_cell_length_a 9.089182
_cell_length_b 24.824717
_cell_length_c 12.020190
_cell_angle_alpha 90.000000
_cell_angle_beta 90.000000
_cell_angle_gamma 90.000000
_cell_volume 2712.192049
_symmetry_space_group_name_H-M "A B A 2"
_symmetry_group_IT_number 41
_symmetry_cell_setting 'orthorhombic'
loop_
_space_group_symop_operation_xyz
x,y,z
-x,-y,z
1/2-x,y,1/2+z
1/2+x,-y,1/2+z
x,1/2+y,1/2+z
-x,1/2-y,1/2+z
1/2-x,1/2+y,z
1/2+x,1/2-y,z
loop_
_atom_site_type_symbol
_atom_site_label
_atom_site_fract_x
_atom_site_fract_y
_atom_site_fract_z
Si Si1 0.230353 0.798156 0.154310
Si Si2 0.724852 0.000115 0.101762
Si Si3 0.500000 0.000000 0.746147
Si Si4 0.405583 0.614922 0.564273
Si Si5 0.756502 0.289233 0.463244
Si Si6 0.838117 0.581200 0.912038
Si Si7 0.513569 0.246554 0.307326
Si Si8 0.640964 0.104142 0.222982
O O1 0.369247 0.785877 0.234066
O O2 0.241908 0.862438 0.146461
O O3 0.087795 0.778901 0.220836
O O4 0.250105 0.762802 0.044279
O O5 0.735814 0.037939 0.994118
O O6 0.644241 0.946693 0.061822
O O7 0.647145 0.041018 0.189221
O O8 0.870482 0.981512 0.164683
O O9 0.565049 0.047336 0.822901
O O10 0.279547 0.657493 0.534879
O O11 0.544297 0.617273 0.479185
O O12 0.478459 0.622411 0.685988
O O13 0.618092 0.284037 0.381112
O O14 0.905062 0.285765 0.390718
O O15 0.708294 0.610549 0.845103
#
# Coordination Sequence:
#
# PCOD9366096 Si02
#       8
#     8   8   4   8   8   8   8   8
#     4  11  22  43  62  95 129 164 220 266 314 391
#     4  10  22  41  62  95 126 168 220 257 320 391
#     4  10  20  42  60  90 126 168 216 256 322 376
#     4  11  21  42  64  95 130 167 216 266 323 383
#     4  11  23  43  67  92 131 170 204 278 321 372
#     4  10  19  41  63  88 132 172 201 272 320 374
#     4  10  23  41  63  95 125 166 221 255 329 387
#     4  10  21  37  66  91 123 172 209 256 327 384
#
# _framework density 22.122326000000001
#
# number of rings (size 3 to 8) (size 9 to 14) (size 15 to 20)
#    0.000    1.600    1.333    4.400    0.000    3.200 
#   24.000    0.000    0.000    0.000    0.000    0.000 
#    0.000    0.000    0.000    0.000    0.000    0.000 
#
# Total GULP energy -167414.162371 kJ/mol
# GULP energy per Si atom -5580.472079 kJ/mol
# Density = 2.207197 g / cm^3
# Si number density = 22.122326 Si / 1000 Ang^3
#
#
#
# Elastic Constant Matrix: (Units=GPa)
#
#
# Indices 1 2 3 4 5 6 
#
# 1 79.7392 -8.2365 22.4047 0.0000 0.0000 0.0000
# 2 -8.2365 59.5346 -9.2096 0.0000 0.0000 0.0000
# 3 22.4047 -9.2096 66.1596 0.0000 0.0000 0.0000
# 4 0.0000 0.0000 0.0000 29.2570 0.0000 0.0000
# 5 0.0000 0.0000 0.0000 0.0000 53.0682 0.0000
# 6 0.0000 0.0000 0.0000 0.0000 0.0000 15.8663
#
#
#
# Elastic Compliance Matrix: (Units=1/GPa)
#
#
# Indices 1 2 3 4 5 6 
#
# 1 0.013947 0.001225 -0.004552 0.000000 0.000000 0.000000
# 2 0.001225 0.017274 0.001990 0.000000 0.000000 0.000000
# 3 -0.004552 0.001990 0.016934 0.000000 0.000000 0.000000
# 4 0.000000 0.000000 0.000000 0.034180 0.000000 0.000000
# 5 0.000000 0.000000 0.000000 0.000000 0.018844 0.000000
# 6 0.000000 0.000000 0.000000 0.000000 0.000000 0.063027
#
#
# Mechanical properties :
#
#
# Convention : Reuss Voigt Hill
#
# Bulk Modulus (GPa) = 21.98794 23.92786 22.95790
# Shear Modulus (GPa) = 27.46659 33.00328 30.23493
#
# Velocity S-wave (km/s) = 3.52743 3.86664 3.70092
# Velocity P-wave (km/s) = 5.15278 5.54745 5.35375
#
# Compressibility (1/GPa) = 0.04547948
#
# Stress axis : x y z
#
# Youngs Moduli (GPa) = 71.70232 57.88965 59.05426
#
# Poissons Ratio (x) = -0.07093 0.26884
# Poissons Ratio (y) = -0.08785 -0.11750
# Poissons Ratio (z) = 0.32642 -0.11518
#
# Static dielectric constant tensor:
#      x y z
#    x 1.847270 0.000000 0.000000 
#    y 0.000000 1.927070 0.000000 
#    z 0.000000 0.000000 1.863590 
# 
# From -- ./inp_files/4594.got.cif
#   From: 2010.05.17/outbox.cif.g08.bks.cpg/sg41_3_cif.got.tgz:4594.got - 2010.06.03 18:54:24.
