data_PCOD9366552
_publ_section_title
;
Structure prediction by ZEFSAII (Michael W. Deem and Ramdas Pophale) SiO2 
 PCOD9366552
Probable space group: A B A 2
;
_chemical_formula_sum "Si O2"
_cell_formula_units_Z 64
_cell_length_a 15.462363
_cell_length_b 22.920261
_cell_length_c 8.884920
_cell_angle_alpha 90.000000
_cell_angle_beta 90.000000
_cell_angle_gamma 90.000000
_cell_volume 3148.828048
_symmetry_space_group_name_H-M "A B A 2"
_symmetry_group_IT_number 41
_symmetry_cell_setting 'orthorhombic'
loop_
_space_group_symop_operation_xyz
x,y,z
-x,-y,z
1/2-x,y,1/2+z
1/2+x,-y,1/2+z
x,1/2+y,1/2+z
-x,1/2-y,1/2+z
1/2-x,1/2+y,z
1/2+x,1/2-y,z
loop_
_atom_site_type_symbol
_atom_site_label
_atom_site_fract_x
_atom_site_fract_y
_atom_site_fract_z
Si Si1 0.053239 0.337387 0.304690
Si Si2 0.825373 0.224129 0.016219
Si Si3 0.146296 0.647309 0.885000
Si Si4 0.022014 0.430111 0.842550
Si Si5 0.610787 0.265836 0.824804
Si Si6 0.481502 0.065627 0.496340
Si Si7 0.814001 0.868471 0.037584
Si Si8 0.142897 0.842167 0.496028
O O1 0.095066 0.313950 0.458497
O O2 0.974754 0.295349 0.257754
O O3 0.014454 0.397966 0.355811
O O4 0.121086 0.343630 0.171922
O O5 0.829092 0.242751 0.190315
O O6 0.844548 0.285151 0.931734
O O7 0.739666 0.185553 0.981775
O O8 0.057027 0.611608 0.898271
O O9 0.176392 0.646133 0.712005
O O10 0.217721 0.616693 0.989569
O O11 0.023137 0.421299 0.660949
O O12 0.000000 0.500000 0.867915
O O13 0.108920 0.402131 0.917908
O O14 0.586404 0.209262 0.920410
O O15 0.654202 0.313567 0.935168
O O16 0.380573 0.079719 0.510544
O O17 0.500000 0.000000 0.465067
#
# Coordination Sequence:
#
# PCOD9366552 Si02
#       8
#     8   8   8   8   8   8   8   8
#     4  11  23  38  61  94 127 171 212 267 330 393
#     4  12  24  39  62  95 136 170 207 271 329 395
#     4  11  21  39  64  94 126 165 217 261 335 393
#     4  10  23  45  69  91 125 178 226 275 326 401
#     4  11  21  38  61  92 130 167 210 260 332 399
#     4   9  21  44  67  89 124 169 227 270 329 396
#     4  10  21  36  64  95 124 167 209 270 325 400
#     4  12  24  39  59  94 131 165 216 272 330 389
#
# _framework density 20.325023000000002
#
# number of rings (size 3 to 8) (size 9 to 14) (size 15 to 20)
#    0.000    1.250    1.250    5.250    0.000    3.500 
#    2.250    0.000    0.000    0.000    0.000    0.000 
#    0.000    0.000    0.000    0.000    0.000    0.000 
#
# Total GULP energy -178499.399108 kJ/mol
# GULP energy per Si atom -5578.106222 kJ/mol
# Density = 2.027876 g / cm^3
# Si number density = 20.325023 Si / 1000 Ang^3
#
#
#
# Elastic Constant Matrix: (Units=GPa)
#
#
# Indices 1 2 3 4 5 6 
#
# 1 73.6721 46.1012 23.3796 0.0000 0.0000 0.0000
# 2 46.1012 90.7316 17.2399 0.0000 0.0000 0.0000
# 3 23.3796 17.2399 36.9077 0.0000 0.0000 0.0000
# 4 0.0000 0.0000 0.0000 8.7902 0.0000 0.0000
# 5 0.0000 0.0000 0.0000 0.0000 32.9404 0.0000
# 6 0.0000 0.0000 0.0000 0.0000 0.0000 20.8580
#
#
#
# Elastic Compliance Matrix: (Units=1/GPa)
#
#
# Indices 1 2 3 4 5 6 
#
# 1 0.022783 -0.009694 -0.009904 0.000000 0.000000 0.000000
# 2 -0.009694 0.016220 -0.001436 0.000000 0.000000 0.000000
# 3 -0.009904 -0.001436 0.034039 0.000000 0.000000 0.000000
# 4 0.000000 0.000000 0.000000 0.113763 0.000000 0.000000
# 5 0.000000 0.000000 0.000000 0.000000 0.030358 0.000000
# 6 0.000000 0.000000 0.000000 0.000000 0.000000 0.047943
#
#
# Mechanical properties :
#
#
# Convention : Reuss Voigt Hill
#
# Bulk Modulus (GPa) = 32.28463 41.63920 36.96192
# Shear Modulus (GPa) = 15.74811 20.15709 17.95260
#
# Velocity S-wave (km/s) = 2.78657 3.15260 2.97522
# Velocity P-wave (km/s) = 5.12562 5.81232 5.47973
#
# Compressibility (1/GPa) = 0.03097449
#
# Stress axis : x y z
#
# Youngs Moduli (GPa) = 43.89257 61.65228 29.37815
#
# Poissons Ratio (x) = 0.59767 0.29096
# Poissons Ratio (y) = 0.42551 0.04217
# Poissons Ratio (z) = 0.43470 0.08851
#
# Static dielectric constant tensor:
#      x y z
#    x 1.799710 0.000000 0.000000 
#    y 0.000000 1.743290 0.000000 
#    z 0.000000 0.000000 1.733890 
# 
# From -- ./inp_files/2805.got.cif
#   From: 2010.05.17/outbox.cif.g08.bks.cpg/sg41_2_cif.got.tgz:2805.got - 2010.06.03 18:54:24.
