data_PCOD9366295
_publ_section_title
;
Structure prediction by ZEFSAII (Michael W. Deem and Ramdas Pophale) SiO2 
 PCOD9366295
Probable space group: A B A 2
;
_chemical_formula_sum "Si O2"
_cell_formula_units_Z 48
_cell_length_a 9.143567
_cell_length_b 11.346206
_cell_length_c 17.978074
_cell_angle_alpha 90.000000
_cell_angle_beta 90.000000
_cell_angle_gamma 90.000000
_cell_volume 1865.131597
_symmetry_space_group_name_H-M "A B A 2"
_symmetry_group_IT_number 41
_symmetry_cell_setting 'orthorhombic'
loop_
_space_group_symop_operation_xyz
x,y,z
-x,-y,z
1/2-x,y,1/2+z
1/2+x,-y,1/2+z
x,1/2+y,1/2+z
-x,1/2-y,1/2+z
1/2-x,1/2+y,z
1/2+x,1/2-y,z
loop_
_atom_site_type_symbol
_atom_site_label
_atom_site_fract_x
_atom_site_fract_y
_atom_site_fract_z
Si Si1 0.141891 0.436391 0.561420
Si Si2 0.807822 0.079764 0.813147
Si Si3 0.805002 0.916067 0.437447
Si Si4 0.806838 0.721115 0.179719
Si Si5 0.492020 0.211852 0.430597
Si Si6 0.597864 0.406931 0.678988
O O1 0.248330 0.516912 0.510725
O O2 0.235828 0.367207 0.620961
O O3 0.062692 0.348096 0.503298
O O4 0.000000 0.500000 0.595428
O O5 0.746900 0.184830 0.761530
O O6 0.935317 0.139830 0.862285
O O7 0.859048 0.983580 0.751639
O O8 0.709421 0.007509 0.869924
O O9 0.679928 0.813997 0.427585
O O10 0.956627 0.846473 0.435681
O O11 0.980231 0.699465 0.185790
O O12 0.748257 0.847764 0.155765
O O13 0.500000 0.500000 0.633026
#
# Coordination Sequence:
#
# PCOD9366295 Si02
#       6
#     8   8   8   8   8   8
#     4   9  22  41  62  88 123 168 215 265 325 393
#     4  10  21  40  63  93 130 169 213 266 325 390
#     4  10  20  40  65  92 125 165 216 268 322 391
#     4  11  22  39  63  90 125 170 213 266 329 382
#     4  10  20  38  64  88 123 167 208 263 327 381
#     4  10  23  40  61  91 128 165 211 266 320 385
#
# _framework density 25.73545
#
# number of rings (size 3 to 8) (size 9 to 14) (size 15 to 20)
#    0.000    2.000    0.000    5.500    0.000    8.000 
#    0.000    8.333    0.000    0.000    0.000    0.000 
#    0.000    0.000    0.000    0.000    0.000    0.000 
#
# Total GULP energy -134215.383890 kJ/mol
# GULP energy per Si atom -5592.307662 kJ/mol
# Density = 2.567688 g / cm^3
# Si number density = 25.735450 Si / 1000 Ang^3
#
#
#
# Elastic Constant Matrix: (Units=GPa)
#
#
# Indices 1 2 3 4 5 6 
#
# 1 108.8422 40.2997 31.3748 0.0000 0.0000 0.0000
# 2 40.2997 62.4385 -0.0476 0.0000 0.0000 0.0000
# 3 31.3748 -0.0476 94.9789 0.0000 0.0000 0.0000
# 4 0.0000 0.0000 0.0000 32.9806 0.0000 0.0000
# 5 0.0000 0.0000 0.0000 0.0000 22.6436 0.0000
# 6 0.0000 0.0000 0.0000 0.0000 0.0000 56.4917
#
#
#
# Elastic Compliance Matrix: (Units=1/GPa)
#
#
# Indices 1 2 3 4 5 6 
#
# 1 0.013803 -0.008912 -0.004564 0.000000 0.000000 0.000000
# 2 -0.008912 0.021770 0.002955 0.000000 0.000000 0.000000
# 3 -0.004564 0.002955 0.012038 0.000000 0.000000 0.000000
# 4 0.000000 0.000000 0.000000 0.030321 0.000000 0.000000
# 5 0.000000 0.000000 0.000000 0.000000 0.044163 0.000000
# 6 0.000000 0.000000 0.000000 0.000000 0.000000 0.017702
#
#
# Mechanical properties :
#
#
# Convention : Reuss Voigt Hill
#
# Bulk Modulus (GPa) = 37.63900 45.50148 41.57024
# Shear Modulus (GPa) = 29.46452 35.39872 32.43162
#
# Velocity S-wave (km/s) = 3.38731 3.71278 3.55377
# Velocity P-wave (km/s) = 5.47317 6.00820 5.74691
#
# Compressibility (1/GPa) = 0.02656819
#
# Stress axis : x y z
#
# Youngs Moduli (GPa) = 72.44716 45.93401 83.07154
#
# Poissons Ratio (x) = 0.40938 0.37915
# Poissons Ratio (y) = 0.64568 -0.24548
# Poissons Ratio (z) = 0.33066 -0.13573
#
# Static dielectric constant tensor:
#      x y z
#    x 2.064710 0.000000 0.000000 
#    y 0.000000 2.098050 0.000000 
#    z 0.000000 0.000000 2.042920 
# 
# From -- ./inp_files/9980.got.cif
#   From: 2010.05.17/outbox.cif.g08.bks.cpg/sg41_5_cif.got.tgz:9980.got - 2010.06.03 18:54:24.
