data_PCOD9366987
_publ_section_title
;
Structure prediction by ZEFSAII (Michael W. Deem and Ramdas Pophale) SiO2 
 PCOD9366987
Probable space group: A B A 2
;
_chemical_formula_sum "Si O2"
_cell_formula_units_Z 64
_cell_length_a 5.155628
_cell_length_b 30.898480
_cell_length_c 19.761435
_cell_angle_alpha 90.000000
_cell_angle_beta 90.000000
_cell_angle_gamma 90.000000
_cell_volume 3148.017713
_symmetry_space_group_name_H-M "A B A 2"
_symmetry_group_IT_number 41
_symmetry_cell_setting 'orthorhombic'
loop_
_space_group_symop_operation_xyz
x,y,z
-x,-y,z
1/2-x,y,1/2+z
1/2+x,-y,1/2+z
x,1/2+y,1/2+z
-x,1/2-y,1/2+z
1/2-x,1/2+y,z
1/2+x,1/2-y,z
loop_
_atom_site_type_symbol
_atom_site_label
_atom_site_fract_x
_atom_site_fract_y
_atom_site_fract_z
Si Si1 0.196947 0.853075 0.747130
Si Si2 0.857391 0.460968 0.035426
Si Si3 0.648701 0.405601 0.925736
Si Si4 0.844665 0.721187 0.846766
Si Si5 0.163696 0.852586 0.456016
Si Si6 0.286500 0.096647 0.781683
Si Si7 0.228804 0.887536 0.599399
Si Si8 0.613837 0.458686 0.165493
O O1 0.294008 0.808782 0.780837
O O2 0.419818 0.887483 0.769816
O O3 0.167764 0.858743 0.665893
O O4 0.915343 0.863832 0.777737
O O5 0.746147 0.482184 0.102692
O O6 0.000000 0.500000 0.998246
O O7 0.023377 0.421410 0.066940
O O8 0.651675 0.440495 0.985049
O O9 0.365637 0.385350 0.920672
O O10 0.744678 0.423842 0.854520
O O11 0.869669 0.370136 0.946266
O O12 0.629089 0.758422 0.846566
O O13 0.814120 0.691587 0.914074
O O14 0.259206 0.855565 0.534474
O O15 0.210667 0.065961 0.719463
O O16 0.449268 0.920331 0.628706
O O17 0.500000 0.500000 0.204610
#
# Coordination Sequence:
#
# PCOD9366987 Si02
#       8
#     8   8   8   8   8   8   8   8
#     4  11  22  40  64  92 121 159 207 250 297 385
#     4  11  21  35  58  88 127 166 212 261 303 346
#     4  11  21  38  61  89 123 168 211 252 300 357
#     4  12  24  42  66  96 123 156 193 252 322 374
#     4  11  22  40  64  92 121 159 207 250 297 385
#     4  11  21  38  61  89 123 168 211 252 300 357
#     4  10  22  38  62  86 120 170 212 244 304 356
#     4  11  21  35  58  88 127 166 212 261 303 346
#
# _framework density 20.330255000000001
#
# number of rings (size 3 to 8) (size 9 to 14) (size 15 to 20)
#    0.000    1.000    6.250    1.500    0.000    0.500 
#    0.000    1.250    0.000    5.250    0.000    0.000 
#    0.000    0.000    0.000    0.000    0.000    0.000 
#
# Total GULP energy -178248.771384 kJ/mol
# GULP energy per Si atom -5570.274106 kJ/mol
# Density = 2.028398 g / cm^3
# Si number density = 20.330255 Si / 1000 Ang^3
#
#
#
# Elastic Constant Matrix: (Units=GPa)
#
#
# Indices 1 2 3 4 5 6 
#
# 1 50.6467 -8.5409 -7.7049 0.0000 0.0000 0.0000
# 2 -8.5409 53.2421 19.3131 0.0000 0.0000 0.0000
# 3 -7.7049 19.3131 126.8128 0.0000 0.0000 0.0000
# 4 0.0000 0.0000 0.0000 124.4341 0.0000 0.0000
# 5 0.0000 0.0000 0.0000 0.0000 23.0574 0.0000
# 6 0.0000 0.0000 0.0000 0.0000 0.0000 30.3635
#
#
#
# Elastic Compliance Matrix: (Units=1/GPa)
#
#
# Indices 1 2 3 4 5 6 
#
# 1 0.020367 0.002983 0.000783 0.000000 0.000000 0.000000
# 2 0.002983 0.020317 -0.002913 0.000000 0.000000 0.000000
# 3 0.000783 -0.002913 0.008377 0.000000 0.000000 0.000000
# 4 0.000000 0.000000 0.000000 0.008036 0.000000 0.000000
# 5 0.000000 0.000000 0.000000 0.000000 0.043370 0.000000
# 6 0.000000 0.000000 0.000000 0.000000 0.000000 0.032934
#
#
# Mechanical properties :
#
#
# Convention : Reuss Voigt Hill
#
# Bulk Modulus (GPa) = 19.69766 26.31515 23.00640
# Shear Modulus (GPa) = 33.64334 50.74662 42.19498
#
# Velocity S-wave (km/s) = 4.07239 5.00153 4.56068
# Velocity P-wave (km/s) = 5.64113 6.80630 6.25092
#
# Compressibility (1/GPa) = 0.05076746
#
# Stress axis : x y z
#
# Youngs Moduli (GPa) = 49.09946 49.21907 119.37650
#
# Poissons Ratio (x) = -0.14683 -0.09349
# Poissons Ratio (y) = -0.14647 0.34774
# Poissons Ratio (z) = -0.03845 0.14338
#
# Static dielectric constant tensor:
#      x y z
#    x 1.819460 0.000000 0.000000 
#    y 0.000000 1.704390 0.000000 
#    z 0.000000 0.000000 1.760470 
# 
# From -- ./inp_files/9512.got.cif
#   From: 2010.05.17/outbox.cif.g08.bks.cpg/sg41_5_cif.got.tgz:9512.got - 2010.06.03 18:54:24.
