data_PCOD9366606
_publ_section_title
;
Structure prediction by ZEFSAII (Michael W. Deem and Ramdas Pophale) SiO2 
 PCOD9366606
Probable space group: A B A 2
;
_chemical_formula_sum "Si O2"
_cell_formula_units_Z 48
_cell_length_a 14.253862
_cell_length_b 17.389960
_cell_length_c 9.709752
_cell_angle_alpha 90.000000
_cell_angle_beta 90.000000
_cell_angle_gamma 90.000000
_cell_volume 2406.795941
_symmetry_space_group_name_H-M "A B A 2"
_symmetry_group_IT_number 41
_symmetry_cell_setting 'orthorhombic'
loop_
_space_group_symop_operation_xyz
x,y,z
-x,-y,z
1/2-x,y,1/2+z
1/2+x,-y,1/2+z
x,1/2+y,1/2+z
-x,1/2-y,1/2+z
1/2-x,1/2+y,z
1/2+x,1/2-y,z
loop_
_atom_site_type_symbol
_atom_site_label
_atom_site_fract_x
_atom_site_fract_y
_atom_site_fract_z
Si Si1 0.193266 0.090650 0.060290
Si Si2 0.209750 0.917875 0.136886
Si Si3 0.767966 0.818711 0.320536
Si Si4 0.011821 0.349392 0.549800
Si Si5 0.828150 0.160375 0.414609
Si Si6 0.017437 0.222558 0.335281
O O1 0.234045 0.156753 0.161365
O O2 0.080333 0.098480 0.066692
O O3 0.224787 0.007100 0.107558
O O4 0.227591 0.111541 0.909151
O O5 0.108846 0.893209 0.073790
O O6 0.205156 0.899459 0.298325
O O7 0.286362 0.865259 0.059764
O O8 0.711331 0.742662 0.362919
O O9 0.876657 0.804871 0.356274
O O10 0.008955 0.305854 0.404432
O O11 0.004760 0.285959 0.672913
O O12 0.940046 0.168984 0.408860
#
# Coordination Sequence:
#
# PCOD9366606 Si02
#       6
#     8   8   8   8   8   8
#     4  11  23  39  60  89 122 155 193 241 297 347
#     4  11  23  39  60  89 122 155 193 241 297 347
#     4  11  22  39  62  88 116 158 197 243 287 347
#     4  10  21  38  60  86 119 154 194 240 293 342
#     4  11  22  39  62  88 116 158 197 243 287 347
#     4  10  22  36  60  90 116 148 200 244 286 342
#
# _framework density 19.943527
#
# number of rings (size 3 to 8) (size 9 to 14) (size 15 to 20)
#    0.000    1.333    3.333    2.500    4.667    0.000 
#    0.000    2.500    0.000    0.000    0.000    0.000 
#    0.000    0.000    0.000    0.000    0.000    0.000 
#
# Total GULP energy -134090.050296 kJ/mol
# GULP energy per Si atom -5587.085429 kJ/mol
# Density = 1.989813 g / cm^3
# Si number density = 19.943527 Si / 1000 Ang^3
#
#
#
# Elastic Constant Matrix: (Units=GPa)
#
#
# Indices 1 2 3 4 5 6 
#
# 1 48.3409 -12.5826 4.5042 0.0000 0.0000 0.0000
# 2 -12.5826 62.4504 -5.0903 0.0000 0.0000 0.0000
# 3 4.5042 -5.0903 30.5458 0.0000 0.0000 0.0000
# 4 0.0000 0.0000 0.0000 32.2610 0.0000 0.0000
# 5 0.0000 0.0000 0.0000 0.0000 22.0329 0.0000
# 6 0.0000 0.0000 0.0000 0.0000 0.0000 12.1010
#
#
#
# Elastic Compliance Matrix: (Units=1/GPa)
#
#
# Indices 1 2 3 4 5 6 
#
# 1 0.022024 0.004230 -0.002543 0.000000 0.000000 0.000000
# 2 0.004230 0.017046 0.002217 0.000000 0.000000 0.000000
# 3 -0.002543 0.002217 0.033482 0.000000 0.000000 0.000000
# 4 0.000000 0.000000 0.000000 0.030997 0.000000 0.000000
# 5 0.000000 0.000000 0.000000 0.000000 0.045387 0.000000
# 6 0.000000 0.000000 0.000000 0.000000 0.000000 0.082638
#
#
# Mechanical properties :
#
#
# Convention : Reuss Voigt Hill
#
# Bulk Modulus (GPa) = 12.44385 12.77774 12.61080
# Shear Modulus (GPa) = 19.95594 23.57937 21.76766
#
# Velocity S-wave (km/s) = 3.16669 3.44220 3.30732
# Velocity P-wave (km/s) = 4.42986 4.71372 4.57400
#
# Compressibility (1/GPa) = 0.08036096
#
# Stress axis : x y z
#
# Youngs Moduli (GPa) = 45.40413 58.66571 29.86670
#
# Poissons Ratio (x) = -0.24817 0.07594
# Poissons Ratio (y) = -0.19207 -0.06621
# Poissons Ratio (z) = 0.11545 -0.13005
#
# Static dielectric constant tensor:
#      x y z
#    x 1.692780 0.000000 0.000000 
#    y 0.000000 1.687200 0.000000 
#    z 0.000000 0.000000 1.689020 
# 
# From -- ./inp_files/2512.got.cif
#   From: 2010.05.17/outbox.cif.g08.bks.cpg/sg41_2_cif.got.tgz:2512.got - 2010.06.03 18:54:24.
