data_PCOD9366905
_publ_section_title
;
Structure prediction by ZEFSAII (Michael W. Deem and Ramdas Pophale) SiO2 
 PCOD9366905
Probable space group: A B A 2
;
_chemical_formula_sum "Si O2"
_cell_formula_units_Z 60
_cell_length_a 17.221693
_cell_length_b 9.490996
_cell_length_c 16.368540
_cell_angle_alpha 90.000000
_cell_angle_beta 90.000000
_cell_angle_gamma 90.000000
_cell_volume 2675.454549
_symmetry_space_group_name_H-M "A B A 2"
_symmetry_group_IT_number 41
_symmetry_cell_setting 'orthorhombic'
loop_
_space_group_symop_operation_xyz
x,y,z
-x,-y,z
1/2-x,y,1/2+z
1/2+x,-y,1/2+z
x,1/2+y,1/2+z
-x,1/2-y,1/2+z
1/2-x,1/2+y,z
1/2+x,1/2-y,z
loop_
_atom_site_type_symbol
_atom_site_label
_atom_site_fract_x
_atom_site_fract_y
_atom_site_fract_z
Si Si1 0.302444 0.731105 0.303820
Si Si2 0.408159 0.982421 0.768712
Si Si3 0.822634 0.689661 0.118500
Si Si4 0.667336 0.365773 0.585119
Si Si5 0.000000 0.000000 0.858221
Si Si6 0.410817 0.050466 0.587029
Si Si7 0.368834 0.670988 0.769477
Si Si8 0.622302 0.157227 0.453199
O O1 0.367571 0.611232 0.313217
O O2 0.317513 0.812224 0.217984
O O3 0.220572 0.652588 0.294427
O O4 0.313056 0.826949 0.383152
O O5 0.379580 0.995457 0.674343
O O6 0.387261 0.828813 0.798936
O O7 0.500000 0.000000 0.768378
O O8 0.822182 0.533513 0.082989
O O9 0.749221 0.782816 0.090168
O O10 0.897069 0.782592 0.091799
O O11 0.625708 0.335211 0.671508
O O12 0.622816 0.294329 0.510262
O O13 0.069663 0.064832 0.806523
O O14 0.959918 0.122779 0.910939
O O15 0.366287 0.976086 0.513169
O O16 0.500000 0.000000 0.581929
#
# Coordination Sequence:
#
# PCOD9366905 Si02
#       8
#     8   8   8   8   4   8   8   8
#     4  10  25  42  76 106 149 184 253 299 367 432
#     4  10  21  44  72 101 139 199 243 297 352 446
#     4  10  23  45  73 108 138 195 246 303 355 456
#     4  11  24  44  77 106 142 186 257 299 366 439
#     4  12  28  46  72 104 156 192 240 306 386 430
#     4  10  21  43  72  99 146 195 236 290 376 434
#     4  11  25  45  76 104 140 204 248 296 362 457
#     4  12  24  47  69 109 146 188 235 316 364 434
#
# _framework density 22.426095
#
# number of rings (size 3 to 8) (size 9 to 14) (size 15 to 20)
#    0.000    1.333    2.000    2.400   11.200    4.267 
#    2.400    1.333    0.000    0.000    0.000    0.000 
#    0.000    0.000    0.000    0.000    0.000    0.000 
#
# Total GULP energy -167816.672748 kJ/mol
# GULP energy per Si atom -5593.889092 kJ/mol
# Density = 2.237505 g / cm^3
# Si number density = 22.426095 Si / 1000 Ang^3
#
#
#
# Elastic Constant Matrix: (Units=GPa)
#
#
# Indices 1 2 3 4 5 6 
#
# 1 91.5683 42.6281 49.5113 0.0000 0.0000 0.0000
# 2 42.6281 158.3812 47.0406 0.0000 0.0000 0.0000
# 3 49.5113 47.0406 105.8051 0.0000 0.0000 0.0000
# 4 0.0000 0.0000 0.0000 28.7288 0.0000 0.0000
# 5 0.0000 0.0000 0.0000 0.0000 17.3242 0.0000
# 6 0.0000 0.0000 0.0000 0.0000 0.0000 40.3504
#
#
#
# Elastic Compliance Matrix: (Units=1/GPa)
#
#
# Indices 1 2 3 4 5 6 
#
# 1 0.015312 -0.002296 -0.006144 0.000000 0.000000 0.000000
# 2 -0.002296 0.007619 -0.002313 0.000000 0.000000 0.000000
# 3 -0.006144 -0.002313 0.013355 0.000000 0.000000 0.000000
# 4 0.000000 0.000000 0.000000 0.034808 0.000000 0.000000
# 5 0.000000 0.000000 0.000000 0.000000 0.057723 0.000000
# 6 0.000000 0.000000 0.000000 0.000000 0.000000 0.024783
#
#
# Mechanical properties :
#
#
# Convention : Reuss Voigt Hill
#
# Bulk Modulus (GPa) = 67.66387 70.45720 69.06053
# Shear Modulus (GPa) = 27.77273 31.71899 29.74586
#
# Velocity S-wave (km/s) = 3.52292 3.76490 3.64592
# Velocity P-wave (km/s) = 6.83999 7.09824 6.97031
#
# Compressibility (1/GPa) = 0.01477894
#
# Stress axis : x y z
#
# Youngs Moduli (GPa) = 65.30795 131.25358 74.87935
#
# Poissons Ratio (x) = 0.30140 0.46008
# Poissons Ratio (y) = 0.14997 0.17318
# Poissons Ratio (z) = 0.40127 0.30356
#
# Static dielectric constant tensor:
#      x y z
#    x 1.841840 0.000000 0.000000 
#    y 0.000000 1.839040 0.000000 
#    z 0.000000 0.000000 1.845690 
# 
# From -- ./inp_files/10599.got.cif
#   From: 2010.05.17/outbox.cif.g08.bks.cpg/sg41_6_cif.got.tgz:10599.got - 2010.06.03 18:54:24.
