data_PCOD9366217
_publ_section_title
;
Structure prediction by ZEFSAII (Michael W. Deem and Ramdas Pophale) SiO2 
 PCOD9366217
Probable space group: A B A 2
;
_chemical_formula_sum "Si O2"
_cell_formula_units_Z 60
_cell_length_a 24.687930
_cell_length_b 22.857198
_cell_length_c 5.287386
_cell_angle_alpha 90.000000
_cell_angle_beta 90.000000
_cell_angle_gamma 90.000000
_cell_volume 2983.655551
_symmetry_space_group_name_H-M "A B A 2"
_symmetry_group_IT_number 41
_symmetry_cell_setting 'orthorhombic'
loop_
_space_group_symop_operation_xyz
x,y,z
-x,-y,z
1/2-x,y,1/2+z
1/2+x,-y,1/2+z
x,1/2+y,1/2+z
-x,1/2-y,1/2+z
1/2-x,1/2+y,z
1/2+x,1/2-y,z
loop_
_atom_site_type_symbol
_atom_site_label
_atom_site_fract_x
_atom_site_fract_y
_atom_site_fract_z
Si Si1 0.602820 0.005934 0.369770
Si Si2 0.888901 0.834247 0.541693
Si Si3 0.268645 0.652616 0.325254
Si Si4 0.000000 0.500000 0.009263
Si Si5 0.534277 0.734048 0.202788
Si Si6 0.072392 0.607380 0.541862
Si Si7 0.224288 0.018381 0.765329
Si Si8 0.958194 0.601109 0.634590
O O1 0.660678 0.993697 0.247242
O O2 0.590625 0.069037 0.490610
O O3 0.553163 0.992120 0.182100
O O4 0.595446 0.957409 0.589401
O O5 0.828650 0.842909 0.435936
O O6 0.913526 0.771761 0.618643
O O7 0.923756 0.857333 0.302548
O O8 0.893915 0.869068 0.804779
O O9 0.232705 0.680208 0.547393
O O10 0.243946 0.586921 0.279681
O O11 0.982814 0.555315 0.837240
O O12 0.507980 0.756626 0.467187
O O13 0.551124 0.666241 0.232206
O O14 0.010216 0.607637 0.451756
O O15 0.254952 0.992463 0.527087
#
# Coordination Sequence:
#
# PCOD9366217 Si02
#       8
#     8   8   8   4   8   8   8   8
#     4  12  25  39  65 100 146 180 219 287 347 418
#     4  12  23  40  68  93 134 175 217 284 333 389
#     4  10  20  37  59  94 122 160 219 277 334 381
#     4  12  24  42  64 100 142 184 222 278 350 424
#     4  12  26  44  64  95 136 180 223 270 329 408
#     4  12  21  38  63  95 132 175 214 263 334 402
#     4  10  22  40  61  93 130 174 224 277 335 399
#     4  12  25  39  61  97 140 180 225 267 341 420
#
# _framework density 20.109562
#
# number of rings (size 3 to 8) (size 9 to 14) (size 15 to 20)
#    0.000    0.533    5.333    4.800    3.733    0.000 
#    0.000    0.000    0.000    1.600    0.000    0.000 
#    0.000    0.000    0.000    0.000    0.000    0.000 
#
# Total GULP energy -167318.165838 kJ/mol
# GULP energy per Si atom -5577.272195 kJ/mol
# Density = 2.006379 g / cm^3
# Si number density = 20.109562 Si / 1000 Ang^3
#
#
#
# Elastic Constant Matrix: (Units=GPa)
#
#
# Indices 1 2 3 4 5 6 
#
# 1 111.0670 18.4579 12.4385 0.0000 0.0000 0.0000
# 2 18.4579 119.9474 20.5644 0.0000 0.0000 0.0000
# 3 12.4385 20.5644 116.5779 0.0000 0.0000 0.0000
# 4 0.0000 0.0000 0.0000 14.0371 0.0000 0.0000
# 5 0.0000 0.0000 0.0000 0.0000 28.0704 0.0000
# 6 0.0000 0.0000 0.0000 0.0000 0.0000 24.7818
#
#
#
# Elastic Compliance Matrix: (Units=1/GPa)
#
#
# Indices 1 2 3 4 5 6 
#
# 1 0.009305 -0.001301 -0.000763 0.000000 0.000000 0.000000
# 2 -0.001301 0.008779 -0.001410 0.000000 0.000000 0.000000
# 3 -0.000763 -0.001410 0.008908 0.000000 0.000000 0.000000
# 4 0.000000 0.000000 0.000000 0.071240 0.000000 0.000000
# 5 0.000000 0.000000 0.000000 0.000000 0.035625 0.000000
# 6 0.000000 0.000000 0.000000 0.000000 0.000000 0.040352
#
#
# Mechanical properties :
#
#
# Convention : Reuss Voigt Hill
#
# Bulk Modulus (GPa) = 49.89045 50.05709 49.97377
# Shear Modulus (GPa) = 26.61855 33.11994 29.86925
#
# Velocity S-wave (km/s) = 3.64218 4.06270 3.85817
# Velocity P-wave (km/s) = 6.52308 6.85227 6.68970
#
# Compressibility (1/GPa) = 0.02004391
#
# Stress axis : x y z
#
# Youngs Moduli (GPa) = 107.46587 113.90952 112.25752
#
# Poissons Ratio (x) = 0.14820 0.08569
# Poissons Ratio (y) = 0.13982 0.15826
# Poissons Ratio (z) = 0.08203 0.16059
#
# Static dielectric constant tensor:
#      x y z
#    x 1.773510 0.000000 0.000000 
#    y 0.000000 1.806810 0.000000 
#    z 0.000000 0.000000 1.811290 
# 
# From -- ./inp_files/1016.got.cif
#   From: 2010.05.17/outbox.cif.g08.bks.cpg/sg41_1_cif.got.tgz:1016.got - 2010.06.03 18:54:24.
