data_PCOD9366885
_publ_section_title
;
Structure prediction by ZEFSAII (Michael W. Deem and Ramdas Pophale) SiO2 
 PCOD9366885
Probable space group: A B A 2
;
_chemical_formula_sum "Si O2"
_cell_formula_units_Z 36
_cell_length_a 8.488128
_cell_length_b 13.190682
_cell_length_c 13.340633
_cell_angle_alpha 90.000000
_cell_angle_beta 90.000000
_cell_angle_gamma 90.000000
_cell_volume 1493.673264
_symmetry_space_group_name_H-M "A B A 2"
_symmetry_group_IT_number 41
_symmetry_cell_setting 'orthorhombic'
loop_
_space_group_symop_operation_xyz
x,y,z
-x,-y,z
1/2-x,y,1/2+z
1/2+x,-y,1/2+z
x,1/2+y,1/2+z
-x,1/2-y,1/2+z
1/2-x,1/2+y,z
1/2+x,1/2-y,z
loop_
_atom_site_type_symbol
_atom_site_label
_atom_site_fract_x
_atom_site_fract_y
_atom_site_fract_z
Si Si1 0.590694 0.158148 0.167030
Si Si2 0.087902 0.183646 0.997255
Si Si3 0.000000 0.000000 0.421579
Si Si4 0.372093 0.208103 0.861469
Si Si5 0.780973 0.964732 0.606159
O O1 0.613314 0.234273 0.257986
O O2 0.412843 0.112643 0.152468
O O3 0.709940 0.063188 0.175176
O O4 0.623820 0.220286 0.066809
O O5 0.201375 0.175144 0.900645
O O6 0.924484 0.211379 0.946747
O O7 0.123148 0.091403 0.072649
O O8 0.977814 0.894305 0.363547
O O9 0.855331 0.001291 0.500181
#
# Coordination Sequence:
#
# PCOD9366885 Si02
#       5
#     8   8   4   8   8
#     4  10  21  43  64  95 130 176 217 280 333 397
#     4  11  21  42  65  97 130 175 217 282 334 403
#     4   8  16  42  62  86 124 178 198 270 332 396
#     4  11  23  39  73  93 132 177 229 270 348 398
#     4   9  19  43  65  84 141 170 206 280 339 383
#
# _framework density 24.101655999999998
#
# number of rings (size 3 to 8) (size 9 to 14) (size 15 to 20)
#    0.000    2.222    6.667    0.000    3.111    0.000 
#   12.000    0.000    0.000    0.000    0.000    0.000 
#    0.000    0.000    0.000    0.000    0.000    0.000 
#
# Total GULP energy -100438.771988 kJ/mol
# GULP energy per Si atom -5579.931777 kJ/mol
# Density = 2.404680 g / cm^3
# Si number density = 24.101656 Si / 1000 Ang^3
#
#
#
# Elastic Constant Matrix: (Units=GPa)
#
#
# Indices 1 2 3 4 5 6 
#
# 1 28.2120 6.3837 8.8976 0.0000 0.0000 0.0000
# 2 6.3837 130.2382 59.9829 0.0000 0.0000 0.0000
# 3 8.8976 59.9829 122.2161 0.0000 0.0000 0.0000
# 4 0.0000 0.0000 0.0000 57.8831 0.0000 0.0000
# 5 0.0000 0.0000 0.0000 0.0000 9.5226 0.0000
# 6 0.0000 0.0000 0.0000 0.0000 0.0000 29.7662
#
#
#
# Elastic Compliance Matrix: (Units=1/GPa)
#
#
# Indices 1 2 3 4 5 6 
#
# 1 0.036332 -0.000727 -0.002288 0.000000 0.000000 0.000000
# 2 -0.000727 0.009935 -0.004823 0.000000 0.000000 0.000000
# 3 -0.002288 -0.004823 0.010716 0.000000 0.000000 0.000000
# 4 0.000000 0.000000 0.000000 0.017276 0.000000 0.000000
# 5 0.000000 0.000000 0.000000 0.000000 0.105013 0.000000
# 6 0.000000 0.000000 0.000000 0.000000 0.000000 0.033595
#
#
# Mechanical properties :
#
#
# Convention : Reuss Voigt Hill
#
# Bulk Modulus (GPa) = 24.20928 47.91054 36.05991
# Shear Modulus (GPa) = 20.63439 33.12784 26.88111
#
# Velocity S-wave (km/s) = 2.92916 3.71145 3.34327
# Velocity P-wave (km/s) = 4.63750 6.18775 5.46784
#
# Compressibility (1/GPa) = 0.04130647
#
# Stress axis : x y z
#
# Youngs Moduli (GPa) = 27.52386 100.65131 93.31802
#
# Poissons Ratio (x) = 0.07317 0.21354
# Poissons Ratio (y) = 0.02001 0.45010
# Poissons Ratio (z) = 0.06298 0.48547
#
# Static dielectric constant tensor:
#      x y z
#    x 2.001780 0.000000 0.000000 
#    y 0.000000 1.992920 0.000000 
#    z 0.000000 0.000000 1.897140 
# 
# From -- ./inp_files/7115.got.cif
#   From: 2010.05.17/outbox.cif.g08.bks.cpg/sg41_4_cif.got.tgz:7115.got - 2010.06.03 18:54:24.
