data_PCOD9366892
_publ_section_title
;
Structure prediction by ZEFSAII (Michael W. Deem and Ramdas Pophale) SiO2 
 PCOD9366892
Probable space group: A B A 2
;
_chemical_formula_sum "Si O2"
_cell_formula_units_Z 60
_cell_length_a 8.823943
_cell_length_b 15.297078
_cell_length_c 21.998074
_cell_angle_alpha 90.000000
_cell_angle_beta 90.000000
_cell_angle_gamma 90.000000
_cell_volume 2969.312003
_symmetry_space_group_name_H-M "A B A 2"
_symmetry_group_IT_number 41
_symmetry_cell_setting 'orthorhombic'
loop_
_space_group_symop_operation_xyz
x,y,z
-x,-y,z
1/2-x,y,1/2+z
1/2+x,-y,1/2+z
x,1/2+y,1/2+z
-x,1/2-y,1/2+z
1/2-x,1/2+y,z
1/2+x,1/2-y,z
loop_
_atom_site_type_symbol
_atom_site_label
_atom_site_fract_x
_atom_site_fract_y
_atom_site_fract_z
Si Si1 0.064527 0.240577 0.774620
Si Si2 0.716516 0.558675 0.453318
Si Si3 0.000000 0.000000 0.170488
Si Si4 0.692970 0.799294 0.565427
Si Si5 0.175580 0.647822 0.702962
Si Si6 0.122859 0.634115 0.949290
Si Si7 0.313358 0.301447 0.862885
Si Si8 0.366972 0.875092 0.568011
O O1 0.184991 0.179628 0.742044
O O2 0.158813 0.296776 0.823892
O O3 0.969039 0.295207 0.725193
O O4 0.944200 0.188580 0.813966
O O5 0.554972 0.610345 0.458107
O O6 0.692169 0.460046 0.431449
O O7 0.811794 0.618767 0.408593
O O8 0.804173 0.559307 0.517290
O O9 0.123353 0.048909 0.210595
O O10 0.915531 0.069913 0.127011
O O11 0.714581 0.840487 0.632072
O O12 0.800085 0.836719 0.512650
O O13 0.519311 0.822453 0.548529
O O14 0.736842 0.697939 0.574868
O O15 0.158103 0.711350 0.901018
#
# Coordination Sequence:
#
# PCOD9366892 Si02
#       8
#     8   8   4   8   8   8   8   8
#     4  10  23  42  68  89 124 177 239 264 328 395
#     4  11  23  40  65  98 140 170 218 270 339 400
#     4  10  22  40  66  98 134 170 216 284 348 394
#     4  11  22  38  68  97 132 173 221 266 349 401
#     4  10  21  43  67  93 129 175 223 280 329 403
#     4  11  24  41  66 105 130 177 219 276 341 407
#     4  11  22  44  64  94 130 177 223 282 328 393
#     4  11  22  38  64 102 135 173 212 275 335 419
#
# _framework density 20.206700000000001
#
# number of rings (size 3 to 8) (size 9 to 14) (size 15 to 20)
#    0.000    1.333    2.667    4.000    1.867    0.000 
#    4.800    0.000    5.867    9.600    0.000    0.000 
#    0.000    0.000    0.000    0.000    0.000    0.000 
#
# Total GULP energy -167500.744301 kJ/mol
# GULP energy per Si atom -5583.358143 kJ/mol
# Density = 2.016071 g / cm^3
# Si number density = 20.206700 Si / 1000 Ang^3
#
#
#
# Elastic Constant Matrix: (Units=GPa)
#
#
# Indices 1 2 3 4 5 6 
#
# 1 72.0539 32.5721 28.4220 0.0000 0.0000 0.0000
# 2 32.5721 104.8009 23.1695 0.0000 0.0000 0.0000
# 3 28.4220 23.1695 66.1527 0.0000 0.0000 0.0000
# 4 0.0000 0.0000 0.0000 -0.9160 0.0000 0.0000
# 5 0.0000 0.0000 0.0000 0.0000 22.1803 0.0000
# 6 0.0000 0.0000 0.0000 0.0000 0.0000 10.1393
#
#
#
# Elastic Compliance Matrix: (Units=1/GPa)
#
#
# Indices 1 2 3 4 5 6 
#
# 1 0.018331 -0.004288 -0.006374 0.000000 0.000000 0.000000
# 2 -0.004288 0.011346 -0.002131 0.000000 0.000000 0.000000
# 3 -0.006374 -0.002131 0.018602 0.000000 0.000000 0.000000
# 4 0.000000 0.000000 0.000000 -1.091679 0.000000 0.000000
# 5 0.000000 0.000000 0.000000 0.000000 0.045085 0.000000
# 6 0.000000 0.000000 0.000000 0.000000 0.000000 0.098626
#
#
# Mechanical properties :
#
#
# Convention : Reuss Voigt Hill
#
# Bulk Modulus (GPa) = 44.06927 45.70385 44.88656
# Shear Modulus (GPa) = -5.77008 16.87031 5.55011
#
# Velocity S-wave (km/s) = -1.69166 2.89258 1.65911
# Velocity P-wave (km/s) = 4.24746 5.81578 5.09236
#
# Compressibility (1/GPa) = 0.02269155
#
# Stress axis : x y z
#
# Youngs Moduli (GPa) = 54.55174 88.13770 53.75885
#
# Poissons Ratio (x) = 0.37795 0.34266
# Poissons Ratio (y) = 0.23393 0.11458
# Poissons Ratio (z) = 0.34771 0.18786
#
# Static dielectric constant tensor:
#      x y z
#    x 1.745240 0.000000 0.000000 
#    y 0.000000 1.732640 0.000000 
#    z 0.000000 0.000000 1.709230 
# 
# From -- ./inp_files/12007.got.cif
#   From: 2010.05.17/outbox.cif.g08.bks.cpg/sg41_7_cif.got.tgz:12007.got - 2010.06.03 18:54:24.
