data_PCOD9366632
_publ_section_title
;
Structure prediction by ZEFSAII (Michael W. Deem and Ramdas Pophale) SiO2 
 PCOD9366632
Probable space group: A B A 2
;
_chemical_formula_sum "Si O2"
_cell_formula_units_Z 52
_cell_length_a 7.947365
_cell_length_b 15.627678
_cell_length_c 18.762356
_cell_angle_alpha 90.000000
_cell_angle_beta 90.000000
_cell_angle_gamma 90.000000
_cell_volume 2330.263248
_symmetry_space_group_name_H-M "A B A 2"
_symmetry_group_IT_number 41
_symmetry_cell_setting 'orthorhombic'
loop_
_space_group_symop_operation_xyz
x,y,z
-x,-y,z
1/2-x,y,1/2+z
1/2+x,-y,1/2+z
x,1/2+y,1/2+z
-x,1/2-y,1/2+z
1/2-x,1/2+y,z
1/2+x,1/2-y,z
loop_
_atom_site_type_symbol
_atom_site_label
_atom_site_fract_x
_atom_site_fract_y
_atom_site_fract_z
Si Si1 0.134038 0.699224 0.163190
Si Si2 0.647532 0.433742 0.940247
Si Si3 0.736644 0.302244 0.322810
Si Si4 0.356885 0.370711 0.310189
Si Si5 0.500000 0.000000 0.917739
Si Si6 0.657627 0.453068 0.097899
Si Si7 0.731960 0.622052 0.651451
O O1 0.168415 0.702094 0.247561
O O2 0.262006 0.628100 0.134712
O O3 0.153111 0.795251 0.132431
O O4 0.950444 0.663781 0.151102
O O5 0.500000 0.500000 0.914413
O O6 0.670458 0.360625 0.880946
O O7 0.849119 0.452574 0.957829
O O8 0.590915 0.419623 0.021830
O O9 0.549390 0.335837 0.307264
O O10 0.741149 0.202985 0.344532
O O11 0.379055 0.446647 0.365201
O O12 0.283285 0.398047 0.233845
O O13 0.500000 0.500000 0.136359
O O14 0.774010 0.537958 0.102259
#
# Coordination Sequence:
#
# PCOD9366632 Si02
#       7
#     8   8   8   8   4   8   8
#     4  11  23  40  67  97 127 167 224 267 337 395
#     4  10  25  42  64  92 130 173 216 266 323 392
#     4  10  21  40  63  96 128 161 215 270 323 397
#     4  10  21  38  63  98 123 167 206 271 330 379
#     4  10  24  40  64  92 132 166 212 272 320 396
#     4  11  24  44  63  91 133 174 218 272 329 392
#     4  11  23  39  67  96 129 170 213 280 328 401
#
# _framework density 22.315076999999999
#
# number of rings (size 3 to 8) (size 9 to 14) (size 15 to 20)
#    0.000    1.538    0.000    6.000   11.846    0.000 
#    2.769    1.538    0.000    0.000    0.000    0.000 
#    0.000    0.000    0.000    0.000    0.000    0.000 
#
# Total GULP energy -144816.170472 kJ/mol
# GULP energy per Si atom -5569.852710 kJ/mol
# Density = 2.226429 g / cm^3
# Si number density = 22.315077 Si / 1000 Ang^3
#
#
#
# Elastic Constant Matrix: (Units=GPa)
#
#
# Indices 1 2 3 4 5 6 
#
# 1 65.0483 -21.6617 1.0984 0.0000 0.0000 0.0000
# 2 -21.6617 59.4861 45.5399 0.0000 0.0000 0.0000
# 3 1.0984 45.5399 67.1331 0.0000 0.0000 0.0000
# 4 0.0000 0.0000 0.0000 7.0331 0.0000 0.0000
# 5 0.0000 0.0000 0.0000 0.0000 27.1099 0.0000
# 6 0.0000 0.0000 0.0000 0.0000 0.0000 47.1637
#
#
#
# Elastic Compliance Matrix: (Units=1/GPa)
#
#
# Indices 1 2 3 4 5 6 
#
# 1 0.021065 0.016507 -0.011542 0.000000 0.000000 0.000000
# 2 0.016507 0.047908 -0.032768 0.000000 0.000000 0.000000
# 3 -0.011542 -0.032768 0.037313 0.000000 0.000000 0.000000
# 4 0.000000 0.000000 0.000000 0.142185 0.000000 0.000000
# 5 0.000000 0.000000 0.000000 0.000000 0.036887 0.000000
# 6 0.000000 0.000000 0.000000 0.000000 0.000000 0.021203
#
#
# Mechanical properties :
#
#
# Convention : Reuss Voigt Hill
#
# Bulk Modulus (GPa) = 19.73218 26.84673 23.28945
# Shear Modulus (GPa) = 13.19051 27.37406 20.28228
#
# Velocity S-wave (km/s) = 2.43390 3.50624 3.01808
# Velocity P-wave (km/s) = 4.09392 5.33371 4.75440
#
# Compressibility (1/GPa) = 0.05067865
#
# Stress axis : x y z
#
# Youngs Moduli (GPa) = 47.47203 20.87354 26.80026
#
# Poissons Ratio (x) = -0.34456 0.30933
# Poissons Ratio (y) = -0.78362 0.87820
# Poissons Ratio (z) = 0.54793 0.68399
#
# Static dielectric constant tensor:
#      x y z
#    x 1.943880 0.000000 0.000000 
#    y 0.000000 2.002960 0.000000 
#    z 0.000000 0.000000 1.802380 
# 
# From -- ./inp_files/11158.got.cif
#   From: 2010.05.17/outbox.cif.g08.bks.cpg/sg41_6_cif.got.tgz:11158.got - 2010.06.03 18:54:24.
