data_PCOD9366039
_publ_section_title
;
Structure prediction by ZEFSAII (Michael W. Deem and Ramdas Pophale) SiO2 
 PCOD9366039
Probable space group: A B A 2
;
_chemical_formula_sum "Si O2"
_cell_formula_units_Z 40
_cell_length_a 12.070650
_cell_length_b 9.126879
_cell_length_c 16.273676
_cell_angle_alpha 90.000000
_cell_angle_beta 90.000000
_cell_angle_gamma 90.000000
_cell_volume 1792.827955
_symmetry_space_group_name_H-M "A B A 2"
_symmetry_group_IT_number 41
_symmetry_cell_setting 'orthorhombic'
loop_
_space_group_symop_operation_xyz
x,y,z
-x,-y,z
1/2-x,y,1/2+z
1/2+x,-y,1/2+z
x,1/2+y,1/2+z
-x,1/2-y,1/2+z
1/2-x,1/2+y,z
1/2+x,1/2-y,z
loop_
_atom_site_type_symbol
_atom_site_label
_atom_site_fract_x
_atom_site_fract_y
_atom_site_fract_z
Si Si1 0.307196 0.982830 0.367700
Si Si2 0.244833 0.696064 0.099348
Si Si3 0.556036 0.148578 0.520344
Si Si4 0.142589 0.776060 0.433278
Si Si5 0.375843 0.433061 0.684911
O O1 0.379505 0.912176 0.440344
O O2 0.185365 0.929153 0.397090
O O3 0.341182 0.922072 0.279693
O O4 0.340003 0.153600 0.363562
O O5 0.131765 0.788772 0.092088
O O6 0.207640 0.543454 0.137239
O O7 0.345178 0.776091 0.145880
O O8 0.280609 0.702044 0.004238
O O9 0.474619 0.268859 0.479327
O O10 0.500000 0.000000 0.552472
O O11 0.500000 0.500000 0.677074
#
# Coordination Sequence:
#
# PCOD9366039 Si02
#       5
#     8   8   8   8   8
#     4  10  21  36  58  82 112 152 194 242 304 366
#     4  11  23  37  60  88 119 158 204 255 312 373
#     4   9  18  36  61  83 110 154 204 252 304 367
#     4  10  19  38  60  81 110 152 201 249 300 367
#     4  12  24  39  59  90 127 162 202 260 320 373
#
# _framework density 22.311121
#
# number of rings (size 3 to 8) (size 9 to 14) (size 15 to 20)
#    0.000    1.600    0.000    7.800    0.000    0.000 
#    0.000    3.000    0.000   12.000    0.000    0.000 
#    0.000    0.000    0.000    0.000    0.000    0.000 
#
# Total GULP energy -111492.365846 kJ/mol
# GULP energy per Si atom -5574.618292 kJ/mol
# Density = 2.226034 g / cm^3
# Si number density = 22.311121 Si / 1000 Ang^3
#
#
#
# Elastic Constant Matrix: (Units=GPa)
#
#
# Indices 1 2 3 4 5 6 
#
# 1 76.8982 7.4742 -13.7068 0.0000 0.0000 0.0000
# 2 7.4742 24.1199 10.2322 0.0000 0.0000 0.0000
# 3 -13.7068 10.2322 33.9403 0.0000 0.0000 0.0000
# 4 0.0000 0.0000 0.0000 32.1317 0.0000 0.0000
# 5 0.0000 0.0000 0.0000 0.0000 15.0687 0.0000
# 6 0.0000 0.0000 0.0000 0.0000 0.0000 28.8328
#
#
#
# Elastic Compliance Matrix: (Units=1/GPa)
#
#
# Indices 1 2 3 4 5 6 
#
# 1 0.015394 -0.008494 0.008778 0.000000 0.000000 0.000000
# 2 -0.008494 0.052226 -0.019175 0.000000 0.000000 0.000000
# 3 0.008778 -0.019175 0.038789 0.000000 0.000000 0.000000
# 4 0.000000 0.000000 0.000000 0.031122 0.000000 0.000000
# 5 0.000000 0.000000 0.000000 0.000000 0.066363 0.000000
# 6 0.000000 0.000000 0.000000 0.000000 0.000000 0.034683
#
#
# Mechanical properties :
#
#
# Convention : Reuss Voigt Hill
#
# Bulk Modulus (GPa) = 14.57157 15.88418 15.22788
# Shear Modulus (GPa) = 16.70923 23.93724 20.32324
#
# Velocity S-wave (km/s) = 2.73961 3.27904 3.02139
# Velocity P-wave (km/s) = 4.06848 4.63368 4.36025
#
# Compressibility (1/GPa) = 0.06862676
#
# Stress axis : x y z
#
# Youngs Moduli (GPa) = 64.95869 19.14750 25.78029
#
# Poissons Ratio (x) = 0.16264 -0.22629
# Poissons Ratio (y) = 0.55177 0.49434
# Poissons Ratio (z) = -0.57019 0.36716
#
# Static dielectric constant tensor:
#      x y z
#    x 1.997600 0.000000 0.000000 
#    y 0.000000 1.969240 0.000000 
#    z 0.000000 0.000000 1.755180 
# 
# From -- ./inp_files/7735.got.cif
#   From: 2010.05.17/outbox.cif.g08.bks.cpg/sg41_4_cif.got.tgz:7735.got - 2010.06.03 18:54:24.
