data_PCOD9366511
_publ_section_title
;
Structure prediction by ZEFSAII (Michael W. Deem and Ramdas Pophale) SiO2 
 PCOD9366511
Probable space group: A B A 2
;
_chemical_formula_sum "Si O2"
_cell_formula_units_Z 60
_cell_length_a 25.066271
_cell_length_b 10.328938
_cell_length_c 9.696854
_cell_angle_alpha 90.000000
_cell_angle_beta 90.000000
_cell_angle_gamma 90.000000
_cell_volume 2510.592678
_symmetry_space_group_name_H-M "A B A 2"
_symmetry_group_IT_number 41
_symmetry_cell_setting 'orthorhombic'
loop_
_space_group_symop_operation_xyz
x,y,z
-x,-y,z
1/2-x,y,1/2+z
1/2+x,-y,1/2+z
x,1/2+y,1/2+z
-x,1/2-y,1/2+z
1/2-x,1/2+y,z
1/2+x,1/2-y,z
loop_
_atom_site_type_symbol
_atom_site_label
_atom_site_fract_x
_atom_site_fract_y
_atom_site_fract_z
Si Si1 0.500000 0.500000 0.722991
Si Si2 0.089418 0.872878 0.553125
Si Si3 0.452252 0.401819 0.252336
Si Si4 0.854006 0.231007 0.930694
Si Si5 0.814526 0.944940 0.610854
Si Si6 0.471831 0.367553 0.975044
Si Si7 0.208985 0.527103 0.430395
Si Si8 0.872738 0.381042 0.657843
O O1 0.449875 0.472325 0.628070
O O2 0.496897 0.622751 0.829701
O O3 0.086481 0.730500 0.615138
O O4 0.072501 0.855846 0.395600
O O5 0.147974 0.930436 0.583757
O O6 0.500000 0.500000 0.296880
O O7 0.468265 0.305060 0.127005
O O8 0.404302 0.488094 0.187322
O O9 0.848381 0.326790 0.799878
O O10 0.808632 0.123018 0.931907
O O11 0.848275 0.319714 0.065118
O O12 0.911359 0.158878 0.922625
O O13 0.795702 0.934472 0.769550
O O14 0.765150 0.953885 0.505492
O O15 0.500000 0.500000 0.028689
O O16 0.167169 0.599559 0.530873
#
# Coordination Sequence:
#
# PCOD9366511 Si02
#       8
#     4   8   8   8   8   8   8   8
#     4  10  20  44  70 102 154 190 244 308 362 438
#     4  12  25  47  73 112 149 194 251 310 369 459
#     4  11  24  46  67 111 152 193 247 301 374 453
#     4  12  24  50  77 106 154 198 242 322 372 448
#     4  12  29  48  78 110 147 200 254 310 390 450
#     4   9  20  42  71 102 150 193 243 299 368 439
#     4  12  29  50  74 112 146 198 253 316 382 451
#     4  12  25  48  75 107 154 193 254 308 372 449
#
# _framework density 23.898738999999999
#
# number of rings (size 3 to 8) (size 9 to 14) (size 15 to 20)
#    0.400    0.267    6.000    0.800    3.733    1.067 
#   12.000    0.000    0.000    0.000    0.000    0.000 
#    0.000    0.000    0.000    0.000    0.000    0.000 
#
# Total GULP energy -167301.217164 kJ/mol
# GULP energy per Si atom -5576.707239 kJ/mol
# Density = 2.384434 g / cm^3
# Si number density = 23.898739 Si / 1000 Ang^3
#
#
#
# Elastic Constant Matrix: (Units=GPa)
#
#
# Indices 1 2 3 4 5 6 
#
# 1 108.9394 30.5463 58.2972 0.0000 0.0000 0.0000
# 2 30.5463 61.8306 34.6749 0.0000 0.0000 0.0000
# 3 58.2972 34.6749 209.8912 0.0000 0.0000 0.0000
# 4 0.0000 0.0000 0.0000 -233.5949 0.0000 0.0000
# 5 0.0000 0.0000 0.0000 0.0000 39.7736 0.0000
# 6 0.0000 0.0000 0.0000 0.0000 0.0000 23.5383
#
#
#
# Elastic Compliance Matrix: (Units=1/GPa)
#
#
# Indices 1 2 3 4 5 6 
#
# 1 0.011772 -0.004389 -0.002545 0.000000 0.000000 0.000000
# 2 -0.004389 0.019461 -0.001996 0.000000 0.000000 0.000000
# 3 -0.002545 -0.001996 0.005801 0.000000 0.000000 0.000000
# 4 0.000000 0.000000 0.000000 -0.004281 0.000000 0.000000
# 5 0.000000 0.000000 0.000000 0.000000 0.025142 0.000000
# 6 0.000000 0.000000 0.000000 0.000000 0.000000 0.042484
#
#
# Mechanical properties :
#
#
# Convention : Reuss Voigt Hill
#
# Bulk Modulus (GPa) = 52.15164 69.74424 60.94794
# Shear Modulus (GPa) = 40.11919 -16.91376 11.60271
#
# Velocity S-wave (km/s) = 4.10166 -2.66320 2.20579
# Velocity P-wave (km/s) = 6.65588 4.44857 5.66085
#
# Compressibility (1/GPa) = 0.01917485
#
# Stress axis : x y z
#
# Youngs Moduli (GPa) = 84.94986 51.38549 172.38753
#
# Poissons Ratio (x) = 0.22551 0.43865
# Poissons Ratio (y) = 0.37281 0.34410
# Poissons Ratio (z) = 0.21616 0.10257
#
# Static dielectric constant tensor:
#      x y z
#    x 1.931470 0.000000 0.000000 
#    y 0.000000 2.013270 0.000000 
#    z 0.000000 0.000000 1.974500 
# 
# From -- ./inp_files/3807.got.cif
#   From: 2010.05.17/outbox.cif.g08.bks.cpg/sg41_2_cif.got.tgz:3807.got - 2010.06.03 18:54:24.
