data_PCOD9366265
_publ_section_title
;
Structure prediction by ZEFSAII (Michael W. Deem and Ramdas Pophale) SiO2 
 PCOD9366265
Probable space group: A B A 2
;
_chemical_formula_sum "Si O2"
_cell_formula_units_Z 60
_cell_length_a 33.416596
_cell_length_b 11.695047
_cell_length_c 8.131510
_cell_angle_alpha 90.000000
_cell_angle_beta 90.000000
_cell_angle_gamma 90.000000
_cell_volume 3177.864533
_symmetry_space_group_name_H-M "A B A 2"
_symmetry_group_IT_number 41
_symmetry_cell_setting 'orthorhombic'
loop_
_space_group_symop_operation_xyz
x,y,z
-x,-y,z
1/2-x,y,1/2+z
1/2+x,-y,1/2+z
x,1/2+y,1/2+z
-x,1/2-y,1/2+z
1/2-x,1/2+y,z
1/2+x,1/2-y,z
loop_
_atom_site_type_symbol
_atom_site_label
_atom_site_fract_x
_atom_site_fract_y
_atom_site_fract_z
Si Si1 0.567373 0.428936 0.567680
Si Si2 0.697794 0.429631 0.000416
Si Si3 0.870590 0.818247 0.793309
Si Si4 0.482247 0.783806 0.552309
Si Si5 0.000000 0.500000 0.328447
Si Si6 0.555475 0.669230 0.406309
Si Si7 0.234849 0.691126 0.808977
Si Si8 0.800665 0.187468 0.118174
O O1 0.608899 0.398413 0.655665
O O2 0.549671 0.311706 0.491748
O O3 0.535921 0.457593 0.713150
O O4 0.566841 0.539240 0.451017
O O5 0.656695 0.390525 0.916896
O O6 0.733805 0.404739 0.871892
O O7 0.696633 0.559333 0.056548
O O8 0.708382 0.353206 0.159137
O O9 0.905787 0.748654 0.883544
O O10 0.840803 0.729250 0.705982
O O11 0.525227 0.720869 0.541980
O O12 0.468603 0.821221 0.734148
O O13 0.485365 0.895166 0.439890
O O14 0.209025 0.732213 0.962419
O O15 0.263636 0.792159 0.742688
#
# Coordination Sequence:
#
# PCOD9366265 Si02
#       8
#     8   8   8   8   4   8   8   8
#     4  11  23  43  60  86 122 160 201 263 305 364
#     4  10  20  38  63  88 124 162 196 248 300 353
#     4  10  24  39  55  91 128 154 200 246 308 369
#     4  11  22  39  64  91 109 153 209 253 310 367
#     4  12  22  38  66  86 116 148 204 258 308 364
#     4  11  22  43  62  84 123 157 204 260 309 366
#     4   9  20  37  63  92 116 155 211 239 285 364
#     4  10  20  38  60  89 123 158 196 247 293 358
#
# _framework density 18.880604000000002
#
# number of rings (size 3 to 8) (size 9 to 14) (size 15 to 20)
#    0.000    1.600    4.000    0.800    1.867    4.267 
#    0.000    5.333    0.000    0.000    0.000    0.000 
#    0.000    0.000    0.000    0.000    0.000    0.000 
#
# Total GULP energy -167542.223838 kJ/mol
# GULP energy per Si atom -5584.740795 kJ/mol
# Density = 1.883763 g / cm^3
# Si number density = 18.880604 Si / 1000 Ang^3
#
#
#
# Elastic Constant Matrix: (Units=GPa)
#
#
# Indices 1 2 3 4 5 6 
#
# 1 83.8856 20.3113 21.0327 0.0000 0.0000 0.0000
# 2 20.3113 108.5829 18.6031 0.0000 0.0000 0.0000
# 3 21.0327 18.6031 40.9911 0.0000 0.0000 0.0000
# 4 0.0000 0.0000 0.0000 36.4913 0.0000 0.0000
# 5 0.0000 0.0000 0.0000 0.0000 37.6009 0.0000
# 6 0.0000 0.0000 0.0000 0.0000 0.0000 11.1981
#
#
#
# Elastic Compliance Matrix: (Units=1/GPa)
#
#
# Indices 1 2 3 4 5 6 
#
# 1 0.013901 -0.001495 -0.006454 0.000000 0.000000 0.000000
# 2 -0.001495 0.010147 -0.003838 0.000000 0.000000 0.000000
# 3 -0.006454 -0.003838 0.029449 0.000000 0.000000 0.000000
# 4 0.000000 0.000000 0.000000 0.027404 0.000000 0.000000
# 5 0.000000 0.000000 0.000000 0.000000 0.026595 0.000000
# 6 0.000000 0.000000 0.000000 0.000000 0.000000 0.089301
#
#
# Mechanical properties :
#
#
# Convention : Reuss Voigt Hill
#
# Bulk Modulus (GPa) = 33.41915 39.26154 36.34035
# Shear Modulus (GPa) = 21.70656 28.62557 25.16607
#
# Velocity S-wave (km/s) = 3.39436 3.89798 3.65486
# Velocity P-wave (km/s) = 5.75334 6.41084 6.09097
#
# Compressibility (1/GPa) = 0.02992296
#
# Stress axis : x y z
#
# Youngs Moduli (GPa) = 71.93628 98.55445 33.95676
#
# Poissons Ratio (x) = 0.14729 0.21917
# Poissons Ratio (y) = 0.10751 0.13033
# Poissons Ratio (z) = 0.46431 0.37826
#
# Static dielectric constant tensor:
#      x y z
#    x 1.637840 0.000000 0.000000 
#    y 0.000000 1.652980 0.000000 
#    z 0.000000 0.000000 1.657870 
# 
# From -- ./inp_files/3968.got.cif
#   From: 2010.05.17/outbox.cif.g08.bks.cpg/sg41_2_cif.got.tgz:3968.got - 2010.06.03 18:54:24.
