data_PCOD9366972
_publ_section_title
;
Structure prediction by ZEFSAII (Michael W. Deem and Ramdas Pophale) SiO2 
 PCOD9366972
Probable space group: A B A 2
;
_chemical_formula_sum "Si O2"
_cell_formula_units_Z 56
_cell_length_a 15.362083
_cell_length_b 20.413992
_cell_length_c 8.791547
_cell_angle_alpha 90.000000
_cell_angle_beta 90.000000
_cell_angle_gamma 90.000000
_cell_volume 2757.041794
_symmetry_space_group_name_H-M "A B A 2"
_symmetry_group_IT_number 41
_symmetry_cell_setting 'orthorhombic'
loop_
_space_group_symop_operation_xyz
x,y,z
-x,-y,z
1/2-x,y,1/2+z
1/2+x,-y,1/2+z
x,1/2+y,1/2+z
-x,1/2-y,1/2+z
1/2-x,1/2+y,z
1/2+x,1/2-y,z
loop_
_atom_site_type_symbol
_atom_site_label
_atom_site_fract_x
_atom_site_fract_y
_atom_site_fract_z
Si Si1 0.821537 0.905811 0.101580
Si Si2 0.817919 0.716376 0.988594
Si Si3 0.996400 0.344095 0.547937
Si Si4 0.815027 0.838688 0.432309
Si Si5 0.783341 0.125807 0.759463
Si Si6 0.486953 0.729081 0.368083
Si Si7 0.354012 0.943625 0.542383
O O1 0.815868 0.869564 0.263840
O O2 0.899025 0.867794 0.014158
O O3 0.851472 0.980480 0.086468
O O4 0.725834 0.896007 0.033209
O O5 0.751262 0.777847 0.967518
O O6 0.778756 0.662031 0.878066
O O7 0.915914 0.726811 0.933786
O O8 0.821709 0.685487 0.157361
O O9 0.037693 0.303839 0.408329
O O10 0.057565 0.405590 0.585653
O O11 0.992155 0.296864 0.696068
O O12 0.913433 0.813836 0.453817
O O13 0.723893 0.086426 0.641704
O O14 0.838234 0.075440 0.864431
#
# Coordination Sequence:
#
# PCOD9366972 Si02
#       7
#     8   8   8   8   8   8   8
#     4  11  24  42  62  89 130 172 218 263 317 402
#     4  11  21  41  62  98 130 157 215 277 334 389
#     4  11  24  41  63  95 125 168 211 273 337 392
#     4  11  24  40  64  95 126 172 211 273 337 380
#     4  10  22  37  67  91 124 168 214 270 325 387
#     4  11  24  39  65  95 131 161 211 277 341 390
#     4  11  22  42  63  91 127 178 219 256 323 398
#
# _framework density 20.311626
#
# number of rings (size 3 to 8) (size 9 to 14) (size 15 to 20)
#    0.000    1.143    2.857    3.857    6.000    0.000 
#    0.000    0.000    0.000    0.000    0.000    0.000 
#    0.000    0.000    0.000    0.000    0.000    0.000 
#
# Total GULP energy -156058.758068 kJ/mol
# GULP energy per Si atom -5573.527074 kJ/mol
# Density = 2.026540 g / cm^3
# Si number density = 20.311626 Si / 1000 Ang^3
#
#
#
# Elastic Constant Matrix: (Units=GPa)
#
#
# Indices 1 2 3 4 5 6 
#
# 1 66.2485 33.8085 15.7423 0.0000 0.0000 0.0000
# 2 33.8085 121.2383 37.2180 0.0000 0.0000 0.0000
# 3 15.7423 37.2180 74.7340 0.0000 0.0000 0.0000
# 4 0.0000 0.0000 0.0000 21.2561 0.0000 0.0000
# 5 0.0000 0.0000 0.0000 0.0000 30.7089 0.0000
# 6 0.0000 0.0000 0.0000 0.0000 0.0000 25.8547
#
#
#
# Elastic Compliance Matrix: (Units=1/GPa)
#
#
# Indices 1 2 3 4 5 6 
#
# 1 0.017741 -0.004486 -0.001503 0.000000 0.000000 0.000000
# 2 -0.004486 0.010871 -0.004469 0.000000 0.000000 0.000000
# 3 -0.001503 -0.004469 0.015923 0.000000 0.000000 0.000000
# 4 0.000000 0.000000 0.000000 0.047045 0.000000 0.000000
# 5 0.000000 0.000000 0.000000 0.000000 0.032564 0.000000
# 6 0.000000 0.000000 0.000000 0.000000 0.000000 0.038678
#
#
# Mechanical properties :
#
#
# Convention : Reuss Voigt Hill
#
# Bulk Modulus (GPa) = 42.33812 48.41760 45.37786
# Shear Modulus (GPa) = 26.09458 27.26075 26.67767
#
# Velocity S-wave (km/s) = 3.58818 3.66748 3.62804
# Velocity P-wave (km/s) = 6.16897 6.46707 6.31978
#
# Compressibility (1/GPa) = 0.02361938
#
# Stress axis : x y z
#
# Youngs Moduli (GPa) = 56.36625 91.98763 62.80238
#
# Poissons Ratio (x) = 0.41264 0.09440
# Poissons Ratio (y) = 0.25285 0.28066
# Poissons Ratio (z) = 0.08472 0.41109
#
# Static dielectric constant tensor:
#      x y z
#    x 1.730030 0.000000 0.000000 
#    y 0.000000 1.798160 0.000000 
#    z 0.000000 0.000000 1.774270 
# 
# From -- ./inp_files/2670.got.cif
#   From: 2010.05.17/outbox.cif.g08.bks.cpg/sg41_2_cif.got.tgz:2670.got - 2010.06.03 18:54:24.
