data_PCOD9366325
_publ_section_title
;
Structure prediction by ZEFSAII (Michael W. Deem and Ramdas Pophale) SiO2 
 PCOD9366325
Probable space group: A B A 2
;
_chemical_formula_sum "Si O2"
_cell_formula_units_Z 64
_cell_length_a 11.855340
_cell_length_b 29.096244
_cell_length_c 8.877595
_cell_angle_alpha 90.000000
_cell_angle_beta 90.000000
_cell_angle_gamma 90.000000
_cell_volume 3062.289689
_symmetry_space_group_name_H-M "A B A 2"
_symmetry_group_IT_number 41
_symmetry_cell_setting 'orthorhombic'
loop_
_space_group_symop_operation_xyz
x,y,z
-x,-y,z
1/2-x,y,1/2+z
1/2+x,-y,1/2+z
x,1/2+y,1/2+z
-x,1/2-y,1/2+z
1/2-x,1/2+y,z
1/2+x,1/2-y,z
loop_
_atom_site_type_symbol
_atom_site_label
_atom_site_fract_x
_atom_site_fract_y
_atom_site_fract_z
Si Si1 0.772686 0.967212 0.904350
Si Si2 0.113256 0.372385 0.629669
Si Si3 0.904780 0.238536 0.135302
Si Si4 0.764644 0.227832 0.391613
Si Si5 0.121198 0.987410 0.622397
Si Si6 0.643034 0.108809 0.276841
Si Si7 0.599541 0.692557 0.632837
Si Si8 0.068808 0.549844 0.688787
O O1 0.658433 0.946094 0.827964
O O2 0.845730 0.977891 0.756938
O O3 0.855097 0.946834 0.034097
O O4 0.717508 0.010473 0.994960
O O5 0.083809 0.317251 0.634984
O O6 0.229953 0.380048 0.719426
O O7 0.130235 0.385852 0.454633
O O8 0.019371 0.407904 0.691364
O O9 0.860023 0.253513 0.298887
O O10 0.809444 0.252771 0.015556
O O11 0.014470 0.266882 0.100566
O O12 0.678648 0.209913 0.267986
O O13 0.825817 0.187574 0.483966
O O14 0.116277 0.940114 0.709507
O O15 0.000000 0.000000 0.557305
O O16 0.558292 0.144459 0.193755
O O17 0.000000 0.500000 0.687666
#
# Coordination Sequence:
#
# PCOD9366325 Si02
#       8
#     8   8   8   8   8   8   8   8
#     4  10  22  41  60  90 127 158 203 247 301 370
#     4  12  23  40  65  96 124 163 211 259 318 368
#     4  11  21  39  63  90 125 162 206 263 312 378
#     4  10  20  39  61  89 123 157 210 256 319 376
#     4  11  22  38  63  88 120 158 199 248 304 355
#     4  12  22  38  64  96 123 156 212 267 303 374
#     4  11  21  38  62  90 125 161 201 262 319 363
#     4  11  23  41  66  91 126 169 201 255 310 362
#
# _framework density 20.899394999999998
#
# number of rings (size 3 to 8) (size 9 to 14) (size 15 to 20)
#    0.000    1.000    3.750    5.250    0.000    1.000 
#    0.000    1.250   11.000    0.000    0.000    0.000 
#    0.000    0.000    0.000    0.000    0.000    0.000 
#
# Total GULP energy -178358.307757 kJ/mol
# GULP energy per Si atom -5573.697117 kJ/mol
# Density = 2.085183 g / cm^3
# Si number density = 20.899395 Si / 1000 Ang^3
#
#
#
# Elastic Constant Matrix: (Units=GPa)
#
#
# Indices 1 2 3 4 5 6 
#
# 1 84.7623 49.7317 24.2032 0.0000 0.0000 0.0000
# 2 49.7317 66.9749 1.0119 0.0000 0.0000 0.0000
# 3 24.2032 1.0119 103.3386 0.0000 0.0000 0.0000
# 4 0.0000 0.0000 0.0000 18.5024 0.0000 0.0000
# 5 0.0000 0.0000 0.0000 0.0000 42.8535 0.0000
# 6 0.0000 0.0000 0.0000 0.0000 0.0000 29.6189
#
#
#
# Elastic Compliance Matrix: (Units=1/GPa)
#
#
# Indices 1 2 3 4 5 6 
#
# 1 0.023523 -0.017386 -0.005339 0.000000 0.000000 0.000000
# 2 -0.017386 0.027784 0.003800 0.000000 0.000000 0.000000
# 3 -0.005339 0.003800 0.010890 0.000000 0.000000 0.000000
# 4 0.000000 0.000000 0.000000 0.054047 0.000000 0.000000
# 5 0.000000 0.000000 0.000000 0.000000 0.023335 0.000000
# 6 0.000000 0.000000 0.000000 0.000000 0.000000 0.033762
#
#
# Mechanical properties :
#
#
# Convention : Reuss Voigt Hill
#
# Bulk Modulus (GPa) = 41.07430 44.99660 43.03545
# Shear Modulus (GPa) = 22.79905 30.20356 26.50130
#
# Velocity S-wave (km/s) = 3.30645 3.80569 3.56482
# Velocity P-wave (km/s) = 5.85430 6.39436 6.13028
#
# Compressibility (1/GPa) = 0.02434612
#
# Stress axis : x y z
#
# Youngs Moduli (GPa) = 42.51150 35.99258 91.82560
#
# Poissons Ratio (x) = 0.62577 0.49027
# Poissons Ratio (y) = 0.73911 -0.34894
# Poissons Ratio (z) = 0.22698 -0.13677
#
# Static dielectric constant tensor:
#      x y z
#    x 1.766620 0.000000 0.000000 
#    y 0.000000 1.700570 0.000000 
#    z 0.000000 0.000000 1.798660 
# 
# From -- ./inp_files/2235.got.cif
#   From: 2010.05.17/outbox.cif.g08.bks.cpg/sg41_2_cif.got.tgz:2235.got - 2010.06.03 18:54:24.
