data_PCOD9366213
_publ_section_title
;
Structure prediction by ZEFSAII (Michael W. Deem and Ramdas Pophale) SiO2 
 PCOD9366213
Probable space group: A B A 2
;
_chemical_formula_sum "Si O2"
_cell_formula_units_Z 64
_cell_length_a 33.461956
_cell_length_b 7.816680
_cell_length_c 11.008012
_cell_angle_alpha 90.000000
_cell_angle_beta 90.000000
_cell_angle_gamma 90.000000
_cell_volume 2879.271054
_symmetry_space_group_name_H-M "A B A 2"
_symmetry_group_IT_number 41
_symmetry_cell_setting 'orthorhombic'
loop_
_space_group_symop_operation_xyz
x,y,z
-x,-y,z
1/2-x,y,1/2+z
1/2+x,-y,1/2+z
x,1/2+y,1/2+z
-x,1/2-y,1/2+z
1/2-x,1/2+y,z
1/2+x,1/2-y,z
loop_
_atom_site_type_symbol
_atom_site_label
_atom_site_fract_x
_atom_site_fract_y
_atom_site_fract_z
Si Si1 0.732972 0.545942 0.919260
Si Si2 0.044463 0.453714 0.657635
Si Si3 0.954571 0.948253 0.628701
Si Si4 0.577703 0.990160 0.397389
Si Si5 0.607252 0.332463 0.291251
Si Si6 0.886432 0.173372 0.520628
Si Si7 0.297966 0.779807 0.037050
Si Si8 0.195588 0.626995 0.801074
O O1 0.770189 0.509653 0.829545
O O2 0.705924 0.703817 0.880101
O O3 0.709212 0.371551 0.939418
O O4 0.759106 0.600502 0.035977
O O5 0.049581 0.254094 0.635590
O O6 0.052180 0.524408 0.521122
O O7 0.072798 0.530599 0.762231
O O8 0.000000 0.500000 0.694613
O O9 0.946413 0.995409 0.770662
O O10 0.921444 0.031645 0.538274
O O11 0.000000 0.000000 0.595554
O O12 0.604890 0.819929 0.418689
O O13 0.599820 0.174703 0.384088
O O14 0.611388 0.255094 0.155758
O O15 0.649400 0.419163 0.319034
O O16 0.839679 0.124610 0.516221
O O17 0.300400 0.684633 0.163558
#
# Coordination Sequence:
#
# PCOD9366213 Si02
#       8
#     8   8   8   8   8   8   8   8
#     4  10  21  34  58  85 111 152 193 233 288 356
#     4  11  23  39  59  86 117 152 199 246 295 356
#     4  11  23  39  59  86 117 152 199 246 295 356
#     4  10  20  38  60  83 116 156 192 241 298 346
#     4   9  20  38  60  86 117 154 195 242 293 352
#     4   9  20  38  60  86 117 154 195 242 293 352
#     4  10  20  37  56  83 117 149 189 238 290 344
#     4  10  20  37  56  83 117 149 189 238 290 344
#
# _framework density 22.227847000000001
#
# number of rings (size 3 to 8) (size 9 to 14) (size 15 to 20)
#    0.000    2.000    0.000    4.125    0.000    3.000 
#    0.000    7.500    0.000    0.000    0.000    0.000 
#    0.000    0.000    0.000    0.000    0.000    0.000 
#
# Total GULP energy -178351.972964 kJ/mol
# GULP energy per Si atom -5573.499155 kJ/mol
# Density = 2.217726 g / cm^3
# Si number density = 22.227847 Si / 1000 Ang^3
#
#
#
# Elastic Constant Matrix: (Units=GPa)
#
#
# Indices 1 2 3 4 5 6 
#
# 1 140.2527 16.0729 29.8969 0.0000 0.0000 0.0000
# 2 16.0729 64.7003 10.6901 0.0000 0.0000 0.0000
# 3 29.8969 10.6901 54.4498 0.0000 0.0000 0.0000
# 4 0.0000 0.0000 0.0000 78.2701 0.0000 0.0000
# 5 0.0000 0.0000 0.0000 0.0000 177.4123 0.0000
# 6 0.0000 0.0000 0.0000 0.0000 0.0000 26.0536
#
#
#
# Elastic Compliance Matrix: (Units=1/GPa)
#
#
# Indices 1 2 3 4 5 6 
#
# 1 0.008185 -0.001334 -0.004232 0.000000 0.000000 0.000000
# 2 -0.001334 0.016191 -0.002446 0.000000 0.000000 0.000000
# 3 -0.004232 -0.002446 0.021170 0.000000 0.000000 0.000000
# 4 0.000000 0.000000 0.000000 0.012776 0.000000 0.000000
# 5 0.000000 0.000000 0.000000 0.000000 0.005637 0.000000
# 6 0.000000 0.000000 0.000000 0.000000 0.000000 0.038382
#
#
# Mechanical properties :
#
#
# Convention : Reuss Voigt Hill
#
# Bulk Modulus (GPa) = 33.87442 41.41362 37.64402
# Shear Modulus (GPa) = 38.99939 69.86339 54.43139
#
# Velocity S-wave (km/s) = 4.19325 5.61238 4.95390
# Velocity P-wave (km/s) = 6.22232 7.78911 7.04938
#
# Compressibility (1/GPa) = 0.02952080
#
# Stress axis : x y z
#
# Youngs Moduli (GPa) = 122.17408 61.76087 47.23743
#
# Poissons Ratio (x) = 0.08239 0.19992
# Poissons Ratio (y) = 0.16299 0.11556
# Poissons Ratio (z) = 0.51707 0.15109
#
# Static dielectric constant tensor:
#      x y z
#    x 1.826460 0.000000 0.000000 
#    y 0.000000 1.932870 0.000000 
#    z 0.000000 0.000000 1.844400 
# 
# From -- ./inp_files/6664.got.cif
#   From: 2010.05.17/outbox.cif.g08.bks.cpg/sg41_4_cif.got.tgz:6664.got - 2010.06.03 18:54:24.
