data_PCOD9366967
_publ_section_title
;
Structure prediction by ZEFSAII (Michael W. Deem and Ramdas Pophale) SiO2 
 PCOD9366967
Probable space group: A B A 2
;
_chemical_formula_sum "Si O2"
_cell_formula_units_Z 32
_cell_length_a 7.943298
_cell_length_b 14.173291
_cell_length_c 11.428063
_cell_angle_alpha 90.000000
_cell_angle_beta 90.000000
_cell_angle_gamma 90.000000
_cell_volume 1286.601892
_symmetry_space_group_name_H-M "A B A 2"
_symmetry_group_IT_number 41
_symmetry_cell_setting 'orthorhombic'
loop_
_space_group_symop_operation_xyz
x,y,z
-x,-y,z
1/2-x,y,1/2+z
1/2+x,-y,1/2+z
x,1/2+y,1/2+z
-x,1/2-y,1/2+z
1/2-x,1/2+y,z
1/2+x,1/2-y,z
loop_
_atom_site_type_symbol
_atom_site_label
_atom_site_fract_x
_atom_site_fract_y
_atom_site_fract_z
Si Si1 0.687695 0.125567 0.646150
Si Si2 0.152802 0.058984 0.712614
Si Si3 0.385801 0.213539 0.769204
Si Si4 0.966869 0.605605 0.972472
O O1 0.506715 0.171936 0.666076
O O2 0.813900 0.187337 0.728205
O O3 0.777526 0.122272 0.519636
O O4 0.703788 0.018214 0.688267
O O5 0.223705 0.146012 0.781400
O O6 0.083234 0.098061 0.588482
O O7 0.000000 0.000000 0.767405
O O8 0.484336 0.189939 0.887381
O O9 0.000000 0.500000 0.920212
#
# Coordination Sequence:
#
# PCOD9366967 Si02
#       4
#     8   8   8   8
#     4  10  22  37  60  92 124 162 212 259 310 373
#     4   9  20  41  61  89 125 159 208 264 312 378
#     4  12  22  40  65  91 128 172 208 263 322 375
#     4   9  21  42  63  90 128 167 213 264 317 378
#
# _framework density 24.871718999999999
#
# number of rings (size 3 to 8) (size 9 to 14) (size 15 to 20)
#    0.000    2.500    0.000    5.250    0.000    4.000 
#    0.000   10.000    0.000    0.000    0.000    0.000 
#    0.000    0.000    0.000    0.000    0.000    0.000 
#
# Total GULP energy -89380.977000 kJ/mol
# GULP energy per Si atom -5586.311062 kJ/mol
# Density = 2.481511 g / cm^3
# Si number density = 24.871719 Si / 1000 Ang^3
#
#
#
# Elastic Constant Matrix: (Units=GPa)
#
#
# Indices 1 2 3 4 5 6 
#
# 1 84.9865 15.2555 25.3383 0.0000 0.0000 0.0000
# 2 15.2555 127.7329 24.5396 0.0000 0.0000 0.0000
# 3 25.3383 24.5396 53.0569 0.0000 0.0000 0.0000
# 4 0.0000 0.0000 0.0000 13.6655 0.0000 0.0000
# 5 0.0000 0.0000 0.0000 0.0000 43.8995 0.0000
# 6 0.0000 0.0000 0.0000 0.0000 0.0000 51.1067
#
#
#
# Elastic Compliance Matrix: (Units=1/GPa)
#
#
# Indices 1 2 3 4 5 6 
#
# 1 0.013740 -0.000417 -0.006369 0.000000 0.000000 0.000000
# 2 -0.000417 0.008605 -0.003781 0.000000 0.000000 0.000000
# 3 -0.006369 -0.003781 0.023638 0.000000 0.000000 0.000000
# 4 0.000000 0.000000 0.000000 0.073177 0.000000 0.000000
# 5 0.000000 0.000000 0.000000 0.000000 0.022779 0.000000
# 6 0.000000 0.000000 0.000000 0.000000 0.000000 0.019567
#
#
# Mechanical properties :
#
#
# Convention : Reuss Voigt Hill
#
# Bulk Modulus (GPa) = 40.24248 44.00478 42.12363
# Shear Modulus (GPa) = 26.18851 35.11054 30.64952
#
# Velocity S-wave (km/s) = 3.24843 3.76129 3.51423
# Velocity P-wave (km/s) = 5.50317 6.04931 5.78269
#
# Compressibility (1/GPa) = 0.02484936
#
# Stress axis : x y z
#
# Youngs Moduli (GPa) = 72.77833 116.21134 42.30507
#
# Poissons Ratio (x) = 0.04852 0.26944
# Poissons Ratio (y) = 0.03038 0.15994
# Poissons Ratio (z) = 0.46351 0.43935
#
# Static dielectric constant tensor:
#      x y z
#    x 2.031680 0.000000 0.000000 
#    y 0.000000 2.019780 0.000000 
#    z 0.000000 0.000000 2.003670 
# 
# From -- ./inp_files/4284.got.cif
#   From: 2010.05.17/outbox.cif.g08.bks.cpg/sg41_3_cif.got.tgz:4284.got - 2010.06.03 18:54:24.
