data_PCOD9366467
_publ_section_title
;
Structure prediction by ZEFSAII (Michael W. Deem and Ramdas Pophale) SiO2 
 PCOD9366467
Probable space group: A B A 2
;
_chemical_formula_sum "Si O2"
_cell_formula_units_Z 44
_cell_length_a 19.289131
_cell_length_b 12.634122
_cell_length_c 7.878810
_cell_angle_alpha 90.000000
_cell_angle_beta 90.000000
_cell_angle_gamma 90.000000
_cell_volume 1920.075722
_symmetry_space_group_name_H-M "A B A 2"
_symmetry_group_IT_number 41
_symmetry_cell_setting 'orthorhombic'
loop_
_space_group_symop_operation_xyz
x,y,z
-x,-y,z
1/2-x,y,1/2+z
1/2+x,-y,1/2+z
x,1/2+y,1/2+z
-x,1/2-y,1/2+z
1/2-x,1/2+y,z
1/2+x,1/2-y,z
loop_
_atom_site_type_symbol
_atom_site_label
_atom_site_fract_x
_atom_site_fract_y
_atom_site_fract_z
Si Si1 0.283273 0.815257 0.298750
Si Si2 0.602808 0.805817 0.987386
Si Si3 0.643466 0.471918 0.735514
Si Si4 0.161722 0.228366 0.973886
Si Si5 0.500000 0.000000 0.407763
Si Si6 0.977017 0.793810 0.135289
O O1 0.337733 0.779456 0.444742
O O2 0.204918 0.808417 0.359265
O O3 0.304652 0.930383 0.235762
O O4 0.297022 0.728968 0.151678
O O5 0.555851 0.815600 0.818763
O O6 0.637335 0.912096 0.056628
O O7 0.548390 0.770518 0.132984
O O8 0.662065 0.383323 0.877277
O O9 0.567679 0.513482 0.791894
O O10 0.084827 0.261872 0.029165
O O11 0.491931 0.100405 0.529836
#
# Coordination Sequence:
#
# PCOD9366467 Si02
#       6
#     8   8   8   8   4   8
#     4  11  24  46  68 101 139 189 232 285 353 421
#     4  11  23  42  70  99 144 181 233 294 349 415
#     4  11  24  44  71  99 141 181 231 290 348 417
#     4  10  24  42  69  97 137 179 230 285 344 415
#     4  10  20  42  66 104 136 176 230 282 350 416
#     4  10  21  42  67 106 141 179 233 294 352 420
#
# _framework density 22.915762999999998
#
# number of rings (size 3 to 8) (size 9 to 14) (size 15 to 20)
#    0.000    1.455    1.818    3.273    2.545    3.636 
#    3.273    1.818    0.000    0.000    0.000    0.000 
#    0.000    0.000    0.000    0.000    0.000    0.000 
#
# Total GULP energy -123062.121282 kJ/mol
# GULP energy per Si atom -5593.732786 kJ/mol
# Density = 2.286361 g / cm^3
# Si number density = 22.915763 Si / 1000 Ang^3
#
#
#
# Elastic Constant Matrix: (Units=GPa)
#
#
# Indices 1 2 3 4 5 6 
#
# 1 84.2545 55.5492 29.1177 0.0000 0.0000 0.0000
# 2 55.5492 94.5103 32.8445 0.0000 0.0000 0.0000
# 3 29.1177 32.8445 108.2280 0.0000 0.0000 0.0000
# 4 0.0000 0.0000 0.0000 39.7729 0.0000 0.0000
# 5 0.0000 0.0000 0.0000 0.0000 30.8636 0.0000
# 6 0.0000 0.0000 0.0000 0.0000 0.0000 30.5644
#
#
#
# Elastic Compliance Matrix: (Units=1/GPa)
#
#
# Indices 1 2 3 4 5 6 
#
# 1 0.019759 -0.010917 -0.002003 0.000000 0.000000 0.000000
# 2 -0.010917 0.017861 -0.002483 0.000000 0.000000 0.000000
# 3 -0.002003 -0.002483 0.010532 0.000000 0.000000 0.000000
# 4 0.000000 0.000000 0.000000 0.025143 0.000000 0.000000
# 5 0.000000 0.000000 0.000000 0.000000 0.032401 0.000000
# 6 0.000000 0.000000 0.000000 0.000000 0.000000 0.032718
#
#
# Mechanical properties :
#
#
# Convention : Reuss Voigt Hill
#
# Bulk Modulus (GPa) = 57.65305 58.00171 57.82738
# Shear Modulus (GPa) = 28.57133 31.53895 30.05514
#
# Velocity S-wave (km/s) = 3.53483 3.71388 3.62546
# Velocity P-wave (km/s) = 6.47096 6.61485 6.54330
#
# Compressibility (1/GPa) = 0.01734514
#
# Stress axis : x y z
#
# Youngs Moduli (GPa) = 50.61039 55.98932 94.94778
#
# Poissons Ratio (x) = 0.61126 0.19016
# Poissons Ratio (y) = 0.55253 0.23576
# Poissons Ratio (z) = 0.10136 0.13902
#
# Static dielectric constant tensor:
#      x y z
#    x 1.870280 0.000000 0.000000 
#    y 0.000000 1.823230 0.000000 
#    z 0.000000 0.000000 1.908650 
# 
# From -- ./inp_files/2984.got.cif
#   From: 2010.05.17/outbox.cif.g08.bks.cpg/sg41_2_cif.got.tgz:2984.got - 2010.06.03 18:54:24.
