data_PCOD9366859
_publ_section_title
;
Structure prediction by ZEFSAII (Michael W. Deem and Ramdas Pophale) SiO2 
 PCOD9366859
Probable space group: A B A 2
;
_chemical_formula_sum "Si O2"
_cell_formula_units_Z 32
_cell_length_a 16.740261
_cell_length_b 12.801217
_cell_length_c 6.169353
_cell_angle_alpha 90.000000
_cell_angle_beta 90.000000
_cell_angle_gamma 90.000000
_cell_volume 1322.065904
_symmetry_space_group_name_H-M "A B A 2"
_symmetry_group_IT_number 41
_symmetry_cell_setting 'orthorhombic'
loop_
_space_group_symop_operation_xyz
x,y,z
-x,-y,z
1/2-x,y,1/2+z
1/2+x,-y,1/2+z
x,1/2+y,1/2+z
-x,1/2-y,1/2+z
1/2-x,1/2+y,z
1/2+x,1/2-y,z
loop_
_atom_site_type_symbol
_atom_site_label
_atom_site_fract_x
_atom_site_fract_y
_atom_site_fract_z
Si Si1 0.929826 0.127457 0.103340
Si Si2 0.885067 0.043486 0.692443
Si Si3 0.541135 0.360299 0.471900
Si Si4 0.761399 0.199165 0.225505
O O1 0.850321 0.151581 0.242387
O O2 0.010749 0.113779 0.234135
O O3 0.907489 0.034599 0.944097
O O4 0.940521 0.239291 0.985886
O O5 0.803266 0.106710 0.700132
O O6 0.961174 0.109030 0.604483
O O7 0.890002 0.934850 0.564827
O O8 0.744899 0.247998 0.472346
#
# Coordination Sequence:
#
# PCOD9366859 Si02
#       4
#     8   8   8   8
#     4  11  22  43  70  99 144 178 238 296 353 423
#     4  10  23  41  66 101 135 183 233 283 355 421
#     4  11  22  41  68 101 134 185 234 287 357 420
#     4  10  21  42  66  94 139 185 223 292 358 410
#
# _framework density 24.204542
#
# number of rings (size 3 to 8) (size 9 to 14) (size 15 to 20)
#    0.000    1.500    5.000    0.000    0.000    4.000 
#    0.000   10.000    0.000    0.000    0.000    0.000 
#    0.000    0.000    0.000    0.000    0.000    0.000 
#
# Total GULP energy -89068.936991 kJ/mol
# GULP energy per Si atom -5566.808562 kJ/mol
# Density = 2.414945 g / cm^3
# Si number density = 24.204542 Si / 1000 Ang^3
#
#
#
# Elastic Constant Matrix: (Units=GPa)
#
#
# Indices 1 2 3 4 5 6 
#
# 1 67.6351 20.2052 22.1472 0.0000 0.0000 0.0000
# 2 20.2052 77.6923 27.1440 0.0000 0.0000 0.0000
# 3 22.1472 27.1440 129.0646 0.0000 0.0000 0.0000
# 4 0.0000 0.0000 0.0000 31.5198 0.0000 0.0000
# 5 0.0000 0.0000 0.0000 0.0000********** 0.0000
# 6 0.0000 0.0000 0.0000 0.0000 0.0000 21.2189
#
#
#
# Elastic Compliance Matrix: (Units=1/GPa)
#
#
# Indices 1 2 3 4 5 6 
#
# 1 0.016535 -0.003571 -0.002086 0.000000 0.000000 0.000000
# 2 -0.003571 0.014663 -0.002471 0.000000 0.000000 0.000000
# 3 -0.002086 -0.002471 0.008626 0.000000 0.000000 0.000000
# 4 0.000000 0.000000 0.000000 0.031726 0.000000 0.000000
# 5 0.000000 0.000000 0.000000 0.000000 0.000002 0.000000
# 6 0.000000 0.000000 0.000000 0.000000 0.000000 0.047128
#
#
# Mechanical properties :
#
#
# Convention : Reuss Voigt Hill
#
# Bulk Modulus (GPa) = 42.43227 45.93163 44.18195
# Shear Modulus (GPa) = 35.01557 96465.07226 48250.04392
#
# Velocity S-wave (km/s) = 3.80762 199.85154 141.34203
# Velocity P-wave (km/s) = 6.07448 230.80989 163.26375
#
# Compressibility (1/GPa) = 0.02356697
#
# Stress axis : x y z
#
# Youngs Moduli (GPa) = 60.47670 68.19693 115.93180
#
# Poissons Ratio (x) = 0.24356 0.24187
# Poissons Ratio (y) = 0.21598 0.28648
# Poissons Ratio (z) = 0.12617 0.16852
#
# Static dielectric constant tensor:
#      x y z
#    x -440.101060 0.000000 0.000000 
#    y 0.000000 1.878620 0.000000 
#    z 0.000000 0.000000 2.231920 
# 
# From -- ./inp_files/398.got.cif
#   From: 2010.05.17/outbox.cif.g08.bks.cpg/sg41_1_cif.got.tgz:398.got - 2010.06.03 18:54:24.
