data_PCOD9366500
_publ_section_title
;
Structure prediction by ZEFSAII (Michael W. Deem and Ramdas Pophale) SiO2 
 PCOD9366500
Probable space group: A B A 2
;
_chemical_formula_sum "Si O2"
_cell_formula_units_Z 60
_cell_length_a 9.082102
_cell_length_b 15.725804
_cell_length_c 16.309057
_cell_angle_alpha 90.000000
_cell_angle_beta 90.000000
_cell_angle_gamma 90.000000
_cell_volume 2329.314253
_symmetry_space_group_name_H-M "A B A 2"
_symmetry_group_IT_number 41
_symmetry_cell_setting 'orthorhombic'
loop_
_space_group_symop_operation_xyz
x,y,z
-x,-y,z
1/2-x,y,1/2+z
1/2+x,-y,1/2+z
x,1/2+y,1/2+z
-x,1/2-y,1/2+z
1/2-x,1/2+y,z
1/2+x,1/2-y,z
loop_
_atom_site_type_symbol
_atom_site_label
_atom_site_fract_x
_atom_site_fract_y
_atom_site_fract_z
Si Si1 0.949461 0.087644 0.384540
Si Si2 0.303473 0.294399 0.768581
Si Si3 0.641667 0.395513 0.220878
Si Si4 0.902085 0.314409 0.374788
Si Si5 0.500000 0.000000 0.582172
Si Si6 0.326625 0.509969 0.830665
Si Si7 0.496562 0.278186 0.520342
Si Si8 0.711554 0.147216 0.599208
O O1 0.017825 0.161203 0.440989
O O2 0.027954 0.090909 0.295770
O O3 0.776478 0.064579 0.365236
O O4 0.000000 0.000000 0.426086
O O5 0.326845 0.204083 0.721834
O O6 0.456646 0.319897 0.813150
O O7 0.190194 0.264747 0.839143
O O8 0.233436 0.354150 0.698353
O O9 0.576163 0.428028 0.137382
O O10 0.776989 0.458709 0.240759
O O11 0.806017 0.399170 0.373935
O O12 0.935438 0.301731 0.469327
O O13 0.361953 0.936992 0.555564
O O14 0.500000 0.500000 0.838779
O O15 0.620692 0.233310 0.574543
O O16 0.375871 0.331977 0.568604
#
# Coordination Sequence:
#
# PCOD9366500 Si02
#       8
#     8   8   8   8   4   8   8   8
#     4  10  22  44  72 103 146 195 248 318 384 445
#     4  11  23  45  72 112 135 206 253 321 369 471
#     4  10  20  43  74 104 145 186 252 318 378 443
#     4  11  24  40  80 100 148 187 266 312 376 441
#     4  12  24  48  76 102 152 210 248 306 394 464
#     4  10  23  35  64 119 138 171 240 334 376 434
#     4  12  27  50  70 112 152 211 248 322 384 478
#     4  12  30  47  76 107 163 202 262 305 405 465
#
# _framework density 25.758652999999999
#
# number of rings (size 3 to 8) (size 9 to 14) (size 15 to 20)
#    0.000    1.067    3.333    3.200    9.333    1.067 
#    2.400    0.000    0.000    0.000    0.000    0.000 
#    0.000    0.000    0.000    0.000    0.000    0.000 
#
# Total GULP energy -167320.135542 kJ/mol
# GULP energy per Si atom -5577.337851 kJ/mol
# Density = 2.570003 g / cm^3
# Si number density = 25.758653 Si / 1000 Ang^3
#
#
#
# Elastic Constant Matrix: (Units=GPa)
#
#
# Indices 1 2 3 4 5 6 
#
# 1 127.6845 25.6215 12.4421 0.0000 0.0000 0.0000
# 2 25.6215 131.0051 3.8269 0.0000 0.0000 0.0000
# 3 12.4421 3.8269 68.5068 0.0000 0.0000 0.0000
# 4 0.0000 0.0000 0.0000 -10.4672 0.0000 0.0000
# 5 0.0000 0.0000 0.0000 0.0000 8.6908 0.0000
# 6 0.0000 0.0000 0.0000 0.0000 0.0000 29.1937
#
#
#
# Elastic Compliance Matrix: (Units=1/GPa)
#
#
# Indices 1 2 3 4 5 6 
#
# 1 0.008287 -0.001579 -0.001417 0.000000 0.000000 0.000000
# 2 -0.001579 0.007947 -0.000157 0.000000 0.000000 0.000000
# 3 -0.001417 -0.000157 0.014863 0.000000 0.000000 0.000000
# 4 0.000000 0.000000 0.000000 -0.095536 0.000000 0.000000
# 5 0.000000 0.000000 0.000000 0.000000 0.115065 0.000000
# 6 0.000000 0.000000 0.000000 0.000000 0.000000 0.034254
#
#
# Mechanical properties :
#
#
# Convention : Reuss Voigt Hill
#
# Bulk Modulus (GPa) = 40.33836 45.66416 43.00126
# Shear Modulus (GPa) = 50.27693 24.50383 37.39038
#
# Velocity S-wave (km/s) = 4.42276 3.08764 3.81408
# Velocity P-wave (km/s) = 6.46338 5.52065 6.01052
#
# Compressibility (1/GPa) = 0.02479030
#
# Stress axis : x y z
#
# Youngs Moduli (GPa) = 120.67429 125.83748 67.28036
#
# Poissons Ratio (x) = 0.19874 0.09532
# Poissons Ratio (y) = 0.19058 0.01057
# Poissons Ratio (z) = 0.17097 0.01977
#
# Static dielectric constant tensor:
#      x y z
#    x 2.178500 0.000000 0.000000 
#    y 0.000000 2.205740 0.000000 
#    z 0.000000 0.000000 2.064710 
# 
# From -- ./inp_files/9770.got.cif
#   From: 2010.05.17/outbox.cif.g08.bks.cpg/sg41_5_cif.got.tgz:9770.got - 2010.06.03 18:54:24.
