data_PCOD9366052
_publ_section_title
;
Structure prediction by ZEFSAII (Michael W. Deem and Ramdas Pophale) SiO2 
 PCOD9366052
Probable space group: A B A 2
;
_chemical_formula_sum "Si O2"
_cell_formula_units_Z 40
_cell_length_a 8.498115
_cell_length_b 21.187457
_cell_length_c 8.644184
_cell_angle_alpha 90.000000
_cell_angle_beta 90.000000
_cell_angle_gamma 90.000000
_cell_volume 1556.415118
_symmetry_space_group_name_H-M "A B A 2"
_symmetry_group_IT_number 41
_symmetry_cell_setting 'orthorhombic'
loop_
_space_group_symop_operation_xyz
x,y,z
-x,-y,z
1/2-x,y,1/2+z
1/2+x,-y,1/2+z
x,1/2+y,1/2+z
-x,1/2-y,1/2+z
1/2-x,1/2+y,z
1/2+x,1/2-y,z
loop_
_atom_site_type_symbol
_atom_site_label
_atom_site_fract_x
_atom_site_fract_y
_atom_site_fract_z
Si Si1 0.241796 0.451136 0.432500
Si Si2 0.055234 0.681693 0.693494
Si Si3 0.527580 0.107614 0.185974
Si Si4 0.180170 0.545337 0.681922
Si Si5 0.868072 0.775496 0.540859
O O1 0.359610 0.416940 0.549328
O O2 0.121729 0.405132 0.343887
O O3 0.161364 0.509171 0.522096
O O4 0.335478 0.489961 0.304196
O O5 0.074726 0.606794 0.706399
O O6 0.190744 0.703540 0.573882
O O7 0.897335 0.706945 0.614368
O O8 0.087645 0.711496 0.862881
O O9 0.362564 0.069530 0.186517
O O10 0.476451 0.178420 0.145849
#
# Coordination Sequence:
#
# PCOD9366052 Si02
#       5
#     8   8   8   8   8
#     4  10  19  38  64  91 128 170 214 266 323 394
#     4  11  24  45  73  98 134 179 226 284 341 409
#     4  10  23  41  62  93 133 171 219 275 333 402
#     4  10  21  41  64  93 130 173 216 268 335 401
#     4  11  25  47  70  99 135 177 229 283 345 406
#
# _framework density 25.700085000000001
#
# number of rings (size 3 to 8) (size 9 to 14) (size 15 to 20)
#    0.000    1.600    0.000    6.000    0.000    4.800 
#    0.000   36.000    0.000    0.000    0.000    0.000 
#    0.000    0.000    0.000    0.000    0.000    0.000 
#
# Total GULP energy -112158.476217 kJ/mol
# GULP energy per Si atom -5607.923811 kJ/mol
# Density = 2.564159 g / cm^3
# Si number density = 25.700085 Si / 1000 Ang^3
#
#
#
# Elastic Constant Matrix: (Units=GPa)
#
#
# Indices 1 2 3 4 5 6 
#
# 1 86.8231 46.2511 8.7137 0.0000 0.0000 0.0000
# 2 46.2511 65.7290 21.1279 0.0000 0.0000 0.0000
# 3 8.7137 21.1279 128.3422 0.0000 0.0000 0.0000
# 4 0.0000 0.0000 0.0000 39.7834 0.0000 0.0000
# 5 0.0000 0.0000 0.0000 0.0000 28.0893 0.0000
# 6 0.0000 0.0000 0.0000 0.0000 0.0000 58.4703
#
#
#
# Elastic Compliance Matrix: (Units=1/GPa)
#
#
# Indices 1 2 3 4 5 6 
#
# 1 0.018530 -0.013340 0.000938 0.000000 0.000000 0.000000
# 2 -0.013340 0.025668 -0.003320 0.000000 0.000000 0.000000
# 3 0.000938 -0.003320 0.008274 0.000000 0.000000 0.000000
# 4 0.000000 0.000000 0.000000 0.025136 0.000000 0.000000
# 5 0.000000 0.000000 0.000000 0.000000 0.035601 0.000000
# 6 0.000000 0.000000 0.000000 0.000000 0.000000 0.017103
#
#
# Mechanical properties :
#
#
# Convention : Reuss Voigt Hill
#
# Bulk Modulus (GPa) = 47.55475 48.11997 47.83736
# Shear Modulus (GPa) = 29.62676 38.92205 34.27440
#
# Velocity S-wave (km/s) = 3.39896 3.89584 3.65585
# Velocity P-wave (km/s) = 5.82647 6.24509 6.03941
#
# Compressibility (1/GPa) = 0.02102840
#
# Stress axis : x y z
#
# Youngs Moduli (GPa) = 53.96637 38.95855 120.85328
#
# Poissons Ratio (x) = 0.51972 -0.11337
# Poissons Ratio (y) = 0.71994 0.40121
# Poissons Ratio (z) = -0.05062 0.12934
#
# Static dielectric constant tensor:
#      x y z
#    x 2.059580 0.000000 0.000000 
#    y 0.000000 1.998620 0.000000 
#    z 0.000000 0.000000 1.987020 
# 
# From -- ./inp_files/1712.got.cif
#   From: 2010.05.17/outbox.cif.g08.bks.cpg/sg41_1_cif.got.tgz:1712.got - 2010.06.03 18:54:24.
