data_PCOD9366570
_publ_section_title
;
Structure prediction by ZEFSAII (Michael W. Deem and Ramdas Pophale) SiO2 
 PCOD9366570
Probable space group: A B A 2
;
_chemical_formula_sum "Si O2"
_cell_formula_units_Z 64
_cell_length_a 8.426971
_cell_length_b 12.069799
_cell_length_c 26.560823
_cell_angle_alpha 90.000000
_cell_angle_beta 90.000000
_cell_angle_gamma 90.000000
_cell_volume 2701.550343
_symmetry_space_group_name_H-M "A B A 2"
_symmetry_group_IT_number 41
_symmetry_cell_setting 'orthorhombic'
loop_
_space_group_symop_operation_xyz
x,y,z
-x,-y,z
1/2-x,y,1/2+z
1/2+x,-y,1/2+z
x,1/2+y,1/2+z
-x,1/2-y,1/2+z
1/2-x,1/2+y,z
1/2+x,1/2-y,z
loop_
_atom_site_type_symbol
_atom_site_label
_atom_site_fract_x
_atom_site_fract_y
_atom_site_fract_z
Si Si1 0.327447 0.956808 0.269510
Si Si2 0.650840 0.425328 0.449439
Si Si3 0.742999 0.381500 0.843755
Si Si4 0.517277 0.259572 0.281169
Si Si5 0.855346 0.422286 0.116165
Si Si6 0.104615 0.592756 0.695122
Si Si7 0.995261 0.729994 0.032600
Si Si8 0.801420 0.078314 0.032473
O O1 0.342033 0.826823 0.267517
O O2 0.500000 0.000000 0.253911
O O3 0.294505 0.993559 0.326691
O O4 0.201032 0.020852 0.236420
O O5 0.500000 0.500000 0.431598
O O6 0.747785 0.374307 0.403220
O O7 0.576926 0.330614 0.484969
O O8 0.758498 0.506037 0.483607
O O9 0.911846 0.345673 0.821003
O O10 0.613088 0.310719 0.812026
O O11 0.500588 0.320672 0.227255
O O12 0.739234 0.367976 0.157016
O O13 0.932879 0.327217 0.082375
O O14 0.755508 0.504111 0.079483
O O15 0.000000 0.500000 0.136446
O O16 0.000000 0.500000 0.667866
O O17 0.028547 0.861207 0.033472
O O18 0.815690 0.685982 0.031600
#
# Coordination Sequence:
#
# PCOD9366570 Si02
#       8
#     8   8   8   8   8   8   8   8
#     4   9  20  39  57  78 114 156 196 244 304 366
#     4   9  20  37  58  86 120 161 202 244 302 369
#     4  10  21  37  61  87 118 156 199 250 305 367
#     4  10  22  39  57  84 118 154 201 254 309 371
#     4   9  20  39  59  83 119 161 200 243 305 373
#     4  11  22  36  59  87 116 152 200 258 311 369
#     4   9  19  37  60  87 120 160 199 249 306 362
#     4   9  19  38  60  84 120 156 200 250 298 363
#
# _framework density 23.690100999999999
#
# number of rings (size 3 to 8) (size 9 to 14) (size 15 to 20)
#    0.000    2.500    0.000    2.625    0.000    8.000 
#    0.000    9.375    0.000    0.000    0.000    0.000 
#    0.000    0.000    0.000    0.000    0.000    0.000 
#
# Total GULP energy -178641.293779 kJ/mol
# GULP energy per Si atom -5582.540431 kJ/mol
# Density = 2.363618 g / cm^3
# Si number density = 23.690101 Si / 1000 Ang^3
#
#
#
# Elastic Constant Matrix: (Units=GPa)
#
#
# Indices 1 2 3 4 5 6 
#
# 1 72.8588 17.6432 31.6740 0.0000 0.0000 0.0000
# 2 17.6432 59.2969 7.2062 0.0000 0.0000 0.0000
# 3 31.6740 7.2062 105.6829 0.0000 0.0000 0.0000
# 4 0.0000 0.0000 0.0000 12.5699 0.0000 0.0000
# 5 0.0000 0.0000 0.0000 0.0000 31.5961 0.0000
# 6 0.0000 0.0000 0.0000 0.0000 0.0000 43.5125
#
#
#
# Elastic Compliance Matrix: (Units=1/GPa)
#
#
# Indices 1 2 3 4 5 6 
#
# 1 0.016867 -0.004441 -0.004752 0.000000 0.000000 0.000000
# 2 -0.004441 0.018175 0.000092 0.000000 0.000000 0.000000
# 3 -0.004752 0.000092 0.010880 0.000000 0.000000 0.000000
# 4 0.000000 0.000000 0.000000 0.079555 0.000000 0.000000
# 5 0.000000 0.000000 0.000000 0.000000 0.031649 0.000000
# 6 0.000000 0.000000 0.000000 0.000000 0.000000 0.022982
#
#
# Mechanical properties :
#
#
# Convention : Reuss Voigt Hill
#
# Bulk Modulus (GPa) = 36.07706 38.98726 37.53216
# Shear Modulus (GPa) = 24.09058 29.62339 26.85699
#
# Velocity S-wave (km/s) = 3.19235 3.54001 3.37067
# Velocity P-wave (km/s) = 5.37122 5.76210 5.57009
#
# Compressibility (1/GPa) = 0.02771845
#
# Stress axis : x y z
#
# Youngs Moduli (GPa) = 59.28911 55.02209 91.90931
#
# Poissons Ratio (x) = 0.24435 0.43677
# Poissons Ratio (y) = 0.26330 -0.00843
# Poissons Ratio (z) = 0.28175 -0.00505
#
# Static dielectric constant tensor:
#      x y z
#    x 2.179820 0.000000 0.000000 
#    y 0.000000 1.960210 0.000000 
#    z 0.000000 0.000000 1.852450 
# 
# From -- ./inp_files/12684.got.cif
#   From: 2010.05.17/outbox.cif.g08.bks.cpg/sg41_7_cif.got.tgz:12684.got - 2010.06.03 18:54:24.
