data_PCOD9366662
_publ_section_title
;
Structure prediction by ZEFSAII (Michael W. Deem and Ramdas Pophale) SiO2 
 PCOD9366662
Probable space group: A B A 2
;
_chemical_formula_sum "Si O2"
_cell_formula_units_Z 40
_cell_length_a 14.786048
_cell_length_b 7.602145
_cell_length_c 18.614147
_cell_angle_alpha 90.000000
_cell_angle_beta 90.000000
_cell_angle_gamma 90.000000
_cell_volume 2092.335867
_symmetry_space_group_name_H-M "A B A 2"
_symmetry_group_IT_number 41
_symmetry_cell_setting 'orthorhombic'
loop_
_space_group_symop_operation_xyz
x,y,z
-x,-y,z
1/2-x,y,1/2+z
1/2+x,-y,1/2+z
x,1/2+y,1/2+z
-x,1/2-y,1/2+z
1/2-x,1/2+y,z
1/2+x,1/2-y,z
loop_
_atom_site_type_symbol
_atom_site_label
_atom_site_fract_x
_atom_site_fract_y
_atom_site_fract_z
Si Si1 0.072066 0.142359 0.715190
Si Si2 0.500000 0.500000 0.168549
Si Si3 0.633414 0.319521 0.058593
Si Si4 0.500000 0.500000 0.850906
Si Si5 0.834056 0.412509 0.076755
Si Si6 0.020981 0.702823 0.958456
O O1 0.028409 0.333716 0.714876
O O2 0.153602 0.153514 0.658613
O O3 0.922723 0.924469 0.796604
O O4 0.000000 0.000000 0.682867
O O5 0.581028 0.434997 0.117134
O O6 0.733457 0.391273 0.046990
O O7 0.644997 0.118166 0.081989
O O8 0.567903 0.297749 0.990865
O O9 0.456881 0.338607 0.895280
O O10 0.905585 0.318229 0.023015
O O11 0.000000 0.500000 0.936726
#
# Coordination Sequence:
#
# PCOD9366662 Si02
#       6
#     8   4   8   4   8   8
#     4  10  21  39  61  90 130 164 218 257 323 381
#     4  12  19  38  66  91 124 174 208 272 319 366
#     4  11  22  35  69  97 128 162 221 270 322 368
#     4  10  23  38  68  89 136 176 202 266 337 390
#     4  11  21  40  64 102 126 163 226 273 306 395
#     4  10  22  41  63  93 129 173 214 267 322 385
#
# _framework density 19.117388999999999
#
# number of rings (size 3 to 8) (size 9 to 14) (size 15 to 20)
#    0.600    0.800    4.000    2.400    4.200    0.000 
#    0.000    0.000   13.200    0.000    0.000    0.000 
#    0.000    0.000    0.000    0.000    0.000    0.000 
#
# Total GULP energy -111406.509865 kJ/mol
# GULP energy per Si atom -5570.325493 kJ/mol
# Density = 1.907388 g / cm^3
# Si number density = 19.117389 Si / 1000 Ang^3
#
#
#
# Elastic Constant Matrix: (Units=GPa)
#
#
# Indices 1 2 3 4 5 6 
#
# 1 90.8688 33.2828 28.2118 0.0000 0.0000 0.0000
# 2 33.2828 118.9508 72.0642 0.0000 0.0000 0.0000
# 3 28.2118 72.0642 86.2248 0.0000 0.0000 0.0000
# 4 0.0000 0.0000 0.0000 43.9209 0.0000 0.0000
# 5 0.0000 0.0000 0.0000 0.0000 4.6592 0.0000
# 6 0.0000 0.0000 0.0000 0.0000 0.0000 27.6640
#
#
#
# Elastic Compliance Matrix: (Units=1/GPa)
#
#
# Indices 1 2 3 4 5 6 
#
# 1 0.012495 -0.002065 -0.002362 0.000000 0.000000 0.000000
# 2 -0.002065 0.017371 -0.013842 0.000000 0.000000 0.000000
# 3 -0.002362 -0.013842 0.023940 0.000000 0.000000 0.000000
# 4 0.000000 0.000000 0.000000 0.022768 0.000000 0.000000
# 5 0.000000 0.000000 0.000000 0.000000 0.214628 0.000000
# 6 0.000000 0.000000 0.000000 0.000000 0.000000 0.036148
#
#
# Mechanical properties :
#
#
# Convention : Reuss Voigt Hill
#
# Bulk Modulus (GPa) = 57.91801 62.57356 60.24579
# Shear Modulus (GPa) = 13.52655 26.08119 19.80387
#
# Velocity S-wave (km/s) = 2.66287 3.69760 3.22205
# Velocity P-wave (km/s) = 6.31001 7.14367 6.73974
#
# Compressibility (1/GPa) = 0.01726579
#
# Stress axis : x y z
#
# Youngs Moduli (GPa) = 80.03447 57.56815 41.77187
#
# Poissons Ratio (x) = 0.11887 0.09868
# Poissons Ratio (y) = 0.16526 0.57822
# Poissons Ratio (z) = 0.18907 0.79688
#
# Static dielectric constant tensor:
#      x y z
#    x 1.686790 0.000000 0.000000 
#    y 0.000000 1.697620 0.000000 
#    z 0.000000 0.000000 1.704290 
# 
# From -- ./inp_files/10246.got.cif
#   From: 2010.05.17/outbox.cif.g08.bks.cpg/sg41_6_cif.got.tgz:10246.got - 2010.06.03 18:54:24.
