data_PCOD9366913
_publ_section_title
;
Structure prediction by ZEFSAII (Michael W. Deem and Ramdas Pophale) SiO2 
 PCOD9366913
Probable space group: A B A 2
;
_chemical_formula_sum "Si O2"
_cell_formula_units_Z 60
_cell_length_a 25.013847
_cell_length_b 9.599058
_cell_length_c 9.768954
_cell_angle_alpha 90.000000
_cell_angle_beta 90.000000
_cell_angle_gamma 90.000000
_cell_volume 2345.617372
_symmetry_space_group_name_H-M "A B A 2"
_symmetry_group_IT_number 41
_symmetry_cell_setting 'orthorhombic'
loop_
_space_group_symop_operation_xyz
x,y,z
-x,-y,z
1/2-x,y,1/2+z
1/2+x,-y,1/2+z
x,1/2+y,1/2+z
-x,1/2-y,1/2+z
1/2-x,1/2+y,z
1/2+x,1/2-y,z
loop_
_atom_site_type_symbol
_atom_site_label
_atom_site_fract_x
_atom_site_fract_y
_atom_site_fract_z
Si Si1 0.384402 0.270008 0.721390
Si Si2 0.256712 0.670681 0.521766
Si Si3 0.925749 0.766275 0.921317
Si Si4 0.321217 0.497857 0.154930
Si Si5 0.000000 0.000000 0.005634
Si Si6 0.366589 0.697999 0.643003
Si Si7 0.277091 0.364675 0.768201
Si Si8 0.461418 0.222818 0.967699
O O1 0.400005 0.280805 0.563395
O O2 0.359110 0.113386 0.721600
O O3 0.340760 0.383854 0.767365
O O4 0.432408 0.270182 0.828592
O O5 0.211019 0.554533 0.522665
O O6 0.312277 0.622961 0.592678
O O7 0.266038 0.751545 0.384214
O O8 0.232183 0.783701 0.625406
O O9 0.952041 0.921387 0.928306
O O10 0.019762 0.827439 0.418574
O O11 0.883761 0.780020 0.799820
O O12 0.351396 0.359443 0.109179
O O13 0.273096 0.468314 0.262871
O O14 0.025554 0.858901 0.065516
O O15 0.417319 0.643257 0.556653
#
# Coordination Sequence:
#
# PCOD9366913 Si02
#       8
#     8   8   8   8   4   8   8   8
#     4  11  22  43  67  96 133 176 220 280 339 409
#     4  10  23  42  64  95 138 170 222 278 325 419
#     4  10  23  42  68  93 132 173 226 274 336 406
#     4  10  25  41  69  95 134 180 223 269 354 403
#     4   8  22  38  70  88 128 174 220 270 344 384
#     4  11  22  43  67  97 130 178 219 270 340 411
#     4  10  23  42  63  97 134 171 225 276 333 412
#     4  10  21  44  66  95 128 169 227 279 327 399
#
# _framework density 25.579619000000001
#
# number of rings (size 3 to 8) (size 9 to 14) (size 15 to 20)
#    0.800    1.067    1.333    1.600    7.467    5.333 
#    0.000    1.333    0.000    0.000    0.000    0.000 
#    0.000    0.000    0.000    0.000    0.000    0.000 
#
# Total GULP energy -167301.271395 kJ/mol
# GULP energy per Si atom -5576.709046 kJ/mol
# Density = 2.552140 g / cm^3
# Si number density = 25.579619 Si / 1000 Ang^3
#
#
#
# Elastic Constant Matrix: (Units=GPa)
#
#
# Indices 1 2 3 4 5 6 
#
# 1 139.6593 13.9205 49.3941 0.0000 0.0000 0.0000
# 2 13.9205 60.1182 -9.6611 0.0000 0.0000 0.0000
# 3 49.3941 -9.6611 119.4027 0.0000 0.0000 0.0000
# 4 0.0000 0.0000 0.0000 9.1554 0.0000 0.0000
# 5 0.0000 0.0000 0.0000 0.0000 35.2361 0.0000
# 6 0.0000 0.0000 0.0000 0.0000 0.0000 35.1475
#
#
#
# Elastic Compliance Matrix: (Units=1/GPa)
#
#
# Indices 1 2 3 4 5 6 
#
# 1 0.008786 -0.002653 -0.003849 0.000000 0.000000 0.000000
# 2 -0.002653 0.017654 0.002526 0.000000 0.000000 0.000000
# 3 -0.003849 0.002526 0.010172 0.000000 0.000000 0.000000
# 4 0.000000 0.000000 0.000000 0.109226 0.000000 0.000000
# 5 0.000000 0.000000 0.000000 0.000000 0.028380 0.000000
# 6 0.000000 0.000000 0.000000 0.000000 0.000000 0.028452
#
#
# Mechanical properties :
#
#
# Convention : Reuss Voigt Hill
#
# Bulk Modulus (GPa) = 34.89272 47.38746 41.14009
# Shear Modulus (GPa) = 22.70922 33.60957 28.15940
#
# Velocity S-wave (km/s) = 2.98281 3.62874 3.32151
# Velocity P-wave (km/s) = 5.05305 6.01021 5.55229
#
# Compressibility (1/GPa) = 0.02865927
#
# Stress axis : x y z
#
# Youngs Moduli (GPa) = 113.81596 56.64391 98.31148
#
# Poissons Ratio (x) = 0.15028 0.37843
# Poissons Ratio (y) = 0.30196 -0.24833
# Poissons Ratio (z) = 0.43811 -0.14308
#
# Static dielectric constant tensor:
#      x y z
#    x 2.088910 0.000000 0.000000 
#    y 0.000000 2.169820 0.000000 
#    z 0.000000 0.000000 2.014740 
# 
# From -- ./inp_files/3806.got.cif
#   From: 2010.05.17/outbox.cif.g08.bks.cpg/sg41_2_cif.got.tgz:3806.got - 2010.06.03 18:54:24.
