data_PCOD9366646
_publ_section_title
;
Structure prediction by ZEFSAII (Michael W. Deem and Ramdas Pophale) SiO2 
 PCOD9366646
Probable space group: A B A 2
;
_chemical_formula_sum "Si O2"
_cell_formula_units_Z 60
_cell_length_a 26.214830
_cell_length_b 16.181556
_cell_length_c 7.943992
_cell_angle_alpha 90.000000
_cell_angle_beta 90.000000
_cell_angle_gamma 90.000000
_cell_volume 3369.815506
_symmetry_space_group_name_H-M "A B A 2"
_symmetry_group_IT_number 41
_symmetry_cell_setting 'orthorhombic'
loop_
_space_group_symop_operation_xyz
x,y,z
-x,-y,z
1/2-x,y,1/2+z
1/2+x,-y,1/2+z
x,1/2+y,1/2+z
-x,1/2-y,1/2+z
1/2-x,1/2+y,z
1/2+x,1/2-y,z
loop_
_atom_site_type_symbol
_atom_site_label
_atom_site_fract_x
_atom_site_fract_y
_atom_site_fract_z
Si Si1 0.808954 0.353223 0.532750
Si Si2 0.136631 0.266471 0.839626
Si Si3 0.377112 0.592047 0.341740
Si Si4 0.692497 0.357422 0.649954
Si Si5 0.000000 0.000000 0.997098
Si Si6 0.035793 0.663542 0.328281
Si Si7 0.025541 0.181102 0.432474
Si Si8 0.432393 0.423568 0.285445
O O1 0.826640 0.257682 0.496103
O O2 0.844065 0.397014 0.672146
O O3 0.751020 0.355340 0.595745
O O4 0.811815 0.391482 0.342700
O O5 0.168151 0.233512 0.679088
O O6 0.089683 0.203843 0.874851
O O7 0.111366 0.353702 0.798701
O O8 0.341001 0.601537 0.504382
O O9 0.421881 0.660484 0.339825
O O10 0.407506 0.506300 0.357884
O O11 0.972864 0.928258 0.892174
O O12 0.042684 0.953908 0.110301
O O13 0.993318 0.726212 0.399302
O O14 0.033883 0.667711 0.128341
O O15 0.980939 0.118526 0.375819
#
# Coordination Sequence:
#
# PCOD9366646 Si02
#       8
#     8   8   8   8   4   8   8   8
#     4  10  21  40  67  90 113 159 214 257 314 368
#     4   9  21  39  59  86 123 160 203 253 300 380
#     4  12  21  39  65  87 124 167 197 260 307 364
#     4  10  21  38  68  88 115 154 217 256 309 373
#     4  12  24  36  58  90 128 166 202 262 294 368
#     4  11  23  37  60  86 126 162 212 245 308 369
#     4  11  23  39  58  89 123 170 202 250 302 382
#     4  11  24  38  57  91 131 160 203 250 310 362
#
# _framework density 17.805128
#
# number of rings (size 3 to 8) (size 9 to 14) (size 15 to 20)
#    0.800    0.533    4.000    2.400    5.600    0.000 
#    0.000    1.333    0.000    0.000    0.000    0.000 
#    0.000    0.000    0.000    0.000    0.000    0.000 
#
# Total GULP energy -167052.550395 kJ/mol
# GULP energy per Si atom -5568.418346 kJ/mol
# Density = 1.776460 g / cm^3
# Si number density = 17.805128 Si / 1000 Ang^3
#
#
#
# Elastic Constant Matrix: (Units=GPa)
#
#
# Indices 1 2 3 4 5 6 
#
# 1 91.5658 25.0291 31.4631 0.0000 0.0000 0.0000
# 2 25.0291 67.9918 13.8505 0.0000 0.0000 0.0000
# 3 31.4631 13.8505 89.4941 0.0000 0.0000 0.0000
# 4 0.0000 0.0000 0.0000 20.3954 0.0000 0.0000
# 5 0.0000 0.0000 0.0000 0.0000 70.2735 0.0000
# 6 0.0000 0.0000 0.0000 0.0000 0.0000 16.5024
#
#
#
# Elastic Compliance Matrix: (Units=1/GPa)
#
#
# Indices 1 2 3 4 5 6 
#
# 1 0.013453 -0.004119 -0.004092 0.000000 0.000000 0.000000
# 2 -0.004119 0.016447 -0.001097 0.000000 0.000000 0.000000
# 3 -0.004092 -0.001097 0.012782 0.000000 0.000000 0.000000
# 4 0.000000 0.000000 0.000000 0.049031 0.000000 0.000000
# 5 0.000000 0.000000 0.000000 0.000000 0.014230 0.000000
# 6 0.000000 0.000000 0.000000 0.000000 0.000000 0.060597
#
#
# Mechanical properties :
#
#
# Convention : Reuss Voigt Hill
#
# Bulk Modulus (GPa) = 41.55219 43.30414 42.42816
# Shear Modulus (GPa) = 25.88260 33.34818 29.61539
#
# Velocity S-wave (km/s) = 3.81683 4.33246 4.08279
# Velocity P-wave (km/s) = 6.54309 7.02858 6.79018
#
# Compressibility (1/GPa) = 0.02406612
#
# Stress axis : x y z
#
# Youngs Moduli (GPa) = 74.33240 60.79982 78.23221
#
# Poissons Ratio (x) = 0.25042 0.32014
# Poissons Ratio (y) = 0.30616 0.08586
# Poissons Ratio (z) = 0.30418 0.06673
#
# Static dielectric constant tensor:
#      x y z
#    x 1.634800 0.000000 0.000000 
#    y 0.000000 1.619600 0.000000 
#    z 0.000000 0.000000 1.632120 
# 
# From -- ./inp_files/3854.got.cif
#   From: 2010.05.17/outbox.cif.g08.bks.cpg/sg41_2_cif.got.tgz:3854.got - 2010.06.03 18:54:24.
