data_PCOD9366877
_publ_section_title
;
Structure prediction by ZEFSAII (Michael W. Deem and Ramdas Pophale) SiO2 
 PCOD9366877
Probable space group: A B A 2
;
_chemical_formula_sum "Si O2"
_cell_formula_units_Z 60
_cell_length_a 28.068096
_cell_length_b 17.698043
_cell_length_c 5.128816
_cell_angle_alpha 90.000000
_cell_angle_beta 90.000000
_cell_angle_gamma 90.000000
_cell_volume 2547.741245
_symmetry_space_group_name_H-M "A B A 2"
_symmetry_group_IT_number 41
_symmetry_cell_setting 'orthorhombic'
loop_
_space_group_symop_operation_xyz
x,y,z
-x,-y,z
1/2-x,y,1/2+z
1/2+x,-y,1/2+z
x,1/2+y,1/2+z
-x,1/2-y,1/2+z
1/2-x,1/2+y,z
1/2+x,1/2-y,z
loop_
_atom_site_type_symbol
_atom_site_label
_atom_site_fract_x
_atom_site_fract_y
_atom_site_fract_z
Si Si1 0.220102 0.671932 0.857740
Si Si2 0.500000 0.000000 0.508055
Si Si3 0.276076 0.854401 0.330405
Si Si4 0.633746 0.080369 0.029353
Si Si5 0.529219 0.356630 0.662677
Si Si6 0.397512 0.000668 0.548338
Si Si7 0.387947 0.648069 0.282850
Si Si8 0.430663 0.781701 0.990315
O O1 0.245506 0.647024 0.591300
O O2 0.218781 0.763489 0.835958
O O3 0.165327 0.647927 0.893362
O O4 0.485338 0.073425 0.342660
O O5 0.549099 0.018880 0.651381
O O6 0.266955 0.874572 0.631081
O O7 0.320066 0.891847 0.184505
O O8 0.606331 0.037758 0.265982
O O9 0.606764 0.154216 0.918392
O O10 0.637676 0.028123 0.775347
O O11 0.568410 0.382240 0.454950
O O12 0.479554 0.323947 0.556773
O O13 0.553882 0.284111 0.795405
O O14 0.388046 0.090525 0.538000
O O15 0.404390 0.732911 0.214425
#
# Coordination Sequence:
#
# PCOD9366877 Si02
#       8
#     8   4   8   8   8   8   8   8
#     4  10  24  44  73 107 139 183 245 309 370 426
#     4  12  26  48  68 102 154 196 240 290 360 452
#     4  10  21  42  72 105 137 179 237 303 367 423
#     4  12  27  47  71 106 144 189 239 301 357 437
#     4  12  27  46  70 110 150 198 245 299 370 439
#     4  12  29  45  71 102 150 195 238 283 378 427
#     4  12  27  47  72 104 149 196 243 304 363 443
#     4  12  26  42  71 107 144 190 245 300 354 427
#
# _framework density 23.550273000000001
#
# number of rings (size 3 to 8) (size 9 to 14) (size 15 to 20)
#    0.000    0.533    5.333    1.600    7.467    1.600 
#    0.000    4.000    0.000    0.000    0.000    0.000 
#    0.000    0.000    0.000    0.000    0.000    0.000 
#
# Total GULP energy -167636.930558 kJ/mol
# GULP energy per Si atom -5587.897685 kJ/mol
# Density = 2.349667 g / cm^3
# Si number density = 23.550273 Si / 1000 Ang^3
#
#
#
# Elastic Constant Matrix: (Units=GPa)
#
#
# Indices 1 2 3 4 5 6 
#
# 1 97.8157 25.2644 -6.0195 0.0000 0.0000 0.0000
# 2 25.2644 91.7709 29.6844 0.0000 0.0000 0.0000
# 3 -6.0195 29.6844 69.0665 0.0000 0.0000 0.0000
# 4 0.0000 0.0000 0.0000 30.2640 0.0000 0.0000
# 5 0.0000 0.0000 0.0000 0.0000 31.4742 0.0000
# 6 0.0000 0.0000 0.0000 0.0000 0.0000 27.6325
#
#
#
# Elastic Compliance Matrix: (Units=1/GPa)
#
#
# Indices 1 2 3 4 5 6 
#
# 1 0.011432 -0.004030 0.002728 0.000000 0.000000 0.000000
# 2 -0.004030 0.014077 -0.006401 0.000000 0.000000 0.000000
# 3 0.002728 -0.006401 0.017468 0.000000 0.000000 0.000000
# 4 0.000000 0.000000 0.000000 0.033043 0.000000 0.000000
# 5 0.000000 0.000000 0.000000 0.000000 0.031772 0.000000
# 6 0.000000 0.000000 0.000000 0.000000 0.000000 0.036189
#
#
# Mechanical properties :
#
#
# Convention : Reuss Voigt Hill
#
# Bulk Modulus (GPa) = 36.26982 39.61239 37.94111
# Shear Modulus (GPa) = 29.66021 31.85575 30.75798
#
# Velocity S-wave (km/s) = 3.55271 3.68186 3.61786
# Velocity P-wave (km/s) = 5.68009 5.91030 5.79634
#
# Compressibility (1/GPa) = 0.02757113
#
# Stress axis : x y z
#
# Youngs Moduli (GPa) = 87.47352 71.03970 57.24816
#
# Poissons Ratio (x) = 0.28627 -0.15619
# Poissons Ratio (y) = 0.35249 0.36646
# Poissons Ratio (z) = -0.23866 0.45474
#
# Static dielectric constant tensor:
#      x y z
#    x 1.950410 0.000000 0.000000 
#    y 0.000000 1.894430 0.000000 
#    z 0.000000 0.000000 1.924990 
# 
# From -- ./inp_files/1198.got.cif
#   From: 2010.05.17/outbox.cif.g08.bks.cpg/sg41_1_cif.got.tgz:1198.got - 2010.06.03 18:54:24.
