data_PCOD9366426
_publ_section_title
;
Structure prediction by ZEFSAII (Michael W. Deem and Ramdas Pophale) SiO2 
 PCOD9366426
Probable space group: A B A 2
;
_chemical_formula_sum "Si O2"
_cell_formula_units_Z 56
_cell_length_a 13.544491
_cell_length_b 8.438101
_cell_length_c 22.469438
_cell_angle_alpha 90.000000
_cell_angle_beta 90.000000
_cell_angle_gamma 90.000000
_cell_volume 2568.027194
_symmetry_space_group_name_H-M "A B A 2"
_symmetry_group_IT_number 41
_symmetry_cell_setting 'orthorhombic'
loop_
_space_group_symop_operation_xyz
x,y,z
-x,-y,z
1/2-x,y,1/2+z
1/2+x,-y,1/2+z
x,1/2+y,1/2+z
-x,1/2-y,1/2+z
1/2-x,1/2+y,z
1/2+x,1/2-y,z
loop_
_atom_site_type_symbol
_atom_site_label
_atom_site_fract_x
_atom_site_fract_y
_atom_site_fract_z
Si Si1 0.333053 0.713473 0.465940
Si Si2 0.301991 0.997340 0.544959
Si Si3 0.833592 0.759454 0.331068
Si Si4 0.500000 0.500000 0.297210
Si Si5 0.000000 0.000000 0.507259
Si Si6 0.842337 0.727774 0.744519
Si Si7 0.382087 0.298290 0.597426
Si Si8 0.353284 0.928753 0.217809
O O1 0.241392 0.619507 0.495280
O O2 0.317417 0.779495 0.399828
O O3 0.417206 0.580844 0.467577
O O4 0.357231 0.858985 0.509710
O O5 0.360858 0.113700 0.587899
O O6 0.213303 0.907462 0.579396
O O7 0.726091 0.788560 0.300630
O O8 0.877841 0.629473 0.284858
O O9 0.910678 0.905063 0.329155
O O10 0.561948 0.630390 0.261305
O O11 0.038923 0.863397 0.550991
O O12 0.867142 0.886126 0.709606
O O13 0.763116 0.615072 0.712424
O O14 0.405892 0.333973 0.665643
#
# Coordination Sequence:
#
# PCOD9366426 Si02
#       8
#     8   8   8   4   4   8   8   8
#     4  10  21  40  63  92 130 168 228 286 341 421
#     4   9  21  37  64  87 116 181 221 261 352 399
#     4  10  23  41  64 101 137 179 228 297 357 421
#     4  12  23  42  66  96 146 186 239 284 356 448
#     4  10  23  40  60  94 124 174 227 288 330 406
#     4  10  22  41  64 101 137 183 236 282 365 422
#     4  10  20  41  63  89 128 168 223 281 339 410
#     4  10  21  41  64  94 137 177 220 295 355 418
#
# _framework density 21.806622999999998
#
# number of rings (size 3 to 8) (size 9 to 14) (size 15 to 20)
#    0.857    1.143    1.429    1.286    4.000    2.286 
#    2.571    2.857    0.000    0.000    0.000    0.000 
#    0.000    0.000    0.000    0.000    0.000    0.000 
#
# Total GULP energy -156122.190041 kJ/mol
# GULP energy per Si atom -5575.792501 kJ/mol
# Density = 2.175699 g / cm^3
# Si number density = 21.806623 Si / 1000 Ang^3
#
#
#
# Elastic Constant Matrix: (Units=GPa)
#
#
# Indices 1 2 3 4 5 6 
#
# 1 63.8627 25.5442 22.1750 0.0000 0.0000 0.0000
# 2 25.5442 120.8885 21.5037 0.0000 0.0000 0.0000
# 3 22.1750 21.5037 100.3107 0.0000 0.0000 0.0000
# 4 0.0000 0.0000 0.0000 17.5547 0.0000 0.0000
# 5 0.0000 0.0000 0.0000 0.0000 -0.7235 0.0000
# 6 0.0000 0.0000 0.0000 0.0000 0.0000 34.8946
#
#
#
# Elastic Compliance Matrix: (Units=1/GPa)
#
#
# Indices 1 2 3 4 5 6 
#
# 1 0.018102 -0.003237 -0.003308 0.000000 0.000000 0.000000
# 2 -0.003237 0.009179 -0.001252 0.000000 0.000000 0.000000
# 3 -0.003308 -0.001252 0.010969 0.000000 0.000000 0.000000
# 4 0.000000 0.000000 0.000000 0.056965 0.000000 0.000000
# 5 0.000000 0.000000 0.000000 0.000000 -1.382220 0.000000
# 6 0.000000 0.000000 0.000000 0.000000 0.000000 0.028658
#
#
# Mechanical properties :
#
#
# Convention : Reuss Voigt Hill
#
# Bulk Modulus (GPa) = 44.13830 47.05643 45.59737
# Shear Modulus (GPa) = -4.04792 24.73441 10.34325
#
# Velocity S-wave (km/s) = -1.36393 3.37153 2.18024
# Velocity P-wave (km/s) = 4.21952 6.06483 5.22429
#
# Compressibility (1/GPa) = 0.02265606
#
# Stress axis : x y z
#
# Youngs Moduli (GPa) = 55.24332 108.94757 91.16859
#
# Poissons Ratio (x) = 0.35262 0.30157
# Poissons Ratio (y) = 0.17880 0.11416
# Poissons Ratio (z) = 0.18273 0.13642
#
# Static dielectric constant tensor:
#      x y z
#    x 1.892630 0.000000 0.000000 
#    y 0.000000 1.891500 0.000000 
#    z 0.000000 0.000000 1.803460 
# 
# From -- ./inp_files/11574.got.cif
#   From: 2010.05.17/outbox.cif.g08.bks.cpg/sg41_6_cif.got.tgz:11574.got - 2010.06.03 18:54:24.
