data_PCOD9366876
_publ_section_title
;
Structure prediction by ZEFSAII (Michael W. Deem and Ramdas Pophale) SiO2 
 PCOD9366876
Probable space group: A B A 2
;
_chemical_formula_sum "Si O2"
_cell_formula_units_Z 56
_cell_length_a 5.682272
_cell_length_b 32.585894
_cell_length_c 14.674317
_cell_angle_alpha 90.000000
_cell_angle_beta 90.000000
_cell_angle_gamma 90.000000
_cell_volume 2717.124609
_symmetry_space_group_name_H-M "A B A 2"
_symmetry_group_IT_number 41
_symmetry_cell_setting 'orthorhombic'
loop_
_space_group_symop_operation_xyz
x,y,z
-x,-y,z
1/2-x,y,1/2+z
1/2+x,-y,1/2+z
x,1/2+y,1/2+z
-x,1/2-y,1/2+z
1/2-x,1/2+y,z
1/2+x,1/2-y,z
loop_
_atom_site_type_symbol
_atom_site_label
_atom_site_fract_x
_atom_site_fract_y
_atom_site_fract_z
Si Si1 0.099120 0.584097 0.278140
Si Si2 0.522221 0.774278 0.883642
Si Si3 0.637051 0.835251 0.723360
Si Si4 0.750000 0.606903 0.633642
Si Si5 0.250000 0.523855 0.633642
Si Si6 0.599120 0.415903 0.989144
Si Si7 0.637051 0.335251 0.543923
O O1 0.187587 0.631343 0.269208
O O2 0.268138 0.553413 0.222694
O O3 0.070143 0.573713 0.383642
O O4 0.867136 0.582037 0.215682
O O5 0.265499 0.752518 0.883642
O O6 0.543085 0.803152 0.795297
O O7 0.543086 0.803152 0.971987
O O8 0.436786 0.863903 0.681876
O O9 0.750000 0.814759 0.633642
O O10 0.563215 0.636097 0.585407
O O11 0.867136 0.582036 0.551602
O O12 0.500000 0.500000 0.639720
O O13 0.268139 0.553413 0.544589
O O14 0.000000 0.500000 0.627564
O O15 0.687587 0.368657 0.998076
#
# Coordination Sequence:
#
# PCOD9366876 Si02
#       7
#     8   8   8   8   8   8   8
#     4  11  23  43  74 103 137 194 249 292 355 435
#     4  12  30  46  68 110 150 179 230 307 364 416
#     4  10  23  43  72 100 135 190 242 289 348 436
#     4  10  21  42  72 103 134 180 256 302 331 428
#     4  12  27  48  68 109 160 182 234 310 369 420
#     4  11  23  43  74 103 137 194 249 292 355 435
#     4  10  23  43  72 100 135 190 242 289 348 436
#
# _framework density 20.610023000000002
#
# number of rings (size 3 to 8) (size 9 to 14) (size 15 to 20)
#    0.000    1.143    5.714    0.857   10.000    2.286 
#    0.000    0.000    0.000    0.000    0.000    0.000 
#    0.000    0.000    0.000    0.000    0.000    0.000 
#
# Total GULP energy -156199.829412 kJ/mol
# GULP energy per Si atom -5578.565336 kJ/mol
# Density = 2.056311 g / cm^3
# Si number density = 20.610023 Si / 1000 Ang^3
#
#
#
# Elastic Constant Matrix: (Units=GPa)
#
#
# Indices 1 2 3 4 5 6 
#
# 1 75.9104 12.9079 32.6292 0.0000 0.0000 0.0000
# 2 12.9079 51.2717 43.6511 0.0000 0.0000 0.0000
# 3 32.6292 43.6511 198.5259 0.0000 0.0000 0.0000
# 4 0.0000 0.0000 0.0000 26.7735 0.0000 0.0000
# 5 0.0000 0.0000 0.0000 0.0000 18.6267 0.0000
# 6 0.0000 0.0000 0.0000 0.0000 0.0000 -15.6073
#
#
#
# Elastic Compliance Matrix: (Units=1/GPa)
#
#
# Indices 1 2 3 4 5 6 
#
# 1 0.014335 -0.001972 -0.001922 0.000000 0.000000 0.000000
# 2 -0.001972 0.024267 -0.005012 0.000000 0.000000 0.000000
# 3 -0.001922 -0.005012 0.006455 0.000000 0.000000 0.000000
# 4 0.000000 0.000000 0.000000 0.037350 0.000000 0.000000
# 5 0.000000 0.000000 0.000000 0.000000 0.053686 0.000000
# 6 0.000000 0.000000 0.000000 0.000000 0.000000 -0.064072
#
#
# Mechanical properties :
#
#
# Convention : Reuss Voigt Hill
#
# Bulk Modulus (GPa) = 36.70430 56.00937 46.35684
# Shear Modulus (GPa) = 50.54808 21.72657 36.13732
#
# Velocity S-wave (km/s) = 4.95774 3.25033 4.19189
# Velocity P-wave (km/s) = 7.11477 6.42814 6.78015
#
# Compressibility (1/GPa) = 0.02724476
#
# Stress axis : x y z
#
# Youngs Moduli (GPa) = 69.75877 41.20788 154.91798
#
# Poissons Ratio (x) = 0.08127 0.29782
# Poissons Ratio (y) = 0.13758 0.77639
# Poissons Ratio (z) = 0.13411 0.20652
#
# Static dielectric constant tensor:
#      x y z
#    x 1.812400 0.000000 0.000000 
#    y 0.000000 1.754890 0.000000 
#    z 0.000000 0.000000 1.698410 
# 
# From -- ./inp_files/6965.got.cif
#   From: 2010.05.17/outbox.cif.g08.bks.cpg/sg41_4_cif.got.tgz:6965.got - 2010.06.03 18:54:24.
