data_PCOD9366361
_publ_section_title
;
Structure prediction by ZEFSAII (Michael W. Deem and Ramdas Pophale) SiO2 
 PCOD9366361
Probable space group: A B A 2
;
_chemical_formula_sum "Si O2"
_cell_formula_units_Z 60
_cell_length_a 13.865033
_cell_length_b 22.059271
_cell_length_c 8.050551
_cell_angle_alpha 90.000000
_cell_angle_beta 90.000000
_cell_angle_gamma 90.000000
_cell_volume 2462.281314
_symmetry_space_group_name_H-M "A B A 2"
_symmetry_group_IT_number 41
_symmetry_cell_setting 'orthorhombic'
loop_
_space_group_symop_operation_xyz
x,y,z
-x,-y,z
1/2-x,y,1/2+z
1/2+x,-y,1/2+z
x,1/2+y,1/2+z
-x,1/2-y,1/2+z
1/2-x,1/2+y,z
1/2+x,1/2-y,z
loop_
_atom_site_type_symbol
_atom_site_label
_atom_site_fract_x
_atom_site_fract_y
_atom_site_fract_z
Si Si1 0.665800 0.323507 0.888760
Si Si2 0.183294 0.885631 0.399734
Si Si3 0.980167 0.883776 0.464027
Si Si4 0.710279 0.901087 0.066676
Si Si5 0.835986 0.726148 0.400995
Si Si6 0.484415 0.749986 0.092949
Si Si7 0.000000 0.000000 0.706878
Si Si8 0.193963 0.966885 0.705172
O O1 0.669717 0.358749 0.715064
O O2 0.756196 0.278482 0.908182
O O3 0.685978 0.376860 0.018179
O O4 0.574802 0.284940 0.947787
O O5 0.071975 0.879765 0.341684
O O6 0.265099 0.833179 0.384689
O O7 0.177185 0.907502 0.590717
O O8 0.220059 0.946472 0.316312
O O9 0.998366 0.820204 0.554149
O O10 0.867681 0.889861 0.417494
O O11 0.986634 0.942447 0.584693
O O12 0.714739 0.970902 0.112371
O O13 0.909428 0.745769 0.249900
O O14 0.905862 0.723548 0.564817
O O15 0.095912 0.982892 0.803617
#
# Coordination Sequence:
#
# PCOD9366361 Si02
#       8
#     8   8   8   8   8   8   4   8
#     4  12  24  42  68 101 140 183 237 290 356 428
#     4  11  23  43  70 104 137 181 235 295 348 431
#     4  10  20  39  66  95 135 176 229 276 347 409
#     4  11  23  44  69 102 141 187 231 295 354 433
#     4  12  26  42  68 102 142 184 237 295 361 423
#     4  12  25  43  66 105 143 188 237 300 360 436
#     4   8  18  36  62  90 122 176 220 268 332 408
#     4  10  22  41  70  97 131 181 232 286 353 415
#
# _framework density 24.367646000000001
#
# number of rings (size 3 to 8) (size 9 to 14) (size 15 to 20)
#    0.000    1.067    4.000    3.200    0.000    2.133 
#    0.000    0.000    0.000    6.400    0.000    0.000 
#    0.000    0.000    0.000    0.000    0.000    0.000 
#
# Total GULP energy -167048.935264 kJ/mol
# GULP energy per Si atom -5568.297842 kJ/mol
# Density = 2.431218 g / cm^3
# Si number density = 24.367646 Si / 1000 Ang^3
#
#
#
# Elastic Constant Matrix: (Units=GPa)
#
#
# Indices 1 2 3 4 5 6 
#
# 1 106.7971 51.5637 15.4696 0.0000 0.0000 0.0000
# 2 51.5637 127.9249 16.1821 0.0000 0.0000 0.0000
# 3 15.4696 16.1821 47.2217 0.0000 0.0000 0.0000
# 4 0.0000 0.0000 0.0000 19.0745 0.0000 0.0000
# 5 0.0000 0.0000 0.0000 0.0000 27.7274 0.0000
# 6 0.0000 0.0000 0.0000 0.0000 0.0000 31.6735
#
#
#
# Elastic Compliance Matrix: (Units=1/GPa)
#
#
# Indices 1 2 3 4 5 6 
#
# 1 0.011871 -0.004487 -0.002351 0.000000 0.000000 0.000000
# 2 -0.004487 0.009868 -0.001911 0.000000 0.000000 0.000000
# 3 -0.002351 -0.001911 0.022602 0.000000 0.000000 0.000000
# 4 0.000000 0.000000 0.000000 0.052426 0.000000 0.000000
# 5 0.000000 0.000000 0.000000 0.000000 0.036065 0.000000
# 6 0.000000 0.000000 0.000000 0.000000 0.000000 0.031572
#
#
# Mechanical properties :
#
#
# Convention : Reuss Voigt Hill
#
# Bulk Modulus (GPa) = 37.25710 49.81939 43.53825
# Shear Modulus (GPa) = 26.19853 28.94362 27.57108
#
# Velocity S-wave (km/s) = 3.28248 3.45017 3.36737
# Velocity P-wave (km/s) = 5.44876 6.03000 5.74673
#
# Compressibility (1/GPa) = 0.02684052
#
# Stress axis : x y z
#
# Youngs Moduli (GPa) = 84.24092 101.34121 44.24407
#
# Poissons Ratio (x) = 0.45476 0.10402
# Poissons Ratio (y) = 0.37802 0.08457
# Poissons Ratio (z) = 0.19805 0.19371
#
# Static dielectric constant tensor:
#      x y z
#    x 2.128920 0.000000 0.000000 
#    y 0.000000 1.915230 0.000000 
#    z 0.000000 0.000000 2.117530 
# 
# From -- ./inp_files/2772.got.cif
#   From: 2010.05.17/outbox.cif.g08.bks.cpg/sg41_2_cif.got.tgz:2772.got - 2010.06.03 18:54:24.
