data_PCOD9366072
_publ_section_title
;
Structure prediction by ZEFSAII (Michael W. Deem and Ramdas Pophale) SiO2 
 PCOD9366072
Probable space group: A B A 2
;
_chemical_formula_sum "Si O2"
_cell_formula_units_Z 52
_cell_length_a 16.038657
_cell_length_b 16.607512
_cell_length_c 8.734010
_cell_angle_alpha 90.000000
_cell_angle_beta 90.000000
_cell_angle_gamma 90.000000
_cell_volume 2326.410019
_symmetry_space_group_name_H-M "A B A 2"
_symmetry_group_IT_number 41
_symmetry_cell_setting 'orthorhombic'
loop_
_space_group_symop_operation_xyz
x,y,z
-x,-y,z
1/2-x,y,1/2+z
1/2+x,-y,1/2+z
x,1/2+y,1/2+z
-x,1/2-y,1/2+z
1/2-x,1/2+y,z
1/2+x,1/2-y,z
loop_
_atom_site_type_symbol
_atom_site_label
_atom_site_fract_x
_atom_site_fract_y
_atom_site_fract_z
Si Si1 0.507912 0.806729 0.684790
Si Si2 0.743575 0.559656 0.769951
Si Si3 0.118078 0.075957 0.997611
Si Si4 0.191668 0.056631 0.506510
Si Si5 0.500000 0.000000 0.237092
Si Si6 0.640023 0.605612 0.043105
Si Si7 0.987504 0.859722 0.533861
O O1 0.584520 0.856499 0.612265
O O2 0.433875 0.836888 0.575834
O O3 0.507808 0.712644 0.650261
O O4 0.490794 0.832232 0.860399
O O5 0.705503 0.489441 0.666020
O O6 0.786135 0.623294 0.659888
O O7 0.809475 0.515612 0.882262
O O8 0.674877 0.601175 0.874024
O O9 0.216310 0.094434 0.969092
O O10 0.058707 0.054434 0.850678
O O11 0.115941 0.987537 0.076715
O O12 0.110547 0.112528 0.517662
O O13 0.466011 0.934968 0.113749
#
# Coordination Sequence:
#
# PCOD9366072 Si02
#       7
#     8   8   8   8   4   8   8
#     4  12  26  45  66 104 144 181 237 301 355 415
#     4   8  18  35  66 103 129 173 231 278 343 422
#     4  10  21  42  77 102 140 183 231 293 365 414
#     4  10  20  40  69 102 134 182 236 283 348 440
#     4  12  24  42  76 104 138 188 234 294 354 434
#     4  10  19  39  66  98 139 177 227 285 351 419
#     4  12  28  44  69 101 144 191 243 289 360 422
#
# _framework density 22.352035999999998
#
# number of rings (size 3 to 8) (size 9 to 14) (size 15 to 20)
#    0.000    1.846    1.538    4.615    4.308    0.000 
#    0.000    6.154    0.000    0.000    0.000    0.000 
#    0.000    0.000    0.000    0.000    0.000    0.000 
#
# Total GULP energy -144890.272544 kJ/mol
# GULP energy per Si atom -5572.702790 kJ/mol
# Density = 2.230116 g / cm^3
# Si number density = 22.352036 Si / 1000 Ang^3
#
#
#
# Elastic Constant Matrix: (Units=GPa)
#
#
# Indices 1 2 3 4 5 6 
#
# 1 63.1823 6.2321 28.0929 0.0000 0.0000 0.0000
# 2 6.2321 80.0687 13.2160 0.0000 0.0000 0.0000
# 3 28.0929 13.2160 150.2522 0.0000 0.0000 0.0000
# 4 0.0000 0.0000 0.0000 23.7635 0.0000 0.0000
# 5 0.0000 0.0000 0.0000 0.0000 23.5887 0.0000
# 6 0.0000 0.0000 0.0000 0.0000 0.0000 5.8279
#
#
#
# Elastic Compliance Matrix: (Units=1/GPa)
#
#
# Indices 1 2 3 4 5 6 
#
# 1 0.017316 -0.000825 -0.003165 0.000000 0.000000 0.000000
# 2 -0.000825 0.012713 -0.000964 0.000000 0.000000 0.000000
# 3 -0.003165 -0.000964 0.007332 0.000000 0.000000 0.000000
# 4 0.000000 0.000000 0.000000 0.042081 0.000000 0.000000
# 5 0.000000 0.000000 0.000000 0.000000 0.042393 0.000000
# 6 0.000000 0.000000 0.000000 0.000000 0.000000 0.171589
#
#
# Mechanical properties :
#
#
# Convention : Reuss Voigt Hill
#
# Bulk Modulus (GPa) = 36.42711 43.17615 39.80163
# Shear Modulus (GPa) = 16.00087 27.03350 21.51718
#
# Velocity S-wave (km/s) = 2.67845 3.48148 3.10603
# Velocity P-wave (km/s) = 5.08899 5.95980 5.54153
#
# Compressibility (1/GPa) = 0.02745208
#
# Stress axis : x y z
#
# Youngs Moduli (GPa) = 57.75050 78.66207 136.38813
#
# Poissons Ratio (x) = 0.06492 0.43167
# Poissons Ratio (y) = 0.04766 0.13146
# Poissons Ratio (z) = 0.18278 0.07582
#
# Static dielectric constant tensor:
#      x y z
#    x 1.979830 0.000000 0.000000 
#    y 0.000000 1.843550 0.000000 
#    z 0.000000 0.000000 1.895040 
# 
# From -- ./inp_files/3399.got.cif
#   From: 2010.05.17/outbox.cif.g08.bks.cpg/sg41_2_cif.got.tgz:3399.got - 2010.06.03 18:54:24.
