data_PCOD9366622
_publ_section_title
;
Structure prediction by ZEFSAII (Michael W. Deem and Ramdas Pophale) SiO2 
 PCOD9366622
Probable space group: A B A 2
;
_chemical_formula_sum "Si O2"
_cell_formula_units_Z 64
_cell_length_a 29.459229
_cell_length_b 12.063925
_cell_length_c 8.738563
_cell_angle_alpha 90.000000
_cell_angle_beta 90.000000
_cell_angle_gamma 90.000000
_cell_volume 3105.632240
_symmetry_space_group_name_H-M "A B A 2"
_symmetry_group_IT_number 41
_symmetry_cell_setting 'orthorhombic'
loop_
_space_group_symop_operation_xyz
x,y,z
-x,-y,z
1/2-x,y,1/2+z
1/2+x,-y,1/2+z
x,1/2+y,1/2+z
-x,1/2-y,1/2+z
1/2-x,1/2+y,z
1/2+x,1/2-y,z
loop_
_atom_site_type_symbol
_atom_site_label
_atom_site_fract_x
_atom_site_fract_y
_atom_site_fract_z
Si Si1 0.184611 0.878659 0.347570
Si Si2 0.375586 0.329920 0.737425
Si Si3 0.444018 0.729458 0.470215
Si Si4 0.899094 0.006986 0.458393
Si Si5 0.622282 0.813121 0.449305
Si Si6 0.540392 0.193025 0.814493
Si Si7 0.745981 0.040851 0.099273
Si Si8 0.315222 0.003890 0.351039
O O1 0.148434 0.979083 0.367409
O O2 0.153529 0.770437 0.348173
O O3 0.219262 0.897723 0.211490
O O4 0.215133 0.877402 0.499647
O O5 0.413363 0.307228 0.863586
O O6 0.390670 0.424988 0.615851
O O7 0.370565 0.223520 0.625655
O O8 0.330809 0.377026 0.820882
O O9 0.415620 0.615877 0.490609
O O10 0.455588 0.782731 0.634302
O O11 0.489883 0.701073 0.378707
O O12 0.936597 0.076548 0.363267
O O13 0.571197 0.785185 0.401543
O O14 0.640245 0.932103 0.403502
O O15 0.711052 0.965797 0.195328
O O16 0.777888 0.978313 0.980594
#
# Coordination Sequence:
#
# PCOD9366622 Si02
#       8
#     8   8   8   8   8   8   8   8
#     4   9  20  39  58  91 122 162 204 260 305 365
#     4  10  23  42  64  95 128 164 209 261 306 380
#     4  12  24  42  70  92 126 170 206 251 324 368
#     4  10  22  44  65  89 136 164 204 262 314 362
#     4  10  22  41  64  86 130 161 206 256 324 367
#     4  10  23  41  65  98 123 162 212 258 301 390
#     4  10  21  38  62  85 129 157 213 262 297 381
#     4  11  22  41  60  92 125 166 205 264 312 364
#
# _framework density 20.607718999999999
#
# number of rings (size 3 to 8) (size 9 to 14) (size 15 to 20)
#    0.000    2.000    2.500    2.625    5.250    1.000 
#    0.000    5.625    0.000    0.000    0.000    0.000 
#    0.000    0.000    0.000    0.000    0.000    0.000 
#
# Total GULP energy -178534.463252 kJ/mol
# GULP energy per Si atom -5579.201977 kJ/mol
# Density = 2.056082 g / cm^3
# Si number density = 20.607719 Si / 1000 Ang^3
#
#
#
# Elastic Constant Matrix: (Units=GPa)
#
#
# Indices 1 2 3 4 5 6 
#
# 1 85.3945 15.0905 17.9846 0.0000 0.0000 0.0000
# 2 15.0905 28.4573 21.2895 0.0000 0.0000 0.0000
# 3 17.9846 21.2895 92.3204 0.0000 0.0000 0.0000
# 4 0.0000 0.0000 0.0000 17.2755 0.0000 0.0000
# 5 0.0000 0.0000 0.0000 0.0000 37.2478 0.0000
# 6 0.0000 0.0000 0.0000 0.0000 0.0000 17.5536
#
#
#
# Elastic Compliance Matrix: (Units=1/GPa)
#
#
# Indices 1 2 3 4 5 6 
#
# 1 0.013020 -0.006051 -0.001141 0.000000 0.000000 0.000000
# 2 -0.006051 0.045279 -0.009263 0.000000 0.000000 0.000000
# 3 -0.001141 -0.009263 0.013190 0.000000 0.000000 0.000000
# 4 0.000000 0.000000 0.000000 0.057885 0.000000 0.000000
# 5 0.000000 0.000000 0.000000 0.000000 0.026847 0.000000
# 6 0.000000 0.000000 0.000000 0.000000 0.000000 0.056968
#
#
# Mechanical properties :
#
#
# Convention : Reuss Voigt Hill
#
# Bulk Modulus (GPa) = 25.92032 34.98907 30.45469
# Shear Modulus (GPa) = 19.30812 24.53588 21.92200
#
# Velocity S-wave (km/s) = 3.06426 3.45427 3.26510
# Velocity P-wave (km/s) = 5.01247 5.73802 5.38747
#
# Compressibility (1/GPa) = 0.03857977
#
# Stress axis : x y z
#
# Youngs Moduli (GPa) = 76.80542 22.08550 75.81410
#
# Poissons Ratio (x) = 0.13363 0.08651
# Poissons Ratio (y) = 0.46472 0.70225
# Poissons Ratio (z) = 0.08764 0.20457
#
# Static dielectric constant tensor:
#      x y z
#    x 1.740540 0.000000 0.000000 
#    y 0.000000 1.741080 0.000000 
#    z 0.000000 0.000000 1.761650 
# 
# From -- ./inp_files/3996.got.cif
#   From: 2010.05.17/outbox.cif.g08.bks.cpg/sg41_2_cif.got.tgz:3996.got - 2010.06.03 18:54:24.
