data_PCOD9366337
_publ_section_title
;
Structure prediction by ZEFSAII (Michael W. Deem and Ramdas Pophale) SiO2 
 PCOD9366337
Probable space group: A B A 2
;
_chemical_formula_sum "Si O2"
_cell_formula_units_Z 40
_cell_length_a 12.483463
_cell_length_b 13.601056
_cell_length_c 10.003093
_cell_angle_alpha 90.000000
_cell_angle_beta 90.000000
_cell_angle_gamma 90.000000
_cell_volume 1698.407949
_symmetry_space_group_name_H-M "A B A 2"
_symmetry_group_IT_number 41
_symmetry_cell_setting 'orthorhombic'
loop_
_space_group_symop_operation_xyz
x,y,z
-x,-y,z
1/2-x,y,1/2+z
1/2+x,-y,1/2+z
x,1/2+y,1/2+z
-x,1/2-y,1/2+z
1/2-x,1/2+y,z
1/2+x,1/2-y,z
loop_
_atom_site_type_symbol
_atom_site_label
_atom_site_fract_x
_atom_site_fract_y
_atom_site_fract_z
Si Si1 0.759222 0.010681 0.102610
Si Si2 0.554944 0.605273 0.248748
Si Si3 0.342768 0.201951 0.694162
Si Si4 0.878588 0.468133 0.336815
Si Si5 0.682108 0.747310 0.405636
O O1 0.798282 0.907583 0.168836
O O2 0.649836 0.015375 0.190533
O O3 0.848012 0.088058 0.148409
O O4 0.784641 0.999787 0.944111
O O5 0.500000 0.500000 0.274373
O O6 0.468633 0.683368 0.196753
O O7 0.608231 0.655096 0.375162
O O8 0.303638 0.255067 0.562490
O O9 0.293580 0.250096 0.825518
O O10 0.873803 0.349014 0.354301
O O11 0.000000 0.500000 0.375687
#
# Coordination Sequence:
#
# PCOD9366337 Si02
#       5
#     8   8   8   8   8
#     4   9  19  37  60  87 125 167 212 262 322 389
#     4  10  21  39  62  90 128 171 212 268 332 389
#     4   9  20  38  58  86 121 161 208 257 322 385
#     4  10  20  39  63  92 129 171 218 274 330 390
#     4  10  21  37  61  91 124 162 210 267 323 395
#
# _framework density 23.551468
#
# number of rings (size 3 to 8) (size 9 to 14) (size 15 to 20)
#    0.000    2.400    0.000    3.000    0.000    4.800 
#    0.000   14.000    0.000    0.000    0.000    1.400 
#    0.000    0.000    0.000    0.000    0.000    0.000 
#
# Total GULP energy -111495.970195 kJ/mol
# GULP energy per Si atom -5574.798510 kJ/mol
# Density = 2.349786 g / cm^3
# Si number density = 23.551468 Si / 1000 Ang^3
#
#
#
# Elastic Constant Matrix: (Units=GPa)
#
#
# Indices 1 2 3 4 5 6 
#
# 1 80.1592 52.4488 39.6281 0.0000 0.0000 0.0000
# 2 52.4488 74.2413 40.3663 0.0000 0.0000 0.0000
# 3 39.6281 40.3663 102.8569 0.0000 0.0000 0.0000
# 4 0.0000 0.0000 0.0000 15.4798 0.0000 0.0000
# 5 0.0000 0.0000 0.0000 0.0000 19.4685 0.0000
# 6 0.0000 0.0000 0.0000 0.0000 0.0000 33.3244
#
#
#
# Elastic Compliance Matrix: (Units=1/GPa)
#
#
# Indices 1 2 3 4 5 6 
#
# 1 0.024050 -0.015195 -0.003303 0.000000 0.000000 0.000000
# 2 -0.015195 0.026723 -0.004634 0.000000 0.000000 0.000000
# 3 -0.003303 -0.004634 0.012813 0.000000 0.000000 0.000000
# 4 0.000000 0.000000 0.000000 0.064601 0.000000 0.000000
# 5 0.000000 0.000000 0.000000 0.000000 0.051365 0.000000
# 6 0.000000 0.000000 0.000000 0.000000 0.000000 0.030008
#
#
# Mechanical properties :
#
#
# Convention : Reuss Voigt Hill
#
# Bulk Modulus (GPa) = 57.72094 58.01599 57.86846
# Shear Modulus (GPa) = 19.11339 21.97546 20.54443
#
# Velocity S-wave (km/s) = 2.85188 3.05795 2.95671
# Velocity P-wave (km/s) = 5.95029 6.09551 6.02334
#
# Compressibility (1/GPa) = 0.01732473
#
# Stress axis : x y z
#
# Youngs Moduli (GPa) = 41.58026 37.42034 78.04522
#
# Poissons Ratio (x) = 0.56859 0.25775
# Poissons Ratio (y) = 0.63180 0.36162
# Poissons Ratio (z) = 0.13732 0.17339
#
# Static dielectric constant tensor:
#      x y z
#    x 1.945120 0.000000 0.000000 
#    y 0.000000 2.029100 0.000000 
#    z 0.000000 0.000000 1.958990 
# 
# From -- ./inp_files/4883.got.cif
#   From: 2010.05.17/outbox.cif.g08.bks.cpg/sg41_3_cif.got.tgz:4883.got - 2010.06.03 18:54:24.
