data_PCOD9366636
_publ_section_title
;
Structure prediction by ZEFSAII (Michael W. Deem and Ramdas Pophale) SiO2 
 PCOD9366636
Probable space group: A B A 2
;
_chemical_formula_sum "Si O2"
_cell_formula_units_Z 64
_cell_length_a 19.601133
_cell_length_b 9.209604
_cell_length_c 15.446315
_cell_angle_alpha 90.000000
_cell_angle_beta 90.000000
_cell_angle_gamma 90.000000
_cell_volume 2788.348285
_symmetry_space_group_name_H-M "A B A 2"
_symmetry_group_IT_number 41
_symmetry_cell_setting 'orthorhombic'
loop_
_space_group_symop_operation_xyz
x,y,z
-x,-y,z
1/2-x,y,1/2+z
1/2+x,-y,1/2+z
x,1/2+y,1/2+z
-x,1/2-y,1/2+z
1/2-x,1/2+y,z
1/2+x,1/2-y,z
loop_
_atom_site_type_symbol
_atom_site_label
_atom_site_fract_x
_atom_site_fract_y
_atom_site_fract_z
Si Si1 0.810061 0.747863 0.360610
Si Si2 0.475944 0.663147 0.589413
Si Si3 0.442577 0.604570 0.350471
Si Si4 0.557423 0.395429 0.159108
Si Si5 0.828949 0.909890 0.649552
Si Si6 0.524056 0.836853 0.420165
Si Si7 0.310061 0.752137 0.148968
Si Si8 0.828949 0.909890 0.860026
O O1 0.870521 0.855140 0.392646
O O2 0.814504 0.749201 0.254789
O O3 0.737568 0.816351 0.383986
O O4 0.820553 0.579791 0.386388
O O5 0.500000 0.500000 0.584814
O O6 0.518579 0.742993 0.663636
O O7 0.396066 0.661489 0.608900
O O8 0.500001 0.750000 0.504789
O O9 0.500000 0.500000 0.390245
O O10 0.428059 0.542925 0.254789
O O11 0.481421 0.757007 0.345943
O O12 0.500000 0.500000 0.119334
O O13 0.629479 0.355140 0.116932
O O14 0.762432 0.816352 0.625592
O O15 0.835198 0.907556 0.754789
O O16 0.820553 0.079792 0.623190
O O17 0.603934 0.838512 0.400677
O O18 0.500000 0.000000 0.424764
#
# Coordination Sequence:
#
# PCOD9366636 Si02
#       8
#     8   8   8   8   8   8   8   8
#     4   9  19  36  62  98 131 161 206 268 330 392
#     4  12  25  43  64  87 128 176 223 275 325 385
#     4  10  21  38  65  97 128 166 218 271 329 390
#     4  10  21  38  65  97 128 166 218 271 329 390
#     4  10  21  39  67  98 129 165 213 271 334 398
#     4  12  25  43  64  87 128 176 223 275 325 385
#     4   9  19  36  62  98 131 161 206 268 330 392
#     4  10  21  39  67  98 129 165 213 271 334 398
#
# _framework density 22.952656000000001
#
# number of rings (size 3 to 8) (size 9 to 14) (size 15 to 20)
#    0.000    1.750    2.500    1.500    3.500    1.000 
#    0.000    1.250    0.000    0.000    0.000    0.000 
#    0.000    0.000    0.000    0.000    0.000    0.000 
#
# Total GULP energy -178702.448177 kJ/mol
# GULP energy per Si atom -5584.451506 kJ/mol
# Density = 2.290041 g / cm^3
# Si number density = 22.952656 Si / 1000 Ang^3
#
#
#
# Elastic Constant Matrix: (Units=GPa)
#
#
# Indices 1 2 3 4 5 6 
#
# 1 247.2271 51.8199 18.7595 0.0000 0.0000 0.0000
# 2 51.8199 85.3025 11.3111 0.0000 0.0000 0.0000
# 3 18.7595 11.3111 56.2757 0.0000 0.0000 0.0000
# 4 0.0000 0.0000 0.0000 -185.5383 0.0000 0.0000
# 5 0.0000 0.0000 0.0000 0.0000 -2.9000 0.0000
# 6 0.0000 0.0000 0.0000 0.0000 0.0000 48.7734
#
#
#
# Elastic Compliance Matrix: (Units=1/GPa)
#
#
# Indices 1 2 3 4 5 6 
#
# 1 0.004691 -0.002715 -0.001018 0.000000 0.000000 0.000000
# 2 -0.002715 0.013615 -0.001832 0.000000 0.000000 0.000000
# 3 -0.001018 -0.001832 0.018477 0.000000 0.000000 0.000000
# 4 0.000000 0.000000 0.000000 -0.005390 0.000000 0.000000
# 5 0.000000 0.000000 0.000000 0.000000 -0.344833 0.000000
# 6 0.000000 0.000000 0.000000 0.000000 0.000000 0.020503
#
#
# Mechanical properties :
#
#
# Convention : Reuss Voigt Hill
#
# Bulk Modulus (GPa) = 38.97972 61.39849 50.18910
# Shear Modulus (GPa) = -18.29789 -7.47200 -12.88495
#
# Velocity S-wave (km/s) = -2.82654 -1.80623 -2.37190
# Velocity P-wave (km/s) = 2.52331 4.73901 3.79640
#
# Compressibility (1/GPa) = 0.02565437
#
# Stress axis : x y z
#
# Youngs Moduli (GPa) = 213.16715 73.44811 54.12082
#
# Poissons Ratio (x) = 0.19940 0.05510
# Poissons Ratio (y) = 0.57871 0.09913
# Poissons Ratio (z) = 0.21703 0.13453
#
# Static dielectric constant tensor:
#      x y z
#    x 1.847510 0.000000 0.000000 
#    y 0.000000 1.784930 0.000000 
#    z 0.000000 0.000000 1.992930 
# 
# From -- ./inp_files/11650.got.cif
#   From: 2010.05.17/outbox.cif.g08.bks.cpg/sg41_6_cif.got.tgz:11650.got - 2010.06.03 18:54:24.
