data_PCOD9366551
_publ_section_title
;
Structure prediction by ZEFSAII (Michael W. Deem and Ramdas Pophale) SiO2 
 PCOD9366551
Probable space group: A B A 2
;
_chemical_formula_sum "Si O2"
_cell_formula_units_Z 48
_cell_length_a 10.837671
_cell_length_b 9.566281
_cell_length_c 21.635298
_cell_angle_alpha 90.000000
_cell_angle_beta 90.000000
_cell_angle_gamma 90.000000
_cell_volume 2243.065616
_symmetry_space_group_name_H-M "A B A 2"
_symmetry_group_IT_number 41
_symmetry_cell_setting 'orthorhombic'
loop_
_space_group_symop_operation_xyz
x,y,z
-x,-y,z
1/2-x,y,1/2+z
1/2+x,-y,1/2+z
x,1/2+y,1/2+z
-x,1/2-y,1/2+z
1/2-x,1/2+y,z
1/2+x,1/2-y,z
loop_
_atom_site_type_symbol
_atom_site_label
_atom_site_fract_x
_atom_site_fract_y
_atom_site_fract_z
Si Si1 0.402679 0.598817 0.190460
Si Si2 0.894189 0.673488 0.864759
Si Si3 0.617420 0.691095 0.510209
Si Si4 0.542518 0.345949 0.624021
Si Si5 0.276663 0.050293 0.574313
Si Si6 0.668535 0.362948 0.319632
O O1 0.500000 0.500000 0.224926
O O2 0.469823 0.735290 0.164164
O O3 0.364846 0.506756 0.130404
O O4 0.311494 0.638829 0.245459
O O5 0.844225 0.522426 0.842757
O O6 0.786264 0.784294 0.848717
O O7 0.032212 0.701433 0.836966
O O8 0.906532 0.667255 0.938946
O O9 0.497485 0.673824 0.552590
O O10 0.664382 0.847176 0.524449
O O11 0.710329 0.577040 0.540425
O O12 0.500000 0.500000 0.643929
O O13 0.688164 0.351553 0.617098
#
# Coordination Sequence:
#
# PCOD9366551 Si02
#       6
#     8   8   8   8   8   8
#     4  11  22  42  61  91 131 164 222 273 331 392
#     4  11  25  46  69  98 136 182 228 278 334 404
#     4  10  21  37  63  92 127 162 215 266 331 393
#     4   9  21  36  61  96 119 163 206 268 334 390
#     4  10  21  36  64  93 122 166 203 276 329 389
#     4  11  27  45  69  97 133 188 226 281 332 399
#
# _framework density 21.399284999999999
#
# number of rings (size 3 to 8) (size 9 to 14) (size 15 to 20)
#    0.000    1.667    1.667    2.000   11.667    4.667 
#    0.000    0.000    0.000    0.000    0.000    0.000 
#    0.000    0.000    0.000    0.000    0.000    0.000 
#
# Total GULP energy -133854.618246 kJ/mol
# GULP energy per Si atom -5577.275760 kJ/mol
# Density = 2.135058 g / cm^3
# Si number density = 21.399285 Si / 1000 Ang^3
#
#
#
# Elastic Constant Matrix: (Units=GPa)
#
#
# Indices 1 2 3 4 5 6 
#
# 1 51.7039 -0.7068 5.8653 0.0000 0.0000 0.0000
# 2 -0.7068 37.8860 22.3346 0.0000 0.0000 0.0000
# 3 5.8653 22.3346 147.2987 0.0000 0.0000 0.0000
# 4 0.0000 0.0000 0.0000 18.3140 0.0000 0.0000
# 5 0.0000 0.0000 0.0000 0.0000 6.9572 0.0000
# 6 0.0000 0.0000 0.0000 0.0000 0.0000 30.1680
#
#
#
# Elastic Compliance Matrix: (Units=1/GPa)
#
#
# Indices 1 2 3 4 5 6 
#
# 1 0.019457 0.000900 -0.000911 0.000000 0.000000 0.000000
# 2 0.000900 0.029028 -0.004437 0.000000 0.000000 0.000000
# 3 -0.000911 -0.004437 0.007498 0.000000 0.000000 0.000000
# 4 0.000000 0.000000 0.000000 0.054603 0.000000 0.000000
# 5 0.000000 0.000000 0.000000 0.000000 0.143736 0.000000
# 6 0.000000 0.000000 0.000000 0.000000 0.000000 0.033148
#
#
# Mechanical properties :
#
#
# Convention : Reuss Voigt Hill
#
# Bulk Modulus (GPa) = 21.23791 32.43053 26.83422
# Shear Modulus (GPa) = 16.02251 25.04754 20.53503
#
# Velocity S-wave (km/s) = 2.73928 3.42495 3.10112
# Velocity P-wave (km/s) = 4.46666 5.55232 5.03881
#
# Compressibility (1/GPa) = 0.04708561
#
# Stress axis : x y z
#
# Youngs Moduli (GPa) = 51.39650 34.44995 133.36845
#
# Poissons Ratio (x) = -0.03101 0.12153
# Poissons Ratio (y) = -0.04627 0.59179
# Poissons Ratio (z) = 0.04683 0.15286
#
# Static dielectric constant tensor:
#      x y z
#    x 1.997170 0.000000 0.000000 
#    y 0.000000 1.806020 0.000000 
#    z 0.000000 0.000000 1.736050 
# 
# From -- ./inp_files/12098.got.cif
#   From: 2010.05.17/outbox.cif.g08.bks.cpg/sg41_7_cif.got.tgz:12098.got - 2010.06.03 18:54:24.
