data_PCOD9366051
_publ_section_title
;
Structure prediction by ZEFSAII (Michael W. Deem and Ramdas Pophale) SiO2 
 PCOD9366051
Probable space group: A B A 2
;
_chemical_formula_sum "Si O2"
_cell_formula_units_Z 64
_cell_length_a 15.186344
_cell_length_b 16.434104
_cell_length_c 10.717327
_cell_angle_alpha 90.000000
_cell_angle_beta 90.000000
_cell_angle_gamma 90.000000
_cell_volume 2674.765704
_symmetry_space_group_name_H-M "A B A 2"
_symmetry_group_IT_number 41
_symmetry_cell_setting 'orthorhombic'
loop_
_space_group_symop_operation_xyz
x,y,z
-x,-y,z
1/2-x,y,1/2+z
1/2+x,-y,1/2+z
x,1/2+y,1/2+z
-x,1/2-y,1/2+z
1/2-x,1/2+y,z
1/2+x,1/2-y,z
loop_
_atom_site_type_symbol
_atom_site_label
_atom_site_fract_x
_atom_site_fract_y
_atom_site_fract_z
Si Si1 0.256980 0.712608 0.876550
Si Si2 0.612556 0.645788 0.368942
Si Si3 0.399669 0.015732 0.951153
Si Si4 0.089068 0.972309 0.865825
Si Si5 0.570456 0.807309 0.984617
Si Si6 0.354636 0.105984 0.556392
Si Si7 0.952063 0.640935 0.604916
Si Si8 0.243897 0.545727 0.256085
O O1 0.304415 0.796543 0.851676
O O2 0.152515 0.715946 0.895621
O O3 0.281640 0.640940 0.779302
O O4 0.301250 0.682303 0.006100
O O5 0.626981 0.577657 0.476127
O O6 0.522762 0.691760 0.411022
O O7 0.595176 0.610203 0.229802
O O8 0.410770 0.099317 0.029161
O O9 0.324350 0.037832 0.852718
O O10 0.500000 0.000000 0.903896
O O11 0.173278 0.974687 0.776777
O O12 0.075477 0.904229 0.974150
O O13 0.000000 0.000000 0.796050
O O14 0.109648 0.053749 0.943009
O O15 0.565219 0.736758 0.086809
O O16 0.443438 0.128205 0.627987
O O17 0.286513 0.046186 0.621744
#
# Coordination Sequence:
#
# PCOD9366051 Si02
#       8
#     8   8   8   8   8   8   8   8
#     4  10  22  37  58  92 127 172 217 282 338 410
#     4  11  22  40  65  94 126 173 231 272 344 425
#     4   9  19  37  62  89 124 169 214 268 333 403
#     4   9  21  38  61  98 133 170 228 283 333 413
#     4  10  22  40  60  94 134 166 216 289 341 400
#     4  10  19  38  64  90 127 175 227 270 345 420
#     4  11  21  37  66  99 130 175 227 286 343 413
#     4  10  20  37  64  92 127 175 222 278 344 402
#
# _framework density 23.927330999999999
#
# number of rings (size 3 to 8) (size 9 to 14) (size 15 to 20)
#    0.000    2.000    1.250    3.000    3.500    3.000 
#    0.000    0.000    0.000   15.750    0.000    0.000 
#    0.000    0.000    0.000    0.000    0.000    0.000 
#
# Total GULP energy -178278.813207 kJ/mol
# GULP energy per Si atom -5571.212913 kJ/mol
# Density = 2.387287 g / cm^3
# Si number density = 23.927331 Si / 1000 Ang^3
#
#
#
# Elastic Constant Matrix: (Units=GPa)
#
#
# Indices 1 2 3 4 5 6 
#
# 1 105.2670 40.2809 20.0778 0.0000 0.0000 0.0000
# 2 40.2809 98.4530 8.0188 0.0000 0.0000 0.0000
# 3 20.0778 8.0188 36.3374 0.0000 0.0000 0.0000
# 4 0.0000 0.0000 0.0000 22.2952 0.0000 0.0000
# 5 0.0000 0.0000 0.0000 0.0000 21.3871 0.0000
# 6 0.0000 0.0000 0.0000 0.0000 0.0000 38.1624
#
#
#
# Elastic Compliance Matrix: (Units=1/GPa)
#
#
# Indices 1 2 3 4 5 6 
#
# 1 0.012364 -0.004585 -0.005820 0.000000 0.000000 0.000000
# 2 -0.004585 0.012043 -0.000124 0.000000 0.000000 0.000000
# 3 -0.005820 -0.000124 0.030763 0.000000 0.000000 0.000000
# 4 0.000000 0.000000 0.000000 0.044853 0.000000 0.000000
# 5 0.000000 0.000000 0.000000 0.000000 0.046757 0.000000
# 6 0.000000 0.000000 0.000000 0.000000 0.000000 0.026204
#
#
# Mechanical properties :
#
#
# Convention : Reuss Voigt Hill
#
# Bulk Modulus (GPa) = 29.31500 41.86803 35.59152
# Shear Modulus (GPa) = 24.34131 27.81427 26.07779
#
# Velocity S-wave (km/s) = 3.19298 3.41317 3.30491
# Velocity P-wave (km/s) = 5.08643 5.75056 5.42866
#
# Compressibility (1/GPa) = 0.03411222
#
# Stress axis : x y z
#
# Youngs Moduli (GPa) = 80.87999 83.03578 32.50658
#
# Poissons Ratio (x) = 0.38068 0.18918
# Poissons Ratio (y) = 0.37080 0.00405
# Poissons Ratio (z) = 0.47071 0.01033
#
# Static dielectric constant tensor:
#      x y z
#    x 2.074620 0.000000 0.000000 
#    y 0.000000 1.955480 0.000000 
#    z 0.000000 0.000000 2.027210 
# 
# From -- ./inp_files/5708.got.cif
#   From: 2010.05.17/outbox.cif.g08.bks.cpg/sg41_3_cif.got.tgz:5708.got - 2010.06.03 18:54:24.
