data_PCOD9366547
_publ_section_title
;
Structure prediction by ZEFSAII (Michael W. Deem and Ramdas Pophale) SiO2 
 PCOD9366547
Probable space group: A B A 2
;
_chemical_formula_sum "Si O2"
_cell_formula_units_Z 52
_cell_length_a 15.137789
_cell_length_b 21.855975
_cell_length_c 7.622482
_cell_angle_alpha 90.000000
_cell_angle_beta 90.000000
_cell_angle_gamma 90.000000
_cell_volume 2521.906844
_symmetry_space_group_name_H-M "A B A 2"
_symmetry_group_IT_number 41
_symmetry_cell_setting 'orthorhombic'
loop_
_space_group_symop_operation_xyz
x,y,z
-x,-y,z
1/2-x,y,1/2+z
1/2+x,-y,1/2+z
x,1/2+y,1/2+z
-x,1/2-y,1/2+z
1/2-x,1/2+y,z
1/2+x,1/2-y,z
loop_
_atom_site_type_symbol
_atom_site_label
_atom_site_fract_x
_atom_site_fract_y
_atom_site_fract_z
Si Si1 0.000000 0.000000 0.596170
Si Si2 0.473726 0.607936 0.354415
Si Si3 0.867908 0.287228 0.849562
Si Si4 0.839447 0.081793 0.738296
Si Si5 0.586214 0.201350 0.069433
Si Si6 0.651350 0.102726 0.647274
Si Si7 0.674161 0.245030 0.737615
O O1 0.080997 0.964971 0.692023
O O2 0.953873 0.949208 0.474985
O O3 0.389894 0.644161 0.282116
O O4 0.508934 0.664044 0.475137
O O5 0.555290 0.588925 0.230194
O O6 0.931618 0.239362 0.745750
O O7 0.772415 0.267423 0.775426
O O8 0.860355 0.275851 0.059040
O O9 0.852251 0.143161 0.621032
O O10 0.736532 0.063703 0.711075
O O11 0.852138 0.098810 0.939580
O O12 0.623482 0.247983 0.923681
O O13 0.669853 0.172455 0.701854
#
# Coordination Sequence:
#
# PCOD9366547 Si02
#       7
#     4   8   8   8   8   8   8
#     4  10  24  48  58  92 130 176 234 288 308 390
#     4  10  26  40  65  92 136 172 221 278 332 385
#     4  12  21  38  59  97 134 171 213 277 331 409
#     4  11  20  39  71  91 129 169 235 274 329 385
#     4  10  21  36  59  93 127 175 206 276 324 407
#     4  11  20  40  67 100 119 182 218 275 333 414
#     4  11  20  36  62  93 140 167 218 256 349 406
#
# _framework density 20.619319000000001
#
# number of rings (size 3 to 8) (size 9 to 14) (size 15 to 20)
#    0.000    1.231    4.615    2.769    4.308    0.615 
#    2.769    3.077    0.000    0.000    0.000    0.000 
#    0.000    0.000    0.000    0.000    0.000    0.000 
#
# Total GULP energy -144873.234792 kJ/mol
# GULP energy per Si atom -5572.047492 kJ/mol
# Density = 2.057239 g / cm^3
# Si number density = 20.619319 Si / 1000 Ang^3
#
#
#
# Elastic Constant Matrix: (Units=GPa)
#
#
# Indices 1 2 3 4 5 6 
#
# 1 67.3025 23.8522 42.6311 0.0000 0.0000 0.0000
# 2 23.8522 55.4013 24.6881 0.0000 0.0000 0.0000
# 3 42.6311 24.6881 133.3121 0.0000 0.0000 0.0000
# 4 0.0000 0.0000 0.0000 14.4861 0.0000 0.0000
# 5 0.0000 0.0000 0.0000 0.0000 3.6353 0.0000
# 6 0.0000 0.0000 0.0000 0.0000 0.0000 32.7039
#
#
#
# Elastic Compliance Matrix: (Units=1/GPa)
#
#
# Indices 1 2 3 4 5 6 
#
# 1 0.020551 -0.006452 -0.005377 0.000000 0.000000 0.000000
# 2 -0.006452 0.021699 -0.001955 0.000000 0.000000 0.000000
# 3 -0.005377 -0.001955 0.009583 0.000000 0.000000 0.000000
# 4 0.000000 0.000000 0.000000 0.069032 0.000000 0.000000
# 5 0.000000 0.000000 0.000000 0.000000 0.275078 0.000000
# 6 0.000000 0.000000 0.000000 0.000000 0.000000 0.030577
#
#
# Mechanical properties :
#
#
# Convention : Reuss Voigt Hill
#
# Bulk Modulus (GPa) = 41.21227 48.70650 44.95939
# Shear Modulus (GPa) = 10.81839 21.15470 15.98655
#
# Velocity S-wave (km/s) = 2.29306 3.20654 2.78748
# Velocity P-wave (km/s) = 5.20014 6.11411 5.67555
#
# Compressibility (1/GPa) = 0.02426462
#
# Stress axis : x y z
#
# Youngs Moduli (GPa) = 48.66014 46.08482 104.35380
#
# Poissons Ratio (x) = 0.29732 0.56111
# Poissons Ratio (y) = 0.31394 0.20404
# Poissons Ratio (z) = 0.26165 0.09011
#
# Static dielectric constant tensor:
#      x y z
#    x 1.985730 0.000000 0.000000 
#    y 0.000000 1.812410 0.000000 
#    z 0.000000 0.000000 1.807020 
# 
# From -- ./inp_files/2659.got.cif
#   From: 2010.05.17/outbox.cif.g08.bks.cpg/sg41_2_cif.got.tgz:2659.got - 2010.06.03 18:54:24.
