data_PCOD9366121
_publ_section_title
;
Structure prediction by ZEFSAII (Michael W. Deem and Ramdas Pophale) SiO2 
 PCOD9366121
Probable space group: A B A 2
;
_chemical_formula_sum "Si O2"
_cell_formula_units_Z 52
_cell_length_a 12.770295
_cell_length_b 21.367409
_cell_length_c 9.184647
_cell_angle_alpha 90.000000
_cell_angle_beta 90.000000
_cell_angle_gamma 90.000000
_cell_volume 2506.197326
_symmetry_space_group_name_H-M "A B A 2"
_symmetry_group_IT_number 41
_symmetry_cell_setting 'orthorhombic'
loop_
_space_group_symop_operation_xyz
x,y,z
-x,-y,z
1/2-x,y,1/2+z
1/2+x,-y,1/2+z
x,1/2+y,1/2+z
-x,1/2-y,1/2+z
1/2-x,1/2+y,z
1/2+x,1/2-y,z
loop_
_atom_site_type_symbol
_atom_site_label
_atom_site_fract_x
_atom_site_fract_y
_atom_site_fract_z
Si Si1 0.856485 0.428558 0.542480
Si Si2 0.624981 0.188393 0.829614
Si Si3 0.418719 0.655964 0.498715
Si Si4 0.000000 0.000000 0.230515
Si Si5 0.049682 0.168756 0.832874
Si Si6 0.158636 0.300802 0.493331
Si Si7 0.699722 0.457240 0.345802
O O1 0.878175 0.368802 0.445519
O O2 0.803391 0.477344 0.430329
O O3 0.782294 0.429911 0.684274
O O4 0.965660 0.445724 0.620009
O O5 0.591441 0.260980 0.831996
O O6 0.647267 0.175710 0.659584
O O7 0.524484 0.155403 0.901744
O O8 0.729006 0.183039 0.926272
O O9 0.445503 0.645154 0.667694
O O10 0.364062 0.724964 0.488760
O O11 0.347378 0.600980 0.435349
O O12 0.894392 0.006906 0.324261
O O13 0.932494 0.169875 0.894565
#
# Coordination Sequence:
#
# PCOD9366121 Si02
#       7
#     8   8   8   4   8   8   8
#     4  10  20  39  64  86 115 147 197 248 304 354
#     4  10  20  33  51  81 125 159 195 235 289 349
#     4  10  20  34  57  87 115 156 198 241 287 356
#     4   8  24  40  62  90 116 144 198 260 308 352
#     4  10  20  34  57  87 115 156 198 241 287 356
#     4  10  20  33  51  81 125 159 195 235 289 349
#     4  10  20  39  64  86 115 147 197 248 304 354
#
# _framework density 20.748564999999999
#
# number of rings (size 3 to 8) (size 9 to 14) (size 15 to 20)
#    0.923    1.231    0.000    3.692    0.000    6.154 
#    0.000    4.615    6.769    0.000    0.000    0.000 
#    0.000    0.000    0.000    0.000    0.000    0.000 
#
# Total GULP energy -144815.278804 kJ/mol
# GULP energy per Si atom -5569.818416 kJ/mol
# Density = 2.070134 g / cm^3
# Si number density = 20.748565 Si / 1000 Ang^3
#
#
#
# Elastic Constant Matrix: (Units=GPa)
#
#
# Indices 1 2 3 4 5 6 
#
# 1 95.6048 4.8308 19.2808 0.0000 0.0000 0.0000
# 2 4.8308 11.0253 16.3919 0.0000 0.0000 0.0000
# 3 19.2808 16.3919 120.2017 0.0000 0.0000 0.0000
# 4 0.0000 0.0000 0.0000 13.7514 0.0000 0.0000
# 5 0.0000 0.0000 0.0000 0.0000 42.2623 0.0000
# 6 0.0000 0.0000 0.0000 0.0000 0.0000 20.4401
#
#
#
# Elastic Compliance Matrix: (Units=1/GPa)
#
#
# Indices 1 2 3 4 5 6 
#
# 1 0.010874 -0.002724 -0.001373 0.000000 0.000000 0.000000
# 2 -0.002724 0.114449 -0.015171 0.000000 0.000000 0.000000
# 3 -0.001373 -0.015171 0.010608 0.000000 0.000000 0.000000
# 4 0.000000 0.000000 0.000000 0.072720 0.000000 0.000000
# 5 0.000000 0.000000 0.000000 0.000000 0.023662 0.000000
# 6 0.000000 0.000000 0.000000 0.000000 0.000000 0.048923
#
#
# Mechanical properties :
#
#
# Convention : Reuss Voigt Hill
#
# Bulk Modulus (GPa) = 10.26720 34.20434 22.23577
# Shear Modulus (GPa) = 14.19501 27.71264 20.95383
#
# Velocity S-wave (km/s) = 2.61845 3.65861 3.18133
# Velocity P-wave (km/s) = 3.75511 5.86244 4.92286
#
# Compressibility (1/GPa) = 0.09739755
#
# Stress axis : x y z
#
# Youngs Moduli (GPa) = 91.96070 8.73753 94.26516
#
# Poissons Ratio (x) = 0.02380 0.12941
# Poissons Ratio (y) = 0.25046 1.43005
# Poissons Ratio (z) = 0.12625 0.13255
#
# Static dielectric constant tensor:
#      x y z
#    x 1.832300 0.000000 0.000000 
#    y 0.000000 1.765880 0.000000 
#    z 0.000000 0.000000 1.739350 
# 
# From -- ./inp_files/2193.got.cif
#   From: 2010.05.17/outbox.cif.g08.bks.cpg/sg41_2_cif.got.tgz:2193.got - 2010.06.03 18:54:24.
