data_PCOD9366100
_publ_section_title
;
Structure prediction by ZEFSAII (Michael W. Deem and Ramdas Pophale) SiO2 
 PCOD9366100
Probable space group: A B A 2
;
_chemical_formula_sum "Si O2"
_cell_formula_units_Z 32
_cell_length_a 13.521847
_cell_length_b 5.293173
_cell_length_c 18.817350
_cell_angle_alpha 90.000000
_cell_angle_beta 90.000000
_cell_angle_gamma 90.000000
_cell_volume 1346.823138
_symmetry_space_group_name_H-M "A B A 2"
_symmetry_group_IT_number 41
_symmetry_cell_setting 'orthorhombic'
loop_
_space_group_symop_operation_xyz
x,y,z
-x,-y,z
1/2-x,y,1/2+z
1/2+x,-y,1/2+z
x,1/2+y,1/2+z
-x,1/2-y,1/2+z
1/2-x,1/2+y,z
1/2+x,1/2-y,z
loop_
_atom_site_type_symbol
_atom_site_label
_atom_site_fract_x
_atom_site_fract_y
_atom_site_fract_z
Si Si1 0.343193 0.130739 0.226000
Si Si2 0.000000 0.500000 0.539841
Si Si3 0.804402 0.234226 0.388422
Si Si4 0.000000 0.500000 0.955119
Si Si5 0.373098 0.624401 0.168095
O O1 0.308135 0.221468 0.303188
O O2 0.409024 0.355028 0.196539
O O3 0.246125 0.102508 0.176116
O O4 0.394615 0.862019 0.218472
O O5 0.036964 0.250027 0.498040
O O6 0.085599 0.626084 0.588908
O O7 0.771927 0.514674 0.412371
O O8 0.910252 0.124420 0.411020
#
# Coordination Sequence:
#
# PCOD9366100 Si02
#       5
#     8   4   8   4   8
#     4  10  19  41  70 109 127 175 248 307 393 421
#     4  12  26  49  62 107 158 200 252 294 366 472
#     4  12  23  49  78 105 151 192 254 326 376 449
#     4  12  30  49  68 113 154 212 266 286 374 474
#     4  10  20  39  69  96 145 175 233 312 360 446
#
# _framework density 23.759616999999999
#
# number of rings (size 3 to 8) (size 9 to 14) (size 15 to 20)
#    0.000    1.000    5.000    3.000    0.000    1.000 
#   27.000    2.500    0.000    0.000    0.000    0.000 
#    0.000    0.000    0.000    0.000    0.000    0.000 
#
# Total GULP energy -89190.807100 kJ/mol
# GULP energy per Si atom -5574.425444 kJ/mol
# Density = 2.370554 g / cm^3
# Si number density = 23.759617 Si / 1000 Ang^3
#
#
#
# Elastic Constant Matrix: (Units=GPa)
#
#
# Indices 1 2 3 4 5 6 
#
# 1 122.2202 39.7562 51.0136 0.0000 0.0000 0.0000
# 2 39.7562 214.2805 46.2263 0.0000 0.0000 0.0000
# 3 51.0136 46.2263 65.0019 0.0000 0.0000 0.0000
# 4 0.0000 0.0000 0.0000 34.7807 0.0000 0.0000
# 5 0.0000 0.0000 0.0000 0.0000 480.6732 0.0000
# 6 0.0000 0.0000 0.0000 0.0000 0.0000 46.7058
#
#
#
# Elastic Compliance Matrix: (Units=1/GPa)
#
#
# Indices 1 2 3 4 5 6 
#
# 1 0.012178 -0.000233 -0.009391 0.000000 0.000000 0.000000
# 2 -0.000233 0.005517 -0.003740 0.000000 0.000000 0.000000
# 3 -0.009391 -0.003740 0.025414 0.000000 0.000000 0.000000
# 4 0.000000 0.000000 0.000000 0.028752 0.000000 0.000000
# 5 0.000000 0.000000 0.000000 0.000000 0.002080 0.000000
# 6 0.000000 0.000000 0.000000 0.000000 0.000000 0.021411
#
#
# Mechanical properties :
#
#
# Convention : Reuss Voigt Hill
#
# Bulk Modulus (GPa) = 61.05237 75.05497 68.05367
# Shear Modulus (GPa) = 39.20333 130.06571 84.63452
#
# Velocity S-wave (km/s) = 4.06642 7.40683 5.97482
# Velocity P-wave (km/s) = 6.91371 10.23749 8.73514
#
# Compressibility (1/GPa) = 0.01637938
#
# Stress axis : x y z
#
# Youngs Moduli (GPa) = 82.11804 181.25938 39.34835
#
# Poissons Ratio (x) = 0.04232 0.36952
# Poissons Ratio (y) = 0.01917 0.14717
# Poissons Ratio (z) = 0.77117 0.67794
#
# Static dielectric constant tensor:
#      x y z
#    x -0.403600 0.000000 0.000000 
#    y 0.000000 1.992690 0.000000 
#    z 0.000000 0.000000 1.942250 
# 
# From -- ./inp_files/10230.got.cif
#   From: 2010.05.17/outbox.cif.g08.bks.cpg/sg41_6_cif.got.tgz:10230.got - 2010.06.03 18:54:24.
