data_PCOD9366018
_publ_section_title
;
Structure prediction by ZEFSAII (Michael W. Deem and Ramdas Pophale) SiO2 
 PCOD9366018
Probable space group: A B A 2
;
_chemical_formula_sum "Si O2"
_cell_formula_units_Z 44
_cell_length_a 12.878656
_cell_length_b 5.667883
_cell_length_c 23.949228
_cell_angle_alpha 90.000000
_cell_angle_beta 90.000000
_cell_angle_gamma 90.000000
_cell_volume 1748.167082
_symmetry_space_group_name_H-M "A B A 2"
_symmetry_group_IT_number 41
_symmetry_cell_setting 'orthorhombic'
loop_
_space_group_symop_operation_xyz
x,y,z
-x,-y,z
1/2-x,y,1/2+z
1/2+x,-y,1/2+z
x,1/2+y,1/2+z
-x,1/2-y,1/2+z
1/2-x,1/2+y,z
1/2+x,1/2-y,z
loop_
_atom_site_type_symbol
_atom_site_label
_atom_site_fract_x
_atom_site_fract_y
_atom_site_fract_z
Si Si1 0.890379 0.621993 0.836640
Si Si2 0.306882 0.413982 0.558574
Si Si3 0.000000 0.000000 0.912801
Si Si4 0.646426 0.131302 0.713155
Si Si5 0.882358 0.407316 0.944127
Si Si6 0.117646 0.871364 0.671412
O O1 0.831983 0.658632 0.779126
O O2 0.834627 0.458450 0.883270
O O3 0.000000 0.500000 0.819574
O O4 0.928319 0.850467 0.870306
O O5 0.238351 0.178557 0.567278
O O6 0.336366 0.440237 0.493629
O O7 0.396021 0.372014 0.604548
O O8 0.086676 0.866012 0.950575
O O9 0.756397 0.118154 0.681530
O O10 0.587230 0.369090 0.694000
O O11 0.595100 0.879038 0.699908
O O12 0.000000 0.500000 0.938123
#
# Coordination Sequence:
#
# PCOD9366018 Si02
#       6
#     8   8   4   8   8   8
#     4   9  20  37  59  87 116 160 199 252 304 364
#     4  12  23  42  65  92 128 162 210 263 311 368
#     4   8  18  40  60  84 122 164 210 252 316 368
#     4  10  19  37  59  83 114 155 196 238 298 359
#     4   9  22  41  63  90 122 169 209 257 316 372
#     4  10  20  39  59  82 118 164 187 246 304 355
#
# _framework density 25.169215999999999
#
# number of rings (size 3 to 8) (size 9 to 14) (size 15 to 20)
#    0.000    2.545    3.636    0.000   10.182    0.000 
#    6.545    1.818    0.000    0.000    0.000    0.000 
#    0.000    0.000    0.000    0.000    0.000    0.000 
#
# Total GULP energy -122602.369124 kJ/mol
# GULP energy per Si atom -5572.834960 kJ/mol
# Density = 2.511193 g / cm^3
# Si number density = 25.169216 Si / 1000 Ang^3
#
#
#
# Elastic Constant Matrix: (Units=GPa)
#
#
# Indices 1 2 3 4 5 6 
#
# 1 27.8975 14.2211 -23.6975 0.0000 0.0000 0.0000
# 2 14.2211 187.4125 22.8532 0.0000 0.0000 0.0000
# 3 -23.6975 22.8532 144.7435 0.0000 0.0000 0.0000
# 4 0.0000 0.0000 0.0000 34.0250 0.0000 0.0000
# 5 0.0000 0.0000 0.0000 0.0000 22.8585 0.0000
# 6 0.0000 0.0000 0.0000 0.0000 0.0000 39.8505
#
#
#
# Elastic Compliance Matrix: (Units=1/GPa)
#
#
# Indices 1 2 3 4 5 6 
#
# 1 0.044919 -0.004390 0.008047 0.000000 0.000000 0.000000
# 2 -0.004390 0.005870 -0.001645 0.000000 0.000000 0.000000
# 3 0.008047 -0.001645 0.008486 0.000000 0.000000 0.000000
# 4 0.000000 0.000000 0.000000 0.029390 0.000000 0.000000
# 5 0.000000 0.000000 0.000000 0.000000 0.043747 0.000000
# 6 0.000000 0.000000 0.000000 0.000000 0.000000 0.025094
#
#
# Mechanical properties :
#
#
# Convention : Reuss Voigt Hill
#
# Bulk Modulus (GPa) = 15.79808 42.97855 29.38832
# Shear Modulus (GPa) = 28.63990 42.45859 35.54925
#
# Velocity S-wave (km/s) = 3.37693 4.11168 3.76228
# Velocity P-wave (km/s) = 4.63630 6.29715 5.52944
#
# Compressibility (1/GPa) = 0.06329882
#
# Stress axis : x y z
#
# Youngs Moduli (GPa) = 22.26224 170.37011 117.84014
#
# Poissons Ratio (x) = 0.74789 -0.94829
# Poissons Ratio (y) = 0.09773 0.19390
# Poissons Ratio (z) = -0.17915 0.28033
#
# Static dielectric constant tensor:
#      x y z
#    x 2.031040 0.000000 0.000000 
#    y 0.000000 2.299340 0.000000 
#    z 0.000000 0.000000 1.961360 
# 
# From -- ./inp_files/11675.got.cif
#   From: 2010.05.17/outbox.cif.g08.bks.cpg/sg41_6_cif.got.tgz:11675.got - 2010.06.03 18:54:24.
