data_PCOD9366089
_publ_section_title
;
Structure prediction by ZEFSAII (Michael W. Deem and Ramdas Pophale) SiO2 
 PCOD9366089
Probable space group: A B A 2
;
_chemical_formula_sum "Si O2"
_cell_formula_units_Z 64
_cell_length_a 9.145023
_cell_length_b 15.729541
_cell_length_c 18.435073
_cell_angle_alpha 90.000000
_cell_angle_beta 90.000000
_cell_angle_gamma 90.000000
_cell_volume 2651.830208
_symmetry_space_group_name_H-M "A B A 2"
_symmetry_group_IT_number 41
_symmetry_cell_setting 'orthorhombic'
loop_
_space_group_symop_operation_xyz
x,y,z
-x,-y,z
1/2-x,y,1/2+z
1/2+x,-y,1/2+z
x,1/2+y,1/2+z
-x,1/2-y,1/2+z
1/2-x,1/2+y,z
1/2+x,1/2-y,z
loop_
_atom_site_type_symbol
_atom_site_label
_atom_site_fract_x
_atom_site_fract_y
_atom_site_fract_z
Si Si1 0.145756 0.880435 0.985810
Si Si2 0.616162 0.167698 0.889581
Si Si3 0.525680 0.806098 0.743885
Si Si4 0.461112 0.416642 0.636059
Si Si5 0.851734 0.362860 0.261612
Si Si6 0.111168 0.189681 0.517797
Si Si7 0.880827 0.571447 0.641593
Si Si8 0.664623 0.360392 0.916280
O O1 0.274016 0.896253 0.928682
O O2 0.167739 0.786309 0.021744
O O3 0.999497 0.875660 0.940156
O O4 0.130841 0.939096 0.055028
O O5 0.549269 0.144909 0.812168
O O6 0.488997 0.182443 0.946921
O O7 0.691012 0.261856 0.888837
O O8 0.478329 0.709966 0.762033
O O9 0.698350 0.820461 0.738998
O O10 0.453998 0.842542 0.671499
O O11 0.500000 0.500000 0.588949
O O12 0.579928 0.421915 0.700535
O O13 0.514926 0.338725 0.585962
O O14 0.292435 0.418262 0.660595
O O15 0.819092 0.406492 0.339052
O O16 0.244665 0.130871 0.490578
O O17 0.000000 0.500000 0.667813
#
# Coordination Sequence:
#
# PCOD9366089 Si02
#       8
#     8   8   8   8   8   8   8   8
#     4  10  21  38  68  98 129 164 215 271 330 394
#     4   9  18  37  62  97 128 160 206 269 326 378
#     4  11  23  40  69  98 133 167 219 271 334 393
#     4  12  27  44  65  88 134 179 225 270 329 396
#     4  11  23  41  67 102 129 171 217 273 332 395
#     4  10  19  40  66  98 127 163 211 271 332 388
#     4  12  27  45  63  90 133 181 223 272 329 396
#     4   9  20  33  66  99 130 156 208 271 323 383
#
# _framework density 24.134274999999999
#
# number of rings (size 3 to 8) (size 9 to 14) (size 15 to 20)
#    0.000    1.500    2.500    2.250   10.500    0.000 
#    0.000    1.250    2.750    0.000    0.000    0.000 
#    0.000    0.000    0.000    0.000    0.000    0.000 
#
# Total GULP energy -178414.098058 kJ/mol
# GULP energy per Si atom -5575.440564 kJ/mol
# Density = 2.407934 g / cm^3
# Si number density = 24.134275 Si / 1000 Ang^3
#
#
#
# Elastic Constant Matrix: (Units=GPa)
#
#
# Indices 1 2 3 4 5 6 
#
# 1 145.0675 11.4473 15.1711 0.0000 0.0000 0.0000
# 2 11.4473 38.1881 7.3870 0.0000 0.0000 0.0000
# 3 15.1711 7.3870 65.2957 0.0000 0.0000 0.0000
# 4 0.0000 0.0000 0.0000 9.1815 0.0000 0.0000
# 5 0.0000 0.0000 0.0000 0.0000 31.0908 0.0000
# 6 0.0000 0.0000 0.0000 0.0000 0.0000 26.3603
#
#
#
# Elastic Compliance Matrix: (Units=1/GPa)
#
#
# Indices 1 2 3 4 5 6 
#
# 1 0.007194 -0.001874 -0.001459 0.000000 0.000000 0.000000
# 2 -0.001874 0.027260 -0.002649 0.000000 0.000000 0.000000
# 3 -0.001459 -0.002649 0.015954 0.000000 0.000000 0.000000
# 4 0.000000 0.000000 0.000000 0.108914 0.000000 0.000000
# 5 0.000000 0.000000 0.000000 0.000000 0.032164 0.000000
# 6 0.000000 0.000000 0.000000 0.000000 0.000000 0.037936
#
#
# Mechanical properties :
#
#
# Convention : Reuss Voigt Hill
#
# Bulk Modulus (GPa) = 26.01215 35.17357 30.59286
# Shear Modulus (GPa) = 19.66950 27.62959 23.64955
#
# Velocity S-wave (km/s) = 2.85792 3.38720 3.13376
# Velocity P-wave (km/s) = 4.65744 5.46839 5.07913
#
# Compressibility (1/GPa) = 0.03844358
#
# Stress axis : x y z
#
# Youngs Moduli (GPa) = 139.00755 36.68340 62.68152
#
# Poissons Ratio (x) = 0.06875 0.09148
# Poissons Ratio (y) = 0.26052 0.16602
# Poissons Ratio (z) = 0.20287 0.09716
#
# Static dielectric constant tensor:
#      x y z
#    x 2.064280 0.000000 0.000000 
#    y 0.000000 2.145440 0.000000 
#    z 0.000000 0.000000 1.968980 
# 
# From -- ./inp_files/9827.got.cif
#   From: 2010.05.17/outbox.cif.g08.bks.cpg/sg41_5_cif.got.tgz:9827.got - 2010.06.03 18:54:24.
