data_PCOD9366731
_publ_section_title
;
Structure prediction by ZEFSAII (Michael W. Deem and Ramdas Pophale) SiO2 
 PCOD9366731
Probable space group: A B A 2
;
_chemical_formula_sum "Si O2"
_cell_formula_units_Z 52
_cell_length_a 25.890564
_cell_length_b 12.089287
_cell_length_c 8.353690
_cell_angle_alpha 90.000000
_cell_angle_beta 90.000000
_cell_angle_gamma 90.000000
_cell_volume 2614.692095
_symmetry_space_group_name_H-M "A B A 2"
_symmetry_group_IT_number 41
_symmetry_cell_setting 'orthorhombic'
loop_
_space_group_symop_operation_xyz
x,y,z
-x,-y,z
1/2-x,y,1/2+z
1/2+x,-y,1/2+z
x,1/2+y,1/2+z
-x,1/2-y,1/2+z
1/2-x,1/2+y,z
1/2+x,1/2-y,z
loop_
_atom_site_type_symbol
_atom_site_label
_atom_site_fract_x
_atom_site_fract_y
_atom_site_fract_z
Si Si1 0.577787 0.427701 0.001680
Si Si2 0.934525 0.658262 0.674560
Si Si3 0.000000 0.500000 0.228415
Si Si4 0.193908 0.561256 0.559972
Si Si5 0.270285 0.188240 0.859119
Si Si6 0.981774 0.711335 0.014229
Si Si7 0.684701 0.688699 0.161169
O O1 0.566530 0.530044 0.121370
O O2 0.638868 0.426018 0.974482
O O3 0.557716 0.309441 0.062655
O O4 0.545386 0.454938 0.842612
O O5 0.875793 0.696871 0.701893
O O6 0.962534 0.730314 0.537165
O O7 0.967353 0.677880 0.834343
O O8 0.019382 0.397843 0.121981
O O9 0.241212 0.585758 0.442696
O O10 0.197907 0.647723 0.706193
O O11 0.196585 0.439275 0.630737
O O12 0.223563 0.264249 0.793827
O O13 0.303399 0.247777 0.995215
#
# Coordination Sequence:
#
# PCOD9366731 Si02
#       7
#     8   8   4   8   8   8   8
#     4  11  23  44  62  93 129 168 209 261 313 379
#     4  11  23  42  66  91 129 168 210 261 316 376
#     4  12  26  40  64  92 124 176 210 264 318 370
#     4  10  22  39  66  91 125 164 206 256 315 367
#     4  10  21  40  64  91 124 163 201 261 313 366
#     4  12  24  42  64  91 129 166 214 261 314 380
#     4  10  22  41  62  93 123 157 211 254 311 375
#
# _framework density 19.887616999999999
#
# number of rings (size 3 to 8) (size 9 to 14) (size 15 to 20)
#    0.000    1.231    3.077    1.846    2.154    3.692 
#    2.769    1.538    0.000    0.000    0.000    0.000 
#    0.000    0.000    0.000    0.000    0.000    0.000 
#
# Total GULP energy -145304.834082 kJ/mol
# GULP energy per Si atom -5588.647465 kJ/mol
# Density = 1.984235 g / cm^3
# Si number density = 19.887617 Si / 1000 Ang^3
#
#
#
# Elastic Constant Matrix: (Units=GPa)
#
#
# Indices 1 2 3 4 5 6 
#
# 1 64.6418 34.3087 40.4973 0.0000 0.0000 0.0000
# 2 34.3087 104.0881 27.0201 0.0000 0.0000 0.0000
# 3 40.4973 27.0201 95.2444 0.0000 0.0000 0.0000
# 4 0.0000 0.0000 0.0000 16.3148 0.0000 0.0000
# 5 0.0000 0.0000 0.0000 0.0000 25.2456 0.0000
# 6 0.0000 0.0000 0.0000 0.0000 0.0000 -28.4672
#
#
#
# Elastic Compliance Matrix: (Units=1/GPa)
#
#
# Indices 1 2 3 4 5 6 
#
# 1 0.023797 -0.005632 -0.008521 0.000000 0.000000 0.000000
# 2 -0.005632 0.011704 -0.000926 0.000000 0.000000 0.000000
# 3 -0.008521 -0.000926 0.014385 0.000000 0.000000 0.000000
# 4 0.000000 0.000000 0.000000 0.061294 0.000000 0.000000
# 5 0.000000 0.000000 0.000000 0.000000 0.039611 0.000000
# 6 0.000000 0.000000 0.000000 0.000000 0.000000 -0.035128
#
#
# Mechanical properties :
#
#
# Convention : Reuss Voigt Hill
#
# Bulk Modulus (GPa) = 50.68585 51.95850 51.32217
# Shear Modulus (GPa) = 32.80944 13.42854 23.11899
#
# Velocity S-wave (km/s) = 4.06611 2.60132 3.41322
# Velocity P-wave (km/s) = 6.89824 5.93340 6.43394
#
# Compressibility (1/GPa) = 0.01972937
#
# Stress axis : x y z
#
# Youngs Moduli (GPa) = 42.02201 85.44168 69.51781
#
# Poissons Ratio (x) = 0.48120 0.59233
# Poissons Ratio (y) = 0.23667 0.06435
# Poissons Ratio (z) = 0.35805 0.07909
#
# Static dielectric constant tensor:
#      x y z
#    x 1.682210 0.000000 0.000000 
#    y 0.000000 1.700850 0.000000 
#    z 0.000000 0.000000 1.693110 
# 
# From -- ./inp_files/3782.got.cif
#   From: 2010.05.17/outbox.cif.g08.bks.cpg/sg41_2_cif.got.tgz:3782.got - 2010.06.03 18:54:24.
