data_PCOD9366056
_publ_section_title
;
Structure prediction by ZEFSAII (Michael W. Deem and Ramdas Pophale) SiO2 
 PCOD9366056
Probable space group: A B A 2
;
_chemical_formula_sum "Si O2"
_cell_formula_units_Z 48
_cell_length_a 9.693301
_cell_length_b 15.015157
_cell_length_c 12.519208
_cell_angle_alpha 90.000000
_cell_angle_beta 90.000000
_cell_angle_gamma 90.000000
_cell_volume 1822.126110
_symmetry_space_group_name_H-M "A B A 2"
_symmetry_group_IT_number 41
_symmetry_cell_setting 'orthorhombic'
loop_
_space_group_symop_operation_xyz
x,y,z
-x,-y,z
1/2-x,y,1/2+z
1/2+x,-y,1/2+z
x,1/2+y,1/2+z
-x,1/2-y,1/2+z
1/2-x,1/2+y,z
1/2+x,1/2-y,z
loop_
_atom_site_type_symbol
_atom_site_label
_atom_site_fract_x
_atom_site_fract_y
_atom_site_fract_z
Si Si1 0.793887 0.402430 0.750000
Si Si2 0.739582 0.082627 0.177748
Si Si3 0.552205 0.590311 0.490160
Si Si4 0.505991 0.093010 0.360642
Si Si5 0.137192 0.727872 0.126964
Si Si6 0.490757 0.777922 0.852344
O O1 0.835939 0.501006 0.713765
O O2 0.641754 0.413754 0.800786
O O3 0.769160 0.335066 0.651691
O O4 0.883758 0.345434 0.832682
O O5 0.645763 0.047712 0.081166
O O6 0.631377 0.098459 0.274920
O O7 0.804523 0.170932 0.124218
O O8 0.500000 0.500000 0.435546
O O9 0.452720 0.663814 0.548880
O O10 0.621786 0.656496 0.404122
O O11 0.511039 0.187681 0.418681
O O12 0.500000 0.000000 0.424463
O O13 0.050860 0.742900 0.236409
#
# Coordination Sequence:
#
# PCOD9366056 Si02
#       6
#     8   8   8   8   8   8
#     4  10  19  38  64  95 126 176 216 274 333 399
#     4  11  20  40  69  90 131 179 224 268 344 407
#     4  12  24  44  67 101 133 181 229 277 337 409
#     4   9  18  38  67  87 123 181 220 260 340 407
#     4  11  22  41  69  94 135 185 216 279 345 403
#     4  11  24  38  68 103 134 166 238 282 328 399
#
# _framework density 26.342851
#
# number of rings (size 3 to 8) (size 9 to 14) (size 15 to 20)
#    0.000    1.333    6.667    0.500    2.333    2.667 
#    0.000    0.000    7.333    0.000    0.000    0.000 
#    0.000    0.000    0.000    0.000    0.000    0.000 
#
# Total GULP energy -133657.641068 kJ/mol
# GULP energy per Si atom -5569.068378 kJ/mol
# Density = 2.628289 g / cm^3
# Si number density = 26.342851 Si / 1000 Ang^3
#
#
#
# Elastic Constant Matrix: (Units=GPa)
#
#
# Indices 1 2 3 4 5 6 
#
# 1 51.6862 16.5833 24.8555 0.0000 0.0000 0.0000
# 2 16.5833 259.3174 51.9702 0.0000 0.0000 0.0000
# 3 24.8555 51.9702 50.7289 0.0000 0.0000 0.0000
# 4 0.0000 0.0000 0.0000 32.6250 0.0000 0.0000
# 5 0.0000 0.0000 0.0000 0.0000 20.4982 0.0000
# 6 0.0000 0.0000 0.0000 0.0000 0.0000 17.4105
#
#
#
# Elastic Compliance Matrix: (Units=1/GPa)
#
#
# Indices 1 2 3 4 5 6 
#
# 1 0.025559 0.001101 -0.013651 0.000000 0.000000 0.000000
# 2 0.001101 0.004900 -0.005560 0.000000 0.000000 0.000000
# 3 -0.013651 -0.005560 0.032097 0.000000 0.000000 0.000000
# 4 0.000000 0.000000 0.000000 0.030651 0.000000 0.000000
# 5 0.000000 0.000000 0.000000 0.000000 0.048785 0.000000
# 6 0.000000 0.000000 0.000000 0.000000 0.000000 0.057437
#
#
# Mechanical properties :
#
#
# Convention : Reuss Voigt Hill
#
# Bulk Modulus (GPa) = 37.96963 60.95005 49.45984
# Shear Modulus (GPa) = 20.45601 31.99498 26.22550
#
# Velocity S-wave (km/s) = 2.78965 3.48884 3.15865
# Velocity P-wave (km/s) = 4.98208 6.27828 5.66736
#
# Compressibility (1/GPa) = 0.02633684
#
# Stress axis : x y z
#
# Youngs Moduli (GPa) = 39.12516 204.07947 31.15557
#
# Poissons Ratio (x) = -0.22477 0.42532
# Poissons Ratio (y) = -0.04309 0.17321
# Poissons Ratio (z) = 0.53411 1.13460
#
# Static dielectric constant tensor:
#      x y z
#    x 2.222120 0.000000 0.000000 
#    y 0.000000 2.329930 0.000000 
#    z 0.000000 0.000000 2.217940 
# 
# From -- ./inp_files/7889.got.cif
#   From: 2010.05.17/outbox.cif.g08.bks.cpg/sg41_4_cif.got.tgz:7889.got - 2010.06.03 18:54:24.
