data_PCOD9366256
_publ_section_title
;
Structure prediction by ZEFSAII (Michael W. Deem and Ramdas Pophale) SiO2 
 PCOD9366256
Probable space group: A B A 2
;
_chemical_formula_sum "Si O2"
_cell_formula_units_Z 64
_cell_length_a 30.600773
_cell_length_b 7.552040
_cell_length_c 12.310843
_cell_angle_alpha 90.000000
_cell_angle_beta 90.000000
_cell_angle_gamma 90.000000
_cell_volume 2845.014418
_symmetry_space_group_name_H-M "A B A 2"
_symmetry_group_IT_number 41
_symmetry_cell_setting 'orthorhombic'
loop_
_space_group_symop_operation_xyz
x,y,z
-x,-y,z
1/2-x,y,1/2+z
1/2+x,-y,1/2+z
x,1/2+y,1/2+z
-x,1/2-y,1/2+z
1/2-x,1/2+y,z
1/2+x,1/2-y,z
loop_
_atom_site_type_symbol
_atom_site_label
_atom_site_fract_x
_atom_site_fract_y
_atom_site_fract_z
Si Si1 0.110816 0.861871 0.384270
Si Si2 0.691825 0.307330 0.174143
Si Si3 0.796537 0.168925 0.431567
Si Si4 0.080728 0.158959 0.677592
Si Si5 0.040385 0.131954 0.462849
Si Si6 0.598608 0.241963 0.122105
Si Si7 0.989650 0.289085 0.749741
Si Si8 0.231381 0.012610 0.799423
O O1 0.158954 0.936235 0.409005
O O2 0.106851 0.765912 0.268744
O O3 0.101807 0.739621 0.491447
O O4 0.074168 0.009031 0.397133
O O5 0.639794 0.344549 0.174375
O O6 0.727913 0.444211 0.218993
O O7 0.701229 0.135161 0.247660
O O8 0.701796 0.252882 0.050061
O O9 0.794335 0.315004 0.336226
O O10 0.753926 0.054368 0.410298
O O11 0.068817 0.225006 0.556088
O O12 0.031114 0.169532 0.721784
O O13 0.101947 0.967517 0.654088
O O14 0.022591 0.262242 0.372502
O O15 0.000000 0.000000 0.499471
O O16 0.550893 0.281173 0.167872
O O17 0.000000 0.500000 0.751757
#
# Coordination Sequence:
#
# PCOD9366256 Si02
#       8
#     8   8   8   8   8   8   8   8
#     4  10  20  38  61  85 116 159 198 243 298 352
#     4  10  21  39  61  90 121 154 197 245 295 358
#     4  10  21  37  62  87 120 155 195 244 297 352
#     4  11  20  38  62  81 116 161 199 243 297 350
#     4  10  20  38  57  84 117 156 196 242 296 346
#     4  10  23  39  60  87 121 156 202 250 298 351
#     4  11  22  38  59  84 122 156 203 251 293 354
#     4  10  21  37  62  89 119 156 196 237 304 358
#
# _framework density 22.49549
#
# number of rings (size 3 to 8) (size 9 to 14) (size 15 to 20)
#    0.000    1.750    2.500    3.375    1.750    0.000 
#    2.250    0.625    2.750    0.000    0.000    0.000 
#    0.000    0.000    0.000    0.000    0.000    0.000 
#
# Total GULP energy -178426.182998 kJ/mol
# GULP energy per Si atom -5575.818219 kJ/mol
# Density = 2.244429 g / cm^3
# Si number density = 22.495490 Si / 1000 Ang^3
#
#
#
# Elastic Constant Matrix: (Units=GPa)
#
#
# Indices 1 2 3 4 5 6 
#
# 1 82.0932 -3.4911 7.9650 0.0000 0.0000 0.0000
# 2 -3.4911 24.9704 5.8927 0.0000 0.0000 0.0000
# 3 7.9650 5.8927 92.6255 0.0000 0.0000 0.0000
# 4 0.0000 0.0000 0.0000 19.9979 0.0000 0.0000
# 5 0.0000 0.0000 0.0000 0.0000 -1.9960 0.0000
# 6 0.0000 0.0000 0.0000 0.0000 0.0000 -11.5252
#
#
#
# Elastic Compliance Matrix: (Units=1/GPa)
#
#
# Indices 1 2 3 4 5 6 
#
# 1 0.012383 0.002013 -0.001193 0.000000 0.000000 0.000000
# 2 0.002013 0.040985 -0.002781 0.000000 0.000000 0.000000
# 3 -0.001193 -0.002781 0.011076 0.000000 0.000000 0.000000
# 4 0.000000 0.000000 0.000000 0.050005 0.000000 0.000000
# 5 0.000000 0.000000 0.000000 0.000000 -0.501005 0.000000
# 6 0.000000 0.000000 0.000000 0.000000 0.000000 -0.086766
#
#
# Mechanical properties :
#
#
# Convention : Reuss Voigt Hill
#
# Bulk Modulus (GPa) = 16.52294 24.49140 20.50717
# Shear Modulus (GPa) = -11.13022 13.91684 1.39331
#
# Velocity S-wave (km/s) = -2.22677 2.48997 0.78786
# Velocity P-wave (km/s) = 0.86581 4.37921 3.15651
#
# Compressibility (1/GPa) = 0.06052191
#
# Stress axis : x y z
#
# Youngs Moduli (GPa) = 80.75849 24.39916 90.28834
#
# Poissons Ratio (x) = -0.04911 0.10770
# Poissons Ratio (y) = -0.16254 0.25105
# Poissons Ratio (z) = 0.09633 0.06784
#
# Static dielectric constant tensor:
#      x y z
#    x 1.861250 0.000000 0.000000 
#    y 0.000000 1.882790 0.000000 
#    z 0.000000 0.000000 1.891410 
# 
# From -- ./inp_files/6653.got.cif
#   From: 2010.05.17/outbox.cif.g08.bks.cpg/sg41_4_cif.got.tgz:6653.got - 2010.06.03 18:54:24.
