data_PCOD9366816
_publ_section_title
;
Structure prediction by ZEFSAII (Michael W. Deem and Ramdas Pophale) SiO2 
 PCOD9366816
Probable space group: A B A 2
;
_chemical_formula_sum "Si O2"
_cell_formula_units_Z 60
_cell_length_a 28.304151
_cell_length_b 18.944542
_cell_length_c 5.162300
_cell_angle_alpha 90.000000
_cell_angle_beta 90.000000
_cell_angle_gamma 90.000000
_cell_volume 2768.072636
_symmetry_space_group_name_H-M "A B A 2"
_symmetry_group_IT_number 41
_symmetry_cell_setting 'orthorhombic'
loop_
_space_group_symop_operation_xyz
x,y,z
-x,-y,z
1/2-x,y,1/2+z
1/2+x,-y,1/2+z
x,1/2+y,1/2+z
-x,1/2-y,1/2+z
1/2-x,1/2+y,z
1/2+x,1/2-y,z
loop_
_atom_site_type_symbol
_atom_site_label
_atom_site_fract_x
_atom_site_fract_y
_atom_site_fract_z
Si Si1 0.386721 0.179294 0.710270
Si Si2 0.000000 0.500000 0.753159
Si Si3 0.897261 0.484016 0.600063
Si Si4 0.055799 0.229760 0.710417
Si Si5 0.225305 0.377865 0.268431
Si Si6 0.124850 0.933605 0.613144
Si Si7 0.029594 0.359683 0.027127
Si Si8 0.776433 0.290996 0.781607
O O1 0.389646 0.094755 0.699677
O O2 0.410617 0.205999 0.445871
O O3 0.331617 0.197068 0.736322
O O4 0.416317 0.213415 0.946169
O O5 0.953350 0.495208 0.584586
O O6 0.995605 0.569384 0.929405
O O7 0.877146 0.502740 0.319921
O O8 0.878637 0.537141 0.821633
O O9 0.042175 0.309825 0.781589
O O10 0.007254 0.184773 0.697973
O O11 0.238418 0.405967 0.551679
O O12 0.173045 0.393649 0.170372
O O13 0.230226 0.293561 0.287838
O O14 0.079038 0.883712 0.653157
O O15 0.744074 0.319705 0.549800
#
# Coordination Sequence:
#
# PCOD9366816 Si02
#       8
#     8   4   8   8   8   8   8   8
#     4  12  25  45  68  97 140 181 229 292 348 410
#     4  10  24  44  66  96 140 188 226 278 336 416
#     4  11  25  42  66  97 134 183 234 267 343 421
#     4  12  26  43  68 102 139 182 238 286 345 408
#     4  10  21  41  67  94 124 166 220 279 345 402
#     4  11  25  43  66  97 135 174 226 281 340 415
#     4  11  26  44  69 103 141 185 233 286 347 417
#     4  10  22  41  67  97 127 169 223 282 349 418
#
# _framework density 21.675732
#
# number of rings (size 3 to 8) (size 9 to 14) (size 15 to 20)
#    0.000    1.067    1.333    4.000    3.733    8.000 
#    0.000    4.000    0.000    0.000    0.000    0.000 
#    0.000    0.000    0.000    0.000    0.000    0.000 
#
# Total GULP energy -167864.163922 kJ/mol
# GULP energy per Si atom -5595.472131 kJ/mol
# Density = 2.162640 g / cm^3
# Si number density = 21.675732 Si / 1000 Ang^3
#
#
#
# Elastic Constant Matrix: (Units=GPa)
#
#
# Indices 1 2 3 4 5 6 
#
# 1 67.0200 -1.8056 12.6369 0.0000 0.0000 0.0000
# 2 -1.8056 75.5390 15.9012 0.0000 0.0000 0.0000
# 3 12.6369 15.9012 75.9979 0.0000 0.0000 0.0000
# 4 0.0000 0.0000 0.0000 18.7137 0.0000 0.0000
# 5 0.0000 0.0000 0.0000 0.0000 35.6837 0.0000
# 6 0.0000 0.0000 0.0000 0.0000 0.0000 30.8916
#
#
#
# Elastic Compliance Matrix: (Units=1/GPa)
#
#
# Indices 1 2 3 4 5 6 
#
# 1 0.015469 0.000953 -0.002772 0.000000 0.000000 0.000000
# 2 0.000953 0.013907 -0.003068 0.000000 0.000000 0.000000
# 3 -0.002772 -0.003068 0.014261 0.000000 0.000000 0.000000
# 4 0.000000 0.000000 0.000000 0.053437 0.000000 0.000000
# 5 0.000000 0.000000 0.000000 0.000000 0.028024 0.000000
# 6 0.000000 0.000000 0.000000 0.000000 0.000000 0.032371
#
#
# Mechanical properties :
#
#
# Convention : Reuss Voigt Hill
#
# Bulk Modulus (GPa) = 29.53012 30.22467 29.87740
# Shear Modulus (GPa) = 28.00640 29.84608 28.92624
#
# Velocity S-wave (km/s) = 3.59843 3.71473 3.65704
# Velocity P-wave (km/s) = 5.56040 5.68975 5.62545
#
# Compressibility (1/GPa) = 0.03386373
#
# Stress axis : x y z
#
# Youngs Moduli (GPa) = 64.64458 71.90692 70.12075
#
# Poissons Ratio (x) = -0.06854 0.19435
# Poissons Ratio (y) = -0.06162 0.21515
# Poissons Ratio (z) = 0.17917 0.22063
#
# Static dielectric constant tensor:
#      x y z
#    x 1.762460 0.000000 0.000000 
#    y 0.000000 1.792730 0.000000 
#    z 0.000000 0.000000 1.805270 
# 
# From -- ./inp_files/1189.got.cif
#   From: 2010.05.17/outbox.cif.g08.bks.cpg/sg41_1_cif.got.tgz:1189.got - 2010.06.03 18:54:24.
