data_PCOD9366182
_publ_section_title
;
Structure prediction by ZEFSAII (Michael W. Deem and Ramdas Pophale) SiO2 
 PCOD9366182
Probable space group: A B A 2
;
_chemical_formula_sum "Si O2"
_cell_formula_units_Z 60
_cell_length_a 8.686969
_cell_length_b 13.560970
_cell_length_c 25.818123
_cell_angle_alpha 90.000000
_cell_angle_beta 90.000000
_cell_angle_gamma 90.000000
_cell_volume 3041.471088
_symmetry_space_group_name_H-M "A B A 2"
_symmetry_group_IT_number 41
_symmetry_cell_setting 'orthorhombic'
loop_
_space_group_symop_operation_xyz
x,y,z
-x,-y,z
1/2-x,y,1/2+z
1/2+x,-y,1/2+z
x,1/2+y,1/2+z
-x,1/2-y,1/2+z
1/2-x,1/2+y,z
1/2+x,1/2-y,z
loop_
_atom_site_type_symbol
_atom_site_label
_atom_site_fract_x
_atom_site_fract_y
_atom_site_fract_z
Si Si1 0.102063 0.256744 0.901500
Si Si2 0.623796 0.185433 0.240317
Si Si3 0.338795 0.389200 0.935286
Si Si4 0.861480 0.789886 0.665644
Si Si5 0.181015 0.474992 0.321655
Si Si6 0.862708 0.834621 0.328630
Si Si7 0.935612 0.391253 0.620062
Si Si8 0.000000 0.000000 0.020154
O O1 0.205806 0.309536 0.944087
O O2 0.217081 0.216178 0.857445
O O3 0.996806 0.169677 0.923437
O O4 0.990659 0.333867 0.872957
O O5 0.482989 0.154450 0.203249
O O6 0.751724 0.229451 0.203564
O O7 0.697798 0.105262 0.277497
O O8 0.575474 0.270533 0.281001
O O9 0.297713 0.440871 0.880916
O O10 0.366971 0.462123 0.982138
O O11 0.739843 0.861775 0.636148
O O12 0.958072 0.703930 0.635091
O O13 0.297803 0.562284 0.310676
O O14 0.000000 0.500000 0.318753
O O15 0.000000 0.500000 0.641287
O O16 0.947358 0.413176 0.558717
#
# Coordination Sequence:
#
# PCOD9366182 Si02
#       8
#     8   8   8   8   8   8   8   4
#     4  10  20  36  59  86 139 169 217 262 316 391
#     4  11  22  36  61  92 131 176 217 255 322 420
#     4  11  21  39  62  94 125 180 212 274 322 409
#     4  10  22  43  66  95 134 171 228 278 352 394
#     4  12  21  34  59  90 137 174 210 256 315 390
#     4  11  20  37  54  89 135 183 210 254 313 389
#     4   9  23  45  71  96 128 169 230 303 342 404
#     4  10  22  44  72  90 128 166 236 280 360 392
#
# _framework density 19.727295000000002
#
# number of rings (size 3 to 8) (size 9 to 14) (size 15 to 20)
#    0.400    1.067    4.667    1.600    0.000    4.800 
#    0.000    2.000    0.000    9.600    0.000    0.000 
#    0.000    0.000    0.000    0.000    0.000    0.000 
#
# Total GULP energy -167216.149407 kJ/mol
# GULP energy per Si atom -5573.871647 kJ/mol
# Density = 1.968239 g / cm^3
# Si number density = 19.727295 Si / 1000 Ang^3
#
#
#
# Elastic Constant Matrix: (Units=GPa)
#
#
# Indices 1 2 3 4 5 6 
#
# 1 73.2445 16.7117 11.1979 0.0000 0.0000 0.0000
# 2 16.7117 81.3845 27.6676 0.0000 0.0000 0.0000
# 3 11.1979 27.6676 66.6660 0.0000 0.0000 0.0000
# 4 0.0000 0.0000 0.0000 -13.7495 0.0000 0.0000
# 5 0.0000 0.0000 0.0000 0.0000 10.4924 0.0000
# 6 0.0000 0.0000 0.0000 0.0000 0.0000 -3.8586
#
#
#
# Elastic Compliance Matrix: (Units=1/GPa)
#
#
# Indices 1 2 3 4 5 6 
#
# 1 0.014434 -0.002491 -0.001391 0.000000 0.000000 0.000000
# 2 -0.002491 0.014736 -0.005697 0.000000 0.000000 0.000000
# 3 -0.001391 -0.005697 0.017598 0.000000 0.000000 0.000000
# 4 0.000000 0.000000 0.000000 -0.072730 0.000000 0.000000
# 5 0.000000 0.000000 0.000000 0.000000 0.095307 0.000000
# 6 0.000000 0.000000 0.000000 0.000000 0.000000 -0.259161
#
#
# Mechanical properties :
#
#
# Convention : Reuss Voigt Hill
#
# Bulk Modulus (GPa) = 36.21882 36.93885 36.57884
# Shear Modulus (GPa) = -30.96850 9.62470 -10.67190
#
# Velocity S-wave (km/s) = -3.96641 2.21121 -2.32840
# Velocity P-wave (km/s) = 1.60527 5.02839 3.36955
#
# Compressibility (1/GPa) = 0.02760995
#
# Stress axis : x y z
#
# Youngs Moduli (GPa) = 69.28138 67.86241 56.82419
#
# Poissons Ratio (x) = 0.16906 0.07902
# Poissons Ratio (y) = 0.17259 0.32374
# Poissons Ratio (z) = 0.09634 0.38662
#
# Static dielectric constant tensor:
#      x y z
#    x 1.719370 0.000000 0.000000 
#    y 0.000000 1.824730 0.000000 
#    z 0.000000 0.000000 1.692970 
# 
# From -- ./inp_files/12475.got.cif
#   From: 2010.05.17/outbox.cif.g08.bks.cpg/sg41_7_cif.got.tgz:12475.got - 2010.06.03 18:54:24.
