data_PCOD9366733
_publ_section_title
;
Structure prediction by ZEFSAII (Michael W. Deem and Ramdas Pophale) SiO2 
 PCOD9366733
Probable space group: A B A 2
;
_chemical_formula_sum "Si O2"
_cell_formula_units_Z 40
_cell_length_a 14.700993
_cell_length_b 4.840385
_cell_length_c 23.967309
_cell_angle_alpha 90.000000
_cell_angle_beta 90.000000
_cell_angle_gamma 90.000000
_cell_volume 1705.476943
_symmetry_space_group_name_H-M "A B A 2"
_symmetry_group_IT_number 41
_symmetry_cell_setting 'orthorhombic'
loop_
_space_group_symop_operation_xyz
x,y,z
-x,-y,z
1/2-x,y,1/2+z
1/2+x,-y,1/2+z
x,1/2+y,1/2+z
-x,1/2-y,1/2+z
1/2-x,1/2+y,z
1/2+x,1/2-y,z
loop_
_atom_site_type_symbol
_atom_site_label
_atom_site_fract_x
_atom_site_fract_y
_atom_site_fract_z
Si Si1 0.566674 0.257617 0.272900
Si Si2 0.940158 0.765303 0.953826
Si Si3 0.192477 0.434721 0.049777
Si Si4 0.934268 0.759654 0.147510
Si Si5 0.811990 0.616442 0.374342
O O1 0.500000 0.500000 0.295246
O O2 0.597565 0.338622 0.210203
O O3 0.649281 0.162823 0.312048
O O4 0.500000 0.000000 0.269040
O O5 0.000000 0.500000 0.934385
O O6 0.891392 0.956427 0.907224
O O7 0.868803 0.645406 0.997495
O O8 0.000000 0.000000 0.984243
O O9 0.215034 0.757038 0.047028
O O10 0.144233 0.332333 0.105942
O O11 0.000000 0.500000 0.152729
O O12 0.000000 0.000000 0.125713
O O13 0.724475 0.423162 0.386615
#
# Coordination Sequence:
#
# PCOD9366733 Si02
#       5
#     8   8   8   8   8
#     4  10  22  41  65  92 127 173 221 263 316 393
#     4  12  25  44  67  90 124 173 222 262 321 401
#     4  12  24  40  64  96 132 164 209 271 331 385
#     4  10  21  40  64  92 127 171 218 259 311 388
#     4  12  25  41  63  94 130 163 210 275 333 381
#
# _framework density 23.453847
#
# number of rings (size 3 to 8) (size 9 to 14) (size 15 to 20)
#    0.000    0.800    0.000    7.800    0.000    3.200 
#    0.000    0.000    0.000    0.000    0.000    0.000 
#    0.000    0.000    0.000    0.000    0.000    0.000 
#
# Total GULP energy -111801.103832 kJ/mol
# GULP energy per Si atom -5590.055192 kJ/mol
# Density = 2.340046 g / cm^3
# Si number density = 23.453847 Si / 1000 Ang^3
#
#
#
# Elastic Constant Matrix: (Units=GPa)
#
#
# Indices 1 2 3 4 5 6 
#
# 1 66.7256 18.5881 40.9086 0.0000 0.0000 0.0000
# 2 18.5881 125.8045 6.4455 0.0000 0.0000 0.0000
# 3 40.9086 6.4455 113.3248 0.0000 0.0000 0.0000
# 4 0.0000 0.0000 0.0000 39.1852 0.0000 0.0000
# 5 0.0000 0.0000 0.0000 0.0000 44.4213 0.0000
# 6 0.0000 0.0000 0.0000 0.0000 0.0000 42.4016
#
#
#
# Elastic Compliance Matrix: (Units=1/GPa)
#
#
# Indices 1 2 3 4 5 6 
#
# 1 0.020060 -0.002601 -0.007094 0.000000 0.000000 0.000000
# 2 -0.002601 0.008309 0.000466 0.000000 0.000000 0.000000
# 3 -0.007094 0.000466 0.011358 0.000000 0.000000 0.000000
# 4 0.000000 0.000000 0.000000 0.025520 0.000000 0.000000
# 5 0.000000 0.000000 0.000000 0.000000 0.022512 0.000000
# 6 0.000000 0.000000 0.000000 0.000000 0.000000 0.023584
#
#
# Mechanical properties :
#
#
# Convention : Reuss Voigt Hill
#
# Bulk Modulus (GPa) = 47.01038 48.63771 47.82405
# Shear Modulus (GPa) = 36.52576 41.19580 38.86078
#
# Velocity S-wave (km/s) = 3.95060 4.19556 4.07492
# Velocity P-wave (km/s) = 6.39508 6.65229 6.52495
#
# Compressibility (1/GPa) = 0.02127190
#
# Stress axis : x y z
#
# Youngs Moduli (GPa) = 49.85004 120.34855 88.04101
#
# Poissons Ratio (x) = 0.31297 0.62452
# Poissons Ratio (y) = 0.12964 -0.04104
# Poissons Ratio (z) = 0.35361 -0.05610
#
# Static dielectric constant tensor:
#      x y z
#    x 1.912200 0.000000 0.000000 
#    y 0.000000 1.743980 0.000000 
#    z 0.000000 0.000000 1.920490 
# 
# From -- ./inp_files/12484.got.cif
#   From: 2010.05.17/outbox.cif.g08.bks.cpg/sg41_7_cif.got.tgz:12484.got - 2010.06.03 18:54:24.
