data_PCOD9366001
_publ_section_title
;
Structure prediction by ZEFSAII (Michael W. Deem and Ramdas Pophale) SiO2 
 PCOD9366001
Probable space group: A B A 2
;
_chemical_formula_sum "Si O2"
_cell_formula_units_Z 60
_cell_length_a 14.057452
_cell_length_b 13.167349
_cell_length_c 14.746307
_cell_angle_alpha 90.000000
_cell_angle_beta 90.000000
_cell_angle_gamma 90.000000
_cell_volume 2729.532232
_symmetry_space_group_name_H-M "A B A 2"
_symmetry_group_IT_number 41
_symmetry_cell_setting 'orthorhombic'
loop_
_space_group_symop_operation_xyz
x,y,z
-x,-y,z
1/2-x,y,1/2+z
1/2+x,-y,1/2+z
x,1/2+y,1/2+z
-x,1/2-y,1/2+z
1/2-x,1/2+y,z
1/2+x,1/2-y,z
loop_
_atom_site_type_symbol
_atom_site_label
_atom_site_fract_x
_atom_site_fract_y
_atom_site_fract_z
Si Si1 0.231817 0.323049 0.015190
Si Si2 0.502204 0.880670 0.296460
Si Si3 0.023092 0.785258 0.155921
Si Si4 0.742441 0.214218 0.710366
Si Si5 0.500000 0.000000 0.755316
Si Si6 0.440503 0.393626 0.988985
Si Si7 0.285015 0.153178 0.369120
Si Si8 0.686612 0.549431 0.357621
O O1 0.200955 0.301916 0.117617
O O2 0.330950 0.387495 0.021625
O O3 0.242122 0.219728 0.956636
O O4 0.165220 0.385772 0.947213
O O5 0.478441 0.805031 0.214888
O O6 0.434561 0.869222 0.382958
O O7 0.603926 0.848036 0.340784
O O8 0.500000 0.000000 0.269947
O O9 0.135630 0.764459 0.172836
O O10 0.001418 0.896311 0.197748
O O11 0.008422 0.806109 0.049156
O O12 0.768092 0.304074 0.779332
O O13 0.731585 0.118460 0.777701
O O14 0.407788 0.997328 0.817139
O O15 0.500000 0.500000 0.997674
O O16 0.257406 0.038619 0.384328
#
# Coordination Sequence:
#
# PCOD9366001 Si02
#       8
#     8   8   8   8   4   8   8   8
#     4  10  21  39  59  91 121 156 203 256 307 368
#     4  10  21  38  62  89 125 161 205 263 311 373
#     4   9  18  36  61  86 123 156 204 252 305 375
#     4   8  19  38  59  83 120 153 195 249 304 367
#     4  10  20  36  60  88 120 164 204 248 314 368
#     4  10  19  36  63  93 117 160 212 254 310 383
#     4  10  21  39  57  89 118 159 202 251 313 363
#     4  10  20  36  61  86 119 156 202 249 303 370
#
# _framework density 21.981788000000002
#
# number of rings (size 3 to 8) (size 9 to 14) (size 15 to 20)
#    0.000    2.400    0.667    2.400    1.867    1.067 
#    2.400    0.000    1.467    3.200    6.933    0.000 
#    0.000    0.000    0.000    0.000    0.000    0.000 
#
# Total GULP energy -167310.944750 kJ/mol
# GULP energy per Si atom -5577.031492 kJ/mol
# Density = 2.193176 g / cm^3
# Si number density = 21.981788 Si / 1000 Ang^3
#
#
#
# Elastic Constant Matrix: (Units=GPa)
#
#
# Indices 1 2 3 4 5 6 
#
# 1 42.3708 1.2327 27.2461 0.0000 0.0000 0.0000
# 2 1.2327 84.0812 57.9078 0.0000 0.0000 0.0000
# 3 27.2461 57.9078 145.5273 0.0000 0.0000 0.0000
# 4 0.0000 0.0000 0.0000 6.8185 0.0000 0.0000
# 5 0.0000 0.0000 0.0000 0.0000 -31.4549 0.0000
# 6 0.0000 0.0000 0.0000 0.0000 0.0000 -4.9825
#
#
#
# Elastic Compliance Matrix: (Units=1/GPa)
#
#
# Indices 1 2 3 4 5 6 
#
# 1 0.027967 0.004403 -0.006988 0.000000 0.000000 0.000000
# 2 0.004403 0.017076 -0.007619 0.000000 0.000000 0.000000
# 3 -0.006988 -0.007619 0.011212 0.000000 0.000000 0.000000
# 4 0.000000 0.000000 0.000000 0.146660 0.000000 0.000000
# 5 0.000000 0.000000 0.000000 0.000000 -0.031792 0.000000
# 6 0.000000 0.000000 0.000000 0.000000 0.000000 -0.200701
#
#
# Mechanical properties :
#
#
# Convention : Reuss Voigt Hill
#
# Bulk Modulus (GPa) = 27.89748 49.41695 38.65722
# Shear Modulus (GPa) = 1799.20692 6.44906 902.82799
#
# Velocity S-wave (km/s) = 28.64046 1.71470 20.28812
# Velocity P-wave (km/s) = 33.26289 5.14295 23.79989
#
# Compressibility (1/GPa) = 0.03584553
#
# Stress axis : x y z
#
# Youngs Moduli (GPa) = 35.75696 58.56130 89.19298
#
# Poissons Ratio (x) = -0.25782 0.62327
# Poissons Ratio (y) = -0.15742 0.67957
# Poissons Ratio (z) = 0.24987 0.44619
#
# Static dielectric constant tensor:
#      x y z
#    x 1.900990 0.000000 0.000000 
#    y 0.000000 1.805380 0.000000 
#    z 0.000000 0.000000 1.809450 
# 
# From -- ./inp_files/8811.got.cif
#   From: 2010.05.17/outbox.cif.g08.bks.cpg/sg41_5_cif.got.tgz:8811.got - 2010.06.03 18:54:24.
