data_PCOD9366158
_publ_section_title
;
Structure prediction by ZEFSAII (Michael W. Deem and Ramdas Pophale) SiO2 
 PCOD9366158
Probable space group: A B A 2
;
_chemical_formula_sum "Si O2"
_cell_formula_units_Z 44
_cell_length_a 21.725180
_cell_length_b 5.566546
_cell_length_c 16.473008
_cell_angle_alpha 90.000000
_cell_angle_beta 90.000000
_cell_angle_gamma 90.000000
_cell_volume 1992.150272
_symmetry_space_group_name_H-M "A B A 2"
_symmetry_group_IT_number 41
_symmetry_cell_setting 'orthorhombic'
loop_
_space_group_symop_operation_xyz
x,y,z
-x,-y,z
1/2-x,y,1/2+z
1/2+x,-y,1/2+z
x,1/2+y,1/2+z
-x,1/2-y,1/2+z
1/2-x,1/2+y,z
1/2+x,1/2-y,z
loop_
_atom_site_type_symbol
_atom_site_label
_atom_site_fract_x
_atom_site_fract_y
_atom_site_fract_z
Si Si1 0.500000 0.000000 0.838191
Si Si2 0.412621 0.360745 0.926893
Si Si3 0.736610 0.789210 0.213279
Si Si4 0.000000 0.500000 0.158943
Si Si5 0.500000 0.500000 0.062272
Si Si6 0.900623 0.823736 0.772432
Si Si7 0.282362 0.681369 0.397654
O O1 0.529554 0.791639 0.892715
O O2 0.444489 0.903927 0.783838
O O3 0.394457 0.559139 0.860645
O O4 0.352200 0.194927 0.929417
O O5 0.438219 0.480975 0.007693
O O6 0.754379 0.543321 0.169826
O O7 0.665578 0.771783 0.237670
O O8 0.776227 0.807191 0.298065
O O9 0.000476 0.252309 0.109524
O O10 0.060204 0.500740 0.215710
O O11 0.251353 0.429747 0.422880
#
# Coordination Sequence:
#
# PCOD9366158 Si02
#       7
#     4   8   8   4   4   8   8
#     4  12  20  36  64 108 124 162 226 292 330 382
#     4  12  23  39  70  98 130 171 225 285 326 391
#     4  10  20  35  59 101 127 155 204 282 337 374
#     4  12  28  46  61  95 142 186 218 266 340 408
#     4  12  28  46  61  95 142 186 218 266 340 408
#     4  12  23  39  70  98 130 171 225 285 326 391
#     4  10  20  35  59 101 127 155 204 282 337 374
#
# _framework density 22.086687999999999
#
# number of rings (size 3 to 8) (size 9 to 14) (size 15 to 20)
#    0.000    0.727    7.273    3.273    0.000    0.000 
#    0.000    0.000    0.000    6.545    0.000    0.000 
#    0.000    0.000    0.000    0.000    0.000    0.000 
#
# Total GULP energy -122984.673542 kJ/mol
# GULP energy per Si atom -5590.212434 kJ/mol
# Density = 2.203642 g / cm^3
# Si number density = 22.086688 Si / 1000 Ang^3
#
#
#
# Elastic Constant Matrix: (Units=GPa)
#
#
# Indices 1 2 3 4 5 6 
#
# 1 99.1861 23.8778 8.9605 0.0000 0.0000 0.0000
# 2 23.8778 163.2951 22.8383 0.0000 0.0000 0.0000
# 3 8.9605 22.8383 45.4659 0.0000 0.0000 0.0000
# 4 0.0000 0.0000 0.0000 19.9878 0.0000 0.0000
# 5 0.0000 0.0000 0.0000 0.0000 -5.7182 0.0000
# 6 0.0000 0.0000 0.0000 0.0000 0.0000 39.5912
#
#
#
# Elastic Compliance Matrix: (Units=1/GPa)
#
#
# Indices 1 2 3 4 5 6 
#
# 1 0.010532 -0.001344 -0.001400 0.000000 0.000000 0.000000
# 2 -0.001344 0.006758 -0.003130 0.000000 0.000000 0.000000
# 3 -0.001400 -0.003130 0.023843 0.000000 0.000000 0.000000
# 4 0.000000 0.000000 0.000000 0.050030 0.000000 0.000000
# 5 0.000000 0.000000 0.000000 0.000000 -0.174881 0.000000
# 6 0.000000 0.000000 0.000000 0.000000 0.000000 0.025258
#
#
# Mechanical properties :
#
#
# Convention : Reuss Voigt Hill
#
# Bulk Modulus (GPa) = 34.03210 46.58891 40.31050
# Shear Modulus (GPa) = -135.44409 27.59020 -53.92695
#
# Velocity S-wave (km/s) = -7.83945 3.53821 -4.94662
# Velocity P-wave (km/s) = 8.15480 6.15072 3.78612
#
# Compressibility (1/GPa) = 0.02938403
#
# Stress axis : x y z
#
# Youngs Moduli (GPa) = 94.94719 147.96894 41.94153
#
# Poissons Ratio (x) = 0.19890 0.05874
# Poissons Ratio (y) = 0.12763 0.13127
# Poissons Ratio (z) = 0.13297 0.46312
#
# Static dielectric constant tensor:
#      x y z
#    x 1.798250 0.000000 0.000000 
#    y 0.000000 1.944360 0.000000 
#    z 0.000000 0.000000 1.832190 
# 
# From -- ./inp_files/685.got.cif
#   From: 2010.05.17/outbox.cif.g08.bks.cpg/sg41_1_cif.got.tgz:685.got - 2010.06.03 18:54:24.
