data_PCOD9366723
_publ_section_title
;
Structure prediction by ZEFSAII (Michael W. Deem and Ramdas Pophale) SiO2 
 PCOD9366723
Probable space group: A B A 2
;
_chemical_formula_sum "Si O2"
_cell_formula_units_Z 40
_cell_length_a 15.109818
_cell_length_b 4.915624
_cell_length_c 24.089852
_cell_angle_alpha 90.000000
_cell_angle_beta 90.000000
_cell_angle_gamma 90.000000
_cell_volume 1789.254100
_symmetry_space_group_name_H-M "A B A 2"
_symmetry_group_IT_number 41
_symmetry_cell_setting 'orthorhombic'
loop_
_space_group_symop_operation_xyz
x,y,z
-x,-y,z
1/2-x,y,1/2+z
1/2+x,-y,1/2+z
x,1/2+y,1/2+z
-x,1/2-y,1/2+z
1/2-x,1/2+y,z
1/2+x,1/2-y,z
loop_
_atom_site_type_symbol
_atom_site_label
_atom_site_fract_x
_atom_site_fract_y
_atom_site_fract_z
Si Si1 0.692801 0.006750 0.772320
Si Si2 0.939417 0.261572 0.857800
Si Si3 0.692811 0.330908 0.454885
Si Si4 0.807406 0.489027 0.639893
Si Si5 0.060870 0.263179 0.554646
O O1 0.776016 0.810195 0.786721
O O2 0.608623 0.890715 0.804173
O O3 0.679037 0.998002 0.706155
O O4 0.864065 0.223121 0.903358
O O5 0.000000 0.500000 0.882230
O O6 0.000000 0.000000 0.846584
O O7 0.719909 0.645288 0.453049
O O8 0.637871 0.295450 0.510967
O O9 0.775781 0.185890 0.625703
O O10 0.891947 0.603594 0.608186
O O11 0.000000 0.500000 0.529536
O O12 0.000000 0.000000 0.565939
#
# Coordination Sequence:
#
# PCOD9366723 Si02
#       5
#     8   8   8   8   8
#     4  10  21  40  63  87 119 163 211 253 301 370
#     4  12  24  40  62  94 130 162 206 265 324 375
#     4  12  24  42  66  90 124 170 216 256 312 388
#     4  10  21  40  63  87 119 163 211 253 301 370
#     4  12  24  40  62  94 130 162 206 265 324 375
#
# _framework density 22.355687
#
# number of rings (size 3 to 8) (size 9 to 14) (size 15 to 20)
#    0.000    0.800    0.000    8.400    0.000    0.800 
#    0.000    2.000    0.000    0.000    0.000    0.000 
#    0.000    0.000    0.000    0.000    0.000    0.000 
#
# Total GULP energy -111944.647890 kJ/mol
# GULP energy per Si atom -5597.232394 kJ/mol
# Density = 2.230480 g / cm^3
# Si number density = 22.355687 Si / 1000 Ang^3
#
#
#
# Elastic Constant Matrix: (Units=GPa)
#
#
# Indices 1 2 3 4 5 6 
#
# 1 73.4743 10.4055 39.4526 0.0000 0.0000 0.0000
# 2 10.4055 90.9051 19.4382 0.0000 0.0000 0.0000
# 3 39.4526 19.4382 89.7116 0.0000 0.0000 0.0000
# 4 0.0000 0.0000 0.0000 31.8043 0.0000 0.0000
# 5 0.0000 0.0000 0.0000 0.0000 8.8463 0.0000
# 6 0.0000 0.0000 0.0000 0.0000 0.0000 35.9016
#
#
#
# Elastic Compliance Matrix: (Units=1/GPa)
#
#
# Indices 1 2 3 4 5 6 
#
# 1 0.017830 -0.000382 -0.007758 0.000000 0.000000 0.000000
# 2 -0.000382 0.011543 -0.002333 0.000000 0.000000 0.000000
# 3 -0.007758 -0.002333 0.015064 0.000000 0.000000 0.000000
# 4 0.000000 0.000000 0.000000 0.031442 0.000000 0.000000
# 5 0.000000 0.000000 0.000000 0.000000 0.113041 0.000000
# 6 0.000000 0.000000 0.000000 0.000000 0.000000 0.027854
#
#
# Mechanical properties :
#
#
# Convention : Reuss Voigt Hill
#
# Bulk Modulus (GPa) = 42.57030 43.63152 43.10091
# Shear Modulus (GPa) = 20.36224 27.63009 23.99617
#
# Velocity S-wave (km/s) = 3.02127 3.51940 3.27980
# Velocity P-wave (km/s) = 5.59056 6.00618 5.80209
#
# Compressibility (1/GPa) = 0.02349056
#
# Stress axis : x y z
#
# Youngs Moduli (GPa) = 56.08433 86.63192 66.38204
#
# Poissons Ratio (x) = 0.03309 0.51502
# Poissons Ratio (y) = 0.02142 0.15488
# Poissons Ratio (z) = 0.43513 0.20212
#
# Static dielectric constant tensor:
#      x y z
#    x 1.861250 0.000000 0.000000 
#    y 0.000000 1.788030 0.000000 
#    z 0.000000 0.000000 1.796830 
# 
# From -- ./inp_files/12481.got.cif
#   From: 2010.05.17/outbox.cif.g08.bks.cpg/sg41_7_cif.got.tgz:12481.got - 2010.06.03 18:54:24.
