data_PCOD9366457
_publ_section_title
;
Structure prediction by ZEFSAII (Michael W. Deem and Ramdas Pophale) SiO2 
 PCOD9366457
Probable space group: A B A 2
;
_chemical_formula_sum "Si O2"
_cell_formula_units_Z 40
_cell_length_a 10.727086
_cell_length_b 17.005898
_cell_length_c 8.634222
_cell_angle_alpha 90.000000
_cell_angle_beta 90.000000
_cell_angle_gamma 90.000000
_cell_volume 1575.086986
_symmetry_space_group_name_H-M "A B A 2"
_symmetry_group_IT_number 41
_symmetry_cell_setting 'orthorhombic'
loop_
_space_group_symop_operation_xyz
x,y,z
-x,-y,z
1/2-x,y,1/2+z
1/2+x,-y,1/2+z
x,1/2+y,1/2+z
-x,1/2-y,1/2+z
1/2-x,1/2+y,z
1/2+x,1/2-y,z
loop_
_atom_site_type_symbol
_atom_site_label
_atom_site_fract_x
_atom_site_fract_y
_atom_site_fract_z
Si Si1 0.362739 0.680066 0.424490
Si Si2 0.102811 0.118775 0.942743
Si Si3 0.000000 0.500000 0.694418
Si Si4 0.684546 0.738426 0.609637
Si Si5 0.117314 0.914989 0.461584
Si Si6 0.000000 0.000000 0.709323
O O1 0.247791 0.619646 0.393618
O O2 0.358294 0.743467 0.283871
O O3 0.318370 0.720588 0.583757
O O4 0.486913 0.632602 0.448623
O O5 0.023182 0.077660 0.809430
O O6 0.092875 0.209058 0.999565
O O7 0.066373 0.065393 0.089195
O O8 0.108314 0.459075 0.798530
O O9 0.701950 0.653255 0.533205
O O10 0.111851 0.980586 0.593887
#
# Coordination Sequence:
#
# PCOD9366457 Si02
#       6
#     8   8   4   8   8   4
#     4  10  21  42  65  90 126 172 210 258 317 370
#     4   9  21  41  66  86 121 173 208 254 318 383
#     4  10  20  42  62  94 124 164 214 266 324 372
#     4  10  23  39  68  85 124 173 215 251 307 388
#     4  11  22  39  67  95 127 165 208 267 318 375
#     4  10  22  36  62  92 124 154 212 264 328 360
#
# _framework density 25.395420999999999
#
# number of rings (size 3 to 8) (size 9 to 14) (size 15 to 20)
#    1.200    0.800    2.000    1.200    2.800    0.000 
#    0.000    8.000    0.000    0.000    0.000    0.000 
#    0.000    0.000    0.000    0.000    0.000    0.000 
#
# Total GULP energy -111495.113073 kJ/mol
# GULP energy per Si atom -5574.755654 kJ/mol
# Density = 2.533762 g / cm^3
# Si number density = 25.395421 Si / 1000 Ang^3
#
#
#
# Elastic Constant Matrix: (Units=GPa)
#
#
# Indices 1 2 3 4 5 6 
#
# 1 26.7557 -13.0808 3.7023 0.0000 0.0000 0.0000
# 2 -13.0808 124.9193 34.4751 0.0000 0.0000 0.0000
# 3 3.7023 34.4751 125.2347 0.0000 0.0000 0.0000
# 4 0.0000 0.0000 0.0000 -8.2632 0.0000 0.0000
# 5 0.0000 0.0000 0.0000 0.0000 24.4608 0.0000
# 6 0.0000 0.0000 0.0000 0.0000 0.0000 33.7522
#
#
#
# Elastic Compliance Matrix: (Units=1/GPa)
#
#
# Indices 1 2 3 4 5 6 
#
# 1 0.040122 0.004901 -0.002535 0.000000 0.000000 0.000000
# 2 0.004901 0.009262 -0.002695 0.000000 0.000000 0.000000
# 3 -0.002535 -0.002695 0.008802 0.000000 0.000000 0.000000
# 4 0.000000 0.000000 0.000000 -0.121019 0.000000 0.000000
# 5 0.000000 0.000000 0.000000 0.000000 0.040882 0.000000
# 6 0.000000 0.000000 0.000000 0.000000 0.000000 0.029628
#
#
# Mechanical properties :
#
#
# Convention : Reuss Voigt Hill
#
# Bulk Modulus (GPa) = 17.38278 36.34477 26.86378
# Shear Modulus (GPa) = 181.74823 26.77750 104.26286
#
# Velocity S-wave (km/s) = 8.46892 3.25071 6.41443
# Velocity P-wave (km/s) = 10.12373 5.33218 8.09080
#
# Compressibility (1/GPa) = 0.05752819
#
# Stress axis : x y z
#
# Youngs Moduli (GPa) = 24.92390 107.96788 113.61400
#
# Poissons Ratio (x) = -0.52915 0.28804
# Poissons Ratio (y) = -0.12215 0.30614
# Poissons Ratio (z) = 0.06319 0.29093
#
# Static dielectric constant tensor:
#      x y z
#    x 2.044760 0.000000 0.000000 
#    y 0.000000 2.103710 0.000000 
#    z 0.000000 0.000000 2.008380 
# 
# From -- ./inp_files/2437.got.cif
#   From: 2010.05.17/outbox.cif.g08.bks.cpg/sg41_2_cif.got.tgz:2437.got - 2010.06.03 18:54:24.
