data_PCOD9366671
_publ_section_title
;
Structure prediction by ZEFSAII (Michael W. Deem and Ramdas Pophale) SiO2 
 PCOD9366671
Probable space group: A B A 2
;
_chemical_formula_sum "Si O2"
_cell_formula_units_Z 64
_cell_length_a 13.872064
_cell_length_b 7.249544
_cell_length_c 25.179495
_cell_angle_alpha 90.000000
_cell_angle_beta 90.000000
_cell_angle_gamma 90.000000
_cell_volume 2532.204577
_symmetry_space_group_name_H-M "A B A 2"
_symmetry_group_IT_number 41
_symmetry_cell_setting 'orthorhombic'
loop_
_space_group_symop_operation_xyz
x,y,z
-x,-y,z
1/2-x,y,1/2+z
1/2+x,-y,1/2+z
x,1/2+y,1/2+z
-x,1/2-y,1/2+z
1/2-x,1/2+y,z
1/2+x,1/2-y,z
loop_
_atom_site_type_symbol
_atom_site_label
_atom_site_fract_x
_atom_site_fract_y
_atom_site_fract_z
Si Si1 0.259242 0.589363 0.062570
Si Si2 0.372809 0.499237 0.962454
Si Si3 0.566845 0.171488 0.707776
Si Si4 0.792600 0.484836 0.792138
Si Si5 0.079119 0.628823 0.986583
Si Si6 0.820036 0.134641 0.409134
Si Si7 0.119674 0.365433 0.244397
Si Si8 0.246474 0.324565 0.641818
O O1 0.233613 0.335387 0.077429
O O2 0.270479 0.575066 0.128206
O O3 0.346676 0.568698 0.021422
O O4 0.164151 0.622059 0.028514
O O5 0.450227 0.335814 0.970307
O O6 0.366534 0.666328 0.920567
O O7 0.279676 0.377627 0.941976
O O8 0.642257 0.097929 0.750871
O O9 0.492120 0.320088 0.731815
O O10 0.636684 0.221229 0.659469
O O11 0.500000 0.000000 0.691900
O O12 0.800221 0.577521 0.849179
O O13 0.682585 0.469718 0.770670
O O14 0.845515 0.289526 0.786660
O O15 0.111291 0.518321 0.934403
O O16 0.000000 0.500000 0.012203
O O17 0.174599 0.341123 0.188046
#
# Coordination Sequence:
#
# PCOD9366671 Si02
#       8
#     8   8   8   8   8   8   8   8
#     4  11  20  40  64  88 129 171 224 270 336 414
#     4  11  21  42  67  95 131 173 227 283 342 410
#     4   9  20  39  60  90 131 164 216 272 332 406
#     4  10  21  39  62  93 124 170 219 266 345 407
#     4  11  25  42  64 100 138 174 226 293 348 412
#     4  11  21  40  70  95 127 178 229 275 345 428
#     4  10  21  39  62  91 130 168 213 282 332 406
#     4  11  21  37  66  95 125 180 226 269 346 415
#
# _framework density 25.274419000000002
#
# number of rings (size 3 to 8) (size 9 to 14) (size 15 to 20)
#    0.000    1.500    3.750    3.750    0.000    3.000 
#    0.000    6.250    2.750    0.000    0.000    0.000 
#    0.000    0.000    0.000    0.000    0.000    0.000 
#
# Total GULP energy -178448.235757 kJ/mol
# GULP energy per Si atom -5576.507367 kJ/mol
# Density = 2.521689 g / cm^3
# Si number density = 25.274419 Si / 1000 Ang^3
#
#
#
# Elastic Constant Matrix: (Units=GPa)
#
#
# Indices 1 2 3 4 5 6 
#
# 1 52.4881 8.3797 28.3611 0.0000 0.0000 0.0000
# 2 8.3797 147.0238 11.4801 0.0000 0.0000 0.0000
# 3 28.3611 11.4801 111.6333 0.0000 0.0000 0.0000
# 4 0.0000 0.0000 0.0000 26.3193 0.0000 0.0000
# 5 0.0000 0.0000 0.0000 0.0000 13.7418 0.0000
# 6 0.0000 0.0000 0.0000 0.0000 0.0000 17.2496
#
#
#
# Elastic Compliance Matrix: (Units=1/GPa)
#
#
# Indices 1 2 3 4 5 6 
#
# 1 0.022184 -0.000831 -0.005550 0.000000 0.000000 0.000000
# 2 -0.000831 0.006888 -0.000497 0.000000 0.000000 0.000000
# 3 -0.005550 -0.000497 0.010419 0.000000 0.000000 0.000000
# 4 0.000000 0.000000 0.000000 0.037995 0.000000 0.000000
# 5 0.000000 0.000000 0.000000 0.000000 0.072771 0.000000
# 6 0.000000 0.000000 0.000000 0.000000 0.000000 0.057972
#
#
# Mechanical properties :
#
#
# Convention : Reuss Voigt Hill
#
# Bulk Modulus (GPa) = 38.86000 45.28744 42.07372
# Shear Modulus (GPa) = 21.68597 28.99043 25.33820
#
# Velocity S-wave (km/s) = 2.93238 3.39045 3.16970
# Velocity P-wave (km/s) = 5.18399 5.76924 5.48442
#
# Compressibility (1/GPa) = 0.02573340
#
# Stress axis : x y z
#
# Youngs Moduli (GPa) = 45.07816 145.18416 95.97709
#
# Poissons Ratio (x) = 0.12064 0.53272
# Poissons Ratio (y) = 0.03746 0.04772
# Poissons Ratio (z) = 0.25020 0.07219
#
# Static dielectric constant tensor:
#      x y z
#    x 2.064240 0.000000 0.000000 
#    y 0.000000 6.440810 0.000000 
#    z 0.000000 0.000000 1.897870 
# 
# From -- ./inp_files/12247.got.cif
#   From: 2010.05.17/outbox.cif.g08.bks.cpg/sg41_7_cif.got.tgz:12247.got - 2010.06.03 18:54:24.
