data_PCOD9366833
_publ_section_title
;
Structure prediction by ZEFSAII (Michael W. Deem and Ramdas Pophale) SiO2 
 PCOD9366833
Probable space group: A B A 2
;
_chemical_formula_sum "Si O2"
_cell_formula_units_Z 48
_cell_length_a 10.978057
_cell_length_b 8.826846
_cell_length_c 22.150872
_cell_angle_alpha 90.000000
_cell_angle_beta 90.000000
_cell_angle_gamma 90.000000
_cell_volume 2146.455348
_symmetry_space_group_name_H-M "A B A 2"
_symmetry_group_IT_number 41
_symmetry_cell_setting 'orthorhombic'
loop_
_space_group_symop_operation_xyz
x,y,z
-x,-y,z
1/2-x,y,1/2+z
1/2+x,-y,1/2+z
x,1/2+y,1/2+z
-x,1/2-y,1/2+z
1/2-x,1/2+y,z
1/2+x,1/2-y,z
loop_
_atom_site_type_symbol
_atom_site_label
_atom_site_fract_x
_atom_site_fract_y
_atom_site_fract_z
Si Si1 0.979877 0.176109 0.829780
Si Si2 0.102508 0.102397 0.225212
Si Si3 0.725406 0.146616 0.674229
Si Si4 0.360683 0.004686 0.967576
Si Si5 0.125011 0.085743 0.603773
Si Si6 0.268358 0.252037 0.399536
O O1 0.106372 0.227832 0.862285
O O2 0.955806 0.309374 0.780967
O O3 0.852797 0.177277 0.867934
O O4 0.000000 0.000000 0.808640
O O5 0.167993 0.237434 0.190828
O O6 0.197473 0.961732 0.232253
O O7 0.000000 0.000000 0.192629
O O8 0.630661 0.260051 0.641918
O O9 0.768224 0.024475 0.625900
O O10 0.281566 0.090541 0.918869
O O11 0.500000 0.000000 0.947456
O O12 0.306723 0.837174 0.961725
O O13 0.362084 0.088960 0.031652
O O14 0.000000 0.000000 0.617205
#
# Coordination Sequence:
#
# PCOD9366833 Si02
#       6
#     8   8   8   8   8   8
#     4  12  29  45  72 101 146 196 248 302 372 433
#     4  11  27  43  70 101 137 190 240 304 361 440
#     4  10  23  45  68 102 141 182 239 303 364 438
#     4  11  23  41  71 106 142 187 238 298 365 437
#     4  10  21  41  71 102 139 184 230 294 370 439
#     4  12  25  46  67 103 145 189 238 302 358 438
#
# _framework density 22.362449999999999
#
# number of rings (size 3 to 8) (size 9 to 14) (size 15 to 20)
#    0.000    1.000    3.333    2.000    7.000    2.000 
#    0.000    0.000    3.667    0.000    0.000    0.000 
#    0.000    0.000    0.000    0.000    0.000    0.000 
#
# Total GULP energy -133617.825761 kJ/mol
# GULP energy per Si atom -5567.409407 kJ/mol
# Density = 2.231155 g / cm^3
# Si number density = 22.362450 Si / 1000 Ang^3
#
#
#
# Elastic Constant Matrix: (Units=GPa)
#
#
# Indices 1 2 3 4 5 6 
#
# 1 125.5076 55.5269 41.9192 0.0000 0.0000 0.0000
# 2 55.5269 145.3457 42.3349 0.0000 0.0000 0.0000
# 3 41.9192 42.3349 52.1962 0.0000 0.0000 0.0000
# 4 0.0000 0.0000 0.0000 35.3087 0.0000 0.0000
# 5 0.0000 0.0000 0.0000 0.0000 49.6328 0.0000
# 6 0.0000 0.0000 0.0000 0.0000 0.0000 49.1009
#
#
#
# Elastic Compliance Matrix: (Units=1/GPa)
#
#
# Indices 1 2 3 4 5 6 
#
# 1 0.011407 -0.002212 -0.007367 0.000000 0.000000 0.000000
# 2 -0.002212 0.009437 -0.005878 0.000000 0.000000 0.000000
# 3 -0.007367 -0.005878 0.029842 0.000000 0.000000 0.000000
# 4 0.000000 0.000000 0.000000 0.028322 0.000000 0.000000
# 5 0.000000 0.000000 0.000000 0.000000 0.020148 0.000000
# 6 0.000000 0.000000 0.000000 0.000000 0.000000 0.020366
#
#
# Mechanical properties :
#
#
# Convention : Reuss Voigt Hill
#
# Bulk Modulus (GPa) = 50.57413 66.95684 58.76549
# Shear Modulus (GPa) = 31.84188 39.02639 35.43414
#
# Velocity S-wave (km/s) = 3.77755 4.18206 3.98494
# Velocity P-wave (km/s) = 6.45688 7.30248 6.89266
#
# Compressibility (1/GPa) = 0.01977295
#
# Stress axis : x y z
#
# Youngs Moduli (GPa) = 87.66733 105.96312 33.50978
#
# Poissons Ratio (x) = 0.23440 0.24686
# Poissons Ratio (y) = 0.19392 0.19696
# Poissons Ratio (z) = 0.64582 0.62283
#
# Static dielectric constant tensor:
#      x y z
#    x 1.954200 0.000000 0.000000 
#    y 0.000000 1.730260 0.000000 
#    z 0.000000 0.000000 1.843490 
# 
# From -- ./inp_files/12112.got.cif
#   From: 2010.05.17/outbox.cif.g08.bks.cpg/sg41_7_cif.got.tgz:12112.got - 2010.06.03 18:54:24.
