data_PCOD9366557
_publ_section_title
;
Structure prediction by ZEFSAII (Michael W. Deem and Ramdas Pophale) SiO2 
 PCOD9366557
Probable space group: A B A 2
;
_chemical_formula_sum "Si O2"
_cell_formula_units_Z 60
_cell_length_a 32.592167
_cell_length_b 5.331183
_cell_length_c 14.826796
_cell_angle_alpha 90.000000
_cell_angle_beta 90.000000
_cell_angle_gamma 90.000000
_cell_volume 2576.227072
_symmetry_space_group_name_H-M "A B A 2"
_symmetry_group_IT_number 41
_symmetry_cell_setting 'orthorhombic'
loop_
_space_group_symop_operation_xyz
x,y,z
-x,-y,z
1/2-x,y,1/2+z
1/2+x,-y,1/2+z
x,1/2+y,1/2+z
-x,1/2-y,1/2+z
1/2-x,1/2+y,z
1/2+x,1/2-y,z
loop_
_atom_site_type_symbol
_atom_site_label
_atom_site_fract_x
_atom_site_fract_y
_atom_site_fract_z
Si Si1 0.065791 0.346877 0.570100
Si Si2 0.500000 0.500000 0.597256
Si Si3 0.858215 0.521753 0.103250
Si Si4 0.647386 0.066724 0.900536
Si Si5 0.768768 0.815080 0.638195
Si Si6 0.400754 0.952922 0.387212
Si Si7 0.071644 0.745551 0.709253
Si Si8 0.265044 0.268683 0.347275
O O1 0.077936 0.510383 0.483228
O O2 0.061417 0.475457 0.667600
O O3 0.023364 0.214014 0.543259
O O4 0.105273 0.170747 0.581272
O O5 0.462657 0.403478 0.657131
O O6 0.816546 0.390737 0.135493
O O7 0.881447 0.700795 0.174559
O O8 0.848147 0.641418 0.006167
O O9 0.617993 0.279898 0.857492
O O10 0.690874 0.103310 0.854776
O O11 0.631813 0.779147 0.896404
O O12 0.757097 0.545842 0.597462
O O13 0.755447 0.781637 0.742372
O O14 0.429954 0.829888 0.311998
O O15 0.235883 0.486978 0.386532
#
# Coordination Sequence:
#
# PCOD9366557 Si02
#       8
#     8   4   8   8   8   8   8   8
#     4  10  23  46  67 100 138 175 227 281 348 408
#     4  10  24  46  66 104 134 174 220 284 338 416
#     4  10  23  40  67  93 134 176 227 284 337 407
#     4  11  23  42  63  97 133 173 233 283 339 411
#     4  10  23  37  58  93 129 172 229 280 339 404
#     4  11  25  42  70 102 131 180 230 275 339 416
#     4  11  23  44  72  96 138 178 228 279 347 415
#     4  10  21  37  56  87 129 172 221 285 344 402
#
# _framework density 23.289873
#
# number of rings (size 3 to 8) (size 9 to 14) (size 15 to 20)
#    0.000    1.600    1.333    2.000    7.467    2.133 
#    4.800    0.000    0.000    0.000    0.000    0.000 
#    0.000    0.000    0.000    0.000    0.000    0.000 
#
# Total GULP energy -167243.957414 kJ/mol
# GULP energy per Si atom -5574.798580 kJ/mol
# Density = 2.323686 g / cm^3
# Si number density = 23.289873 Si / 1000 Ang^3
#
#
#
# Elastic Constant Matrix: (Units=GPa)
#
#
# Indices 1 2 3 4 5 6 
#
# 1 82.9769 28.3490 -21.5921 0.0000 0.0000 0.0000
# 2 28.3490 99.9901 4.1376 0.0000 0.0000 0.0000
# 3 -21.5921 4.1376 41.8141 0.0000 0.0000 0.0000
# 4 0.0000 0.0000 0.0000 -0.0951 0.0000 0.0000
# 5 0.0000 0.0000 0.0000 0.0000 9.5222 0.0000
# 6 0.0000 0.0000 0.0000 0.0000 0.0000 29.3968
#
#
#
# Elastic Compliance Matrix: (Units=1/GPa)
#
#
# Indices 1 2 3 4 5 6 
#
# 1 0.016001 -0.004899 0.008748 0.000000 0.000000 0.000000
# 2 -0.004899 0.011542 -0.003672 0.000000 0.000000 0.000000
# 3 0.008748 -0.003672 0.028796 0.000000 0.000000 0.000000
# 4 0.000000 0.000000 0.000000-10.515560 0.000000 0.000000
# 5 0.000000 0.000000 0.000000 0.000000 0.105017 0.000000
# 6 0.000000 0.000000 0.000000 0.000000 0.000000 0.034017
#
#
# Mechanical properties :
#
#
# Convention : Reuss Voigt Hill
#
# Bulk Modulus (GPa) = 17.63868 27.39667 22.51767
# Shear Modulus (GPa) = -0.48536 22.02389 10.76926
#
# Velocity S-wave (km/s) = -0.45700 3.07847 2.15268
# Velocity P-wave (km/s) = 2.70398 4.94215 3.98349
#
# Compressibility (1/GPa) = 0.05669359
#
# Stress axis : x y z
#
# Youngs Moduli (GPa) = 62.49429 86.64169 34.72728
#
# Poissons Ratio (x) = 0.42443 -0.30378
# Poissons Ratio (y) = 0.30614 0.12751
# Poissons Ratio (z) = -0.54668 0.31812
#
# Static dielectric constant tensor:
#      x y z
#    x 1.836340 0.000000 0.000000 
#    y 0.000000 2.097990 0.000000 
#    z 0.000000 0.000000 1.886770 
# 
# From -- ./inp_files/10822.got.cif
#   From: 2010.05.17/outbox.cif.g08.bks.cpg/sg41_6_cif.got.tgz:10822.got - 2010.06.03 18:54:24.
