data_PCOD9366815
_publ_section_title
;
Structure prediction by ZEFSAII (Michael W. Deem and Ramdas Pophale) SiO2 
 PCOD9366815
Probable space group: A B A 2
;
_chemical_formula_sum "Si O2"
_cell_formula_units_Z 40
_cell_length_a 16.862406
_cell_length_b 8.629428
_cell_length_c 11.129336
_cell_angle_alpha 90.000000
_cell_angle_beta 90.000000
_cell_angle_gamma 90.000000
_cell_volume 1619.462162
_symmetry_space_group_name_H-M "A B A 2"
_symmetry_group_IT_number 41
_symmetry_cell_setting 'orthorhombic'
loop_
_space_group_symop_operation_xyz
x,y,z
-x,-y,z
1/2-x,y,1/2+z
1/2+x,-y,1/2+z
x,1/2+y,1/2+z
-x,1/2-y,1/2+z
1/2-x,1/2+y,z
1/2+x,1/2-y,z
loop_
_atom_site_type_symbol
_atom_site_label
_atom_site_fract_x
_atom_site_fract_y
_atom_site_fract_z
Si Si1 0.662637 0.863812 0.225140
Si Si2 0.425315 0.911826 0.403823
Si Si3 0.845024 0.602365 0.005941
Si Si4 0.964552 0.663811 0.804141
Si Si5 0.280257 0.195532 0.910193
O O1 0.602728 0.720315 0.212876
O O2 0.744050 0.791309 0.276124
O O3 0.624185 0.954832 0.338293
O O4 0.657396 0.993499 0.122639
O O5 0.470124 0.798047 0.310013
O O6 0.356532 0.796122 0.448293
O O7 0.500000 0.000000 0.467827
O O8 0.927380 0.642968 0.939673
O O9 0.788367 0.751445 0.002902
O O10 0.803157 0.483386 0.914152
O O11 0.000000 0.500000 0.770479
#
# Coordination Sequence:
#
# PCOD9366815 Si02
#       5
#     8   8   8   8   8
#     4  10  24  42  68  99 130 175 227 281 337 405
#     4  10  21  42  64  90 137 175 209 281 348 390
#     4  11  24  40  69  97 128 177 226 275 335 413
#     4  10  21  41  67  92 137 176 213 280 343 395
#     4  11  22  42  65  96 130 173 223 285 332 395
#
# _framework density 24.699556999999999
#
# number of rings (size 3 to 8) (size 9 to 14) (size 15 to 20)
#    0.000    1.600    4.000    0.000    2.800    2.400 
#    0.000    1.000    0.000    0.000    0.000    0.000 
#    0.000    0.000    0.000    0.000    0.000    0.000 
#
# Total GULP energy -111438.330663 kJ/mol
# GULP energy per Si atom -5571.916533 kJ/mol
# Density = 2.464334 g / cm^3
# Si number density = 24.699557 Si / 1000 Ang^3
#
#
#
# Elastic Constant Matrix: (Units=GPa)
#
#
# Indices 1 2 3 4 5 6 
#
# 1 86.5416 15.8300 27.0885 0.0000 0.0000 0.0000
# 2 15.8300 112.1017 11.2930 0.0000 0.0000 0.0000
# 3 27.0885 11.2930 95.6496 0.0000 0.0000 0.0000
# 4 0.0000 0.0000 0.0000 38.7093 0.0000 0.0000
# 5 0.0000 0.0000 0.0000 0.0000 -4.2477 0.0000
# 6 0.0000 0.0000 0.0000 0.0000 0.0000 30.4079
#
#
#
# Elastic Compliance Matrix: (Units=1/GPa)
#
#
# Indices 1 2 3 4 5 6 
#
# 1 0.012915 -0.001473 -0.003484 0.000000 0.000000 0.000000
# 2 -0.001473 0.009196 -0.000669 0.000000 0.000000 0.000000
# 3 -0.003484 -0.000669 0.011520 0.000000 0.000000 0.000000
# 4 0.000000 0.000000 0.000000 0.025834 0.000000 0.000000
# 5 0.000000 0.000000 0.000000 0.000000 -0.235423 0.000000
# 6 0.000000 0.000000 0.000000 0.000000 0.000000 0.032886
#
#
# Mechanical properties :
#
#
# Convention : Reuss Voigt Hill
#
# Bulk Modulus (GPa) = 44.68091 44.74622 44.71357
# Shear Modulus (GPa) = -40.20535 28.97932 -5.61301
#
# Velocity S-wave (km/s) = -4.03895 3.42902 -1.50912
# Velocity P-wave (km/s) = 1.90309 5.81663 3.88660
#
# Compressibility (1/GPa) = 0.02238092
#
# Stress axis : x y z
#
# Youngs Moduli (GPa) = 77.42945 108.74527 86.80278
#
# Poissons Ratio (x) = 0.16016 0.30240
# Poissons Ratio (y) = 0.11404 0.05804
# Poissons Ratio (z) = 0.26974 0.07271
#
# Static dielectric constant tensor:
#      x y z
#    x 2.064910 0.000000 0.000000 
#    y 0.000000 1.929810 0.000000 
#    z 0.000000 0.000000 2.006570 
# 
# From -- ./inp_files/5818.got.cif
#   From: 2010.05.17/outbox.cif.g08.bks.cpg/sg41_3_cif.got.tgz:5818.got - 2010.06.03 18:54:24.
