data_PCOD9366968
_publ_section_title
;
Structure prediction by ZEFSAII (Michael W. Deem and Ramdas Pophale) SiO2 
 PCOD9366968
Probable space group: A B A 2
;
_chemical_formula_sum "Si O2"
_cell_formula_units_Z 60
_cell_length_a 28.880140
_cell_length_b 5.778610
_cell_length_c 15.051558
_cell_angle_alpha 90.000000
_cell_angle_beta 90.000000
_cell_angle_gamma 90.000000
_cell_volume 2511.910350
_symmetry_space_group_name_H-M "A B A 2"
_symmetry_group_IT_number 41
_symmetry_cell_setting 'orthorhombic'
loop_
_space_group_symop_operation_xyz
x,y,z
-x,-y,z
1/2-x,y,1/2+z
1/2+x,-y,1/2+z
x,1/2+y,1/2+z
-x,1/2-y,1/2+z
1/2-x,1/2+y,z
1/2+x,1/2-y,z
loop_
_atom_site_type_symbol
_atom_site_label
_atom_site_fract_x
_atom_site_fract_y
_atom_site_fract_z
Si Si1 0.597882 0.370899 0.995430
Si Si2 0.533987 0.821862 0.778693
Si Si3 0.448059 0.997172 0.121684
Si Si4 0.771220 0.967554 0.566445
Si Si5 0.867721 0.281590 0.057248
Si Si6 0.624560 0.013741 0.864299
Si Si7 0.728284 0.971298 0.849143
Si Si8 0.000000 0.500000 0.424438
O O1 0.616281 0.269706 0.902914
O O2 0.548362 0.491180 0.976042
O O3 0.582563 0.174206 0.063104
O O4 0.639522 0.510692 0.040496
O O5 0.546247 0.603881 0.718752
O O6 0.505273 0.726607 0.862720
O O7 0.500000 0.000000 0.729042
O O8 0.581286 0.939265 0.806779
O O9 0.500000 0.000000 0.083284
O O10 0.414420 0.214614 0.115941
O O11 0.745988 0.724589 0.593885
O O12 0.824547 0.920617 0.593457
O O13 0.770493 0.970565 0.457827
O O14 0.876303 0.360705 0.954910
O O15 0.674473 0.984338 0.821739
O O16 0.748619 0.718560 0.821913
#
# Coordination Sequence:
#
# PCOD9366968 Si02
#       8
#     8   8   8   8   8   8   8   4
#     4  11  23  37  62  89 125 163 210 266 317 384
#     4  12  25  42  58  90 127 169 213 259 318 386
#     4  11  26  40  59  88 126 167 216 255 320 385
#     4   9  19  33  58  91 127 158 207 269 329 385
#     4  10  22  38  61  90 121 165 207 263 322 382
#     4  10  22  37  61  92 123 161 214 260 320 384
#     4   9  19  33  58  92 128 160 206 267 330 385
#     4  12  22  38  62  84 124 164 210 260 308 372
#
# _framework density 23.886202999999998
#
# number of rings (size 3 to 8) (size 9 to 14) (size 15 to 20)
#    0.000    1.600    3.333    0.800   15.867    0.000 
#    0.000    0.000    0.000    1.600    0.000    0.000 
#    0.000    0.000    0.000    0.000    0.000    0.000 
#
# Total GULP energy -167428.067056 kJ/mol
# GULP energy per Si atom -5580.935569 kJ/mol
# Density = 2.383184 g / cm^3
# Si number density = 23.886203 Si / 1000 Ang^3
#
#
#
# Elastic Constant Matrix: (Units=GPa)
#
#
# Indices 1 2 3 4 5 6 
#
# 1 178.1811 65.3857 17.7752 0.0000 0.0000 0.0000
# 2 65.3857 101.5859 7.3885 0.0000 0.0000 0.0000
# 3 17.7752 7.3885 28.9255 0.0000 0.0000 0.0000
# 4 0.0000 0.0000 0.0000 17.2899 0.0000 0.0000
# 5 0.0000 0.0000 0.0000 0.0000 6.1189 0.0000
# 6 0.0000 0.0000 0.0000 0.0000 0.0000 41.5614
#
#
#
# Elastic Compliance Matrix: (Units=1/GPa)
#
#
# Indices 1 2 3 4 5 6 
#
# 1 0.007685 -0.004690 -0.003525 0.000000 0.000000 0.000000
# 2 -0.004690 0.012893 -0.000411 0.000000 0.000000 0.000000
# 3 -0.003525 -0.000411 0.036842 0.000000 0.000000 0.000000
# 4 0.000000 0.000000 0.000000 0.057837 0.000000 0.000000
# 5 0.000000 0.000000 0.000000 0.000000 0.163429 0.000000
# 6 0.000000 0.000000 0.000000 0.000000 0.000000 0.024061
#
#
# Mechanical properties :
#
#
# Convention : Reuss Voigt Hill
#
# Bulk Modulus (GPa) = 24.89504 54.42127 39.65815
# Shear Modulus (GPa) = 14.99754 27.53688 21.26721
#
# Velocity S-wave (km/s) = 2.50846 3.39903 2.98712
# Velocity P-wave (km/s) = 4.33991 6.18365 5.34193
#
# Compressibility (1/GPa) = 0.04016865
#
# Stress axis : x y z
#
# Youngs Moduli (GPa) = 130.12445 77.56417 27.14259
#
# Poissons Ratio (x) = 0.36378 0.09566
# Poissons Ratio (y) = 0.61029 0.01116
# Poissons Ratio (z) = 0.45863 0.03188
#
# Static dielectric constant tensor:
#      x y z
#    x 2.082160 0.000000 0.000000 
#    y 0.000000 2.500310 0.000000 
#    z 0.000000 0.000000 1.887860 
# 
# From -- ./inp_files/10791.got.cif
#   From: 2010.05.17/outbox.cif.g08.bks.cpg/sg41_6_cif.got.tgz:10791.got - 2010.06.03 18:54:24.
