data_PCOD9366250
_publ_section_title
;
Structure prediction by ZEFSAII (Michael W. Deem and Ramdas Pophale) SiO2 
 PCOD9366250
Probable space group: A B A 2
;
_chemical_formula_sum "Si O2"
_cell_formula_units_Z 60
_cell_length_a 17.887324
_cell_length_b 8.090052
_cell_length_c 17.982835
_cell_angle_alpha 90.000000
_cell_angle_beta 90.000000
_cell_angle_gamma 90.000000
_cell_volume 2602.284927
_symmetry_space_group_name_H-M "A B A 2"
_symmetry_group_IT_number 41
_symmetry_cell_setting 'orthorhombic'
loop_
_space_group_symop_operation_xyz
x,y,z
-x,-y,z
1/2-x,y,1/2+z
1/2+x,-y,1/2+z
x,1/2+y,1/2+z
-x,1/2-y,1/2+z
1/2-x,1/2+y,z
1/2+x,1/2-y,z
loop_
_atom_site_type_symbol
_atom_site_label
_atom_site_fract_x
_atom_site_fract_y
_atom_site_fract_z
Si Si1 0.394063 0.876426 0.488340
Si Si2 0.500000 0.000000 0.832584
Si Si3 0.300757 0.812826 0.340095
Si Si4 0.003555 0.244268 0.703314
Si Si5 0.547284 0.291403 0.040184
Si Si6 0.866152 0.989138 0.706749
Si Si7 0.838639 0.537752 0.882813
Si Si8 0.650876 0.972480 0.045318
O O1 0.349176 0.872067 0.411453
O O2 0.481174 0.820390 0.480448
O O3 0.365232 0.722727 0.537682
O O4 0.394735 0.059745 0.523644
O O5 0.484889 0.146748 0.774594
O O6 0.572386 0.049200 0.879973
O O7 0.322230 0.622358 0.332719
O O8 0.212054 0.815934 0.353983
O O9 0.319617 0.935053 0.273331
O O10 0.089487 0.184343 0.712364
O O11 0.991039 0.318030 0.620889
O O12 0.939261 0.106131 0.703207
O O13 0.583318 0.108922 0.040904
O O14 0.821099 0.997911 0.629025
O O15 0.809375 0.508531 0.967154
#
# Coordination Sequence:
#
# PCOD9366250 Si02
#       8
#     8   4   8   8   8   8   8   8
#     4  10  21  37  66  98 138 180 234 285 351 431
#     4  12  24  42  70 102 132 186 242 286 350 428
#     4  11  26  48  64 102 141 186 236 298 376 429
#     4  10  21  36  65 105 138 178 234 289 345 428
#     4  10  20  37  67 103 141 182 230 297 347 422
#     4  10  21  42  66  95 141 183 224 291 361 425
#     4  11  28  46  71  99 143 184 243 299 358 445
#     4  10  22  41  67  97 135 189 229 289 351 426
#
# _framework density 23.056660999999998
#
# number of rings (size 3 to 8) (size 9 to 14) (size 15 to 20)
#    0.000    1.600    2.667    1.200    7.467    2.133 
#    0.000    5.333    0.000    0.000    0.000    0.000 
#    0.000    0.000    0.000    0.000    0.000    0.000 
#
# Total GULP energy -167194.208009 kJ/mol
# GULP energy per Si atom -5573.140267 kJ/mol
# Density = 2.300418 g / cm^3
# Si number density = 23.056661 Si / 1000 Ang^3
#
#
#
# Elastic Constant Matrix: (Units=GPa)
#
#
# Indices 1 2 3 4 5 6 
#
# 1 63.2798 12.8235 20.3677 0.0000 0.0000 0.0000
# 2 12.8235 40.3580 42.2474 0.0000 0.0000 0.0000
# 3 20.3677 42.2474 120.7068 0.0000 0.0000 0.0000
# 4 0.0000 0.0000 0.0000 20.5506 0.0000 0.0000
# 5 0.0000 0.0000 0.0000 0.0000 -14.1806 0.0000
# 6 0.0000 0.0000 0.0000 0.0000 0.0000 9.0030
#
#
#
# Elastic Compliance Matrix: (Units=1/GPa)
#
#
# Indices 1 2 3 4 5 6 
#
# 1 0.017072 -0.003802 -0.001550 0.000000 0.000000 0.000000
# 2 -0.003802 0.039953 -0.013342 0.000000 0.000000 0.000000
# 3 -0.001550 -0.013342 0.013216 0.000000 0.000000 0.000000
# 4 0.000000 0.000000 0.000000 0.048660 0.000000 0.000000
# 5 0.000000 0.000000 0.000000 0.000000 -0.070519 0.000000
# 6 0.000000 0.000000 0.000000 0.000000 0.000000 0.111074
#
#
# Mechanical properties :
#
#
# Convention : Reuss Voigt Hill
#
# Bulk Modulus (GPa) = 30.43874 41.69131 36.06502
# Shear Modulus (GPa) = 24.06219 13.00167 18.53193
#
# Velocity S-wave (km/s) = 3.23400 2.37724 2.83813
# Velocity P-wave (km/s) = 5.21300 5.06521 5.13964
#
# Compressibility (1/GPa) = 0.03285287
#
# Stress axis : x y z
#
# Youngs Moduli (GPa) = 58.57474 25.02951 75.66720
#
# Poissons Ratio (x) = 0.09516 0.11729
# Poissons Ratio (y) = 0.22270 1.00955
# Poissons Ratio (z) = 0.09079 0.33394
#
# Static dielectric constant tensor:
#      x y z
#    x 1.926170 0.000000 0.000000 
#    y 0.000000 1.860200 0.000000 
#    z 0.000000 0.000000 1.885730 
# 
# From -- ./inp_files/10597.got.cif
#   From: 2010.05.17/outbox.cif.g08.bks.cpg/sg41_6_cif.got.tgz:10597.got - 2010.06.03 18:54:24.
