data_PCOD9366277
_publ_section_title
;
Structure prediction by ZEFSAII (Michael W. Deem and Ramdas Pophale) SiO2 
 PCOD9366277
Probable space group: A B A 2
;
_chemical_formula_sum "Si O2"
_cell_formula_units_Z 60
_cell_length_a 29.000563
_cell_length_b 8.713904
_cell_length_c 11.906147
_cell_angle_alpha 90.000000
_cell_angle_beta 90.000000
_cell_angle_gamma 90.000000
_cell_volume 3008.780048
_symmetry_space_group_name_H-M "A B A 2"
_symmetry_group_IT_number 41
_symmetry_cell_setting 'orthorhombic'
loop_
_space_group_symop_operation_xyz
x,y,z
-x,-y,z
1/2-x,y,1/2+z
1/2+x,-y,1/2+z
x,1/2+y,1/2+z
-x,1/2-y,1/2+z
1/2-x,1/2+y,z
1/2+x,1/2-y,z
loop_
_atom_site_type_symbol
_atom_site_label
_atom_site_fract_x
_atom_site_fract_y
_atom_site_fract_z
Si Si1 0.699656 0.494069 0.579020
Si Si2 0.260282 0.726573 0.953920
Si Si3 0.405810 0.539289 0.553365
Si Si4 0.557160 0.649164 0.347075
Si Si5 0.000000 0.000000 0.164991
Si Si6 0.915454 0.996605 0.806412
Si Si7 0.190904 0.943994 0.833232
Si Si8 0.026019 0.294725 0.472676
O O1 0.738151 0.366469 0.557155
O O2 0.708308 0.632414 0.492532
O O3 0.648335 0.429541 0.565449
O O4 0.703173 0.560065 0.702823
O O5 0.288364 0.601787 0.883219
O O6 0.216655 0.802389 0.891258
O O7 0.414750 0.430925 0.446424
O O8 0.422082 0.469078 0.673400
O O9 0.434166 0.692005 0.526668
O O10 0.544322 0.540038 0.241800
O O11 0.507234 0.691421 0.397899
O O12 0.579721 0.811982 0.314921
O O13 0.996454 0.860715 0.076681
O O14 0.864375 0.050838 0.841945
O O15 0.951392 0.078229 0.890358
#
# Coordination Sequence:
#
# PCOD9366277 Si02
#       8
#     8   8   8   8   4   8   8   8
#     4  10  21  38  60  88 115 152 188 237 285 346
#     4  10  20  38  62  84 120 148 190 230 290 346
#     4  11  24  39  61  87 119 151 197 241 291 342
#     4  12  24  40  60  85 117 157 197 241 291 345
#     4  12  24  40  60  84 116 156 198 242 292 340
#     4  11  24  39  61  87 119 151 197 241 291 342
#     4  10  21  38  60  88 115 152 188 237 285 346
#     4  12  24  40  60  85 117 157 197 241 291 345
#
# _framework density 19.941635999999999
#
# number of rings (size 3 to 8) (size 9 to 14) (size 15 to 20)
#    0.000    1.067    4.000    2.400    1.867    1.067 
#    0.000    0.000    2.933    0.000    0.000    0.000 
#    0.000    0.000    0.000    0.000    0.000    0.000 
#
# Total GULP energy -167510.200071 kJ/mol
# GULP energy per Si atom -5583.673336 kJ/mol
# Density = 1.989625 g / cm^3
# Si number density = 19.941636 Si / 1000 Ang^3
#
#
#
# Elastic Constant Matrix: (Units=GPa)
#
#
# Indices 1 2 3 4 5 6 
#
# 1 47.7894 3.9199 26.3056 0.0000 0.0000 0.0000
# 2 3.9199 35.6671 2.3895 0.0000 0.0000 0.0000
# 3 26.3056 2.3895 86.5445 0.0000 0.0000 0.0000
# 4 0.0000 0.0000 0.0000 16.0483 0.0000 0.0000
# 5 0.0000 0.0000 0.0000 0.0000 25.4369 0.0000
# 6 0.0000 0.0000 0.0000 0.0000 0.0000 24.5129
#
#
#
# Elastic Compliance Matrix: (Units=1/GPa)
#
#
# Indices 1 2 3 4 5 6 
#
# 1 0.025312 -0.002271 -0.007631 0.000000 0.000000 0.000000
# 2 -0.002271 0.028293 -0.000091 0.000000 0.000000 0.000000
# 3 -0.007631 -0.000091 0.013877 0.000000 0.000000 0.000000
# 4 0.000000 0.000000 0.000000 0.062312 0.000000 0.000000
# 5 0.000000 0.000000 0.000000 0.000000 0.039313 0.000000
# 6 0.000000 0.000000 0.000000 0.000000 0.000000 0.040795
#
#
# Mechanical properties :
#
#
# Convention : Reuss Voigt Hill
#
# Bulk Modulus (GPa) = 21.05436 26.13679 23.59558
# Shear Modulus (GPa) = 20.34851 22.35868 21.35359
#
# Velocity S-wave (km/s) = 3.19784 3.35207 3.27586
# Velocity P-wave (km/s) = 4.92096 5.30254 5.11531
#
# Compressibility (1/GPa) = 0.04749610
#
# Stress axis : x y z
#
# Youngs Moduli (GPa) = 39.50714 35.34482 72.06304
#
# Poissons Ratio (x) = 0.08025 0.54991
# Poissons Ratio (y) = 0.08971 0.00656
# Poissons Ratio (z) = 0.30148 0.00322
#
# Static dielectric constant tensor:
#      x y z
#    x 1.677270 0.000000 0.000000 
#    y 0.000000 1.712210 0.000000 
#    z 0.000000 0.000000 1.701790 
# 
# From -- ./inp_files/6578.got.cif
#   From: 2010.05.17/outbox.cif.g08.bks.cpg/sg41_4_cif.got.tgz:6578.got - 2010.06.03 18:54:24.
