data_PCOD9366036
_publ_section_title
;
Structure prediction by ZEFSAII (Michael W. Deem and Ramdas Pophale) SiO2 
 PCOD9366036
Probable space group: A B A 2
;
_chemical_formula_sum "Si O2"
_cell_formula_units_Z 60
_cell_length_a 26.523191
_cell_length_b 9.294239
_cell_length_c 10.447067
_cell_angle_alpha 90.000000
_cell_angle_beta 90.000000
_cell_angle_gamma 90.000000
_cell_volume 2575.336534
_symmetry_space_group_name_H-M "A B A 2"
_symmetry_group_IT_number 41
_symmetry_cell_setting 'orthorhombic'
loop_
_space_group_symop_operation_xyz
x,y,z
-x,-y,z
1/2-x,y,1/2+z
1/2+x,-y,1/2+z
x,1/2+y,1/2+z
-x,1/2-y,1/2+z
1/2-x,1/2+y,z
1/2+x,1/2-y,z
loop_
_atom_site_type_symbol
_atom_site_label
_atom_site_fract_x
_atom_site_fract_y
_atom_site_fract_z
Si Si1 0.382994 0.239441 0.661630
Si Si2 0.776010 0.770159 0.051611
Si Si3 0.330354 0.192673 0.040288
Si Si4 0.260330 0.996840 0.895430
Si Si5 0.918438 0.784195 0.888500
Si Si6 0.845873 0.003906 0.770308
Si Si7 0.000000 0.500000 0.463907
Si Si8 0.089658 0.409549 0.640158
O O1 0.323562 0.251692 0.635845
O O2 0.412293 0.280172 0.530766
O O3 0.383992 0.359279 0.771649
O O4 0.395794 0.072727 0.678409
O O5 0.720492 0.745558 0.107012
O O6 0.779985 0.659891 0.932247
O O7 0.772192 0.936046 0.012216
O O8 0.369529 0.321898 0.054719
O O9 0.350571 0.064882 0.128744
O O10 0.306603 0.115313 0.910849
O O11 0.214677 0.983407 0.794574
O O12 0.917979 0.674397 0.772420
O O13 0.869996 0.887846 0.866782
O O14 0.967706 0.884371 0.885628
O O15 0.039443 0.420075 0.556474
#
# Coordination Sequence:
#
# PCOD9366036 Si02
#       8
#     8   8   8   8   8   8   4   8
#     4  11  21  43  66 100 139 176 229 279 322 411
#     4  10  19  38  56  89 137 170 223 273 314 382
#     4   9  21  39  61  91 130 175 230 271 329 406
#     4  10  21  37  59  90 132 178 226 269 326 392
#     4  10  23  46  71 100 134 172 228 285 351 419
#     4  11  22  41  64  93 135 186 222 274 344 398
#     4  10  24  44  78 100 138 166 226 310 358 422
#     4  10  23  45  74 100 132 183 226 288 364 410
#
# _framework density 23.297924999999999
#
# number of rings (size 3 to 8) (size 9 to 14) (size 15 to 20)
#    0.800    1.067    2.667    0.800    1.867    3.200 
#    7.200    2.667    0.000    0.000    0.000    0.000 
#    0.000    0.000    0.000    0.000    0.000    0.000 
#
# Total GULP energy -167093.257021 kJ/mol
# GULP energy per Si atom -5569.775234 kJ/mol
# Density = 2.324490 g / cm^3
# Si number density = 23.297925 Si / 1000 Ang^3
#
#
#
# Elastic Constant Matrix: (Units=GPa)
#
#
# Indices 1 2 3 4 5 6 
#
# 1 91.9844 20.6270 -6.6870 0.0000 0.0000 0.0000
# 2 20.6270 118.4669 29.0030 0.0000 0.0000 0.0000
# 3 -6.6870 29.0030 42.8314 0.0000 0.0000 0.0000
# 4 0.0000 0.0000 0.0000 28.2431 0.0000 0.0000
# 5 0.0000 0.0000 0.0000 0.0000 26.2941 0.0000
# 6 0.0000 0.0000 0.0000 0.0000 0.0000 43.1243
#
#
#
# Elastic Compliance Matrix: (Units=1/GPa)
#
#
# Indices 1 2 3 4 5 6 
#
# 1 0.011829 -0.003011 0.003886 0.000000 0.000000 0.000000
# 2 -0.003011 0.010885 -0.007841 0.000000 0.000000 0.000000
# 3 0.003886 -0.007841 0.029263 0.000000 0.000000 0.000000
# 4 0.000000 0.000000 0.000000 0.035407 0.000000 0.000000
# 5 0.000000 0.000000 0.000000 0.000000 0.038031 0.000000
# 6 0.000000 0.000000 0.000000 0.000000 0.000000 0.023189
#
#
# Mechanical properties :
#
#
# Convention : Reuss Voigt Hill
#
# Bulk Modulus (GPa) = 26.28446 37.68541 31.98494
# Shear Modulus (GPa) = 28.53582 33.55495 31.04539
#
# Velocity S-wave (km/s) = 3.50354 3.79919 3.65436
# Velocity P-wave (km/s) = 5.26049 5.95446 5.61820
#
# Compressibility (1/GPa) = 0.03804529
#
# Stress axis : x y z
#
# Youngs Moduli (GPa) = 84.53748 91.86951 34.17242
#
# Poissons Ratio (x) = 0.27661 -0.13278
# Poissons Ratio (y) = 0.25454 0.26794
# Poissons Ratio (z) = -0.32848 0.72033
#
# Static dielectric constant tensor:
#      x y z
#    x 1.886030 0.000000 0.000000 
#    y 0.000000 2.001730 0.000000 
#    z 0.000000 0.000000 1.928980 
# 
# From -- ./inp_files/6641.got.cif
#   From: 2010.05.17/outbox.cif.g08.bks.cpg/sg41_4_cif.got.tgz:6641.got - 2010.06.03 18:54:24.
