data_PCOD9366137
_publ_section_title
;
Structure prediction by ZEFSAII (Michael W. Deem and Ramdas Pophale) SiO2 
 PCOD9366137
Probable space group: A B A 2
;
_chemical_formula_sum "Si O2"
_cell_formula_units_Z 48
_cell_length_a 20.733186
_cell_length_b 18.357887
_cell_length_c 5.396144
_cell_angle_alpha 90.000000
_cell_angle_beta 90.000000
_cell_angle_gamma 90.000000
_cell_volume 2053.866762
_symmetry_space_group_name_H-M "A B A 2"
_symmetry_group_IT_number 41
_symmetry_cell_setting 'orthorhombic'
loop_
_space_group_symop_operation_xyz
x,y,z
-x,-y,z
1/2-x,y,1/2+z
1/2+x,-y,1/2+z
x,1/2+y,1/2+z
-x,1/2-y,1/2+z
1/2-x,1/2+y,z
1/2+x,1/2-y,z
loop_
_atom_site_type_symbol
_atom_site_label
_atom_site_fract_x
_atom_site_fract_y
_atom_site_fract_z
Si Si1 0.049237 0.311523 0.055600
Si Si2 0.905526 0.807984 0.387945
Si Si3 0.592488 0.940552 0.583509
Si Si4 0.942248 0.102226 0.055333
Si Si5 0.218110 0.095627 0.862143
Si Si6 0.730000 0.241374 0.446161
O O1 0.076764 0.232926 0.128434
O O2 0.070181 0.361490 0.288793
O O3 0.067837 0.345402 0.791706
O O4 0.971092 0.305456 0.044618
O O5 0.887825 0.890451 0.317121
O O6 0.843730 0.765138 0.484575
O O7 0.518044 0.919296 0.545127
O O8 0.642142 0.917610 0.371651
O O9 0.594881 0.027233 0.606051
O O10 0.250998 0.065631 0.615989
O O11 0.232323 0.182223 0.893312
O O12 0.759952 0.202342 0.683076
#
# Coordination Sequence:
#
# PCOD9366137 Si02
#       6
#     8   8   8   8   8   8
#     4  11  25  41  60  94 130 173 200 261 331 379
#     4  11  22  41  69  94 130 165 228 266 318 390
#     4  10  21  39  66  90 125 161 218 260 310 380
#     4  10  25  41  59  92 130 171 199 261 328 385
#     4  10  20  34  56  95 117 153 202 276 308 351
#     4  10  21  35  58  98 120 156 205 285 313 356
#
# _framework density 23.370553999999998
#
# number of rings (size 3 to 8) (size 9 to 14) (size 15 to 20)
#    0.000    1.667    3.333    2.000    4.667    9.333 
#    0.000    0.000    0.000    6.000    0.000    0.000 
#    0.000    0.000    0.000    0.000    0.000    0.000 
#
# Total GULP energy -134130.263003 kJ/mol
# GULP energy per Si atom -5588.760958 kJ/mol
# Density = 2.331736 g / cm^3
# Si number density = 23.370554 Si / 1000 Ang^3
#
#
#
# Elastic Constant Matrix: (Units=GPa)
#
#
# Indices 1 2 3 4 5 6 
#
# 1 82.6240 20.5849 34.3680 0.0000 0.0000 0.0000
# 2 20.5849 94.8223 46.2027 0.0000 0.0000 0.0000
# 3 34.3680 46.2027 178.2596 0.0000 0.0000 0.0000
# 4 0.0000 0.0000 0.0000 21.0359 0.0000 0.0000
# 5 0.0000 0.0000 0.0000 0.0000 29.2466 0.0000
# 6 0.0000 0.0000 0.0000 0.0000 0.0000 10.6426
#
#
#
# Elastic Compliance Matrix: (Units=1/GPa)
#
#
# Indices 1 2 3 4 5 6 
#
# 1 0.013450 -0.001896 -0.002102 0.000000 0.000000 0.000000
# 2 -0.001896 0.012338 -0.002832 0.000000 0.000000 0.000000
# 3 -0.002102 -0.002832 0.006749 0.000000 0.000000 0.000000
# 4 0.000000 0.000000 0.000000 0.047538 0.000000 0.000000
# 5 0.000000 0.000000 0.000000 0.000000 0.034192 0.000000
# 6 0.000000 0.000000 0.000000 0.000000 0.000000 0.093962
#
#
# Mechanical properties :
#
#
# Convention : Reuss Voigt Hill
#
# Bulk Modulus (GPa) = 52.97472 62.00191 57.48831
# Shear Modulus (GPa) = 21.91258 29.15503 25.53381
#
# Velocity S-wave (km/s) = 3.06537 3.53584 3.30898
# Velocity P-wave (km/s) = 5.93676 6.57701 6.26507
#
# Compressibility (1/GPa) = 0.01887693
#
# Stress axis : x y z
#
# Youngs Moduli (GPa) = 74.35203 81.05290 148.16812
#
# Poissons Ratio (x) = 0.15365 0.31141
# Poissons Ratio (y) = 0.14095 0.41965
# Poissons Ratio (z) = 0.15627 0.22956
#
# Static dielectric constant tensor:
#      x y z
#    x 1.923580 0.000000 0.000000 
#    y 0.000000 1.876530 0.000000 
#    z 0.000000 0.000000 1.958630 
# 
# From -- ./inp_files/950.got.cif
#   From: 2010.05.17/outbox.cif.g08.bks.cpg/sg41_1_cif.got.tgz:950.got - 2010.06.03 18:54:24.
