data_PCOD9366971
_publ_section_title
;
Structure prediction by ZEFSAII (Michael W. Deem and Ramdas Pophale) SiO2 
 PCOD9366971
Probable space group: A B A 2
;
_chemical_formula_sum "Si O2"
_cell_formula_units_Z 56
_cell_length_a 12.297702
_cell_length_b 12.983119
_cell_length_c 13.925686
_cell_angle_alpha 90.000000
_cell_angle_beta 90.000000
_cell_angle_gamma 90.000000
_cell_volume 2223.410238
_symmetry_space_group_name_H-M "A B A 2"
_symmetry_group_IT_number 41
_symmetry_cell_setting 'orthorhombic'
loop_
_space_group_symop_operation_xyz
x,y,z
-x,-y,z
1/2-x,y,1/2+z
1/2+x,-y,1/2+z
x,1/2+y,1/2+z
-x,1/2-y,1/2+z
1/2-x,1/2+y,z
1/2+x,1/2-y,z
loop_
_atom_site_type_symbol
_atom_site_label
_atom_site_fract_x
_atom_site_fract_y
_atom_site_fract_z
Si Si1 0.126487 0.079905 0.810870
Si Si2 0.088899 0.418176 0.771035
Si Si3 0.076488 0.589063 0.086742
Si Si4 0.413136 0.886723 0.423674
Si Si5 0.322501 0.030021 0.586262
Si Si6 0.562031 0.270617 0.144737
Si Si7 0.224678 0.768106 0.813182
O O1 0.082281 0.083951 0.703469
O O2 0.228578 0.153557 0.812975
O O3 0.035498 0.118066 0.886448
O O4 0.141009 0.963438 0.843892
O O5 0.159064 0.483306 0.692659
O O6 0.173967 0.346120 0.826475
O O7 0.000000 0.500000 0.812193
O O8 0.018244 0.331900 0.715481
O O9 0.199206 0.558358 0.058466
O O10 0.000000 0.500000 0.048124
O O11 0.010068 0.695874 0.078337
O O12 0.354044 0.780806 0.403788
O O13 0.381095 0.944596 0.520224
O O14 0.382011 0.139442 0.584445
O O15 0.655203 0.219648 0.213417
#
# Coordination Sequence:
#
# PCOD9366971 Si02
#       7
#     8   8   8   8   8   8   8
#     4  11  22  42  71 102 136 189 244 296 373 449
#     4  10  22  37  65  94 131 173 234 293 347 440
#     4  12  21  43  73 101 135 189 252 307 355 459
#     4  11  25  44  67 101 147 187 229 306 384 443
#     4  11  25  43  67 104 147 187 237 304 392 435
#     4  11  21  39  72 102 130 180 248 299 354 443
#     4  12  21  44  71 102 132 186 247 300 360 447
#
# _framework density 25.186537000000001
#
# number of rings (size 3 to 8) (size 9 to 14) (size 15 to 20)
#    0.000    0.857    5.714    1.714    8.000    0.000 
#    7.714    0.714    0.000    0.000    0.000    0.000 
#    0.000    0.000    0.000    0.000    0.000    0.000 
#
# Total GULP energy -156519.647056 kJ/mol
# GULP energy per Si atom -5589.987395 kJ/mol
# Density = 2.512921 g / cm^3
# Si number density = 25.186537 Si / 1000 Ang^3
#
#
#
# Elastic Constant Matrix: (Units=GPa)
#
#
# Indices 1 2 3 4 5 6 
#
# 1 148.3628 28.5292 13.2580 0.0000 0.0000 0.0000
# 2 28.5292 68.9864 2.0058 0.0000 0.0000 0.0000
# 3 13.2580 2.0058 68.9791 0.0000 0.0000 0.0000
# 4 0.0000 0.0000 0.0000 17.7049 0.0000 0.0000
# 5 0.0000 0.0000 0.0000 0.0000 18.0254 0.0000
# 6 0.0000 0.0000 0.0000 0.0000 0.0000 58.5556
#
#
#
# Elastic Compliance Matrix: (Units=1/GPa)
#
#
# Indices 1 2 3 4 5 6 
#
# 1 0.007445 -0.003040 -0.001343 0.000000 0.000000 0.000000
# 2 -0.003040 0.015749 0.000126 0.000000 0.000000 0.000000
# 3 -0.001343 0.000126 0.014751 0.000000 0.000000 0.000000
# 4 0.000000 0.000000 0.000000 0.056481 0.000000 0.000000
# 5 0.000000 0.000000 0.000000 0.000000 0.055477 0.000000
# 6 0.000000 0.000000 0.000000 0.000000 0.000000 0.017078
#
#
# Mechanical properties :
#
#
# Convention : Reuss Voigt Hill
#
# Bulk Modulus (GPa) = 33.97504 41.54602 37.76053
# Shear Modulus (GPa) = 26.98257 35.02621 31.00439
#
# Velocity S-wave (km/s) = 3.27664 3.73322 3.51235
# Velocity P-wave (km/s) = 5.27577 5.92568 5.61015
#
# Compressibility (1/GPa) = 0.02943337
#
# Stress axis : x y z
#
# Youngs Moduli (GPa) = 134.32339 63.49605 67.78973
#
# Poissons Ratio (x) = 0.19301 0.09101
# Poissons Ratio (y) = 0.40831 -0.00856
# Poissons Ratio (z) = 0.18033 -0.00802
#
# Static dielectric constant tensor:
#      x y z
#    x 2.086450 0.000000 0.000000 
#    y 0.000000 2.064690 0.000000 
#    z 0.000000 0.000000 1.993800 
# 
# From -- ./inp_files/7945.got.cif
#   From: 2010.05.17/outbox.cif.g08.bks.cpg/sg41_4_cif.got.tgz:7945.got - 2010.06.03 18:54:24.
