data_PCOD9366383
_publ_section_title
;
Structure prediction by ZEFSAII (Michael W. Deem and Ramdas Pophale) SiO2 
 PCOD9366383
Probable space group: A B A 2
;
_chemical_formula_sum "Si O2"
_cell_formula_units_Z 64
_cell_length_a 23.984355
_cell_length_b 13.874084
_cell_length_c 9.072131
_cell_angle_alpha 90.000000
_cell_angle_beta 90.000000
_cell_angle_gamma 90.000000
_cell_volume 3018.850984
_symmetry_space_group_name_H-M "A B A 2"
_symmetry_group_IT_number 41
_symmetry_cell_setting 'orthorhombic'
loop_
_space_group_symop_operation_xyz
x,y,z
-x,-y,z
1/2-x,y,1/2+z
1/2+x,-y,1/2+z
x,1/2+y,1/2+z
-x,1/2-y,1/2+z
1/2-x,1/2+y,z
1/2+x,1/2-y,z
loop_
_atom_site_type_symbol
_atom_site_label
_atom_site_fract_x
_atom_site_fract_y
_atom_site_fract_z
Si Si1 0.018521 0.153820 0.204900
Si Si2 0.443493 0.261684 0.431400
Si Si3 0.161503 0.880824 0.339359
Si Si4 0.770895 0.713264 0.281395
Si Si5 0.121866 0.579057 0.343854
Si Si6 0.584463 0.030115 0.619555
Si Si7 0.695721 0.517814 0.633433
Si Si8 0.730065 0.346771 0.022336
O O1 0.999336 0.197064 0.358818
O O2 0.960907 0.114817 0.131295
O O3 0.058244 0.061167 0.205457
O O4 0.046494 0.230842 0.098069
O O5 0.393993 0.337121 0.410809
O O6 0.420992 0.167621 0.343987
O O7 0.203936 0.801872 0.276954
O O8 0.140972 0.942881 0.202026
O O9 0.191186 0.936158 0.471862
O O10 0.792042 0.603580 0.252289
O O11 0.774010 0.781829 0.426080
O O12 0.793548 0.773742 0.144407
O O13 0.095350 0.500696 0.453267
O O14 0.139784 0.534223 0.189445
O O15 0.179751 0.613301 0.422421
O O16 0.741186 0.433812 0.611275
#
# Coordination Sequence:
#
# PCOD9366383 Si02
#       8
#     8   8   8   8   8   8   8   8
#     4   9  20  38  60  87 110 150 194 249 312 377
#     4  10  20  40  62  84 120 148 200 248 310 368
#     4  11  22  40  60  88 122 160 201 256 295 367
#     4  12  24  41  61  88 126 169 209 251 303 357
#     4  11  22  40  60  88 122 160 201 256 295 367
#     4   9  21  38  61  82 114 156 197 244 319 361
#     4  12  25  40  59  93 128 163 215 248 309 360
#     4  12  24  41  61  88 126 169 209 251 303 357
#
# _framework density 21.200119000000001
#
# number of rings (size 3 to 8) (size 9 to 14) (size 15 to 20)
#    0.000    1.250    3.750    1.500    3.500    2.000 
#    0.000    0.000    0.000    0.000    0.000    0.000 
#    0.000    0.000    0.000    0.000    0.000    0.000 
#
# Total GULP energy -178580.579742 kJ/mol
# GULP energy per Si atom -5580.643117 kJ/mol
# Density = 2.115187 g / cm^3
# Si number density = 21.200119 Si / 1000 Ang^3
#
#
#
# Elastic Constant Matrix: (Units=GPa)
#
#
# Indices 1 2 3 4 5 6 
#
# 1 23.4859 5.4713 -9.1533 0.0000 0.0000 0.0000
# 2 5.4713 55.8602 5.1918 0.0000 0.0000 0.0000
# 3 -9.1533 5.1918 18.1361 0.0000 0.0000 0.0000
# 4 0.0000 0.0000 0.0000 19.6809 0.0000 0.0000
# 5 0.0000 0.0000 0.0000 0.0000 31.8225 0.0000
# 6 0.0000 0.0000 0.0000 0.0000 0.0000 8.4726
#
#
#
# Elastic Compliance Matrix: (Units=1/GPa)
#
#
# Indices 1 2 3 4 5 6 
#
# 1 0.056619 -0.008426 0.030988 0.000000 0.000000 0.000000
# 2 -0.008426 0.019645 -0.009876 0.000000 0.000000 0.000000
# 3 0.030988 -0.009876 0.073606 0.000000 0.000000 0.000000
# 4 0.000000 0.000000 0.000000 0.050811 0.000000 0.000000
# 5 0.000000 0.000000 0.000000 0.000000 0.031424 0.000000
# 6 0.000000 0.000000 0.000000 0.000000 0.000000 0.118028
#
#
# Mechanical properties :
#
#
# Convention : Reuss Voigt Hill
#
# Bulk Modulus (GPa) = 5.70644 11.16686 8.43665
# Shear Modulus (GPa) = 13.04891 18.39336 15.72113
#
# Velocity S-wave (km/s) = 2.48364 2.94871 2.72611
# Velocity P-wave (km/s) = 3.30487 4.10755 3.72788
#
# Compressibility (1/GPa) = 0.17524062
#
# Stress axis : x y z
#
# Youngs Moduli (GPa) = 17.66202 50.90351 13.58594
#
# Poissons Ratio (x) = 0.42890 -0.42100
# Poissons Ratio (y) = 0.14881 0.13418
# Poissons Ratio (z) = -0.54730 0.50273
#
# Static dielectric constant tensor:
#      x y z
#    x 1.757870 0.000000 0.000000 
#    y 0.000000 1.788800 0.000000 
#    z 0.000000 0.000000 1.738890 
# 
# From -- ./inp_files/3700.got.cif
#   From: 2010.05.17/outbox.cif.g08.bks.cpg/sg41_2_cif.got.tgz:3700.got - 2010.06.03 18:54:24.
