data_PCOD9366108
_publ_section_title
;
Structure prediction by ZEFSAII (Michael W. Deem and Ramdas Pophale) SiO2 
 PCOD9366108
Probable space group: A B A 2
;
_chemical_formula_sum "Si O2"
_cell_formula_units_Z 56
_cell_length_a 10.168967
_cell_length_b 21.586616
_cell_length_c 10.727029
_cell_angle_alpha 90.000000
_cell_angle_beta 90.000000
_cell_angle_gamma 90.000000
_cell_volume 2354.728600
_symmetry_space_group_name_H-M "A B A 2"
_symmetry_group_IT_number 41
_symmetry_cell_setting 'orthorhombic'
loop_
_space_group_symop_operation_xyz
x,y,z
-x,-y,z
1/2-x,y,1/2+z
1/2+x,-y,1/2+z
x,1/2+y,1/2+z
-x,1/2-y,1/2+z
1/2-x,1/2+y,z
1/2+x,1/2-y,z
loop_
_atom_site_type_symbol
_atom_site_label
_atom_site_fract_x
_atom_site_fract_y
_atom_site_fract_z
Si Si1 0.378787 0.596508 0.895610
Si Si2 0.170389 0.672085 0.181999
Si Si3 0.501878 0.766500 0.812618
Si Si4 0.251657 0.769854 0.487033
Si Si5 0.257242 0.040670 0.105868
Si Si6 0.500000 0.500000 0.180153
Si Si7 0.564647 0.635370 0.103575
Si Si8 0.000000 0.500000 0.218391
O O1 0.289093 0.641950 0.814758
O O2 0.475238 0.560109 0.802772
O O3 0.312436 0.541250 0.973132
O O4 0.458190 0.637390 0.993000
O O5 0.038168 0.708570 0.222099
O O6 0.174453 0.608916 0.103078
O O7 0.250105 0.721978 0.102983
O O8 0.383899 0.774529 0.913117
O O9 0.633874 0.751554 0.889202
O O10 0.488568 0.826203 0.722102
O O11 0.304454 0.833058 0.550301
O O12 0.140673 0.034551 0.209175
O O13 0.371365 0.993452 0.134624
O O14 0.571490 0.562166 0.128135
#
# Coordination Sequence:
#
# PCOD9366108 Si02
#       8
#     8   8   8   8   8   4   8   4
#     4  10  19  42  70 101 148 193 246 319 380 454
#     4  10  22  40  75 100 143 190 249 303 394 457
#     4  11  25  44  74 106 147 186 256 320 382 471
#     4  11  25  44  71 110 140 196 245 321 388 467
#     4  10  22  43  72 107 146 204 256 313 388 465
#     4  10  23  44  75 100 150 199 248 305 382 460
#     4  10  23  43  71 103 145 191 245 315 384 441
#     4  10  23  42  73 108 146 203 266 323 376 460
#
# _framework density 23.781932999999999
#
# number of rings (size 3 to 8) (size 9 to 14) (size 15 to 20)
#    0.000    1.714    1.429    2.571    6.000    4.571 
#    5.143    2.857    0.000    0.000    0.000    0.000 
#    0.000    0.000    0.000    0.000    0.000    0.000 
#
# Total GULP energy -155922.424499 kJ/mol
# GULP energy per Si atom -5568.658018 kJ/mol
# Density = 2.372780 g / cm^3
# Si number density = 23.781933 Si / 1000 Ang^3
#
#
#
# Elastic Constant Matrix: (Units=GPa)
#
#
# Indices 1 2 3 4 5 6 
#
# 1 108.9453 28.7343 17.8528 0.0000 0.0000 0.0000
# 2 28.7343 149.4696 33.4399 0.0000 0.0000 0.0000
# 3 17.8528 33.4399 71.5590 0.0000 0.0000 0.0000
# 4 0.0000 0.0000 0.0000 38.6534 0.0000 0.0000
# 5 0.0000 0.0000 0.0000 0.0000 20.6339 0.0000
# 6 0.0000 0.0000 0.0000 0.0000 0.0000 39.5303
#
#
#
# Elastic Compliance Matrix: (Units=1/GPa)
#
#
# Indices 1 2 3 4 5 6 
#
# 1 0.009863 -0.001503 -0.001759 0.000000 0.000000 0.000000
# 2 -0.001503 0.007700 -0.003224 0.000000 0.000000 0.000000
# 3 -0.001759 -0.003224 0.015920 0.000000 0.000000 0.000000
# 4 0.000000 0.000000 0.000000 0.025871 0.000000 0.000000
# 5 0.000000 0.000000 0.000000 0.000000 0.048464 0.000000
# 6 0.000000 0.000000 0.000000 0.000000 0.000000 0.025297
#
#
# Mechanical properties :
#
#
# Convention : Reuss Voigt Hill
#
# Bulk Modulus (GPa) = 48.74762 54.44755 51.59758
# Shear Modulus (GPa) = 32.69620 36.42664 34.56142
#
# Velocity S-wave (km/s) = 3.71190 3.91793 3.81631
# Velocity P-wave (km/s) = 6.23804 6.58871 6.41577
#
# Compressibility (1/GPa) = 0.02051382
#
# Stress axis : x y z
#
# Youngs Moduli (GPa) = 101.38455 129.86350 62.81574
#
# Poissons Ratio (x) = 0.19515 0.11046
# Poissons Ratio (y) = 0.15235 0.20249
# Poissons Ratio (z) = 0.17829 0.41862
#
# Static dielectric constant tensor:
#      x y z
#    x 1.988280 0.000000 0.000000 
#    y 0.000000 1.950640 0.000000 
#    z 0.000000 0.000000 1.969600 
# 
# From -- ./inp_files/5174.got.cif
#   From: 2010.05.17/outbox.cif.g08.bks.cpg/sg41_3_cif.got.tgz:5174.got - 2010.06.03 18:54:24.
