data_PCOD9366042
_publ_section_title
;
Structure prediction by ZEFSAII (Michael W. Deem and Ramdas Pophale) SiO2 
 PCOD9366042
Probable space group: A B A 2
;
_chemical_formula_sum "Si O2"
_cell_formula_units_Z 56
_cell_length_a 19.683380
_cell_length_b 10.886276
_cell_length_c 8.429792
_cell_angle_alpha 90.000000
_cell_angle_beta 90.000000
_cell_angle_gamma 90.000000
_cell_volume 1806.324933
_symmetry_space_group_name_H-M "A B A 2"
_symmetry_group_IT_number 41
_symmetry_cell_setting 'orthorhombic'
loop_
_space_group_symop_operation_xyz
x,y,z
-x,-y,z
1/2-x,y,1/2+z
1/2+x,-y,1/2+z
x,1/2+y,1/2+z
-x,1/2-y,1/2+z
1/2-x,1/2+y,z
1/2+x,1/2-y,z
loop_
_atom_site_type_symbol
_atom_site_label
_atom_site_fract_x
_atom_site_fract_y
_atom_site_fract_z
Si Si1 0.263082 0.374247 0.868130
Si Si2 0.897755 0.611984 0.538331
Si Si3 0.022834 0.195233 0.853467
Si Si4 0.121731 0.635718 0.103939
Si Si5 0.731528 0.302202 0.116251
Si Si6 0.093538 0.131034 0.285689
Si Si7 0.888415 0.597971 0.856376
O O1 0.328925 0.433710 0.950157
O O2 0.271796 0.337685 0.686031
O O3 0.190927 0.437434 0.876696
O O4 0.242683 0.236887 0.934575
O O5 0.878302 0.701293 0.692793
O O6 0.916462 0.512194 0.696812
O O7 0.970063 0.618507 0.454680
O O8 0.066856 0.108507 0.740248
O O9 0.070420 0.294680 0.947175
O O10 0.976258 0.294566 0.756828
O O11 0.201079 0.616063 0.145314
O O12 0.116636 0.727638 0.943601
O O13 0.660185 0.347726 0.177124
O O14 0.090569 0.034628 0.457603
#
# Coordination Sequence:
#
# PCOD9366042 Si02
#       7
#     8   8   8   8   8   8   8
#     4  11  19  39  65  92 122 167 217 251 300 382
#     4   9  19  37  61  89 123 161 218 244 297 390
#     4  10  19  38  62  82 123 174 208 252 293 386
#     4   9  19  37  61  89 123 161 218 244 297 390
#     4  11  19  39  65  92 122 167 217 251 300 382
#     4  11  23  39  63  97 131 157 201 273 320 356
#     4  11  23  39  63  97 131 157 201 273 320 356
#
# _framework density 31.002172000000002
#
# number of rings (size 3 to 8) (size 9 to 14) (size 15 to 20)
#    0.000    1.714    8.571    0.429    0.000    4.571 
#    0.000    0.000    0.000    3.429    0.000    0.000 
#    0.000    0.000    0.000    0.000    0.000    0.000 
#
# Total GULP energy -155898.375281 kJ/mol
# GULP energy per Si atom -5567.799117 kJ/mol
# Density = 3.093161 g / cm^3
# Si number density = 31.002172 Si / 1000 Ang^3
#
#
#
# Elastic Constant Matrix: (Units=GPa)
#
#
# Indices 1 2 3 4 5 6 
#
# 1 200.7742 71.2618 95.9557 0.0000 0.0000 0.0000
# 2 71.2618 134.4437 62.6516 0.0000 0.0000 0.0000
# 3 95.9557 62.6516 155.0865 0.0000 0.0000 0.0000
# 4 0.0000 0.0000 0.0000 47.1601 0.0000 0.0000
# 5 0.0000 0.0000 0.0000 0.0000 67.0387 0.0000
# 6 0.0000 0.0000 0.0000 0.0000 0.0000 47.8670
#
#
#
# Elastic Compliance Matrix: (Units=1/GPa)
#
#
# Indices 1 2 3 4 5 6 
#
# 1 0.007591 -0.002261 -0.003784 0.000000 0.000000 0.000000
# 2 -0.002261 0.009836 -0.002575 0.000000 0.000000 0.000000
# 3 -0.003784 -0.002575 0.009829 0.000000 0.000000 0.000000
# 4 0.000000 0.000000 0.000000 0.021204 0.000000 0.000000
# 5 0.000000 0.000000 0.000000 0.000000 0.014917 0.000000
# 6 0.000000 0.000000 0.000000 0.000000 0.000000 0.020891
#
#
# Mechanical properties :
#
#
# Convention : Reuss Voigt Hill
#
# Bulk Modulus (GPa) = 99.81631 105.56029 102.68830
# Shear Modulus (GPa) = 47.68833 49.77552 48.73192
#
# Velocity S-wave (km/s) = 3.92628 4.01128 3.96900
# Velocity P-wave (km/s) = 7.26778 7.45500 7.36199
#
# Compressibility (1/GPa) = 0.01001840
#
# Stress axis : x y z
#
# Youngs Moduli (GPa) = 131.72706 101.66512 101.73606
#
# Poissons Ratio (x) = 0.22982 0.38495
# Poissons Ratio (y) = 0.29778 0.26197
# Poissons Ratio (z) = 0.49843 0.26178
#
# Static dielectric constant tensor:
#      x y z
#    x 2.341940 0.000000 0.000000 
#    y 0.000000 3.447840 0.000000 
#    z 0.000000 0.000000 2.798880 
# 
# From -- ./inp_files/3431.got.cif
#   From: 2010.05.17/outbox.cif.g08.bks.cpg/sg41_2_cif.got.tgz:3431.got - 2010.06.03 18:54:24.
