data_PCOD9366567
_publ_section_title
;
Structure prediction by ZEFSAII (Michael W. Deem and Ramdas Pophale) SiO2 
 PCOD9366567
Probable space group: A B A 2
;
_chemical_formula_sum "Si O2"
_cell_formula_units_Z 64
_cell_length_a 21.324303
_cell_length_b 12.856855
_cell_length_c 12.534650
_cell_angle_alpha 90.000000
_cell_angle_beta 90.000000
_cell_angle_gamma 90.000000
_cell_volume 3436.543160
_symmetry_space_group_name_H-M "A B A 2"
_symmetry_group_IT_number 41
_symmetry_cell_setting 'orthorhombic'
loop_
_space_group_symop_operation_xyz
x,y,z
-x,-y,z
1/2-x,y,1/2+z
1/2+x,-y,1/2+z
x,1/2+y,1/2+z
-x,1/2-y,1/2+z
1/2-x,1/2+y,z
1/2+x,1/2-y,z
loop_
_atom_site_type_symbol
_atom_site_label
_atom_site_fract_x
_atom_site_fract_y
_atom_site_fract_z
Si Si1 0.691483 0.726840 0.147050
Si Si2 0.443042 0.575345 0.968340
Si Si3 0.450995 0.660715 0.206496
Si Si4 0.431825 0.992990 0.897556
Si Si5 0.184013 0.685827 0.729101
Si Si6 0.076731 0.264127 0.806183
Si Si7 0.685625 0.998026 0.552850
Si Si8 0.690908 0.901873 0.965657
O O1 0.760730 0.737374 0.196682
O O2 0.637530 0.751632 0.232817
O O3 0.682370 0.611573 0.102813
O O4 0.688748 0.810134 0.051818
O O5 0.500000 0.500000 0.935911
O O6 0.433648 0.671765 0.889392
O O7 0.457875 0.616909 0.087709
O O8 0.375914 0.518996 0.980944
O O9 0.440245 0.565685 0.291171
O O10 0.387054 0.726802 0.218031
O O11 0.513360 0.721492 0.237794
O O12 0.374851 0.037798 0.965050
O O13 0.500000 0.000000 0.951677
O O14 0.416619 0.875520 0.864729
O O15 0.184674 0.587777 0.647664
O O16 0.196807 0.646259 0.847931
O O17 0.749973 0.975455 0.490400
#
# Coordination Sequence:
#
# PCOD9366567 Si02
#       8
#     8   8   8   8   8   8   8   8
#     4  11  22  37  58  85 115 149 188 231 282 337
#     4  11  22  38  58  82 112 148 190 232 278 334
#     4   9  19  38  60  81 109 146 190 230 273 339
#     4   9  19  37  59  84 114 151 189 226 273 336
#     4   9  20  38  55  81 114 144 189 236 275 330
#     4  11  22  37  59  85 114 150 187 230 283 336
#     4  10  22  38  58  81 113 153 187 226 278 339
#     4  10  21  37  59  87 113 143 189 239 279 323
#
# _framework density 18.623366000000001
#
# number of rings (size 3 to 8) (size 9 to 14) (size 15 to 20)
#    0.000    2.000    0.000    4.875    0.000   11.000 
#    0.000    4.375    0.000    0.000    0.000    0.000 
#    0.000    0.000    0.000    0.000    0.000    0.000 
#
# Total GULP energy -178643.573108 kJ/mol
# GULP energy per Si atom -5582.611660 kJ/mol
# Density = 1.858098 g / cm^3
# Si number density = 18.623366 Si / 1000 Ang^3
#
#
#
# Elastic Constant Matrix: (Units=GPa)
#
#
# Indices 1 2 3 4 5 6 
#
# 1 110.7604 38.8152 -7.9454 0.0000 0.0000 0.0000
# 2 38.8152 72.2381 10.3271 0.0000 0.0000 0.0000
# 3 -7.9454 10.3271 -2.7277 0.0000 0.0000 0.0000
# 4 0.0000 0.0000 0.0000 9.4738 0.0000 0.0000
# 5 0.0000 0.0000 0.0000 0.0000 31.0134 0.0000
# 6 0.0000 0.0000 0.0000 0.0000 0.0000 28.8343
#
#
#
# Elastic Compliance Matrix: (Units=1/GPa)
#
#
# Indices 1 2 3 4 5 6 
#
# 1 0.007506 -0.000589 -0.024094 0.000000 0.000000 0.000000
# 2 -0.000589 0.009028 0.035895 0.000000 0.000000 0.000000
# 3 -0.024094 0.035895 -0.160525 0.000000 0.000000 0.000000
# 4 0.000000 0.000000 0.000000 0.105554 0.000000 0.000000
# 5 0.000000 0.000000 0.000000 0.000000 0.032244 0.000000
# 6 0.000000 0.000000 0.000000 0.000000 0.000000 0.034681
#
#
# Mechanical properties :
#
#
# Convention : Reuss Voigt Hill
#
# Bulk Modulus (GPa) = -8.22594 29.18496 10.47951
# Shear Modulus (GPa) = -145.11070 23.13590 -60.98740
#
# Velocity S-wave (km/s) = -8.83673 3.52846 -5.72878
# Velocity P-wave (km/s) = 10.41843 5.68377 6.17408
#
# Compressibility (1/GPa) = -0.12156670
#
# Stress axis : x y z
#
# Youngs Moduli (GPa) = 133.21884 110.76637 -6.22958
#
# Poissons Ratio (x) = 0.06523 -0.15010
# Poissons Ratio (y) = 0.07845 0.22361
# Poissons Ratio (z) = 3.20983 -3.97595
#
# Static dielectric constant tensor:
#      x y z
#    x 1.675170 0.000000 0.000000 
#    y 0.000000 1.617920 0.000000 
#    z 0.000000 0.000000 1.628410 
# 
# From -- ./inp_files/6482.got.cif
#   From: 2010.05.17/outbox.cif.g08.bks.cpg/sg41_4_cif.got.tgz:6482.got - 2010.06.03 18:54:24.
