data_PCOD9366257
_publ_section_title
;
Structure prediction by ZEFSAII (Michael W. Deem and Ramdas Pophale) SiO2 
 PCOD9366257
Probable space group: A B A 2
;
_chemical_formula_sum "Si O2"
_cell_formula_units_Z 52
_cell_length_a 23.537905
_cell_length_b 16.042307
_cell_length_c 5.198242
_cell_angle_alpha 90.000000
_cell_angle_beta 90.000000
_cell_angle_gamma 90.000000
_cell_volume 1962.868126
_symmetry_space_group_name_H-M "A B A 2"
_symmetry_group_IT_number 41
_symmetry_cell_setting 'orthorhombic'
loop_
_space_group_symop_operation_xyz
x,y,z
-x,-y,z
1/2-x,y,1/2+z
1/2+x,-y,1/2+z
x,1/2+y,1/2+z
-x,1/2-y,1/2+z
1/2-x,1/2+y,z
1/2+x,1/2-y,z
loop_
_atom_site_type_symbol
_atom_site_label
_atom_site_fract_x
_atom_site_fract_y
_atom_site_fract_z
Si Si1 0.095038 0.219426 0.467970
Si Si2 0.281126 0.319322 0.239127
Si Si3 0.616215 0.641145 0.597273
Si Si4 0.382679 0.542937 0.487497
Si Si5 0.512797 0.166580 0.747027
Si Si6 0.000000 0.000000 0.237198
Si Si7 0.219189 0.518243 0.648392
O O1 0.124511 0.299746 0.342405
O O2 0.125171 0.138002 0.583150
O O3 0.045415 0.254006 0.646403
O O4 0.053907 0.184724 0.242019
O O5 0.258585 0.283417 0.968916
O O6 0.343598 0.319874 0.371900
O O7 0.273952 0.418101 0.172464
O O8 0.633162 0.543524 0.634818
O O9 0.551391 0.643718 0.496453
O O10 0.448369 0.531090 0.413627
O O11 0.344523 0.538805 0.230283
O O12 0.520246 0.081045 0.583765
O O13 0.259443 0.550792 0.877741
#
# Coordination Sequence:
#
# PCOD9366257 Si02
#       7
#     8   8   8   8   8   4   8
#     4  11  21  39  59  89 127 163 210 267 326 398
#     4   9  19  35  60  90 121 162 215 272 330 393
#     4  10  21  39  61  84 120 168 206 262 331 393
#     4   9  20  40  62  90 125 166 216 273 330 403
#     4  10  20  38  57  86 124 160 209 259 320 399
#     4   8  18  38  60  86 128 162 210 268 326 404
#     4   9  18  38  63  90 126 169 222 277 334 401
#
# _framework density 26.491845999999999
#
# number of rings (size 3 to 8) (size 9 to 14) (size 15 to 20)
#    0.000    2.462    1.538    0.000    2.154    0.000 
#   13.846    1.538    0.000    0.000    0.000    0.000 
#    0.000    0.000    0.000    0.000    0.000    0.000 
#
# Total GULP energy -144912.675764 kJ/mol
# GULP energy per Si atom -5573.564452 kJ/mol
# Density = 2.643155 g / cm^3
# Si number density = 26.491846 Si / 1000 Ang^3
#
#
#
# Elastic Constant Matrix: (Units=GPa)
#
#
# Indices 1 2 3 4 5 6 
#
# 1 123.3166 -9.8165 8.7872 0.0000 0.0000 0.0000
# 2 -9.8165 140.5416 15.2487 0.0000 0.0000 0.0000
# 3 8.7872 15.2487 42.9285 0.0000 0.0000 0.0000
# 4 0.0000 0.0000 0.0000 12.5304 0.0000 0.0000
# 5 0.0000 0.0000 0.0000 0.0000 7.4798 0.0000
# 6 0.0000 0.0000 0.0000 0.0000 0.0000 19.3714
#
#
#
# Elastic Compliance Matrix: (Units=1/GPa)
#
#
# Indices 1 2 3 4 5 6 
#
# 1 0.008314 0.000796 -0.001985 0.000000 0.000000 0.000000
# 2 0.000796 0.007477 -0.002819 0.000000 0.000000 0.000000
# 3 -0.001985 -0.002819 0.024702 0.000000 0.000000 0.000000
# 4 0.000000 0.000000 0.000000 0.079806 0.000000 0.000000
# 5 0.000000 0.000000 0.000000 0.000000 0.133694 0.000000
# 6 0.000000 0.000000 0.000000 0.000000 0.000000 0.051622
#
#
# Mechanical properties :
#
#
# Convention : Reuss Voigt Hill
#
# Bulk Modulus (GPa) = 30.78991 37.24728 34.01859
# Shear Modulus (GPa) = 15.41042 27.38081 21.39561
#
# Velocity S-wave (km/s) = 2.41447 3.21838 2.84497
# Velocity P-wave (km/s) = 4.40687 5.28215 4.86424
#
# Compressibility (1/GPa) = 0.03247817
#
# Stress axis : x y z
#
# Youngs Moduli (GPa) = 120.27920 133.74763 40.48246
#
# Poissons Ratio (x) = -0.10647 0.08034
# Poissons Ratio (y) = -0.09575 0.11411
# Poissons Ratio (z) = 0.23870 0.37701
#
# Static dielectric constant tensor:
#      x y z
#    x 2.257410 0.000000 0.000000 
#    y 0.000000 2.225540 0.000000 
#    z 0.000000 0.000000 2.180030 
# 
# From -- ./inp_files/1151.got.cif
#   From: 2010.05.17/outbox.cif.g08.bks.cpg/sg41_1_cif.got.tgz:1151.got - 2010.06.03 18:54:24.
