data_PCOD9366699
_publ_section_title
;
Structure prediction by ZEFSAII (Michael W. Deem and Ramdas Pophale) SiO2 
 PCOD9366699
Probable space group: A B A 2
;
_chemical_formula_sum "Si O2"
_cell_formula_units_Z 40
_cell_length_a 9.864832
_cell_length_b 12.111012
_cell_length_c 14.629715
_cell_angle_alpha 90.000000
_cell_angle_beta 90.000000
_cell_angle_gamma 90.000000
_cell_volume 1747.857385
_symmetry_space_group_name_H-M "A B A 2"
_symmetry_group_IT_number 41
_symmetry_cell_setting 'orthorhombic'
loop_
_space_group_symop_operation_xyz
x,y,z
-x,-y,z
1/2-x,y,1/2+z
1/2+x,-y,1/2+z
x,1/2+y,1/2+z
-x,1/2-y,1/2+z
1/2-x,1/2+y,z
1/2+x,1/2-y,z
loop_
_atom_site_type_symbol
_atom_site_label
_atom_site_fract_x
_atom_site_fract_y
_atom_site_fract_z
Si Si1 0.070712 0.691100 0.742620
Si Si2 0.064924 0.855400 0.062583
Si Si3 0.490359 0.162290 0.939871
Si Si4 0.354194 0.663236 0.686925
Si Si5 0.803282 0.496071 0.031387
O O1 0.003313 0.811389 0.725753
O O2 0.993422 0.648858 0.831975
O O3 0.230651 0.681689 0.755845
O O4 0.961891 0.371073 0.647307
O O5 0.162989 0.765166 0.114180
O O6 0.008240 0.786656 0.977180
O O7 0.151875 0.958545 0.030537
O O8 0.601057 0.095683 0.997937
O O9 0.347559 0.103651 0.965273
O O10 0.339903 0.550583 0.631512
#
# Coordination Sequence:
#
# PCOD9366699 Si02
#       5
#     8   8   8   8   8
#     4  10  22  42  68  98 140 182 235 282 350 413
#     4   9  21  38  69  91 143 177 230 282 351 401
#     4  10  22  39  67 103 137 184 228 293 351 411
#     4   9  22  41  66  98 133 187 226 285 343 418
#     4  10  21  39  65  96 137 179 229 277 356 412
#
# _framework density 22.885162000000001
#
# number of rings (size 3 to 8) (size 9 to 14) (size 15 to 20)
#    1.200    1.200    0.000    1.200    5.600    4.000 
#    0.000    2.000    0.000    0.000    0.000    0.000 
#    0.000    0.000    0.000    0.000    0.000    0.000 
#
# Total GULP energy -111378.579536 kJ/mol
# GULP energy per Si atom -5568.928977 kJ/mol
# Density = 2.283307 g / cm^3
# Si number density = 22.885162 Si / 1000 Ang^3
#
#
#
# Elastic Constant Matrix: (Units=GPa)
#
#
# Indices 1 2 3 4 5 6 
#
# 1 61.5761 13.6360 25.1800 0.0000 0.0000 0.0000
# 2 13.6360 64.1944 29.7052 0.0000 0.0000 0.0000
# 3 25.1800 29.7052 74.5429 0.0000 0.0000 0.0000
# 4 0.0000 0.0000 0.0000 12.0266 0.0000 0.0000
# 5 0.0000 0.0000 0.0000 0.0000 22.3633 0.0000
# 6 0.0000 0.0000 0.0000 0.0000 0.0000 39.3144
#
#
#
# Elastic Compliance Matrix: (Units=1/GPa)
#
#
# Indices 1 2 3 4 5 6 
#
# 1 0.018931 -0.001302 -0.005876 0.000000 0.000000 0.000000
# 2 -0.001302 0.019189 -0.007207 0.000000 0.000000 0.000000
# 3 -0.005876 -0.007207 0.018272 0.000000 0.000000 0.000000
# 4 0.000000 0.000000 0.000000 0.083149 0.000000 0.000000
# 5 0.000000 0.000000 0.000000 0.000000 0.044716 0.000000
# 6 0.000000 0.000000 0.000000 0.000000 0.000000 0.025436
#
#
# Mechanical properties :
#
#
# Convention : Reuss Voigt Hill
#
# Bulk Modulus (GPa) = 36.20291 37.48396 36.84344
# Shear Modulus (GPa) = 20.18806 23.52702 21.85754
#
# Velocity S-wave (km/s) = 2.97332 3.20980 3.09382
# Velocity P-wave (km/s) = 5.25749 5.49106 5.37555
#
# Compressibility (1/GPa) = 0.02762209
#
# Stress axis : x y z
#
# Youngs Moduli (GPa) = 52.82274 52.11246 54.72896
#
# Poissons Ratio (x) = 0.06787 0.32158
# Poissons Ratio (y) = 0.06879 0.39443
# Poissons Ratio (z) = 0.31038 0.37557
#
# Static dielectric constant tensor:
#      x y z
#    x 1.944410 0.000000 0.000000 
#    y 0.000000 1.886550 0.000000 
#    z 0.000000 0.000000 1.826300 
# 
# From -- ./inp_files/8272.got.cif
#   From: 2010.05.17/outbox.cif.g08.bks.cpg/sg41_5_cif.got.tgz:8272.got - 2010.06.03 18:54:24.
