data_PCOD9366521
_publ_section_title
;
Structure prediction by ZEFSAII (Michael W. Deem and Ramdas Pophale) SiO2 
 PCOD9366521
Probable space group: A B A 2
;
_chemical_formula_sum "Si O2"
_cell_formula_units_Z 44
_cell_length_a 22.515385
_cell_length_b 13.804852
_cell_length_c 5.620015
_cell_angle_alpha 90.000000
_cell_angle_beta 90.000000
_cell_angle_gamma 90.000000
_cell_volume 1746.821816
_symmetry_space_group_name_H-M "A B A 2"
_symmetry_group_IT_number 41
_symmetry_cell_setting 'orthorhombic'
loop_
_space_group_symop_operation_xyz
x,y,z
-x,-y,z
1/2-x,y,1/2+z
1/2+x,-y,1/2+z
x,1/2+y,1/2+z
-x,1/2-y,1/2+z
1/2-x,1/2+y,z
1/2+x,1/2-y,z
loop_
_atom_site_type_symbol
_atom_site_label
_atom_site_fract_x
_atom_site_fract_y
_atom_site_fract_z
Si Si1 0.042397 0.347307 0.969610
Si Si2 0.000000 0.500000 0.604049
Si Si3 0.282164 0.673920 0.577974
Si Si4 0.586236 0.282817 0.619531
Si Si5 0.896375 0.073082 0.867374
Si Si6 0.775437 0.591623 0.600309
O O1 0.083779 0.259888 0.885589
O O2 0.013859 0.406422 0.754308
O O3 0.088759 0.419189 0.092543
O O4 0.981572 0.320226 0.100925
O O5 0.941956 0.491599 0.449186
O O6 0.250223 0.643605 0.327682
O O7 0.353895 0.655607 0.578023
O O8 0.278352 0.791395 0.589384
O O9 0.590832 0.186081 0.449739
O O10 0.834947 0.050503 0.985593
O O11 0.730520 0.566861 0.380639
#
# Coordination Sequence:
#
# PCOD9366521 Si02
#       6
#     8   4   8   8   8   8
#     4  11  21  38  58  89 121 155 200 250 311 362
#     4  10  24  38  58  84 120 162 196 248 304 370
#     4   9  19  32  52  83 121 155 195 244 305 360
#     4  10  21  33  60  88 118 153 198 253 301 359
#     4  10  21  37  56  88 119 156 201 243 306 367
#     4   9  19  32  55  84 117 153 197 255 301 351
#
# _framework density 25.188604999999999
#
# number of rings (size 3 to 8) (size 9 to 14) (size 15 to 20)
#    0.000    2.182    1.818    0.545   15.273    0.000 
#    0.000    0.000    0.000    2.182    0.000    0.000 
#    0.000    0.000    0.000    0.000    0.000    0.000 
#
# Total GULP energy -122534.411699 kJ/mol
# GULP energy per Si atom -5569.745986 kJ/mol
# Density = 2.513127 g / cm^3
# Si number density = 25.188605 Si / 1000 Ang^3
#
#
#
# Elastic Constant Matrix: (Units=GPa)
#
#
# Indices 1 2 3 4 5 6 
#
# 1 131.3128 -6.9309 32.0921 0.0000 0.0000 0.0000
# 2 -6.9309 45.8787 -13.0373 0.0000 0.0000 0.0000
# 3 32.0921 -13.0373 90.7497 0.0000 0.0000 0.0000
# 4 0.0000 0.0000 0.0000 34.3162 0.0000 0.0000
# 5 0.0000 0.0000 0.0000 0.0000 28.2834 0.0000
# 6 0.0000 0.0000 0.0000 0.0000 0.0000 24.2172
#
#
#
# Elastic Compliance Matrix: (Units=1/GPa)
#
#
# Indices 1 2 3 4 5 6 
#
# 1 0.008344 0.000440 -0.002888 0.000000 0.000000 0.000000
# 2 0.000440 0.022748 0.003112 0.000000 0.000000 0.000000
# 3 -0.002888 0.003112 0.012488 0.000000 0.000000 0.000000
# 4 0.000000 0.000000 0.000000 0.029141 0.000000 0.000000
# 5 0.000000 0.000000 0.000000 0.000000 0.035356 0.000000
# 6 0.000000 0.000000 0.000000 0.000000 0.000000 0.041293
#
#
# Mechanical properties :
#
#
# Convention : Reuss Voigt Hill
#
# Bulk Modulus (GPa) = 22.26729 32.46545 27.36637
# Shear Modulus (GPa) = 30.67302 34.41786 32.54544
#
# Velocity S-wave (km/s) = 3.49339 3.70050 3.59844
# Velocity P-wave (km/s) = 5.01309 5.58348 5.30596
#
# Compressibility (1/GPa) = 0.04490893
#
# Stress axis : x y z
#
# Youngs Moduli (GPa) = 119.84157 43.96086 80.07943
#
# Poissons Ratio (x) = -0.01934 0.23124
# Poissons Ratio (y) = -0.05273 -0.24923
# Poissons Ratio (z) = 0.34606 -0.13682
#
# Static dielectric constant tensor:
#      x y z
#    x 2.060260 0.000000 0.000000 
#    y 0.000000 2.079080 0.000000 
#    z 0.000000 0.000000 2.165150 
# 
# From -- ./inp_files/481.got.cif
#   From: 2010.05.17/outbox.cif.g08.bks.cpg/sg41_1_cif.got.tgz:481.got - 2010.06.03 18:54:24.
