data_PCOD9366270
_publ_section_title
;
Structure prediction by ZEFSAII (Michael W. Deem and Ramdas Pophale) SiO2 
 PCOD9366270
Probable space group: A B A 2
;
_chemical_formula_sum "Si O2"
_cell_formula_units_Z 60
_cell_length_a 12.251039
_cell_length_b 8.467832
_cell_length_c 29.642475
_cell_angle_alpha 90.000000
_cell_angle_beta 90.000000
_cell_angle_gamma 90.000000
_cell_volume 3075.102652
_symmetry_space_group_name_H-M "A B A 2"
_symmetry_group_IT_number 41
_symmetry_cell_setting 'orthorhombic'
loop_
_space_group_symop_operation_xyz
x,y,z
-x,-y,z
1/2-x,y,1/2+z
1/2+x,-y,1/2+z
x,1/2+y,1/2+z
-x,1/2-y,1/2+z
1/2-x,1/2+y,z
1/2+x,1/2-y,z
loop_
_atom_site_type_symbol
_atom_site_label
_atom_site_fract_x
_atom_site_fract_y
_atom_site_fract_z
Si Si1 0.592502 0.639041 0.548410
Si Si2 0.623635 0.053916 0.758030
Si Si3 0.802114 0.103465 0.983708
Si Si4 0.762668 0.831478 0.916051
Si Si5 0.377459 0.939880 0.862428
Si Si6 0.747124 0.300937 0.203447
Si Si7 0.125749 0.450069 0.147504
Si Si8 0.000000 0.000000 0.043806
O O1 0.500000 0.500000 0.540243
O O2 0.684372 0.628554 0.508596
O O3 0.648349 0.590314 0.595657
O O4 0.547799 0.819844 0.558229
O O5 0.659376 0.192212 0.724658
O O6 0.500000 0.000000 0.751637
O O7 0.637917 0.102057 0.810054
O O8 0.698911 0.907619 0.743304
O O9 0.820975 0.252332 0.951316
O O10 0.813951 0.962556 0.947801
O O11 0.893464 0.068058 0.019609
O O12 0.701720 0.916482 0.875410
O O13 0.843960 0.701694 0.895822
O O14 0.500000 0.000000 0.869138
O O15 0.798201 0.409611 0.164947
O O16 0.654448 0.194266 0.180563
O O17 0.000000 0.500000 0.151088
#
# Coordination Sequence:
#
# PCOD9366270 Si02
#       8
#     8   8   8   8   8   8   8   4
#     4  11  26  45  66  95 134 174 227 277 329 393
#     4  10  20  38  61  90 121 166 210 251 331 395
#     4  11  23  41  62  92 124 169 222 265 327 391
#     4  10  22  38  60  89 122 162 213 268 320 382
#     4  10  22  38  60  88 126 163 208 270 322 393
#     4  10  21  38  65  88 128 162 205 270 318 390
#     4  10  23  41  61  95 126 163 216 266 324 386
#     4  12  26  42  70  94 128 186 218 278 338 390
#
# _framework density 19.511545000000002
#
# number of rings (size 3 to 8) (size 9 to 14) (size 15 to 20)
#    0.000    1.600    1.333    2.400    3.733    3.200 
#    6.000    0.000    0.000    8.000    0.000    0.000 
#    0.000    0.000    0.000    0.000    0.000    0.000 
#
# Total GULP energy -167026.551943 kJ/mol
# GULP energy per Si atom -5567.551731 kJ/mol
# Density = 1.946714 g / cm^3
# Si number density = 19.511545 Si / 1000 Ang^3
#
#
#
# Elastic Constant Matrix: (Units=GPa)
#
#
# Indices 1 2 3 4 5 6 
#
# 1 55.1982 14.6113 31.6462 0.0000 0.0000 0.0000
# 2 14.6113 75.1302 22.7350 0.0000 0.0000 0.0000
# 3 31.6462 22.7350 81.3151 0.0000 0.0000 0.0000
# 4 0.0000 0.0000 0.0000 39.5726 0.0000 0.0000
# 5 0.0000 0.0000 0.0000 0.0000 1421.2222 0.0000
# 6 0.0000 0.0000 0.0000 0.0000 0.0000 10.3970
#
#
#
# Elastic Compliance Matrix: (Units=1/GPa)
#
#
# Indices 1 2 3 4 5 6 
#
# 1 0.023585 -0.001976 -0.008626 0.000000 0.000000 0.000000
# 2 -0.001976 0.014706 -0.003342 0.000000 0.000000 0.000000
# 3 -0.008626 -0.003342 0.016590 0.000000 0.000000 0.000000
# 4 0.000000 0.000000 0.000000 0.025270 0.000000 0.000000
# 5 0.000000 0.000000 0.000000 0.000000 0.000704 0.000000
# 6 0.000000 0.000000 0.000000 0.000000 0.000000 0.096181
#
#
# Mechanical properties :
#
#
# Convention : Reuss Voigt Hill
#
# Bulk Modulus (GPa) = 37.05020 38.84760 37.94890
# Shear Modulus (GPa) = 23.37283 303.74842 163.56063
#
# Velocity S-wave (km/s) = 3.46482 12.49056 9.16567
# Velocity P-wave (km/s) = 5.91918 15.09875 11.46754
#
# Compressibility (1/GPa) = 0.02699041
#
# Stress axis : x y z
#
# Youngs Moduli (GPa) = 42.39911 67.99911 60.27880
#
# Poissons Ratio (x) = 0.13440 0.51999
# Poissons Ratio (y) = 0.08380 0.20148
# Poissons Ratio (z) = 0.36575 0.22729
#
# Static dielectric constant tensor:
#      x y z
#    x 1.631630 0.000000 0.000000 
#    y 0.000000 1.772350 0.000000 
#    z 0.000000 0.000000 1.671460 
# 
# From -- ./inp_files/12529.got.cif
#   From: 2010.05.17/outbox.cif.g08.bks.cpg/sg41_7_cif.got.tgz:12529.got - 2010.06.03 18:54:24.
