data_PCOD9366910
_publ_section_title
;
Structure prediction by ZEFSAII (Michael W. Deem and Ramdas Pophale) SiO2 
 PCOD9366910
Probable space group: A B A 2
;
_chemical_formula_sum "Si O2"
_cell_formula_units_Z 48
_cell_length_a 11.002069
_cell_length_b 8.809901
_cell_length_c 23.482621
_cell_angle_alpha 90.000000
_cell_angle_beta 90.000000
_cell_angle_gamma 90.000000
_cell_volume 2276.103262
_symmetry_space_group_name_H-M "A B A 2"
_symmetry_group_IT_number 41
_symmetry_cell_setting 'orthorhombic'
loop_
_space_group_symop_operation_xyz
x,y,z
-x,-y,z
1/2-x,y,1/2+z
1/2+x,-y,1/2+z
x,1/2+y,1/2+z
-x,1/2-y,1/2+z
1/2-x,1/2+y,z
1/2+x,1/2-y,z
loop_
_atom_site_type_symbol
_atom_site_label
_atom_site_fract_x
_atom_site_fract_y
_atom_site_fract_z
Si Si1 0.860922 0.479054 0.634260
Si Si2 0.869815 0.419347 0.413064
Si Si3 0.789880 0.115832 0.018285
Si Si4 0.357648 0.009611 0.289717
Si Si5 0.251343 0.763602 0.712370
Si Si6 0.469533 0.321985 0.487686
O O1 0.797072 0.515214 0.574941
O O2 0.831689 0.322188 0.666023
O O3 0.826135 0.610799 0.678718
O O4 0.000000 0.500000 0.620773
O O5 0.795831 0.503590 0.463300
O O6 0.807981 0.442548 0.351881
O O7 0.914454 0.250302 0.429355
O O8 0.000000 0.500000 0.413286
O O9 0.656360 0.192127 0.023439
O O10 0.910140 0.227082 0.009551
O O11 0.313620 0.851149 0.263891
O O12 0.500000 0.000000 0.296791
O O13 0.329962 0.134555 0.242211
O O14 0.500000 0.500000 0.484275
#
# Coordination Sequence:
#
# PCOD9366910 Si02
#       6
#     8   8   8   8   8   8
#     4  11  24  42  66  94 134 171 220 283 332 408
#     4   9  21  41  65  94 134 173 214 284 336 400
#     4  11  25  44  67 102 140 178 226 282 351 408
#     4  10  21  44  65  93 130 169 220 275 332 401
#     4  10  24  41  65  95 122 179 221 270 337 403
#     4  11  24  42  67 104 140 182 229 273 348 415
#
# _framework density 21.088676
#
# number of rings (size 3 to 8) (size 9 to 14) (size 15 to 20)
#    0.000    1.667    0.000    3.500    9.333    0.000 
#    3.000    0.833    0.000    0.000    0.000    0.000 
#    0.000    0.000    0.000    0.000    0.000    0.000 
#
# Total GULP energy -133748.394335 kJ/mol
# GULP energy per Si atom -5572.849764 kJ/mol
# Density = 2.104068 g / cm^3
# Si number density = 21.088676 Si / 1000 Ang^3
#
#
#
# Elastic Constant Matrix: (Units=GPa)
#
#
# Indices 1 2 3 4 5 6 
#
# 1 79.1384 17.0604 6.1301 0.0000 0.0000 0.0000
# 2 17.0604 111.6028 21.2940 0.0000 0.0000 0.0000
# 3 6.1301 21.2940 111.3441 0.0000 0.0000 0.0000
# 4 0.0000 0.0000 0.0000 33.8341 0.0000 0.0000
# 5 0.0000 0.0000 0.0000 0.0000 598.8188 0.0000
# 6 0.0000 0.0000 0.0000 0.0000 0.0000 21.3804
#
#
#
# Elastic Compliance Matrix: (Units=1/GPa)
#
#
# Indices 1 2 3 4 5 6 
#
# 1 0.013080 -0.001933 -0.000351 0.000000 0.000000 0.000000
# 2 -0.001933 0.009585 -0.001727 0.000000 0.000000 0.000000
# 3 -0.000351 -0.001727 0.009331 0.000000 0.000000 0.000000
# 4 0.000000 0.000000 0.000000 0.029556 0.000000 0.000000
# 5 0.000000 0.000000 0.000000 0.000000 0.001670 0.000000
# 6 0.000000 0.000000 0.000000 0.000000 0.000000 0.046772
#
#
# Mechanical properties :
#
#
# Convention : Reuss Voigt Hill
#
# Bulk Modulus (GPa) = 41.70821 43.45049 42.57935
# Shear Modulus (GPa) = 39.68088 147.98005 93.83047
#
# Velocity S-wave (km/s) = 4.34247 8.38586 6.67757
# Velocity P-wave (km/s) = 6.70546 10.69636 8.92679
#
# Compressibility (1/GPa) = 0.02397609
#
# Stress axis : x y z
#
# Youngs Moduli (GPa) = 76.45342 104.32704 107.17315
#
# Poissons Ratio (x) = 0.20162 0.03757
# Poissons Ratio (y) = 0.14775 0.18506
# Poissons Ratio (z) = 0.02680 0.18014
#
# Static dielectric constant tensor:
#      x y z
#    x 0.784160 0.000000 0.000000 
#    y 0.000000 1.797640 0.000000 
#    z 0.000000 0.000000 1.819200 
# 
# From -- ./inp_files/12100.got.cif
#   From: 2010.05.17/outbox.cif.g08.bks.cpg/sg41_7_cif.got.tgz:12100.got - 2010.06.03 18:54:24.
