data_PCOD9366737
_publ_section_title
;
Structure prediction by ZEFSAII (Michael W. Deem and Ramdas Pophale) SiO2 
 PCOD9366737
Probable space group: A B A 2
;
_chemical_formula_sum "Si O2"
_cell_formula_units_Z 48
_cell_length_a 27.418353
_cell_length_b 5.165084
_cell_length_c 14.094142
_cell_angle_alpha 90.000000
_cell_angle_beta 90.000000
_cell_angle_gamma 90.000000
_cell_volume 1995.985560
_symmetry_space_group_name_H-M "A B A 2"
_symmetry_group_IT_number 41
_symmetry_cell_setting 'orthorhombic'
loop_
_space_group_symop_operation_xyz
x,y,z
-x,-y,z
1/2-x,y,1/2+z
1/2+x,-y,1/2+z
x,1/2+y,1/2+z
-x,1/2-y,1/2+z
1/2-x,1/2+y,z
1/2+x,1/2-y,z
loop_
_atom_site_type_symbol
_atom_site_label
_atom_site_fract_x
_atom_site_fract_y
_atom_site_fract_z
Si Si1 0.371572 0.125123 0.601790
Si Si2 0.105047 0.824987 0.406863
Si Si3 0.101664 0.610270 0.202795
Si Si4 0.222982 0.889484 0.136938
Si Si5 0.000000 0.500000 0.855327
Si Si6 0.500000 0.500000 0.723683
Si Si7 0.716307 0.546719 0.364141
O O1 0.399081 0.177277 0.505466
O O2 0.363791 0.390168 0.660350
O O3 0.394407 0.902660 0.666899
O O4 0.320622 0.995684 0.574980
O O5 0.105020 0.632568 0.315992
O O6 0.160229 0.950234 0.403437
O O7 0.054527 0.990131 0.401635
O O8 0.049592 0.508266 0.167270
O O9 0.234389 0.593544 0.119025
O O10 0.210171 0.931217 0.248717
O O11 0.999116 0.249169 0.789567
O O12 0.748937 0.293703 0.387493
#
# Coordination Sequence:
#
# PCOD9366737 Si02
#       7
#     8   8   8   8   4   4   8
#     4  12  26  42  73 104 134 192 230 298 358 427
#     4  11  26  48  74 104 150 186 246 296 364 433
#     4  11  25  46  68 102 140 180 239 294 354 422
#     4  10  21  40  64  98 141 182 234 292 355 420
#     4  10  24  45  72 107 138 192 236 301 356 423
#     4  10  22  43  74  95 134 190 228 289 366 419
#     4  10  23  39  70 102 139 191 233 295 363 425
#
# _framework density 24.048269000000001
#
# number of rings (size 3 to 8) (size 9 to 14) (size 15 to 20)
#    0.000    1.333    1.667    3.000    4.667    8.667 
#    0.000    3.333    0.000    0.000    0.000    0.000 
#    0.000    0.000    0.000    0.000    0.000    0.000 
#
# Total GULP energy -134061.955524 kJ/mol
# GULP energy per Si atom -5585.914814 kJ/mol
# Density = 2.399353 g / cm^3
# Si number density = 24.048269 Si / 1000 Ang^3
#
#
#
# Elastic Constant Matrix: (Units=GPa)
#
#
# Indices 1 2 3 4 5 6 
#
# 1 172.6526 40.0202 -6.4593 0.0000 0.0000 0.0000
# 2 40.0202 122.2311 26.6803 0.0000 0.0000 0.0000
# 3 -6.4593 26.6803 90.5185 0.0000 0.0000 0.0000
# 4 0.0000 0.0000 0.0000 -2.0341 0.0000 0.0000
# 5 0.0000 0.0000 0.0000 0.0000 19.7939 0.0000
# 6 0.0000 0.0000 0.0000 0.0000 0.0000 31.3122
#
#
#
# Elastic Compliance Matrix: (Units=1/GPa)
#
#
# Indices 1 2 3 4 5 6 
#
# 1 0.006377 -0.002338 0.001144 0.000000 0.000000 0.000000
# 2 -0.002338 0.009601 -0.002997 0.000000 0.000000 0.000000
# 3 0.001144 -0.002997 0.012012 0.000000 0.000000 0.000000
# 4 0.000000 0.000000 0.000000 -0.491611 0.000000 0.000000
# 5 0.000000 0.000000 0.000000 0.000000 0.050521 0.000000
# 6 0.000000 0.000000 0.000000 0.000000 0.000000 0.031936
#
#
# Mechanical properties :
#
#
# Convention : Reuss Voigt Hill
#
# Bulk Modulus (GPa) = 50.99588 56.20939 53.60264
# Shear Modulus (GPa) = -13.65194 31.49179 8.91993
#
# Velocity S-wave (km/s) = -2.38521 3.62266 1.92801
# Velocity P-wave (km/s) = 3.69676 6.39707 5.22439
#
# Compressibility (1/GPa) = 0.01960943
#
# Stress axis : x y z
#
# Youngs Moduli (GPa) = 156.82335 104.15965 83.24764
#
# Poissons Ratio (x) = 0.24347 -0.09524
# Poissons Ratio (y) = 0.36657 0.24946
# Poissons Ratio (z) = -0.17941 0.31212
#
# Static dielectric constant tensor:
#      x y z
#    x 2.029690 0.000000 0.000000 
#    y 0.000000 1.964480 0.000000 
#    z 0.000000 0.000000 1.916520 
# 
# From -- ./inp_files/9228.got.cif
#   From: 2010.05.17/outbox.cif.g08.bks.cpg/sg41_5_cif.got.tgz:9228.got - 2010.06.03 18:54:24.
