data_PCOD9366489
_publ_section_title
;
Structure prediction by ZEFSAII (Michael W. Deem and Ramdas Pophale) SiO2 
 PCOD9366489
Probable space group: A B A 2
;
_chemical_formula_sum "Si O2"
_cell_formula_units_Z 48
_cell_length_a 19.629094
_cell_length_b 9.537218
_cell_length_c 10.785908
_cell_angle_alpha 90.000000
_cell_angle_beta 90.000000
_cell_angle_gamma 90.000000
_cell_volume 2019.196925
_symmetry_space_group_name_H-M "A B A 2"
_symmetry_group_IT_number 41
_symmetry_cell_setting 'orthorhombic'
loop_
_space_group_symop_operation_xyz
x,y,z
-x,-y,z
1/2-x,y,1/2+z
1/2+x,-y,1/2+z
x,1/2+y,1/2+z
-x,1/2-y,1/2+z
1/2-x,1/2+y,z
1/2+x,1/2-y,z
loop_
_atom_site_type_symbol
_atom_site_label
_atom_site_fract_x
_atom_site_fract_y
_atom_site_fract_z
Si Si1 0.500000 0.000000 0.718690
Si Si2 0.677518 0.402990 0.947010
Si Si3 0.098372 0.487820 0.936134
Si Si4 0.857980 0.452512 0.179715
Si Si5 0.531135 0.294584 0.015119
Si Si6 0.500000 0.000000 0.308632
Si Si7 0.230778 0.364865 0.015660
O O1 0.435832 0.026187 0.808190
O O2 0.493828 0.861352 0.633188
O O3 0.673555 0.376535 0.799047
O O4 0.606170 0.366251 0.010277
O O5 0.700835 0.558728 0.978301
O O6 0.732753 0.301044 0.009901
O O7 0.047806 0.368300 0.995063
O O8 0.171221 0.411550 0.918344
O O9 0.116449 0.600488 0.043489
O O10 0.929988 0.500998 0.235438
O O11 0.804492 0.574197 0.140088
O O12 0.497117 0.362136 0.894612
#
# Coordination Sequence:
#
# PCOD9366489 Si02
#       7
#     4   8   8   8   8   4   8
#     4  11  21  40  62  92 129 155 210 254 304 389
#     4  10  20  43  60  90 125 163 216 256 311 372
#     4   9  21  39  56  93 121 160 204 252 315 363
#     4   9  20  37  61  87 123 162 205 258 310 377
#     4   9  21  37  63  91 122 162 205 255 312 369
#     4   9  17  36  62  86 119 165 196 248 328 361
#     4   9  22  38  60  91 118 164 211 252 314 368
#
# _framework density 23.771826000000001
#
# number of rings (size 3 to 8) (size 9 to 14) (size 15 to 20)
#    1.000    1.667    0.000    0.500    2.333    2.667 
#    6.000    3.333    0.000    0.000    0.000    0.000 
#    0.000    0.000    0.000    0.000    0.000    0.000 
#
# Total GULP energy -133689.460991 kJ/mol
# GULP energy per Si atom -5570.394208 kJ/mol
# Density = 2.371772 g / cm^3
# Si number density = 23.771826 Si / 1000 Ang^3
#
#
#
# Elastic Constant Matrix: (Units=GPa)
#
#
# Indices 1 2 3 4 5 6 
#
# 1 51.5837 9.1499 16.6108 0.0000 0.0000 0.0000
# 2 9.1499 60.7405 25.9182 0.0000 0.0000 0.0000
# 3 16.6108 25.9182 116.8495 0.0000 0.0000 0.0000
# 4 0.0000 0.0000 0.0000 18.8314 0.0000 0.0000
# 5 0.0000 0.0000 0.0000 0.0000 -4.4354 0.0000
# 6 0.0000 0.0000 0.0000 0.0000 0.0000 28.2884
#
#
#
# Elastic Compliance Matrix: (Units=1/GPa)
#
#
# Indices 1 2 3 4 5 6 
#
# 1 0.020543 -0.002042 -0.002467 0.000000 0.000000 0.000000
# 2 -0.002042 0.018387 -0.003788 0.000000 0.000000 0.000000
# 3 -0.002467 -0.003788 0.009749 0.000000 0.000000 0.000000
# 4 0.000000 0.000000 0.000000 0.053103 0.000000 0.000000
# 5 0.000000 0.000000 0.000000 0.000000 -0.225461 0.000000
# 6 0.000000 0.000000 0.000000 0.000000 0.000000 0.035350
#
#
# Mechanical properties :
#
#
# Convention : Reuss Voigt Hill
#
# Bulk Modulus (GPa) = 31.16767 36.94793 34.05780
# Shear Modulus (GPa) = -81.91428 20.36989 -30.77220
#
# Velocity S-wave (km/s) = -5.87651 2.93045 -3.60179
# Velocity P-wave (km/s) = 5.73627 5.19870 1.71440
#
# Compressibility (1/GPa) = 0.03208453
#
# Stress axis : x y z
#
# Youngs Moduli (GPa) = 48.67923 54.38477 102.57422
#
# Poissons Ratio (x) = 0.11104 0.25309
# Poissons Ratio (y) = 0.09939 0.38858
# Poissons Ratio (z) = 0.12011 0.20602
#
# Static dielectric constant tensor:
#      x y z
#    x 1.917900 0.000000 0.000000 
#    y 0.000000 1.977380 0.000000 
#    z 0.000000 0.000000 1.919580 
# 
# From -- ./inp_files/6425.got.cif
#   From: 2010.05.17/outbox.cif.g08.bks.cpg/sg41_4_cif.got.tgz:6425.got - 2010.06.03 18:54:24.
