data_PCOD9366161
_publ_section_title
;
Structure prediction by ZEFSAII (Michael W. Deem and Ramdas Pophale) SiO2 
 PCOD9366161
Probable space group: A B A 2
;
_chemical_formula_sum "Si O2"
_cell_formula_units_Z 64
_cell_length_a 9.427224
_cell_length_b 18.046043
_cell_length_c 18.922089
_cell_angle_alpha 90.000000
_cell_angle_beta 90.000000
_cell_angle_gamma 90.000000
_cell_volume 3219.103166
_symmetry_space_group_name_H-M "A B A 2"
_symmetry_group_IT_number 41
_symmetry_cell_setting 'orthorhombic'
loop_
_space_group_symop_operation_xyz
x,y,z
-x,-y,z
1/2-x,y,1/2+z
1/2+x,-y,1/2+z
x,1/2+y,1/2+z
-x,1/2-y,1/2+z
1/2-x,1/2+y,z
1/2+x,1/2-y,z
loop_
_atom_site_type_symbol
_atom_site_label
_atom_site_fract_x
_atom_site_fract_y
_atom_site_fract_z
Si Si1 0.702764 0.161594 0.760350
Si Si2 0.733295 0.200402 0.108292
Si Si3 0.341188 0.192072 0.417263
Si Si4 0.165014 0.930331 0.395046
Si Si5 0.961529 0.316628 0.271900
Si Si6 0.348740 0.324227 0.956768
Si Si7 0.586693 0.846355 0.118958
Si Si8 0.609644 0.914513 0.973573
O O1 0.712030 0.152916 0.675391
O O2 0.656568 0.094448 0.812608
O O3 0.595857 0.231661 0.767272
O O4 0.867848 0.182221 0.777880
O O5 0.563517 0.195411 0.106944
O O6 0.789262 0.284981 0.112656
O O7 0.795942 0.170372 0.036129
O O8 0.381395 0.157325 0.341923
O O9 0.252537 0.267486 0.414597
O O10 0.491793 0.203023 0.453906
O O11 0.238668 0.139537 0.459943
O O12 0.318045 0.902044 0.420158
O O13 0.036985 0.888373 0.436896
O O14 0.145807 0.011644 0.428676
O O15 0.918824 0.363446 0.202578
O O16 0.592554 0.910371 0.059051
#
# Coordination Sequence:
#
# PCOD9366161 Si02
#       8
#     8   8   8   8   8   8   8   8
#     4  10  21  37  59  93 125 160 203 264 330 375
#     4  10  20  35  61  93 123 154 204 266 323 375
#     4  12  22  36  62  94 123 157 208 265 310 373
#     4  11  23  42  60  83 122 170 211 256 306 375
#     4  10  20  35  60  94 124 154 202 265 322 369
#     4  12  21  36  63  91 122 157 209 264 320 366
#     4  10  20  37  58  91 124 160 202 259 329 374
#     4  11  25  40  60  85 124 167 216 252 307 381
#
# _framework density 19.881314
#
# number of rings (size 3 to 8) (size 9 to 14) (size 15 to 20)
#    0.000    1.250    5.000    1.500    1.750    0.500 
#    0.000    1.250    0.000    1.500    0.000    0.000 
#    0.000    0.000    0.000    0.000    0.000    0.000 
#
# Total GULP energy -178156.987616 kJ/mol
# GULP energy per Si atom -5567.405863 kJ/mol
# Density = 1.983606 g / cm^3
# Si number density = 19.881314 Si / 1000 Ang^3
#
#
#
# Elastic Constant Matrix: (Units=GPa)
#
#
# Indices 1 2 3 4 5 6 
#
# 1 74.4786 16.9556 14.3421 0.0000 0.0000 0.0000
# 2 16.9556 50.0713 21.1385 0.0000 0.0000 0.0000
# 3 14.3421 21.1385 169.6880 0.0000 0.0000 0.0000
# 4 0.0000 0.0000 0.0000 25.5104 0.0000 0.0000
# 5 0.0000 0.0000 0.0000 0.0000 31.0603 0.0000
# 6 0.0000 0.0000 0.0000 0.0000 0.0000 17.4606
#
#
#
# Elastic Compliance Matrix: (Units=1/GPa)
#
#
# Indices 1 2 3 4 5 6 
#
# 1 0.014616 -0.004674 -0.000653 0.000000 0.000000 0.000000
# 2 -0.004674 0.022575 -0.002417 0.000000 0.000000 0.000000
# 3 -0.000653 -0.002417 0.006249 0.000000 0.000000 0.000000
# 4 0.000000 0.000000 0.000000 0.039200 0.000000 0.000000
# 5 0.000000 0.000000 0.000000 0.000000 0.032195 0.000000
# 6 0.000000 0.000000 0.000000 0.000000 0.000000 0.057272
#
#
# Mechanical properties :
#
#
# Convention : Reuss Voigt Hill
#
# Bulk Modulus (GPa) = 35.77515 44.34559 40.06037
# Shear Modulus (GPa) = 25.39186 30.92635 28.15910
#
# Velocity S-wave (km/s) = 3.57763 3.94832 3.76754
# Velocity P-wave (km/s) = 5.92447 6.56805 6.25454
#
# Compressibility (1/GPa) = 0.02795237
#
# Stress axis : x y z
#
# Youngs Moduli (GPa) = 68.41589 44.29743 160.01311
#
# Poissons Ratio (x) = 0.20704 0.10451
# Poissons Ratio (y) = 0.31976 0.38678
# Poissons Ratio (z) = 0.04469 0.10707
#
# Static dielectric constant tensor:
#      x y z
#    x 1.713370 0.000000 0.000000 
#    y 0.000000 1.769020 0.000000 
#    z 0.000000 0.000000 1.784810 
# 
# From -- ./inp_files/11288.got.cif
#   From: 2010.05.17/outbox.cif.g08.bks.cpg/sg41_6_cif.got.tgz:11288.got - 2010.06.03 18:54:24.
