data_PCOD9366647
_publ_section_title
;
Structure prediction by ZEFSAII (Michael W. Deem and Ramdas Pophale) SiO2 
 PCOD9366647
Probable space group: A B A 2
;
_chemical_formula_sum "Si O2"
_cell_formula_units_Z 64
_cell_length_a 13.566578
_cell_length_b 16.430887
_cell_length_c 10.754076
_cell_angle_alpha 90.000000
_cell_angle_beta 90.000000
_cell_angle_gamma 90.000000
_cell_volume 2397.200868
_symmetry_space_group_name_H-M "A B A 2"
_symmetry_group_IT_number 41
_symmetry_cell_setting 'orthorhombic'
loop_
_space_group_symop_operation_xyz
x,y,z
-x,-y,z
1/2-x,y,1/2+z
1/2+x,-y,1/2+z
x,1/2+y,1/2+z
-x,1/2-y,1/2+z
1/2-x,1/2+y,z
1/2+x,1/2-y,z
loop_
_atom_site_type_symbol
_atom_site_label
_atom_site_fract_x
_atom_site_fract_y
_atom_site_fract_z
Si Si1 0.130772 0.540509 0.052550
Si Si2 0.283415 0.276046 0.595468
Si Si3 0.024764 0.285099 0.203144
Si Si4 0.026230 0.701953 0.946277
Si Si5 0.885411 0.423471 0.308634
Si Si6 0.329124 0.009787 0.801595
Si Si7 0.807926 0.669945 0.835113
Si Si8 0.354418 0.089417 0.572462
O O1 0.096234 0.519507 0.189900
O O2 0.248687 0.544076 0.066925
O O3 0.085995 0.626265 0.003777
O O4 0.114607 0.489727 0.930095
O O5 0.378870 0.327210 0.642585
O O6 0.213606 0.274125 0.715345
O O7 0.247682 0.311000 0.462807
O O8 0.323293 0.184117 0.571646
O O9 0.983091 0.244589 0.074343
O O10 0.071860 0.236807 0.319499
O O11 0.944290 0.343791 0.264688
O O12 0.918633 0.683659 0.886341
O O13 0.765057 0.428612 0.318341
O O14 0.914608 0.434765 0.450770
O O15 0.396270 0.054929 0.700932
O O16 0.291526 0.919177 0.776568
#
# Coordination Sequence:
#
# PCOD9366647 Si02
#       8
#     8   8   8   8   8   8   8   8
#     4   9  20  35  65  91 125 170 221 265 326 401
#     4  11  26  41  64  99 135 172 223 282 346 391
#     4  10  21  39  62  98 131 170 223 277 335 403
#     4  10  22  39  64  96 133 170 219 281 341 391
#     4   9  19  36  65  91 123 167 221 267 317 399
#     4  10  22  40  64  94 132 177 222 266 334 405
#     4  11  27  42  62  98 139 174 217 286 340 400
#     4  10  21  38  69 101 122 172 229 273 328 417
#
# _framework density 26.697804999999999
#
# number of rings (size 3 to 8) (size 9 to 14) (size 15 to 20)
#    0.000    2.000    0.000    2.250   17.500    0.500 
#    0.000    0.625    0.000    0.000    0.000    0.000 
#    0.000    0.000    0.000    0.000    0.000    0.000 
#
# Total GULP energy -178165.201827 kJ/mol
# GULP energy per Si atom -5567.662557 kJ/mol
# Density = 2.663704 g / cm^3
# Si number density = 26.697805 Si / 1000 Ang^3
#
#
#
# Elastic Constant Matrix: (Units=GPa)
#
#
# Indices 1 2 3 4 5 6 
#
# 1 79.8130 15.1798 21.7118 0.0000 0.0000 0.0000
# 2 15.1798 82.6284 56.4921 0.0000 0.0000 0.0000
# 3 21.7118 56.4921 215.7081 0.0000 0.0000 0.0000
# 4 0.0000 0.0000 0.0000 -21.6735 0.0000 0.0000
# 5 0.0000 0.0000 0.0000 0.0000 20.1840 0.0000
# 6 0.0000 0.0000 0.0000 0.0000 0.0000 34.8273
#
#
#
# Elastic Compliance Matrix: (Units=1/GPa)
#
#
# Indices 1 2 3 4 5 6 
#
# 1 0.013106 -0.001834 -0.000839 0.000000 0.000000 0.000000
# 2 -0.001834 0.014999 -0.003743 0.000000 0.000000 0.000000
# 3 -0.000839 -0.003743 0.005701 0.000000 0.000000 0.000000
# 4 0.000000 0.000000 0.000000 -0.046139 0.000000 0.000000
# 5 0.000000 0.000000 0.000000 0.000000 0.049544 0.000000
# 6 0.000000 0.000000 0.000000 0.000000 0.000000 0.028713
#
#
# Mechanical properties :
#
#
# Convention : Reuss Voigt Hill
#
# Bulk Modulus (GPa) = 47.68108 62.76855 55.22482
# Shear Modulus (GPa) = 58.31054 25.65193 41.98124
#
# Velocity S-wave (km/s) = 4.67850 3.10308 3.96973
# Velocity P-wave (km/s) = 6.86169 6.03329 6.46078
#
# Compressibility (1/GPa) = 0.02097268
#
# Stress axis : x y z
#
# Youngs Moduli (GPa) = 76.29894 66.67256 175.41749
#
# Poissons Ratio (x) = 0.12230 0.14714
# Poissons Ratio (y) = 0.13996 0.65666
# Poissons Ratio (z) = 0.06400 0.24958
#
# Static dielectric constant tensor:
#      x y z
#    x 2.232000 0.000000 0.000000 
#    y 0.000000 2.148850 0.000000 
#    z 0.000000 0.000000 2.302760 
# 
# From -- ./inp_files/3225.got.cif
#   From: 2010.05.17/outbox.cif.g08.bks.cpg/sg41_2_cif.got.tgz:3225.got - 2010.06.03 18:54:24.
