data_PCOD9366734
_publ_section_title
;
Structure prediction by ZEFSAII (Michael W. Deem and Ramdas Pophale) SiO2 
 PCOD9366734
Probable space group: A B A 2
;
_chemical_formula_sum "Si O2"
_cell_formula_units_Z 52
_cell_length_a 11.882857
_cell_length_b 25.387923
_cell_length_c 8.521820
_cell_angle_alpha 90.000000
_cell_angle_beta 90.000000
_cell_angle_gamma 90.000000
_cell_volume 2570.871678
_symmetry_space_group_name_H-M "A B A 2"
_symmetry_group_IT_number 41
_symmetry_cell_setting 'orthorhombic'
loop_
_space_group_symop_operation_xyz
x,y,z
-x,-y,z
1/2-x,y,1/2+z
1/2+x,-y,1/2+z
x,1/2+y,1/2+z
-x,1/2-y,1/2+z
1/2-x,1/2+y,z
1/2+x,1/2-y,z
loop_
_atom_site_type_symbol
_atom_site_label
_atom_site_fract_x
_atom_site_fract_y
_atom_site_fract_z
Si Si1 0.378947 0.315612 0.011140
Si Si2 0.500000 0.500000 0.322551
Si Si3 0.627577 0.808142 0.519669
Si Si4 0.403609 0.433048 0.887559
Si Si5 0.302667 0.981945 0.067919
Si Si6 0.266026 0.257611 0.262679
Si Si7 0.625028 0.432401 0.063370
O O1 0.500353 0.297527 0.066222
O O2 0.306737 0.309903 0.169992
O O3 0.394224 0.370566 0.920104
O O4 0.324158 0.276313 0.888447
O O5 0.397470 0.480828 0.432937
O O6 0.552717 0.453575 0.213421
O O7 0.645070 0.779016 0.353718
O O8 0.709979 0.780144 0.637981
O O9 0.644164 0.870681 0.536205
O O10 0.357452 0.455997 0.722880
O O11 0.313121 0.453628 0.015520
O O12 0.535092 0.446688 0.923696
O O13 0.247527 0.040308 0.080464
#
# Coordination Sequence:
#
# PCOD9366734 Si02
#       7
#     8   4   8   8   8   8   8
#     4  10  21  40  65  91 128 162 211 265 313 387
#     4  12  26  40  64  92 128 184 214 276 332 374
#     4  10  23  39  64  94 126 166 209 258 327 384
#     4  11  22  41  67  93 127 177 218 273 336 387
#     4  12  24  41  63  93 131 168 229 269 329 395
#     4  10  21  40  64  95 126 166 204 261 325 379
#     4  11  24  45  63  92 135 171 218 282 321 394
#
# _framework density 20.226603000000001
#
# number of rings (size 3 to 8) (size 9 to 14) (size 15 to 20)
#    0.000    1.231    3.077    1.846    4.308    1.231 
#    2.769    1.538    0.000    0.000    0.000    0.000 
#    0.000    0.000    0.000    0.000    0.000    0.000 
#
# Total GULP energy -144786.873731 kJ/mol
# GULP energy per Si atom -5568.725913 kJ/mol
# Density = 2.018057 g / cm^3
# Si number density = 20.226603 Si / 1000 Ang^3
#
#
#
# Elastic Constant Matrix: (Units=GPa)
#
#
# Indices 1 2 3 4 5 6 
#
# 1 43.1916 2.5280 -2.7625 0.0000 0.0000 0.0000
# 2 2.5280 79.4189 21.4449 0.0000 0.0000 0.0000
# 3 -2.7625 21.4449 74.6503 0.0000 0.0000 0.0000
# 4 0.0000 0.0000 0.0000 18.3960 0.0000 0.0000
# 5 0.0000 0.0000 0.0000 0.0000 44.2312 0.0000
# 6 0.0000 0.0000 0.0000 0.0000 0.0000 31.5952
#
#
#
# Elastic Compliance Matrix: (Units=1/GPa)
#
#
# Indices 1 2 3 4 5 6 
#
# 1 0.023289 -0.001056 0.001165 0.000000 0.000000 0.000000
# 2 -0.001056 0.013698 -0.003974 0.000000 0.000000 0.000000
# 3 0.001165 -0.003974 0.014581 0.000000 0.000000 0.000000
# 4 0.000000 0.000000 0.000000 0.054360 0.000000 0.000000
# 5 0.000000 0.000000 0.000000 0.000000 0.022608 0.000000
# 6 0.000000 0.000000 0.000000 0.000000 0.000000 0.031650
#
#
# Mechanical properties :
#
#
# Convention : Reuss Voigt Hill
#
# Bulk Modulus (GPa) = 22.81136 26.63131 24.72134
# Shear Modulus (GPa) = 27.39293 30.58116 28.98704
#
# Velocity S-wave (km/s) = 3.68408 3.89257 3.78976
# Velocity P-wave (km/s) = 5.42208 5.77909 5.60343
#
# Compressibility (1/GPa) = 0.04383780
#
# Stress axis : x y z
#
# Youngs Moduli (GPa) = 42.93881 73.00231 68.58433
#
# Poissons Ratio (x) = 0.07709 -0.07991
# Poissons Ratio (y) = 0.04534 0.27257
# Poissons Ratio (z) = -0.05003 0.29012
#
# Static dielectric constant tensor:
#      x y z
#    x 1.674270 0.000000 0.000000 
#    y 0.000000 1.864990 0.000000 
#    z 0.000000 0.000000 1.738450 
# 
# From -- ./inp_files/2154.got.cif
#   From: 2010.05.17/outbox.cif.g08.bks.cpg/sg41_2_cif.got.tgz:2154.got - 2010.06.03 18:54:24.
