data_PCOD9366563
_publ_section_title
;
Structure prediction by ZEFSAII (Michael W. Deem and Ramdas Pophale) SiO2 
 PCOD9366563
Probable space group: A B A 2
;
_chemical_formula_sum "Si O2"
_cell_formula_units_Z 56
_cell_length_a 12.987693
_cell_length_b 21.182018
_cell_length_c 8.965984
_cell_angle_alpha 90.000000
_cell_angle_beta 90.000000
_cell_angle_gamma 90.000000
_cell_volume 2466.591932
_symmetry_space_group_name_H-M "A B A 2"
_symmetry_group_IT_number 41
_symmetry_cell_setting 'orthorhombic'
loop_
_space_group_symop_operation_xyz
x,y,z
-x,-y,z
1/2-x,y,1/2+z
1/2+x,-y,1/2+z
x,1/2+y,1/2+z
-x,1/2-y,1/2+z
1/2-x,1/2+y,z
1/2+x,1/2-y,z
loop_
_atom_site_type_symbol
_atom_site_label
_atom_site_fract_x
_atom_site_fract_y
_atom_site_fract_z
Si Si1 0.137280 0.035326 0.376230
Si Si2 0.413910 0.167199 0.214475
Si Si3 0.000000 0.500000 0.636313
Si Si4 0.147262 0.299601 0.858862
Si Si5 0.000000 0.000000 0.638004
Si Si6 0.147180 0.801143 0.711421
Si Si7 0.633205 0.461387 0.877178
Si Si8 0.085326 0.169949 0.359748
O O1 0.252270 0.020746 0.424884
O O2 0.134520 0.104919 0.305717
O O3 0.090974 0.986494 0.255851
O O4 0.060650 0.041928 0.517392
O O5 0.370333 0.228990 0.295924
O O6 0.537957 0.164605 0.237346
O O7 0.368731 0.104370 0.288017
O O8 0.395423 0.176238 0.037658
O O9 0.057311 0.544875 0.517885
O O10 0.162740 0.297299 0.035251
O O11 0.249345 0.327894 0.784753
O O12 0.037524 0.332930 0.831420
O O13 0.910120 0.013126 0.758362
O O14 0.129223 0.731163 0.778312
#
# Coordination Sequence:
#
# PCOD9366563 Si02
#       8
#     8   8   4   8   4   8   8   8
#     4  11  22  42  67  91 123 165 207 266 318 376
#     4  10  21  38  64  90 122 164 212 256 301 376
#     4  10  26  38  60 102 120 152 222 260 320 380
#     4  10  21  37  58  91 129 165 200 252 311 368
#     4  10  22  42  64  86 128 152 206 272 312 372
#     4  10  21  37  58  91 129 165 200 252 311 368
#     4  11  22  42  67  91 123 165 207 266 318 376
#     4  10  21  38  64  90 122 164 212 256 301 376
#
# _framework density 22.703391
#
# number of rings (size 3 to 8) (size 9 to 14) (size 15 to 20)
#    0.000    1.714    1.429    2.571    2.000    1.143 
#    0.000    8.571    0.000    0.000    0.000    0.000 
#    0.000    0.000    0.000    0.000    0.000    0.000 
#
# Total GULP energy -156113.157857 kJ/mol
# GULP energy per Si atom -5575.469923 kJ/mol
# Density = 2.265172 g / cm^3
# Si number density = 22.703391 Si / 1000 Ang^3
#
#
#
# Elastic Constant Matrix: (Units=GPa)
#
#
# Indices 1 2 3 4 5 6 
#
# 1 131.4848 18.6161 39.6157 0.0000 0.0000 0.0000
# 2 18.6161 34.7281 14.9612 0.0000 0.0000 0.0000
# 3 39.6157 14.9612 84.8952 0.0000 0.0000 0.0000
# 4 0.0000 0.0000 0.0000 22.9533 0.0000 0.0000
# 5 0.0000 0.0000 0.0000 0.0000 29.5633 0.0000
# 6 0.0000 0.0000 0.0000 0.0000 0.0000 16.6149
#
#
#
# Elastic Compliance Matrix: (Units=1/GPa)
#
#
# Indices 1 2 3 4 5 6 
#
# 1 0.009193 -0.003333 -0.003702 0.000000 0.000000 0.000000
# 2 -0.003333 0.032369 -0.004149 0.000000 0.000000 0.000000
# 3 -0.003702 -0.004149 0.014238 0.000000 0.000000 0.000000
# 4 0.000000 0.000000 0.000000 0.043567 0.000000 0.000000
# 5 0.000000 0.000000 0.000000 0.000000 0.033826 0.000000
# 6 0.000000 0.000000 0.000000 0.000000 0.000000 0.060187
#
#
# Mechanical properties :
#
#
# Convention : Reuss Voigt Hill
#
# Bulk Modulus (GPa) = 29.91211 44.16600 37.03906
# Shear Modulus (GPa) = 22.03688 25.68731 23.86209
#
# Velocity S-wave (km/s) = 3.11889 3.36732 3.24549
# Velocity P-wave (km/s) = 5.11603 5.88338 5.51307
#
# Compressibility (1/GPa) = 0.03343128
#
# Stress axis : x y z
#
# Youngs Moduli (GPa) = 108.78039 30.89352 70.23381
#
# Poissons Ratio (x) = 0.10296 0.26003
# Poissons Ratio (y) = 0.36254 0.29142
# Poissons Ratio (z) = 0.40275 0.12819
#
# Static dielectric constant tensor:
#      x y z
#    x 1.923790 0.000000 0.000000 
#    y 0.000000 1.870720 0.000000 
#    z 0.000000 0.000000 1.816450 
# 
# From -- ./inp_files/2713.got.cif
#   From: 2010.05.17/outbox.cif.g08.bks.cpg/sg41_2_cif.got.tgz:2713.got - 2010.06.03 18:54:24.
