data_PCOD9366840
_publ_section_title
;
Structure prediction by ZEFSAII (Michael W. Deem and Ramdas Pophale) SiO2 
 PCOD9366840
Probable space group: A B A 2
;
_chemical_formula_sum "Si O2"
_cell_formula_units_Z 56
_cell_length_a 19.732676
_cell_length_b 11.022139
_cell_length_c 12.514277
_cell_angle_alpha 90.000000
_cell_angle_beta 90.000000
_cell_angle_gamma 90.000000
_cell_volume 2721.808916
_symmetry_space_group_name_H-M "A B A 2"
_symmetry_group_IT_number 41
_symmetry_cell_setting 'orthorhombic'
loop_
_space_group_symop_operation_xyz
x,y,z
-x,-y,z
1/2-x,y,1/2+z
1/2+x,-y,1/2+z
x,1/2+y,1/2+z
-x,1/2-y,1/2+z
1/2-x,1/2+y,z
1/2+x,1/2-y,z
loop_
_atom_site_type_symbol
_atom_site_label
_atom_site_fract_x
_atom_site_fract_y
_atom_site_fract_z
Si Si1 0.002495 0.144881 0.151370
Si Si2 0.255175 0.185586 0.633862
Si Si3 0.203195 0.504233 0.806384
Si Si4 0.175435 0.081484 0.936986
Si Si5 0.557828 0.085917 0.433705
Si Si6 0.629968 0.763758 0.771757
Si Si7 0.630509 0.741755 0.249978
O O1 0.946306 0.216245 0.219361
O O2 0.075609 0.193993 0.183607
O O3 0.980284 0.157250 0.027975
O O4 0.000000 0.000000 0.173910
O O5 0.287858 0.171732 0.518856
O O6 0.301777 0.273232 0.708321
O O7 0.177666 0.222398 0.648450
O O8 0.267591 0.056047 0.693643
O O9 0.264913 0.498762 0.888494
O O10 0.153660 0.616699 0.836918
O O11 0.161871 0.382950 0.793731
O O12 0.142863 0.156418 0.839318
O O13 0.115943 0.999655 0.985953
O O14 0.595797 0.166735 0.347606
O O15 0.500000 0.000000 0.384175
#
# Coordination Sequence:
#
# PCOD9366840 Si02
#       7
#     8   8   8   8   8   8   8
#     4  11  21  38  65  88 122 167 214 254 317 387
#     4   9  21  37  59  88 123 160 205 256 309 377
#     4   9  21  38  58  86 124 167 200 259 307 372
#     4  11  22  37  62  96 124 164 214 258 321 373
#     4  11  23  39  66  91 124 168 209 261 315 390
#     4  10  21  42  62  89 123 167 213 253 316 377
#     4  11  21  36  61  92 121 162 212 262 309 371
#
# _framework density 20.574553000000002
#
# number of rings (size 3 to 8) (size 9 to 14) (size 15 to 20)
#    0.857    0.857    1.429    4.286    2.000    1.143 
#    0.000    0.000    3.143    0.000    0.000    0.000 
#    0.000    0.000    0.000    0.000    0.000    0.000 
#
# Total GULP energy -156228.928168 kJ/mol
# GULP energy per Si atom -5579.604577 kJ/mol
# Density = 2.052772 g / cm^3
# Si number density = 20.574553 Si / 1000 Ang^3
#
#
#
# Elastic Constant Matrix: (Units=GPa)
#
#
# Indices 1 2 3 4 5 6 
#
# 1 87.9158 0.5069 4.4152 0.0000 0.0000 0.0000
# 2 0.5069 35.6190 -3.8690 0.0000 0.0000 0.0000
# 3 4.4152 -3.8690 48.3272 0.0000 0.0000 0.0000
# 4 0.0000 0.0000 0.0000 19.9578 0.0000 0.0000
# 5 0.0000 0.0000 0.0000 0.0000 26.6662 0.0000
# 6 0.0000 0.0000 0.0000 0.0000 0.0000 36.9229
#
#
#
# Elastic Compliance Matrix: (Units=1/GPa)
#
#
# Indices 1 2 3 4 5 6 
#
# 1 0.011430 -0.000278 -0.001067 0.000000 0.000000 0.000000
# 2 -0.000278 0.028328 0.002293 0.000000 0.000000 0.000000
# 3 -0.001067 0.002293 0.020973 0.000000 0.000000 0.000000
# 4 0.000000 0.000000 0.000000 0.050106 0.000000 0.000000
# 5 0.000000 0.000000 0.000000 0.000000 0.037501 0.000000
# 6 0.000000 0.000000 0.000000 0.000000 0.000000 0.027083
#
#
# Mechanical properties :
#
#
# Convention : Reuss Voigt Hill
#
# Bulk Modulus (GPa) = 15.96740 19.32980 17.64860
# Shear Modulus (GPa) = 25.72017 28.09665 26.90841
#
# Velocity S-wave (km/s) = 3.53951 3.69941 3.62034
# Velocity P-wave (km/s) = 4.94790 5.25956 5.10611
#
# Compressibility (1/GPa) = 0.06262762
#
# Stress axis : x y z
#
# Youngs Moduli (GPa) = 87.49148 35.30079 47.67959
#
# Poissons Ratio (x) = 0.00983 0.05085
# Poissons Ratio (y) = 0.02437 -0.10935
# Poissons Ratio (z) = 0.09331 -0.08096
#
# Static dielectric constant tensor:
#      x y z
#    x 1.721950 0.000000 0.000000 
#    y 0.000000 1.742640 0.000000 
#    z 0.000000 0.000000 1.743720 
# 
# From -- ./inp_files/6227.got.cif
#   From: 2010.05.17/outbox.cif.g08.bks.cpg/sg41_4_cif.got.tgz:6227.got - 2010.06.03 18:54:24.
