data_PCOD9366445
_publ_section_title
;
Structure prediction by ZEFSAII (Michael W. Deem and Ramdas Pophale) SiO2 
 PCOD9366445
Probable space group: A B A 2
;
_chemical_formula_sum "Si O2"
_cell_formula_units_Z 60
_cell_length_a 12.792137
_cell_length_b 10.174512
_cell_length_c 20.465384
_cell_angle_alpha 90.000000
_cell_angle_beta 90.000000
_cell_angle_gamma 90.000000
_cell_volume 2663.646502
_symmetry_space_group_name_H-M "A B A 2"
_symmetry_group_IT_number 41
_symmetry_cell_setting 'orthorhombic'
loop_
_space_group_symop_operation_xyz
x,y,z
-x,-y,z
1/2-x,y,1/2+z
1/2+x,-y,1/2+z
x,1/2+y,1/2+z
-x,1/2-y,1/2+z
1/2-x,1/2+y,z
1/2+x,1/2-y,z
loop_
_atom_site_type_symbol
_atom_site_label
_atom_site_fract_x
_atom_site_fract_y
_atom_site_fract_z
Si Si1 0.639833 0.310745 0.160490
Si Si2 0.980386 0.358264 0.530180
Si Si3 0.714816 0.820045 0.454576
Si Si4 0.167496 0.189165 0.579359
Si Si5 0.055410 0.177306 0.702601
Si Si6 0.618984 0.544256 0.258551
Si Si7 0.500000 0.000000 0.312678
Si Si8 0.205938 0.920857 0.870242
O O1 0.573292 0.373974 0.101216
O O2 0.738982 0.252756 0.123131
O O3 0.568030 0.200567 0.192657
O O4 0.660382 0.424749 0.213097
O O5 0.899381 0.284264 0.483424
O O6 0.000000 0.500000 0.500251
O O7 0.088041 0.288749 0.546014
O O8 0.777344 0.876927 0.517660
O O9 0.765851 0.694283 0.420824
O O10 0.709343 0.936660 0.403433
O O11 0.101353 0.117662 0.635816
O O12 0.099527 0.323059 0.716935
O O13 0.070821 0.089805 0.765580
O O14 0.500000 0.500000 0.280742
O O15 0.704794 0.577017 0.313793
O O16 0.415604 0.909008 0.348819
#
# Coordination Sequence:
#
# PCOD9366445 Si02
#       8
#     8   8   8   8   8   8   4   8
#     4   9  19  37  67 104 131 174 229 288 370 422
#     4  10  20  41  68 101 138 186 233 294 367 425
#     4  11  27  45  69 105 136 195 240 294 350 440
#     4  10  21  41  70  99 140 174 232 299 359 431
#     4  10  22  42  66 105 134 178 225 303 361 418
#     4  10  22  41  72  99 139 182 237 293 358 427
#     4  12  28  44  70 100 146 192 240 298 352 440
#     4  12  28  46  71 101 145 198 246 287 357 432
#
# _framework density 22.525510000000001
#
# number of rings (size 3 to 8) (size 9 to 14) (size 15 to 20)
#    0.000    1.600    0.000    4.400    8.400    2.133 
#   12.000    0.000    0.000    0.000    0.000    0.000 
#    0.000    0.000    0.000    0.000    0.000    0.000 
#
# Total GULP energy -167487.817689 kJ/mol
# GULP energy per Si atom -5582.927256 kJ/mol
# Density = 2.247424 g / cm^3
# Si number density = 22.525510 Si / 1000 Ang^3
#
#
#
# Elastic Constant Matrix: (Units=GPa)
#
#
# Indices 1 2 3 4 5 6 
#
# 1 109.9153 25.4597 50.2017 0.0000 0.0000 0.0000
# 2 25.4597 30.0554 19.3511 0.0000 0.0000 0.0000
# 3 50.2017 19.3511 99.5538 0.0000 0.0000 0.0000
# 4 0.0000 0.0000 0.0000 19.7795 0.0000 0.0000
# 5 0.0000 0.0000 0.0000 0.0000 47.3648 0.0000
# 6 0.0000 0.0000 0.0000 0.0000 0.0000 12.1850
#
#
#
# Elastic Compliance Matrix: (Units=1/GPa)
#
#
# Indices 1 2 3 4 5 6 
#
# 1 0.013294 -0.007938 -0.005160 0.000000 0.000000 0.000000
# 2 -0.007938 0.042772 -0.004311 0.000000 0.000000 0.000000
# 3 -0.005160 -0.004311 0.013485 0.000000 0.000000 0.000000
# 4 0.000000 0.000000 0.000000 0.050557 0.000000 0.000000
# 5 0.000000 0.000000 0.000000 0.000000 0.021113 0.000000
# 6 0.000000 0.000000 0.000000 0.000000 0.000000 0.082068
#
#
# Mechanical properties :
#
#
# Convention : Reuss Voigt Hill
#
# Bulk Modulus (GPa) = 28.79264 47.72773 38.26019
# Shear Modulus (GPa) = 18.54014 25.50000 22.02007
#
# Velocity S-wave (km/s) = 2.87204 3.36824 3.12999
# Velocity P-wave (km/s) = 4.87936 6.03001 5.48494
#
# Compressibility (1/GPa) = 0.03473110
#
# Stress axis : x y z
#
# Youngs Moduli (GPa) = 75.22396 23.37982 74.15635
#
# Poissons Ratio (x) = 0.18560 0.38268
# Poissons Ratio (y) = 0.59716 0.31968
# Poissons Ratio (z) = 0.38819 0.10079
#
# Static dielectric constant tensor:
#      x y z
#    x 1.959310 0.000000 0.000000 
#    y 0.000000 1.786200 0.000000 
#    z 0.000000 0.000000 1.840910 
# 
# From -- ./inp_files/11428.got.cif
#   From: 2010.05.17/outbox.cif.g08.bks.cpg/sg41_6_cif.got.tgz:11428.got - 2010.06.03 18:54:24.
