data_PCOD9366400
_publ_section_title
;
Structure prediction by ZEFSAII (Michael W. Deem and Ramdas Pophale) SiO2 
 PCOD9366400
Probable space group: A B A 2
;
_chemical_formula_sum "Si O2"
_cell_formula_units_Z 60
_cell_length_a 11.434388
_cell_length_b 12.255992
_cell_length_c 18.647724
_cell_angle_alpha 90.000000
_cell_angle_beta 90.000000
_cell_angle_gamma 90.000000
_cell_volume 2613.287712
_symmetry_space_group_name_H-M "A B A 2"
_symmetry_group_IT_number 41
_symmetry_cell_setting 'orthorhombic'
loop_
_space_group_symop_operation_xyz
x,y,z
-x,-y,z
1/2-x,y,1/2+z
1/2+x,-y,1/2+z
x,1/2+y,1/2+z
-x,1/2-y,1/2+z
1/2-x,1/2+y,z
1/2+x,1/2-y,z
loop_
_atom_site_type_symbol
_atom_site_label
_atom_site_fract_x
_atom_site_fract_y
_atom_site_fract_z
Si Si1 0.721890 0.192013 0.156340
Si Si2 0.195780 0.392912 0.311383
Si Si3 0.814368 0.028003 0.538900
Si Si4 0.000000 0.000000 0.731902
Si Si5 0.479829 0.740169 0.677214
Si Si6 0.537561 0.844297 0.978578
Si Si7 0.036263 0.885805 0.318082
Si Si8 0.416349 0.395855 0.957856
O O1 0.710347 0.183214 0.242292
O O2 0.707943 0.072673 0.119308
O O3 0.854770 0.229731 0.142745
O O4 0.605677 0.264128 0.139052
O O5 0.327823 0.405178 0.337485
O O6 0.120941 0.357169 0.378664
O O7 0.117268 0.491457 0.280200
O O8 0.698708 0.062190 0.497320
O O9 0.922111 0.100572 0.510593
O O10 0.854384 0.906123 0.517454
O O11 0.984872 0.890282 0.687012
O O12 0.478135 0.794959 0.756710
O O13 0.532261 0.868353 0.892745
O O14 0.535126 0.715284 0.991136
O O15 0.000000 0.000000 0.283013
O O16 0.500000 0.500000 0.954374
#
# Coordination Sequence:
#
# PCOD9366400 Si02
#       8
#     8   8   8   4   8   8   8   8
#     4  10  24  47  70 110 144 203 248 312 380 456
#     4  10  21  42  68 105 142 184 245 309 372 440
#     4  11  26  48  70 105 149 199 255 304 388 466
#     4  10  20  40  66 112 136 186 238 308 380 446
#     4  10  24  43  74 106 148 190 255 314 380 445
#     4  11  24  47  71 102 146 199 243 308 383 451
#     4  11  21  42  68 103 144 188 249 306 379 447
#     4  12  26  45  76 112 143 194 257 322 372 458
#
# _framework density 22.959585000000001
#
# number of rings (size 3 to 8) (size 9 to 14) (size 15 to 20)
#    0.000    1.333    3.333    1.600    5.600    4.267 
#    2.400    2.667    0.000    0.000    0.000    0.000 
#    0.000    0.000    0.000    0.000    0.000    0.000 
#
# Total GULP energy -167347.443933 kJ/mol
# GULP energy per Si atom -5578.248131 kJ/mol
# Density = 2.290733 g / cm^3
# Si number density = 22.959585 Si / 1000 Ang^3
#
#
#
# Elastic Constant Matrix: (Units=GPa)
#
#
# Indices 1 2 3 4 5 6 
#
# 1 117.0685 45.0066 36.8818 0.0000 0.0000 0.0000
# 2 45.0066 131.4685 29.3808 0.0000 0.0000 0.0000
# 3 36.8818 29.3808 108.3895 0.0000 0.0000 0.0000
# 4 0.0000 0.0000 0.0000 19.5564 0.0000 0.0000
# 5 0.0000 0.0000 0.0000 0.0000 8.3304 0.0000
# 6 0.0000 0.0000 0.0000 0.0000 0.0000 23.1375
#
#
#
# Elastic Compliance Matrix: (Units=1/GPa)
#
#
# Indices 1 2 3 4 5 6 
#
# 1 0.010571 -0.002997 -0.002785 0.000000 0.000000 0.000000
# 2 -0.002997 0.008946 -0.001405 0.000000 0.000000 0.000000
# 3 -0.002785 -0.001405 0.010555 0.000000 0.000000 0.000000
# 4 0.000000 0.000000 0.000000 0.051134 0.000000 0.000000
# 5 0.000000 0.000000 0.000000 0.000000 0.120043 0.000000
# 6 0.000000 0.000000 0.000000 0.000000 0.000000 0.043220
#
#
# Mechanical properties :
#
#
# Convention : Reuss Voigt Hill
#
# Bulk Modulus (GPa) = 63.70020 64.38499 64.04259
# Shear Modulus (GPa) = 18.93396 26.58201 22.75799
#
# Velocity S-wave (km/s) = 2.87481 3.40630 3.15178
# Velocity P-wave (km/s) = 6.23090 6.60107 6.41865
#
# Compressibility (1/GPa) = 0.01569854
#
# Stress axis : x y z
#
# Youngs Moduli (GPa) = 94.59483 111.77783 94.74594
#
# Poissons Ratio (x) = 0.33496 0.26385
# Poissons Ratio (y) = 0.28347 0.13315
# Poissons Ratio (z) = 0.26343 0.15709
#
# Static dielectric constant tensor:
#      x y z
#    x 1.922760 0.000000 0.000000 
#    y 0.000000 1.851390 0.000000 
#    z 0.000000 0.000000 1.904980 
# 
# From -- ./inp_files/11411.got.cif
#   From: 2010.05.17/outbox.cif.g08.bks.cpg/sg41_6_cif.got.tgz:11411.got - 2010.06.03 18:54:24.
