data_PCOD9366434
_publ_section_title
;
Structure prediction by ZEFSAII (Michael W. Deem and Ramdas Pophale) SiO2 
 PCOD9366434
Probable space group: A B A 2
;
_chemical_formula_sum "Si O2"
_cell_formula_units_Z 40
_cell_length_a 8.533610
_cell_length_b 17.863056
_cell_length_c 10.568361
_cell_angle_alpha 90.000000
_cell_angle_beta 90.000000
_cell_angle_gamma 90.000000
_cell_volume 1611.002411
_symmetry_space_group_name_H-M "A B A 2"
_symmetry_group_IT_number 41
_symmetry_cell_setting 'orthorhombic'
loop_
_space_group_symop_operation_xyz
x,y,z
-x,-y,z
1/2-x,y,1/2+z
1/2+x,-y,1/2+z
x,1/2+y,1/2+z
-x,1/2-y,1/2+z
1/2-x,1/2+y,z
1/2+x,1/2-y,z
loop_
_atom_site_type_symbol
_atom_site_label
_atom_site_fract_x
_atom_site_fract_y
_atom_site_fract_z
Si Si1 0.414223 0.352853 0.176250
Si Si2 0.007935 0.623258 0.414004
Si Si3 0.000000 0.000000 0.310928
Si Si4 0.812444 0.915707 0.529250
Si Si5 0.000000 0.000000 0.733713
Si Si6 0.733613 0.793073 0.218361
O O1 0.413192 0.437315 0.226732
O O2 0.283254 0.295813 0.225792
O O3 0.584738 0.318149 0.217420
O O4 0.400457 0.345028 0.023586
O O5 0.131430 0.576128 0.498543
O O6 0.125270 0.675133 0.331999
O O7 0.931596 0.565765 0.318786
O O8 0.099565 0.052957 0.406616
O O9 0.832687 0.831803 0.587962
O O10 0.868764 0.965446 0.645186
#
# Coordination Sequence:
#
# PCOD9366434 Si02
#       6
#     8   8   4   8   4   8
#     4  11  24  41  71 102 136 189 235 297 360 430
#     4  10  20  41  65  90 142 177 231 297 353 429
#     4  11  21  42  68 100 135 177 238 296 358 417
#     4   9  20  40  67  89 135 185 223 294 353 424
#     4   9  19  38  64  98 121 183 234 282 358 417
#     4  10  23  43  67  96 138 187 236 287 360 434
#
# _framework density 24.829260000000001
#
# number of rings (size 3 to 8) (size 9 to 14) (size 15 to 20)
#    0.000    2.000    2.000    0.600    2.800    0.000 
#    7.200    2.000    0.000    0.000    0.000    0.000 
#    0.000    0.000    0.000    0.000    0.000    0.000 
#
# Total GULP energy -111707.959911 kJ/mol
# GULP energy per Si atom -5585.397996 kJ/mol
# Density = 2.477275 g / cm^3
# Si number density = 24.829260 Si / 1000 Ang^3
#
#
#
# Elastic Constant Matrix: (Units=GPa)
#
#
# Indices 1 2 3 4 5 6 
#
# 1 24.6235 35.9243 12.8099 0.0000 0.0000 0.0000
# 2 35.9243 160.3191 54.5808 0.0000 0.0000 0.0000
# 3 12.8099 54.5808 119.5238 0.0000 0.0000 0.0000
# 4 0.0000 0.0000 0.0000 24.5442 0.0000 0.0000
# 5 0.0000 0.0000 0.0000 0.0000 13.6166 0.0000
# 6 0.0000 0.0000 0.0000 0.0000 0.0000 37.7913
#
#
#
# Elastic Compliance Matrix: (Units=1/GPa)
#
#
# Indices 1 2 3 4 5 6 
#
# 1 0.060349 -0.013405 -0.000346 0.000000 0.000000 0.000000
# 2 -0.013405 0.010363 -0.003296 0.000000 0.000000 0.000000
# 3 -0.000346 -0.003296 0.009909 0.000000 0.000000 0.000000
# 4 0.000000 0.000000 0.000000 0.040743 0.000000 0.000000
# 5 0.000000 0.000000 0.000000 0.000000 0.073440 0.000000
# 6 0.000000 0.000000 0.000000 0.000000 0.000000 0.026461
#
#
# Mechanical properties :
#
#
# Convention : Reuss Voigt Hill
#
# Bulk Modulus (GPa) = 21.49305 56.78850 39.14078
# Shear Modulus (GPa) = 18.45914 28.60053 23.52984
#
# Velocity S-wave (km/s) = 2.72957 3.39763 3.08176
# Velocity P-wave (km/s) = 4.31384 6.18976 5.33490
#
# Compressibility (1/GPa) = 0.04652666
#
# Stress axis : x y z
#
# Youngs Moduli (GPa) = 16.57022 96.49316 100.92146
#
# Poissons Ratio (x) = 1.29350 0.03496
# Poissons Ratio (y) = 0.22213 0.33262
# Poissons Ratio (z) = 0.00574 0.31802
#
# Static dielectric constant tensor:
#      x y z
#    x 1.981030 0.000000 0.000000 
#    y 0.000000 1.977390 0.000000 
#    z 0.000000 0.000000 2.059200 
# 
# From -- ./inp_files/4389.got.cif
#   From: 2010.05.17/outbox.cif.g08.bks.cpg/sg41_3_cif.got.tgz:4389.got - 2010.06.03 18:54:24.
