data_PCOD9366935
_publ_section_title
;
Structure prediction by ZEFSAII (Michael W. Deem and Ramdas Pophale) SiO2 
 PCOD9366935
Probable space group: A B A 2
;
_chemical_formula_sum "Si O2"
_cell_formula_units_Z 64
_cell_length_a 18.151422
_cell_length_b 11.941060
_cell_length_c 13.490964
_cell_angle_alpha 90.000000
_cell_angle_beta 90.000000
_cell_angle_gamma 90.000000
_cell_volume 2924.128931
_symmetry_space_group_name_H-M "A B A 2"
_symmetry_group_IT_number 41
_symmetry_cell_setting 'orthorhombic'
loop_
_space_group_symop_operation_xyz
x,y,z
-x,-y,z
1/2-x,y,1/2+z
1/2+x,-y,1/2+z
x,1/2+y,1/2+z
-x,1/2-y,1/2+z
1/2-x,1/2+y,z
1/2+x,1/2-y,z
loop_
_atom_site_type_symbol
_atom_site_label
_atom_site_fract_x
_atom_site_fract_y
_atom_site_fract_z
Si Si1 0.784098 0.150391 0.569400
Si Si2 0.918052 0.997964 0.854285
Si Si3 0.947977 0.848460 0.660556
Si Si4 0.081995 0.538037 0.779104
Si Si5 0.206016 0.180239 0.897387
Si Si6 0.149296 0.068930 0.479037
Si Si7 0.601943 0.202366 0.230097
Si Si8 0.339823 0.828787 0.709174
O O1 0.811782 0.236583 0.487353
O O2 0.825487 0.171510 0.671830
O O3 0.701084 0.173197 0.603727
O O4 0.802626 0.027681 0.530983
O O5 0.929135 0.936527 0.747571
O O6 0.851551 0.924364 0.899122
O O7 0.899979 0.126537 0.829027
O O8 0.000000 0.000000 0.903080
O O9 0.901892 0.877112 0.563341
O O10 0.918593 0.729729 0.698534
O O11 0.035400 0.838224 0.658047
O O12 0.093534 0.523732 0.896567
O O13 0.093853 0.667006 0.750783
O O14 0.145436 0.457264 0.735737
O O15 0.000000 0.500000 0.750346
O O16 0.289384 0.140830 0.919446
O O17 0.197478 0.252705 0.796018
#
# Coordination Sequence:
#
# PCOD9366935 Si02
#       8
#     8   8   8   8   8   8   8   8
#     4  12  26  43  70 103 141 185 234 289 354 425
#     4   9  21  42  73  96 132 182 231 284 352 412
#     4  10  21  45  68  98 135 184 236 288 352 422
#     4  12  27  44  71 105 142 186 236 295 358 424
#     4  11  25  46  69 105 140 184 236 293 353 426
#     4  12  26  41  70 106 139 181 243 294 351 427
#     4  11  24  44  72 100 139 184 233 289 362 418
#     4  11  24  47  71  97 148 187 231 294 355 425
#
# _framework density 21.886859999999999
#
# number of rings (size 3 to 8) (size 9 to 14) (size 15 to 20)
#    0.000    1.000    5.000    0.750    5.250    1.000 
#    0.000    0.625    0.000    0.000    0.000    0.000 
#    0.000    0.000    0.000    0.000    0.000    0.000 
#
# Total GULP energy -178657.803473 kJ/mol
# GULP energy per Si atom -5583.056359 kJ/mol
# Density = 2.183704 g / cm^3
# Si number density = 21.886860 Si / 1000 Ang^3
#
#
#
# Elastic Constant Matrix: (Units=GPa)
#
#
# Indices 1 2 3 4 5 6 
#
# 1 76.3271 18.7470 9.3935 0.0000 0.0000 0.0000
# 2 18.7470 126.0752 8.2853 0.0000 0.0000 0.0000
# 3 9.3935 8.2853 29.3196 0.0000 0.0000 0.0000
# 4 0.0000 0.0000 0.0000 16.6417 0.0000 0.0000
# 5 0.0000 0.0000 0.0000 0.0000 -3.2387 0.0000
# 6 0.0000 0.0000 0.0000 0.0000 0.0000 43.4544
#
#
#
# Elastic Compliance Matrix: (Units=1/GPa)
#
#
# Indices 1 2 3 4 5 6 
#
# 1 0.014040 -0.001826 -0.003982 0.000000 0.000000 0.000000
# 2 -0.001826 0.008319 -0.001766 0.000000 0.000000 0.000000
# 3 -0.003982 -0.001766 0.035882 0.000000 0.000000 0.000000
# 4 0.000000 0.000000 0.000000 0.060090 0.000000 0.000000
# 5 0.000000 0.000000 0.000000 0.000000 -0.308769 0.000000
# 6 0.000000 0.000000 0.000000 0.000000 0.000000 0.023013
#
#
# Mechanical properties :
#
#
# Convention : Reuss Voigt Hill
#
# Bulk Modulus (GPa) = 23.20570 33.84150 28.52360
# Shear Modulus (GPa) = -36.25497 24.39122 -5.93188
#
# Velocity S-wave (km/s) = -4.07439 3.34192 -1.64807
# Velocity P-wave (km/s) = 3.39244 5.51242 3.07231
#
# Compressibility (1/GPa) = 0.04309286
#
# Stress axis : x y z
#
# Youngs Moduli (GPa) = 71.22465 120.20171 27.86937
#
# Poissons Ratio (x) = 0.21949 0.11098
# Poissons Ratio (y) = 0.13006 0.04921
# Poissons Ratio (z) = 0.28363 0.21226
#
# Static dielectric constant tensor:
#      x y z
#    x 1.826990 0.000000 0.000000 
#    y 0.000000 1.851550 0.000000 
#    z 0.000000 0.000000 1.782490 
# 
# From -- ./inp_files/8822.got.cif
#   From: 2010.05.17/outbox.cif.g08.bks.cpg/sg41_5_cif.got.tgz:8822.got - 2010.06.03 18:54:24.
