data_PCOD9366693
_publ_section_title
;
Structure prediction by ZEFSAII (Michael W. Deem and Ramdas Pophale) SiO2 
 PCOD9366693
Probable space group: A B A 2
;
_chemical_formula_sum "Si O2"
_cell_formula_units_Z 56
_cell_length_a 9.190813
_cell_length_b 15.680141
_cell_length_c 19.619784
_cell_angle_alpha 90.000000
_cell_angle_beta 90.000000
_cell_angle_gamma 90.000000
_cell_volume 2827.470714
_symmetry_space_group_name_H-M "A B A 2"
_symmetry_group_IT_number 41
_symmetry_cell_setting 'orthorhombic'
loop_
_space_group_symop_operation_xyz
x,y,z
-x,-y,z
1/2-x,y,1/2+z
1/2+x,-y,1/2+z
x,1/2+y,1/2+z
-x,1/2-y,1/2+z
1/2-x,1/2+y,z
1/2+x,1/2-y,z
loop_
_atom_site_type_symbol
_atom_site_label
_atom_site_fract_x
_atom_site_fract_y
_atom_site_fract_z
Si Si1 0.406839 0.688192 0.352370
Si Si2 0.327901 0.648476 0.505316
Si Si3 0.433747 0.224691 0.570568
Si Si4 0.332275 0.031858 0.761307
Si Si5 0.799184 0.164731 0.145082
Si Si6 0.270042 0.849137 0.806786
Si Si7 0.666381 0.987858 0.123177
O O1 0.365951 0.651062 0.426252
O O2 0.335282 0.621662 0.299494
O O3 0.351413 0.784929 0.337542
O O4 0.579758 0.678405 0.342448
O O5 0.452768 0.708702 0.538551
O O6 0.161320 0.680296 0.512546
O O7 0.331224 0.565888 0.553929
O O8 0.536627 0.170070 0.619309
O O9 0.306595 0.263064 0.616836
O O10 0.254833 0.045635 0.688625
O O11 0.500000 0.000000 0.751622
O O12 0.257986 0.953434 0.804658
O O13 0.787438 0.167038 0.225984
O O14 0.734228 0.079926 0.112370
O O15 0.500000 0.000000 0.144819
#
# Coordination Sequence:
#
# PCOD9366693 Si02
#       7
#     8   8   8   8   8   8   8
#     4  11  23  42  64  92 129 171 205 257 324 392
#     4  11  24  40  62  92 129 169 207 256 324 387
#     4  10  22  39  61  93 123 160 209 264 309 383
#     4   9  23  42  64  94 123 165 215 265 318 378
#     4  10  21  39  64  97 120 160 216 268 322 362
#     4  10  22  39  67  92 123 166 209 265 314 378
#     4  11  23  39  62  92 125 165 211 269 313 374
#
# _framework density 19.805686000000001
#
# number of rings (size 3 to 8) (size 9 to 14) (size 15 to 20)
#    0.000    1.714    1.429    1.714   10.000    4.000 
#    5.143    0.000    3.143    0.000    0.000    0.000 
#    0.000    0.000    0.000    0.000    0.000    0.000 
#
# Total GULP energy -156098.051488 kJ/mol
# GULP energy per Si atom -5574.930410 kJ/mol
# Density = 1.976061 g / cm^3
# Si number density = 19.805686 Si / 1000 Ang^3
#
#
#
# Elastic Constant Matrix: (Units=GPa)
#
#
# Indices 1 2 3 4 5 6 
#
# 1 87.8419 17.3839 11.1367 0.0000 0.0000 0.0000
# 2 17.3839 48.9854 10.9181 0.0000 0.0000 0.0000
# 3 11.1367 10.9181 41.2542 0.0000 0.0000 0.0000
# 4 0.0000 0.0000 0.0000 18.1580 0.0000 0.0000
# 5 0.0000 0.0000 0.0000 0.0000 5.2275 0.0000
# 6 0.0000 0.0000 0.0000 0.0000 0.0000 28.1317
#
#
#
# Elastic Compliance Matrix: (Units=1/GPa)
#
#
# Indices 1 2 3 4 5 6 
#
# 1 0.012451 -0.003899 -0.002329 0.000000 0.000000 0.000000
# 2 -0.003899 0.022915 -0.005012 0.000000 0.000000 0.000000
# 3 -0.002329 -0.005012 0.026195 0.000000 0.000000 0.000000
# 4 0.000000 0.000000 0.000000 0.055072 0.000000 0.000000
# 5 0.000000 0.000000 0.000000 0.000000 0.191297 0.000000
# 6 0.000000 0.000000 0.000000 0.000000 0.000000 0.035547
#
#
# Mechanical properties :
#
#
# Convention : Reuss Voigt Hill
#
# Bulk Modulus (GPa) = 25.58839 28.55098 27.06969
# Shear Modulus (GPa) = 13.19312 19.54628 16.36970
#
# Velocity S-wave (km/s) = 2.58374 3.14491 2.87804
# Velocity P-wave (km/s) = 4.67426 5.25682 4.97408
#
# Compressibility (1/GPa) = 0.03908022
#
# Stress axis : x y z
#
# Youngs Moduli (GPa) = 80.31418 43.63916 38.17495
#
# Poissons Ratio (x) = 0.17017 0.08892
# Poissons Ratio (y) = 0.31318 0.19133
# Poissons Ratio (z) = 0.18707 0.21872
#
# Static dielectric constant tensor:
#      x y z
#    x 1.678690 0.000000 0.000000 
#    y 0.000000 1.970470 0.000000 
#    z 0.000000 0.000000 1.695890 
# 
# From -- ./inp_files/11214.got.cif
#   From: 2010.05.17/outbox.cif.g08.bks.cpg/sg41_6_cif.got.tgz:11214.got - 2010.06.03 18:54:24.
