data_PCOD9366677
_publ_section_title
;
Structure prediction by ZEFSAII (Michael W. Deem and Ramdas Pophale) SiO2 
 PCOD9366677
Probable space group: A B A 2
;
_chemical_formula_sum "Si O2"
_cell_formula_units_Z 48
_cell_length_a 10.436842
_cell_length_b 12.977113
_cell_length_c 15.651698
_cell_angle_alpha 90.000000
_cell_angle_beta 90.000000
_cell_angle_gamma 90.000000
_cell_volume 2119.867198
_symmetry_space_group_name_H-M "A B A 2"
_symmetry_group_IT_number 41
_symmetry_cell_setting 'orthorhombic'
loop_
_space_group_symop_operation_xyz
x,y,z
-x,-y,z
1/2-x,y,1/2+z
1/2+x,-y,1/2+z
x,1/2+y,1/2+z
-x,1/2-y,1/2+z
1/2-x,1/2+y,z
1/2+x,1/2-y,z
loop_
_atom_site_type_symbol
_atom_site_label
_atom_site_fract_x
_atom_site_fract_y
_atom_site_fract_z
Si Si1 0.329129 0.122407 0.953840
Si Si2 0.266663 0.806386 0.558967
Si Si3 0.294833 0.182085 0.220327
Si Si4 0.133192 0.495741 0.124882
Si Si5 0.946438 0.238983 0.816492
Si Si6 0.361871 0.951435 0.413843
O O1 0.435672 0.181182 0.897318
O O2 0.245142 0.039164 0.902586
O O3 0.238669 0.213089 0.993308
O O4 0.378176 0.058329 0.035451
O O5 0.334435 0.750496 0.637745
O O6 0.340632 0.890887 0.502947
O O7 0.161212 0.878408 0.602405
O O8 0.280225 0.065073 0.185842
O O9 0.410231 0.208385 0.286723
O O10 0.152481 0.211906 0.249566
O O11 0.000000 0.500000 0.172863
O O12 0.870295 0.135814 0.843071
O O13 0.500000 0.000000 0.417855
#
# Coordination Sequence:
#
# PCOD9366677 Si02
#       6
#     8   8   8   8   8   8
#     4   9  21  39  60  88 118 156 205 254 300 358
#     4   9  21  39  60  88 118 156 205 254 300 358
#     4  11  24  40  61  91 126 161 200 250 308 365
#     4  10  21  39  63  86 117 162 207 250 302 362
#     4  11  24  40  61  91 126 161 200 250 308 365
#     4  10  21  39  63  86 117 162 207 250 302 362
#
# _framework density 22.642928000000001
#
# number of rings (size 3 to 8) (size 9 to 14) (size 15 to 20)
#    0.000    2.000    0.000    2.000    0.000   16.667 
#    0.000    1.667    0.000    0.000    0.000    0.000 
#    0.000    0.000    0.000    0.000    0.000    0.000 
#
# Total GULP energy -133779.198023 kJ/mol
# GULP energy per Si atom -5574.133251 kJ/mol
# Density = 2.259139 g / cm^3
# Si number density = 22.642928 Si / 1000 Ang^3
#
#
#
# Elastic Constant Matrix: (Units=GPa)
#
#
# Indices 1 2 3 4 5 6 
#
# 1 19.6878 -8.2341 -11.1915 0.0000 0.0000 0.0000
# 2 -8.2341 94.4943 8.7909 0.0000 0.0000 0.0000
# 3 -11.1915 8.7909 58.3419 0.0000 0.0000 0.0000
# 4 0.0000 0.0000 0.0000 20.4683 0.0000 0.0000
# 5 0.0000 0.0000 0.0000 0.0000 17.1106 0.0000
# 6 0.0000 0.0000 0.0000 0.0000 0.0000 22.0463
#
#
#
# Elastic Compliance Matrix: (Units=1/GPa)
#
#
# Indices 1 2 3 4 5 6 
#
# 1 0.058545 0.004114 0.010611 0.000000 0.000000 0.000000
# 2 0.004114 0.011022 -0.000872 0.000000 0.000000 0.000000
# 3 0.010611 -0.000872 0.019307 0.000000 0.000000 0.000000
# 4 0.000000 0.000000 0.000000 0.048856 0.000000 0.000000
# 5 0.000000 0.000000 0.000000 0.000000 0.058443 0.000000
# 6 0.000000 0.000000 0.000000 0.000000 0.000000 0.045359
#
#
# Mechanical properties :
#
#
# Convention : Reuss Voigt Hill
#
# Bulk Modulus (GPa) = 8.57772 16.80609 12.69191
# Shear Modulus (GPa) = 19.78737 24.13562 21.96150
#
# Velocity S-wave (km/s) = 2.95937 3.26839 3.11771
# Velocity P-wave (km/s) = 3.93365 4.65634 4.31017
#
# Compressibility (1/GPa) = 0.11658106
#
# Stress axis : x y z
#
# Youngs Moduli (GPa) = 17.08085 90.72555 51.79458
#
# Poissons Ratio (x) = -0.37328 -0.54957
# Poissons Ratio (y) = -0.07028 0.04514
# Poissons Ratio (z) = -0.18124 0.07907
#
# Static dielectric constant tensor:
#      x y z
#    x 1.816650 0.000000 0.000000 
#    y 0.000000 1.891020 0.000000 
#    z 0.000000 0.000000 1.920460 
# 
# From -- ./inp_files/9977.got.cif
#   From: 2010.05.17/outbox.cif.g08.bks.cpg/sg41_5_cif.got.tgz:9977.got - 2010.06.03 18:54:24.
