data_PCOD9366569
_publ_section_title
;
Structure prediction by ZEFSAII (Michael W. Deem and Ramdas Pophale) SiO2 
 PCOD9366569
Probable space group: A B A 2
;
_chemical_formula_sum "Si O2"
_cell_formula_units_Z 64
_cell_length_a 9.030695
_cell_length_b 19.420165
_cell_length_c 20.168910
_cell_angle_alpha 90.000000
_cell_angle_beta 90.000000
_cell_angle_gamma 90.000000
_cell_volume 3537.174768
_symmetry_space_group_name_H-M "A B A 2"
_symmetry_group_IT_number 41
_symmetry_cell_setting 'orthorhombic'
loop_
_space_group_symop_operation_xyz
x,y,z
-x,-y,z
1/2-x,y,1/2+z
1/2+x,-y,1/2+z
x,1/2+y,1/2+z
-x,1/2-y,1/2+z
1/2-x,1/2+y,z
1/2+x,1/2-y,z
loop_
_atom_site_type_symbol
_atom_site_label
_atom_site_fract_x
_atom_site_fract_y
_atom_site_fract_z
Si Si1 0.405917 0.562148 0.257150
Si Si2 0.857338 0.106344 0.148548
Si Si3 0.606579 0.300891 0.340298
Si Si4 0.831265 0.475833 0.159092
Si Si5 0.839059 0.820328 0.629921
Si Si6 0.351992 0.753168 0.934135
Si Si7 0.894239 0.705570 0.526063
Si Si8 0.636494 0.717848 0.707159
O O1 0.500000 0.500000 0.288035
O O2 0.503537 0.584140 0.192836
O O3 0.390606 0.626633 0.304098
O O4 0.247660 0.537532 0.229959
O O5 0.899329 0.149508 0.083804
O O6 0.753210 0.156552 0.193300
O O7 0.764463 0.038492 0.129522
O O8 0.739914 0.292543 0.391629
O O9 0.457198 0.291171 0.381897
O O10 0.621392 0.243063 0.282515
O O11 0.822194 0.401938 0.122962
O O12 0.000000 0.500000 0.164336
O O13 0.873253 0.779338 0.562698
O O14 0.699702 0.782259 0.664282
O O15 0.978835 0.805572 0.678298
O O16 0.459426 0.710084 0.982078
O O17 0.248945 0.802065 0.979194
#
# Coordination Sequence:
#
# PCOD9366569 Si02
#       8
#     8   8   8   8   8   8   8   8
#     4  10  22  38  61  86 121 156 181 246 308 364
#     4  10  21  37  60  91 124 148 188 243 317 358
#     4  11  20  38  58  89 115 151 206 242 290 345
#     4  11  22  36  55  97 123 151 184 230 320 371
#     4  11  21  34  61  89 121 150 188 243 317 352
#     4  10  23  35  58  84 115 159 204 244 274 334
#     4  10  21  38  58  86 118 154 200 248 287 345
#     4  11  20  33  60  94 114 149 188 251 303 358
#
# _framework density 18.093534999999999
#
# number of rings (size 3 to 8) (size 9 to 14) (size 15 to 20)
#    0.000    1.500    2.500    4.500    1.750    0.000 
#    0.000    0.000    5.500    0.000    6.500    0.000 
#    0.000    0.000    0.000    0.000    0.000    0.000 
#
# Total GULP energy -178727.147082 kJ/mol
# GULP energy per Si atom -5585.223346 kJ/mol
# Density = 1.805235 g / cm^3
# Si number density = 18.093535 Si / 1000 Ang^3
#
#
#
# Elastic Constant Matrix: (Units=GPa)
#
#
# Indices 1 2 3 4 5 6 
#
# 1 68.3819 14.3770 16.0024 0.0000 0.0000 0.0000
# 2 14.3770 108.3984 18.6946 0.0000 0.0000 0.0000
# 3 16.0024 18.6946 74.7218 0.0000 0.0000 0.0000
# 4 0.0000 0.0000 0.0000 20.5126 0.0000 0.0000
# 5 0.0000 0.0000 0.0000 0.0000 23.8762 0.0000
# 6 0.0000 0.0000 0.0000 0.0000 0.0000 21.9778
#
#
#
# Elastic Compliance Matrix: (Units=1/GPa)
#
#
# Indices 1 2 3 4 5 6 
#
# 1 0.015645 -0.001565 -0.002959 0.000000 0.000000 0.000000
# 2 -0.001565 0.009798 -0.002116 0.000000 0.000000 0.000000
# 3 -0.002959 -0.002116 0.014546 0.000000 0.000000 0.000000
# 4 0.000000 0.000000 0.000000 0.048750 0.000000 0.000000
# 5 0.000000 0.000000 0.000000 0.000000 0.041883 0.000000
# 6 0.000000 0.000000 0.000000 0.000000 0.000000 0.045500
#
#
# Mechanical properties :
#
#
# Convention : Reuss Voigt Hill
#
# Bulk Modulus (GPa) = 37.44048 38.85003 38.14526
# Shear Modulus (GPa) = 25.21357 26.76851 25.99104
#
# Velocity S-wave (km/s) = 3.73703 3.85054 3.79421
# Velocity P-wave (km/s) = 6.27361 6.42551 6.35002
#
# Compressibility (1/GPa) = 0.02670906
#
# Stress axis : x y z
#
# Youngs Moduli (GPa) = 63.91731 102.06450 68.74674
#
# Poissons Ratio (x) = 0.15970 0.20343
# Poissons Ratio (y) = 0.10001 0.14548
# Poissons Ratio (z) = 0.18914 0.21599
#
# Static dielectric constant tensor:
#      x y z
#    x 1.656680 0.000000 0.000000 
#    y 0.000000 1.631590 0.000000 
#    z 0.000000 0.000000 1.601900 
# 
# From -- ./inp_files/9831.got.cif
#   From: 2010.05.17/outbox.cif.g08.bks.cpg/sg41_5_cif.got.tgz:9831.got - 2010.06.03 18:54:24.
