data_PCOD9366352
_publ_section_title
;
Structure prediction by ZEFSAII (Michael W. Deem and Ramdas Pophale) SiO2 
 PCOD9366352
Probable space group: A B A 2
;
_chemical_formula_sum "Si O2"
_cell_formula_units_Z 56
_cell_length_a 16.600784
_cell_length_b 11.652266
_cell_length_c 13.808206
_cell_angle_alpha 90.000000
_cell_angle_beta 90.000000
_cell_angle_gamma 90.000000
_cell_volume 2671.014505
_symmetry_space_group_name_H-M "A B A 2"
_symmetry_group_IT_number 41
_symmetry_cell_setting 'orthorhombic'
loop_
_space_group_symop_operation_xyz
x,y,z
-x,-y,z
1/2-x,y,1/2+z
1/2+x,-y,1/2+z
x,1/2+y,1/2+z
-x,1/2-y,1/2+z
1/2-x,1/2+y,z
1/2+x,1/2-y,z
loop_
_atom_site_type_symbol
_atom_site_label
_atom_site_fract_x
_atom_site_fract_y
_atom_site_fract_z
Si Si1 0.833504 0.087836 0.918120
Si Si2 0.638469 0.247025 0.097346
Si Si3 0.002562 0.861487 0.979897
Si Si4 0.416249 0.515006 0.592128
Si Si5 0.905669 0.380065 0.293003
Si Si6 0.732997 0.283187 0.291966
Si Si7 0.266757 0.606935 0.486596
O O1 0.780299 0.164843 0.848362
O O2 0.902324 0.161648 0.971610
O O3 0.876478 0.996063 0.847280
O O4 0.784634 0.010347 0.993272
O O5 0.622761 0.111150 0.104525
O O6 0.674979 0.288264 0.199791
O O7 0.707352 0.291401 0.022010
O O8 0.554892 0.303180 0.059262
O O9 0.965326 0.829827 0.873980
O O10 0.000000 0.000000 0.994772
O O11 0.500000 0.500000 0.535210
O O12 0.440044 0.580741 0.690998
O O13 0.347684 0.591460 0.544554
O O14 0.827116 0.303854 0.271378
O O15 0.713238 0.377167 0.373769
#
# Coordination Sequence:
#
# PCOD9366352 Si02
#       7
#     8   8   8   8   8   8   8
#     4  10  20  40  68  87 131 169 218 276 332 399
#     4  12  23  41  69  97 129 176 230 270 335 415
#     4  10  20  40  68  94 125 174 226 269 328 412
#     4  12  26  43  64  98 138 176 225 284 336 402
#     4  10  20  39  65  92 126 168 223 268 330 398
#     4  11  22  39  64  98 126 169 223 279 332 397
#     4  11  24  43  66  96 131 176 219 283 338 399
#
# _framework density 20.965816
#
# number of rings (size 3 to 8) (size 9 to 14) (size 15 to 20)
#    0.000    1.143    7.143    2.143    2.000    0.000 
#    0.000    0.714    6.286    0.000    0.000    0.000 
#    0.000    0.000    0.000    0.000    0.000    0.000 
#
# Total GULP energy -156210.392211 kJ/mol
# GULP energy per Si atom -5578.942579 kJ/mol
# Density = 2.091810 g / cm^3
# Si number density = 20.965816 Si / 1000 Ang^3
#
#
#
# Elastic Constant Matrix: (Units=GPa)
#
#
# Indices 1 2 3 4 5 6 
#
# 1 86.3499 29.1244 32.7284 0.0000 0.0000 0.0000
# 2 29.1244 63.2563 19.9332 0.0000 0.0000 0.0000
# 3 32.7284 19.9332 87.8920 0.0000 0.0000 0.0000
# 4 0.0000 0.0000 0.0000 18.8935 0.0000 0.0000
# 5 0.0000 0.0000 0.0000 0.0000 29.3368 0.0000
# 6 0.0000 0.0000 0.0000 0.0000 0.0000 19.7868
#
#
#
# Elastic Compliance Matrix: (Units=1/GPa)
#
#
# Indices 1 2 3 4 5 6 
#
# 1 0.015118 -0.005586 -0.004363 0.000000 0.000000 0.000000
# 2 -0.005586 0.019089 -0.002249 0.000000 0.000000 0.000000
# 3 -0.004363 -0.002249 0.013512 0.000000 0.000000 0.000000
# 4 0.000000 0.000000 0.000000 0.052928 0.000000 0.000000
# 5 0.000000 0.000000 0.000000 0.000000 0.034087 0.000000
# 6 0.000000 0.000000 0.000000 0.000000 0.000000 0.050539
#
#
# Mechanical properties :
#
#
# Convention : Reuss Voigt Hill
#
# Bulk Modulus (GPa) = 42.87432 44.56335 43.71884
# Shear Modulus (GPa) = 22.99436 23.98426 23.48931
#
# Velocity S-wave (km/s) = 3.31532 3.38593 3.35081
# Velocity P-wave (km/s) = 5.92867 6.04875 5.98901
#
# Compressibility (1/GPa) = 0.02332398
#
# Stress axis : x y z
#
# Youngs Moduli (GPa) = 66.14430 52.38515 74.00672
#
# Poissons Ratio (x) = 0.29262 0.32288
# Poissons Ratio (y) = 0.36948 0.16646
# Poissons Ratio (z) = 0.28857 0.11783
#
# Static dielectric constant tensor:
#      x y z
#    x 1.812590 0.000000 0.000000 
#    y 0.000000 1.784730 0.000000 
#    z 0.000000 0.000000 1.768010 
# 
# From -- ./inp_files/8378.got.cif
#   From: 2010.05.17/outbox.cif.g08.bks.cpg/sg41_5_cif.got.tgz:8378.got - 2010.06.03 18:54:24.
