data_PCOD9366507
_publ_section_title
;
Structure prediction by ZEFSAII (Michael W. Deem and Ramdas Pophale) SiO2 
 PCOD9366507
Probable space group: A B A 2
;
_chemical_formula_sum "Si O2"
_cell_formula_units_Z 56
_cell_length_a 21.424128
_cell_length_b 8.824983
_cell_length_c 12.756382
_cell_angle_alpha 90.000000
_cell_angle_beta 90.000000
_cell_angle_gamma 90.000000
_cell_volume 2411.818088
_symmetry_space_group_name_H-M "A B A 2"
_symmetry_group_IT_number 41
_symmetry_cell_setting 'orthorhombic'
loop_
_space_group_symop_operation_xyz
x,y,z
-x,-y,z
1/2-x,y,1/2+z
1/2+x,-y,1/2+z
x,1/2+y,1/2+z
-x,1/2-y,1/2+z
1/2-x,1/2+y,z
1/2+x,1/2-y,z
loop_
_atom_site_type_symbol
_atom_site_label
_atom_site_fract_x
_atom_site_fract_y
_atom_site_fract_z
Si Si1 0.589455 0.743919 0.185480
Si Si2 0.337510 0.814863 0.490082
Si Si3 0.716006 0.398000 0.738707
Si Si4 0.321937 0.795779 0.123277
Si Si5 0.278263 0.493101 0.456924
Si Si6 0.000000 0.500000 0.216203
Si Si7 0.087120 0.753066 0.795687
Si Si8 0.000000 0.000000 0.298637
O O1 0.611099 0.670831 0.077504
O O2 0.653111 0.791522 0.249518
O O3 0.550600 0.896397 0.158327
O O4 0.542447 0.625037 0.238899
O O5 0.309750 0.645852 0.496067
O O6 0.287340 0.944859 0.507537
O O7 0.360921 0.817587 0.372070
O O8 0.765967 0.305390 0.669597
O O9 0.689582 0.542566 0.678319
O O10 0.755888 0.462995 0.838381
O O11 0.318646 0.846202 0.999690
O O12 0.384258 0.729101 0.178851
O O13 0.037105 0.383820 0.286929
O O14 0.054299 0.606213 0.846610
#
# Coordination Sequence:
#
# PCOD9366507 Si02
#       8
#     8   8   8   8   8   4   8   4
#     4  11  23  44  66  98 133 185 228 296 339 428
#     4  12  24  40  68  98 138 176 236 278 368 430
#     4  12  23  40  67 100 142 175 224 289 357 434
#     4  12  23  40  67 100 142 175 224 289 357 434
#     4  12  22  40  64 110 134 184 214 284 374 444
#     4  10  20  44  66  86 128 180 232 276 354 390
#     4  11  23  44  66  98 133 185 228 296 339 428
#     4  10  28  44  70  94 136 192 244 284 350 398
#
# _framework density 23.218999
#
# number of rings (size 3 to 8) (size 9 to 14) (size 15 to 20)
#    0.000    0.571    7.143    0.000    2.000    3.429 
#    0.000    0.000    0.000    0.000    0.000    0.000 
#    0.000    0.000    0.000    0.000    0.000    0.000 
#
# Total GULP energy -156002.451912 kJ/mol
# GULP energy per Si atom -5571.516140 kJ/mol
# Density = 2.316615 g / cm^3
# Si number density = 23.218999 Si / 1000 Ang^3
#
#
#
# Elastic Constant Matrix: (Units=GPa)
#
#
# Indices 1 2 3 4 5 6 
#
# 1 82.3931 36.8241 14.7802 0.0000 0.0000 0.0000
# 2 36.8241 64.0576 6.9904 0.0000 0.0000 0.0000
# 3 14.7802 6.9904 84.4333 0.0000 0.0000 0.0000
# 4 0.0000 0.0000 0.0000 30.6612 0.0000 0.0000
# 5 0.0000 0.0000 0.0000 0.0000 6.4300 0.0000
# 6 0.0000 0.0000 0.0000 0.0000 0.0000 59.3330
#
#
#
# Elastic Compliance Matrix: (Units=1/GPa)
#
#
# Indices 1 2 3 4 5 6 
#
# 1 0.016711 -0.009372 -0.002149 0.000000 0.000000 0.000000
# 2 -0.009372 0.021009 -0.000099 0.000000 0.000000 0.000000
# 3 -0.002149 -0.000099 0.012228 0.000000 0.000000 0.000000
# 4 0.000000 0.000000 0.000000 0.032614 0.000000 0.000000
# 5 0.000000 0.000000 0.000000 0.000000 0.155522 0.000000
# 6 0.000000 0.000000 0.000000 0.000000 0.000000 0.016854
#
#
# Mechanical properties :
#
#
# Convention : Reuss Voigt Hill
#
# Bulk Modulus (GPa) = 37.44174 38.67481 38.05827
# Shear Modulus (GPa) = 17.41664 30.77079 24.09371
#
# Velocity S-wave (km/s) = 2.74177 3.64434 3.22479
# Velocity P-wave (km/s) = 5.11699 5.86523 5.50384
#
# Compressibility (1/GPa) = 0.02670816
#
# Stress axis : x y z
#
# Youngs Moduli (GPa) = 59.84023 47.59791 81.77885
#
# Poissons Ratio (x) = 0.44609 0.17577
# Poissons Ratio (y) = 0.56082 0.00808
# Poissons Ratio (z) = 0.12862 0.00470
#
# Static dielectric constant tensor:
#      x y z
#    x 1.941070 0.000000 0.000000 
#    y 0.000000 1.889100 0.000000 
#    z 0.000000 0.000000 1.969620 
# 
# From -- ./inp_files/9034.got.cif
#   From: 2010.05.17/outbox.cif.g08.bks.cpg/sg41_5_cif.got.tgz:9034.got - 2010.06.03 18:54:24.
