data_PCOD9366841
_publ_section_title
;
Structure prediction by ZEFSAII (Michael W. Deem and Ramdas Pophale) SiO2 
 PCOD9366841
Probable space group: A B A 2
;
_chemical_formula_sum "Si O2"
_cell_formula_units_Z 64
_cell_length_a 11.632660
_cell_length_b 21.575649
_cell_length_c 12.632695
_cell_angle_alpha 90.000000
_cell_angle_beta 90.000000
_cell_angle_gamma 90.000000
_cell_volume 3170.581445
_symmetry_space_group_name_H-M "A B A 2"
_symmetry_group_IT_number 41
_symmetry_cell_setting 'orthorhombic'
loop_
_space_group_symop_operation_xyz
x,y,z
-x,-y,z
1/2-x,y,1/2+z
1/2+x,-y,1/2+z
x,1/2+y,1/2+z
-x,1/2-y,1/2+z
1/2-x,1/2+y,z
1/2+x,1/2-y,z
loop_
_atom_site_type_symbol
_atom_site_label
_atom_site_fract_x
_atom_site_fract_y
_atom_site_fract_z
Si Si1 0.867318 0.018545 0.983490
Si Si2 0.877192 0.034998 0.219224
Si Si3 0.750126 0.927670 0.335366
Si Si4 0.485541 0.643110 0.319140
Si Si5 0.151427 0.772812 0.437022
Si Si6 0.010803 0.223596 0.111249
Si Si7 0.588700 0.321832 0.761904
Si Si8 0.115114 0.346348 0.417322
O O1 0.860790 0.080581 0.914898
O O2 0.803129 0.957249 0.941858
O O3 0.833929 0.042437 0.099970
O O4 0.000000 0.000000 0.984963
O O5 0.913015 0.095760 0.283879
O O6 0.789150 0.988952 0.273634
O O7 0.000000 0.000000 0.212448
O O8 0.659904 0.886093 0.268242
O O9 0.868306 0.890093 0.353020
O O10 0.538660 0.686921 0.407972
O O11 0.461528 0.683151 0.214261
O O12 0.155316 0.719825 0.348368
O O13 0.265132 0.811564 0.423133
O O14 0.125665 0.747659 0.553615
O O15 0.933032 0.280948 0.156189
O O16 0.952131 0.179242 0.022249
O O17 0.463952 0.331288 0.816285
#
# Coordination Sequence:
#
# PCOD9366841 Si02
#       8
#     8   8   8   8   8   8   8   8
#     4  11  21  41  63  91 123 167 216 256 316 383
#     4   9  20  38  62  87 118 167 211 249 314 381
#     4  11  23  37  66  93 127 166 212 272 314 389
#     4  10  21  42  62  93 132 169 215 267 327 389
#     4  10  24  38  64  95 124 171 212 266 323 384
#     4  10  23  40  62  95 127 170 215 262 328 394
#     4  10  24  40  61  96 130 167 208 268 328 383
#     4  11  22  43  66  89 127 168 216 267 316 394
#
# _framework density 20.185573000000002
#
# number of rings (size 3 to 8) (size 9 to 14) (size 15 to 20)
#    0.000    1.750    2.500    0.750    7.000    2.000 
#    2.250    0.000    0.000    0.750    0.000    0.000 
#    0.000    0.000    0.000    0.000    0.000    0.000 
#
# Total GULP energy -178461.256845 kJ/mol
# GULP energy per Si atom -5576.914276 kJ/mol
# Density = 2.013963 g / cm^3
# Si number density = 20.185573 Si / 1000 Ang^3
#
#
#
# Elastic Constant Matrix: (Units=GPa)
#
#
# Indices 1 2 3 4 5 6 
#
# 1 92.0196 32.4192 20.1143 0.0000 0.0000 0.0000
# 2 32.4192 91.4324 16.8468 0.0000 0.0000 0.0000
# 3 20.1143 16.8468 36.3441 0.0000 0.0000 0.0000
# 4 0.0000 0.0000 0.0000 19.3802 0.0000 0.0000
# 5 0.0000 0.0000 0.0000 0.0000 2.0423 0.0000
# 6 0.0000 0.0000 0.0000 0.0000 0.0000 37.0598
#
#
#
# Elastic Compliance Matrix: (Units=1/GPa)
#
#
# Indices 1 2 3 4 5 6 
#
# 1 0.013421 -0.003707 -0.005710 0.000000 0.000000 0.000000
# 2 -0.003707 0.012982 -0.003966 0.000000 0.000000 0.000000
# 3 -0.005710 -0.003966 0.032513 0.000000 0.000000 0.000000
# 4 0.000000 0.000000 0.000000 0.051599 0.000000 0.000000
# 5 0.000000 0.000000 0.000000 0.000000 0.489656 0.000000
# 6 0.000000 0.000000 0.000000 0.000000 0.000000 0.026983
#
#
# Mechanical properties :
#
#
# Convention : Reuss Voigt Hill
#
# Bulk Modulus (GPa) = 31.10289 39.83963 35.47126
# Shear Modulus (GPa) = 7.52290 21.72417 14.62354
#
# Velocity S-wave (km/s) = 1.93260 3.28414 2.69449
# Velocity P-wave (km/s) = 4.51906 5.84468 5.22409
#
# Compressibility (1/GPa) = 0.03215135
#
# Stress axis : x y z
#
# Youngs Moduli (GPa) = 74.50884 77.02890 30.75670
#
# Poissons Ratio (x) = 0.28553 0.17561
# Poissons Ratio (y) = 0.27618 0.12199
# Poissons Ratio (z) = 0.42542 0.30552
#
# Static dielectric constant tensor:
#      x y z
#    x 1.726740 0.000000 0.000000 
#    y 0.000000 1.773170 0.000000 
#    z 0.000000 0.000000 1.758560 
# 
# From -- ./inp_files/5187.got.cif
#   From: 2010.05.17/outbox.cif.g08.bks.cpg/sg41_3_cif.got.tgz:5187.got - 2010.06.03 18:54:24.
