data_PCOD9366246
_publ_section_title
;
Structure prediction by ZEFSAII (Michael W. Deem and Ramdas Pophale) SiO2 
 PCOD9366246
Probable space group: A B A 2
;
_chemical_formula_sum "Si O2"
_cell_formula_units_Z 64
_cell_length_a 16.721760
_cell_length_b 20.810480
_cell_length_c 8.862692
_cell_angle_alpha 90.000000
_cell_angle_beta 90.000000
_cell_angle_gamma 90.000000
_cell_volume 3084.109152
_symmetry_space_group_name_H-M "A B A 2"
_symmetry_group_IT_number 41
_symmetry_cell_setting 'orthorhombic'
loop_
_space_group_symop_operation_xyz
x,y,z
-x,-y,z
1/2-x,y,1/2+z
1/2+x,-y,1/2+z
x,1/2+y,1/2+z
-x,1/2-y,1/2+z
1/2-x,1/2+y,z
1/2+x,1/2-y,z
loop_
_atom_site_type_symbol
_atom_site_label
_atom_site_fract_x
_atom_site_fract_y
_atom_site_fract_z
Si Si1 0.206456 0.972474 0.297080
Si Si2 0.497028 0.076274 0.434982
Si Si3 0.630297 0.809657 0.853868
Si Si4 0.229195 0.380901 0.049660
Si Si5 0.443545 0.562308 0.271046
Si Si6 0.136677 0.831506 0.831429
Si Si7 0.665667 0.927749 0.306709
Si Si8 0.243279 0.150116 0.076195
O O1 0.143747 0.028652 0.263907
O O2 0.294070 0.002796 0.332546
O O3 0.182042 0.929762 0.440147
O O4 0.215499 0.925355 0.156341
O O5 0.471999 0.089913 0.608596
O O6 0.574153 0.114686 0.383951
O O7 0.427629 0.084126 0.311596
O O8 0.500000 0.000000 0.441471
O O9 0.572342 0.872012 0.865808
O O10 0.595756 0.738328 0.840264
O O11 0.685732 0.821057 0.704115
O O12 0.690645 0.806296 0.995827
O O13 0.171057 0.343965 0.163720
O O14 0.286283 0.338923 0.942093
O O15 0.500000 0.500000 0.312321
O O16 0.704945 0.905586 0.152978
O O17 0.695382 0.882144 0.441082
#
# Coordination Sequence:
#
# PCOD9366246 Si02
#       8
#     8   8   8   8   8   8   8   8
#     4  11  19  37  67  94 130 165 225 275 345 389
#     4  11  22  40  63  95 129 173 216 276 342 397
#     4  11  22  42  65  95 130 176 228 277 331 411
#     4  10  22  39  63  96 126 174 220 280 325 408
#     4  11  22  39  64  91 128 169 217 275 337 400
#     4  11  24  44  66  94 136 181 228 273 346 412
#     4  11  19  36  61  96 123 169 216 281 325 400
#     4  10  20  37  65  93 124 167 228 273 318 398
#
# _framework density 20.751536999999999
#
# number of rings (size 3 to 8) (size 9 to 14) (size 15 to 20)
#    0.000    1.250    3.750    5.250    0.000    0.000 
#    4.500    0.000    2.750    0.000    0.000    0.000 
#    0.000    0.000    0.000    0.000    0.000    0.000 
#
# Total GULP energy -178387.921472 kJ/mol
# GULP energy per Si atom -5574.622546 kJ/mol
# Density = 2.070431 g / cm^3
# Si number density = 20.751537 Si / 1000 Ang^3
#
#
#
# Elastic Constant Matrix: (Units=GPa)
#
#
# Indices 1 2 3 4 5 6 
#
# 1 67.5462 15.9917 11.0509 0.0000 0.0000 0.0000
# 2 15.9917 91.3116 8.9930 0.0000 0.0000 0.0000
# 3 11.0509 8.9930 47.3152 0.0000 0.0000 0.0000
# 4 0.0000 0.0000 0.0000 2.9162 0.0000 0.0000
# 5 0.0000 0.0000 0.0000 0.0000 18.1184 0.0000
# 6 0.0000 0.0000 0.0000 0.0000 0.0000 24.1742
#
#
#
# Elastic Compliance Matrix: (Units=1/GPa)
#
#
# Indices 1 2 3 4 5 6 
#
# 1 0.015921 -0.002468 -0.003249 0.000000 0.000000 0.000000
# 2 -0.002468 0.011543 -0.001617 0.000000 0.000000 0.000000
# 3 -0.003249 -0.001617 0.022201 0.000000 0.000000 0.000000
# 4 0.000000 0.000000 0.000000 0.342912 0.000000 0.000000
# 5 0.000000 0.000000 0.000000 0.000000 0.055192 0.000000
# 6 0.000000 0.000000 0.000000 0.000000 0.000000 0.041366
#
#
# Mechanical properties :
#
#
# Convention : Reuss Voigt Hill
#
# Bulk Modulus (GPa) = 28.57558 30.91604 29.74581
# Shear Modulus (GPa) = 9.69987 20.38425 15.04206
#
# Velocity S-wave (km/s) = 2.16436 3.13757 2.69525
# Velocity P-wave (km/s) = 4.47729 5.29682 4.90421
#
# Compressibility (1/GPa) = 0.03499492
#
# Stress axis : x y z
#
# Youngs Moduli (GPa) = 62.81155 86.63201 45.04269
#
# Poissons Ratio (x) = 0.21383 0.14636
# Poissons Ratio (y) = 0.15503 0.07285
# Poissons Ratio (z) = 0.20409 0.14012
#
# Static dielectric constant tensor:
#      x y z
#    x 1.765650 0.000000 0.000000 
#    y 0.000000 2.016200 0.000000 
#    z 0.000000 0.000000 1.778640 
# 
# From -- ./inp_files/3217.got.cif
#   From: 2010.05.17/outbox.cif.g08.bks.cpg/sg41_2_cif.got.tgz:3217.got - 2010.06.03 18:54:24.
