data_PCOD9366235
_publ_section_title
;
Structure prediction by ZEFSAII (Michael W. Deem and Ramdas Pophale) SiO2 
 PCOD9366235
Probable space group: A B A 2
;
_chemical_formula_sum "Si O2"
_cell_formula_units_Z 64
_cell_length_a 32.177261
_cell_length_b 16.907885
_cell_length_c 5.212860
_cell_angle_alpha 90.000000
_cell_angle_beta 90.000000
_cell_angle_gamma 90.000000
_cell_volume 2836.053504
_symmetry_space_group_name_H-M "A B A 2"
_symmetry_group_IT_number 41
_symmetry_cell_setting 'orthorhombic'
loop_
_space_group_symop_operation_xyz
x,y,z
-x,-y,z
1/2-x,y,1/2+z
1/2+x,-y,1/2+z
x,1/2+y,1/2+z
-x,1/2-y,1/2+z
1/2-x,1/2+y,z
1/2+x,1/2-y,z
loop_
_atom_site_type_symbol
_atom_site_label
_atom_site_fract_x
_atom_site_fract_y
_atom_site_fract_z
Si Si1 0.135411 0.430606 0.007040
Si Si2 0.772906 0.074395 0.643133
Si Si3 0.726580 0.266241 0.190776
Si Si4 0.495800 0.802059 0.956121
Si Si5 0.426109 0.628292 0.679628
Si Si6 0.593005 0.220460 0.009992
Si Si7 0.140194 0.153546 0.295647
Si Si8 0.608237 0.986845 0.512362
O O1 0.183732 0.453449 0.020460
O O2 0.119860 0.451728 0.291136
O O3 0.130890 0.337143 0.955903
O O4 0.108291 0.467564 0.779224
O O5 0.738411 0.049586 0.432707
O O6 0.775794 0.170300 0.674933
O O7 0.761408 0.289329 0.401025
O O8 0.684611 0.305877 0.296036
O O9 0.498786 0.769433 0.665754
O O10 0.449246 0.829770 0.026906
O O11 0.532686 0.863306 0.011115
O O12 0.417837 0.713630 0.802437
O O13 0.382788 0.611097 0.532182
O O14 0.430552 0.562499 0.900704
O O15 0.607431 0.275282 0.243207
O O16 0.139444 0.086632 0.074993
#
# Coordination Sequence:
#
# PCOD9366235 Si02
#       8
#     8   8   8   8   8   8   8   8
#     4  12  24  43  64  96 127 170 219 262 309 391
#     4  10  21  39  61  91 124 160 203 268 325 363
#     4  10  23  37  62  97 126 154 210 275 320 369
#     4  10  20  37  63 102 128 155 213 278 317 366
#     4  10  22  42  70  92 131 173 212 263 327 384
#     4  10  23  37  71 100 121 165 222 273 307 379
#     4  11  21  44  67  94 125 175 210 258 328 381
#     4  11  26  41  65  89 135 176 206 254 324 391
#
# _framework density 22.566569000000001
#
# number of rings (size 3 to 8) (size 9 to 14) (size 15 to 20)
#    0.000    1.500    3.750    0.750    5.250    1.000 
#    0.000    4.375    2.750    0.000    0.000    0.000 
#    0.000    0.000    0.000    0.000    0.000    0.000 
#
# Total GULP energy -178232.679310 kJ/mol
# GULP energy per Si atom -5569.771228 kJ/mol
# Density = 2.251521 g / cm^3
# Si number density = 22.566569 Si / 1000 Ang^3
#
#
#
# Elastic Constant Matrix: (Units=GPa)
#
#
# Indices 1 2 3 4 5 6 
#
# 1 72.3183 -12.6380 9.4605 0.0000 0.0000 0.0000
# 2 -12.6380 24.9254 4.3780 0.0000 0.0000 0.0000
# 3 9.4605 4.3780 102.6844 0.0000 0.0000 0.0000
# 4 0.0000 0.0000 0.0000 12.1608 0.0000 0.0000
# 5 0.0000 0.0000 0.0000 0.0000 24.3819 0.0000
# 6 0.0000 0.0000 0.0000 0.0000 0.0000 10.8757
#
#
#
# Elastic Compliance Matrix: (Units=1/GPa)
#
#
# Indices 1 2 3 4 5 6 
#
# 1 0.015487 0.008164 -0.001775 0.000000 0.000000 0.000000
# 2 0.008164 0.044726 -0.002659 0.000000 0.000000 0.000000
# 3 -0.001775 -0.002659 0.010015 0.000000 0.000000 0.000000
# 4 0.000000 0.000000 0.000000 0.082232 0.000000 0.000000
# 5 0.000000 0.000000 0.000000 0.000000 0.041014 0.000000
# 6 0.000000 0.000000 0.000000 0.000000 0.000000 0.091948
#
#
# Mechanical properties :
#
#
# Convention : Reuss Voigt Hill
#
# Bulk Modulus (GPa) = 12.87196 22.48100 17.67648
# Shear Modulus (GPa) = 16.45504 22.73218 19.59361
#
# Velocity S-wave (km/s) = 2.70326 3.17730 2.94982
# Velocity P-wave (km/s) = 3.93190 4.84191 4.41044
#
# Compressibility (1/GPa) = 0.07768827
#
# Stress axis : x y z
#
# Youngs Moduli (GPa) = 64.57176 22.35831 99.84548
#
# Poissons Ratio (x) = -0.18253 0.17721
# Poissons Ratio (y) = -0.52716 0.26550
# Poissons Ratio (z) = 0.11461 0.05945
#
# Static dielectric constant tensor:
#      x y z
#    x 1.878880 0.000000 0.000000 
#    y 0.000000 1.884620 0.000000 
#    z 0.000000 0.000000 1.851040 
# 
# From -- ./inp_files/1418.got.cif
#   From: 2010.05.17/outbox.cif.g08.bks.cpg/sg41_1_cif.got.tgz:1418.got - 2010.06.03 18:54:24.
