data_PCOD9366858
_publ_section_title
;
Structure prediction by ZEFSAII (Michael W. Deem and Ramdas Pophale) SiO2 
 PCOD9366858
Probable space group: A B A 2
;
_chemical_formula_sum "Si O2"
_cell_formula_units_Z 64
_cell_length_a 8.981104
_cell_length_b 10.983453
_cell_length_c 29.664845
_cell_angle_alpha 90.000000
_cell_angle_beta 90.000000
_cell_angle_gamma 90.000000
_cell_volume 2926.245137
_symmetry_space_group_name_H-M "A B A 2"
_symmetry_group_IT_number 41
_symmetry_cell_setting 'orthorhombic'
loop_
_space_group_symop_operation_xyz
x,y,z
-x,-y,z
1/2-x,y,1/2+z
1/2+x,-y,1/2+z
x,1/2+y,1/2+z
-x,1/2-y,1/2+z
1/2-x,1/2+y,z
1/2+x,1/2-y,z
loop_
_atom_site_type_symbol
_atom_site_label
_atom_site_fract_x
_atom_site_fract_y
_atom_site_fract_z
Si Si1 0.847393 0.770344 0.719200
Si Si2 0.913480 0.379645 0.413141
Si Si3 0.678414 0.084434 0.086204
Si Si4 0.922754 0.368671 0.879773
Si Si5 0.078607 0.626546 0.771859
Si Si6 0.583292 0.750855 0.056596
Si Si7 0.902659 0.098872 0.682994
Si Si8 0.820654 0.896502 0.016016
O O1 0.729792 0.861605 0.742835
O O2 0.738387 0.661272 0.704911
O O3 0.965239 0.730888 0.756569
O O4 0.961944 0.803561 0.678482
O O5 0.747731 0.370756 0.394420
O O6 0.882358 0.407310 0.466033
O O7 0.000000 0.500000 0.395362
O O8 0.996543 0.251308 0.401374
O O9 0.518465 0.137515 0.072168
O O10 0.795295 0.196355 0.090343
O O11 0.655664 0.038070 0.136826
O O12 0.747698 0.003981 0.045917
O O13 0.912739 0.362063 0.825541
O O14 0.000000 0.500000 0.891732
O O15 0.000000 0.500000 0.760743
O O16 0.688325 0.795941 0.015789
O O17 0.462231 0.651154 0.043705
O O18 0.000000 0.000000 0.710195
#
# Coordination Sequence:
#
# PCOD9366858 Si02
#       8
#     8   8   8   8   8   8   8   8
#     4  10  22  39  64  93 128 167 213 275 336 408
#     4  12  25  43  67 101 138 179 230 287 355 422
#     4  11  22  39  59  87 122 165 213 268 323 388
#     4  11  25  44  69 101 138 181 230 291 353 429
#     4  10  21  42  66  94 129 170 218 269 343 417
#     4  10  22  38  60  85 114 159 213 266 324 381
#     4  11  22  38  59  90 125 165 214 266 330 397
#     4  11  23  41  62  87 122 164 213 268 328 394
#
# _framework density 21.871032
#
# number of rings (size 3 to 8) (size 9 to 14) (size 15 to 20)
#    0.000    1.250    0.000    6.000    0.000    6.000 
#    0.000    6.875    0.000    0.000    0.000    0.000 
#    0.000    0.000    0.000    0.000    0.000    0.000 
#
# Total GULP energy -178303.509590 kJ/mol
# GULP energy per Si atom -5571.984675 kJ/mol
# Density = 2.182125 g / cm^3
# Si number density = 21.871032 Si / 1000 Ang^3
#
#
#
# Elastic Constant Matrix: (Units=GPa)
#
#
# Indices 1 2 3 4 5 6 
#
# 1 161.3516 49.3134 27.1800 0.0000 0.0000 0.0000
# 2 49.3134 98.1722 27.2328 0.0000 0.0000 0.0000
# 3 27.1800 27.2328 70.0044 0.0000 0.0000 0.0000
# 4 0.0000 0.0000 0.0000 29.1937 0.0000 0.0000
# 5 0.0000 0.0000 0.0000 0.0000 6.4953 0.0000
# 6 0.0000 0.0000 0.0000 0.0000 0.0000 59.4211
#
#
#
# Elastic Compliance Matrix: (Units=1/GPa)
#
#
# Indices 1 2 3 4 5 6 
#
# 1 0.007482 -0.003309 -0.001617 0.000000 0.000000 0.000000
# 2 -0.003309 0.012882 -0.003726 0.000000 0.000000 0.000000
# 3 -0.001617 -0.003726 0.016362 0.000000 0.000000 0.000000
# 4 0.000000 0.000000 0.000000 0.034254 0.000000 0.000000
# 5 0.000000 0.000000 0.000000 0.000000 0.153957 0.000000
# 6 0.000000 0.000000 0.000000 0.000000 0.000000 0.016829
#
#
# Mechanical properties :
#
#
# Convention : Reuss Voigt Hill
#
# Bulk Modulus (GPa) = 51.49417 59.66454 55.57935
# Shear Modulus (GPa) = 18.82914 34.07549 26.45231
#
# Velocity S-wave (km/s) = 2.93732 3.95146 3.48151
# Velocity P-wave (km/s) = 5.92447 6.93960 6.45203
#
# Compressibility (1/GPa) = 0.01941968
#
# Stress axis : x y z
#
# Youngs Moduli (GPa) = 133.66214 77.62592 61.11557
#
# Poissons Ratio (x) = 0.25690 0.09885
# Poissons Ratio (y) = 0.44235 0.22775
# Poissons Ratio (z) = 0.21618 0.28927
#
# Static dielectric constant tensor:
#      x y z
#    x 1.819210 0.000000 0.000000 
#    y 0.000000 1.999370 0.000000 
#    z 0.000000 0.000000 1.879940 
# 
# From -- ./inp_files/12696.got.cif
#   From: 2010.05.17/outbox.cif.g08.bks.cpg/sg41_7_cif.got.tgz:12696.got - 2010.06.03 18:54:24.
