data_PCOD9366748
_publ_section_title
;
Structure prediction by ZEFSAII (Michael W. Deem and Ramdas Pophale) SiO2 
 PCOD9366748
Probable space group: A B A 2
;
_chemical_formula_sum "Si O2"
_cell_formula_units_Z 48
_cell_length_a 12.671909
_cell_length_b 16.758498
_cell_length_c 8.667473
_cell_angle_alpha 90.000000
_cell_angle_beta 90.000000
_cell_angle_gamma 90.000000
_cell_volume 1840.643302
_symmetry_space_group_name_H-M "A B A 2"
_symmetry_group_IT_number 41
_symmetry_cell_setting 'orthorhombic'
loop_
_space_group_symop_operation_xyz
x,y,z
-x,-y,z
1/2-x,y,1/2+z
1/2+x,-y,1/2+z
x,1/2+y,1/2+z
-x,1/2-y,1/2+z
1/2-x,1/2+y,z
1/2+x,1/2-y,z
loop_
_atom_site_type_symbol
_atom_site_label
_atom_site_fract_x
_atom_site_fract_y
_atom_site_fract_z
Si Si1 0.649207 0.017546 0.967740
Si Si2 0.200813 0.581442 0.696458
Si Si3 0.703959 0.305945 0.929292
Si Si4 0.927799 0.215531 0.986908
Si Si5 0.192382 0.844187 0.242264
Si Si6 0.430837 0.844603 0.155212
O O1 0.704273 0.084250 0.860256
O O2 0.622971 0.955117 0.827791
O O3 0.566174 0.069629 0.069090
O O4 0.733819 0.978746 0.085575
O O5 0.159680 0.650628 0.581639
O O6 0.287037 0.624744 0.802742
O O7 0.694907 0.171964 0.164987
O O8 0.822767 0.270736 0.958891
O O9 0.962024 0.169028 0.833237
O O10 0.893005 0.148129 0.109144
O O11 0.005866 0.279092 0.061092
O O12 0.155743 0.768256 0.339393
#
# Coordination Sequence:
#
# PCOD9366748 Si02
#       6
#     8   8   8   8   8   8
#     4  11  22  38  67  98 130 174 232 278 342 402
#     4  10  22  38  62  98 131 176 224 273 335 415
#     4  10  21  40  65  95 129 177 229 275 338 404
#     4  11  24  41  67 104 140 174 232 291 341 404
#     4  11  22  41  72  97 129 181 229 281 346 404
#     4  11  23  40  63 104 137 174 230 292 336 403
#
# _framework density 26.077839000000001
#
# number of rings (size 3 to 8) (size 9 to 14) (size 15 to 20)
#    0.000    1.333    3.333    3.000    2.333    0.000 
#    0.000    3.333    0.000    2.000    0.000    0.000 
#    0.000    0.000    0.000    0.000    0.000    0.000 
#
# Total GULP energy -134110.798786 kJ/mol
# GULP energy per Si atom -5587.949949 kJ/mol
# Density = 2.601849 g / cm^3
# Si number density = 26.077839 Si / 1000 Ang^3
#
#
#
# Elastic Constant Matrix: (Units=GPa)
#
#
# Indices 1 2 3 4 5 6 
#
# 1 60.2270 13.3018 33.5063 0.0000 0.0000 0.0000
# 2 13.3018 121.3227 72.8839 0.0000 0.0000 0.0000
# 3 33.5063 72.8839 222.3643 0.0000 0.0000 0.0000
# 4 0.0000 0.0000 0.0000 72.0331 0.0000 0.0000
# 5 0.0000 0.0000 0.0000 0.0000 39.1256 0.0000
# 6 0.0000 0.0000 0.0000 0.0000 0.0000 27.5820
#
#
#
# Elastic Compliance Matrix: (Units=1/GPa)
#
#
# Indices 1 2 3 4 5 6 
#
# 1 0.018141 -0.000432 -0.002592 0.000000 0.000000 0.000000
# 2 -0.000432 0.010274 -0.003302 0.000000 0.000000 0.000000
# 3 -0.002592 -0.003302 0.005970 0.000000 0.000000 0.000000
# 4 0.000000 0.000000 0.000000 0.013883 0.000000 0.000000
# 5 0.000000 0.000000 0.000000 0.000000 0.025559 0.000000
# 6 0.000000 0.000000 0.000000 0.000000 0.000000 0.036255
#
#
# Mechanical properties :
#
#
# Convention : Reuss Voigt Hill
#
# Bulk Modulus (GPa) = 46.01374 71.47755 58.74565
# Shear Modulus (GPa) = 38.46796 46.69628 42.58212
#
# Velocity S-wave (km/s) = 3.84490 4.23620 4.04528
# Velocity P-wave (km/s) = 6.11507 7.16910 6.66296
#
# Compressibility (1/GPa) = 0.02173264
#
# Stress axis : x y z
#
# Youngs Moduli (GPa) = 55.12302 97.33613 167.50185
#
# Poissons Ratio (x) = 0.04204 0.43417
# Poissons Ratio (y) = 0.02381 0.55314
# Poissons Ratio (z) = 0.14288 0.32143
#
# Static dielectric constant tensor:
#      x y z
#    x 2.117280 0.000000 0.000000 
#    y 0.000000 2.092130 0.000000 
#    z 0.000000 0.000000 2.080210 
# 
# From -- ./inp_files/3083.got.cif
#   From: 2010.05.17/outbox.cif.g08.bks.cpg/sg41_2_cif.got.tgz:3083.got - 2010.06.03 18:54:24.
