data_PCOD9366651
_publ_section_title
;
Structure prediction by ZEFSAII (Michael W. Deem and Ramdas Pophale) SiO2 
 PCOD9366651
Probable space group: A B A 2
;
_chemical_formula_sum "Si O2"
_cell_formula_units_Z 64
_cell_length_a 16.168144
_cell_length_b 13.554001
_cell_length_c 13.360113
_cell_angle_alpha 90.000000
_cell_angle_beta 90.000000
_cell_angle_gamma 90.000000
_cell_volume 2927.775777
_symmetry_space_group_name_H-M "A B A 2"
_symmetry_group_IT_number 41
_symmetry_cell_setting 'orthorhombic'
loop_
_space_group_symop_operation_xyz
x,y,z
-x,-y,z
1/2-x,y,1/2+z
1/2+x,-y,1/2+z
x,1/2+y,1/2+z
-x,1/2-y,1/2+z
1/2-x,1/2+y,z
1/2+x,1/2-y,z
loop_
_atom_site_type_symbol
_atom_site_label
_atom_site_fract_x
_atom_site_fract_y
_atom_site_fract_z
Si Si1 0.158149 0.145886 0.876120
Si Si2 0.491185 0.387927 0.754912
Si Si3 0.777070 0.197251 0.513646
Si Si4 0.940065 0.909900 0.323781
Si Si5 0.721724 0.523699 0.379748
Si Si6 0.477462 0.807154 0.644335
Si Si7 0.289546 0.803002 0.726272
Si Si8 0.911100 0.206238 0.930542
O O1 0.070202 0.130838 0.826430
O O2 0.210935 0.203841 0.791281
O O3 0.200102 0.043517 0.903579
O O4 0.162530 0.221231 0.968115
O O5 0.500000 0.500000 0.718821
O O6 0.494436 0.305273 0.668642
O O7 0.418307 0.364747 0.834018
O O8 0.802724 0.089257 0.475672
O O9 0.768430 0.204398 0.631232
O O10 0.683711 0.215022 0.469076
O O11 0.945432 0.811261 0.390794
O O12 0.963774 0.877050 0.210720
O O13 0.849565 0.952197 0.341226
O O14 0.000000 0.000000 0.352509
O O15 0.733557 0.604598 0.293909
O O16 0.384971 0.817539 0.691646
O O17 0.464361 0.826792 0.527138
#
# Coordination Sequence:
#
# PCOD9366651 Si02
#       8
#     8   8   8   8   8   8   8   8
#     4  10  21  39  57  85 121 156 194 249 307 352
#     4  10  21  39  60  85 120 157 197 252 301 361
#     4  10  21  39  60  86 120 156 202 252 302 366
#     4  11  21  38  62  89 120 157 203 250 307 362
#     4  11  21  38  61  88 119 159 198 252 304 361
#     4   9  20  39  61  85 118 153 201 250 295 359
#     4   9  20  39  60  84 117 156 199 247 296 361
#     4  10  21  40  62  87 117 161 202 248 307 366
#
# _framework density 21.859596
#
# number of rings (size 3 to 8) (size 9 to 14) (size 15 to 20)
#    0.000    2.000    2.500    0.750    1.750    2.000 
#    6.750    0.000    0.000    0.000    0.000    0.000 
#    0.000    0.000    0.000    0.000    0.000    0.000 
#
# Total GULP energy -178819.402610 kJ/mol
# GULP energy per Si atom -5588.106332 kJ/mol
# Density = 2.180984 g / cm^3
# Si number density = 21.859596 Si / 1000 Ang^3
#
#
#
# Elastic Constant Matrix: (Units=GPa)
#
#
# Indices 1 2 3 4 5 6 
#
# 1 50.4411 3.9261 -6.9567 0.0000 0.0000 0.0000
# 2 3.9261 91.6432 -5.7349 0.0000 0.0000 0.0000
# 3 -6.9567 -5.7349 66.7927 0.0000 0.0000 0.0000
# 4 0.0000 0.0000 0.0000 4.7646 0.0000 0.0000
# 5 0.0000 0.0000 0.0000 0.0000 20.4485 0.0000
# 6 0.0000 0.0000 0.0000 0.0000 0.0000 33.8455
#
#
#
# Elastic Compliance Matrix: (Units=1/GPa)
#
#
# Indices 1 2 3 4 5 6 
#
# 1 0.020163 -0.000736 0.002037 0.000000 0.000000 0.000000
# 2 -0.000736 0.010998 0.000868 0.000000 0.000000 0.000000
# 3 0.002037 0.000868 0.015258 0.000000 0.000000 0.000000
# 4 0.000000 0.000000 0.000000 0.209880 0.000000 0.000000
# 5 0.000000 0.000000 0.000000 0.000000 0.048903 0.000000
# 6 0.000000 0.000000 0.000000 0.000000 0.000000 0.029546
#
#
# Mechanical properties :
#
#
# Convention : Reuss Voigt Hill
#
# Bulk Modulus (GPa) = 19.70227 21.26068 20.48147
# Shear Modulus (GPa) = 14.39550 26.32123 20.35836
#
# Velocity S-wave (km/s) = 2.56899 3.47378 3.05507
# Velocity P-wave (km/s) = 4.22283 5.08298 4.67274
#
# Compressibility (1/GPa) = 0.05075557
#
# Stress axis : x y z
#
# Youngs Moduli (GPa) = 49.59495 90.92796 65.53794
#
# Poissons Ratio (x) = 0.06696 -0.13349
# Poissons Ratio (y) = 0.03652 -0.05686
# Poissons Ratio (z) = -0.10102 -0.07889
#
# Static dielectric constant tensor:
#      x y z
#    x 1.874620 0.000000 0.000000 
#    y 0.000000 1.783640 0.000000 
#    z 0.000000 0.000000 1.768280 
# 
# From -- ./inp_files/8820.got.cif
#   From: 2010.05.17/outbox.cif.g08.bks.cpg/sg41_5_cif.got.tgz:8820.got - 2010.06.03 18:54:24.
