data_PCOD9366688
_publ_section_title
;
Structure prediction by ZEFSAII (Michael W. Deem and Ramdas Pophale) SiO2 
 PCOD9366688
Probable space group: A B A 2
;
_chemical_formula_sum "Si O2"
_cell_formula_units_Z 56
_cell_length_a 11.761061
_cell_length_b 14.003967
_cell_length_c 16.491606
_cell_angle_alpha 90.000000
_cell_angle_beta 90.000000
_cell_angle_gamma 90.000000
_cell_volume 2716.192413
_symmetry_space_group_name_H-M "A B A 2"
_symmetry_group_IT_number 41
_symmetry_cell_setting 'orthorhombic'
loop_
_space_group_symop_operation_xyz
x,y,z
-x,-y,z
1/2-x,y,1/2+z
1/2+x,-y,1/2+z
x,1/2+y,1/2+z
-x,1/2-y,1/2+z
1/2-x,1/2+y,z
1/2+x,1/2-y,z
loop_
_atom_site_type_symbol
_atom_site_label
_atom_site_fract_x
_atom_site_fract_y
_atom_site_fract_z
Si Si1 0.500000 0.000000 0.973770
Si Si2 0.195387 0.388386 0.817916
Si Si3 0.711677 0.972283 0.674054
Si Si4 0.445665 0.659541 0.374117
Si Si5 0.685313 0.273195 0.215862
Si Si6 0.356646 0.846897 0.461705
Si Si7 0.500000 0.500000 0.057015
Si Si8 0.349559 0.868276 0.082577
O O1 0.411901 0.059382 0.917308
O O2 0.554731 0.083105 0.027955
O O3 0.180810 0.479227 0.759813
O O4 0.233078 0.302999 0.758002
O O5 0.295148 0.396397 0.884426
O O6 0.079842 0.355210 0.860523
O O7 0.752862 0.864408 0.683129
O O8 0.602321 0.968662 0.615736
O O9 0.802052 0.042668 0.634216
O O10 0.394603 0.684076 0.286205
O O11 0.409948 0.748022 0.430560
O O12 0.620483 0.216787 0.144303
O O13 0.255365 0.832769 0.526797
O O14 0.450574 0.914995 0.501875
#
# Coordination Sequence:
#
# PCOD9366688 Si02
#       8
#     4   8   8   8   8   8   4   8
#     4  12  24  41  69 100 134 176 226 274 345 396
#     4  10  21  42  61  96 132 167 227 272 328 408
#     4  10  21  39  64  89 129 174 213 275 332 396
#     4  11  23  40  68  93 127 182 215 273 332 405
#     4  10  23  39  64  93 128 172 221 270 332 395
#     4  10  23  42  63  97 136 168 227 279 334 396
#     4  10  22  39  63  92 126 176 216 278 333 400
#     4  10  24  42  61  97 134 166 222 277 328 402
#
# _framework density 20.617096
#
# number of rings (size 3 to 8) (size 9 to 14) (size 15 to 20)
#    0.000    1.714    1.429    1.714    4.000    2.286 
#    5.143    5.000    0.000    0.000    0.000    0.000 
#    0.000    0.000    0.000    0.000    0.000    0.000 
#
# Total GULP energy -156323.966207 kJ/mol
# GULP energy per Si atom -5582.998793 kJ/mol
# Density = 2.057017 g / cm^3
# Si number density = 20.617096 Si / 1000 Ang^3
#
#
#
# Elastic Constant Matrix: (Units=GPa)
#
#
# Indices 1 2 3 4 5 6 
#
# 1 39.0570 32.6420 23.1291 0.0000 0.0000 0.0000
# 2 32.6420 139.5567 82.1108 0.0000 0.0000 0.0000
# 3 23.1291 82.1108 126.0189 0.0000 0.0000 0.0000
# 4 0.0000 0.0000 0.0000 39.9829 0.0000 0.0000
# 5 0.0000 0.0000 0.0000 0.0000 9.0107 0.0000
# 6 0.0000 0.0000 0.0000 0.0000 0.0000 19.3692
#
#
#
# Elastic Compliance Matrix: (Units=1/GPa)
#
#
# Indices 1 2 3 4 5 6 
#
# 1 0.032027 -0.006540 -0.001617 0.000000 0.000000 0.000000
# 2 -0.006540 0.012956 -0.007241 0.000000 0.000000 0.000000
# 3 -0.001617 -0.007241 0.012950 0.000000 0.000000 0.000000
# 4 0.000000 0.000000 0.000000 0.025011 0.000000 0.000000
# 5 0.000000 0.000000 0.000000 0.000000 0.110979 0.000000
# 6 0.000000 0.000000 0.000000 0.000000 0.000000 0.051628
#
#
# Mechanical properties :
#
#
# Convention : Reuss Voigt Hill
#
# Bulk Modulus (GPa) = 36.85034 64.48849 50.66942
# Shear Modulus (GPa) = 17.51976 24.78927 21.15452
#
# Velocity S-wave (km/s) = 2.91824 3.47128 3.20670
# Velocity P-wave (km/s) = 5.40993 6.88574 6.19196
#
# Compressibility (1/GPa) = 0.02713679
#
# Stress axis : x y z
#
# Youngs Moduli (GPa) = 31.22403 77.18584 77.21753
#
# Poissons Ratio (x) = 0.50476 0.12487
# Poissons Ratio (y) = 0.20419 0.55916
# Poissons Ratio (z) = 0.05049 0.55893
#
# Static dielectric constant tensor:
#      x y z
#    x 1.718640 0.000000 0.000000 
#    y 0.000000 1.739970 0.000000 
#    z 0.000000 0.000000 1.808000 
# 
# From -- ./inp_files/7982.got.cif
#   From: 2010.05.17/outbox.cif.g08.bks.cpg/sg41_4_cif.got.tgz:7982.got - 2010.06.03 18:54:24.
