data_PCOD9366623
_publ_section_title
;
Structure prediction by ZEFSAII (Michael W. Deem and Ramdas Pophale) SiO2 
 PCOD9366623
Probable space group: A B A 2
;
_chemical_formula_sum "Si O2"
_cell_formula_units_Z 48
_cell_length_a 7.149057
_cell_length_b 28.384854
_cell_length_c 8.623468
_cell_angle_alpha 90.000000
_cell_angle_beta 90.000000
_cell_angle_gamma 90.000000
_cell_volume 1749.916719
_symmetry_space_group_name_H-M "A B A 2"
_symmetry_group_IT_number 41
_symmetry_cell_setting 'orthorhombic'
loop_
_space_group_symop_operation_xyz
x,y,z
-x,-y,z
1/2-x,y,1/2+z
1/2+x,-y,1/2+z
x,1/2+y,1/2+z
-x,1/2-y,1/2+z
1/2-x,1/2+y,z
1/2+x,1/2-y,z
loop_
_atom_site_type_symbol
_atom_site_label
_atom_site_fract_x
_atom_site_fract_y
_atom_site_fract_z
Si Si1 0.984236 0.211558 0.706410
Si Si2 0.736020 0.962229 0.926563
Si Si3 0.766811 0.899464 0.675628
Si Si4 0.368811 0.194044 0.561524
Si Si5 0.192260 0.438293 0.841240
Si Si6 0.810985 0.124883 0.593842
O O1 0.146352 0.203317 0.577060
O O2 0.939971 0.266116 0.680205
O O3 0.808159 0.178491 0.653301
O O4 0.054373 0.199659 0.883859
O O5 0.810656 0.913641 0.851287
O O6 0.515896 0.953346 0.890164
O O7 0.801332 0.013838 0.878722
O O8 0.775575 0.951122 0.105487
O O9 0.619024 0.858483 0.638163
O O10 0.967888 0.884517 0.614398
O O11 0.217626 0.421910 0.667274
O O12 0.238607 0.387297 0.917718
#
# Coordination Sequence:
#
# PCOD9366623 Si02
#       6
#     8   8   8   8   8   8
#     4  11  25  44  69  97 130 172 217 272 332 397
#     4  10  21  38  62  89 124 165 207 260 313 376
#     4  10  21  40  63  89 124 164 207 256 317 380
#     4  11  24  44  67  97 129 169 219 269 331 397
#     4  10  22  39  59  90 125 163 211 258 313 376
#     4  10  23  41  62  90 126 166 209 261 318 383
#
# _framework density 27.429874999999999
#
# number of rings (size 3 to 8) (size 9 to 14) (size 15 to 20)
#    0.000    1.667    0.000    4.000    0.000   11.333 
#    0.000    0.000    0.000    0.000    0.000    0.000 
#    0.000    0.000    0.000    0.000    0.000    0.000 
#
# Total GULP energy -133722.585652 kJ/mol
# GULP energy per Si atom -5571.774402 kJ/mol
# Density = 2.736744 g / cm^3
# Si number density = 27.429875 Si / 1000 Ang^3
#
#
#
# Elastic Constant Matrix: (Units=GPa)
#
#
# Indices 1 2 3 4 5 6 
#
# 1 68.5298 48.6759 -1.5524 0.0000 0.0000 0.0000
# 2 48.6759 191.1426 47.5999 0.0000 0.0000 0.0000
# 3 -1.5524 47.5999 61.8617 0.0000 0.0000 0.0000
# 4 0.0000 0.0000 0.0000 48.8302 0.0000 0.0000
# 5 0.0000 0.0000 0.0000 0.0000 18.6229 0.0000
# 6 0.0000 0.0000 0.0000 0.0000 0.0000 24.4022
#
#
#
# Elastic Compliance Matrix: (Units=1/GPa)
#
#
# Indices 1 2 3 4 5 6 
#
# 1 0.019086 -0.006160 0.005219 0.000000 0.000000 0.000000
# 2 -0.006160 0.008460 -0.006664 0.000000 0.000000 0.000000
# 3 0.005219 -0.006664 0.021424 0.000000 0.000000 0.000000
# 4 0.000000 0.000000 0.000000 0.020479 0.000000 0.000000
# 5 0.000000 0.000000 0.000000 0.000000 0.053697 0.000000
# 6 0.000000 0.000000 0.000000 0.000000 0.000000 0.040980
#
#
# Mechanical properties :
#
#
# Convention : Reuss Voigt Hill
#
# Bulk Modulus (GPa) = 29.62187 56.77566 43.19876
# Shear Modulus (GPa) = 26.23442 33.49178 29.86310
#
# Velocity S-wave (km/s) = 3.09596 3.49807 3.30314
# Velocity P-wave (km/s) = 4.85824 6.08759 5.50732
#
# Compressibility (1/GPa) = 0.03375885
#
# Stress axis : x y z
#
# Youngs Moduli (GPa) = 52.39514 118.20426 46.67704
#
# Poissons Ratio (x) = 0.72813 -0.24360
# Poissons Ratio (y) = 0.32275 0.31106
# Poissons Ratio (z) = -0.27344 0.78773
#
# Static dielectric constant tensor:
#      x y z
#    x 2.304760 0.000000 0.000000 
#    y 0.000000 2.290190 0.000000 
#    z 0.000000 0.000000 2.126450 
# 
# From -- ./inp_files/1798.got.cif
#   From: 2010.05.17/outbox.cif.g08.bks.cpg/sg41_1_cif.got.tgz:1798.got - 2010.06.03 18:54:24.
