data_PCOD9366326
_publ_section_title
;
Structure prediction by ZEFSAII (Michael W. Deem and Ramdas Pophale) SiO2 
 PCOD9366326
Probable space group: A B A 2
;
_chemical_formula_sum "Si O2"
_cell_formula_units_Z 60
_cell_length_a 17.626528
_cell_length_b 29.026111
_cell_length_c 5.274958
_cell_angle_alpha 90.000000
_cell_angle_beta 90.000000
_cell_angle_gamma 90.000000
_cell_volume 2698.824431
_symmetry_space_group_name_H-M "A B A 2"
_symmetry_group_IT_number 41
_symmetry_cell_setting 'orthorhombic'
loop_
_space_group_symop_operation_xyz
x,y,z
-x,-y,z
1/2-x,y,1/2+z
1/2+x,-y,1/2+z
x,1/2+y,1/2+z
-x,1/2-y,1/2+z
1/2-x,1/2+y,z
1/2+x,1/2-y,z
loop_
_atom_site_type_symbol
_atom_site_label
_atom_site_fract_x
_atom_site_fract_y
_atom_site_fract_z
Si Si1 0.770739 0.097999 0.733860
Si Si2 0.922917 0.783055 0.222654
Si Si3 0.000000 0.000000 0.594682
Si Si4 0.199209 0.047113 0.967908
Si Si5 0.013169 0.309197 0.228723
Si Si6 0.372303 0.966606 0.734405
Si Si7 0.942463 0.087463 0.835092
Si Si8 0.297513 0.148981 0.524026
O O1 0.740026 0.124871 0.494452
O O2 0.711100 0.055663 0.781000
O O3 0.857642 0.083313 0.715391
O O4 0.953897 0.799014 0.498902
O O5 0.851232 0.811207 0.125652
O O6 0.918345 0.727557 0.198824
O O7 0.983181 0.796380 0.006846
O O8 0.076406 0.994362 0.430357
O O9 0.001309 0.952561 0.748581
O O10 0.264300 0.044141 0.188627
O O11 0.165498 0.097745 0.027868
O O12 0.144116 0.004598 0.017871
O O13 0.031394 0.362734 0.249630
O O14 0.423597 0.924498 0.627842
O O15 0.269669 0.151451 0.233407
#
# Coordination Sequence:
#
# PCOD9366326 Si02
#       8
#     8   8   4   8   8   8   8   8
#     4  10  20  39  62  82 124 174 214 259 323 385
#     4  10  22  45  68  99 128 174 212 287 350 408
#     4  12  26  40  60  98 132 170 228 286 314 382
#     4  10  22  38  62  90 122 173 221 257 323 403
#     4  10  24  42  71  94 132 171 226 272 349 414
#     4  11  24  40  60  90 134 180 217 277 326 392
#     4  11  25  42  64  98 130 174 228 278 327 401
#     4  10  21  38  63  97 130 164 219 277 335 405
#
# _framework density 22.231902999999999
#
# number of rings (size 3 to 8) (size 9 to 14) (size 15 to 20)
#    0.000    1.600    1.333    2.800    5.600    1.067 
#    0.000    2.667    0.000    0.000    0.000    0.000 
#    0.000    0.000    0.000    0.000    0.000    0.000 
#
# Total GULP energy -167209.635556 kJ/mol
# GULP energy per Si atom -5573.654519 kJ/mol
# Density = 2.218130 g / cm^3
# Si number density = 22.231903 Si / 1000 Ang^3
#
#
#
# Elastic Constant Matrix: (Units=GPa)
#
#
# Indices 1 2 3 4 5 6 
#
# 1 31.8872 25.9216 17.9560 0.0000 0.0000 0.0000
# 2 25.9216 137.8861 15.4300 0.0000 0.0000 0.0000
# 3 17.9560 15.4300 73.3247 0.0000 0.0000 0.0000
# 4 0.0000 0.0000 0.0000 23.3487 0.0000 0.0000
# 5 0.0000 0.0000 0.0000 0.0000 34.2946 0.0000
# 6 0.0000 0.0000 0.0000 0.0000 0.0000 18.2065
#
#
#
# Elastic Compliance Matrix: (Units=1/GPa)
#
#
# Indices 1 2 3 4 5 6 
#
# 1 0.041932 -0.006896 -0.008817 0.000000 0.000000 0.000000
# 2 -0.006896 0.008561 -0.000113 0.000000 0.000000 0.000000
# 3 -0.008817 -0.000113 0.015821 0.000000 0.000000 0.000000
# 4 0.000000 0.000000 0.000000 0.042829 0.000000 0.000000
# 5 0.000000 0.000000 0.000000 0.000000 0.029159 0.000000
# 6 0.000000 0.000000 0.000000 0.000000 0.000000 0.054926
#
#
# Mechanical properties :
#
#
# Convention : Reuss Voigt Hill
#
# Bulk Modulus (GPa) = 28.85040 40.19034 34.52037
# Shear Modulus (GPa) = 21.14758 27.42265 24.28512
#
# Velocity S-wave (km/s) = 3.08754 3.51591 3.30866
# Velocity P-wave (km/s) = 5.07107 5.88210 5.49158
#
# Compressibility (1/GPa) = 0.03466156
#
# Stress axis : x y z
#
# Youngs Moduli (GPa) = 23.84836 116.80307 63.20754
#
# Poissons Ratio (x) = 0.80549 0.55731
# Poissons Ratio (y) = 0.16446 0.00713
# Poissons Ratio (z) = 0.21027 0.01318
#
# Static dielectric constant tensor:
#      x y z
#    x 1.851500 0.000000 0.000000 
#    y 0.000000 1.847710 0.000000 
#    z 0.000000 0.000000 1.966190 
# 
# From -- ./inp_files/550.got.cif
#   From: 2010.05.17/outbox.cif.g08.bks.cpg/sg41_1_cif.got.tgz:550.got - 2010.06.03 18:54:24.
