data_PCOD9366989
_publ_section_title
;
Structure prediction by ZEFSAII (Michael W. Deem and Ramdas Pophale) SiO2 
 PCOD9366989
Probable space group: A B A 2
;
_chemical_formula_sum "Si O2"
_cell_formula_units_Z 52
_cell_length_a 14.337998
_cell_length_b 20.297477
_cell_length_c 8.771185
_cell_angle_alpha 90.000000
_cell_angle_beta 90.000000
_cell_angle_gamma 90.000000
_cell_volume 2552.635734
_symmetry_space_group_name_H-M "A B A 2"
_symmetry_group_IT_number 41
_symmetry_cell_setting 'orthorhombic'
loop_
_space_group_symop_operation_xyz
x,y,z
-x,-y,z
1/2-x,y,1/2+z
1/2+x,-y,1/2+z
x,1/2+y,1/2+z
-x,1/2-y,1/2+z
1/2-x,1/2+y,z
1/2+x,1/2-y,z
loop_
_atom_site_type_symbol
_atom_site_label
_atom_site_fract_x
_atom_site_fract_y
_atom_site_fract_z
Si Si1 0.128917 0.112259 0.200010
Si Si2 0.848313 0.566426 0.278211
Si Si3 0.503461 0.199993 0.904060
Si Si4 0.348289 0.911761 0.920125
Si Si5 0.312716 0.081149 0.373120
Si Si6 0.524013 0.837928 0.253459
Si Si7 0.000000 0.000000 0.252214
O O1 0.207137 0.084545 0.314537
O O2 0.074836 0.170730 0.287708
O O3 0.049251 0.058424 0.163862
O O4 0.179397 0.116135 0.037632
O O5 0.752806 0.594856 0.346277
O O6 0.850149 0.493849 0.354369
O O7 0.939741 0.611943 0.296556
O O8 0.836582 0.565941 0.095182
O O9 0.596962 0.156268 0.891106
O O10 0.519028 0.275627 0.864613
O O11 0.479848 0.188303 0.080772
O O12 0.418465 0.965764 0.849426
O O13 0.379895 0.123647 0.267486
#
# Coordination Sequence:
#
# PCOD9366989 Si02
#       7
#     8   8   8   8   8   8   4
#     4  11  24  40  67  95 133 167 218 265 332 384
#     4  11  24  39  66  99 128 170 210 269 324 390
#     4  10  24  46  65  95 128 182 217 274 325 384
#     4  10  23  40  66  91 133 164 213 263 326 378
#     4  12  24  40  66 100 131 170 214 273 327 396
#     4  11  25  43  67  92 136 172 226 268 325 389
#     4  10  22  38  62  92 130 166 200 268 318 386
#
# _framework density 20.371100999999999
#
# number of rings (size 3 to 8) (size 9 to 14) (size 15 to 20)
#    0.000    1.231    1.538    3.231    8.615    3.692 
#    0.000    3.077    0.000    0.000    0.000    0.000 
#    0.000    0.000    0.000    0.000    0.000    0.000 
#
# Total GULP energy -145085.270429 kJ/mol
# GULP energy per Si atom -5580.202709 kJ/mol
# Density = 2.032474 g / cm^3
# Si number density = 20.371101 Si / 1000 Ang^3
#
#
#
# Elastic Constant Matrix: (Units=GPa)
#
#
# Indices 1 2 3 4 5 6 
#
# 1 86.3263 25.0647 28.5812 0.0000 0.0000 0.0000
# 2 25.0647 71.5824 11.0769 0.0000 0.0000 0.0000
# 3 28.5812 11.0769 67.0856 0.0000 0.0000 0.0000
# 4 0.0000 0.0000 0.0000 26.9356 0.0000 0.0000
# 5 0.0000 0.0000 0.0000 0.0000 32.5272 0.0000
# 6 0.0000 0.0000 0.0000 0.0000 0.0000 16.6469
#
#
#
# Elastic Compliance Matrix: (Units=1/GPa)
#
#
# Indices 1 2 3 4 5 6 
#
# 1 0.014659 -0.004276 -0.005540 0.000000 0.000000 0.000000
# 2 -0.004276 0.015583 -0.000751 0.000000 0.000000 0.000000
# 3 -0.005540 -0.000751 0.017390 0.000000 0.000000 0.000000
# 4 0.000000 0.000000 0.000000 0.037126 0.000000 0.000000
# 5 0.000000 0.000000 0.000000 0.000000 0.030744 0.000000
# 6 0.000000 0.000000 0.000000 0.000000 0.000000 0.060071
#
#
# Mechanical properties :
#
#
# Convention : Reuss Voigt Hill
#
# Bulk Modulus (GPa) = 37.73612 39.38222 38.55917
# Shear Modulus (GPa) = 24.32612 25.90671 25.11641
#
# Velocity S-wave (km/s) = 3.45939 3.57001 3.51514
# Velocity P-wave (km/s) = 5.87547 6.03056 5.95352
#
# Compressibility (1/GPa) = 0.02649981
#
# Stress axis : x y z
#
# Youngs Moduli (GPa) = 68.21520 64.17096 57.50278
#
# Poissons Ratio (x) = 0.27438 0.31854
# Poissons Ratio (y) = 0.29168 0.04321
# Poissons Ratio (z) = 0.37788 0.04822
#
# Static dielectric constant tensor:
#      x y z
#    x 1.661300 0.000000 0.000000 
#    y 0.000000 1.705490 0.000000 
#    z 0.000000 0.000000 1.736770 
# 
# From -- ./inp_files/2633.got.cif
#   From: 2010.05.17/outbox.cif.g08.bks.cpg/sg41_2_cif.got.tgz:2633.got - 2010.06.03 18:54:24.
