data_PCOD9366620
_publ_section_title
;
Structure prediction by ZEFSAII (Michael W. Deem and Ramdas Pophale) SiO2 
 PCOD9366620
Probable space group: A B A 2
;
_chemical_formula_sum "Si O2"
_cell_formula_units_Z 32
_cell_length_a 5.186767
_cell_length_b 17.675895
_cell_length_c 13.454237
_cell_angle_alpha 90.000000
_cell_angle_beta 90.000000
_cell_angle_gamma 90.000000
_cell_volume 1233.494524
_symmetry_space_group_name_H-M "A B A 2"
_symmetry_group_IT_number 41
_symmetry_cell_setting 'orthorhombic'
loop_
_space_group_symop_operation_xyz
x,y,z
-x,-y,z
1/2-x,y,1/2+z
1/2+x,-y,1/2+z
x,1/2+y,1/2+z
-x,1/2-y,1/2+z
1/2-x,1/2+y,z
1/2+x,1/2-y,z
loop_
_atom_site_type_symbol
_atom_site_label
_atom_site_fract_x
_atom_site_fract_y
_atom_site_fract_z
Si Si1 0.421980 0.703936 0.920560
Si Si2 0.562706 0.909960 0.998299
Si Si3 0.872517 0.081108 0.285751
Si Si4 0.621719 0.857231 0.211432
O O1 0.679315 0.745111 0.953748
O O2 0.422809 0.703494 0.799053
O O3 0.345903 0.619474 0.960253
O O4 0.531976 0.860673 0.097790
O O5 0.500000 0.000000 0.018680
O O6 0.400029 0.892029 0.899234
O O7 0.580281 0.081140 0.253620
O O8 0.072485 0.127428 0.216873
O O9 0.000000 0.000000 0.284104
#
# Coordination Sequence:
#
# PCOD9366620 Si02
#       4
#     8   8   8   8
#     4  11  25  46  69  99 142 192 244 300 369 455
#     4  10  23  43  72 106 141 188 248 314 378 440
#     4  10  21  38  61  96 139 178 228 297 366 436
#     4  11  23  41  66  97 137 186 240 297 368 443
#
# _framework density 25.942556
#
# number of rings (size 3 to 8) (size 9 to 14) (size 15 to 20)
#    0.000    1.500    0.000    5.250    0.000    8.000 
#    0.000   11.250    0.000    0.000    0.000    0.000 
#    0.000    0.000    0.000    0.000    0.000    0.000 
#
# Total GULP energy -89107.078773 kJ/mol
# GULP energy per Si atom -5569.192423 kJ/mol
# Density = 2.588351 g / cm^3
# Si number density = 25.942556 Si / 1000 Ang^3
#
#
#
# Elastic Constant Matrix: (Units=GPa)
#
#
# Indices 1 2 3 4 5 6 
#
# 1 122.0650 48.9324 6.3279 0.0000 0.0000 0.0000
# 2 48.9324 112.8654 10.5241 0.0000 0.0000 0.0000
# 3 6.3279 10.5241 163.1167 0.0000 0.0000 0.0000
# 4 0.0000 0.0000 0.0000 23.0621 0.0000 0.0000
# 5 0.0000 0.0000 0.0000 0.0000 27.0436 0.0000
# 6 0.0000 0.0000 0.0000 0.0000 0.0000 53.8244
#
#
#
# Elastic Compliance Matrix: (Units=1/GPa)
#
#
# Indices 1 2 3 4 5 6 
#
# 1 0.009918 -0.004290 -0.000108 0.000000 0.000000 0.000000
# 2 -0.004290 0.010769 -0.000528 0.000000 0.000000 0.000000
# 3 -0.000108 -0.000528 0.006169 0.000000 0.000000 0.000000
# 4 0.000000 0.000000 0.000000 0.043361 0.000000 0.000000
# 5 0.000000 0.000000 0.000000 0.000000 0.036977 0.000000
# 6 0.000000 0.000000 0.000000 0.000000 0.000000 0.018579
#
#
# Mechanical properties :
#
#
# Convention : Reuss Voigt Hill
#
# Bulk Modulus (GPa) = 58.81141 58.84620 58.82880
# Shear Modulus (GPa) = 35.38746 42.93685 39.16216
#
# Velocity S-wave (km/s) = 3.69734 4.07267 3.88954
# Velocity P-wave (km/s) = 6.39892 6.69687 6.54959
#
# Compressibility (1/GPa) = 0.01700350
#
# Stress axis : x y z
#
# Youngs Moduli (GPa) = 100.83128 92.85786 162.10447
#
# Poissons Ratio (x) = 0.39833 0.01750
# Poissons Ratio (y) = 0.43253 0.08566
# Poissons Ratio (z) = 0.01089 0.04907
#
# Static dielectric constant tensor:
#      x y z
#    x 2.070980 0.000000 0.000000 
#    y 0.000000 2.174750 0.000000 
#    z 0.000000 0.000000 2.052620 
# 
# From -- ./inp_files/4096.got.cif
#   From: 2010.05.17/outbox.cif.g08.bks.cpg/sg41_3_cif.got.tgz:4096.got - 2010.06.03 18:54:24.
