data_PCOD9366282
_publ_section_title
;
Structure prediction by ZEFSAII (Michael W. Deem and Ramdas Pophale) SiO2 
 PCOD9366282
Probable space group: A B A 2
;
_chemical_formula_sum "Si O2"
_cell_formula_units_Z 48
_cell_length_a 14.993327
_cell_length_b 17.238182
_cell_length_c 8.171893
_cell_angle_alpha 90.000000
_cell_angle_beta 90.000000
_cell_angle_gamma 90.000000
_cell_volume 2112.088666
_symmetry_space_group_name_H-M "A B A 2"
_symmetry_group_IT_number 41
_symmetry_cell_setting 'orthorhombic'
loop_
_space_group_symop_operation_xyz
x,y,z
-x,-y,z
1/2-x,y,1/2+z
1/2+x,-y,1/2+z
x,1/2+y,1/2+z
-x,1/2-y,1/2+z
1/2-x,1/2+y,z
1/2+x,1/2-y,z
loop_
_atom_site_type_symbol
_atom_site_label
_atom_site_fract_x
_atom_site_fract_y
_atom_site_fract_z
Si Si1 0.442210 0.751192 0.176110
Si Si2 0.866575 0.315199 0.250321
Si Si3 0.215552 0.253187 0.433483
Si Si4 0.594035 0.964530 0.052256
Si Si5 0.350648 0.378937 0.443543
Si Si6 0.493643 0.585087 0.208672
O O1 0.532866 0.783450 0.257857
O O2 0.365282 0.742746 0.310187
O O3 0.408648 0.816876 0.049878
O O4 0.461960 0.662674 0.117629
O O5 0.797901 0.305422 0.398624
O O6 0.870724 0.400176 0.173550
O O7 0.819822 0.261504 0.113337
O O8 0.257616 0.337894 0.413970
O O9 0.500000 0.000000 0.111982
O O10 0.657063 0.038376 0.030449
O O11 0.568000 0.928654 0.872865
O O12 0.409261 0.395410 0.282987
O O13 0.500000 0.500000 0.126219
#
# Coordination Sequence:
#
# PCOD9366282 Si02
#       6
#     8   8   8   8   8   8
#     4  12  20  39  67  90 132 166 217 264 327 382
#     4  12  24  42  65  97 132 174 215 272 323 393
#     4  12  25  40  65 102 124 171 228 265 324 388
#     4   9  18  39  63  92 129 174 213 252 343 384
#     4  10  20  38  62  95 127 166 217 265 313 397
#     4   9  18  35  65  92 127 172 209 256 333 384
#
# _framework density 22.726317999999999
#
# number of rings (size 3 to 8) (size 9 to 14) (size 15 to 20)
#    0.000    1.667    8.333    0.000    0.000    0.000 
#    3.000    1.667    0.000    3.000    0.000    0.000 
#    0.000    0.000    0.000    0.000    0.000    0.000 
#
# Total GULP energy -134109.945219 kJ/mol
# GULP energy per Si atom -5587.914384 kJ/mol
# Density = 2.267459 g / cm^3
# Si number density = 22.726318 Si / 1000 Ang^3
#
#
#
# Elastic Constant Matrix: (Units=GPa)
#
#
# Indices 1 2 3 4 5 6 
#
# 1 113.1791 39.7070 19.6724 0.0000 0.0000 0.0000
# 2 39.7070 187.5905 12.9215 0.0000 0.0000 0.0000
# 3 19.6724 12.9215 22.3636 0.0000 0.0000 0.0000
# 4 0.0000 0.0000 0.0000 26.7664 0.0000 0.0000
# 5 0.0000 0.0000 0.0000 0.0000 16.2915 0.0000
# 6 0.0000 0.0000 0.0000 0.0000 0.0000 41.6131
#
#
#
# Elastic Compliance Matrix: (Units=1/GPa)
#
#
# Indices 1 2 3 4 5 6 
#
# 1 0.010939 -0.001721 -0.008628 0.000000 0.000000 0.000000
# 2 -0.001721 0.005823 -0.001850 0.000000 0.000000 0.000000
# 3 -0.008628 -0.001850 0.053374 0.000000 0.000000 0.000000
# 4 0.000000 0.000000 0.000000 0.037360 0.000000 0.000000
# 5 0.000000 0.000000 0.000000 0.000000 0.061382 0.000000
# 6 0.000000 0.000000 0.000000 0.000000 0.000000 0.024031
#
#
# Mechanical properties :
#
#
# Convention : Reuss Voigt Hill
#
# Bulk Modulus (GPa) = 21.86416 51.97055 36.91736
# Shear Modulus (GPa) = 21.50042 33.65635 27.57838
#
# Velocity S-wave (km/s) = 3.07914 3.85248 3.48731
# Velocity P-wave (km/s) = 4.72049 6.53501 5.70041
#
# Compressibility (1/GPa) = 0.04573694
#
# Stress axis : x y z
#
# Youngs Moduli (GPa) = 91.41504 171.74709 18.73557
#
# Poissons Ratio (x) = 0.29560 0.16165
# Poissons Ratio (y) = 0.15734 0.03466
# Poissons Ratio (z) = 0.78875 0.31776
#
# Static dielectric constant tensor:
#      x y z
#    x 1.844280 0.000000 0.000000 
#    y 0.000000 1.879150 0.000000 
#    z 0.000000 0.000000 1.887290 
# 
# From -- ./inp_files/2562.got.cif
#   From: 2010.05.17/outbox.cif.g08.bks.cpg/sg41_2_cif.got.tgz:2562.got - 2010.06.03 18:54:24.
