data_PCOD9366317
_publ_section_title
;
Structure prediction by ZEFSAII (Michael W. Deem and Ramdas Pophale) SiO2 
 PCOD9366317
Probable space group: A B A 2
;
_chemical_formula_sum "Si O2"
_cell_formula_units_Z 56
_cell_length_a 10.789684
_cell_length_b 15.886102
_cell_length_c 14.735699
_cell_angle_alpha 90.000000
_cell_angle_beta 90.000000
_cell_angle_gamma 90.000000
_cell_volume 2525.787526
_symmetry_space_group_name_H-M "A B A 2"
_symmetry_group_IT_number 41
_symmetry_cell_setting 'orthorhombic'
loop_
_space_group_symop_operation_xyz
x,y,z
-x,-y,z
1/2-x,y,1/2+z
1/2+x,-y,1/2+z
x,1/2+y,1/2+z
-x,1/2-y,1/2+z
1/2-x,1/2+y,z
1/2+x,1/2-y,z
loop_
_atom_site_type_symbol
_atom_site_label
_atom_site_fract_x
_atom_site_fract_y
_atom_site_fract_z
Si Si1 0.411850 0.173139 0.563380
Si Si2 0.345917 0.348957 0.489052
Si Si3 0.021050 0.246231 0.733239
Si Si4 0.000000 0.000000 0.475431
Si Si5 0.248032 0.442460 0.669172
Si Si6 0.500000 0.500000 0.071223
Si Si7 0.646190 0.393507 0.623102
Si Si8 0.228749 0.804707 0.820011
O O1 0.416471 0.260916 0.508678
O O2 0.493849 0.185660 0.654472
O O3 0.457323 0.085243 0.519569
O O4 0.268216 0.159033 0.594323
O O5 0.417476 0.424300 0.434629
O O6 0.303610 0.388961 0.584390
O O7 0.231362 0.324494 0.425850
O O8 0.896410 0.241108 0.791025
O O9 0.047894 0.163187 0.674356
O O10 0.143732 0.257418 0.793204
O O11 0.089814 0.058654 0.536427
O O12 0.319621 0.528839 0.686717
O O13 0.258062 0.386206 0.757008
O O14 0.116061 0.475123 0.633638
#
# Coordination Sequence:
#
# PCOD9366317 Si02
#       8
#     8   8   8   4   8   4   8   8
#     4  11  21  40  71 100 136 181 229 288 345 418
#     4  11  24  42  68 100 138 188 229 290 344 421
#     4  12  21  43  65 100 134 178 232 280 346 410
#     4  10  20  41  66  99 134 182 238 275 352 419
#     4  10  21  42  65  98 139 178 229 285 344 414
#     4  10  22  37  74 101 132 182 228 285 360 399
#     4  10  20  38  72  98 128 186 228 282 355 406
#     4  12  26  41  67 102 138 182 233 281 345 414
#
# _framework density 22.171303999999999
#
# number of rings (size 3 to 8) (size 9 to 14) (size 15 to 20)
#    0.000    1.143    5.714    0.857    0.000    2.857 
#    0.000    5.714    0.000    0.857    0.000    0.000 
#    0.000    0.000    0.000    0.000    0.000    0.000 
#
# Total GULP energy -156208.100484 kJ/mol
# GULP energy per Si atom -5578.860732 kJ/mol
# Density = 2.212084 g / cm^3
# Si number density = 22.171304 Si / 1000 Ang^3
#
#
#
# Elastic Constant Matrix: (Units=GPa)
#
#
# Indices 1 2 3 4 5 6 
#
# 1 106.2959 34.2966 8.7174 0.0000 0.0000 0.0000
# 2 34.2966 131.2776 27.3543 0.0000 0.0000 0.0000
# 3 8.7174 27.3543 46.2315 0.0000 0.0000 0.0000
# 4 0.0000 0.0000 0.0000 -165.8997 0.0000 0.0000
# 5 0.0000 0.0000 0.0000 0.0000 18.3575 0.0000
# 6 0.0000 0.0000 0.0000 0.0000 0.0000 47.2427
#
#
#
# Elastic Compliance Matrix: (Units=1/GPa)
#
#
# Indices 1 2 3 4 5 6 
#
# 1 0.010280 -0.002603 -0.000398 0.000000 0.000000 0.000000
# 2 -0.002603 0.009348 -0.005040 0.000000 0.000000 0.000000
# 3 -0.000398 -0.005040 0.024688 0.000000 0.000000 0.000000
# 4 0.000000 0.000000 0.000000 -0.006028 0.000000 0.000000
# 5 0.000000 0.000000 0.000000 0.000000 0.054474 0.000000
# 6 0.000000 0.000000 0.000000 0.000000 0.000000 0.021167
#
#
# Mechanical properties :
#
#
# Convention : Reuss Voigt Hill
#
# Bulk Modulus (GPa) = 35.41967 47.17129 41.29548
# Shear Modulus (GPa) = 35.86236 -5.83081 15.01578
#
# Velocity S-wave (km/s) = 4.02619 -1.62345 2.60525
# Velocity P-wave (km/s) = 6.13382 4.21994 5.26458
#
# Compressibility (1/GPa) = 0.02823290
#
# Stress axis : x y z
#
# Youngs Moduli (GPa) = 97.27493 106.97929 40.50628
#
# Poissons Ratio (x) = 0.27843 0.01614
# Poissons Ratio (y) = 0.25318 0.20415
# Poissons Ratio (z) = 0.03876 0.53918
#
# Static dielectric constant tensor:
#      x y z
#    x 1.923750 0.000000 0.000000 
#    y 0.000000 1.872540 0.000000 
#    z 0.000000 0.000000 1.772700 
# 
# From -- ./inp_files/7978.got.cif
#   From: 2010.05.17/outbox.cif.g08.bks.cpg/sg41_4_cif.got.tgz:7978.got - 2010.06.03 18:54:24.
