data_PCOD9366541
_publ_section_title
;
Structure prediction by ZEFSAII (Michael W. Deem and Ramdas Pophale) SiO2 
 PCOD9366541
Probable space group: A B A 2
;
_chemical_formula_sum "Si O2"
_cell_formula_units_Z 56
_cell_length_a 5.264214
_cell_length_b 16.959838
_cell_length_c 27.462758
_cell_angle_alpha 90.000000
_cell_angle_beta 90.000000
_cell_angle_gamma 90.000000
_cell_volume 2451.880984
_symmetry_space_group_name_H-M "A B A 2"
_symmetry_group_IT_number 41
_symmetry_cell_setting 'orthorhombic'
loop_
_space_group_symop_operation_xyz
x,y,z
-x,-y,z
1/2-x,y,1/2+z
1/2+x,-y,1/2+z
x,1/2+y,1/2+z
-x,1/2-y,1/2+z
1/2-x,1/2+y,z
1/2+x,1/2-y,z
loop_
_atom_site_type_symbol
_atom_site_label
_atom_site_fract_x
_atom_site_fract_y
_atom_site_fract_z
Si Si1 0.250936 0.544979 0.418300
Si Si2 0.750895 0.023531 0.023696
Si Si3 0.371217 0.697203 0.363458
Si Si4 0.699368 0.705506 0.631896
Si Si5 0.488794 0.095499 0.768184
Si Si6 0.990436 0.093696 0.710844
Si Si7 0.707475 0.203084 0.014518
O O1 0.500000 0.500000 0.400026
O O2 0.244867 0.533683 0.476618
O O3 0.290488 0.634691 0.404558
O O4 0.000000 0.500000 0.399218
O O5 0.742180 0.111409 0.002266
O O6 0.500000 0.000000 0.052026
O O7 0.000000 0.000000 0.052830
O O8 0.645656 0.738810 0.365602
O O9 0.394892 0.642869 0.315283
O O10 0.484773 0.770109 0.645107
O O11 0.601918 0.629647 0.660196
O O12 0.696103 0.698725 0.573538
O O13 0.770976 0.118165 0.749749
O O14 0.272203 0.115806 0.728403
O O15 0.500000 0.000000 0.775769
O O16 0.000000 0.000000 0.708276
O O17 0.448842 0.245371 0.998824
#
# Coordination Sequence:
#
# PCOD9366541 Si02
#       7
#     8   8   8   8   8   8   8
#     4  10  22  43  64  86 119 157 196 242 305 369
#     4  10  21  40  63  89 117 155 199 243 303 367
#     4  12  25  40  62  93 121 155 204 256 303 361
#     4  10  21  36  57  84 121 160 193 242 303 347
#     4  10  22  39  59  82 119 161 200 246 298 350
#     4  10  21  37  57  86 117 157 205 246 288 348
#     4  10  21  39  61  90 123 159 203 251 300 358
#
# _framework density 22.839607000000001
#
# number of rings (size 3 to 8) (size 9 to 14) (size 15 to 20)
#    0.000    1.714    0.000    3.857    0.000    5.714 
#    0.000   19.286    0.000    0.000    0.000    0.000 
#    0.000    0.000    0.000    0.000    0.000    0.000 
#
# Total GULP energy -156452.394010 kJ/mol
# GULP energy per Si atom -5587.585500 kJ/mol
# Density = 2.278762 g / cm^3
# Si number density = 22.839607 Si / 1000 Ang^3
#
#
#
# Elastic Constant Matrix: (Units=GPa)
#
#
# Indices 1 2 3 4 5 6 
#
# 1 174.3400 45.7613 18.5046 0.0000 0.0000 0.0000
# 2 45.7613 76.6156 23.7222 0.0000 0.0000 0.0000
# 3 18.5046 23.7222 36.6814 0.0000 0.0000 0.0000
# 4 0.0000 0.0000 0.0000 20.9837 0.0000 0.0000
# 5 0.0000 0.0000 0.0000 0.0000 36.5871 0.0000
# 6 0.0000 0.0000 0.0000 0.0000 0.0000 43.0183
#
#
#
# Elastic Compliance Matrix: (Units=1/GPa)
#
#
# Indices 1 2 3 4 5 6 
#
# 1 0.006832 -0.003768 -0.001010 0.000000 0.000000 0.000000
# 2 -0.003768 0.018398 -0.009997 0.000000 0.000000 0.000000
# 3 -0.001010 -0.009997 0.034237 0.000000 0.000000 0.000000
# 4 0.000000 0.000000 0.000000 0.047656 0.000000 0.000000
# 5 0.000000 0.000000 0.000000 0.000000 0.027332 0.000000
# 6 0.000000 0.000000 0.000000 0.000000 0.000000 0.023246
#
#
# Mechanical properties :
#
#
# Convention : Reuss Voigt Hill
#
# Bulk Modulus (GPa) = 33.42642 51.51257 42.46950
# Shear Modulus (GPa) = 25.35192 33.42774 29.38983
#
# Velocity S-wave (km/s) = 3.33528 3.82984 3.59108
# Velocity P-wave (km/s) = 5.43131 6.49306 5.98578
#
# Compressibility (1/GPa) = 0.02991646
#
# Stress axis : x y z
#
# Youngs Moduli (GPa) = 146.36674 54.35296 29.20850
#
# Poissons Ratio (x) = 0.20481 0.02949
# Poissons Ratio (y) = 0.55152 0.29201
# Poissons Ratio (z) = 0.14779 0.54339
#
# Static dielectric constant tensor:
#      x y z
#    x 1.934110 0.000000 0.000000 
#    y 0.000000 1.855450 0.000000 
#    z 0.000000 0.000000 1.846500 
# 
# From -- ./inp_files/12629.got.cif
#   From: 2010.05.17/outbox.cif.g08.bks.cpg/sg41_7_cif.got.tgz:12629.got - 2010.06.03 18:54:24.
