data_PCOD9366664
_publ_section_title
;
Structure prediction by ZEFSAII (Michael W. Deem and Ramdas Pophale) SiO2 
 PCOD9366664
Probable space group: A B A 2
;
_chemical_formula_sum "Si O2"
_cell_formula_units_Z 48
_cell_length_a 22.781424
_cell_length_b 11.511217
_cell_length_c 8.267586
_cell_angle_alpha 90.000000
_cell_angle_beta 90.000000
_cell_angle_gamma 90.000000
_cell_volume 2168.107587
_symmetry_space_group_name_H-M "A B A 2"
_symmetry_group_IT_number 41
_symmetry_cell_setting 'orthorhombic'
loop_
_space_group_symop_operation_xyz
x,y,z
-x,-y,z
1/2-x,y,1/2+z
1/2+x,-y,1/2+z
x,1/2+y,1/2+z
-x,1/2-y,1/2+z
1/2-x,1/2+y,z
1/2+x,1/2-y,z
loop_
_atom_site_type_symbol
_atom_site_label
_atom_site_fract_x
_atom_site_fract_y
_atom_site_fract_z
Si Si1 0.434172 0.629639 0.453020
Si Si2 0.566535 0.124033 0.063493
Si Si3 0.640913 0.454355 0.164597
Si Si4 0.382747 0.857853 0.405834
Si Si5 0.677611 0.168224 0.882511
Si Si6 0.778237 0.237727 0.695198
O O1 0.503300 0.641878 0.484332
O O2 0.416770 0.511797 0.544261
O O3 0.412393 0.602486 0.269071
O O4 0.402745 0.746856 0.511029
O O5 0.571979 0.143129 0.254708
O O6 0.614456 0.196169 0.961079
O O7 0.668903 0.552557 0.279748
O O8 0.690222 0.356504 0.142057
O O9 0.620106 0.524185 0.006774
O O10 0.320855 0.822564 0.326273
O O11 0.713902 0.253942 0.767302
O O12 0.718437 0.154614 0.040306
#
# Coordination Sequence:
#
# PCOD9366664 Si02
#       6
#     8   8   8   8   8   8
#     4   9  20  40  61  90 127 159 199 250 307 369
#     4   9  20  39  62  92 126 159 202 253 305 367
#     4  10  22  40  64  91 122 163 208 253 307 370
#     4  10  21  39  63  88 119 162 206 250 305 362
#     4  10  21  39  62  86 121 159 196 252 305 355
#     4  10  22  39  60  90 121 158 207 251 303 364
#
# _framework density 22.139122
#
# number of rings (size 3 to 8) (size 9 to 14) (size 15 to 20)
#    0.000    2.333    0.000    1.000    0.000    8.000 
#    0.000   20.000    0.000    0.000    0.000    0.000 
#    0.000    0.000    0.000    0.000    0.000    0.000 
#
# Total GULP energy -133843.193152 kJ/mol
# GULP energy per Si atom -5576.799715 kJ/mol
# Density = 2.208873 g / cm^3
# Si number density = 22.139122 Si / 1000 Ang^3
#
#
#
# Elastic Constant Matrix: (Units=GPa)
#
#
# Indices 1 2 3 4 5 6 
#
# 1 96.9735 41.3574 59.6076 0.0000 0.0000 0.0000
# 2 41.3574 89.3354 41.1943 0.0000 0.0000 0.0000
# 3 59.6076 41.1943 84.5811 0.0000 0.0000 0.0000
# 4 0.0000 0.0000 0.0000 31.7933 0.0000 0.0000
# 5 0.0000 0.0000 0.0000 0.0000 27.9877 0.0000
# 6 0.0000 0.0000 0.0000 0.0000 0.0000 18.6009
#
#
#
# Elastic Compliance Matrix: (Units=1/GPa)
#
#
# Indices 1 2 3 4 5 6 
#
# 1 0.018949 -0.003372 -0.011712 0.000000 0.000000 0.000000
# 2 -0.003372 0.015036 -0.004947 0.000000 0.000000 0.000000
# 3 -0.011712 -0.004947 0.022486 0.000000 0.000000 0.000000
# 4 0.000000 0.000000 0.000000 0.031453 0.000000 0.000000
# 5 0.000000 0.000000 0.000000 0.000000 0.035730 0.000000
# 6 0.000000 0.000000 0.000000 0.000000 0.000000 0.053761
#
#
# Mechanical properties :
#
#
# Convention : Reuss Voigt Hill
#
# Bulk Modulus (GPa) = 60.93870 61.68985 61.31428
# Shear Modulus (GPa) = 22.42689 24.25843 23.34266
#
# Velocity S-wave (km/s) = 3.18622 3.31377 3.25062
# Velocity P-wave (km/s) = 6.41257 6.52430 6.46868
#
# Compressibility (1/GPa) = 0.01640993
#
# Stress axis : x y z
#
# Youngs Moduli (GPa) = 52.77236 66.50800 44.47165
#
# Poissons Ratio (x) = 0.22425 0.52086
# Poissons Ratio (y) = 0.17794 0.21999
# Poissons Ratio (z) = 0.61808 0.32900
#
# Static dielectric constant tensor:
#      x y z
#    x 1.821570 0.000000 0.000000 
#    y 0.000000 1.830000 0.000000 
#    z 0.000000 0.000000 1.848950 
# 
# From -- ./inp_files/3600.got.cif
#   From: 2010.05.17/outbox.cif.g08.bks.cpg/sg41_2_cif.got.tgz:3600.got - 2010.06.03 18:54:24.
