data_PCOD9366878
_publ_section_title
;
Structure prediction by ZEFSAII (Michael W. Deem and Ramdas Pophale) SiO2 
 PCOD9366878
Probable space group: A B A 2
;
_chemical_formula_sum "Si O2"
_cell_formula_units_Z 64
_cell_length_a 11.366547
_cell_length_b 8.877215
_cell_length_c 27.825074
_cell_angle_alpha 90.000000
_cell_angle_beta 90.000000
_cell_angle_gamma 90.000000
_cell_volume 2807.641275
_symmetry_space_group_name_H-M "A B A 2"
_symmetry_group_IT_number 41
_symmetry_cell_setting 'orthorhombic'
loop_
_space_group_symop_operation_xyz
x,y,z
-x,-y,z
1/2-x,y,1/2+z
1/2+x,-y,1/2+z
x,1/2+y,1/2+z
-x,1/2-y,1/2+z
1/2-x,1/2+y,z
1/2+x,1/2-y,z
loop_
_atom_site_type_symbol
_atom_site_label
_atom_site_fract_x
_atom_site_fract_y
_atom_site_fract_z
Si Si1 0.774924 0.986384 0.981710
Si Si2 0.363505 0.463085 0.804450
Si Si3 0.634740 0.036808 0.681541
Si Si4 0.415557 0.858191 0.402745
Si Si5 0.256513 0.217192 0.244547
Si Si6 0.493907 0.825361 0.068234
Si Si7 0.232111 0.858683 0.085151
Si Si8 0.922709 0.683927 0.960516
O O1 0.853261 0.106045 0.952727
O O2 0.647838 0.027616 0.960059
O O3 0.830465 0.824761 0.969155
O O4 0.770766 0.033766 0.037652
O O5 0.500000 0.500000 0.801720
O O6 0.336787 0.379777 0.855482
O O7 0.329288 0.345077 0.763883
O O8 0.301460 0.619294 0.789987
O O9 0.646735 0.189574 0.713737
O O10 0.716020 0.055397 0.634889
O O11 0.500000 0.000000 0.668791
O O12 0.687071 0.898851 0.711495
O O13 0.501066 0.718988 0.413415
O O14 0.500000 0.000000 0.397314
O O15 0.360777 0.778050 0.083956
O O16 0.612686 0.741391 0.083744
O O17 0.500000 0.000000 0.082603
O O18 0.492255 0.813528 0.010574
#
# Coordination Sequence:
#
# PCOD9366878 Si02
#       8
#     8   8   8   8   8   8   8   8
#     4  10  22  38  61  95 136 182 222 281 340 419
#     4  10  21  42  72  93 134 174 228 298 367 427
#     4  11  26  42  72 100 139 186 242 294 370 433
#     4   9  19  36  60  96 124 173 220 276 348 424
#     4  10  24  46  65 101 133 177 241 302 368 435
#     4  11  27  45  68 105 149 194 247 295 354 427
#     4  11  27  43  72 100 148 189 238 293 356 429
#     4  10  22  39  64  91 142 182 235 279 348 420
#
# _framework density 22.794933
#
# number of rings (size 3 to 8) (size 9 to 14) (size 15 to 20)
#    0.000    1.750    1.250    0.750   12.250    3.000 
#    0.000    0.000    0.000    9.000    0.000    0.000 
#    0.000    0.000    0.000    0.000    0.000    0.000 
#
# Total GULP energy -178561.269718 kJ/mol
# GULP energy per Si atom -5580.039679 kJ/mol
# Density = 2.274305 g / cm^3
# Si number density = 22.794933 Si / 1000 Ang^3
#
#
#
# Elastic Constant Matrix: (Units=GPa)
#
#
# Indices 1 2 3 4 5 6 
#
# 1 108.4653 40.8379 27.4262 0.0000 0.0000 0.0000
# 2 40.8379 103.9998 22.6354 0.0000 0.0000 0.0000
# 3 27.4262 22.6354 83.4599 0.0000 0.0000 0.0000
# 4 0.0000 0.0000 0.0000 17.9761 0.0000 0.0000
# 5 0.0000 0.0000 0.0000 0.0000 28.8433 0.0000
# 6 0.0000 0.0000 0.0000 0.0000 0.0000 39.3470
#
#
#
# Elastic Compliance Matrix: (Units=1/GPa)
#
#
# Indices 1 2 3 4 5 6 
#
# 1 0.011357 -0.003876 -0.002681 0.000000 0.000000 0.000000
# 2 -0.003876 0.011541 -0.001856 0.000000 0.000000 0.000000
# 3 -0.002681 -0.001856 0.013366 0.000000 0.000000 0.000000
# 4 0.000000 0.000000 0.000000 0.055630 0.000000 0.000000
# 5 0.000000 0.000000 0.000000 0.000000 0.034670 0.000000
# 6 0.000000 0.000000 0.000000 0.000000 0.000000 0.025415
#
#
# Mechanical properties :
#
#
# Convention : Reuss Voigt Hill
#
# Bulk Modulus (GPa) = 51.44584 53.08044 52.26314
# Shear Modulus (GPa) = 28.52500 30.90164 29.71332
#
# Velocity S-wave (km/s) = 3.54132 3.68589 3.61433
# Velocity P-wave (km/s) = 6.27210 6.43825 6.35571
#
# Compressibility (1/GPa) = 0.01943792
#
# Stress axis : x y z
#
# Youngs Moduli (GPa) = 88.05346 86.64408 74.81534
#
# Poissons Ratio (x) = 0.33583 0.20056
# Poissons Ratio (y) = 0.34130 0.13889
# Poissons Ratio (z) = 0.23605 0.16085
#
# Static dielectric constant tensor:
#      x y z
#    x 1.996080 0.000000 0.000000 
#    y 0.000000 1.863510 0.000000 
#    z 0.000000 0.000000 1.909440 
# 
# From -- ./inp_files/12714.got.cif
#   From: 2010.05.17/outbox.cif.g08.bks.cpg/sg41_7_cif.got.tgz:12714.got - 2010.06.03 18:54:24.
