data_PCOD9366996
_publ_section_title
;
Structure prediction by ZEFSAII (Michael W. Deem and Ramdas Pophale) SiO2 
 PCOD9366996
Probable space group: A B A 2
;
_chemical_formula_sum "Si O2"
_cell_formula_units_Z 40
_cell_length_a 10.420004
_cell_length_b 18.168398
_cell_length_c 8.657657
_cell_angle_alpha 90.000000
_cell_angle_beta 90.000000
_cell_angle_gamma 90.000000
_cell_volume 1639.022429
_symmetry_space_group_name_H-M "A B A 2"
_symmetry_group_IT_number 41
_symmetry_cell_setting 'orthorhombic'
loop_
_space_group_symop_operation_xyz
x,y,z
-x,-y,z
1/2-x,y,1/2+z
1/2+x,-y,1/2+z
x,1/2+y,1/2+z
-x,1/2-y,1/2+z
1/2-x,1/2+y,z
1/2+x,1/2-y,z
loop_
_atom_site_type_symbol
_atom_site_label
_atom_site_fract_x
_atom_site_fract_y
_atom_site_fract_z
Si Si1 0.552401 0.584273 0.457310
Si Si2 0.888154 0.804815 0.923290
Si Si3 0.381666 0.217366 0.059780
Si Si4 0.207630 0.438968 0.664596
Si Si5 0.127110 0.025547 0.875367
O O1 0.500000 0.500000 0.449920
O O2 0.437638 0.640071 0.493900
O O3 0.663491 0.595335 0.588643
O O4 0.621114 0.601781 0.291752
O O5 0.886412 0.785726 0.743304
O O6 0.875975 0.892413 0.932783
O O7 0.763165 0.770950 0.004257
O O8 0.020043 0.777836 0.997084
O O9 0.134172 0.468786 0.516722
O O10 0.256060 0.509822 0.761863
O O11 0.000000 0.000000 0.787454
#
# Coordination Sequence:
#
# PCOD9366996 Si02
#       5
#     8   8   8   8   8
#     4  11  23  42  68 100 137 182 232 292 355 423
#     4  12  27  48  71 103 142 189 239 296 360 432
#     4  12  28  48  73 101 143 189 240 297 362 434
#     4  10  22  38  65 101 134 170 228 288 344 410
#     4  11  22  40  67  97 132 174 222 277 338 409
#
# _framework density 24.404789999999998
#
# number of rings (size 3 to 8) (size 9 to 14) (size 15 to 20)
#    0.000    0.800    0.000    8.400    0.000   11.200 
#    0.000    0.000    0.000    0.000    0.000    0.000 
#    0.000    0.000    0.000    0.000    0.000    0.000 
#
# Total GULP energy -112076.290504 kJ/mol
# GULP energy per Si atom -5603.814525 kJ/mol
# Density = 2.434924 g / cm^3
# Si number density = 24.404790 Si / 1000 Ang^3
#
#
#
# Elastic Constant Matrix: (Units=GPa)
#
#
# Indices 1 2 3 4 5 6 
#
# 1 90.4254 0.6167 13.9780 0.0000 0.0000 0.0000
# 2 0.6167 69.3030 -17.4360 0.0000 0.0000 0.0000
# 3 13.9780 -17.4360 134.3885 0.0000 0.0000 0.0000
# 4 0.0000 0.0000 0.0000 20.8257 0.0000 0.0000
# 5 0.0000 0.0000 0.0000 0.0000 52.9164 0.0000
# 6 0.0000 0.0000 0.0000 0.0000 0.0000 38.4105
#
#
#
# Elastic Compliance Matrix: (Units=1/GPa)
#
#
# Indices 1 2 3 4 5 6 
#
# 1 0.011251 -0.000408 -0.001223 0.000000 0.000000 0.000000
# 2 -0.000408 0.014931 0.001980 0.000000 0.000000 0.000000
# 3 -0.001223 0.001980 0.007825 0.000000 0.000000 0.000000
# 4 0.000000 0.000000 0.000000 0.048018 0.000000 0.000000
# 5 0.000000 0.000000 0.000000 0.000000 0.018898 0.000000
# 6 0.000000 0.000000 0.000000 0.000000 0.000000 0.026035
#
#
# Mechanical properties :
#
#
# Convention : Reuss Voigt Hill
#
# Bulk Modulus (GPa) = 28.81489 32.04826 30.43157
# Shear Modulus (GPa) = 36.27718 42.22772 39.25245
#
# Velocity S-wave (km/s) = 3.85967 4.16421 4.01483
# Velocity P-wave (km/s) = 5.62987 6.02339 5.82995
#
# Compressibility (1/GPa) = 0.03470428
#
# Stress axis : x y z
#
# Youngs Moduli (GPa) = 88.88347 66.97438 127.79272
#
# Poissons Ratio (x) = 0.02731 0.15631
# Poissons Ratio (y) = 0.03625 -0.25298
# Poissons Ratio (z) = 0.10872 -0.13258
#
# Static dielectric constant tensor:
#      x y z
#    x 1.900390 0.000000 0.000000 
#    y 0.000000 1.969120 0.000000 
#    z 0.000000 0.000000 1.877380 
# 
# From -- ./inp_files/2002.got.cif
#   From: 2010.05.17/outbox.cif.g08.bks.cpg/sg41_2_cif.got.tgz:2002.got - 2010.06.03 18:54:24.
