data_PCOD9366273
_publ_section_title
;
Structure prediction by ZEFSAII (Michael W. Deem and Ramdas Pophale) SiO2 
 PCOD9366273
Probable space group: A B A 2
;
_chemical_formula_sum "Si O2"
_cell_formula_units_Z 60
_cell_length_a 19.976995
_cell_length_b 10.305720
_cell_length_c 14.799440
_cell_angle_alpha 90.000000
_cell_angle_beta 90.000000
_cell_angle_gamma 90.000000
_cell_volume 3046.868999
_symmetry_space_group_name_H-M "A B A 2"
_symmetry_group_IT_number 41
_symmetry_cell_setting 'orthorhombic'
loop_
_space_group_symop_operation_xyz
x,y,z
-x,-y,z
1/2-x,y,1/2+z
1/2+x,-y,1/2+z
x,1/2+y,1/2+z
-x,1/2-y,1/2+z
1/2-x,1/2+y,z
1/2+x,1/2-y,z
loop_
_atom_site_type_symbol
_atom_site_label
_atom_site_fract_x
_atom_site_fract_y
_atom_site_fract_z
Si Si1 0.828174 0.471333 0.402100
Si Si2 0.925817 0.550686 0.032503
Si Si3 0.158157 0.714276 0.726896
Si Si4 0.095376 0.150460 0.059247
Si Si5 0.000000 0.500000 0.697734
Si Si6 0.762008 0.209838 0.358918
Si Si7 0.420373 0.966422 0.234338
Si Si8 0.886334 0.535472 0.833510
O O1 0.881805 0.446372 0.481357
O O2 0.776376 0.350424 0.401640
O O3 0.785751 0.605043 0.409625
O O4 0.872089 0.470642 0.309460
O O5 0.925603 0.707641 0.024619
O O6 0.896076 0.510255 0.130335
O O7 0.000000 0.500000 0.040594
O O8 0.900774 0.497794 0.937090
O O9 0.159242 0.679414 0.622490
O O10 0.225120 0.776803 0.763296
O O11 0.096200 0.812743 0.744562
O O12 0.146716 0.586254 0.784466
O O13 0.041494 0.091636 0.129343
O O14 0.948989 0.568624 0.768278
O O15 0.834203 0.150258 0.342081
O O16 0.500000 0.000000 0.244437
#
# Coordination Sequence:
#
# PCOD9366273 Si02
#       8
#     8   8   8   8   4   8   8   8
#     4  11  23  42  66  93 132 171 217 271 319 393
#     4  10  20  38  61  95 125 160 209 262 322 387
#     4   9  21  41  61  89 129 163 212 266 314 390
#     4  10  22  43  62  91 132 163 214 272 319 387
#     4  10  24  42  62  98 124 174 210 264 340 376
#     4  11  22  42  64  93 123 175 220 257 330 380
#     4   9  21  39  66  93 128 168 210 264 328 381
#     4  11  20  39  68  87 129 165 208 270 318 388
#
# _framework density 19.692347000000002
#
# number of rings (size 3 to 8) (size 9 to 14) (size 15 to 20)
#    0.000    1.867    3.333    0.000    0.933    5.333 
#    9.600    0.000    0.000    0.000    0.000    0.000 
#    0.000    0.000    0.000    0.000    0.000    0.000 
#
# Total GULP energy -167008.205641 kJ/mol
# GULP energy per Si atom -5566.940188 kJ/mol
# Density = 1.964753 g / cm^3
# Si number density = 19.692347 Si / 1000 Ang^3
#
#
#
# Elastic Constant Matrix: (Units=GPa)
#
#
# Indices 1 2 3 4 5 6 
#
# 1 56.6038 -3.4880 27.6045 0.0000 0.0000 0.0000
# 2 -3.4880 45.1835 23.8971 0.0000 0.0000 0.0000
# 3 27.6045 23.8971 97.5582 0.0000 0.0000 0.0000
# 4 0.0000 0.0000 0.0000 9.4282 0.0000 0.0000
# 5 0.0000 0.0000 0.0000 0.0000 23.2646 0.0000
# 6 0.0000 0.0000 0.0000 0.0000 0.0000 25.4426
#
#
#
# Elastic Compliance Matrix: (Units=1/GPa)
#
#
# Indices 1 2 3 4 5 6 
#
# 1 0.021682 0.005650 -0.007519 0.000000 0.000000 0.000000
# 2 0.005650 0.026899 -0.008188 0.000000 0.000000 0.000000
# 3 -0.007519 -0.008188 0.014383 0.000000 0.000000 0.000000
# 4 0.000000 0.000000 0.000000 0.106065 0.000000 0.000000
# 5 0.000000 0.000000 0.000000 0.000000 0.042984 0.000000
# 6 0.000000 0.000000 0.000000 0.000000 0.000000 0.039304
#
#
# Mechanical properties :
#
#
# Convention : Reuss Voigt Hill
#
# Bulk Modulus (GPa) = 23.33656 32.81919 28.07788
# Shear Modulus (GPa) = 17.50007 21.71586 19.60797
#
# Velocity S-wave (km/s) = 2.98430 3.32438 3.15892
# Velocity P-wave (km/s) = 4.87350 5.60691 5.25302
#
# Compressibility (1/GPa) = 0.04285122
#
# Stress axis : x y z
#
# Youngs Moduli (GPa) = 46.12177 37.17675 69.52451
#
# Poissons Ratio (x) = -0.21007 0.52276
# Poissons Ratio (y) = -0.26061 0.56924
# Poissons Ratio (z) = 0.34679 0.30439
#
# Static dielectric constant tensor:
#      x y z
#    x 1.690550 0.000000 0.000000 
#    y 0.000000 1.721380 0.000000 
#    z 0.000000 0.000000 1.738880 
# 
# From -- ./inp_files/6291.got.cif
#   From: 2010.05.17/outbox.cif.g08.bks.cpg/sg41_4_cif.got.tgz:6291.got - 2010.06.03 18:54:24.
