data_PCOD9366780
_publ_section_title
;
Structure prediction by ZEFSAII (Michael W. Deem and Ramdas Pophale) SiO2 
 PCOD9366780
Probable space group: A B A 2
;
_chemical_formula_sum "Si O2"
_cell_formula_units_Z 48
_cell_length_a 27.043161
_cell_length_b 8.235312
_cell_length_c 8.055212
_cell_angle_alpha 90.000000
_cell_angle_beta 90.000000
_cell_angle_gamma 90.000000
_cell_volume 1793.967148
_symmetry_space_group_name_H-M "A B A 2"
_symmetry_group_IT_number 41
_symmetry_cell_setting 'orthorhombic'
loop_
_space_group_symop_operation_xyz
x,y,z
-x,-y,z
1/2-x,y,1/2+z
1/2+x,-y,1/2+z
x,1/2+y,1/2+z
-x,1/2-y,1/2+z
1/2-x,1/2+y,z
1/2+x,1/2-y,z
loop_
_atom_site_type_symbol
_atom_site_label
_atom_site_fract_x
_atom_site_fract_y
_atom_site_fract_z
Si Si1 0.451659 0.116748 0.008020
Si Si2 0.487461 0.182817 0.685417
Si Si3 0.310254 0.950305 0.362514
Si Si4 0.864053 0.557868 0.844942
Si Si5 0.394863 0.600208 0.988442
Si Si6 0.277984 0.596079 0.504346
O O1 0.460090 0.232822 0.161548
O O2 0.400652 0.031061 0.977037
O O3 0.500000 0.000000 0.038539
O O4 0.460434 0.236517 0.851372
O O5 0.449958 0.163646 0.532602
O O6 0.500000 0.000000 0.726715
O O7 0.369720 0.961207 0.374760
O O8 0.294321 0.018689 0.181336
O O9 0.280389 0.073694 0.483189
O O10 0.294256 0.775453 0.440413
O O11 0.871442 0.743854 0.895765
O O12 0.807121 0.517635 0.874936
O O13 0.879272 0.476107 0.669491
#
# Coordination Sequence:
#
# PCOD9366780 Si02
#       6
#     8   8   8   8   8   8
#     4  10  21  41  61  91 128 174 217 273 332 396
#     4  10  23  39  63  91 130 172 222 272 334 398
#     4  12  25  43  68  95 132 168 221 272 340 407
#     4  11  23  42  67  94 134 171 224 273 348 406
#     4  11  23  43  66  95 132 175 216 286 337 411
#     4  12  25  43  67  98 128 173 218 274 337 415
#
# _framework density 26.756343000000001
#
# number of rings (size 3 to 8) (size 9 to 14) (size 15 to 20)
#    0.000    1.000    1.667    5.000    2.333    2.000 
#    0.000    0.000    0.000    0.000    0.000    0.000 
#    0.000    0.000    0.000    0.000    0.000    0.000 
#
# Total GULP energy -133711.464630 kJ/mol
# GULP energy per Si atom -5571.311026 kJ/mol
# Density = 2.669544 g / cm^3
# Si number density = 26.756343 Si / 1000 Ang^3
#
#
#
# Elastic Constant Matrix: (Units=GPa)
#
#
# Indices 1 2 3 4 5 6 
#
# 1 108.4538 22.1180 27.7292 0.0000 0.0000 0.0000
# 2 22.1180 127.2796 32.8094 0.0000 0.0000 0.0000
# 3 27.7292 32.8094 154.5807 0.0000 0.0000 0.0000
# 4 0.0000 0.0000 0.0000 30.1243 0.0000 0.0000
# 5 0.0000 0.0000 0.0000 0.0000 49.8506 0.0000
# 6 0.0000 0.0000 0.0000 0.0000 0.0000 52.6652
#
#
#
# Elastic Compliance Matrix: (Units=1/GPa)
#
#
# Indices 1 2 3 4 5 6 
#
# 1 0.009873 -0.001332 -0.001488 0.000000 0.000000 0.000000
# 2 -0.001332 0.008491 -0.001563 0.000000 0.000000 0.000000
# 3 -0.001488 -0.001563 0.007068 0.000000 0.000000 0.000000
# 4 0.000000 0.000000 0.000000 0.033196 0.000000 0.000000
# 5 0.000000 0.000000 0.000000 0.000000 0.020060 0.000000
# 6 0.000000 0.000000 0.000000 0.000000 0.000000 0.018988
#
#
# Mechanical properties :
#
#
# Convention : Reuss Voigt Hill
#
# Bulk Modulus (GPa) = 60.00741 61.73637 60.87189
# Shear Modulus (GPa) = 44.64394 47.03853 45.84123
#
# Velocity S-wave (km/s) = 4.08920 4.19744 4.14367
# Velocity P-wave (km/s) = 6.69115 6.82751 6.75968
#
# Compressibility (1/GPa) = 0.01666461
#
# Stress axis : x y z
#
# Youngs Moduli (GPa) = 101.28965 117.76953 141.48499
#
# Poissons Ratio (x) = 0.15687 0.21057
# Poissons Ratio (y) = 0.13492 0.22118
# Poissons Ratio (z) = 0.15075 0.18411
#
# Static dielectric constant tensor:
#      x y z
#    x 1.921630 0.000000 0.000000 
#    y 0.000000 2.165510 0.000000 
#    z 0.000000 0.000000 2.289730 
# 
# From -- ./inp_files/3916.got.cif
#   From: 2010.05.17/outbox.cif.g08.bks.cpg/sg41_2_cif.got.tgz:3916.got - 2010.06.03 18:54:24.
