data_PCOD9366914
_publ_section_title
;
Structure prediction by ZEFSAII (Michael W. Deem and Ramdas Pophale) SiO2 
 PCOD9366914
Probable space group: A B A 2
;
_chemical_formula_sum "Si O2"
_cell_formula_units_Z 60
_cell_length_a 15.182544
_cell_length_b 11.601475
_cell_length_c 14.942906
_cell_angle_alpha 90.000000
_cell_angle_beta 90.000000
_cell_angle_gamma 90.000000
_cell_volume 2632.042038
_symmetry_space_group_name_H-M "A B A 2"
_symmetry_group_IT_number 41
_symmetry_cell_setting 'orthorhombic'
loop_
_space_group_symop_operation_xyz
x,y,z
-x,-y,z
1/2-x,y,1/2+z
1/2+x,-y,1/2+z
x,1/2+y,1/2+z
-x,1/2-y,1/2+z
1/2-x,1/2+y,z
1/2+x,1/2-y,z
loop_
_atom_site_type_symbol
_atom_site_label
_atom_site_fract_x
_atom_site_fract_y
_atom_site_fract_z
Si Si1 0.596359 0.705881 0.575060
Si Si2 0.658523 0.013103 0.875822
Si Si3 0.500000 0.500000 0.475871
Si Si4 0.955376 0.119628 0.100446
Si Si5 0.905240 0.742523 0.785740
Si Si6 0.214136 0.543214 0.235756
Si Si7 0.559885 0.610729 0.763531
Si Si8 0.240563 0.923836 0.046583
O O1 0.550481 0.592294 0.534713
O O2 0.532450 0.809784 0.549862
O O3 0.587882 0.690763 0.681160
O O4 0.699070 0.692678 0.551628
O O5 0.573995 0.946652 0.912645
O O6 0.629651 0.144871 0.852616
O O7 0.693747 0.958934 0.785612
O O8 0.729325 0.014553 0.955619
O O9 0.930503 0.180757 0.193206
O O10 0.862651 0.102039 0.050258
O O11 0.000000 0.000000 0.122570
O O12 0.832577 0.835677 0.754135
O O13 0.990925 0.813742 0.820087
O O14 0.151896 0.449416 0.287646
O O15 0.229005 0.499924 0.133812
O O16 0.500000 0.500000 0.733665
#
# Coordination Sequence:
#
# PCOD9366914 Si02
#       8
#     8   8   4   8   8   8   8   8
#     4   9  19  40  67 100 128 185 233 278 347 427
#     4  11  24  43  64 105 136 175 233 295 349 418
#     4  10  22  42  68  98 140 178 244 292 354 428
#     4  11  24  43  69 104 143 179 232 293 361 411
#     4  10  22  41  67  99 137 180 233 288 358 414
#     4  10  21  44  66  97 137 185 237 284 354 436
#     4   8  15  34  67  87 122 174 228 276 334 416
#     4  10  23  45  69  96 141 184 234 286 350 425
#
# _framework density 22.795988000000001
#
# number of rings (size 3 to 8) (size 9 to 14) (size 15 to 20)
#    0.000    2.133    2.000    0.000    6.533    2.133 
#   14.400    0.667    0.000    0.000    0.000    0.000 
#    0.000    0.000    0.000    0.000    0.000    0.000 
#
# Total GULP energy -167348.389054 kJ/mol
# GULP energy per Si atom -5578.279635 kJ/mol
# Density = 2.274410 g / cm^3
# Si number density = 22.795988 Si / 1000 Ang^3
#
#
#
# Elastic Constant Matrix: (Units=GPa)
#
#
# Indices 1 2 3 4 5 6 
#
# 1 92.2536 24.3802 8.4142 0.0000 0.0000 0.0000
# 2 24.3802 68.9006 -0.7140 0.0000 0.0000 0.0000
# 3 8.4142 -0.7140 71.6773 0.0000 0.0000 0.0000
# 4 0.0000 0.0000 0.0000 -3.2757 0.0000 0.0000
# 5 0.0000 0.0000 0.0000 0.0000 16.5442 0.0000
# 6 0.0000 0.0000 0.0000 0.0000 0.0000 29.0807
#
#
#
# Elastic Compliance Matrix: (Units=1/GPa)
#
#
# Indices 1 2 3 4 5 6 
#
# 1 0.012110 -0.004300 -0.001464 0.000000 0.000000 0.000000
# 2 -0.004300 0.016042 0.000665 0.000000 0.000000 0.000000
# 3 -0.001464 0.000665 0.014130 0.000000 0.000000 0.000000
# 4 0.000000 0.000000 0.000000 -0.305281 0.000000 0.000000
# 5 0.000000 0.000000 0.000000 0.000000 0.060444 0.000000
# 6 0.000000 0.000000 0.000000 0.000000 0.000000 0.034387
#
#
# Mechanical properties :
#
#
# Convention : Reuss Voigt Hill
#
# Bulk Modulus (GPa) = 31.17024 32.99914 32.08469
# Shear Modulus (GPa) = -33.95019 21.85326 -6.04846
#
# Velocity S-wave (km/s) = -3.86334 3.09956 -1.63066
# Velocity P-wave (km/s) = 2.48943 5.22656 3.24959
#
# Compressibility (1/GPa) = 0.03208189
#
# Stress axis : x y z
#
# Youngs Moduli (GPa) = 82.57874 62.33584 70.77171
#
# Poissons Ratio (x) = 0.26805 0.10364
# Poissons Ratio (y) = 0.35510 -0.04703
# Poissons Ratio (z) = 0.12093 -0.04143
#
# Static dielectric constant tensor:
#      x y z
#    x 1.922360 0.000000 0.000000 
#    y 0.000000 1.876240 0.000000 
#    z 0.000000 0.000000 1.848680 
# 
# From -- ./inp_files/10371.got.cif
#   From: 2010.05.17/outbox.cif.g08.bks.cpg/sg41_6_cif.got.tgz:10371.got - 2010.06.03 18:54:24.
