data_PCOD9366958
_publ_section_title
;
Structure prediction by ZEFSAII (Michael W. Deem and Ramdas Pophale) SiO2 
 PCOD9366958
Probable space group: A B A 2
;
_chemical_formula_sum "Si O2"
_cell_formula_units_Z 60
_cell_length_a 13.792759
_cell_length_b 7.732433
_cell_length_c 24.899093
_cell_angle_alpha 90.000000
_cell_angle_beta 90.000000
_cell_angle_gamma 90.000000
_cell_volume 2655.527730
_symmetry_space_group_name_H-M "A B A 2"
_symmetry_group_IT_number 41
_symmetry_cell_setting 'orthorhombic'
loop_
_space_group_symop_operation_xyz
x,y,z
-x,-y,z
1/2-x,y,1/2+z
1/2+x,-y,1/2+z
x,1/2+y,1/2+z
-x,1/2-y,1/2+z
1/2-x,1/2+y,z
1/2+x,1/2-y,z
loop_
_atom_site_type_symbol
_atom_site_label
_atom_site_fract_x
_atom_site_fract_y
_atom_site_fract_z
Si Si1 0.194349 0.878965 0.309710
Si Si2 0.500000 0.000000 0.049370
Si Si3 0.643205 0.390331 0.150093
Si Si4 0.316778 0.104136 0.231116
Si Si5 0.341349 0.238386 0.529577
Si Si6 0.936531 0.269084 0.145225
Si Si7 0.318919 0.142920 0.888788
Si Si8 0.177152 0.418291 0.464991
O O1 0.141490 0.763895 0.265709
O O2 0.244118 0.753040 0.352618
O O3 0.281026 0.966797 0.274827
O O4 0.134542 0.018034 0.344149
O O5 0.417899 0.891786 0.019770
O O6 0.550985 0.858371 0.087736
O O7 0.719807 0.354083 0.196814
O O8 0.669598 0.309661 0.092144
O O9 0.630757 0.597882 0.143876
O O10 0.539782 0.306175 0.163134
O O11 0.394160 0.083410 0.184174
O O12 0.239873 0.305131 0.506442
O O13 0.376013 0.066715 0.498198
O O14 0.375263 0.281581 0.925485
O O15 0.254103 0.023805 0.927959
#
# Coordination Sequence:
#
# PCOD9366958 Si02
#       8
#     8   4   8   8   8   8   8   8
#     4   9  18  30  56  89 113 148 202 245 301 354
#     4  10  24  40  54  82 126 170 192 250 308 356
#     4  10  23  38  54  85 131 157 205 245 292 357
#     4  11  20  34  58  89 114 166 202 240 292 373
#     4  10  22  35  56  88 116 162 199 241 301 369
#     4  10  23  39  54  80 129 165 190 249 296 348
#     4   8  16  34  52  89 117 137 193 270 298 338
#     4   9  18  33  60  87 110 152 202 249 303 357
#
# _framework density 22.594377999999999
#
# number of rings (size 3 to 8) (size 9 to 14) (size 15 to 20)
#    0.000    2.400    1.333    0.000    7.467    1.067 
#    0.000    0.000    0.000    0.000   97.067    0.000 
#    0.000    0.000    0.000    0.000    0.000    0.000 
#
# Total GULP energy -167292.027742 kJ/mol
# GULP energy per Si atom -5576.400925 kJ/mol
# Density = 2.254295 g / cm^3
# Si number density = 22.594378 Si / 1000 Ang^3
#
#
#
# Elastic Constant Matrix: (Units=GPa)
#
#
# Indices 1 2 3 4 5 6 
#
# 1 38.3229 12.6172 21.3338 0.0000 0.0000 0.0000
# 2 12.6172 85.7083 24.7730 0.0000 0.0000 0.0000
# 3 21.3338 24.7730 87.0776 0.0000 0.0000 0.0000
# 4 0.0000 0.0000 0.0000 54.2020 0.0000 0.0000
# 5 0.0000 0.0000 0.0000 0.0000 -4.5497 0.0000
# 6 0.0000 0.0000 0.0000 0.0000 0.0000 22.4353
#
#
#
# Elastic Compliance Matrix: (Units=1/GPa)
#
#
# Indices 1 2 3 4 5 6 
#
# 1 0.030721 -0.002557 -0.006799 0.000000 0.000000 0.000000
# 2 -0.002557 0.012926 -0.003051 0.000000 0.000000 0.000000
# 3 -0.006799 -0.003051 0.014018 0.000000 0.000000 0.000000
# 4 0.000000 0.000000 0.000000 0.018449 0.000000 0.000000
# 5 0.000000 0.000000 0.000000 0.000000 -0.219795 0.000000
# 6 0.000000 0.000000 0.000000 0.000000 0.000000 0.044573
#
#
# Mechanical properties :
#
#
# Convention : Reuss Voigt Hill
#
# Bulk Modulus (GPa) = 30.44122 36.50631 33.47377
# Shear Modulus (GPa) = -78.93291 24.57652 -27.17819
#
# Velocity S-wave (km/s) = -5.91698 3.30165 -3.47201
# Velocity P-wave (km/s) = 5.76009 5.54318 1.10720
#
# Compressibility (1/GPa) = 0.03285019
#
# Stress axis : x y z
#
# Youngs Moduli (GPa) = 32.55116 77.36516 71.33856
#
# Poissons Ratio (x) = 0.19784 0.48503
# Poissons Ratio (y) = 0.08324 0.21764
# Poissons Ratio (z) = 0.22132 0.23602
#
# Static dielectric constant tensor:
#      x y z
#    x 2.165420 0.000000 0.000000 
#    y 0.000000 1.922730 0.000000 
#    z 0.000000 0.000000 1.835720 
# 
# From -- ./inp_files/12208.got.cif
#   From: 2010.05.17/outbox.cif.g08.bks.cpg/sg41_7_cif.got.tgz:12208.got - 2010.06.03 18:54:24.
