data_PCOD9366305
_publ_section_title
;
Structure prediction by ZEFSAII (Michael W. Deem and Ramdas Pophale) SiO2 
 PCOD9366305
Probable space group: A B A 2
;
_chemical_formula_sum "Si O2"
_cell_formula_units_Z 64
_cell_length_a 13.829332
_cell_length_b 23.406053
_cell_length_c 9.892881
_cell_angle_alpha 90.000000
_cell_angle_beta 90.000000
_cell_angle_gamma 90.000000
_cell_volume 3202.227420
_symmetry_space_group_name_H-M "A B A 2"
_symmetry_group_IT_number 41
_symmetry_cell_setting 'orthorhombic'
loop_
_space_group_symop_operation_xyz
x,y,z
-x,-y,z
1/2-x,y,1/2+z
1/2+x,-y,1/2+z
x,1/2+y,1/2+z
-x,1/2-y,1/2+z
1/2-x,1/2+y,z
1/2+x,1/2-y,z
loop_
_atom_site_type_symbol
_atom_site_label
_atom_site_fract_x
_atom_site_fract_y
_atom_site_fract_z
Si Si1 0.229640 0.832634 0.838660
Si Si2 0.731649 0.590171 0.578478
Si Si3 0.886092 0.990989 0.696174
Si Si4 0.596920 0.749089 0.269454
Si Si5 0.308457 0.134606 0.232015
Si Si6 0.471077 0.803996 0.490877
Si Si7 0.614025 0.008134 0.509989
Si Si8 0.347111 0.618408 0.032827
O O1 0.213199 0.865638 0.698683
O O2 0.301841 0.779990 0.812826
O O3 0.128431 0.817313 0.911520
O O4 0.282092 0.876658 0.939576
O O5 0.666391 0.534345 0.596301
O O6 0.839958 0.563392 0.578881
O O7 0.855565 0.924968 0.682681
O O8 0.860169 0.009463 0.850411
O O9 0.000000 0.000000 0.682515
O O10 0.618764 0.812958 0.217334
O O11 0.528304 0.757320 0.399814
O O12 0.552717 0.715520 0.142808
O O13 0.291398 0.127273 0.391759
O O14 0.211238 0.148552 0.151286
O O15 0.545977 0.857108 0.504283
O O16 0.500000 0.000000 0.519674
O O17 0.653172 0.948447 0.566912
#
# Coordination Sequence:
#
# PCOD9366305 Si02
#       8
#     8   8   8   8   8   8   8   8
#     4  12  27  45  68 100 143 181 234 287 345 423
#     4  12  23  42  70  98 137 181 228 285 350 413
#     4  10  22  40  67 100 133 177 223 279 346 416
#     4  11  28  44  72 100 138 182 232 288 349 415
#     4  10  23  41  66  97 130 175 221 282 343 403
#     4  11  27  46  71 104 130 186 231 285 354 409
#     4  10  20  38  66  94 129 175 221 273 339 411
#     4  10  22  40  66  96 132 169 225 277 344 409
#
# _framework density 19.986087999999999
#
# number of rings (size 3 to 8) (size 9 to 14) (size 15 to 20)
#    0.000    1.250    3.750    0.750   12.250    0.000 
#    0.000    0.625    0.000    0.000    0.000    0.000 
#    0.000    0.000    0.000    0.000    0.000    0.000 
#
# Total GULP energy -178664.835812 kJ/mol
# GULP energy per Si atom -5583.276119 kJ/mol
# Density = 1.994060 g / cm^3
# Si number density = 19.986088 Si / 1000 Ang^3
#
#
#
# Elastic Constant Matrix: (Units=GPa)
#
#
# Indices 1 2 3 4 5 6 
#
# 1 90.2443 32.2061 28.6043 0.0000 0.0000 0.0000
# 2 32.2061 73.3628 12.1239 0.0000 0.0000 0.0000
# 3 28.6043 12.1239 49.4670 0.0000 0.0000 0.0000
# 4 0.0000 0.0000 0.0000 35.0264 0.0000 0.0000
# 5 0.0000 0.0000 0.0000 0.0000 35.0084 0.0000
# 6 0.0000 0.0000 0.0000 0.0000 0.0000 24.0941
#
#
#
# Elastic Compliance Matrix: (Units=1/GPa)
#
#
# Indices 1 2 3 4 5 6 
#
# 1 0.015459 -0.005533 -0.007583 0.000000 0.000000 0.000000
# 2 -0.005533 0.016187 -0.000768 0.000000 0.000000 0.000000
# 3 -0.007583 -0.000768 0.024789 0.000000 0.000000 0.000000
# 4 0.000000 0.000000 0.000000 0.028550 0.000000 0.000000
# 5 0.000000 0.000000 0.000000 0.000000 0.028565 0.000000
# 6 0.000000 0.000000 0.000000 0.000000 0.000000 0.041504
#
#
# Mechanical properties :
#
#
# Convention : Reuss Voigt Hill
#
# Bulk Modulus (GPa) = 34.88392 39.88253 37.38322
# Shear Modulus (GPa) = 25.99062 28.16845 27.07953
#
# Velocity S-wave (km/s) = 3.61007 3.75827 3.68492
# Velocity P-wave (km/s) = 5.90498 6.23148 6.07042
#
# Compressibility (1/GPa) = 0.02866651
#
# Stress axis : x y z
#
# Youngs Moduli (GPa) = 64.68561 61.77833 40.34113
#
# Poissons Ratio (x) = 0.34185 0.30591
# Poissons Ratio (y) = 0.35793 0.03096
# Poissons Ratio (z) = 0.49052 0.04742
#
# Static dielectric constant tensor:
#      x y z
#    x 1.717000 0.000000 0.000000 
#    y 0.000000 1.757380 0.000000 
#    z 0.000000 0.000000 1.686920 
# 
# From -- ./inp_files/2810.got.cif
#   From: 2010.05.17/outbox.cif.g08.bks.cpg/sg41_2_cif.got.tgz:2810.got - 2010.06.03 18:54:24.
