data_PCOD9366022
_publ_section_title
;
Structure prediction by ZEFSAII (Michael W. Deem and Ramdas Pophale) SiO2 
 PCOD9366022
Probable space group: A B A 2
;
_chemical_formula_sum "Si O2"
_cell_formula_units_Z 60
_cell_length_a 16.068633
_cell_length_b 7.312543
_cell_length_c 20.987054
_cell_angle_alpha 90.000000
_cell_angle_beta 90.000000
_cell_angle_gamma 90.000000
_cell_volume 2466.032777
_symmetry_space_group_name_H-M "A B A 2"
_symmetry_group_IT_number 41
_symmetry_cell_setting 'orthorhombic'
loop_
_space_group_symop_operation_xyz
x,y,z
-x,-y,z
1/2-x,y,1/2+z
1/2+x,-y,1/2+z
x,1/2+y,1/2+z
-x,1/2-y,1/2+z
1/2-x,1/2+y,z
1/2+x,1/2-y,z
loop_
_atom_site_type_symbol
_atom_site_label
_atom_site_fract_x
_atom_site_fract_y
_atom_site_fract_z
Si Si1 0.302014 0.405425 0.176620
Si Si2 0.353494 0.251929 0.739045
Si Si3 0.186819 0.359056 0.527962
Si Si4 0.687736 0.327433 0.935648
Si Si5 0.489892 0.780614 0.548833
Si Si6 0.850381 0.979317 0.367928
Si Si7 0.481079 0.782317 0.694062
Si Si8 0.000000 0.000000 0.451785
O O1 0.223960 0.385448 0.224948
O O2 0.336295 0.610412 0.181856
O O3 0.285645 0.391148 0.100993
O O4 0.380269 0.275466 0.197397
O O5 0.448480 0.320678 0.735100
O O6 0.350557 0.120735 0.800485
O O7 0.150003 0.513873 0.479793
O O8 0.265545 0.288807 0.489979
O O9 0.107003 0.230379 0.536281
O O10 0.643879 0.197940 0.882927
O O11 0.762631 0.422379 0.897097
O O12 0.505062 0.732529 0.621827
O O13 0.536964 0.658070 0.497511
O O14 0.500000 0.000000 0.546679
O O15 0.930225 0.911073 0.407053
O O16 0.500000 0.000000 0.705969
#
# Coordination Sequence:
#
# PCOD9366022 Si02
#       8
#     8   8   8   8   8   8   8   4
#     4  10  21  37  64  92 119 168 212 266 334 389
#     4  11  22  41  61  89 127 168 218 259 322 401
#     4  10  19  37  61  93 125 156 215 274 333 399
#     4  10  21  39  62  89 127 167 204 272 333 389
#     4  10  20  39  61  92 131 160 210 271 338 395
#     4  11  24  39  61  89 126 170 218 259 319 411
#     4   8  19  38  63  88 122 168 207 264 330 392
#     4  12  24  38  64 100 120 172 216 268 340 400
#
# _framework density 24.330575
#
# number of rings (size 3 to 8) (size 9 to 14) (size 15 to 20)
#    0.000    1.867    1.333    3.200    2.800    2.133 
#    4.800    0.000    0.000    0.000    0.000    0.000 
#    0.000    0.000    0.000    0.000    0.000    0.000 
#
# Total GULP energy -167070.976806 kJ/mol
# GULP energy per Si atom -5569.032560 kJ/mol
# Density = 2.427520 g / cm^3
# Si number density = 24.330575 Si / 1000 Ang^3
#
#
#
# Elastic Constant Matrix: (Units=GPa)
#
#
# Indices 1 2 3 4 5 6 
#
# 1 76.4720 12.7223 24.2129 0.0000 0.0000 0.0000
# 2 12.7223 43.2583 12.4050 0.0000 0.0000 0.0000
# 3 24.2129 12.4050 106.8504 0.0000 0.0000 0.0000
# 4 0.0000 0.0000 0.0000 25.1231 0.0000 0.0000
# 5 0.0000 0.0000 0.0000 0.0000 25.0228 0.0000
# 6 0.0000 0.0000 0.0000 0.0000 0.0000 26.1729
#
#
#
# Elastic Compliance Matrix: (Units=1/GPa)
#
#
# Indices 1 2 3 4 5 6 
#
# 1 0.014570 -0.003453 -0.002901 0.000000 0.000000 0.000000
# 2 -0.003453 0.024732 -0.002089 0.000000 0.000000 0.000000
# 3 -0.002901 -0.002089 0.010259 0.000000 0.000000 0.000000
# 4 0.000000 0.000000 0.000000 0.039804 0.000000 0.000000
# 5 0.000000 0.000000 0.000000 0.000000 0.039964 0.000000
# 6 0.000000 0.000000 0.000000 0.000000 0.000000 0.038207
#
#
# Mechanical properties :
#
#
# Convention : Reuss Voigt Hill
#
# Bulk Modulus (GPa) = 30.60467 36.14009 33.37238
# Shear Modulus (GPa) = 25.60015 27.07980 26.33998
#
# Velocity S-wave (km/s) = 3.24725 3.33978 3.29384
# Velocity P-wave (km/s) = 5.16387 5.45510 5.31148
#
# Compressibility (1/GPa) = 0.03267475
#
# Stress axis : x y z
#
# Youngs Moduli (GPa) = 68.63619 40.43425 97.47848
#
# Poissons Ratio (x) = 0.13962 0.28275
# Poissons Ratio (y) = 0.23701 0.20361
# Poissons Ratio (z) = 0.19909 0.08446
#
# Static dielectric constant tensor:
#      x y z
#    x 2.100580 0.000000 0.000000 
#    y 0.000000 2.118980 0.000000 
#    z 0.000000 0.000000 1.919850 
# 
# From -- ./inp_files/10602.got.cif
#   From: 2010.05.17/outbox.cif.g08.bks.cpg/sg41_6_cif.got.tgz:10602.got - 2010.06.03 18:54:24.
