data_PCOD9366550
_publ_section_title
;
Structure prediction by ZEFSAII (Michael W. Deem and Ramdas Pophale) SiO2 
 PCOD9366550
Probable space group: A B A 2
;
_chemical_formula_sum "Si O2"
_cell_formula_units_Z 60
_cell_length_a 32.146782
_cell_length_b 17.965186
_cell_length_c 5.392890
_cell_angle_alpha 90.000000
_cell_angle_beta 90.000000
_cell_angle_gamma 90.000000
_cell_volume 3114.517569
_symmetry_space_group_name_H-M "A B A 2"
_symmetry_group_IT_number 41
_symmetry_cell_setting 'orthorhombic'
loop_
_space_group_symop_operation_xyz
x,y,z
-x,-y,z
1/2-x,y,1/2+z
1/2+x,-y,1/2+z
x,1/2+y,1/2+z
-x,1/2-y,1/2+z
1/2-x,1/2+y,z
1/2+x,1/2-y,z
loop_
_atom_site_type_symbol
_atom_site_label
_atom_site_fract_x
_atom_site_fract_y
_atom_site_fract_z
Si Si1 0.775539 0.512339 0.046260
Si Si2 0.509549 0.138202 0.377066
Si Si3 0.852754 0.299765 0.494949
Si Si4 0.348819 0.604203 0.501035
Si Si5 0.941117 0.901541 0.495072
Si Si6 0.500000 0.000000 0.658648
Si Si7 0.776478 0.188956 0.538276
Si Si8 0.556125 0.263630 0.150634
O O1 0.754696 0.497012 0.312915
O O2 0.814938 0.459861 0.013216
O O3 0.785170 0.600431 0.037187
O O4 0.470937 0.104371 0.227089
O O5 0.544753 0.179648 0.221420
O O6 0.486078 0.202564 0.531957
O O7 0.524798 0.065879 0.520365
O O8 0.843477 0.339896 0.233681
O O9 0.819227 0.234624 0.530536
O O10 0.901143 0.272560 0.497778
O O11 0.847789 0.354555 0.733442
O O12 0.394943 0.571216 0.538682
O O13 0.937192 0.818037 0.385145
O O14 0.965920 0.954033 0.309447
O O15 0.749218 0.206007 0.291017
#
# Coordination Sequence:
#
# PCOD9366550 Si02
#       8
#     8   8   8   8   8   4   8   8
#     4  10  22  42  64  90 125 165 205 244 311 381
#     4  11  19  40  61  82 120 164 204 260 307 374
#     4  11  23  40  62  96 124 156 209 261 306 370
#     4  11  23  40  65  92 127 160 206 261 310 366
#     4  10  21  40  57  87 124 160 202 263 307 363
#     4  10  24  38  58  88 120 162 214 258 312 370
#     4  10  22  42  63  89 127 162 197 253 311 372
#     4  10  21  36  63  88 116 164 208 249 316 367
#
# _framework density 19.264621000000002
#
# number of rings (size 3 to 8) (size 9 to 14) (size 15 to 20)
#    0.000    1.600    2.667    2.000    0.000    3.200 
#    4.800    2.667    0.000    0.000    0.000    0.000 
#    0.000    0.000    0.000    0.000    0.000    0.000 
#
# Total GULP energy -167361.528360 kJ/mol
# GULP energy per Si atom -5578.717612 kJ/mol
# Density = 1.922077 g / cm^3
# Si number density = 19.264621 Si / 1000 Ang^3
#
#
#
# Elastic Constant Matrix: (Units=GPa)
#
#
# Indices 1 2 3 4 5 6 
#
# 1 62.5389 30.1464 -8.3260 0.0000 0.0000 0.0000
# 2 30.1464 72.1056 11.2306 0.0000 0.0000 0.0000
# 3 -8.3260 11.2306 64.5317 0.0000 0.0000 0.0000
# 4 0.0000 0.0000 0.0000 18.7767 0.0000 0.0000
# 5 0.0000 0.0000 0.0000 0.0000 20.1966 0.0000
# 6 0.0000 0.0000 0.0000 0.0000 0.0000 20.1772
#
#
#
# Elastic Compliance Matrix: (Units=1/GPa)
#
#
# Indices 1 2 3 4 5 6 
#
# 1 0.021171 -0.009535 0.004391 0.000000 0.000000 0.000000
# 2 -0.009535 0.018549 -0.004458 0.000000 0.000000 0.000000
# 3 0.004391 -0.004458 0.016839 0.000000 0.000000 0.000000
# 4 0.000000 0.000000 0.000000 0.053258 0.000000 0.000000
# 5 0.000000 0.000000 0.000000 0.000000 0.049513 0.000000
# 6 0.000000 0.000000 0.000000 0.000000 0.000000 0.049561
#
#
# Mechanical properties :
#
#
# Convention : Reuss Voigt Hill
#
# Bulk Modulus (GPa) = 26.77105 29.47535 28.12320
# Shear Modulus (GPa) = 20.78590 22.90511 21.84551
#
# Velocity S-wave (km/s) = 3.28833 3.45189 3.37110
# Velocity P-wave (km/s) = 5.32392 5.58756 5.45733
#
# Compressibility (1/GPa) = 0.03735378
#
# Stress axis : x y z
#
# Youngs Moduli (GPa) = 47.23441 53.90985 59.38705
#
# Poissons Ratio (x) = 0.51404 -0.26077
# Poissons Ratio (y) = 0.45039 0.26477
# Poissons Ratio (z) = -0.20740 0.24035
#
# Static dielectric constant tensor:
#      x y z
#    x 1.651660 0.000000 0.000000 
#    y 0.000000 1.651620 0.000000 
#    z 0.000000 0.000000 1.745600 
# 
# From -- ./inp_files/1183.got.cif
#   From: 2010.05.17/outbox.cif.g08.bks.cpg/sg41_1_cif.got.tgz:1183.got - 2010.06.03 18:54:24.
