data_PCOD9366371
_publ_section_title
;
Structure prediction by ZEFSAII (Michael W. Deem and Ramdas Pophale) SiO2 
 PCOD9366371
Probable space group: A B A 2
;
_chemical_formula_sum "Si O2"
_cell_formula_units_Z 56
_cell_length_a 14.283256
_cell_length_b 13.485216
_cell_length_c 13.389583
_cell_angle_alpha 90.000000
_cell_angle_beta 90.000000
_cell_angle_gamma 90.000000
_cell_volume 2579.004970
_symmetry_space_group_name_H-M "A B A 2"
_symmetry_group_IT_number 41
_symmetry_cell_setting 'orthorhombic'
loop_
_space_group_symop_operation_xyz
x,y,z
-x,-y,z
1/2-x,y,1/2+z
1/2+x,-y,1/2+z
x,1/2+y,1/2+z
-x,1/2-y,1/2+z
1/2-x,1/2+y,z
1/2+x,1/2-y,z
loop_
_atom_site_type_symbol
_atom_site_label
_atom_site_fract_x
_atom_site_fract_y
_atom_site_fract_z
Si Si1 0.903842 0.059932 0.629730
Si Si2 0.219457 0.035621 0.916013
Si Si3 0.435917 0.903574 0.354167
Si Si4 0.700997 0.864708 0.091678
Si Si5 0.621883 0.612995 0.412383
Si Si6 0.428720 0.696237 0.412577
Si Si7 0.765839 0.783330 0.796154
O O1 0.913698 0.112062 0.736556
O O2 0.878723 0.126048 0.533471
O O3 0.829247 0.971143 0.636120
O O4 0.000000 0.000000 0.609121
O O5 0.156159 0.938843 0.913391
O O6 0.324576 0.992193 0.899886
O O7 0.189318 0.112564 0.831811
O O8 0.218366 0.102028 0.015163
O O9 0.474684 0.805262 0.404547
O O10 0.500000 0.000000 0.358955
O O11 0.727189 0.787351 0.177004
O O12 0.617305 0.824739 0.020584
O O13 0.512366 0.621784 0.385493
O O14 0.679804 0.693479 0.348738
O O15 0.339596 0.706742 0.338644
#
# Coordination Sequence:
#
# PCOD9366371 Si02
#       7
#     8   8   8   8   8   8   8
#     4  10  20  39  70  95 125 181 222 261 328 408
#     4  10  22  42  65  95 127 175 216 282 331 400
#     4  11  22  41  68  97 133 169 224 273 340 399
#     4  10  22  41  67  90 133 172 227 264 340 399
#     4  11  23  41  66  98 135 171 222 282 330 395
#     4  11  24  40  66 101 132 171 225 278 333 402
#     4  11  23  43  65  99 130 176 220 276 335 403
#
# _framework density 21.713801
#
# number of rings (size 3 to 8) (size 9 to 14) (size 15 to 20)
#    0.000    1.429    4.286    0.857    2.000    2.286 
#    2.571    1.429    0.000    0.857    0.000    0.000 
#    0.000    0.000    0.000    0.000    0.000    0.000 
#
# Total GULP energy -156173.926137 kJ/mol
# GULP energy per Si atom -5577.640219 kJ/mol
# Density = 2.166438 g / cm^3
# Si number density = 21.713801 Si / 1000 Ang^3
#
#
#
# Elastic Constant Matrix: (Units=GPa)
#
#
# Indices 1 2 3 4 5 6 
#
# 1 86.3098 12.2873 36.8028 0.0000 0.0000 0.0000
# 2 12.2873 84.0500 45.5051 0.0000 0.0000 0.0000
# 3 36.8028 45.5051 124.9579 0.0000 0.0000 0.0000
# 4 0.0000 0.0000 0.0000 38.9968 0.0000 0.0000
# 5 0.0000 0.0000 0.0000 0.0000 13.7278 0.0000
# 6 0.0000 0.0000 0.0000 0.0000 0.0000 29.8856
#
#
#
# Elastic Compliance Matrix: (Units=1/GPa)
#
#
# Indices 1 2 3 4 5 6 
#
# 1 0.013253 0.000219 -0.003983 0.000000 0.000000 0.000000
# 2 0.000219 0.014823 -0.005463 0.000000 0.000000 0.000000
# 3 -0.003983 -0.005463 0.011165 0.000000 0.000000 0.000000
# 4 0.000000 0.000000 0.000000 0.025643 0.000000 0.000000
# 5 0.000000 0.000000 0.000000 0.000000 0.072845 0.000000
# 6 0.000000 0.000000 0.000000 0.000000 0.000000 0.033461
#
#
# Mechanical properties :
#
#
# Convention : Reuss Voigt Hill
#
# Bulk Modulus (GPa) = 48.10422 53.83423 50.96923
# Shear Modulus (GPa) = 25.43578 29.90352 27.66965
#
# Velocity S-wave (km/s) = 3.42630 3.71505 3.57359
# Velocity P-wave (km/s) = 6.15261 6.57636 6.36801
#
# Compressibility (1/GPa) = 0.02078820
#
# Stress axis : x y z
#
# Youngs Moduli (GPa) = 75.45210 67.46217 89.56491
#
# Poissons Ratio (x) = -0.01477 0.35675
# Poissons Ratio (y) = -0.01652 0.48925
# Poissons Ratio (z) = 0.30054 0.36851
#
# Static dielectric constant tensor:
#      x y z
#    x 1.877610 0.000000 0.000000 
#    y 0.000000 1.814860 0.000000 
#    z 0.000000 0.000000 1.809790 
# 
# From -- ./inp_files/8484.got.cif
#   From: 2010.05.17/outbox.cif.g08.bks.cpg/sg41_5_cif.got.tgz:8484.got - 2010.06.03 18:54:24.
