data_PCOD9366988
_publ_section_title
;
Structure prediction by ZEFSAII (Michael W. Deem and Ramdas Pophale) SiO2 
 PCOD9366988
Probable space group: A B A 2
;
_chemical_formula_sum "Si O2"
_cell_formula_units_Z 52
_cell_length_a 5.246875
_cell_length_b 23.762148
_cell_length_c 19.082137
_cell_angle_alpha 90.000000
_cell_angle_beta 90.000000
_cell_angle_gamma 90.000000
_cell_volume 2379.103982
_symmetry_space_group_name_H-M "A B A 2"
_symmetry_group_IT_number 41
_symmetry_cell_setting 'orthorhombic'
loop_
_space_group_symop_operation_xyz
x,y,z
-x,-y,z
1/2-x,y,1/2+z
1/2+x,-y,1/2+z
x,1/2+y,1/2+z
-x,1/2-y,1/2+z
1/2-x,1/2+y,z
1/2+x,1/2-y,z
loop_
_atom_site_type_symbol
_atom_site_label
_atom_site_fract_x
_atom_site_fract_y
_atom_site_fract_z
Si Si1 0.000000 0.500000 0.531550
Si Si2 0.303080 0.270448 0.756762
Si Si3 0.889795 0.936205 0.455565
Si Si4 0.184527 0.777887 0.092736
Si Si5 0.449853 0.433879 0.301683
Si Si6 0.947529 0.390532 0.237346
Si Si7 0.681275 0.597754 0.586768
O O1 0.104402 0.548933 0.479482
O O2 0.179944 0.462702 0.581530
O O3 0.517662 0.228611 0.788422
O O4 0.225117 0.261592 0.674973
O O5 0.462664 0.327937 0.756971
O O6 0.963477 0.915060 0.379387
O O7 0.012240 0.900145 0.516966
O O8 0.000000 0.000000 0.459574
O O9 0.450124 0.756314 0.061470
O O10 0.152412 0.845171 0.089310
O O11 0.500000 0.500000 0.297156
O O12 0.845881 0.574331 0.282625
O O13 0.652690 0.403399 0.251067
O O14 0.010934 0.400504 0.156180
#
# Coordination Sequence:
#
# PCOD9366988 Si02
#       7
#     4   8   8   8   8   8   8
#     4  10  22  38  62  88 122 166 208 248 308 376
#     4   9  17  34  58  83 116 153 197 245 298 363
#     4   9  22  40  60  83 117 170 207 236 297 381
#     4   9  19  34  58  87 119 156 199 251 302 356
#     4  11  25  40  60  86 127 166 203 241 302 373
#     4  11  24  38  62  96 121 156 201 260 310 344
#     4  10  23  38  63  93 125 157 209 257 310 361
#
# _framework density 21.85697
#
# number of rings (size 3 to 8) (size 9 to 14) (size 15 to 20)
#    0.000    2.154    0.000    1.385   11.846    4.923 
#    0.000    0.000    0.000    5.538    0.000    0.000 
#    0.000    0.000    0.000    0.000    0.000    0.000 
#
# Total GULP energy -144867.041382 kJ/mol
# GULP energy per Si atom -5571.809284 kJ/mol
# Density = 2.180722 g / cm^3
# Si number density = 21.856970 Si / 1000 Ang^3
#
#
#
# Elastic Constant Matrix: (Units=GPa)
#
#
# Indices 1 2 3 4 5 6 
#
# 1 68.2528 15.8513 -16.0732 0.0000 0.0000 0.0000
# 2 15.8513 60.3699 12.6211 0.0000 0.0000 0.0000
# 3 -16.0732 12.6211 54.4602 0.0000 0.0000 0.0000
# 4 0.0000 0.0000 0.0000 -426.9391 0.0000 0.0000
# 5 0.0000 0.0000 0.0000 0.0000 14.5783 0.0000
# 6 0.0000 0.0000 0.0000 0.0000 0.0000 32.3837
#
#
#
# Elastic Compliance Matrix: (Units=1/GPa)
#
#
# Indices 1 2 3 4 5 6 
#
# 1 0.017594 -0.005996 0.006582 0.000000 0.000000 0.000000
# 2 -0.005996 0.019451 -0.006277 0.000000 0.000000 0.000000
# 3 0.006582 -0.006277 0.021759 0.000000 0.000000 0.000000
# 4 0.000000 0.000000 0.000000 -0.002342 0.000000 0.000000
# 5 0.000000 0.000000 0.000000 0.000000 0.068595 0.000000
# 6 0.000000 0.000000 0.000000 0.000000 0.000000 0.030880
#
#
# Mechanical properties :
#
#
# Convention : Reuss Voigt Hill
#
# Bulk Modulus (GPa) = 21.08696 23.09791 22.09243
# Shear Modulus (GPa) = 27.30354 -64.61651 -18.65648
#
# Velocity S-wave (km/s) = 3.53822 -5.44312 -2.92476
# Velocity P-wave (km/s) = 5.13427 5.37705 1.12960
#
# Compressibility (1/GPa) = 0.04742268
#
# Stress axis : x y z
#
# Youngs Moduli (GPa) = 56.83783 51.41079 45.95716
#
# Poissons Ratio (x) = 0.30824 -0.30249
# Poissons Ratio (y) = 0.34078 0.28849
# Poissons Ratio (z) = -0.37411 0.32272
#
# Static dielectric constant tensor:
#      x y z
#    x 2.029720 0.000000 0.000000 
#    y 0.000000 1.897460 0.000000 
#    z 0.000000 0.000000 1.786150 
# 
# From -- ./inp_files/10972.got.cif
#   From: 2010.05.17/outbox.cif.g08.bks.cpg/sg41_6_cif.got.tgz:10972.got - 2010.06.03 18:54:24.
