data_PCOD9366304
_publ_section_title
;
Structure prediction by ZEFSAII (Michael W. Deem and Ramdas Pophale) SiO2 
 PCOD9366304
Probable space group: A B A 2
;
_chemical_formula_sum "Si O2"
_cell_formula_units_Z 60
_cell_length_a 18.634515
_cell_length_b 14.236505
_cell_length_c 11.618965
_cell_angle_alpha 90.000000
_cell_angle_beta 90.000000
_cell_angle_gamma 90.000000
_cell_volume 3082.399477
_symmetry_space_group_name_H-M "A B A 2"
_symmetry_group_IT_number 41
_symmetry_cell_setting 'orthorhombic'
loop_
_space_group_symop_operation_xyz
x,y,z
-x,-y,z
1/2-x,y,1/2+z
1/2+x,-y,1/2+z
x,1/2+y,1/2+z
-x,1/2-y,1/2+z
1/2-x,1/2+y,z
1/2+x,1/2-y,z
loop_
_atom_site_type_symbol
_atom_site_label
_atom_site_fract_x
_atom_site_fract_y
_atom_site_fract_z
Si Si1 0.368590 0.956694 0.571810
Si Si2 0.357623 0.774591 0.311984
Si Si3 0.622000 0.835274 0.582333
Si Si4 0.361368 0.316403 0.276010
Si Si5 0.000000 0.000000 0.900387
Si Si6 0.738079 0.559009 0.874464
Si Si7 0.515997 0.799611 0.390143
Si Si8 0.727353 0.342747 0.862539
O O1 0.376253 0.871927 0.659432
O O2 0.432968 0.966777 0.479063
O O3 0.293510 0.944412 0.504070
O O4 0.372708 0.058945 0.630986
O O5 0.364711 0.736707 0.183179
O O6 0.320490 0.876302 0.310428
O O7 0.433850 0.774420 0.373640
O O8 0.303500 0.706263 0.379100
O O9 0.546598 0.814481 0.518919
O O10 0.679017 0.832772 0.477343
O O11 0.313373 0.387951 0.354212
O O12 0.434215 0.278794 0.332348
O O13 0.312516 0.222264 0.267933
O O14 0.975436 0.905280 0.836317
O O15 0.736305 0.451669 0.833134
#
# Coordination Sequence:
#
# PCOD9366304 Si02
#       8
#     8   8   8   8   4   8   8   8
#     4  10  20  38  66  91 117 166 208 244 305 377
#     4  11  21  36  65  92 117 166 206 253 312 362
#     4   9  21  40  60  92 125 155 208 255 302 372
#     4  10  22  35  61  95 120 154 206 259 303 354
#     4  10  20  40  64  86 122 164 212 254 300 376
#     4  10  21  40  61  90 122 164 206 253 305 371
#     4  10  22  37  59  93 122 155 204 259 299 367
#     4   9  21  41  59  90 122 160 208 260 302 371
#
# _framework density 19.465354999999999
#
# number of rings (size 3 to 8) (size 9 to 14) (size 15 to 20)
#    0.000    2.133    1.333    1.600    3.733    6.400 
#    0.000    0.000    0.000    3.200   13.867    0.000 
#    0.000    0.000    0.000    0.000    0.000    0.000 
#
# Total GULP energy -167255.906389 kJ/mol
# GULP energy per Si atom -5575.196880 kJ/mol
# Density = 1.942105 g / cm^3
# Si number density = 19.465355 Si / 1000 Ang^3
#
#
#
# Elastic Constant Matrix: (Units=GPa)
#
#
# Indices 1 2 3 4 5 6 
#
# 1 143.2966 59.4191 20.7580 0.0000 0.0000 0.0000
# 2 59.4191 169.3794 42.5790 0.0000 0.0000 0.0000
# 3 20.7580 42.5790 35.0812 0.0000 0.0000 0.0000
# 4 0.0000 0.0000 0.0000 36.5313 0.0000 0.0000
# 5 0.0000 0.0000 0.0000 0.0000 17.0546 0.0000
# 6 0.0000 0.0000 0.0000 0.0000 0.0000 27.5595
#
#
#
# Elastic Compliance Matrix: (Units=1/GPa)
#
#
# Indices 1 2 3 4 5 6 
#
# 1 0.008260 -0.002402 -0.001972 0.000000 0.000000 0.000000
# 2 -0.002402 0.009195 -0.009738 0.000000 0.000000 0.000000
# 3 -0.001972 -0.009738 0.041492 0.000000 0.000000 0.000000
# 4 0.000000 0.000000 0.000000 0.027374 0.000000 0.000000
# 5 0.000000 0.000000 0.000000 0.000000 0.058635 0.000000
# 6 0.000000 0.000000 0.000000 0.000000 0.000000 0.036285
#
#
# Mechanical properties :
#
#
# Convention : Reuss Voigt Hill
#
# Bulk Modulus (GPa) = 32.55057 65.91881 49.23469
# Shear Modulus (GPa) = 22.75755 31.22916 26.99335
#
# Velocity S-wave (km/s) = 3.42297 4.00977 3.72793
# Velocity P-wave (km/s) = 5.69042 7.44150 6.62408
#
# Compressibility (1/GPa) = 0.03072143
#
# Stress axis : x y z
#
# Youngs Moduli (GPa) = 121.06208 108.75966 24.10089
#
# Poissons Ratio (x) = 0.26123 0.04754
# Poissons Ratio (y) = 0.29078 0.23471
# Poissons Ratio (z) = 0.23879 1.05915
#
# Static dielectric constant tensor:
#      x y z
#    x 1.724900 0.000000 0.000000 
#    y 0.000000 1.722310 0.000000 
#    z 0.000000 0.000000 1.684340 
# 
# From -- ./inp_files/6016.got.cif
#   From: 2010.05.17/outbox.cif.g08.bks.cpg/sg41_4_cif.got.tgz:6016.got - 2010.06.03 18:54:24.
