data_PCOD9366980
_publ_section_title
;
Structure prediction by ZEFSAII (Michael W. Deem and Ramdas Pophale) SiO2 
 PCOD9366980
Probable space group: A B A 2
;
_chemical_formula_sum "Si O2"
_cell_formula_units_Z 52
_cell_length_a 22.015597
_cell_length_b 8.035420
_cell_length_c 12.402830
_cell_angle_alpha 90.000000
_cell_angle_beta 90.000000
_cell_angle_gamma 90.000000
_cell_volume 2194.117289
_symmetry_space_group_name_H-M "A B A 2"
_symmetry_group_IT_number 41
_symmetry_cell_setting 'orthorhombic'
loop_
_space_group_symop_operation_xyz
x,y,z
-x,-y,z
1/2-x,y,1/2+z
1/2+x,-y,1/2+z
x,1/2+y,1/2+z
-x,1/2-y,1/2+z
1/2-x,1/2+y,z
1/2+x,1/2-y,z
loop_
_atom_site_type_symbol
_atom_site_label
_atom_site_fract_x
_atom_site_fract_y
_atom_site_fract_z
Si Si1 0.831909 0.553255 0.255390
Si Si2 0.759706 0.846864 0.369828
Si Si3 0.915613 0.492971 0.644854
Si Si4 0.621916 0.564301 0.364563
Si Si5 0.449296 0.251719 0.811254
Si Si6 0.174085 0.253722 0.049440
Si Si7 0.000000 0.500000 0.451250
O O1 0.795961 0.693657 0.322038
O O2 0.799563 0.388464 0.297721
O O3 0.901285 0.600642 0.283614
O O4 0.819543 0.592428 0.130709
O O5 0.808907 0.994822 0.366061
O O6 0.733790 0.805190 0.487523
O O7 0.899480 0.614379 0.743918
O O8 0.958664 0.349553 0.699948
O O9 0.853139 0.396599 0.619184
O O10 0.944597 0.541132 0.532171
O O11 0.581130 0.397100 0.381682
O O12 0.623620 0.694211 0.460899
O O13 0.503014 0.339414 0.874185
#
# Coordination Sequence:
#
# PCOD9366980 Si02
#       7
#     8   8   8   8   8   8   4
#     4  10  22  38  58  93 126 158 210 244 290 377
#     4  11  20  37  59  90 124 166 199 239 291 372
#     4   9  23  41  58  92 118 147 212 257 290 380
#     4   9  21  42  52  93 127 143 207 256 272 384
#     4   8  21  43  56  90 124 137 220 257 279 387
#     4  11  21  39  62  82 130 167 189 247 318 340
#     4  12  20  44  70  78 114 174 186 266 344 320
#
# _framework density 23.699735
#
# number of rings (size 3 to 8) (size 9 to 14) (size 15 to 20)
#    0.923    1.231    3.077    0.923    2.154    1.231 
#   13.846    0.000    0.000    0.000    0.000    0.000 
#    0.000    0.000    0.000    0.000    0.000    0.000 
#
# Total GULP energy -144962.381752 kJ/mol
# GULP energy per Si atom -5575.476221 kJ/mol
# Density = 2.364579 g / cm^3
# Si number density = 23.699735 Si / 1000 Ang^3
#
#
#
# Elastic Constant Matrix: (Units=GPa)
#
#
# Indices 1 2 3 4 5 6 
#
# 1 57.3482 12.1169 27.3406 0.0000 0.0000 0.0000
# 2 12.1169 18.9291 10.3954 0.0000 0.0000 0.0000
# 3 27.3406 10.3954 125.8187 0.0000 0.0000 0.0000
# 4 0.0000 0.0000 0.0000 35.4821 0.0000 0.0000
# 5 0.0000 0.0000 0.0000 0.0000 46.9227 0.0000
# 6 0.0000 0.0000 0.0000 0.0000 0.0000 36.9660
#
#
#
# Elastic Compliance Matrix: (Units=1/GPa)
#
#
# Indices 1 2 3 4 5 6 
#
# 1 0.021725 -0.011852 -0.003742 0.000000 0.000000 0.000000
# 2 -0.011852 0.061805 -0.002531 0.000000 0.000000 0.000000
# 3 -0.003742 -0.002531 0.008970 0.000000 0.000000 0.000000
# 4 0.000000 0.000000 0.000000 0.028183 0.000000 0.000000
# 5 0.000000 0.000000 0.000000 0.000000 0.021312 0.000000
# 6 0.000000 0.000000 0.000000 0.000000 0.000000 0.027052
#
#
# Mechanical properties :
#
#
# Convention : Reuss Voigt Hill
#
# Bulk Modulus (GPa) = 17.77736 33.53354 25.65545
# Shear Modulus (GPa) = 22.31673 34.02371 28.17022
#
# Velocity S-wave (km/s) = 3.07195 3.79306 3.45139
# Velocity P-wave (km/s) = 4.48329 5.77608 5.17025
#
# Compressibility (1/GPa) = 0.05625134
#
# Stress axis : x y z
#
# Youngs Moduli (GPa) = 46.02919 16.17988 111.48082
#
# Poissons Ratio (x) = 0.19176 0.41713
# Poissons Ratio (y) = 0.54553 0.28216
# Poissons Ratio (z) = 0.17223 0.04095
#
# Static dielectric constant tensor:
#      x y z
#    x 1.941330 0.000000 0.000000 
#    y 0.000000 1.982130 0.000000 
#    z 0.000000 0.000000 1.877540 
# 
# From -- ./inp_files/6553.got.cif
#   From: 2010.05.17/outbox.cif.g08.bks.cpg/sg41_4_cif.got.tgz:6553.got - 2010.06.03 18:54:24.
