data_PCOD9366634
_publ_section_title
;
Structure prediction by ZEFSAII (Michael W. Deem and Ramdas Pophale) SiO2 
 PCOD9366634
Probable space group: A B A 2
;
_chemical_formula_sum "Si O2"
_cell_formula_units_Z 56
_cell_length_a 13.106582
_cell_length_b 5.251012
_cell_length_c 36.808381
_cell_angle_alpha 90.000000
_cell_angle_beta 90.000000
_cell_angle_gamma 90.000000
_cell_volume 2533.256557
_symmetry_space_group_name_H-M "A B A 2"
_symmetry_group_IT_number 41
_symmetry_cell_setting 'orthorhombic'
loop_
_space_group_symop_operation_xyz
x,y,z
-x,-y,z
1/2-x,y,1/2+z
1/2+x,-y,1/2+z
x,1/2+y,1/2+z
-x,1/2-y,1/2+z
1/2-x,1/2+y,z
1/2+x,1/2-y,z
loop_
_atom_site_type_symbol
_atom_site_label
_atom_site_fract_x
_atom_site_fract_y
_atom_site_fract_z
Si Si1 0.000000 0.500000 0.175980
Si Si2 0.818801 0.709662 0.965885
Si Si3 0.432935 0.755969 0.891008
Si Si4 0.680557 0.153746 0.122541
Si Si5 0.124656 0.614126 0.787592
Si Si6 0.183034 0.911040 0.542044
Si Si7 0.000000 0.500000 0.720687
Si Si8 0.148950 0.618460 0.318782
O O1 0.092831 0.397627 0.151467
O O2 0.035654 0.751403 0.198366
O O3 0.732609 0.488597 0.964907
O O4 0.886750 0.686793 0.930309
O O5 0.873816 0.657963 0.004602
O O6 0.500000 0.500000 0.892698
O O7 0.346039 0.701619 0.860616
O O8 0.500000 0.000000 0.880163
O O9 0.735248 0.427923 0.125972
O O10 0.635378 0.133180 0.081496
O O11 0.089414 0.622447 0.746126
O O12 0.245360 0.590252 0.796915
O O13 0.086872 0.338185 0.799213
O O14 0.098402 0.847977 0.813391
O O15 0.275469 0.700891 0.541056
#
# Coordination Sequence:
#
# PCOD9366634 Si02
#       8
#     4   8   8   8   8   8   4   8
#     4  12  26  46  68 108 139 174 221 286 346 414
#     4  10  21  38  65  93 129 177 226 273 333 387
#     4  12  26  40  60  94 139 171 219 290 331 381
#     4  10  21  43  70 100 139 184 229 271 333 407
#     4  10  23  43  66  89 117 161 204 270 326 401
#     4   8  16  34  63  93 126 172 222 268 310 387
#     4  12  26  46  68  98 139 154 213 292 344 402
#     4  10  23  42  63  89 117 164 223 250 324 403
#
# _framework density 22.105934000000001
#
# number of rings (size 3 to 8) (size 9 to 14) (size 15 to 20)
#    0.000    1.714    0.000    3.429    7.000    0.000 
#   16.714    0.000    1.571    0.000    0.000    0.000 
#    0.000    0.000    0.000    0.000    0.000    0.000 
#
# Total GULP energy -156135.735616 kJ/mol
# GULP energy per Si atom -5576.276272 kJ/mol
# Density = 2.205562 g / cm^3
# Si number density = 22.105934 Si / 1000 Ang^3
#
#
#
# Elastic Constant Matrix: (Units=GPa)
#
#
# Indices 1 2 3 4 5 6 
#
# 1 53.3555 7.9290 31.3611 0.0000 0.0000 0.0000
# 2 7.9290 134.0690 13.6593 0.0000 0.0000 0.0000
# 3 31.3611 13.6593 141.6971 0.0000 0.0000 0.0000
# 4 0.0000 0.0000 0.0000 37.4043 0.0000 0.0000
# 5 0.0000 0.0000 0.0000 0.0000 20.5487 0.0000
# 6 0.0000 0.0000 0.0000 0.0000 0.0000 20.3368
#
#
#
# Elastic Compliance Matrix: (Units=1/GPa)
#
#
# Indices 1 2 3 4 5 6 
#
# 1 0.021629 -0.000799 -0.004710 0.000000 0.000000 0.000000
# 2 -0.000799 0.007562 -0.000552 0.000000 0.000000 0.000000
# 3 -0.004710 -0.000552 0.008153 0.000000 0.000000 0.000000
# 4 0.000000 0.000000 0.000000 0.026735 0.000000 0.000000
# 5 0.000000 0.000000 0.000000 0.000000 0.048665 0.000000
# 6 0.000000 0.000000 0.000000 0.000000 0.000000 0.049172
#
#
# Mechanical properties :
#
#
# Convention : Reuss Voigt Hill
#
# Bulk Modulus (GPa) = 39.64817 48.33559 43.99188
# Shear Modulus (GPa) = 27.40526 34.06945 30.73735
#
# Velocity S-wave (km/s) = 3.52479 3.93006 3.73293
# Velocity P-wave (km/s) = 5.87707 6.51972 6.20672
#
# Compressibility (1/GPa) = 0.02522184
#
# Stress axis : x y z
#
# Youngs Moduli (GPa) = 46.23326 132.23377 122.65449
#
# Poissons Ratio (x) = 0.10570 0.57771
# Poissons Ratio (y) = 0.03695 0.06772
# Poissons Ratio (z) = 0.21776 0.07300
#
# Static dielectric constant tensor:
#      x y z
#    x 1.781150 0.000000 0.000000 
#    y 0.000000 1.837350 0.000000 
#    z 0.000000 0.000000 1.861690 
# 
# From -- ./inp_files/12743.got.cif
#   From: 2010.05.17/outbox.cif.g08.bks.cpg/sg41_7_cif.got.tgz:12743.got - 2010.06.03 18:54:24.
