data_PCOD9366808
_publ_section_title
;
Structure prediction by ZEFSAII (Michael W. Deem and Ramdas Pophale) SiO2 
 PCOD9366808
Probable space group: A B A 2
;
_chemical_formula_sum "Si O2"
_cell_formula_units_Z 40
_cell_length_a 7.881632
_cell_length_b 13.743304
_cell_length_c 14.523157
_cell_angle_alpha 90.000000
_cell_angle_beta 90.000000
_cell_angle_gamma 90.000000
_cell_volume 1573.143495
_symmetry_space_group_name_H-M "A B A 2"
_symmetry_group_IT_number 41
_symmetry_cell_setting 'orthorhombic'
loop_
_space_group_symop_operation_xyz
x,y,z
-x,-y,z
1/2-x,y,1/2+z
1/2+x,-y,1/2+z
x,1/2+y,1/2+z
-x,1/2-y,1/2+z
1/2-x,1/2+y,z
1/2+x,1/2-y,z
loop_
_atom_site_type_symbol
_atom_site_label
_atom_site_fract_x
_atom_site_fract_y
_atom_site_fract_z
Si Si1 0.761758 0.659420 0.696180
Si Si2 0.615192 0.152855 0.388983
Si Si3 0.295223 0.519786 0.299804
Si Si4 0.095158 0.636224 0.143203
Si Si5 0.270832 0.149821 0.950085
O O1 0.654723 0.694087 0.786434
O O2 0.866859 0.566438 0.733096
O O3 0.606829 0.623953 0.632626
O O4 0.866747 0.749358 0.659984
O O5 0.300744 0.952010 0.375897
O O6 0.422593 0.142746 0.418394
O O7 0.692599 0.234961 0.453520
O O8 0.169997 0.577400 0.230336
O O9 0.379464 0.597730 0.368794
O O10 0.188960 0.607609 0.049590
#
# Coordination Sequence:
#
# PCOD9366808 Si02
#       5
#     8   8   8   8   8
#     4  10  21  41  66  83 129 163 199 251 319 360
#     4  10  21  41  66  83 129 163 199 251 319 360
#     4  10  21  42  65  84 125 170 197 254 319 366
#     4  12  22  39  64  93 119 164 211 252 304 372
#     4  12  22  39  64  93 119 164 211 252 304 372
#
# _framework density 25.426797000000001
#
# number of rings (size 3 to 8) (size 9 to 14) (size 15 to 20)
#    1.200    0.000    4.000    3.600    0.000    1.600 
#    0.000    8.000    0.000    0.000    0.000    0.000 
#    0.000    0.000    0.000    0.000    0.000    0.000 
#
# Total GULP energy -111629.658017 kJ/mol
# GULP energy per Si atom -5581.482901 kJ/mol
# Density = 2.536892 g / cm^3
# Si number density = 25.426797 Si / 1000 Ang^3
#
#
#
# Elastic Constant Matrix: (Units=GPa)
#
#
# Indices 1 2 3 4 5 6 
#
# 1 50.3076 13.4528 27.1049 0.0000 0.0000 0.0000
# 2 13.4528 153.6421 47.2905 0.0000 0.0000 0.0000
# 3 27.1049 47.2905 117.5453 0.0000 0.0000 0.0000
# 4 0.0000 0.0000 0.0000 34.3344 0.0000 0.0000
# 5 0.0000 0.0000 0.0000 0.0000 18.2128 0.0000
# 6 0.0000 0.0000 0.0000 0.0000 0.0000 35.1858
#
#
#
# Elastic Compliance Matrix: (Units=1/GPa)
#
#
# Indices 1 2 3 4 5 6 
#
# 1 0.022723 -0.000430 -0.005067 0.000000 0.000000 0.000000
# 2 -0.000430 0.007437 -0.002893 0.000000 0.000000 0.000000
# 3 -0.005067 -0.002893 0.010839 0.000000 0.000000 0.000000
# 4 0.000000 0.000000 0.000000 0.029125 0.000000 0.000000
# 5 0.000000 0.000000 0.000000 0.000000 0.054906 0.000000
# 6 0.000000 0.000000 0.000000 0.000000 0.000000 0.028421
#
#
# Mechanical properties :
#
#
# Convention : Reuss Voigt Hill
#
# Bulk Modulus (GPa) = 41.28842 55.24347 48.26595
# Shear Modulus (GPa) = 28.04217 33.12307 30.58262
#
# Velocity S-wave (km/s) = 3.32453 3.61319 3.47186
# Velocity P-wave (km/s) = 5.56867 6.25943 5.92413
#
# Compressibility (1/GPa) = 0.02421986
#
# Stress axis : x y z
#
# Youngs Moduli (GPa) = 44.00917 134.46894 92.25547
#
# Poissons Ratio (x) = 0.05783 0.46742
# Poissons Ratio (y) = 0.01893 0.26687
# Poissons Ratio (z) = 0.22298 0.38898
#
# Static dielectric constant tensor:
#      x y z
#    x 2.113720 0.000000 0.000000 
#    y 0.000000 2.049950 0.000000 
#    z 0.000000 0.000000 2.045100 
# 
# From -- ./inp_files/7192.got.cif
#   From: 2010.05.17/outbox.cif.g08.bks.cpg/sg41_4_cif.got.tgz:7192.got - 2010.06.03 18:54:24.
