data_PCOD9366223
_publ_section_title
;
Structure prediction by ZEFSAII (Michael W. Deem and Ramdas Pophale) SiO2 
 PCOD9366223
Probable space group: A B A 2
;
_chemical_formula_sum "Si O2"
_cell_formula_units_Z 56
_cell_length_a 13.188815
_cell_length_b 14.460719
_cell_length_c 14.696990
_cell_angle_alpha 90.000000
_cell_angle_beta 90.000000
_cell_angle_gamma 90.000000
_cell_volume 2803.006224
_symmetry_space_group_name_H-M "A B A 2"
_symmetry_group_IT_number 41
_symmetry_cell_setting 'orthorhombic'
loop_
_space_group_symop_operation_xyz
x,y,z
-x,-y,z
1/2-x,y,1/2+z
1/2+x,-y,1/2+z
x,1/2+y,1/2+z
-x,1/2-y,1/2+z
1/2-x,1/2+y,z
1/2+x,1/2-y,z
loop_
_atom_site_type_symbol
_atom_site_label
_atom_site_fract_x
_atom_site_fract_y
_atom_site_fract_z
Si Si1 0.384745 0.461827 0.907720
Si Si2 0.496318 0.744116 0.052610
Si Si3 0.613681 0.860928 0.192135
Si Si4 0.332185 0.737110 0.197353
Si Si5 0.207449 0.954952 0.727608
Si Si6 0.601650 0.552904 0.106551
Si Si7 0.027552 0.274185 0.349086
O O1 0.500000 0.500000 0.893424
O O2 0.302654 0.486907 0.832499
O O3 0.398580 0.353198 0.889126
O O4 0.357030 0.485852 0.010243
O O5 0.549555 0.827292 0.105956
O O6 0.390420 0.722625 0.102614
O O7 0.568033 0.656985 0.080990
O O8 0.483354 0.761802 0.944881
O O9 0.724580 0.813185 0.196802
O O10 0.553362 0.824103 0.281924
O O11 0.630716 0.970533 0.185292
O O12 0.321604 0.848304 0.210163
O O13 0.406404 0.709733 0.281751
O O14 0.317332 0.960851 0.684220
O O15 0.500000 0.500000 0.130177
#
# Coordination Sequence:
#
# PCOD9366223 Si02
#       7
#     8   8   8   8   8   8   8
#     4   9  17  35  60  85 111 156 198 234 284 358
#     4  10  21  39  57  88 118 156 197 245 293 357
#     4  11  21  38  63  87 118 160 199 246 302 346
#     4  10  22  38  60  88 119 154 201 248 302 349
#     4  11  21  38  62  91 119 153 203 253 289 361
#     4  10  20  37  61  85 118 156 197 240 294 354
#     4   9  20  36  59  82 119 154 195 236 298 354
#
# _framework density 19.978551
#
# number of rings (size 3 to 8) (size 9 to 14) (size 15 to 20)
#    0.000    2.000    2.857    0.857    0.000    1.143 
#    5.143    0.000    0.000    2.571    0.000    0.000 
#    0.000    0.000    0.000    0.000    0.000    0.000 
#
# Total GULP energy -155936.396154 kJ/mol
# GULP energy per Si atom -5569.157005 kJ/mol
# Density = 1.993308 g / cm^3
# Si number density = 19.978551 Si / 1000 Ang^3
#
#
#
# Elastic Constant Matrix: (Units=GPa)
#
#
# Indices 1 2 3 4 5 6 
#
# 1 75.4032 -10.0277 53.2760 0.0000 0.0000 0.0000
# 2 -10.0277 35.2882 1.3316 0.0000 0.0000 0.0000
# 3 53.2760 1.3316 126.3847 0.0000 0.0000 0.0000
# 4 0.0000 0.0000 0.0000 60.9593 0.0000 0.0000
# 5 0.0000 0.0000 0.0000 0.0000 26.5149 0.0000
# 6 0.0000 0.0000 0.0000 0.0000 0.0000 16.7946
#
#
#
# Elastic Compliance Matrix: (Units=1/GPa)
#
#
# Indices 1 2 3 4 5 6 
#
# 1 0.020094 0.006032 -0.008534 0.000000 0.000000 0.000000
# 2 0.006032 0.030160 -0.002860 0.000000 0.000000 0.000000
# 3 -0.008534 -0.002860 0.011540 0.000000 0.000000 0.000000
# 4 0.000000 0.000000 0.000000 0.016404 0.000000 0.000000
# 5 0.000000 0.000000 0.000000 0.000000 0.037715 0.000000
# 6 0.000000 0.000000 0.000000 0.000000 0.000000 0.059543
#
#
# Mechanical properties :
#
#
# Convention : Reuss Voigt Hill
#
# Bulk Modulus (GPa) = 19.58131 36.24841 27.91486
# Shear Modulus (GPa) = 24.60590 33.68685 29.14638
#
# Velocity S-wave (km/s) = 3.51325 4.11073 3.82368
# Velocity P-wave (km/s) = 5.12637 6.38074 5.78764
#
# Compressibility (1/GPa) = 0.05106910
#
# Stress axis : x y z
#
# Youngs Moduli (GPa) = 49.76657 33.15637 86.65640
#
# Poissons Ratio (x) = -0.20000 0.73951
# Poissons Ratio (y) = -0.30019 0.24788
# Poissons Ratio (z) = 0.42470 0.09484
#
# Static dielectric constant tensor:
#      x y z
#    x 1.713940 0.000000 0.000000 
#    y 0.000000 1.774520 0.000000 
#    z 0.000000 0.000000 1.780350 
# 
# From -- ./inp_files/8487.got.cif
#   From: 2010.05.17/outbox.cif.g08.bks.cpg/sg41_5_cif.got.tgz:8487.got - 2010.06.03 18:54:24.
