data_PCOD9366138
_publ_section_title
;
Structure prediction by ZEFSAII (Michael W. Deem and Ramdas Pophale) SiO2 
 PCOD9366138
Probable space group: A B A 2
;
_chemical_formula_sum "Si O2"
_cell_formula_units_Z 64
_cell_length_a 19.807518
_cell_length_b 11.811351
_cell_length_c 13.045942
_cell_angle_alpha 90.000000
_cell_angle_beta 90.000000
_cell_angle_gamma 90.000000
_cell_volume 3052.144412
_symmetry_space_group_name_H-M "A B A 2"
_symmetry_group_IT_number 41
_symmetry_cell_setting 'orthorhombic'
loop_
_space_group_symop_operation_xyz
x,y,z
-x,-y,z
1/2-x,y,1/2+z
1/2+x,-y,1/2+z
x,1/2+y,1/2+z
-x,1/2-y,1/2+z
1/2-x,1/2+y,z
1/2+x,1/2-y,z
loop_
_atom_site_type_symbol
_atom_site_label
_atom_site_fract_x
_atom_site_fract_y
_atom_site_fract_z
Si Si1 0.550827 0.890383 0.563240
Si Si2 0.669592 0.628716 0.819482
Si Si3 0.221236 0.347843 0.104672
Si Si4 0.062836 0.238025 0.641204
Si Si5 0.648447 0.537292 0.183364
Si Si6 0.189495 0.459576 0.906491
Si Si7 0.169689 0.697553 0.991145
Si Si8 0.067434 0.574962 0.331778
O O1 0.509562 0.782792 0.604241
O O2 0.573858 0.876363 0.446268
O O3 0.500000 0.000000 0.563852
O O4 0.612906 0.929396 0.633466
O O5 0.680910 0.681447 0.707449
O O6 0.742205 0.596869 0.865554
O O7 0.642254 0.714066 0.905738
O O8 0.627100 0.514178 0.811404
O O9 0.275168 0.445252 0.141725
O O10 0.175026 0.393515 0.012128
O O11 0.270461 0.251469 0.059597
O O12 0.108057 0.351484 0.647694
O O13 0.105237 0.164486 0.559810
O O14 0.062672 0.172389 0.747630
O O15 0.643032 0.539938 0.306296
O O16 0.199639 0.589526 0.935124
O O17 0.000000 0.500000 0.327198
#
# Coordination Sequence:
#
# PCOD9366138 Si02
#       8
#     8   8   8   8   8   8   8   8
#     4   9  18  36  58  78 106 147 190 228 279 345
#     4  10  21  37  57  82 113 150 190 230 284 351
#     4   9  19  35  54  82 114 145 182 229 286 344
#     4  10  21  38  58  80 111 150 189 234 284 336
#     4   9  19  36  57  82 112 147 187 229 280 344
#     4  10  20  34  57  86 114 144 186 238 287 337
#     4  10  20  36  57  82 115 151 184 229 287 342
#     4  11  22  38  59  82 111 148 193 239 285 345
#
# _framework density 20.968862999999999
#
# number of rings (size 3 to 8) (size 9 to 14) (size 15 to 20)
#    0.000    2.250    0.000    4.500    0.000    8.000 
#    0.000    5.000    0.000    0.750    0.000    0.000 
#    0.000    0.000    0.000    0.000    0.000    0.000 
#
# Total GULP energy -178595.812353 kJ/mol
# GULP energy per Si atom -5581.119136 kJ/mol
# Density = 2.092114 g / cm^3
# Si number density = 20.968863 Si / 1000 Ang^3
#
#
#
# Elastic Constant Matrix: (Units=GPa)
#
#
# Indices 1 2 3 4 5 6 
#
# 1 18.7217 -12.4179 27.1315 0.0000 0.0000 0.0000
# 2 -12.4179 19.9374 -1.3462 0.0000 0.0000 0.0000
# 3 27.1315 -1.3462 100.5509 0.0000 0.0000 0.0000
# 4 0.0000 0.0000 0.0000 35.5230 0.0000 0.0000
# 5 0.0000 0.0000 0.0000 0.0000 24.1224 0.0000
# 6 0.0000 0.0000 0.0000 0.0000 0.0000 5.2192
#
#
#
# Elastic Compliance Matrix: (Units=1/GPa)
#
#
# Indices 1 2 3 4 5 6 
#
# 1 0.243562 0.147397 -0.063747 0.000000 0.000000 0.000000
# 2 0.147397 0.139403 -0.037906 0.000000 0.000000 0.000000
# 3 -0.063747 -0.037906 0.026638 0.000000 0.000000 0.000000
# 4 0.000000 0.000000 0.000000 0.028151 0.000000 0.000000
# 5 0.000000 0.000000 0.000000 0.000000 0.041455 0.000000
# 6 0.000000 0.000000 0.000000 0.000000 0.000000 0.191601
#
#
# Mechanical properties :
#
#
# Convention : Reuss Voigt Hill
#
# Bulk Modulus (GPa) = 1.99564 18.43832 10.21698
# Shear Modulus (GPa) = 6.69925 21.36243 14.03084
#
# Velocity S-wave (km/s) = 1.78935 3.19528 2.58956
# Velocity P-wave (km/s) = 2.28535 4.73554 3.71808
#
# Compressibility (1/GPa) = 0.50109257
#
# Stress axis : x y z
#
# Youngs Moduli (GPa) = 4.10572 7.17347 37.53975
#
# Poissons Ratio (x) = -1.05735 2.39304
# Poissons Ratio (y) = -0.60517 1.42297
# Poissons Ratio (z) = 0.26173 0.27191
#
# Static dielectric constant tensor:
#      x y z
#    x 1.764910 0.000000 0.000000 
#    y 0.000000 1.752060 0.000000 
#    z 0.000000 0.000000 1.781340 
# 
# From -- ./inp_files/6481.got.cif
#   From: 2010.05.17/outbox.cif.g08.bks.cpg/sg41_4_cif.got.tgz:6481.got - 2010.06.03 18:54:24.
