data_PCOD9366591
_publ_section_title
;
Structure prediction by ZEFSAII (Michael W. Deem and Ramdas Pophale) SiO2 
 PCOD9366591
Probable space group: A B A 2
;
_chemical_formula_sum "Si O2"
_cell_formula_units_Z 64
_cell_length_a 26.948563
_cell_length_b 9.526334
_cell_length_c 14.286251
_cell_angle_alpha 90.000000
_cell_angle_beta 90.000000
_cell_angle_gamma 90.000000
_cell_volume 3667.580814
_symmetry_space_group_name_H-M "A B A 2"
_symmetry_group_IT_number 41
_symmetry_cell_setting 'orthorhombic'
loop_
_space_group_symop_operation_xyz
x,y,z
-x,-y,z
1/2-x,y,1/2+z
1/2+x,-y,1/2+z
x,1/2+y,1/2+z
-x,1/2-y,1/2+z
1/2-x,1/2+y,z
1/2+x,1/2-y,z
loop_
_atom_site_type_symbol
_atom_site_label
_atom_site_fract_x
_atom_site_fract_y
_atom_site_fract_z
Si Si1 0.389656 0.536368 0.389650
Si Si2 0.124628 0.557452 0.672199
Si Si3 0.803215 0.948402 0.534363
Si Si4 0.458277 0.615297 0.020672
Si Si5 0.700463 0.783335 0.542089
Si Si6 0.380810 0.205569 0.383849
Si Si7 0.876436 0.778274 0.667054
Si Si8 0.468240 0.133629 0.043154
O O1 0.385794 0.582734 0.281891
O O2 0.337081 0.562822 0.441119
O O3 0.397193 0.368399 0.391557
O O4 0.433525 0.601662 0.452653
O O5 0.076864 0.599999 0.610852
O O6 0.169744 0.646782 0.627837
O O7 0.133520 0.389470 0.659476
O O8 0.752208 0.863207 0.530027
O O9 0.836922 0.872345 0.612003
O O10 0.794839 0.114524 0.553805
O O11 0.500000 0.500000 0.020784
O O12 0.489200 0.756871 0.019765
O O13 0.422336 0.609898 0.931556
O O14 0.667698 0.807644 0.448546
O O15 0.373951 0.178939 0.275175
O O16 0.930146 0.809890 0.621476
O O17 0.500000 0.000000 0.074840
#
# Coordination Sequence:
#
# PCOD9366591 Si02
#       8
#     8   8   8   8   8   8   8   8
#     4   9  20  38  59  82 108 152 188 227 274 336
#     4  10  21  38  59  83 115 145 190 232 279 328
#     4  10  21  39  61  84 112 145 185 225 287 332
#     4  11  21  36  55  86 114 151 189 233 274 326
#     4  10  21  39  61  83 112 148 179 233 278 340
#     4   9  20  38  58  81 115 144 188 231 276 325
#     4  10  21  38  58  85 112 149 186 234 276 333
#     4  11  21  36  59  80 116 153 191 227 276 331
#
# _framework density 17.450195000000001
#
# number of rings (size 3 to 8) (size 9 to 14) (size 15 to 20)
#    0.000    2.000    2.500    0.750    1.750    3.000 
#    2.250    2.500    0.000    0.000    0.000    0.000 
#    0.000    0.000    0.000    0.000    0.000    0.000 
#
# Total GULP energy -178441.478019 kJ/mol
# GULP energy per Si atom -5576.296188 kJ/mol
# Density = 1.741048 g / cm^3
# Si number density = 17.450195 Si / 1000 Ang^3
#
#
#
# Elastic Constant Matrix: (Units=GPa)
#
#
# Indices 1 2 3 4 5 6 
#
# 1 107.7180 44.2502 44.1992 0.0000 0.0000 0.0000
# 2 44.2502 69.0984 26.4366 0.0000 0.0000 0.0000
# 3 44.1992 26.4366 130.1989 0.0000 0.0000 0.0000
# 4 0.0000 0.0000 0.0000 23.1861 0.0000 0.0000
# 5 0.0000 0.0000 0.0000 0.0000 4.6573 0.0000
# 6 0.0000 0.0000 0.0000 0.0000 0.0000 32.7305
#
#
#
# Elastic Compliance Matrix: (Units=1/GPa)
#
#
# Indices 1 2 3 4 5 6 
#
# 1 0.013663 -0.007563 -0.003103 0.000000 0.000000 0.000000
# 2 -0.007563 0.019877 -0.001469 0.000000 0.000000 0.000000
# 3 -0.003103 -0.001469 0.009032 0.000000 0.000000 0.000000
# 4 0.000000 0.000000 0.000000 0.043129 0.000000 0.000000
# 5 0.000000 0.000000 0.000000 0.000000 0.214715 0.000000
# 6 0.000000 0.000000 0.000000 0.000000 0.000000 0.030553
#
#
# Mechanical properties :
#
#
# Convention : Reuss Voigt Hill
#
# Bulk Modulus (GPa) = 54.63228 59.64301 57.13765
# Shear Modulus (GPa) = 13.83739 24.92340 19.38040
#
# Velocity S-wave (km/s) = 2.81902 3.78333 3.33620
# Velocity P-wave (km/s) = 6.47853 7.30329 6.90324
#
# Compressibility (1/GPa) = 0.01830420
#
# Stress axis : x y z
#
# Youngs Moduli (GPa) = 73.18795 50.30885 110.71666
#
# Poissons Ratio (x) = 0.38048 0.34353
# Poissons Ratio (y) = 0.55351 0.16260
# Poissons Ratio (z) = 0.22708 0.07388
#
# Static dielectric constant tensor:
#      x y z
#    x 1.573620 0.000000 0.000000 
#    y 0.000000 1.570510 0.000000 
#    z 0.000000 0.000000 1.577680 
# 
# From -- ./inp_files/9141.got.cif
#   From: 2010.05.17/outbox.cif.g08.bks.cpg/sg41_5_cif.got.tgz:9141.got - 2010.06.03 18:54:24.
