data_PCOD9366924
_publ_section_title
;
Structure prediction by ZEFSAII (Michael W. Deem and Ramdas Pophale) SiO2 
 PCOD9366924
Probable space group: A B A 2
;
_chemical_formula_sum "Si O2"
_cell_formula_units_Z 40
_cell_length_a 7.996621
_cell_length_b 13.689903
_cell_length_c 13.392038
_cell_angle_alpha 90.000000
_cell_angle_beta 90.000000
_cell_angle_gamma 90.000000
_cell_volume 1466.066118
_symmetry_space_group_name_H-M "A B A 2"
_symmetry_group_IT_number 41
_symmetry_cell_setting 'orthorhombic'
loop_
_space_group_symop_operation_xyz
x,y,z
-x,-y,z
1/2-x,y,1/2+z
1/2+x,-y,1/2+z
x,1/2+y,1/2+z
-x,1/2-y,1/2+z
1/2-x,1/2+y,z
1/2+x,1/2-y,z
loop_
_atom_site_type_symbol
_atom_site_label
_atom_site_fract_x
_atom_site_fract_y
_atom_site_fract_z
Si Si1 0.821786 0.054699 0.025990
Si Si2 0.312630 0.835049 0.174707
Si Si3 0.171663 0.060014 0.841832
Si Si4 0.044296 0.729589 0.484135
Si Si5 0.968436 0.321955 0.791821
O O1 0.689035 0.062617 0.114909
O O2 0.000000 0.000000 0.047456
O O3 0.246746 0.984929 0.922403
O O4 0.880172 0.166225 0.008704
O O5 0.419673 0.790855 0.265232
O O6 0.130735 0.840872 0.225981
O O7 0.378032 0.758985 0.089799
O O8 0.142027 0.152821 0.915141
O O9 0.313941 0.104370 0.769863
O O10 0.000000 0.000000 0.810710
O O11 0.006898 0.818430 0.409750
#
# Coordination Sequence:
#
# PCOD9366924 Si02
#       5
#     8   8   8   8   8
#     4   9  21  44  67  97 151 201 241 320 406 454
#     4  12  24  42  75 112 147 204 275 324 385 493
#     4   9  21  44  71 100 158 214 247 331 414 468
#     4  10  21  44  72 103 154 204 261 335 395 469
#     4  12  24  42  77 116 143 210 276 324 393 485
#
# _framework density 27.283901
#
# number of rings (size 3 to 8) (size 9 to 14) (size 15 to 20)
#    0.000    2.000    4.000    1.200    0.000    0.000 
#    7.200    1.000    0.000    0.000    0.000    0.000 
#    0.000    0.000    0.000    0.000    0.000    0.000 
#
# Total GULP energy -111436.819849 kJ/mol
# GULP energy per Si atom -5571.840992 kJ/mol
# Density = 2.722180 g / cm^3
# Si number density = 27.283901 Si / 1000 Ang^3
#
#
#
# Elastic Constant Matrix: (Units=GPa)
#
#
# Indices 1 2 3 4 5 6 
#
# 1 62.3666 15.3018 57.1713 0.0000 0.0000 0.0000
# 2 15.3018 77.8719 38.6605 0.0000 0.0000 0.0000
# 3 57.1713 38.6605 141.5687 0.0000 0.0000 0.0000
# 4 0.0000 0.0000 0.0000 46.1657 0.0000 0.0000
# 5 0.0000 0.0000 0.0000 0.0000 39.4593 0.0000
# 6 0.0000 0.0000 0.0000 0.0000 0.0000 51.0682
#
#
#
# Elastic Compliance Matrix: (Units=1/GPa)
#
#
# Indices 1 2 3 4 5 6 
#
# 1 0.025460 0.000118 -0.010314 0.000000 0.000000 0.000000
# 2 0.000118 0.014856 -0.004105 0.000000 0.000000 0.000000
# 3 -0.010314 -0.004105 0.012350 0.000000 0.000000 0.000000
# 4 0.000000 0.000000 0.000000 0.021661 0.000000 0.000000
# 5 0.000000 0.000000 0.000000 0.000000 0.025343 0.000000
# 6 0.000000 0.000000 0.000000 0.000000 0.000000 0.019582
#
#
# Mechanical properties :
#
#
# Convention : Reuss Voigt Hill
#
# Bulk Modulus (GPa) = 41.55517 56.00826 48.78172
# Shear Modulus (GPa) = 32.07703 38.71689 35.39696
#
# Velocity S-wave (km/s) = 3.43253 3.77110 3.60579
# Velocity P-wave (km/s) = 5.56538 6.28761 5.93749
#
# Compressibility (1/GPa) = 0.02406440
#
# Stress axis : x y z
#
# Youngs Moduli (GPa) = 39.27706 67.31176 80.97296
#
# Poissons Ratio (x) = -0.00792 0.83515
# Poissons Ratio (y) = -0.00462 0.33236
# Poissons Ratio (z) = 0.40510 0.27628
#
# Static dielectric constant tensor:
#      x y z
#    x 2.231730 0.000000 0.000000 
#    y 0.000000 2.177090 0.000000 
#    z 0.000000 0.000000 2.285280 
# 
# From -- ./inp_files/7176.got.cif
#   From: 2010.05.17/outbox.cif.g08.bks.cpg/sg41_4_cif.got.tgz:7176.got - 2010.06.03 18:54:24.
