data_PCOD9366143
_publ_section_title
;
Structure prediction by ZEFSAII (Michael W. Deem and Ramdas Pophale) SiO2 
 PCOD9366143
Probable space group: A B A 2
;
_chemical_formula_sum "Si O2"
_cell_formula_units_Z 60
_cell_length_a 11.135955
_cell_length_b 14.723864
_cell_length_c 19.144136
_cell_angle_alpha 90.000000
_cell_angle_beta 90.000000
_cell_angle_gamma 90.000000
_cell_volume 3138.954608
_symmetry_space_group_name_H-M "A B A 2"
_symmetry_group_IT_number 41
_symmetry_cell_setting 'orthorhombic'
loop_
_space_group_symop_operation_xyz
x,y,z
-x,-y,z
1/2-x,y,1/2+z
1/2+x,-y,1/2+z
x,1/2+y,1/2+z
-x,1/2-y,1/2+z
1/2-x,1/2+y,z
1/2+x,1/2-y,z
loop_
_atom_site_type_symbol
_atom_site_label
_atom_site_fract_x
_atom_site_fract_y
_atom_site_fract_z
Si Si1 0.229928 0.601177 0.507550
Si Si2 0.207188 0.381060 0.399687
Si Si3 0.442799 0.898104 0.647639
Si Si4 0.408429 0.697944 0.419041
Si Si5 0.569309 0.594639 0.310949
Si Si6 0.000000 0.500000 0.443467
Si Si7 0.432126 0.752323 0.053808
Si Si8 0.294025 0.422120 0.558474
O O1 0.322310 0.616529 0.444506
O O2 0.101207 0.555281 0.487294
O O3 0.192415 0.700837 0.533669
O O4 0.298108 0.531688 0.558788
O O5 0.179132 0.275701 0.391507
O O6 0.297739 0.414831 0.341513
O O7 0.079808 0.431482 0.399328
O O8 0.263222 0.399338 0.476881
O O9 0.431356 0.880142 0.729782
O O10 0.514547 0.816515 0.610594
O O11 0.316522 0.898944 0.608069
O O12 0.500000 0.000000 0.639267
O O13 0.501303 0.665556 0.360963
O O14 0.481550 0.737160 0.486175
O O15 0.500000 0.500000 0.317727
O O16 0.402257 0.854957 0.076901
#
# Coordination Sequence:
#
# PCOD9366143 Si02
#       8
#     8   8   8   8   8   4   8   8
#     4  11  20  35  61  93 126 159 212 271 323 373
#     4  11  21  38  64  95 126 167 216 276 319 383
#     4  11  23  42  66  88 130 175 215 262 329 401
#     4  12  22  37  62 100 131 161 215 280 324 385
#     4  11  25  43  61  96 134 174 210 266 341 392
#     4  10  20  34  58  88 120 164 210 258 322 392
#     4  12  20  38  63  98 124 165 224 262 322 380
#     4  11  21  36  63  93 121 164 217 270 310 385
#
# _framework density 19.114643000000001
#
# number of rings (size 3 to 8) (size 9 to 14) (size 15 to 20)
#    0.000    0.800    6.667    2.400    0.933    1.067 
#    0.000    0.000    0.000    1.600    0.000    0.000 
#    0.000    0.000    0.000    0.000    0.000    0.000 
#
# Total GULP energy -167384.429954 kJ/mol
# GULP energy per Si atom -5579.480998 kJ/mol
# Density = 1.907114 g / cm^3
# Si number density = 19.114643 Si / 1000 Ang^3
#
#
#
# Elastic Constant Matrix: (Units=GPa)
#
#
# Indices 1 2 3 4 5 6 
#
# 1 57.2027 36.6793 45.1995 0.0000 0.0000 0.0000
# 2 36.6793 84.5332 35.5336 0.0000 0.0000 0.0000
# 3 45.1995 35.5336 120.8693 0.0000 0.0000 0.0000
# 4 0.0000 0.0000 0.0000 24.2321 0.0000 0.0000
# 5 0.0000 0.0000 0.0000 0.0000 23.4363 0.0000
# 6 0.0000 0.0000 0.0000 0.0000 0.0000 44.5139
#
#
#
# Elastic Compliance Matrix: (Units=1/GPa)
#
#
# Indices 1 2 3 4 5 6 
#
# 1 0.030381 -0.009592 -0.008541 0.000000 0.000000 0.000000
# 2 -0.009592 0.016526 -0.001271 0.000000 0.000000 0.000000
# 3 -0.008541 -0.001271 0.011841 0.000000 0.000000 0.000000
# 4 0.000000 0.000000 0.000000 0.041268 0.000000 0.000000
# 5 0.000000 0.000000 0.000000 0.000000 0.042669 0.000000
# 6 0.000000 0.000000 0.000000 0.000000 0.000000 0.022465
#
#
# Mechanical properties :
#
#
# Convention : Reuss Voigt Hill
#
# Bulk Modulus (GPa) = 50.15298 55.27000 52.71149
# Shear Modulus (GPa) = 23.74097 28.11599 25.92848
#
# Velocity S-wave (km/s) = 3.52807 3.83941 3.68703
# Velocity P-wave (km/s) = 6.54915 6.97370 6.76476
#
# Compressibility (1/GPa) = 0.01993899
#
# Stress axis : x y z
#
# Youngs Moduli (GPa) = 32.91480 60.50988 84.45090
#
# Poissons Ratio (x) = 0.58043 0.72132
# Poissons Ratio (y) = 0.31573 0.10737
# Poissons Ratio (z) = 0.28113 0.07693
#
# Static dielectric constant tensor:
#      x y z
#    x 1.703190 0.000000 0.000000 
#    y 0.000000 1.734500 0.000000 
#    z 0.000000 0.000000 1.634860 
# 
# From -- ./inp_files/10094.got.cif
#   From: 2010.05.17/outbox.cif.g08.bks.cpg/sg41_6_cif.got.tgz:10094.got - 2010.06.03 18:54:24.
