data_PCOD9366516
_publ_section_title
;
Structure prediction by ZEFSAII (Michael W. Deem and Ramdas Pophale) SiO2 
 PCOD9366516
Probable space group: A B A 2
;
_chemical_formula_sum "Si O2"
_cell_formula_units_Z 44
_cell_length_a 16.667137
_cell_length_b 14.551452
_cell_length_c 7.123760
_cell_angle_alpha 90.000000
_cell_angle_beta 90.000000
_cell_angle_gamma 90.000000
_cell_volume 1727.732950
_symmetry_space_group_name_H-M "A B A 2"
_symmetry_group_IT_number 41
_symmetry_cell_setting 'orthorhombic'
loop_
_space_group_symop_operation_xyz
x,y,z
-x,-y,z
1/2-x,y,1/2+z
1/2+x,-y,1/2+z
x,1/2+y,1/2+z
-x,1/2-y,1/2+z
1/2-x,1/2+y,z
1/2+x,1/2-y,z
loop_
_atom_site_type_symbol
_atom_site_label
_atom_site_fract_x
_atom_site_fract_y
_atom_site_fract_z
Si Si1 0.000000 0.000000 0.408100
Si Si2 0.877425 0.749040 0.896825
Si Si3 0.780624 0.905325 0.669843
Si Si4 0.132882 0.911988 0.679245
Si Si5 0.447426 0.313412 0.007477
Si Si6 0.122119 0.135009 0.300584
O O1 0.049559 0.066626 0.277288
O O2 0.938087 0.049966 0.546306
O O3 0.824408 0.824919 0.788031
O O4 0.912739 0.691427 0.717386
O O5 0.956580 0.796303 0.991730
O O6 0.840722 0.678152 0.053749
O O7 0.822219 0.904033 0.467981
O O8 0.689210 0.873023 0.644183
O O9 0.799190 0.011654 0.722959
O O10 0.088728 0.892667 0.877317
O O11 0.411028 0.226829 0.891892
#
# Coordination Sequence:
#
# PCOD9366516 Si02
#       6
#     4   8   8   8   8   8
#     4  10  20  46  72  94 144 182 238 306 352 430
#     4  11  22  42  73 103 140 193 228 308 366 437
#     4  10  25  45  66 103 150 183 240 304 366 429
#     4  11  22  45  69 101 145 188 240 303 361 440
#     4  11  21  41  70 104 136 183 250 286 371 440
#     4  10  22  44  67  98 142 189 228 306 361 428
#
# _framework density 25.466896999999999
#
# number of rings (size 3 to 8) (size 9 to 14) (size 15 to 20)
#    0.000    1.455    3.636    2.182    2.545    0.000 
#   13.091    0.909    0.000    0.000    0.000    0.000 
#    0.000    0.000    0.000    0.000    0.000    0.000 
#
# Total GULP energy -122903.337265 kJ/mol
# GULP energy per Si atom -5586.515330 kJ/mol
# Density = 2.540893 g / cm^3
# Si number density = 25.466897 Si / 1000 Ang^3
#
#
#
# Elastic Constant Matrix: (Units=GPa)
#
#
# Indices 1 2 3 4 5 6 
#
# 1 112.3872 43.4300 -5.0328 0.0000 0.0000 0.0000
# 2 43.4300 96.7576 9.7566 0.0000 0.0000 0.0000
# 3 -5.0328 9.7566 111.8732 0.0000 0.0000 0.0000
# 4 0.0000 0.0000 0.0000 35.0019 0.0000 0.0000
# 5 0.0000 0.0000 0.0000 0.0000 22.8530 0.0000
# 6 0.0000 0.0000 0.0000 0.0000 0.0000 26.2227
#
#
#
# Elastic Compliance Matrix: (Units=1/GPa)
#
#
# Indices 1 2 3 4 5 6 
#
# 1 0.010858 -0.004967 0.000922 0.000000 0.000000 0.000000
# 2 -0.004967 0.012699 -0.001331 0.000000 0.000000 0.000000
# 3 0.000922 -0.001331 0.009096 0.000000 0.000000 0.000000
# 4 0.000000 0.000000 0.000000 0.028570 0.000000 0.000000
# 5 0.000000 0.000000 0.000000 0.000000 0.043758 0.000000
# 6 0.000000 0.000000 0.000000 0.000000 0.000000 0.038135
#
#
# Mechanical properties :
#
#
# Convention : Reuss Voigt Hill
#
# Bulk Modulus (GPa) = 45.65953 46.36949 46.01451
# Shear Modulus (GPa) = 31.02342 35.00646 33.01494
#
# Velocity S-wave (km/s) = 3.49404 3.71156 3.60444
# Velocity P-wave (km/s) = 5.85198 6.05102 5.95233
#
# Compressibility (1/GPa) = 0.02190123
#
# Stress axis : x y z
#
# Youngs Moduli (GPa) = 92.09461 78.74844 109.93568
#
# Poissons Ratio (x) = 0.39113 -0.10132
# Poissons Ratio (y) = 0.45741 0.14631
# Poissons Ratio (z) = -0.08488 0.10481
#
# Static dielectric constant tensor:
#      x y z
#    x 2.215900 0.000000 0.000000 
#    y 0.000000 2.133240 0.000000 
#    z 0.000000 0.000000 2.204970 
# 
# From -- ./inp_files/2991.got.cif
#   From: 2010.05.17/outbox.cif.g08.bks.cpg/sg41_2_cif.got.tgz:2991.got - 2010.06.03 18:54:24.
