data_PCOD9366704
_publ_section_title
;
Structure prediction by ZEFSAII (Michael W. Deem and Ramdas Pophale) SiO2 
 PCOD9366704
Probable space group: A B A 2
;
_chemical_formula_sum "Si O2"
_cell_formula_units_Z 64
_cell_length_a 15.050223
_cell_length_b 21.599010
_cell_length_c 8.652497
_cell_angle_alpha 90.000000
_cell_angle_beta 90.000000
_cell_angle_gamma 90.000000
_cell_volume 2812.666482
_symmetry_space_group_name_H-M "A B A 2"
_symmetry_group_IT_number 41
_symmetry_cell_setting 'orthorhombic'
loop_
_space_group_symop_operation_xyz
x,y,z
-x,-y,z
1/2-x,y,1/2+z
1/2+x,-y,1/2+z
x,1/2+y,1/2+z
-x,1/2-y,1/2+z
1/2-x,1/2+y,z
1/2+x,1/2-y,z
loop_
_atom_site_type_symbol
_atom_site_label
_atom_site_fract_x
_atom_site_fract_y
_atom_site_fract_z
Si Si1 0.208282 0.913105 0.386120
Si Si2 0.105376 0.273473 0.129787
Si Si3 0.751743 0.825188 0.065961
Si Si4 0.652900 0.381195 0.819306
Si Si5 0.546716 0.115506 0.314860
Si Si6 0.643940 0.648922 0.090501
Si Si7 0.075090 0.221432 0.455033
Si Si8 0.351616 0.984001 0.174264
O O1 0.265049 0.869082 0.500694
O O2 0.151624 0.870806 0.268163
O O3 0.274061 0.951509 0.275665
O O4 0.161213 0.963274 0.497135
O O5 0.189456 0.237767 0.057318
O O6 0.113666 0.337701 0.225325
O O7 0.073968 0.229920 0.271296
O O8 0.024863 0.286240 0.013550
O O9 0.724249 0.835524 0.242830
O O10 0.652546 0.826771 0.993893
O O11 0.813282 0.879503 0.995523
O O12 0.552037 0.357639 0.809148
O O13 0.652915 0.445135 0.726152
O O14 0.572772 0.108772 0.493398
O O15 0.560263 0.051133 0.231328
O O16 0.613212 0.718032 0.047421
#
# Coordination Sequence:
#
# PCOD9366704 Si02
#       8
#     8   8   8   8   8   8   8   8
#     4   9  19  37  61 100 125 165 228 284 332 407
#     4  11  24  43  64  97 138 177 232 286 352 421
#     4  12  25  41  66  95 136 184 224 285 354 419
#     4  12  24  45  64  94 135 182 232 281 352 425
#     4  10  22  42  64  95 129 175 229 288 346 407
#     4   9  20  35  61  93 132 165 217 284 345 399
#     4  11  24  40  63  98 134 181 225 282 353 419
#     4  10  21  39  67  93 131 178 223 284 343 404
#
# _framework density 22.754208999999999
#
# number of rings (size 3 to 8) (size 9 to 14) (size 15 to 20)
#    0.000    1.500    2.500    2.625    7.000    1.000 
#    0.000    0.000    0.000    4.500    0.000    0.000 
#    0.000    0.000    0.000    0.000    0.000    0.000 
#
# Total GULP energy -178459.035680 kJ/mol
# GULP energy per Si atom -5576.844865 kJ/mol
# Density = 2.270242 g / cm^3
# Si number density = 22.754209 Si / 1000 Ang^3
#
#
#
# Elastic Constant Matrix: (Units=GPa)
#
#
# Indices 1 2 3 4 5 6 
#
# 1 107.7062 15.6960 40.4063 0.0000 0.0000 0.0000
# 2 15.6960 58.6050 12.7002 0.0000 0.0000 0.0000
# 3 40.4063 12.7002 96.9101 0.0000 0.0000 0.0000
# 4 0.0000 0.0000 0.0000 10.7484 0.0000 0.0000
# 5 0.0000 0.0000 0.0000 0.0000 31.9557 0.0000
# 6 0.0000 0.0000 0.0000 0.0000 0.0000 28.2077
#
#
#
# Elastic Compliance Matrix: (Units=1/GPa)
#
#
# Indices 1 2 3 4 5 6 
#
# 1 0.011241 -0.002053 -0.004418 0.000000 0.000000 0.000000
# 2 -0.002053 0.017937 -0.001495 0.000000 0.000000 0.000000
# 3 -0.004418 -0.001495 0.012357 0.000000 0.000000 0.000000
# 4 0.000000 0.000000 0.000000 0.093037 0.000000 0.000000
# 5 0.000000 0.000000 0.000000 0.000000 0.031293 0.000000
# 6 0.000000 0.000000 0.000000 0.000000 0.000000 0.035451
#
#
# Mechanical properties :
#
#
# Convention : Reuss Voigt Hill
#
# Bulk Modulus (GPa) = 39.05705 44.53627 41.79666
# Shear Modulus (GPa) = 22.14516 27.14359 24.64438
#
# Velocity S-wave (km/s) = 3.12305 3.45759 3.29457
# Velocity P-wave (km/s) = 5.49606 5.96282 5.73419
#
# Compressibility (1/GPa) = 0.02560357
#
# Stress axis : x y z
#
# Youngs Moduli (GPa) = 88.95915 55.75007 80.92764
#
# Poissons Ratio (x) = 0.11447 0.35753
# Poissons Ratio (y) = 0.18266 0.12095
# Poissons Ratio (z) = 0.39301 0.08332
#
# Static dielectric constant tensor:
#      x y z
#    x 1.878680 0.000000 0.000000 
#    y 0.000000 1.872720 0.000000 
#    z 0.000000 0.000000 1.908850 
# 
# From -- ./inp_files/2798.got.cif
#   From: 2010.05.17/outbox.cif.g08.bks.cpg/sg41_2_cif.got.tgz:2798.got - 2010.06.03 18:54:24.
