data_PCOD9366302
_publ_section_title
;
Structure prediction by ZEFSAII (Michael W. Deem and Ramdas Pophale) SiO2 
 PCOD9366302
Probable space group: A B A 2
;
_chemical_formula_sum "Si O2"
_cell_formula_units_Z 60
_cell_length_a 15.083601
_cell_length_b 18.456791
_cell_length_c 8.515987
_cell_angle_alpha 90.000000
_cell_angle_beta 90.000000
_cell_angle_gamma 90.000000
_cell_volume 2370.807104
_symmetry_space_group_name_H-M "A B A 2"
_symmetry_group_IT_number 41
_symmetry_cell_setting 'orthorhombic'
loop_
_space_group_symop_operation_xyz
x,y,z
-x,-y,z
1/2-x,y,1/2+z
1/2+x,-y,1/2+z
x,1/2+y,1/2+z
-x,1/2-y,1/2+z
1/2-x,1/2+y,z
1/2+x,1/2-y,z
loop_
_atom_site_type_symbol
_atom_site_label
_atom_site_fract_x
_atom_site_fract_y
_atom_site_fract_z
Si Si1 0.080864 0.629603 0.858760
Si Si2 0.000000 0.000000 0.158898
Si Si3 0.030657 0.605505 0.183694
Si Si4 0.167524 0.391435 0.253902
Si Si5 0.696057 0.327260 0.074993
Si Si6 0.934798 0.744117 0.839131
Si Si7 0.150776 0.024643 0.930498
Si Si8 0.185450 0.807027 0.072047
O O1 0.028750 0.570461 0.754696
O O2 0.161119 0.657879 0.750986
O O3 0.017336 0.697582 0.894057
O O4 0.087692 0.593065 0.028031
O O5 0.911076 0.015970 0.057797
O O6 0.034124 0.688183 0.238130
O O7 0.077220 0.561393 0.320609
O O8 0.926423 0.589297 0.174675
O O9 0.203935 0.465683 0.331033
O O10 0.155750 0.336572 0.402700
O O11 0.231396 0.355001 0.128746
O O12 0.781471 0.276516 0.067984
O O13 0.623455 0.279629 0.978291
O O14 0.702972 0.407229 0.000901
O O15 0.880799 0.693200 0.719027
#
# Coordination Sequence:
#
# PCOD9366302 Si02
#       8
#     8   4   8   8   8   8   8   8
#     4  11  23  39  71 107 133 181 238 294 349 433
#     4  10  20  38  66 104 136 170 224 290 358 406
#     4  11  25  41  77 102 137 184 245 303 356 420
#     4  12  25  47  70 104 147 186 246 295 368 436
#     4  10  24  47  65 104 143 186 237 291 364 433
#     4  11  23  41  67 101 136 186 234 291 359 418
#     4  10  22  47  72  98 137 190 229 301 359 421
#     4  12  26  44  70 103 146 193 234 301 361 446
#
# _framework density 25.307836999999999
#
# number of rings (size 3 to 8) (size 9 to 14) (size 15 to 20)
#    0.000    1.067    2.667    3.200    9.333    0.000 
#    4.800    0.000    0.000    0.000    0.000    0.000 
#    0.000    0.000    0.000    0.000    0.000    0.000 
#
# Total GULP energy -168107.505964 kJ/mol
# GULP energy per Si atom -5603.583532 kJ/mol
# Density = 2.525024 g / cm^3
# Si number density = 25.307837 Si / 1000 Ang^3
#
#
#
# Elastic Constant Matrix: (Units=GPa)
#
#
# Indices 1 2 3 4 5 6 
#
# 1 63.0610 19.3727 23.7443 0.0000 0.0000 0.0000
# 2 19.3727 100.6732 7.7718 0.0000 0.0000 0.0000
# 3 23.7443 7.7718 100.5587 0.0000 0.0000 0.0000
# 4 0.0000 0.0000 0.0000 36.0203 0.0000 0.0000
# 5 0.0000 0.0000 0.0000 0.0000 32.8158 0.0000
# 6 0.0000 0.0000 0.0000 0.0000 0.0000 32.9021
#
#
#
# Elastic Compliance Matrix: (Units=1/GPa)
#
#
# Indices 1 2 3 4 5 6 
#
# 1 0.018389 -0.003223 -0.004093 0.000000 0.000000 0.000000
# 2 -0.003223 0.010558 -0.000055 0.000000 0.000000 0.000000
# 3 -0.004093 -0.000055 0.010915 0.000000 0.000000 0.000000
# 4 0.000000 0.000000 0.000000 0.027762 0.000000 0.000000
# 5 0.000000 0.000000 0.000000 0.000000 0.030473 0.000000
# 6 0.000000 0.000000 0.000000 0.000000 0.000000 0.030393
#
#
# Mechanical properties :
#
#
# Convention : Reuss Voigt Hill
#
# Bulk Modulus (GPa) = 39.80853 40.67451 40.24152
# Shear Modulus (GPa) = 32.98057 34.57460 33.77758
#
# Velocity S-wave (km/s) = 3.61387 3.70017 3.65728
# Velocity P-wave (km/s) = 5.75997 5.86190 5.81116
#
# Compressibility (1/GPa) = 0.02512025
#
# Stress axis : x y z
#
# Youngs Moduli (GPa) = 54.38098 94.71933 91.61590
#
# Poissons Ratio (x) = 0.30524 0.37498
# Poissons Ratio (y) = 0.17525 0.00504
# Poissons Ratio (z) = 0.22258 0.00521
#
# Static dielectric constant tensor:
#      x y z
#    x 2.016640 0.000000 0.000000 
#    y 0.000000 1.980140 0.000000 
#    z 0.000000 0.000000 1.995340 
# 
# From -- ./inp_files/3150.got.cif
#   From: 2010.05.17/outbox.cif.g08.bks.cpg/sg41_2_cif.got.tgz:3150.got - 2010.06.03 18:54:24.
