data_PCOD9366347
_publ_section_title
;
Structure prediction by ZEFSAII (Michael W. Deem and Ramdas Pophale) SiO2 
 PCOD9366347
Probable space group: A B A 2
;
_chemical_formula_sum "Si O2"
_cell_formula_units_Z 52
_cell_length_a 25.034436
_cell_length_b 14.270273
_cell_length_c 5.544323
_cell_angle_alpha 90.000000
_cell_angle_beta 90.000000
_cell_angle_gamma 90.000000
_cell_volume 1980.699612
_symmetry_space_group_name_H-M "A B A 2"
_symmetry_group_IT_number 41
_symmetry_cell_setting 'orthorhombic'
loop_
_space_group_symop_operation_xyz
x,y,z
-x,-y,z
1/2-x,y,1/2+z
1/2+x,-y,1/2+z
x,1/2+y,1/2+z
-x,1/2-y,1/2+z
1/2-x,1/2+y,z
1/2+x,1/2-y,z
loop_
_atom_site_type_symbol
_atom_site_label
_atom_site_fract_x
_atom_site_fract_y
_atom_site_fract_z
Si Si1 0.377511 0.795120 0.272990
Si Si2 0.279430 0.094375 0.371287
Si Si3 0.568701 0.092698 0.907349
Si Si4 0.000000 0.500000 0.307920
Si Si5 0.889293 0.498753 0.514384
Si Si6 0.259038 0.799227 0.359196
Si Si7 0.983842 0.796531 0.203979
O O1 0.383171 0.891697 0.429407
O O2 0.319232 0.761356 0.336972
O O3 0.422835 0.715729 0.291930
O O4 0.387648 0.834060 0.002223
O O5 0.244769 0.067664 0.609752
O O6 0.278266 0.207974 0.365315
O O7 0.338536 0.055491 0.417721
O O8 0.602382 0.006673 0.802030
O O9 0.524505 0.115902 0.703986
O O10 0.529160 0.073115 0.128866
O O11 0.054324 0.542455 0.422224
O O12 0.252345 0.852142 0.610529
O O13 0.012015 0.743860 0.433972
#
# Coordination Sequence:
#
# PCOD9366347 Si02
#       7
#     8   8   8   4   8   8   8
#     4  10  23  40  67  95 131 175 227 286 350 409
#     4  10  25  47  70  99 137 187 239 292 354 423
#     4  10  22  41  64  99 136 181 228 288 356 424
#     4  10  24  42  66 106 136 186 234 292 362 434
#     4  11  23  44  69  99 142 185 237 291 357 429
#     4  10  24  45  65  97 132 171 234 286 350 408
#     4  10  20  39  64  96 133 166 217 274 346 412
#
# _framework density 26.253350000000001
#
# number of rings (size 3 to 8) (size 9 to 14) (size 15 to 20)
#    0.000    1.846    1.538    0.462    6.462    3.692 
#    8.308    0.000    0.000    0.000    0.000    0.000 
#    0.000    0.000    0.000    0.000    0.000    0.000 
#
# Total GULP energy -145014.027749 kJ/mol
# GULP energy per Si atom -5577.462606 kJ/mol
# Density = 2.619360 g / cm^3
# Si number density = 26.253350 Si / 1000 Ang^3
#
#
#
# Elastic Constant Matrix: (Units=GPa)
#
#
# Indices 1 2 3 4 5 6 
#
# 1 143.4282 15.5896 56.4058 0.0000 0.0000 0.0000
# 2 15.5896 78.4796 0.0301 0.0000 0.0000 0.0000
# 3 56.4058 0.0301 142.9025 0.0000 0.0000 0.0000
# 4 0.0000 0.0000 0.0000 16.8159 0.0000 0.0000
# 5 0.0000 0.0000 0.0000 0.0000 25.8957 0.0000
# 6 0.0000 0.0000 0.0000 0.0000 0.0000 23.9730
#
#
#
# Elastic Compliance Matrix: (Units=1/GPa)
#
#
# Indices 1 2 3 4 5 6 
#
# 1 0.008469 -0.001681 -0.003343 0.000000 0.000000 0.000000
# 2 -0.001681 0.013076 0.000661 0.000000 0.000000 0.000000
# 3 -0.003343 0.000661 0.008317 0.000000 0.000000 0.000000
# 4 0.000000 0.000000 0.000000 0.059468 0.000000 0.000000
# 5 0.000000 0.000000 0.000000 0.000000 0.038616 0.000000
# 6 0.000000 0.000000 0.000000 0.000000 0.000000 0.041714
#
#
# Mechanical properties :
#
#
# Convention : Reuss Voigt Hill
#
# Bulk Modulus (GPa) = 47.31180 56.54014 51.92597
# Shear Modulus (GPa) = 26.96418 32.85591 29.91005
#
# Velocity S-wave (km/s) = 3.20828 3.54148 3.37899
# Velocity P-wave (km/s) = 5.63777 6.18918 5.91990
#
# Compressibility (1/GPa) = 0.02113638
#
# Stress axis : x y z
#
# Youngs Moduli (GPa) = 118.07186 76.47677 120.23510
#
# Poissons Ratio (x) = 0.12857 0.40190
# Poissons Ratio (y) = 0.19849 -0.07945
# Poissons Ratio (z) = 0.39467 -0.05054
#
# Static dielectric constant tensor:
#      x y z
#    x 2.032780 0.000000 0.000000 
#    y 0.000000 2.264830 0.000000 
#    z 0.000000 0.000000 2.202250 
# 
# From -- ./inp_files/729.got.cif
#   From: 2010.05.17/outbox.cif.g08.bks.cpg/sg41_1_cif.got.tgz:729.got - 2010.06.03 18:54:24.
