data_PCOD9366684
_publ_section_title
;
Structure prediction by ZEFSAII (Michael W. Deem and Ramdas Pophale) SiO2 
 PCOD9366684
Probable space group: A B A 2
;
_chemical_formula_sum "Si O2"
_cell_formula_units_Z 48
_cell_length_a 8.914157
_cell_length_b 16.260196
_cell_length_c 17.542480
_cell_angle_alpha 90.000000
_cell_angle_beta 90.000000
_cell_angle_gamma 90.000000
_cell_volume 2542.711253
_symmetry_space_group_name_H-M "A B A 2"
_symmetry_group_IT_number 41
_symmetry_cell_setting 'orthorhombic'
loop_
_space_group_symop_operation_xyz
x,y,z
-x,-y,z
1/2-x,y,1/2+z
1/2+x,-y,1/2+z
x,1/2+y,1/2+z
-x,1/2-y,1/2+z
1/2-x,1/2+y,z
1/2+x,1/2-y,z
loop_
_atom_site_type_symbol
_atom_site_label
_atom_site_fract_x
_atom_site_fract_y
_atom_site_fract_z
Si Si1 0.755918 0.814703 0.864350
Si Si2 0.280235 0.826218 0.658023
Si Si3 0.015722 0.772833 0.758616
Si Si4 0.833796 0.530678 0.551864
Si Si5 0.395634 0.576718 0.480296
Si Si6 0.318806 0.816706 0.996297
O O1 0.898681 0.823006 0.809878
O O2 0.615591 0.784315 0.813979
O O3 0.708059 0.893884 0.911608
O O4 0.794578 0.744835 0.927351
O O5 0.415099 0.781402 0.701045
O O6 0.322070 0.917497 0.629864
O O7 0.232019 0.781654 0.578517
O O8 0.135574 0.825458 0.711787
O O9 0.713256 0.457601 0.546058
O O10 0.783216 0.600709 0.490709
O O11 0.000000 0.500000 0.538858
O O12 0.500000 0.500000 0.458409
O O13 0.510463 0.650140 0.500922
#
# Coordination Sequence:
#
# PCOD9366684 Si02
#       6
#     8   8   8   8   8   8
#     4  11  21  38  67  95 125 170 216 272 322 378
#     4   9  22  39  60  92 128 166 214 262 319 387
#     4  10  22  39  61  96 133 163 211 270 328 382
#     4   9  21  39  64  93 126 161 214 271 315 372
#     4  10  21  39  63  93 129 160 214 275 320 372
#     4   9  21  37  65  93 121 164 230 262 303 378
#
# _framework density 18.877486999999999
#
# number of rings (size 3 to 8) (size 9 to 14) (size 15 to 20)
#    1.000    1.333    1.667    0.000    4.667    1.333 
#    3.000    0.833    3.667    0.000    0.000    0.000 
#    0.000    0.000    0.000    0.000    0.000    0.000 
#
# Total GULP energy -133689.847480 kJ/mol
# GULP energy per Si atom -5570.410312 kJ/mol
# Density = 1.883452 g / cm^3
# Si number density = 18.877487 Si / 1000 Ang^3
#
#
#
# Elastic Constant Matrix: (Units=GPa)
#
#
# Indices 1 2 3 4 5 6 
#
# 1 109.6876 35.5070 15.6823 0.0000 0.0000 0.0000
# 2 35.5070 39.7321 15.6967 0.0000 0.0000 0.0000
# 3 15.6823 15.6967 56.1277 0.0000 0.0000 0.0000
# 4 0.0000 0.0000 0.0000 4.3115 0.0000 0.0000
# 5 0.0000 0.0000 0.0000 0.0000 23.2274 0.0000
# 6 0.0000 0.0000 0.0000 0.0000 0.0000 12.8183
#
#
#
# Elastic Compliance Matrix: (Units=1/GPa)
#
#
# Indices 1 2 3 4 5 6 
#
# 1 0.012837 -0.011304 -0.000425 0.000000 0.000000 0.000000
# 2 -0.011304 0.038248 -0.007538 0.000000 0.000000 0.000000
# 3 -0.000425 -0.007538 0.020044 0.000000 0.000000 0.000000
# 4 0.000000 0.000000 0.000000 0.231938 0.000000 0.000000
# 5 0.000000 0.000000 0.000000 0.000000 0.043053 0.000000
# 6 0.000000 0.000000 0.000000 0.000000 0.000000 0.078013
#
#
# Mechanical properties :
#
#
# Convention : Reuss Voigt Hill
#
# Bulk Modulus (GPa) = 30.68059 37.70215 34.19137
# Shear Modulus (GPa) = 10.55894 17.31553 13.93724
#
# Velocity S-wave (km/s) = 2.36760 3.03191 2.72011
# Velocity P-wave (km/s) = 4.87461 5.68085 5.29310
#
# Compressibility (1/GPa) = 0.03259390
#
# Stress axis : x y z
#
# Youngs Moduli (GPa) = 77.90145 26.14495 49.89138
#
# Poissons Ratio (x) = 0.29553 0.02123
# Poissons Ratio (y) = 0.88057 0.37609
# Poissons Ratio (z) = 0.03314 0.19709
#
# Static dielectric constant tensor:
#      x y z
#    x 1.660700 0.000000 0.000000 
#    y 0.000000 1.665910 0.000000 
#    z 0.000000 0.000000 1.657700 
# 
# From -- ./inp_files/11137.got.cif
#   From: 2010.05.17/outbox.cif.g08.bks.cpg/sg41_6_cif.got.tgz:11137.got - 2010.06.03 18:54:24.
