data_PCOD9366473
_publ_section_title
;
Structure prediction by ZEFSAII (Michael W. Deem and Ramdas Pophale) SiO2 
 PCOD9366473
Probable space group: A B A 2
;
_chemical_formula_sum "Si O2"
_cell_formula_units_Z 56
_cell_length_a 18.726220
_cell_length_b 9.833340
_cell_length_c 13.027191
_cell_angle_alpha 90.000000
_cell_angle_beta 90.000000
_cell_angle_gamma 90.000000
_cell_volume 2398.843732
_symmetry_space_group_name_H-M "A B A 2"
_symmetry_group_IT_number 41
_symmetry_cell_setting 'orthorhombic'
loop_
_space_group_symop_operation_xyz
x,y,z
-x,-y,z
1/2-x,y,1/2+z
1/2+x,-y,1/2+z
x,1/2+y,1/2+z
-x,1/2-y,1/2+z
1/2-x,1/2+y,z
1/2+x,1/2-y,z
loop_
_atom_site_type_symbol
_atom_site_label
_atom_site_fract_x
_atom_site_fract_y
_atom_site_fract_z
Si Si1 0.000000 0.500000 0.123070
Si Si2 0.289975 0.356461 0.722404
Si Si3 0.144791 0.972351 0.907394
Si Si4 0.198755 0.257608 0.558660
Si Si5 0.845242 0.214411 0.352671
Si Si6 0.000000 0.000000 0.035758
Si Si7 0.346968 0.989138 0.030791
Si Si8 0.549826 0.225522 0.685752
O O1 0.069269 0.501098 0.052475
O O2 0.008349 0.633395 0.191365
O O3 0.350160 0.369242 0.809995
O O4 0.265903 0.245438 0.636279
O O5 0.217363 0.358599 0.787766
O O6 0.311202 0.473460 0.642710
O O7 0.165191 0.122933 0.865851
O O8 0.068982 0.991537 0.963123
O O9 0.193517 0.897350 0.993832
O O10 0.125609 0.257632 0.625688
O O11 0.187524 0.126809 0.486547
O O12 0.841670 0.142793 0.461472
O O13 0.920951 0.184790 0.297242
O O14 0.003527 0.873596 0.114735
#
# Coordination Sequence:
#
# PCOD9366473 Si02
#       8
#     4   8   8   8   8   4   8   8
#     4  10  20  42  68  94 128 172 218 270 340 404
#     4  11  23  39  63  93 132 176 225 276 329 395
#     4  11  23  42  70 101 136 177 225 282 341 412
#     4   9  22  42  63  92 130 173 222 276 331 393
#     4  11  25  42  65  99 133 175 227 279 342 407
#     4  10  22  44  70 102 138 176 222 276 346 410
#     4  11  24  43  68  98 137 178 225 283 340 410
#     4   9  20  42  66  92 129 169 216 272 328 401
#
# _framework density 23.344581000000002
#
# number of rings (size 3 to 8) (size 9 to 14) (size 15 to 20)
#    0.000    1.714    0.000    4.286    0.000    9.714 
#    0.000    8.571    0.000    0.000    0.000    0.000 
#    0.000    0.000    0.000    0.000    0.000    0.000 
#
# Total GULP energy -156022.519866 kJ/mol
# GULP energy per Si atom -5572.232852 kJ/mol
# Density = 2.329145 g / cm^3
# Si number density = 23.344581 Si / 1000 Ang^3
#
#
#
# Elastic Constant Matrix: (Units=GPa)
#
#
# Indices 1 2 3 4 5 6 
#
# 1 104.8796 47.9292 48.2860 0.0000 0.0000 0.0000
# 2 47.9292 102.3143 46.0553 0.0000 0.0000 0.0000
# 3 48.2860 46.0553 129.4916 0.0000 0.0000 0.0000
# 4 0.0000 0.0000 0.0000 -1.6571 0.0000 0.0000
# 5 0.0000 0.0000 0.0000 0.0000 40.5316 0.0000
# 6 0.0000 0.0000 0.0000 0.0000 0.0000 29.5561
#
#
#
# Elastic Compliance Matrix: (Units=1/GPa)
#
#
# Indices 1 2 3 4 5 6 
#
# 1 0.013181 -0.004717 -0.003237 0.000000 0.000000 0.000000
# 2 -0.004717 0.013325 -0.002980 0.000000 0.000000 0.000000
# 3 -0.003237 -0.002980 0.009990 0.000000 0.000000 0.000000
# 4 0.000000 0.000000 0.000000 -0.603469 0.000000 0.000000
# 5 0.000000 0.000000 0.000000 0.000000 0.024672 0.000000
# 6 0.000000 0.000000 0.000000 0.000000 0.000000 0.033834
#
#
# Mechanical properties :
#
#
# Convention : Reuss Voigt Hill
#
# Bulk Modulus (GPa) = 68.37127 69.02517 68.69822
# Shear Modulus (GPa) = -10.37942 26.64711 8.13384
#
# Velocity S-wave (km/s) = -2.11088 3.38223 1.86864
# Velocity P-wave (km/s) = 4.83842 6.69961 5.84359
#
# Compressibility (1/GPa) = 0.01462603
#
# Stress axis : x y z
#
# Youngs Moduli (GPa) = 75.86683 75.04581 100.10440
#
# Poissons Ratio (x) = 0.35403 0.32406
# Poissons Ratio (y) = 0.35790 0.29833
# Poissons Ratio (z) = 0.24560 0.22365
#
# Static dielectric constant tensor:
#      x y z
#    x 1.921120 0.000000 0.000000 
#    y 0.000000 1.923870 0.000000 
#    z 0.000000 0.000000 1.877740 
# 
# From -- ./inp_files/9044.got.cif
#   From: 2010.05.17/outbox.cif.g08.bks.cpg/sg41_5_cif.got.tgz:9044.got - 2010.06.03 18:54:24.
