data_PCOD9366006
_publ_section_title
;
Structure prediction by ZEFSAII (Michael W. Deem and Ramdas Pophale) SiO2 
 PCOD9366006
Probable space group: A B A 2
;
_chemical_formula_sum "Si O2"
_cell_formula_units_Z 56
_cell_length_a 8.008458
_cell_length_b 15.038237
_cell_length_c 19.640524
_cell_angle_alpha 90.000000
_cell_angle_beta 90.000000
_cell_angle_gamma 90.000000
_cell_volume 2365.368983
_symmetry_space_group_name_H-M "A B A 2"
_symmetry_group_IT_number 41
_symmetry_cell_setting 'orthorhombic'
loop_
_space_group_symop_operation_xyz
x,y,z
-x,-y,z
1/2-x,y,1/2+z
1/2+x,-y,1/2+z
x,1/2+y,1/2+z
-x,1/2-y,1/2+z
1/2-x,1/2+y,z
1/2+x,1/2-y,z
loop_
_atom_site_type_symbol
_atom_site_label
_atom_site_fract_x
_atom_site_fract_y
_atom_site_fract_z
Si Si1 0.013378 0.303996 0.664390
Si Si2 0.334003 0.115095 0.463594
Si Si3 0.159300 0.788636 0.016832
Si Si4 0.815878 0.038222 0.552499
Si Si5 0.681592 0.469639 0.189881
Si Si6 0.804293 0.197560 0.761832
Si Si7 0.868327 0.879894 0.810034
O O1 0.097910 0.277600 0.594485
O O2 0.138968 0.336488 0.724355
O O3 0.869697 0.376760 0.652928
O O4 0.923982 0.221016 0.698552
O O5 0.512794 0.159777 0.477886
O O6 0.210379 0.196331 0.483253
O O7 0.321910 0.088452 0.384929
O O8 0.298356 0.029167 0.509175
O O9 0.305565 0.862133 0.023712
O O10 0.751045 0.031925 0.630230
O O11 0.000000 0.000000 0.550105
O O12 0.500000 0.500000 0.215525
O O13 0.807783 0.445689 0.250191
O O14 0.737572 0.287946 0.797618
O O15 0.932580 0.140918 0.806787
#
# Coordination Sequence:
#
# PCOD9366006 Si02
#       7
#     8   8   8   8   8   8   8
#     4  10  19  36  64  95 130 167 227 280 344 389
#     4  12  25  45  70 105 141 192 230 282 360 420
#     4  12  24  43  73 100 142 181 231 292 345 417
#     4  12  27  46  70 104 139 180 243 297 351 416
#     4  11  22  43  64  94 136 177 226 295 351 400
#     4   9  20  37  62  97 132 171 223 281 330 413
#     4  10  23  40  66  97 140 181 228 278 346 426
#
# _framework density 23.674952000000001
#
# number of rings (size 3 to 8) (size 9 to 14) (size 15 to 20)
#    0.000    1.143    2.857    3.000    6.000    0.571 
#    0.000    8.571    0.000    0.000    0.000    0.000 
#    0.000    0.000    0.000    0.000    0.000    0.000 
#
# Total GULP energy -156625.997203 kJ/mol
# GULP energy per Si atom -5593.785614 kJ/mol
# Density = 2.362107 g / cm^3
# Si number density = 23.674952 Si / 1000 Ang^3
#
#
#
# Elastic Constant Matrix: (Units=GPa)
#
#
# Indices 1 2 3 4 5 6 
#
# 1 84.0776 4.1764 9.7099 0.0000 0.0000 0.0000
# 2 4.1764 72.4222 22.0924 0.0000 0.0000 0.0000
# 3 9.7099 22.0924 115.6758 0.0000 0.0000 0.0000
# 4 0.0000 0.0000 0.0000 12.0172 0.0000 0.0000
# 5 0.0000 0.0000 0.0000 0.0000 25.8850 0.0000
# 6 0.0000 0.0000 0.0000 0.0000 0.0000 42.4584
#
#
#
# Elastic Compliance Matrix: (Units=1/GPa)
#
#
# Indices 1 2 3 4 5 6 
#
# 1 0.012022 -0.000409 -0.000931 0.000000 0.000000 0.000000
# 2 -0.000409 0.014676 -0.002769 0.000000 0.000000 0.000000
# 3 -0.000931 -0.002769 0.009252 0.000000 0.000000 0.000000
# 4 0.000000 0.000000 0.000000 0.083214 0.000000 0.000000
# 5 0.000000 0.000000 0.000000 0.000000 0.038632 0.000000
# 6 0.000000 0.000000 0.000000 0.000000 0.000000 0.023552
#
#
# Mechanical properties :
#
#
# Convention : Reuss Voigt Hill
#
# Bulk Modulus (GPa) = 36.05958 38.23701 37.14830
# Shear Modulus (GPa) = 25.14965 31.81857 28.48411
#
# Velocity S-wave (km/s) = 3.26281 3.67001 3.47238
# Velocity P-wave (km/s) = 5.42759 5.84333 5.63929
#
# Compressibility (1/GPa) = 0.02773188
#
# Stress axis : x y z
#
# Youngs Moduli (GPa) = 83.18353 68.13814 108.08767
#
# Poissons Ratio (x) = 0.02789 0.10062
# Poissons Ratio (y) = 0.03405 0.29925
# Poissons Ratio (z) = 0.07744 0.18864
#
# Static dielectric constant tensor:
#      x y z
#    x 1.941670 0.000000 0.000000 
#    y 0.000000 1.942610 0.000000 
#    z 0.000000 0.000000 1.880290 
# 
# From -- ./inp_files/11206.got.cif
#   From: 2010.05.17/outbox.cif.g08.bks.cpg/sg41_6_cif.got.tgz:11206.got - 2010.06.03 18:54:24.
