data_PCOD9366978
_publ_section_title
;
Structure prediction by ZEFSAII (Michael W. Deem and Ramdas Pophale) SiO2 
 PCOD9366978
Probable space group: A B A 2
;
_chemical_formula_sum "Si O2"
_cell_formula_units_Z 36
_cell_length_a 13.677461
_cell_length_b 23.391278
_cell_length_c 5.070007
_cell_angle_alpha 90.000000
_cell_angle_beta 90.000000
_cell_angle_gamma 90.000000
_cell_volume 1622.064033
_symmetry_space_group_name_H-M "A B A 2"
_symmetry_group_IT_number 41
_symmetry_cell_setting 'orthorhombic'
loop_
_space_group_symop_operation_xyz
x,y,z
-x,-y,z
1/2-x,y,1/2+z
1/2+x,-y,1/2+z
x,1/2+y,1/2+z
-x,1/2-y,1/2+z
1/2-x,1/2+y,z
1/2+x,1/2-y,z
loop_
_atom_site_type_symbol
_atom_site_label
_atom_site_fract_x
_atom_site_fract_y
_atom_site_fract_z
Si Si1 0.433652 0.238003 0.383210
Si Si2 0.503449 0.375077 0.010975
Si Si3 0.000000 0.000000 0.158177
Si Si4 0.196858 0.972434 0.462324
Si Si5 0.122774 0.351559 0.012552
O O1 0.520456 0.253457 0.593837
O O2 0.413404 0.171289 0.439358
O O3 0.352262 0.285967 0.444972
O O4 0.518006 0.442635 0.990399
O O5 0.417494 0.358504 0.807053
O O6 0.466264 0.364518 0.308140
O O7 0.905839 0.008857 0.343098
O O8 0.220634 0.991676 0.756065
O O9 0.196041 0.903118 0.461678
#
# Coordination Sequence:
#
# PCOD9366978 Si02
#       5
#     8   8   4   8   8
#     4   8  14  26  46  73 101 131 173 220 267 322
#     4   9  17  29  51  78 104 142 181 218 272 330
#     4  10  22  38  58  82 118 154 192 236 284 344
#     4  11  23  37  56  82 111 149 194 239 288 344
#     4   9  17  31  50  75 105 134 178 231 275 326
#
# _framework density 22.193946
#
# number of rings (size 3 to 8) (size 9 to 14) (size 15 to 20)
#    0.000    2.667    0.000    2.667    0.000    8.000 
#    0.000    0.000    0.000    2.667    0.000    0.000 
#    0.000    0.000    0.000    0.000    0.000    0.000 
#
# Total GULP energy -100330.107746 kJ/mol
# GULP energy per Si atom -5573.894875 kJ/mol
# Density = 2.214343 g / cm^3
# Si number density = 22.193946 Si / 1000 Ang^3
#
#
#
# Elastic Constant Matrix: (Units=GPa)
#
#
# Indices 1 2 3 4 5 6 
#
# 1 36.6425 8.3421 8.9331 0.0000 0.0000 0.0000
# 2 8.3421 147.8049 15.5528 0.0000 0.0000 0.0000
# 3 8.9331 15.5528 95.1576 0.0000 0.0000 0.0000
# 4 0.0000 0.0000 0.0000 28.8761 0.0000 0.0000
# 5 0.0000 0.0000 0.0000 0.0000 18.3605 0.0000
# 6 0.0000 0.0000 0.0000 0.0000 0.0000 22.8569
#
#
#
# Elastic Compliance Matrix: (Units=1/GPa)
#
#
# Indices 1 2 3 4 5 6 
#
# 1 0.028187 -0.001335 -0.002428 0.000000 0.000000 0.000000
# 2 -0.001335 0.006947 -0.001010 0.000000 0.000000 0.000000
# 3 -0.002428 -0.001010 0.010902 0.000000 0.000000 0.000000
# 4 0.000000 0.000000 0.000000 0.034631 0.000000 0.000000
# 5 0.000000 0.000000 0.000000 0.000000 0.054465 0.000000
# 6 0.000000 0.000000 0.000000 0.000000 0.000000 0.043750
#
#
# Mechanical properties :
#
#
# Convention : Reuss Voigt Hill
#
# Bulk Modulus (GPa) = 27.40538 38.36233 32.88385
# Shear Modulus (GPa) = 24.92628 30.47051 27.69839
#
# Velocity S-wave (km/s) = 3.35492 3.70931 3.53656
# Velocity P-wave (km/s) = 5.23281 5.97226 5.61472
#
# Compressibility (1/GPa) = 0.03648919
#
# Stress axis : x y z
#
# Youngs Moduli (GPa) = 35.47786 143.94015 91.72718
#
# Poissons Ratio (x) = 0.19221 0.22270
# Poissons Ratio (y) = 0.04738 0.09266
# Poissons Ratio (z) = 0.08613 0.14540
#
# Static dielectric constant tensor:
#      x y z
#    x 1.852100 0.000000 0.000000 
#    y 0.000000 1.949170 0.000000 
#    z 0.000000 0.000000 1.797870 
# 
# From -- ./inp_files/116.got.cif
#   From: 2010.05.17/outbox.cif.g08.bks.cpg/sg41_1_cif.got.tgz:116.got - 2010.06.03 18:54:24.
