data_PCOD9366617
_publ_section_title
;
Structure prediction by ZEFSAII (Michael W. Deem and Ramdas Pophale) SiO2 
 PCOD9366617
Probable space group: A B A 2
;
_chemical_formula_sum "Si O2"
_cell_formula_units_Z 60
_cell_length_a 5.283493
_cell_length_b 30.251307
_cell_length_c 15.651431
_cell_angle_alpha 90.000000
_cell_angle_beta 90.000000
_cell_angle_gamma 90.000000
_cell_volume 2501.608422
_symmetry_space_group_name_H-M "A B A 2"
_symmetry_group_IT_number 41
_symmetry_cell_setting 'orthorhombic'
loop_
_space_group_symop_operation_xyz
x,y,z
-x,-y,z
1/2-x,y,1/2+z
1/2+x,-y,1/2+z
x,1/2+y,1/2+z
-x,1/2-y,1/2+z
1/2-x,1/2+y,z
1/2+x,1/2-y,z
loop_
_atom_site_type_symbol
_atom_site_label
_atom_site_fract_x
_atom_site_fract_y
_atom_site_fract_z
Si Si1 0.041971 0.860425 0.508590
Si Si2 0.816488 0.919752 0.634312
Si Si3 0.420626 0.263072 0.293204
Si Si4 0.451034 0.727268 0.602833
Si Si5 0.904997 0.858785 0.254972
Si Si6 0.500000 0.500000 0.199123
Si Si7 0.460174 0.630871 0.900211
Si Si8 0.185767 0.932969 0.793151
O O1 0.039710 0.821163 0.577165
O O2 0.288131 0.854497 0.449600
O O3 0.996874 0.907552 0.555585
O O4 0.784111 0.858023 0.455153
O O5 0.648149 0.876550 0.659560
O O6 0.003177 0.923973 0.713812
O O7 0.634453 0.962424 0.640856
O O8 0.169150 0.251472 0.342847
O O9 0.429527 0.234336 0.205470
O O10 0.444257 0.313553 0.264484
O O11 0.171611 0.739829 0.571377
O O12 0.643414 0.852161 0.308120
O O13 0.077743 0.898353 0.293610
O O14 0.299729 0.479334 0.265540
O O15 0.526097 0.579370 0.877187
#
# Coordination Sequence:
#
# PCOD9366617 Si02
#       8
#     8   8   8   8   8   4   8   8
#     4  12  25  43  70 102 147 187 236 287 364 431
#     4  10  23  39  74 103 138 180 230 296 354 421
#     4  10  22  35  61  96 131 166 234 297 338 391
#     4  10  21  38  61  94 133 179 234 287 343 401
#     4  10  22  43  70  98 132 187 246 292 345 423
#     4  10  22  44  70 112 140 170 240 298 352 418
#     4  11  25  45  68  98 139 192 235 284 353 436
#     4  10  22  44  75 100 137 185 236 285 351 427
#
# _framework density 23.984566000000001
#
# number of rings (size 3 to 8) (size 9 to 14) (size 15 to 20)
#    0.000    1.600    1.333    2.800   11.200    0.000 
#    0.000    5.333    0.000    0.000    0.000    0.000 
#    0.000    0.000    0.000    0.000    0.000    0.000 
#
# Total GULP energy -167358.050188 kJ/mol
# GULP energy per Si atom -5578.601673 kJ/mol
# Density = 2.392998 g / cm^3
# Si number density = 23.984566 Si / 1000 Ang^3
#
#
#
# Elastic Constant Matrix: (Units=GPa)
#
#
# Indices 1 2 3 4 5 6 
#
# 1 156.6279 18.8158 13.3558 0.0000 0.0000 0.0000
# 2 18.8158 90.7979 20.3158 0.0000 0.0000 0.0000
# 3 13.3558 20.3158 45.5320 0.0000 0.0000 0.0000
# 4 0.0000 0.0000 0.0000 16.6097 0.0000 0.0000
# 5 0.0000 0.0000 0.0000 0.0000 29.4730 0.0000
# 6 0.0000 0.0000 0.0000 0.0000 0.0000 33.5313
#
#
#
# Elastic Compliance Matrix: (Units=1/GPa)
#
#
# Indices 1 2 3 4 5 6 
#
# 1 0.006636 -0.001044 -0.001481 0.000000 0.000000 0.000000
# 2 -0.001044 0.012399 -0.005226 0.000000 0.000000 0.000000
# 3 -0.001481 -0.005226 0.024729 0.000000 0.000000 0.000000
# 4 0.000000 0.000000 0.000000 0.060206 0.000000 0.000000
# 5 0.000000 0.000000 0.000000 0.000000 0.033929 0.000000
# 6 0.000000 0.000000 0.000000 0.000000 0.000000 0.029823
#
#
# Mechanical properties :
#
#
# Convention : Reuss Voigt Hill
#
# Bulk Modulus (GPa) = 35.38261 44.21473 39.79867
# Shear Modulus (GPa) = 25.95453 31.95417 28.95435
#
# Velocity S-wave (km/s) = 3.29315 3.65400 3.47826
# Velocity P-wave (km/s) = 5.40778 6.02304 5.72368
#
# Compressibility (1/GPa) = 0.02826247
#
# Stress axis : x y z
#
# Youngs Moduli (GPa) = 150.68794 80.65089 40.43869
#
# Poissons Ratio (x) = 0.08419 0.05988
# Poissons Ratio (y) = 0.15730 0.21134
# Poissons Ratio (z) = 0.22314 0.42149
#
# Static dielectric constant tensor:
#      x y z
#    x 2.079800 0.000000 0.000000 
#    y 0.000000 1.978850 0.000000 
#    z 0.000000 0.000000 1.968360 
# 
# From -- ./inp_files/9474.got.cif
#   From: 2010.05.17/outbox.cif.g08.bks.cpg/sg41_5_cif.got.tgz:9474.got - 2010.06.03 18:54:24.
