data_PCOD9366772
_publ_section_title
;
Structure prediction by ZEFSAII (Michael W. Deem and Ramdas Pophale) SiO2 
 PCOD9366772
Probable space group: A B A 2
;
_chemical_formula_sum "Si O2"
_cell_formula_units_Z 48
_cell_length_a 9.711274
_cell_length_b 14.322711
_cell_length_c 16.403476
_cell_angle_alpha 90.000000
_cell_angle_beta 90.000000
_cell_angle_gamma 90.000000
_cell_volume 2281.588526
_symmetry_space_group_name_H-M "A B A 2"
_symmetry_group_IT_number 41
_symmetry_cell_setting 'orthorhombic'
loop_
_space_group_symop_operation_xyz
x,y,z
-x,-y,z
1/2-x,y,1/2+z
1/2+x,-y,1/2+z
x,1/2+y,1/2+z
-x,1/2-y,1/2+z
1/2-x,1/2+y,z
1/2+x,1/2-y,z
loop_
_atom_site_type_symbol
_atom_site_label
_atom_site_fract_x
_atom_site_fract_y
_atom_site_fract_z
Si Si1 0.224521 0.325549 0.403340
Si Si2 0.049544 0.248605 0.669040
Si Si3 0.128200 0.560590 0.255570
Si Si4 0.396548 0.649290 0.913037
Si Si5 0.798355 0.254836 0.560580
Si Si6 0.870946 0.062147 0.261864
O O1 0.284982 0.224254 0.379811
O O2 0.288408 0.329897 0.494992
O O3 0.290917 0.394001 0.338433
O O4 0.058809 0.326868 0.404082
O O5 0.094042 0.165428 0.728441
O O6 0.143527 0.231795 0.589658
O O7 0.081610 0.350310 0.706533
O O8 0.892937 0.239314 0.639037
O O9 0.130268 0.562343 0.354731
O O10 0.264500 0.511512 0.222126
O O11 0.000000 0.500000 0.227735
O O12 0.359952 0.657772 0.008910
O O13 0.000000 0.000000 0.287638
#
# Coordination Sequence:
#
# PCOD9366772 Si02
#       6
#     8   8   8   8   8   8
#     4  10  21  43  67  97 126 174 230 266 332 391
#     4  12  23  44  67  95 143 169 217 283 337 406
#     4  12  25  42  69  98 131 179 227 275 334 399
#     4  10  21  42  68  96 126 174 229 266 335 390
#     4  10  21  40  74  90 130 186 205 276 353 381
#     4  12  27  42  67 102 134 180 229 272 335 403
#
# _framework density 21.037973000000001
#
# number of rings (size 3 to 8) (size 9 to 14) (size 15 to 20)
#    1.000    0.000    5.000    2.000    2.333    0.000 
#    0.000   10.000    0.000    0.000    0.000    0.000 
#    0.000    0.000    0.000    0.000    0.000    0.000 
#
# Total GULP energy -133639.084489 kJ/mol
# GULP energy per Si atom -5568.295187 kJ/mol
# Density = 2.099009 g / cm^3
# Si number density = 21.037973 Si / 1000 Ang^3
#
#
#
# Elastic Constant Matrix: (Units=GPa)
#
#
# Indices 1 2 3 4 5 6 
#
# 1 73.5474 6.9943 -14.3486 0.0000 0.0000 0.0000
# 2 6.9943 56.3780 1.8694 0.0000 0.0000 0.0000
# 3 -14.3486 1.8694 49.4606 0.0000 0.0000 0.0000
# 4 0.0000 0.0000 0.0000 4.9728 0.0000 0.0000
# 5 0.0000 0.0000 0.0000 0.0000 17.6534 0.0000
# 6 0.0000 0.0000 0.0000 0.0000 0.0000 32.1748
#
#
#
# Elastic Compliance Matrix: (Units=1/GPa)
#
#
# Indices 1 2 3 4 5 6 
#
# 1 0.014625 -0.001958 0.004317 0.000000 0.000000 0.000000
# 2 -0.001958 0.018022 -0.001249 0.000000 0.000000 0.000000
# 3 0.004317 -0.001249 0.021518 0.000000 0.000000 0.000000
# 4 0.000000 0.000000 0.000000 0.201093 0.000000 0.000000
# 5 0.000000 0.000000 0.000000 0.000000 0.056646 0.000000
# 6 0.000000 0.000000 0.000000 0.000000 0.000000 0.031080
#
#
# Mechanical properties :
#
#
# Convention : Reuss Voigt Hill
#
# Bulk Modulus (GPa) = 17.73534 18.71292 18.22413
# Shear Modulus (GPa) = 13.90596 23.28494 18.59545
#
# Velocity S-wave (km/s) = 2.57377 3.33048 2.97627
# Velocity P-wave (km/s) = 4.15702 4.86863 4.52683
#
# Compressibility (1/GPa) = 0.05638461
#
# Stress axis : x y z
#
# Youngs Moduli (GPa) = 68.37613 55.48868 46.47354
#
# Poissons Ratio (x) = 0.10862 -0.20061
# Poissons Ratio (y) = 0.13385 0.05805
# Poissons Ratio (z) = -0.29516 0.06931
#
# Static dielectric constant tensor:
#      x y z
#    x 1.725060 0.000000 0.000000 
#    y 0.000000 1.776280 0.000000 
#    z 0.000000 0.000000 1.850970 
# 
# From -- ./inp_files/9670.got.cif
#   From: 2010.05.17/outbox.cif.g08.bks.cpg/sg41_5_cif.got.tgz:9670.got - 2010.06.03 18:54:24.
