data_PCOD9366003
_publ_section_title
;
Structure prediction by ZEFSAII (Michael W. Deem and Ramdas Pophale) SiO2 
 PCOD9366003
Probable space group: A B A 2
;
_chemical_formula_sum "Si O2"
_cell_formula_units_Z 52
_cell_length_a 9.871151
_cell_length_b 13.932470
_cell_length_c 18.285745
_cell_angle_alpha 90.000000
_cell_angle_beta 90.000000
_cell_angle_gamma 90.000000
_cell_volume 2514.829644
_symmetry_space_group_name_H-M "A B A 2"
_symmetry_group_IT_number 41
_symmetry_cell_setting 'orthorhombic'
loop_
_space_group_symop_operation_xyz
x,y,z
-x,-y,z
1/2-x,y,1/2+z
1/2+x,-y,1/2+z
x,1/2+y,1/2+z
-x,1/2-y,1/2+z
1/2-x,1/2+y,z
1/2+x,1/2-y,z
loop_
_atom_site_type_symbol
_atom_site_label
_atom_site_fract_x
_atom_site_fract_y
_atom_site_fract_z
Si Si1 0.500000 0.000000 0.252520
Si Si2 0.500000 0.500000 0.413316
Si Si3 0.897180 0.636569 0.796810
Si Si4 0.841330 0.713445 0.089668
Si Si5 0.108114 0.152239 0.526860
Si Si6 0.716243 0.999402 0.130137
Si Si7 0.000000 0.500000 0.670976
Si Si8 0.897980 0.704850 0.264327
O O1 0.356717 0.998826 0.208510
O O2 0.484249 0.892023 0.283000
O O3 0.600690 0.559262 0.361173
O O4 0.417764 0.581798 0.458093
O O5 0.929733 0.579397 0.721976
O O6 0.755050 0.690171 0.791025
O O7 0.021892 0.709554 0.802575
O O8 0.734503 0.780200 0.047491
O O9 0.786674 0.603737 0.093360
O O10 0.882792 0.727795 0.176158
O O11 0.975716 0.714468 0.041326
O O12 0.117707 0.073116 0.590048
O O13 0.870016 0.961385 0.128165
#
# Coordination Sequence:
#
# PCOD9366003 Si02
#       8
#     4   4   8   8   8   8   4   8
#     4  10  19  36  63  97 138 161 192 258 344 384
#     4  11  27  48  62  84 130 190 214 274 318 385
#     4  11  25  40  64  90 133 172 221 258 322 389
#     4  11  22  37  70 102 124 165 207 279 335 386
#     4  12  23  44  65  94 135 170 219 262 331 389
#     4  11  20  38  63  98 141 163 201 272 336 384
#     4  11  22  36  61 105 132 167 206 266 336 389
#     4  11  22  40  65 104 128 161 212 271 334 385
#
# _framework density 20.677344999999999
#
# number of rings (size 3 to 8) (size 9 to 14) (size 15 to 20)
#    0.000    0.923    7.692    1.846    4.308    1.231 
#    0.000    0.000    0.000    2.769    0.000    0.000 
#    0.000    0.000    0.000    0.000    0.000    0.000 
#
# Total GULP energy -144803.768580 kJ/mol
# GULP energy per Si atom -5569.375715 kJ/mol
# Density = 2.063028 g / cm^3
# Si number density = 20.677345 Si / 1000 Ang^3
#
#
#
# Elastic Constant Matrix: (Units=GPa)
#
#
# Indices 1 2 3 4 5 6 
#
# 1 154.4293 59.1219 23.4302 0.0000 0.0000 0.0000
# 2 59.1219 97.8864 26.7931 0.0000 0.0000 0.0000
# 3 23.4302 26.7931 34.9641 0.0000 0.0000 0.0000
# 4 0.0000 0.0000 0.0000 18.1216 0.0000 0.0000
# 5 0.0000 0.0000 0.0000 0.0000 -8.7177 0.0000
# 6 0.0000 0.0000 0.0000 0.0000 0.0000 37.6933
#
#
#
# Elastic Compliance Matrix: (Units=1/GPa)
#
#
# Indices 1 2 3 4 5 6 
#
# 1 0.008560 -0.004556 -0.002245 0.000000 0.000000 0.000000
# 2 -0.004556 0.015352 -0.008711 0.000000 0.000000 0.000000
# 3 -0.002245 -0.008711 0.036781 0.000000 0.000000 0.000000
# 4 0.000000 0.000000 0.000000 0.055183 0.000000 0.000000
# 5 0.000000 0.000000 0.000000 0.000000 -0.114709 0.000000
# 6 0.000000 0.000000 0.000000 0.000000 0.000000 0.026530
#
#
# Mechanical properties :
#
#
# Convention : Reuss Voigt Hill
#
# Bulk Modulus (GPa) = 33.70603 56.21892 44.96247
# Shear Modulus (GPa) = 72.87450 21.28174 47.07812
#
# Velocity S-wave (km/s) = 5.94308 3.21164 4.77676
# Velocity P-wave (km/s) = 7.96429 6.40317 7.22601
#
# Compressibility (1/GPa) = 0.02966828
#
# Stress axis : x y z
#
# Youngs Moduli (GPa) = 116.81946 65.13853 27.18801
#
# Poissons Ratio (x) = 0.29675 0.06105
# Poissons Ratio (y) = 0.53219 0.23684
# Poissons Ratio (z) = 0.26231 0.56744
#
# Static dielectric constant tensor:
#      x y z
#    x 1.783410 0.000000 0.000000 
#    y 0.000000 1.813660 0.000000 
#    z 0.000000 0.000000 1.808940 
# 
# From -- ./inp_files/11183.got.cif
#   From: 2010.05.17/outbox.cif.g08.bks.cpg/sg41_6_cif.got.tgz:11183.got - 2010.06.03 18:54:24.
