data_PCOD9366061
_publ_section_title
;
Structure prediction by ZEFSAII (Michael W. Deem and Ramdas Pophale) SiO2 
 PCOD9366061
Probable space group: A B A 2
;
_chemical_formula_sum "Si O2"
_cell_formula_units_Z 52
_cell_length_a 26.277636
_cell_length_b 18.090662
_cell_length_c 5.200298
_cell_angle_alpha 90.000000
_cell_angle_beta 90.000000
_cell_angle_gamma 90.000000
_cell_volume 2472.116785
_symmetry_space_group_name_H-M "A B A 2"
_symmetry_group_IT_number 41
_symmetry_cell_setting 'orthorhombic'
loop_
_space_group_symop_operation_xyz
x,y,z
-x,-y,z
1/2-x,y,1/2+z
1/2+x,-y,1/2+z
x,1/2+y,1/2+z
-x,1/2-y,1/2+z
1/2-x,1/2+y,z
1/2+x,1/2-y,z
loop_
_atom_site_type_symbol
_atom_site_label
_atom_site_fract_x
_atom_site_fract_y
_atom_site_fract_z
Si Si1 0.550605 0.621937 0.265780
Si Si2 0.916043 0.750320 0.476416
Si Si3 0.599092 0.003498 0.394308
Si Si4 0.613592 0.335018 0.989199
Si Si5 0.640351 0.638002 0.663016
Si Si6 0.000000 0.500000 0.037775
Si Si7 0.216682 0.752887 0.472812
O O1 0.588859 0.647965 0.491594
O O2 0.503586 0.576197 0.377964
O O3 0.541911 0.690654 0.073580
O O4 0.580906 0.556969 0.121181
O O5 0.905385 0.802830 0.717020
O O6 0.869822 0.693098 0.404697
O O7 0.919058 0.800136 0.222704
O O8 0.640983 0.053099 0.247673
O O9 0.613490 0.922999 0.486490
O O10 0.550128 0.996928 0.210198
O O11 0.671077 0.305068 0.015551
O O12 0.688450 0.668293 0.511831
O O13 0.258220 0.745012 0.695826
#
# Coordination Sequence:
#
# PCOD9366061 Si02
#       7
#     8   8   8   8   8   4   8
#     4  10  19  40  68  90 125 172 216 263 313 401
#     4  10  19  38  66  89 125 167 220 247 315 403
#     4  10  23  39  69  93 133 168 217 267 330 399
#     4  11  23  40  66  98 127 174 207 266 343 379
#     4   9  20  39  65  93 122 176 212 256 317 390
#     4  10  22  40  66  96 124 166 226 268 326 372
#     4  11  22  39  65  96 128 168 222 267 313 391
#
# _framework density 21.034603000000001
#
# number of rings (size 3 to 8) (size 9 to 14) (size 15 to 20)
#    0.000    1.846    3.077    2.308    6.462    0.000 
#    0.000    1.538   13.538    0.000    0.000    0.000 
#    0.000    0.000    0.000    0.000    0.000    0.000 
#
# Total GULP energy -145127.652335 kJ/mol
# GULP energy per Si atom -5581.832782 kJ/mol
# Density = 2.098673 g / cm^3
# Si number density = 21.034603 Si / 1000 Ang^3
#
#
#
# Elastic Constant Matrix: (Units=GPa)
#
#
# Indices 1 2 3 4 5 6 
#
# 1 53.7038 28.5783 10.8673 0.0000 0.0000 0.0000
# 2 28.5783 169.3909 41.9831 0.0000 0.0000 0.0000
# 3 10.8673 41.9831 102.3543 0.0000 0.0000 0.0000
# 4 0.0000 0.0000 0.0000 11.2143 0.0000 0.0000
# 5 0.0000 0.0000 0.0000 0.0000 8.5247 0.0000
# 6 0.0000 0.0000 0.0000 0.0000 0.0000 29.5007
#
#
#
# Elastic Compliance Matrix: (Units=1/GPa)
#
#
# Indices 1 2 3 4 5 6 
#
# 1 0.020523 -0.003253 -0.000845 0.000000 0.000000 0.000000
# 2 -0.003253 0.007087 -0.002562 0.000000 0.000000 0.000000
# 3 -0.000845 -0.002562 0.010910 0.000000 0.000000 0.000000
# 4 0.000000 0.000000 0.000000 0.089172 0.000000 0.000000
# 5 0.000000 0.000000 0.000000 0.000000 0.117306 0.000000
# 6 0.000000 0.000000 0.000000 0.000000 0.000000 0.033897
#
#
# Mechanical properties :
#
#
# Convention : Reuss Voigt Hill
#
# Bulk Modulus (GPa) = 39.67997 54.25627 46.96812
# Shear Modulus (GPa) = 16.63256 26.11596 21.37426
#
# Velocity S-wave (km/s) = 2.81503 3.52742 3.19117
# Velocity P-wave (km/s) = 5.42872 6.51460 5.99629
#
# Compressibility (1/GPa) = 0.02520163
#
# Stress axis : x y z
#
# Youngs Moduli (GPa) = 48.72654 141.09891 91.65596
#
# Poissons Ratio (x) = 0.45901 0.07742
# Poissons Ratio (y) = 0.15851 0.23479
# Poissons Ratio (z) = 0.04116 0.36144
#
# Static dielectric constant tensor:
#      x y z
#    x 1.780190 0.000000 0.000000 
#    y 0.000000 1.833580 0.000000 
#    z 0.000000 0.000000 1.847190 
# 
# From -- ./inp_files/1377.got.cif
#   From: 2010.05.17/outbox.cif.g08.bks.cpg/sg41_1_cif.got.tgz:1377.got - 2010.06.03 18:54:24.
