data_PCOD9366506
_publ_section_title
;
Structure prediction by ZEFSAII (Michael W. Deem and Ramdas Pophale) SiO2 
 PCOD9366506
Probable space group: A B A 2
;
_chemical_formula_sum "Si O2"
_cell_formula_units_Z 64
_cell_length_a 14.123838
_cell_length_b 12.932694
_cell_length_c 17.584860
_cell_angle_alpha 90.000000
_cell_angle_beta 90.000000
_cell_angle_gamma 90.000000
_cell_volume 3212.037778
_symmetry_space_group_name_H-M "A B A 2"
_symmetry_group_IT_number 41
_symmetry_cell_setting 'orthorhombic'
loop_
_space_group_symop_operation_xyz
x,y,z
-x,-y,z
1/2-x,y,1/2+z
1/2+x,-y,1/2+z
x,1/2+y,1/2+z
-x,1/2-y,1/2+z
1/2-x,1/2+y,z
1/2+x,1/2-y,z
loop_
_atom_site_type_symbol
_atom_site_label
_atom_site_fract_x
_atom_site_fract_y
_atom_site_fract_z
Si Si1 0.188754 0.620735 0.217460
Si Si2 0.982131 0.378172 0.549286
Si Si3 0.718386 0.284224 0.073791
Si Si4 0.811243 0.620738 0.187907
Si Si5 0.123753 0.749998 0.952683
Si Si6 0.500000 0.252149 0.202685
Si Si7 0.718386 0.715776 0.331576
Si Si8 0.982127 0.621827 0.856085
O O1 0.263945 0.657691 0.153982
O O2 0.178665 0.499998 0.202683
O O3 0.212716 0.664461 0.301976
O O4 0.090751 0.678890 0.202009
O O5 0.874924 0.334974 0.536264
O O6 0.005727 0.323720 0.629114
O O7 0.000000 0.500000 0.555206
O O8 0.054255 0.335748 0.486666
O O9 0.712720 0.164461 0.103390
O O10 0.807083 0.292824 0.018142
O O11 0.909243 0.678898 0.203358
O O12 0.736050 0.657690 0.251385
O O13 0.192914 0.792821 0.887221
O O14 0.054251 0.664250 0.918705
O O15 0.505721 0.323716 0.276259
O O16 0.625080 0.665024 0.369107
O O17 0.000000 0.500000 0.850162
#
# Coordination Sequence:
#
# PCOD9366506 Si02
#       8
#     8   8   8   8   8   8   8   8
#     4  10  21  40  69  96 130 174 219 272 327 388
#     4  11  25  43  70  96 131 178 221 275 334 390
#     4  10  24  42  66  97 133 169 225 274 323 403
#     4  10  21  40  69  96 130 174 219 272 327 388
#     4  12  24  48  60  98 138 170 214 286 324 406
#     4  10  20  44  66 100 128 168 228 274 314 402
#     4  10  24  42  66  97 133 169 225 274 323 403
#     4  11  25  43  70  96 131 178 221 275 334 390
#
# _framework density 19.925045000000001
#
# number of rings (size 3 to 8) (size 9 to 14) (size 15 to 20)
#    0.000    1.500    2.500    1.500    3.500    1.000 
#    9.000    0.000    0.000    0.000    0.000    0.000 
#    0.000    0.000    0.000    0.000    0.000    0.000 
#
# Total GULP energy -178565.252487 kJ/mol
# GULP energy per Si atom -5580.164140 kJ/mol
# Density = 1.987969 g / cm^3
# Si number density = 19.925045 Si / 1000 Ang^3
#
#
#
# Elastic Constant Matrix: (Units=GPa)
#
#
# Indices 1 2 3 4 5 6 
#
# 1 143.3550 56.0705 54.5255 0.0000 0.0000 0.0000
# 2 56.0705 183.2734 53.2089 0.0000 0.0000 0.0000
# 3 54.5255 53.2089 62.9559 0.0000 0.0000 0.0000
# 4 0.0000 0.0000 0.0000 3.8450 0.0000 0.0000
# 5 0.0000 0.0000 0.0000 0.0000 51.9287 0.0000
# 6 0.0000 0.0000 0.0000 0.0000 0.0000 7.0627
#
#
#
# Elastic Compliance Matrix: (Units=1/GPa)
#
#
# Indices 1 2 3 4 5 6 
#
# 1 0.010481 -0.000757 -0.008438 0.000000 0.000000 0.000000
# 2 -0.000757 0.007285 -0.005502 0.000000 0.000000 0.000000
# 3 -0.008438 -0.005502 0.027842 0.000000 0.000000 0.000000
# 4 0.000000 0.000000 0.000000 0.260081 0.000000 0.000000
# 5 0.000000 0.000000 0.000000 0.000000 0.019257 0.000000
# 6 0.000000 0.000000 0.000000 0.000000 0.000000 0.141588
#
#
# Mechanical properties :
#
#
# Convention : Reuss Voigt Hill
#
# Bulk Modulus (GPa) = 61.67004 79.68823 70.67914
# Shear Modulus (GPa) = 9.97340 27.61924 18.79632
#
# Velocity S-wave (km/s) = 2.23972 3.72715 3.07473
# Velocity P-wave (km/s) = 6.14057 7.65526 6.93937
#
# Compressibility (1/GPa) = 0.01621533
#
# Stress axis : x y z
#
# Youngs Moduli (GPa) = 95.40984 137.26490 35.91680
#
# Poissons Ratio (x) = 0.10389 0.30306
# Poissons Ratio (y) = 0.07221 0.19761
# Poissons Ratio (z) = 0.80506 0.75520
#
# Static dielectric constant tensor:
#      x y z
#    x 1.738730 0.000000 0.000000 
#    y 0.000000 1.706060 0.000000 
#    z 0.000000 0.000000 1.728570 
# 
# From -- ./inp_files/10419.got.cif
#   From: 2010.05.17/outbox.cif.g08.bks.cpg/sg41_6_cif.got.tgz:10419.got - 2010.06.03 18:54:24.
