data_PCOD9366717
_publ_section_title
;
Structure prediction by ZEFSAII (Michael W. Deem and Ramdas Pophale) SiO2 
 PCOD9366717
Probable space group: A B A 2
;
_chemical_formula_sum "Si O2"
_cell_formula_units_Z 32
_cell_length_a 8.180923
_cell_length_b 13.861069
_cell_length_c 12.452530
_cell_angle_alpha 90.000000
_cell_angle_beta 90.000000
_cell_angle_gamma 90.000000
_cell_volume 1412.071303
_symmetry_space_group_name_H-M "A B A 2"
_symmetry_group_IT_number 41
_symmetry_cell_setting 'orthorhombic'
loop_
_space_group_symop_operation_xyz
x,y,z
-x,-y,z
1/2-x,y,1/2+z
1/2+x,-y,1/2+z
x,1/2+y,1/2+z
-x,1/2-y,1/2+z
1/2-x,1/2+y,z
1/2+x,1/2-y,z
loop_
_atom_site_type_symbol
_atom_site_label
_atom_site_fract_x
_atom_site_fract_y
_atom_site_fract_z
Si Si1 0.786888 0.143704 0.801410
Si Si2 0.895232 0.090848 0.502219
Si Si3 0.599537 0.300141 0.684230
Si Si4 0.189472 0.021518 0.178763
O O1 0.671913 0.195899 0.712013
O O2 0.969667 0.178202 0.779264
O O3 0.779192 0.030367 0.777713
O O4 0.703524 0.153784 0.916430
O O5 0.004027 0.162499 0.577400
O O6 0.771830 0.030797 0.577336
O O7 0.000000 0.000000 0.454407
O O8 0.759641 0.367864 0.684465
O O9 0.000000 0.000000 0.181578
#
# Coordination Sequence:
#
# PCOD9366717 Si02
#       4
#     8   8   8   8
#     4  11  21  38  62  89 123 165 207 257 312 371
#     4   9  21  40  62  91 127 165 210 256 310 374
#     4  10  23  40  60  91 127 161 208 261 311 371
#     4  10  21  40  62  87 122 161 204 262 316 370
#
# _framework density 22.661746000000001
#
# number of rings (size 3 to 8) (size 9 to 14) (size 15 to 20)
#    0.000    2.000    0.000    4.500    0.000    6.000 
#    0.000    7.500    0.000    0.000    0.000    0.000 
#    0.000    0.000    0.000    0.000    0.000    0.000 
#
# Total GULP energy -89223.246884 kJ/mol
# GULP energy per Si atom -5576.452930 kJ/mol
# Density = 2.261017 g / cm^3
# Si number density = 22.661746 Si / 1000 Ang^3
#
#
#
# Elastic Constant Matrix: (Units=GPa)
#
#
# Indices 1 2 3 4 5 6 
#
# 1 114.8147 8.5285 16.8698 0.0000 0.0000 0.0000
# 2 8.5285 65.5266 24.0403 0.0000 0.0000 0.0000
# 3 16.8698 24.0403 62.1518 0.0000 0.0000 0.0000
# 4 0.0000 0.0000 0.0000 -2.0366 0.0000 0.0000
# 5 0.0000 0.0000 0.0000 0.0000 16.0285 0.0000
# 6 0.0000 0.0000 0.0000 0.0000 0.0000 31.5115
#
#
#
# Elastic Compliance Matrix: (Units=1/GPa)
#
#
# Indices 1 2 3 4 5 6 
#
# 1 0.009077 -0.000323 -0.002339 0.000000 0.000000 0.000000
# 2 -0.000323 0.017796 -0.006796 0.000000 0.000000 0.000000
# 3 -0.002339 -0.006796 0.019353 0.000000 0.000000 0.000000
# 4 0.000000 0.000000 0.000000 -0.491021 0.000000 0.000000
# 5 0.000000 0.000000 0.000000 0.000000 0.062389 0.000000
# 6 0.000000 0.000000 0.000000 0.000000 0.000000 0.031734
#
#
# Mechanical properties :
#
#
# Convention : Reuss Voigt Hill
#
# Bulk Modulus (GPa) = 36.61562 37.93002 37.27282
# Shear Modulus (GPa) = -15.49662 21.97099 3.23719
#
# Velocity S-wave (km/s) = -2.61784 3.11709 1.19649
# Velocity P-wave (km/s) = 2.65614 5.45241 4.28858
#
# Compressibility (1/GPa) = 0.02731075
#
# Stress axis : x y z
#
# Youngs Moduli (GPa) = 110.16441 56.19140 51.67141
#
# Poissons Ratio (x) = 0.01817 0.12085
# Poissons Ratio (y) = 0.03563 0.35115
# Poissons Ratio (z) = 0.25765 0.38187
#
# Static dielectric constant tensor:
#      x y z
#    x 1.864560 0.000000 0.000000 
#    y 0.000000 1.797360 0.000000 
#    z 0.000000 0.000000 1.895240 
# 
# From -- ./inp_files/4275.got.cif
#   From: 2010.05.17/outbox.cif.g08.bks.cpg/sg41_3_cif.got.tgz:4275.got - 2010.06.03 18:54:24.
