data_PCOD9366654
_publ_section_title
;
Structure prediction by ZEFSAII (Michael W. Deem and Ramdas Pophale) SiO2 
 PCOD9366654
Probable space group: A B A 2
;
_chemical_formula_sum "Si O2"
_cell_formula_units_Z 48
_cell_length_a 25.865944
_cell_length_b 5.182943
_cell_length_c 14.016347
_cell_angle_alpha 90.000000
_cell_angle_beta 90.000000
_cell_angle_gamma 90.000000
_cell_volume 1879.055494
_symmetry_space_group_name_H-M "A B A 2"
_symmetry_group_IT_number 41
_symmetry_cell_setting 'orthorhombic'
loop_
_space_group_symop_operation_xyz
x,y,z
-x,-y,z
1/2-x,y,1/2+z
1/2+x,-y,1/2+z
x,1/2+y,1/2+z
-x,1/2-y,1/2+z
1/2-x,1/2+y,z
1/2+x,1/2-y,z
loop_
_atom_site_type_symbol
_atom_site_label
_atom_site_fract_x
_atom_site_fract_y
_atom_site_fract_z
Si Si1 0.942854 0.458099 0.050110
Si Si2 0.442871 0.533239 0.325313
Si Si3 0.365342 0.920417 0.511420
Si Si4 0.280488 0.047408 0.974497
Si Si5 0.835564 0.667124 0.141198
Si Si6 0.618953 0.444848 0.813480
O O1 0.922238 0.163384 0.043177
O O2 0.894440 0.588367 0.105274
O O3 0.000000 0.500000 0.091357
O O4 0.946212 0.537168 0.938399
O O5 0.500000 0.500000 0.284627
O O6 0.423817 0.827003 0.317546
O O7 0.404526 0.324869 0.277850
O O8 0.336974 0.675030 0.461438
O O9 0.364754 0.108295 0.421940
O O10 0.334384 0.042826 0.599412
O O11 0.242808 0.276682 0.941456
O O12 0.290097 0.981880 0.086672
O O13 0.836954 0.573099 0.248881
#
# Coordination Sequence:
#
# PCOD9366654 Si02
#       6
#     8   8   8   8   8   8
#     4   9  20  37  62  94 133 178 223 262 320 387
#     4  10  21  39  60  89 131 179 221 270 315 374
#     4  10  22  43  66  96 131 174 219 270 336 395
#     4  11  23  43  72  95 126 168 214 273 340 405
#     4  11  23  41  68  95 131 171 217 271 332 391
#     4  11  24  39  64  94 131 170 218 272 326 388
#
# _framework density 25.544747999999998
#
# number of rings (size 3 to 8) (size 9 to 14) (size 15 to 20)
#    0.000    1.667    3.333    0.500    4.667    2.000 
#    0.000    1.667    0.000    0.000    0.000    0.000 
#    0.000    0.000    0.000    0.000    0.000    0.000 
#
# Total GULP energy -133701.739969 kJ/mol
# GULP energy per Si atom -5570.905832 kJ/mol
# Density = 2.548661 g / cm^3
# Si number density = 25.544748 Si / 1000 Ang^3
#
#
#
# Elastic Constant Matrix: (Units=GPa)
#
#
# Indices 1 2 3 4 5 6 
#
# 1 97.7302 28.5981 -12.3912 0.0000 0.0000 0.0000
# 2 28.5981 131.6210 3.6231 0.0000 0.0000 0.0000
# 3 -12.3912 3.6231 67.4397 0.0000 0.0000 0.0000
# 4 0.0000 0.0000 0.0000 23.8227 0.0000 0.0000
# 5 0.0000 0.0000 0.0000 0.0000 20.7111 0.0000
# 6 0.0000 0.0000 0.0000 0.0000 0.0000 28.4627
#
#
#
# Elastic Compliance Matrix: (Units=1/GPa)
#
#
# Indices 1 2 3 4 5 6 
#
# 1 0.011244 -0.002504 0.002200 0.000000 0.000000 0.000000
# 2 -0.002504 0.008166 -0.000899 0.000000 0.000000 0.000000
# 3 0.002200 -0.000899 0.015281 0.000000 0.000000 0.000000
# 4 0.000000 0.000000 0.000000 0.041977 0.000000 0.000000
# 5 0.000000 0.000000 0.000000 0.000000 0.048283 0.000000
# 6 0.000000 0.000000 0.000000 0.000000 0.000000 0.035134
#
#
# Mechanical properties :
#
#
# Convention : Reuss Voigt Hill
#
# Bulk Modulus (GPa) = 30.97222 37.38341 34.17782
# Shear Modulus (GPa) = 28.85994 33.06338 30.96166
#
# Velocity S-wave (km/s) = 3.36487 3.60159 3.48524
# Velocity P-wave (km/s) = 5.21991 5.65345 5.44100
#
# Compressibility (1/GPa) = 0.03228699
#
# Stress axis : x y z
#
# Youngs Moduli (GPa) = 88.93754 122.45475 65.44228
#
# Poissons Ratio (x) = 0.30658 -0.14400
# Poissons Ratio (y) = 0.22266 0.05881
# Poissons Ratio (z) = -0.19570 0.11005
#
# Static dielectric constant tensor:
#      x y z
#    x 2.071340 0.000000 0.000000 
#    y 0.000000 2.186120 0.000000 
#    z 0.000000 0.000000 2.083250 
# 
# From -- ./inp_files/9217.got.cif
#   From: 2010.05.17/outbox.cif.g08.bks.cpg/sg41_5_cif.got.tgz:9217.got - 2010.06.03 18:54:24.
