data_PCOD9366081
_publ_section_title
;
Structure prediction by ZEFSAII (Michael W. Deem and Ramdas Pophale) SiO2 
 PCOD9366081
Probable space group: A B A 2
;
_chemical_formula_sum "Si O2"
_cell_formula_units_Z 48
_cell_length_a 13.496571
_cell_length_b 13.036805
_cell_length_c 10.607339
_cell_angle_alpha 90.000000
_cell_angle_beta 90.000000
_cell_angle_gamma 90.000000
_cell_volume 1866.384254
_symmetry_space_group_name_H-M "A B A 2"
_symmetry_group_IT_number 41
_symmetry_cell_setting 'orthorhombic'
loop_
_space_group_symop_operation_xyz
x,y,z
-x,-y,z
1/2-x,y,1/2+z
1/2+x,-y,1/2+z
x,1/2+y,1/2+z
-x,1/2-y,1/2+z
1/2-x,1/2+y,z
1/2+x,1/2-y,z
loop_
_atom_site_type_symbol
_atom_site_label
_atom_site_fract_x
_atom_site_fract_y
_atom_site_fract_z
Si Si1 0.762489 0.412652 0.855910
Si Si2 0.945012 0.292352 0.863574
Si Si3 0.913015 0.941008 0.005851
Si Si4 0.913015 0.058992 0.502957
Si Si5 0.762489 0.587348 0.652897
Si Si6 0.054988 0.292351 0.645233
O O1 0.836539 0.323551 0.814028
O O2 0.663584 0.375285 0.924731
O O3 0.735433 0.500000 0.754404
O O4 0.839241 0.473262 0.947503
O O5 1.000000 0.228817 0.754404
O O6 0.931089 0.250000 0.004404
O O7 0.026682 0.382234 0.893560
O O8 0.000000 0.000000 0.932275
O O9 0.973318 0.882234 0.115247
O O10 0.839241 0.026738 0.061304
O O11 0.836416 0.124715 0.584076
O O12 0.000000 0.000000 0.576533
O O13 0.836539 0.676449 0.694779
#
# Coordination Sequence:
#
# PCOD9366081 Si02
#       6
#     8   8   8   8   8   8
#     4  10  19  39  70  93 121 175 225 271 325 395
#     4  11  23  43  65  95 137 180 216 269 336 397
#     4   9  20  38  64  95 124 164 227 277 323 389
#     4   9  20  38  64  95 124 164 227 277 323 389
#     4  10  19  39  70  93 121 175 225 271 325 395
#     4  11  23  43  65  95 137 180 216 269 336 397
#
# _framework density 25.718176
#
# number of rings (size 3 to 8) (size 9 to 14) (size 15 to 20)
#    0.000    2.000    3.333    0.000    0.000    2.000 
#   18.000    3.333    0.000    0.000    0.000    0.000 
#    0.000    0.000    0.000    0.000    0.000    0.000 
#
# Total GULP energy -133761.554691 kJ/mol
# GULP energy per Si atom -5573.398112 kJ/mol
# Density = 2.565964 g / cm^3
# Si number density = 25.718176 Si / 1000 Ang^3
#
#
#
# Elastic Constant Matrix: (Units=GPa)
#
#
# Indices 1 2 3 4 5 6 
#
# 1 185.7962 9.1458 54.0533 0.0000 0.0000 0.0000
# 2 9.1458 20.9940 9.2954 0.0000 0.0000 0.0000
# 3 54.0533 9.2954 76.0140 0.0000 0.0000 0.0000
# 4 0.0000 0.0000 0.0000 41.1286 0.0000 0.0000
# 5 0.0000 0.0000 0.0000 0.0000 22.6099 0.0000
# 6 0.0000 0.0000 0.0000 0.0000 0.0000 4.8867
#
#
#
# Elastic Compliance Matrix: (Units=1/GPa)
#
#
# Indices 1 2 3 4 5 6 
#
# 1 0.006801 -0.000869 -0.004730 0.000000 0.000000 0.000000
# 2 -0.000869 0.050470 -0.005554 0.000000 0.000000 0.000000
# 3 -0.004730 -0.005554 0.017198 0.000000 0.000000 0.000000
# 4 0.000000 0.000000 0.000000 0.024314 0.000000 0.000000
# 5 0.000000 0.000000 0.000000 0.000000 0.044228 0.000000
# 6 0.000000 0.000000 0.000000 0.000000 0.000000 0.204635
#
#
# Mechanical properties :
#
#
# Convention : Reuss Voigt Hill
#
# Bulk Modulus (GPa) = 19.17031 47.53258 33.35144
# Shear Modulus (GPa) = 12.90854 27.74570 20.32712
#
# Velocity S-wave (km/s) = 2.24279 3.28813 2.81442
# Velocity P-wave (km/s) = 3.76524 5.73916 4.85360
#
# Compressibility (1/GPa) = 0.05216400
#
# Stress axis : x y z
#
# Youngs Moduli (GPa) = 147.03529 19.81367 58.14568
#
# Poissons Ratio (x) = 0.01721 0.27503
# Poissons Ratio (y) = 0.12770 0.32295
# Poissons Ratio (z) = 0.69548 0.11005
#
# Static dielectric constant tensor:
#      x y z
#    x 1.986850 0.000000 0.000000 
#    y 0.000000 2.293970 0.000000 
#    z 0.000000 0.000000 2.150650 
# 
# From -- ./inp_files/4984.got.cif
#   From: 2010.05.17/outbox.cif.g08.bks.cpg/sg41_3_cif.got.tgz:4984.got - 2010.06.03 18:54:24.
