data_PCOD9366707
_publ_section_title
;
Structure prediction by ZEFSAII (Michael W. Deem and Ramdas Pophale) SiO2 
 PCOD9366707
Probable space group: A B A 2
;
_chemical_formula_sum "Si O2"
_cell_formula_units_Z 48
_cell_length_a 8.773922
_cell_length_b 14.624293
_cell_length_c 17.039849
_cell_angle_alpha 90.000000
_cell_angle_beta 90.000000
_cell_angle_gamma 90.000000
_cell_volume 2186.424025
_symmetry_space_group_name_H-M "A B A 2"
_symmetry_group_IT_number 41
_symmetry_cell_setting 'orthorhombic'
loop_
_space_group_symop_operation_xyz
x,y,z
-x,-y,z
1/2-x,y,1/2+z
1/2+x,-y,1/2+z
x,1/2+y,1/2+z
-x,1/2-y,1/2+z
1/2-x,1/2+y,z
1/2+x,1/2-y,z
loop_
_atom_site_type_symbol
_atom_site_label
_atom_site_fract_x
_atom_site_fract_y
_atom_site_fract_z
Si Si1 0.500000 0.000000 0.104250
Si Si2 0.293505 0.170583 0.818930
Si Si3 0.479849 0.335084 0.909091
Si Si4 0.500000 0.500000 0.345776
Si Si5 0.386508 0.181597 0.162717
Si Si6 0.708442 0.575511 0.477855
Si Si7 0.875605 0.263241 0.563629
O O1 0.473336 0.085690 0.160540
O O2 0.645110 0.006955 0.044773
O O3 0.389014 0.254404 0.860098
O O4 0.210321 0.202137 0.739268
O O5 0.144545 0.145613 0.871095
O O6 0.392982 0.077388 0.804891
O O7 0.368550 0.418569 0.932299
O O8 0.523246 0.300658 0.994772
O O9 0.596190 0.563415 0.404762
O O10 0.516452 0.252819 0.139397
O O11 0.269771 0.181237 0.090280
O O12 0.683502 0.668674 0.526365
#
# Coordination Sequence:
#
# PCOD9366707 Si02
#       7
#     4   8   8   4   8   8   8
#     4   9  24  44  62  96 143 176 216 284 341 398
#     4  12  25  43  68  99 141 175 222 279 350 398
#     4  12  22  42  70 101 123 176 236 280 323 405
#     4  11  24  44  60  96 143 176 212 288 333 406
#     4  11  24  43  67  95 139 177 214 278 341 399
#     4  10  21  39  68  93 130 167 230 284 323 387
#     4  11  20  41  68  99 122 174 232 271 318 392
#
# _framework density 21.953655000000001
#
# number of rings (size 3 to 8) (size 9 to 14) (size 15 to 20)
#    0.000    1.000    5.000    1.000    4.667    2.000 
#    3.000    1.667    0.000    0.000    0.000    0.000 
#    0.000    0.000    0.000    0.000    0.000    0.000 
#
# Total GULP energy -133622.352389 kJ/mol
# GULP energy per Si atom -5567.598016 kJ/mol
# Density = 2.190369 g / cm^3
# Si number density = 21.953655 Si / 1000 Ang^3
#
#
#
# Elastic Constant Matrix: (Units=GPa)
#
#
# Indices 1 2 3 4 5 6 
#
# 1 112.5649 31.1318 9.4279 0.0000 0.0000 0.0000
# 2 31.1318 44.1910 -1.1484 0.0000 0.0000 0.0000
# 3 9.4279 -1.1484 32.3628 0.0000 0.0000 0.0000
# 4 0.0000 0.0000 0.0000 4.5767 0.0000 0.0000
# 5 0.0000 0.0000 0.0000 0.0000 50.2020 0.0000
# 6 0.0000 0.0000 0.0000 0.0000 0.0000 37.7853
#
#
#
# Elastic Compliance Matrix: (Units=1/GPa)
#
#
# Indices 1 2 3 4 5 6 
#
# 1 0.011443 -0.008155 -0.003623 0.000000 0.000000 0.000000
# 2 -0.008155 0.028462 0.003386 0.000000 0.000000 0.000000
# 3 -0.003623 0.003386 0.032075 0.000000 0.000000 0.000000
# 4 0.000000 0.000000 0.000000 0.218500 0.000000 0.000000
# 5 0.000000 0.000000 0.000000 0.000000 0.019920 0.000000
# 6 0.000000 0.000000 0.000000 0.000000 0.000000 0.026465
#
#
# Mechanical properties :
#
#
# Convention : Reuss Voigt Hill
#
# Bulk Modulus (GPa) = 18.11745 29.77124 23.94434
# Shear Modulus (GPa) = 13.43913 28.49329 20.96621
#
# Velocity S-wave (km/s) = 2.47687 3.60652 3.09369
# Velocity P-wave (km/s) = 4.05590 5.56175 4.86741
#
# Compressibility (1/GPa) = 0.05519541
#
# Stress axis : x y z
#
# Youngs Moduli (GPa) = 87.39206 35.13420 31.17668
#
# Poissons Ratio (x) = 0.28653 0.11295
# Poissons Ratio (y) = 0.71271 -0.10556
# Poissons Ratio (z) = 0.31661 -0.11896
#
# Static dielectric constant tensor:
#      x y z
#    x 1.830580 0.000000 0.000000 
#    y 0.000000 1.941680 0.000000 
#    z 0.000000 0.000000 1.821450 
# 
# From -- ./inp_files/9674.got.cif
#   From: 2010.05.17/outbox.cif.g08.bks.cpg/sg41_5_cif.got.tgz:9674.got - 2010.06.03 18:54:24.
