data_PCOD9366685
_publ_section_title
;
Structure prediction by ZEFSAII (Michael W. Deem and Ramdas Pophale) SiO2 
 PCOD9366685
Probable space group: A B A 2
;
_chemical_formula_sum "Si O2"
_cell_formula_units_Z 60
_cell_length_a 19.949677
_cell_length_b 26.835078
_cell_length_c 4.962876
_cell_angle_alpha 90.000000
_cell_angle_beta 90.000000
_cell_angle_gamma 90.000000
_cell_volume 2656.881316
_symmetry_space_group_name_H-M "A B A 2"
_symmetry_group_IT_number 41
_symmetry_cell_setting 'orthorhombic'
loop_
_space_group_symop_operation_xyz
x,y,z
-x,-y,z
1/2-x,y,1/2+z
1/2+x,-y,1/2+z
x,1/2+y,1/2+z
-x,1/2-y,1/2+z
1/2-x,1/2+y,z
1/2+x,1/2-y,z
loop_
_atom_site_type_symbol
_atom_site_label
_atom_site_fract_x
_atom_site_fract_y
_atom_site_fract_z
Si Si1 0.500000 0.000000 0.899000
Si Si2 0.507374 0.318451 0.873864
Si Si3 0.923592 0.283125 0.864151
Si Si4 0.365170 0.492854 0.100442
Si Si5 0.924590 0.087207 0.690567
Si Si6 0.204440 0.696731 0.532683
Si Si7 0.291021 0.586813 0.878149
Si Si8 0.203942 0.911706 0.379907
O O1 0.565356 0.988765 0.724188
O O2 0.523396 0.047699 0.066860
O O3 0.567755 0.305411 0.663887
O O4 0.458648 0.270644 0.859175
O O5 0.466345 0.367385 0.804801
O O6 0.533411 0.320081 0.176898
O O7 0.854733 0.277797 0.699983
O O8 0.332513 0.538386 0.948531
O O9 0.314648 0.470222 0.325285
O O10 0.383238 0.445835 0.908360
O O11 0.869208 0.106833 0.475153
O O12 0.231907 0.706360 0.232219
O O13 0.181661 0.638835 0.495931
O O14 0.223049 0.585967 0.060032
O O15 0.242967 0.898106 0.109604
#
# Coordination Sequence:
#
# PCOD9366685 Si02
#       8
#     4   8   8   8   8   8   8   8
#     4  10  26  38  56  94 128 170 212 264 330 364
#     4  10  24  42  70  96 126 168 220 265 326 396
#     4  10  22  44  69  98 125 168 211 273 334 389
#     4  11  23  39  59  86 127 173 211 265 312 388
#     4  11  25  42  64  94 133 169 223 273 318 396
#     4  10  21  39  63  95 128 161 208 267 327 380
#     4  10  23  37  59  88 117 163 212 252 305 380
#     4  11  22  39  62  86 120 169 215 264 313 367
#
# _framework density 22.58287
#
# number of rings (size 3 to 8) (size 9 to 14) (size 15 to 20)
#    0.000    1.600    1.333    2.000    9.333    1.067 
#    0.000    1.333    0.000    0.000    0.000    0.000 
#    0.000    0.000    0.000    0.000    0.000    0.000 
#
# Total GULP energy -167393.360686 kJ/mol
# GULP energy per Si atom -5579.778690 kJ/mol
# Density = 2.253147 g / cm^3
# Si number density = 22.582870 Si / 1000 Ang^3
#
#
#
# Elastic Constant Matrix: (Units=GPa)
#
#
# Indices 1 2 3 4 5 6 
#
# 1 29.3079 9.8827 6.6533 0.0000 0.0000 0.0000
# 2 9.8827 15.8201 11.7630 0.0000 0.0000 0.0000
# 3 6.6533 11.7630 103.2863 0.0000 0.0000 0.0000
# 4 0.0000 0.0000 0.0000 21.0876 0.0000 0.0000
# 5 0.0000 0.0000 0.0000 0.0000 37.8374 0.0000
# 6 0.0000 0.0000 0.0000 0.0000 0.0000 32.6474
#
#
#
# Elastic Compliance Matrix: (Units=1/GPa)
#
#
# Indices 1 2 3 4 5 6 
#
# 1 0.043236 -0.027245 0.000318 0.000000 0.000000 0.000000
# 2 -0.027245 0.086227 -0.008065 0.000000 0.000000 0.000000
# 3 0.000318 -0.008065 0.010580 0.000000 0.000000 0.000000
# 4 0.000000 0.000000 0.000000 0.047421 0.000000 0.000000
# 5 0.000000 0.000000 0.000000 0.000000 0.026429 0.000000
# 6 0.000000 0.000000 0.000000 0.000000 0.000000 0.030630
#
#
# Mechanical properties :
#
#
# Convention : Reuss Voigt Hill
#
# Bulk Modulus (GPa) = 14.27399 22.77918 18.52658
# Shear Modulus (GPa) = 14.79899 26.32219 20.56059
#
# Velocity S-wave (km/s) = 2.56270 3.41777 3.02064
# Velocity P-wave (km/s) = 3.88471 5.06791 4.51523
#
# Compressibility (1/GPa) = 0.07005750
#
# Stress axis : x y z
#
# Youngs Moduli (GPa) = 23.12913 11.59724 94.51910
#
# Poissons Ratio (x) = 0.31597 -0.03004
# Poissons Ratio (y) = 0.63016 0.76231
# Poissons Ratio (z) = -0.00735 0.09353
#
# Static dielectric constant tensor:
#      x y z
#    x 1.887340 0.000000 0.000000 
#    y 0.000000 1.812440 0.000000 
#    z 0.000000 0.000000 1.884250 
# 
# From -- ./inp_files/792.got.cif
#   From: 2010.05.17/outbox.cif.g08.bks.cpg/sg41_1_cif.got.tgz:792.got - 2010.06.03 18:54:24.
