data_PCOD9366423
_publ_section_title
;
Structure prediction by ZEFSAII (Michael W. Deem and Ramdas Pophale) SiO2 
 PCOD9366423
Probable space group: A B A 2
;
_chemical_formula_sum "Si O2"
_cell_formula_units_Z 44
_cell_length_a 8.356534
_cell_length_b 16.581757
_cell_length_c 14.212036
_cell_angle_alpha 90.000000
_cell_angle_beta 90.000000
_cell_angle_gamma 90.000000
_cell_volume 1969.305210
_symmetry_space_group_name_H-M "A B A 2"
_symmetry_group_IT_number 41
_symmetry_cell_setting 'orthorhombic'
loop_
_space_group_symop_operation_xyz
x,y,z
-x,-y,z
1/2-x,y,1/2+z
1/2+x,-y,1/2+z
x,1/2+y,1/2+z
-x,1/2-y,1/2+z
1/2-x,1/2+y,z
1/2+x,1/2-y,z
loop_
_atom_site_type_symbol
_atom_site_label
_atom_site_fract_x
_atom_site_fract_y
_atom_site_fract_z
Si Si1 0.818445 0.979706 0.103470
Si Si2 0.000000 0.500000 0.974902
Si Si3 0.352206 0.676231 0.623666
Si Si4 0.608048 0.574014 0.741516
Si Si5 0.547698 0.826605 0.913325
Si Si6 0.732946 0.731518 0.299851
O O1 0.799320 0.884028 0.121830
O O2 0.761824 0.032273 0.193338
O O3 0.000000 0.000000 0.075146
O O4 0.669175 0.997410 0.032062
O O5 0.000784 0.580961 0.916594
O O6 0.495056 0.619311 0.664376
O O7 0.393575 0.698412 0.516857
O O8 0.328979 0.750267 0.694810
O O9 0.500000 0.500000 0.780961
O O10 0.665524 0.649103 0.803472
O O11 0.673068 0.810378 0.831454
O O12 0.399482 0.775572 0.878995
#
# Coordination Sequence:
#
# PCOD9366423 Si02
#       6
#     8   4   8   8   8   8
#     4  10  20  40  77 105 134 201 241 287 380 426
#     4  10  22  50  66 108 154 178 248 310 340 450
#     4  10  23  47  69 102 152 182 237 312 354 433
#     4  10  21  45  71  98 147 189 237 310 360 431
#     4  11  26  46  71 105 149 187 242 303 362 435
#     4  12  26  44  71 109 140 196 244 290 379 435
#
# _framework density 22.342904999999998
#
# number of rings (size 3 to 8) (size 9 to 14) (size 15 to 20)
#    0.000    1.455    6.364    0.000    5.091    2.909 
#    9.818    0.000    0.000    0.000    2.364    0.000 
#    0.000    0.000    0.000    0.000    0.000    0.000 
#
# Total GULP energy -122744.996967 kJ/mol
# GULP energy per Si atom -5579.318044 kJ/mol
# Density = 2.229205 g / cm^3
# Si number density = 22.342905 Si / 1000 Ang^3
#
#
#
# Elastic Constant Matrix: (Units=GPa)
#
#
# Indices 1 2 3 4 5 6 
#
# 1 121.6980 36.7748 30.5723 0.0000 0.0000 0.0000
# 2 36.7748 102.5770 41.2850 0.0000 0.0000 0.0000
# 3 30.5723 41.2850 90.8944 0.0000 0.0000 0.0000
# 4 0.0000 0.0000 0.0000 31.9056 0.0000 0.0000
# 5 0.0000 0.0000 0.0000 0.0000 -20.5425 0.0000
# 6 0.0000 0.0000 0.0000 0.0000 0.0000 18.3214
#
#
#
# Elastic Compliance Matrix: (Units=1/GPa)
#
#
# Indices 1 2 3 4 5 6 
#
# 1 0.009509 -0.002596 -0.002019 0.000000 0.000000 0.000000
# 2 -0.002596 0.012639 -0.004867 0.000000 0.000000 0.000000
# 3 -0.002019 -0.004867 0.013892 0.000000 0.000000 0.000000
# 4 0.000000 0.000000 0.000000 0.031343 0.000000 0.000000
# 5 0.000000 0.000000 0.000000 0.000000 -0.048680 0.000000
# 6 0.000000 0.000000 0.000000 0.000000 0.000000 0.054581
#
#
# Mechanical properties :
#
#
# Convention : Reuss Voigt Hill
#
# Bulk Modulus (GPa) = 58.56948 59.15930 58.86439
# Shear Modulus (GPa) = 51.05186 19.70603 35.37895
#
# Velocity S-wave (km/s) = 4.78527 2.97304 3.98358
# Velocity P-wave (km/s) = 7.53675 6.19037 6.89649
#
# Compressibility (1/GPa) = 0.01707374
#
# Stress axis : x y z
#
# Youngs Moduli (GPa) = 105.16521 79.12286 71.98591
#
# Poissons Ratio (x) = 0.20544 0.14534
# Poissons Ratio (y) = 0.27305 0.35037
# Poissons Ratio (z) = 0.21233 0.38511
#
# Static dielectric constant tensor:
#      x y z
#    x 2.136640 0.000000 0.000000 
#    y 0.000000 1.825460 0.000000 
#    z 0.000000 0.000000 1.845530 
# 
# From -- ./inp_files/7273.got.cif
#   From: 2010.05.17/outbox.cif.g08.bks.cpg/sg41_4_cif.got.tgz:7273.got - 2010.06.03 18:54:24.
