data_PCOD9366342
_publ_section_title
;
Structure prediction by ZEFSAII (Michael W. Deem and Ramdas Pophale) SiO2 
 PCOD9366342
Probable space group: A B A 2
;
_chemical_formula_sum "Si O2"
_cell_formula_units_Z 36
_cell_length_a 15.949200
_cell_length_b 5.551480
_cell_length_c 16.101942
_cell_angle_alpha 90.000000
_cell_angle_beta 90.000000
_cell_angle_gamma 90.000000
_cell_volume 1425.692751
_symmetry_space_group_name_H-M "A B A 2"
_symmetry_group_IT_number 41
_symmetry_cell_setting 'orthorhombic'
loop_
_space_group_symop_operation_xyz
x,y,z
-x,-y,z
1/2-x,y,1/2+z
1/2+x,-y,1/2+z
x,1/2+y,1/2+z
-x,1/2-y,1/2+z
1/2-x,1/2+y,z
1/2+x,1/2-y,z
loop_
_atom_site_type_symbol
_atom_site_label
_atom_site_fract_x
_atom_site_fract_y
_atom_site_fract_z
Si Si1 0.319571 0.563963 0.944050
Si Si2 0.024417 0.247517 0.785341
Si Si3 0.216023 0.633045 0.257118
Si Si4 0.000000 0.500000 0.132196
Si Si5 0.141860 0.063513 0.499982
O O1 0.271290 0.584551 0.856230
O O2 0.369201 0.315999 0.952314
O O3 0.243369 0.559024 0.010928
O O4 0.372811 0.805986 0.955377
O O5 0.120702 0.224097 0.759179
O O6 0.000000 0.500000 0.823269
O O7 0.976921 0.213953 0.696675
O O8 0.000000 0.000000 0.831094
O O9 0.232328 0.362934 0.222944
O O10 0.079692 0.564901 0.077023
#
# Coordination Sequence:
#
# PCOD9366342 Si02
#       5
#     8   8   8   4   8
#     4  10  20  40  61  98 117 160 204 270 328 377
#     4  10  25  46  62  93 134 179 218 268 327 386
#     4  12  21  43  70  95 131 163 226 275 329 393
#     4  10  26  44  60  90 132 174 220 256 316 392
#     4  10  20  39  64  86 130 157 208 260 320 381
#
# _framework density 25.250883999999999
#
# number of rings (size 3 to 8) (size 9 to 14) (size 15 to 20)
#    0.667    0.889    4.444    1.333    3.111    0.000 
#   14.000    0.000    0.000    0.000    0.000    0.000 
#    0.000    0.000    0.000    0.000    0.000    0.000 
#
# Total GULP energy -100324.498396 kJ/mol
# GULP energy per Si atom -5573.583244 kJ/mol
# Density = 2.519341 g / cm^3
# Si number density = 25.250884 Si / 1000 Ang^3
#
#
#
# Elastic Constant Matrix: (Units=GPa)
#
#
# Indices 1 2 3 4 5 6 
#
# 1 106.4898 40.9616 18.0113 0.0000 0.0000 0.0000
# 2 40.9616 283.9839 21.5870 0.0000 0.0000 0.0000
# 3 18.0113 21.5870 46.0885 0.0000 0.0000 0.0000
# 4 0.0000 0.0000 0.0000 15.8004 0.0000 0.0000
# 5 0.0000 0.0000 0.0000 0.0000 30.1830 0.0000
# 6 0.0000 0.0000 0.0000 0.0000 0.0000 33.7817
#
#
#
# Elastic Compliance Matrix: (Units=1/GPa)
#
#
# Indices 1 2 3 4 5 6 
#
# 1 0.010462 -0.001242 -0.003506 0.000000 0.000000 0.000000
# 2 -0.001242 0.003799 -0.001294 0.000000 0.000000 0.000000
# 3 -0.003506 -0.001294 0.023674 0.000000 0.000000 0.000000
# 4 0.000000 0.000000 0.000000 0.063290 0.000000 0.000000
# 5 0.000000 0.000000 0.000000 0.000000 0.033131 0.000000
# 6 0.000000 0.000000 0.000000 0.000000 0.000000 0.029602
#
#
# Mechanical properties :
#
#
# Convention : Reuss Voigt Hill
#
# Bulk Modulus (GPa) = 38.68650 66.40913 52.54781
# Shear Modulus (GPa) = 27.07701 39.68649 33.38175
#
# Velocity S-wave (km/s) = 3.27818 3.96875 3.63988
# Velocity P-wave (km/s) = 5.44819 6.88173 6.20648
#
# Compressibility (1/GPa) = 0.02584881
#
# Stress axis : x y z
#
# Youngs Moduli (GPa) = 95.58823 263.23555 42.24102
#
# Poissons Ratio (x) = 0.32705 0.14812
# Poissons Ratio (y) = 0.11876 0.05465
# Poissons Ratio (z) = 0.33517 0.34057
#
# Static dielectric constant tensor:
#      x y z
#    x 2.010680 0.000000 0.000000 
#    y 0.000000 2.071660 0.000000 
#    z 0.000000 0.000000 2.022420 
# 
# From -- ./inp_files/12179.got.cif
#   From: 2010.05.17/outbox.cif.g08.bks.cpg/sg41_7_cif.got.tgz:12179.got - 2010.06.03 18:54:24.
