data_PCOD9366535
_publ_section_title
;
Structure prediction by ZEFSAII (Michael W. Deem and Ramdas Pophale) SiO2 
 PCOD9366535
Probable space group: A B A 2
;
_chemical_formula_sum "Si O2"
_cell_formula_units_Z 56
_cell_length_a 16.371488
_cell_length_b 5.059865
_cell_length_c 34.268488
_cell_angle_alpha 90.000000
_cell_angle_beta 90.000000
_cell_angle_gamma 90.000000
_cell_volume 2838.716530
_symmetry_space_group_name_H-M "A B A 2"
_symmetry_group_IT_number 41
_symmetry_cell_setting 'orthorhombic'
loop_
_space_group_symop_operation_xyz
x,y,z
-x,-y,z
1/2-x,y,1/2+z
1/2+x,-y,1/2+z
x,1/2+y,1/2+z
-x,1/2-y,1/2+z
1/2-x,1/2+y,z
1/2+x,1/2-y,z
loop_
_atom_site_type_symbol
_atom_site_label
_atom_site_fract_x
_atom_site_fract_y
_atom_site_fract_z
Si Si1 0.902170 0.997680 0.255130
Si Si2 0.194268 0.100913 0.882363
Si Si3 0.556223 0.741885 0.532658
Si Si4 0.304284 0.114896 0.593111
Si Si5 0.196050 0.191418 0.180976
Si Si6 0.598651 0.996474 0.303465
Si Si7 0.056616 0.257445 0.943423
O O1 0.879358 0.290011 0.269204
O O2 0.863527 0.897387 0.215178
O O3 0.878325 0.788549 0.288915
O O4 0.000000 0.000000 0.251661
O O5 0.268289 0.308418 0.884683
O O6 0.144216 0.101054 0.841929
O O7 0.132229 0.187368 0.916200
O O8 0.500000 0.500000 0.546423
O O9 0.630738 0.802762 0.560947
O O10 0.582768 0.680738 0.488029
O O11 0.500000 0.000000 0.531460
O O12 0.228066 0.316744 0.589284
O O13 0.337376 0.150904 0.637187
O O14 0.226781 0.491592 0.184182
O O15 0.500000 0.000000 0.309472
O O16 0.000000 0.500000 0.929213
O O17 0.000000 0.000000 0.944183
#
# Coordination Sequence:
#
# PCOD9366535 Si02
#       7
#     8   8   8   8   8   8   8
#     4  10  21  37  57  81 107 144 193 236 277 331
#     4  12  25  38  58  90 117 144 192 241 283 336
#     4  10  21  38  61  88 113 147 194 235 277 335
#     4  10  21  37  57  84 118 154 188 229 288 346
#     4  10  21  36  55  80 112 149 184 224 282 339
#     4  10  22  39  57  78 111 151 187 229 287 342
#     4  10  22  41  62  83 115 155 188 226 286 347
#
# _framework density 19.727224
#
# number of rings (size 3 to 8) (size 9 to 14) (size 15 to 20)
#    0.000    1.714    0.000    3.857    0.000    6.857 
#    0.000    2.143    0.000    0.000    0.000    0.000 
#    0.000    0.000    0.000    0.000    0.000    0.000 
#
# Total GULP energy -156422.604428 kJ/mol
# GULP energy per Si atom -5586.521587 kJ/mol
# Density = 1.968232 g / cm^3
# Si number density = 19.727224 Si / 1000 Ang^3
#
#
#
# Elastic Constant Matrix: (Units=GPa)
#
#
# Indices 1 2 3 4 5 6 
#
# 1 39.9545 0.1593 50.8583 0.0000 0.0000 0.0000
# 2 0.1593 75.9505 -7.9421 0.0000 0.0000 0.0000
# 3 50.8583 -7.9421 103.1332 0.0000 0.0000 0.0000
# 4 0.0000 0.0000 0.0000 35.2949 0.0000 0.0000
# 5 0.0000 0.0000 0.0000 0.0000 44.7447 0.0000
# 6 0.0000 0.0000 0.0000 0.0000 0.0000 35.3452
#
#
#
# Elastic Compliance Matrix: (Units=1/GPa)
#
#
# Indices 1 2 3 4 5 6 
#
# 1 0.068240 -0.003692 -0.033936 0.000000 0.000000 0.000000
# 2 -0.003692 0.013473 0.002858 0.000000 0.000000 0.000000
# 3 -0.033936 0.002858 0.026651 0.000000 0.000000 0.000000
# 4 0.000000 0.000000 0.000000 0.028333 0.000000 0.000000
# 5 0.000000 0.000000 0.000000 0.000000 0.022349 0.000000
# 6 0.000000 0.000000 0.000000 0.000000 0.000000 0.028292
#
#
# Mechanical properties :
#
#
# Convention : Reuss Voigt Hill
#
# Bulk Modulus (GPa) = 25.75629 33.90990 29.83310
# Shear Modulus (GPa) = 18.53099 34.80779 26.66939
#
# Velocity S-wave (km/s) = 3.06823 4.20510 3.68082
# Velocity P-wave (km/s) = 5.06326 6.38779 5.76370
#
# Compressibility (1/GPa) = 0.03882546
#
# Stress axis : x y z
#
# Youngs Moduli (GPa) = 14.65420 74.22208 37.52207
#
# Poissons Ratio (x) = 0.27401 1.27333
# Poissons Ratio (y) = 0.05410 -0.10724
# Poissons Ratio (z) = 0.49730 -0.21213
#
# Static dielectric constant tensor:
#      x y z
#    x 1.663100 0.000000 0.000000 
#    y 0.000000 1.655040 0.000000 
#    z 0.000000 0.000000 1.690200 
# 
# From -- ./inp_files/12734.got.cif
#   From: 2010.05.17/outbox.cif.g08.bks.cpg/sg41_7_cif.got.tgz:12734.got - 2010.06.03 18:54:24.
