data_PCOD9366107
_publ_section_title
;
Structure prediction by ZEFSAII (Michael W. Deem and Ramdas Pophale) SiO2 
 PCOD9366107
Probable space group: A B A 2
;
_chemical_formula_sum "Si O2"
_cell_formula_units_Z 48
_cell_length_a 15.346050
_cell_length_b 17.208266
_cell_length_c 10.032201
_cell_angle_alpha 90.000000
_cell_angle_beta 90.000000
_cell_angle_gamma 90.000000
_cell_volume 2649.292709
_symmetry_space_group_name_H-M "A B A 2"
_symmetry_group_IT_number 41
_symmetry_cell_setting 'orthorhombic'
loop_
_space_group_symop_operation_xyz
x,y,z
-x,-y,z
1/2-x,y,1/2+z
1/2+x,-y,1/2+z
x,1/2+y,1/2+z
-x,1/2-y,1/2+z
1/2-x,1/2+y,z
1/2+x,1/2-y,z
loop_
_atom_site_type_symbol
_atom_site_label
_atom_site_fract_x
_atom_site_fract_y
_atom_site_fract_z
Si Si1 0.906978 0.540731 0.085110
Si Si2 0.425151 0.775262 0.096257
Si Si3 0.228756 0.072818 0.465999
Si Si4 0.910016 0.468921 0.366829
Si Si5 0.260733 0.682755 0.213250
Si Si6 0.576686 0.789459 0.302861
O O1 0.910769 0.633013 0.072882
O O2 0.886434 0.521676 0.239916
O O3 0.000000 0.500000 0.059345
O O4 0.837762 0.496596 0.992855
O O5 0.340756 0.734873 0.163318
O O6 0.506966 0.762720 0.194399
O O7 0.442294 0.739138 0.951434
O O8 0.326817 0.039352 0.459816
O O9 0.226260 0.132638 0.588467
O O10 0.213705 0.122382 0.331044
O O11 0.927490 0.383129 0.308811
O O12 0.000000 0.500000 0.427680
O O13 0.176768 0.730089 0.266164
#
# Coordination Sequence:
#
# PCOD9366107 Si02
#       6
#     8   8   8   8   8   8
#     4  11  22  42  66  92 128 174 210 262 325 390
#     4  12  25  41  70  98 129 172 227 270 321 389
#     4  11  21  43  69  90 129 174 213 265 328 388
#     4  10  19  42  66  89 124 174 209 250 333 382
#     4  11  23  43  65  94 130 172 214 265 331 385
#     4  11  24  43  65  97 131 174 213 271 330 386
#
# _framework density 18.118043
#
# number of rings (size 3 to 8) (size 9 to 14) (size 15 to 20)
#    0.000    1.000   10.000    0.000    4.667    1.333 
#    3.000    0.833    0.000    0.000    0.000    0.000 
#    0.000    0.000    0.000    0.000    0.000    0.000 
#
# Total GULP energy -133944.108909 kJ/mol
# GULP energy per Si atom -5581.004538 kJ/mol
# Density = 1.807681 g / cm^3
# Si number density = 18.118043 Si / 1000 Ang^3
#
#
#
# Elastic Constant Matrix: (Units=GPa)
#
#
# Indices 1 2 3 4 5 6 
#
# 1 123.8366 27.3506 46.4599 0.0000 0.0000 0.0000
# 2 27.3506 63.7223 25.1300 0.0000 0.0000 0.0000
# 3 46.4599 25.1300 109.7172 0.0000 0.0000 0.0000
# 4 0.0000 0.0000 0.0000 25.1881 0.0000 0.0000
# 5 0.0000 0.0000 0.0000 0.0000 36.4267 0.0000
# 6 0.0000 0.0000 0.0000 0.0000 0.0000 32.9571
#
#
#
# Elastic Compliance Matrix: (Units=1/GPa)
#
#
# Indices 1 2 3 4 5 6 
#
# 1 0.010066 -0.002902 -0.003598 0.000000 0.000000 0.000000
# 2 -0.002902 0.018088 -0.002914 0.000000 0.000000 0.000000
# 3 -0.003598 -0.002914 0.011305 0.000000 0.000000 0.000000
# 4 0.000000 0.000000 0.000000 0.039701 0.000000 0.000000
# 5 0.000000 0.000000 0.000000 0.000000 0.027452 0.000000
# 6 0.000000 0.000000 0.000000 0.000000 0.000000 0.030342
#
#
# Mechanical properties :
#
#
# Convention : Reuss Voigt Hill
#
# Bulk Modulus (GPa) = 48.46898 55.01743 51.74321
# Shear Modulus (GPa) = 30.73909 32.13676 31.43792
#
# Velocity S-wave (km/s) = 4.12345 4.21615 4.17006
# Velocity P-wave (km/s) = 7.03422 7.35753 7.19769
#
# Compressibility (1/GPa) = 0.02063175
#
# Stress axis : x y z
#
# Youngs Moduli (GPa) = 99.34658 55.28608 88.45402
#
# Poissons Ratio (x) = 0.16041 0.31824
# Poissons Ratio (y) = 0.28826 0.25777
# Poissons Ratio (z) = 0.35743 0.16112
#
# Static dielectric constant tensor:
#      x y z
#    x 1.655880 0.000000 0.000000 
#    y 0.000000 1.608320 0.000000 
#    z 0.000000 0.000000 1.611200 
# 
# From -- ./inp_files/2518.got.cif
#   From: 2010.05.17/outbox.cif.g08.bks.cpg/sg41_2_cif.got.tgz:2518.got - 2010.06.03 18:54:24.
