data_PCOD9366399
_publ_section_title
;
Structure prediction by ZEFSAII (Michael W. Deem and Ramdas Pophale) SiO2 
 PCOD9366399
Probable space group: A B A 2
;
_chemical_formula_sum "Si O2"
_cell_formula_units_Z 52
_cell_length_a 8.809016
_cell_length_b 17.858193
_cell_length_c 14.609427
_cell_angle_alpha 90.000000
_cell_angle_beta 90.000000
_cell_angle_gamma 90.000000
_cell_volume 2298.254366
_symmetry_space_group_name_H-M "A B A 2"
_symmetry_group_IT_number 41
_symmetry_cell_setting 'orthorhombic'
loop_
_space_group_symop_operation_xyz
x,y,z
-x,-y,z
1/2-x,y,1/2+z
1/2+x,-y,1/2+z
x,1/2+y,1/2+z
-x,1/2-y,1/2+z
1/2-x,1/2+y,z
1/2+x,1/2-y,z
loop_
_atom_site_type_symbol
_atom_site_label
_atom_site_fract_x
_atom_site_fract_y
_atom_site_fract_z
Si Si1 0.557504 0.113226 0.142060
Si Si2 0.593873 0.844592 0.559349
Si Si3 0.000000 0.000000 0.269014
Si Si4 0.526571 0.833433 0.769767
Si Si5 0.202796 0.309746 0.307695
Si Si6 0.752147 0.703649 0.508785
Si Si7 0.750793 0.471726 0.119195
O O1 0.601867 0.134625 0.246491
O O2 0.383928 0.088276 0.140214
O O3 0.655057 0.045763 0.098026
O O4 0.618444 0.179653 0.078688
O O5 0.601897 0.840106 0.669956
O O6 0.715327 0.792207 0.508558
O O7 0.421714 0.821301 0.536533
O O8 0.641263 0.931580 0.545932
O O9 0.013139 0.082979 0.312476
O O10 0.147214 0.000116 0.203410
O O11 0.615996 0.768488 0.821029
O O12 0.358168 0.802015 0.752024
O O13 0.260232 0.331419 0.408084
#
# Coordination Sequence:
#
# PCOD9366399 Si02
#       7
#     8   8   4   8   8   8   8
#     4  11  22  44  69  99 137 187 232 294 350 427
#     4  11  21  41  67  96 133 182 227 287 351 418
#     4  10  20  40  66 104 132 186 238 286 352 428
#     4  11  22  41  68  96 136 183 231 290 354 415
#     4  12  25  42  67 105 139 180 239 295 349 434
#     4  12  24  42  68 103 138 180 240 292 356 424
#     4  10  22  40  73  95 134 186 232 282 364 419
#
# _framework density 22.625868000000001
#
# number of rings (size 3 to 8) (size 9 to 14) (size 15 to 20)
#    0.000    0.923    4.615    2.769    4.308    0.000 
#    0.000    6.154    0.000    0.000    0.000    0.000 
#    0.000    0.000    0.000    0.000    0.000    0.000 
#
# Total GULP energy -144885.865547 kJ/mol
# GULP energy per Si atom -5572.533290 kJ/mol
# Density = 2.257437 g / cm^3
# Si number density = 22.625868 Si / 1000 Ang^3
#
#
#
# Elastic Constant Matrix: (Units=GPa)
#
#
# Indices 1 2 3 4 5 6 
#
# 1 113.3698 38.4249 -4.8187 0.0000 0.0000 0.0000
# 2 38.4249 108.9382 0.3790 0.0000 0.0000 0.0000
# 3 -4.8187 0.3790 59.8770 0.0000 0.0000 0.0000
# 4 0.0000 0.0000 0.0000 6.6463 0.0000 0.0000
# 5 0.0000 0.0000 0.0000 0.0000 13.6221 0.0000
# 6 0.0000 0.0000 0.0000 0.0000 0.0000 47.9749
#
#
#
# Elastic Compliance Matrix: (Units=1/GPa)
#
#
# Indices 1 2 3 4 5 6 
#
# 1 0.010060 -0.003551 0.000832 0.000000 0.000000 0.000000
# 2 -0.003551 0.010433 -0.000352 0.000000 0.000000 0.000000
# 3 0.000832 -0.000352 0.016770 0.000000 0.000000 0.000000
# 4 0.000000 0.000000 0.000000 0.150460 0.000000 0.000000
# 5 0.000000 0.000000 0.000000 0.000000 0.073410 0.000000
# 6 0.000000 0.000000 0.000000 0.000000 0.000000 0.020844
#
#
# Mechanical properties :
#
#
# Convention : Reuss Voigt Hill
#
# Bulk Modulus (GPa) = 32.13244 38.90615 35.51930
# Shear Modulus (GPa) = 16.75081 30.19531 23.47306
#
# Velocity S-wave (km/s) = 2.72387 3.65711 3.22443
# Velocity P-wave (km/s) = 4.91173 5.92160 5.44015
#
# Compressibility (1/GPa) = 0.03112120
#
# Stress axis : x y z
#
# Youngs Moduli (GPa) = 99.40679 95.84677 59.62995
#
# Poissons Ratio (x) = 0.34037 -0.04961
# Poissons Ratio (y) = 0.35301 0.02098
# Poissons Ratio (z) = -0.08271 0.03372
#
# Static dielectric constant tensor:
#      x y z
#    x 1.849460 0.000000 0.000000 
#    y 0.000000 1.965690 0.000000 
#    z 0.000000 0.000000 1.858600 
# 
# From -- ./inp_files/7418.got.cif
#   From: 2010.05.17/outbox.cif.g08.bks.cpg/sg41_4_cif.got.tgz:7418.got - 2010.06.03 18:54:24.
