data_PCOD9366027
_publ_section_title
;
Structure prediction by ZEFSAII (Michael W. Deem and Ramdas Pophale) SiO2 
 PCOD9366027
Probable space group: A B A 2
;
_chemical_formula_sum "Si O2"
_cell_formula_units_Z 52
_cell_length_a 16.748997
_cell_length_b 8.705758
_cell_length_c 17.215479
_cell_angle_alpha 90.000000
_cell_angle_beta 90.000000
_cell_angle_gamma 90.000000
_cell_volume 2510.235727
_symmetry_space_group_name_H-M "A B A 2"
_symmetry_group_IT_number 41
_symmetry_cell_setting 'orthorhombic'
loop_
_space_group_symop_operation_xyz
x,y,z
-x,-y,z
1/2-x,y,1/2+z
1/2+x,-y,1/2+z
x,1/2+y,1/2+z
-x,1/2-y,1/2+z
1/2-x,1/2+y,z
1/2+x,1/2-y,z
loop_
_atom_site_type_symbol
_atom_site_label
_atom_site_fract_x
_atom_site_fract_y
_atom_site_fract_z
Si Si1 0.500000 0.000000 0.385051
Si Si2 0.944154 0.726528 0.262599
Si Si3 0.204548 0.105049 0.226445
Si Si4 0.421613 0.373415 0.167131
Si Si5 0.783742 0.201613 0.563782
Si Si6 0.635855 0.501891 0.010757
Si Si7 0.636120 0.467067 0.669442
O O1 0.505589 0.152232 0.331746
O O2 0.578808 0.010906 0.437284
O O3 0.856262 0.798214 0.279918
O O4 0.924948 0.587477 0.204765
O O5 0.997230 0.849110 0.215745
O O6 0.217684 0.204819 0.146674
O O7 0.152808 0.951303 0.212108
O O8 0.295755 0.055144 0.236819
O O9 0.417916 0.468403 0.087373
O O10 0.399005 0.197136 0.149855
O O11 0.826816 0.330501 0.512539
O O12 0.705089 0.131060 0.523011
O O13 0.829318 0.048422 0.592391
#
# Coordination Sequence:
#
# PCOD9366027 Si02
#       7
#     4   8   8   8   8   8   8
#     4  12  28  46  60  96 152 186 212 276 362 422
#     4  11  24  42  60  95 139 175 221 269 341 417
#     4  10  20  35  69  96 124 161 233 284 329 385
#     4  11  19  37  69  99 125 171 225 282 332 399
#     4  10  19  37  64 103 123 167 228 286 325 401
#     4  11  23  40  70  94 139 173 227 282 350 402
#     4  11  18  37  68 100 128 156 232 291 321 385
#
# _framework density 20.715187
#
# number of rings (size 3 to 8) (size 9 to 14) (size 15 to 20)
#    0.000    1.231    6.154    1.385    6.462    0.000 
#    2.769    0.000   10.154    0.000    0.000    0.000 
#    0.000    0.000    0.000    0.000    0.000    0.000 
#
# Total GULP energy -144742.178042 kJ/mol
# GULP energy per Si atom -5567.006848 kJ/mol
# Density = 2.066804 g / cm^3
# Si number density = 20.715187 Si / 1000 Ang^3
#
#
#
# Elastic Constant Matrix: (Units=GPa)
#
#
# Indices 1 2 3 4 5 6 
#
# 1 124.8550 48.1027 36.3517 0.0000 0.0000 0.0000
# 2 48.1027 129.4769 21.2058 0.0000 0.0000 0.0000
# 3 36.3517 21.2058 60.1605 0.0000 0.0000 0.0000
# 4 0.0000 0.0000 0.0000 13.6048 0.0000 0.0000
# 5 0.0000 0.0000 0.0000 0.0000 25.4877 0.0000
# 6 0.0000 0.0000 0.0000 0.0000 0.0000 50.9077
#
#
#
# Elastic Compliance Matrix: (Units=1/GPa)
#
#
# Indices 1 2 3 4 5 6 
#
# 1 0.010790 -0.003121 -0.005419 0.000000 0.000000 0.000000
# 2 -0.003121 0.009099 -0.001322 0.000000 0.000000 0.000000
# 3 -0.005419 -0.001322 0.020363 0.000000 0.000000 0.000000
# 4 0.000000 0.000000 0.000000 0.073504 0.000000 0.000000
# 5 0.000000 0.000000 0.000000 0.000000 0.039235 0.000000
# 6 0.000000 0.000000 0.000000 0.000000 0.000000 0.019643
#
#
# Mechanical properties :
#
#
# Convention : Reuss Voigt Hill
#
# Bulk Modulus (GPa) = 48.71471 58.42365 53.56918
# Shear Modulus (GPa) = 25.10044 31.92218 28.51131
#
# Velocity S-wave (km/s) = 3.48471 3.92982 3.71394
# Velocity P-wave (km/s) = 6.30543 6.98970 6.65636
#
# Compressibility (1/GPa) = 0.02052768
#
# Stress axis : x y z
#
# Youngs Moduli (GPa) = 92.68228 109.89860 49.10931
#
# Poissons Ratio (x) = 0.34298 0.26615
# Poissons Ratio (y) = 0.28925 0.06490
# Poissons Ratio (z) = 0.50229 0.14524
#
# Static dielectric constant tensor:
#      x y z
#    x 1.894010 0.000000 0.000000 
#    y 0.000000 1.799130 0.000000 
#    z 0.000000 0.000000 1.727980 
# 
# From -- ./inp_files/10558.got.cif
#   From: 2010.05.17/outbox.cif.g08.bks.cpg/sg41_6_cif.got.tgz:10558.got - 2010.06.03 18:54:24.
