data_PCOD9366351
_publ_section_title
;
Structure prediction by ZEFSAII (Michael W. Deem and Ramdas Pophale) SiO2 
 PCOD9366351
Probable space group: A B A 2
;
_chemical_formula_sum "Si O2"
_cell_formula_units_Z 64
_cell_length_a 22.058119
_cell_length_b 10.978180
_cell_length_c 12.388228
_cell_angle_alpha 90.000000
_cell_angle_beta 90.000000
_cell_angle_gamma 90.000000
_cell_volume 2999.908526
_symmetry_space_group_name_H-M "A B A 2"
_symmetry_group_IT_number 41
_symmetry_cell_setting 'orthorhombic'
loop_
_space_group_symop_operation_xyz
x,y,z
-x,-y,z
1/2-x,y,1/2+z
1/2+x,-y,1/2+z
x,1/2+y,1/2+z
-x,1/2-y,1/2+z
1/2-x,1/2+y,z
1/2+x,1/2-y,z
loop_
_atom_site_type_symbol
_atom_site_label
_atom_site_fract_x
_atom_site_fract_y
_atom_site_fract_z
Si Si1 0.137279 0.114676 0.407690
Si Si2 0.903912 0.137911 0.335560
Si Si3 0.961350 0.115598 0.113688
Si Si4 0.177555 0.646070 0.329566
Si Si5 0.706491 0.853715 0.699521
Si Si6 0.761163 0.738843 0.510615
Si Si7 0.655435 0.524058 0.009961
Si Si8 0.505818 0.858976 0.010959
O O1 0.161092 0.176381 0.296880
O O2 0.184397 0.161748 0.497965
O O3 0.068556 0.141050 0.442471
O O4 0.138812 0.971039 0.378295
O O5 0.944808 0.091016 0.237637
O O6 0.868004 0.252518 0.285606
O O7 0.948691 0.169018 0.433747
O O8 0.899436 0.107713 0.046616
O O9 0.990216 0.248316 0.095632
O O10 0.000000 0.000000 0.074980
O O11 0.230760 0.596525 0.252646
O O12 0.213519 0.720048 0.422077
O O13 0.142075 0.547145 0.399961
O O14 0.730808 0.742533 0.627659
O O15 0.673572 0.940043 0.612307
O O16 0.787390 0.608094 0.486444
O O17 0.500000 0.000000 0.050996
#
# Coordination Sequence:
#
# PCOD9366351 Si02
#       8
#     8   8   8   8   8   8   8   8
#     4  10  20  39  65  92 121 171 210 266 319 394
#     4  11  23  42  68  90 129 167 219 261 334 385
#     4  12  23  41  73  94 128 168 221 276 330 395
#     4  10  24  38  60  94 133 166 213 268 323 389
#     4  10  22  36  60  94 127 164 213 253 332 380
#     4  10  22  38  63  90 129 163 212 262 320 379
#     4  11  22  40  62  95 126 170 214 267 324 386
#     4  10  23  44  67  95 129 172 219 274 327 393
#
# _framework density 21.333984000000001
#
# number of rings (size 3 to 8) (size 9 to 14) (size 15 to 20)
#    0.000    1.500    2.500    2.625    5.250    1.000 
#    0.000    1.875    0.000    0.000    0.000    0.000 
#    0.000    0.000    0.000    0.000    0.000    0.000 
#
# Total GULP energy -178521.452120 kJ/mol
# GULP energy per Si atom -5578.795379 kJ/mol
# Density = 2.128543 g / cm^3
# Si number density = 21.333984 Si / 1000 Ang^3
#
#
#
# Elastic Constant Matrix: (Units=GPa)
#
#
# Indices 1 2 3 4 5 6 
#
# 1 50.8752 13.1373 1.4988 0.0000 0.0000 0.0000
# 2 13.1373 80.5546 5.5441 0.0000 0.0000 0.0000
# 3 1.4988 5.5441 36.5699 0.0000 0.0000 0.0000
# 4 0.0000 0.0000 0.0000 16.7295 0.0000 0.0000
# 5 0.0000 0.0000 0.0000 0.0000 23.8381 0.0000
# 6 0.0000 0.0000 0.0000 0.0000 0.0000 35.5357
#
#
#
# Elastic Compliance Matrix: (Units=1/GPa)
#
#
# Indices 1 2 3 4 5 6 
#
# 1 0.020524 -0.003324 -0.000337 0.000000 0.000000 0.000000
# 2 -0.003324 0.013083 -0.001847 0.000000 0.000000 0.000000
# 3 -0.000337 -0.001847 0.027639 0.000000 0.000000 0.000000
# 4 0.000000 0.000000 0.000000 0.059775 0.000000 0.000000
# 5 0.000000 0.000000 0.000000 0.000000 0.041950 0.000000
# 6 0.000000 0.000000 0.000000 0.000000 0.000000 0.028141
#
#
# Mechanical properties :
#
#
# Convention : Reuss Voigt Hill
#
# Bulk Modulus (GPa) = 19.90872 23.15112 21.52992
# Shear Modulus (GPa) = 22.84449 25.07531 23.95990
#
# Velocity S-wave (km/s) = 3.27586 3.43209 3.35488
# Velocity P-wave (km/s) = 4.86421 5.15567 5.01206
#
# Compressibility (1/GPa) = 0.05022924
#
# Stress axis : x y z
#
# Youngs Moduli (GPa) = 48.72297 76.43408 36.18104
#
# Poissons Ratio (x) = 0.25407 0.01220
# Poissons Ratio (y) = 0.16195 0.06683
# Poissons Ratio (z) = 0.01643 0.14119
#
# Static dielectric constant tensor:
#      x y z
#    x 1.792690 0.000000 0.000000 
#    y 0.000000 1.816550 0.000000 
#    z 0.000000 0.000000 1.765820 
# 
# From -- ./inp_files/6472.got.cif
#   From: 2010.05.17/outbox.cif.g08.bks.cpg/sg41_4_cif.got.tgz:6472.got - 2010.06.03 18:54:24.
