data_PCOD9366954
_publ_section_title
;
Structure prediction by ZEFSAII (Michael W. Deem and Ramdas Pophale) SiO2 
 PCOD9366954
Probable space group: A B A 2
;
_chemical_formula_sum "Si O2"
_cell_formula_units_Z 48
_cell_length_a 8.934374
_cell_length_b 27.598071
_cell_length_c 9.569129
_cell_angle_alpha 90.000000
_cell_angle_beta 90.000000
_cell_angle_gamma 90.000000
_cell_volume 2359.474376
_symmetry_space_group_name_H-M "A B A 2"
_symmetry_group_IT_number 41
_symmetry_cell_setting 'orthorhombic'
loop_
_space_group_symop_operation_xyz
x,y,z
-x,-y,z
1/2-x,y,1/2+z
1/2+x,-y,1/2+z
x,1/2+y,1/2+z
-x,1/2-y,1/2+z
1/2-x,1/2+y,z
1/2+x,1/2-y,z
loop_
_atom_site_type_symbol
_atom_site_label
_atom_site_fract_x
_atom_site_fract_y
_atom_site_fract_z
Si Si1 0.702676 0.456555 0.096180
Si Si2 0.409342 0.218829 0.625842
Si Si3 0.293551 0.953073 0.407018
Si Si4 0.996893 0.372163 0.482752
Si Si5 0.000000 0.000000 0.323447
Si Si6 0.500000 0.500000 0.680198
Si Si7 0.112769 0.710167 0.305417
O O1 0.614965 0.465030 0.240322
O O2 0.881226 0.462929 0.109962
O O3 0.658679 0.504432 0.011085
O O4 0.635674 0.409648 0.021611
O O5 0.503137 0.169411 0.600485
O O6 0.501967 0.258575 0.709997
O O7 0.265074 0.207213 0.718923
O O8 0.367897 0.232279 0.463728
O O9 0.352587 0.902551 0.464439
O O10 0.117608 0.962355 0.391100
O O11 0.387347 0.965966 0.268367
O O12 0.953323 0.342613 0.343416
#
# Coordination Sequence:
#
# PCOD9366954 Si02
#       7
#     8   8   8   8   4   4   8
#     4  11  20  41  56  97 132 181 221 291 343 433
#     4  10  23  44  72  99 143 183 243 309 378 433
#     4  11  20  41  58  95 134 179 223 294 339 437
#     4  10  23  37  71  92 146 177 252 284 372 439
#     4  10  22  34  66  86 144 180 226 282 366 400
#     4  10  22  32  68  82 142 174 230 280 358 410
#     4  10  23  44  72 101 138 189 236 319 372 439
#
# _framework density 20.343515
#
# number of rings (size 3 to 8) (size 9 to 14) (size 15 to 20)
#    1.000    0.667    3.333    1.500    2.333    0.000 
#    3.000    0.000    3.667    0.000    0.000    0.000 
#    0.000    0.000    0.000    0.000    0.000    0.000 
#
# Total GULP energy -133629.703719 kJ/mol
# GULP energy per Si atom -5567.904322 kJ/mol
# Density = 2.029721 g / cm^3
# Si number density = 20.343515 Si / 1000 Ang^3
#
#
#
# Elastic Constant Matrix: (Units=GPa)
#
#
# Indices 1 2 3 4 5 6 
#
# 1 162.4727 47.7026 48.7076 0.0000 0.0000 0.0000
# 2 47.7026 80.8684 36.6076 0.0000 0.0000 0.0000
# 3 48.7076 36.6076 99.4316 0.0000 0.0000 0.0000
# 4 0.0000 0.0000 0.0000 36.9433 0.0000 0.0000
# 5 0.0000 0.0000 0.0000 0.0000 37.5804 0.0000
# 6 0.0000 0.0000 0.0000 0.0000 0.0000 -27.9039
#
#
#
# Elastic Compliance Matrix: (Units=1/GPa)
#
#
# Indices 1 2 3 4 5 6 
#
# 1 0.007971 -0.003521 -0.002608 0.000000 0.000000 0.000000
# 2 -0.003521 0.016394 -0.004311 0.000000 0.000000 0.000000
# 3 -0.002608 -0.004311 0.012922 0.000000 0.000000 0.000000
# 4 0.000000 0.000000 0.000000 0.027069 0.000000 0.000000
# 5 0.000000 0.000000 0.000000 0.000000 0.026610 0.000000
# 6 0.000000 0.000000 0.000000 0.000000 0.000000 -0.035837
#
#
# Mechanical properties :
#
#
# Convention : Reuss Voigt Hill
#
# Bulk Modulus (GPa) = 60.95177 67.64536 64.29856
# Shear Modulus (GPa) = 61.36714 23.30762 42.33738
#
# Velocity S-wave (km/s) = 5.49827 3.38850 4.56688
# Velocity P-wave (km/s) = 8.38655 6.97373 7.71256
#
# Compressibility (1/GPa) = 0.01640641
#
# Stress axis : x y z
#
# Youngs Moduli (GPa) = 125.46190 60.99693 77.38757
#
# Poissons Ratio (x) = 0.21477 0.20184
# Poissons Ratio (y) = 0.44175 0.33362
# Poissons Ratio (z) = 0.32722 0.26296
#
# Static dielectric constant tensor:
#      x y z
#    x 1.729780 0.000000 0.000000 
#    y 0.000000 1.738000 0.000000 
#    z 0.000000 0.000000 1.946560 
# 
# From -- ./inp_files/4542.got.cif
#   From: 2010.05.17/outbox.cif.g08.bks.cpg/sg41_3_cif.got.tgz:4542.got - 2010.06.03 18:54:24.
