data_PCOD9366645
_publ_section_title
;
Structure prediction by ZEFSAII (Michael W. Deem and Ramdas Pophale) SiO2 
 PCOD9366645
Probable space group: A B A 2
;
_chemical_formula_sum "Si O2"
_cell_formula_units_Z 64
_cell_length_a 23.235269
_cell_length_b 13.759488
_cell_length_c 7.892337
_cell_angle_alpha 90.000000
_cell_angle_beta 90.000000
_cell_angle_gamma 90.000000
_cell_volume 2523.222797
_symmetry_space_group_name_H-M "A B A 2"
_symmetry_group_IT_number 41
_symmetry_cell_setting 'orthorhombic'
loop_
_space_group_symop_operation_xyz
x,y,z
-x,-y,z
1/2-x,y,1/2+z
1/2+x,-y,1/2+z
x,1/2+y,1/2+z
-x,1/2-y,1/2+z
1/2-x,1/2+y,z
1/2+x,1/2-y,z
loop_
_atom_site_type_symbol
_atom_site_label
_atom_site_fract_x
_atom_site_fract_y
_atom_site_fract_z
Si Si1 0.108507 0.338428 0.169150
Si Si2 0.381998 0.522566 0.451366
Si Si3 0.490473 0.631606 0.578103
Si Si4 0.315793 0.558571 0.951991
Si Si5 0.835567 0.147114 0.036119
Si Si6 0.922925 0.886688 0.098545
Si Si7 0.783884 0.852104 0.603826
Si Si8 0.042951 0.839848 0.197361
O O1 0.144863 0.336377 0.341065
O O2 0.095988 0.226805 0.114501
O O3 0.132055 0.414975 0.027392
O O4 0.043713 0.376990 0.205682
O O5 0.439514 0.555772 0.553701
O O6 0.403120 0.552730 0.263549
O O7 0.327141 0.592283 0.476955
O O8 0.459179 0.728410 0.640237
O O9 0.521440 0.646295 0.392031
O O10 0.300974 0.453510 0.026514
O O11 0.384438 0.569878 0.950351
O O12 0.283034 0.638746 0.062152
O O13 0.293854 0.584444 0.769300
O O14 0.802422 0.240243 0.107398
O O15 0.892705 0.132307 0.148716
O O16 0.991386 0.889188 0.091941
#
# Coordination Sequence:
#
# PCOD9366645 Si02
#       8
#     8   8   8   8   8   8   8   8
#     4  11  23  41  70 106 146 198 236 290 379 438
#     4  11  21  43  71 101 150 191 244 299 360 444
#     4  10  21  38  68 111 152 196 235 294 370 447
#     4  12  30  49  75 108 136 195 248 313 381 448
#     4  12  26  48  76 108 146 195 249 306 382 458
#     4  10  24  44  72 109 152 188 240 302 365 450
#     4  12  27  49  75 102 144 183 254 318 369 443
#     4  10  21  40  70 108 155 191 236 297 375 451
#
# _framework density 25.364388999999999
#
# number of rings (size 3 to 8) (size 9 to 14) (size 15 to 20)
#    0.000    1.000    3.750    2.625    5.250    3.500 
#    2.250    0.000    0.000    0.000    0.000    0.000 
#    0.000    0.000    0.000    0.000    0.000    0.000 
#
# Total GULP energy -178889.044838 kJ/mol
# GULP energy per Si atom -5590.282651 kJ/mol
# Density = 2.530666 g / cm^3
# Si number density = 25.364389 Si / 1000 Ang^3
#
#
#
# Elastic Constant Matrix: (Units=GPa)
#
#
# Indices 1 2 3 4 5 6 
#
# 1 85.2326 31.9157 20.3523 0.0000 0.0000 0.0000
# 2 31.9157 186.3987 15.9373 0.0000 0.0000 0.0000
# 3 20.3523 15.9373 62.4742 0.0000 0.0000 0.0000
# 4 0.0000 0.0000 0.0000 25.2548 0.0000 0.0000
# 5 0.0000 0.0000 0.0000 0.0000 19.3069 0.0000
# 6 0.0000 0.0000 0.0000 0.0000 0.0000 12.2246
#
#
#
# Elastic Compliance Matrix: (Units=1/GPa)
#
#
# Indices 1 2 3 4 5 6 
#
# 1 0.013389 -0.001962 -0.003861 0.000000 0.000000 0.000000
# 2 -0.001962 0.005772 -0.000833 0.000000 0.000000 0.000000
# 3 -0.003861 -0.000833 0.017477 0.000000 0.000000 0.000000
# 4 0.000000 0.000000 0.000000 0.039597 0.000000 0.000000
# 5 0.000000 0.000000 0.000000 0.000000 0.051795 0.000000
# 6 0.000000 0.000000 0.000000 0.000000 0.000000 0.081802
#
#
# Mechanical properties :
#
#
# Convention : Reuss Voigt Hill
#
# Bulk Modulus (GPa) = 42.87278 52.27957 47.57617
# Shear Modulus (GPa) = 21.65241 29.08393 25.36817
#
# Velocity S-wave (km/s) = 2.92491 3.38989 3.16594
# Velocity P-wave (km/s) = 5.32411 5.99816 5.67116
#
# Compressibility (1/GPa) = 0.02332482
#
# Stress axis : x y z
#
# Youngs Moduli (GPa) = 74.68559 173.24738 57.21791
#
# Poissons Ratio (x) = 0.33999 0.22093
# Poissons Ratio (y) = 0.14657 0.04767
# Poissons Ratio (z) = 0.28838 0.14434
#
# Static dielectric constant tensor:
#      x y z
#    x 2.018520 0.000000 0.000000 
#    y 0.000000 2.049940 0.000000 
#    z 0.000000 0.000000 2.068790 
# 
# From -- ./inp_files/3712.got.cif
#   From: 2010.05.17/outbox.cif.g08.bks.cpg/sg41_2_cif.got.tgz:3712.got - 2010.06.03 18:54:24.
