data_PCOD9366736
_publ_section_title
;
Structure prediction by ZEFSAII (Michael W. Deem and Ramdas Pophale) SiO2 
 PCOD9366736
Probable space group: A B A 2
;
_chemical_formula_sum "Si O2"
_cell_formula_units_Z 64
_cell_length_a 16.915926
_cell_length_b 13.706530
_cell_length_c 12.983984
_cell_angle_alpha 90.000000
_cell_angle_beta 90.000000
_cell_angle_gamma 90.000000
_cell_volume 3010.448965
_symmetry_space_group_name_H-M "A B A 2"
_symmetry_group_IT_number 41
_symmetry_cell_setting 'orthorhombic'
loop_
_space_group_symop_operation_xyz
x,y,z
-x,-y,z
1/2-x,y,1/2+z
1/2+x,-y,1/2+z
x,1/2+y,1/2+z
-x,1/2-y,1/2+z
1/2-x,1/2+y,z
1/2+x,1/2-y,z
loop_
_atom_site_type_symbol
_atom_site_label
_atom_site_fract_x
_atom_site_fract_y
_atom_site_fract_z
Si Si1 0.527068 0.612387 0.830770
Si Si2 0.161879 0.363360 0.500320
Si Si3 0.585193 0.720318 0.627651
Si Si4 0.954495 0.694332 0.896478
Si Si5 0.785560 0.654673 0.822031
Si Si6 0.733169 0.287021 0.643534
Si Si7 0.286518 0.511445 0.168592
Si Si8 0.553791 0.407210 0.240935
O O1 0.500000 0.500000 0.824361
O O2 0.587804 0.626093 0.925654
O O3 0.567420 0.648531 0.723570
O O4 0.460022 0.692972 0.858888
O O5 0.236369 0.351644 0.424950
O O6 0.168340 0.271192 0.577256
O O7 0.174030 0.457520 0.571916
O O8 0.553773 0.685767 0.518210
O O9 0.678305 0.747947 0.615393
O O10 0.541765 0.821221 0.658476
O O11 0.878053 0.644433 0.845028
O O12 0.029986 0.639480 0.849686
O O13 0.775736 0.756154 0.762260
O O14 0.754636 0.572600 0.742784
O O15 0.729273 0.402900 0.632467
O O16 0.355411 0.564004 0.232921
O O17 0.500000 0.500000 0.218888
#
# Coordination Sequence:
#
# PCOD9366736 Si02
#       8
#     8   8   8   8   8   8   8   8
#     4  11  27  44  66  99 140 182 226 282 344 415
#     4  11  24  42  68  99 130 178 221 280 339 403
#     4  10  22  42  65  96 134 175 219 279 338 395
#     4  11  24  42  69  98 132 181 222 281 340 403
#     4  11  22  43  66  96 135 167 226 277 336 404
#     4  10  22  43  67  94 134 170 218 285 334 399
#     4  10  24  41  66  97 128 175 222 274 330 411
#     4  10  21  40  64  96 129 167 222 272 328 399
#
# _framework density 21.259288000000002
#
# number of rings (size 3 to 8) (size 9 to 14) (size 15 to 20)
#    0.000    1.500    3.750    0.000    5.250    3.500 
#    0.000    0.000    0.000    0.000    0.000    0.000 
#    0.000    0.000    0.000    0.000    0.000    0.000 
#
# Total GULP energy -178752.601114 kJ/mol
# GULP energy per Si atom -5586.018785 kJ/mol
# Density = 2.121090 g / cm^3
# Si number density = 21.259288 Si / 1000 Ang^3
#
#
#
# Elastic Constant Matrix: (Units=GPa)
#
#
# Indices 1 2 3 4 5 6 
#
# 1 30.5664 21.7851 18.4207 0.0000 0.0000 0.0000
# 2 21.7851 134.6789 33.6995 0.0000 0.0000 0.0000
# 3 18.4207 33.6995 113.5342 0.0000 0.0000 0.0000
# 4 0.0000 0.0000 0.0000 12.5745 0.0000 0.0000
# 5 0.0000 0.0000 0.0000 0.0000 11.3430 0.0000
# 6 0.0000 0.0000 0.0000 0.0000 0.0000 25.3729
#
#
#
# Elastic Compliance Matrix: (Units=1/GPa)
#
#
# Indices 1 2 3 4 5 6 
#
# 1 0.039305 -0.005144 -0.004850 0.000000 0.000000 0.000000
# 2 -0.005144 0.008694 -0.001746 0.000000 0.000000 0.000000
# 3 -0.004850 -0.001746 0.010113 0.000000 0.000000 0.000000
# 4 0.000000 0.000000 0.000000 0.079526 0.000000 0.000000
# 5 0.000000 0.000000 0.000000 0.000000 0.088160 0.000000
# 6 0.000000 0.000000 0.000000 0.000000 0.000000 0.039412
#
#
# Mechanical properties :
#
#
# Convention : Reuss Voigt Hill
#
# Bulk Modulus (GPa) = 28.87556 47.39890 38.13723
# Shear Modulus (GPa) = 16.65362 23.51635 20.08499
#
# Velocity S-wave (km/s) = 2.80189 3.32952 3.07703
# Velocity P-wave (km/s) = 4.90709 6.09302 5.53193
#
# Compressibility (1/GPa) = 0.03463137
#
# Stress axis : x y z
#
# Youngs Moduli (GPa) = 25.44207 115.02121 98.88165
#
# Poissons Ratio (x) = 0.59169 0.47960
# Poissons Ratio (y) = 0.13088 0.17264
# Poissons Ratio (z) = 0.12340 0.20082
#
# Static dielectric constant tensor:
#      x y z
#    x 1.798660 0.000000 0.000000 
#    y 0.000000 1.794770 0.000000 
#    z 0.000000 0.000000 1.737790 
# 
# From -- ./inp_files/6023.got.cif
#   From: 2010.05.17/outbox.cif.g08.bks.cpg/sg41_4_cif.got.tgz:6023.got - 2010.06.03 18:54:24.
