data_PCOD9366062
_publ_section_title
;
Structure prediction by ZEFSAII (Michael W. Deem and Ramdas Pophale) SiO2 
 PCOD9366062
Probable space group: A B A 2
;
_chemical_formula_sum "Si O2"
_cell_formula_units_Z 52
_cell_length_a 27.685312
_cell_length_b 5.230182
_cell_length_c 18.053171
_cell_angle_alpha 90.000000
_cell_angle_beta 90.000000
_cell_angle_gamma 90.000000
_cell_volume 2614.085088
_symmetry_space_group_name_H-M "A B A 2"
_symmetry_group_IT_number 41
_symmetry_cell_setting 'orthorhombic'
loop_
_space_group_symop_operation_xyz
x,y,z
-x,-y,z
1/2-x,y,1/2+z
1/2+x,-y,1/2+z
x,1/2+y,1/2+z
-x,1/2-y,1/2+z
1/2-x,1/2+y,z
1/2+x,1/2-y,z
loop_
_atom_site_type_symbol
_atom_site_label
_atom_site_fract_x
_atom_site_fract_y
_atom_site_fract_z
Si Si1 0.500000 0.500000 0.050560
Si Si2 0.218458 0.834193 0.257158
Si Si3 0.094371 0.814937 0.763416
Si Si4 0.855304 0.499587 0.647478
Si Si5 0.558654 0.893367 0.137197
Si Si6 0.901489 0.767341 0.013580
Si Si7 0.621275 0.671063 0.346935
O O1 0.514474 0.734919 0.103464
O O2 0.548605 0.430610 0.006206
O O3 0.243175 0.560758 0.265187
O O4 0.175459 0.870457 0.316623
O O5 0.192319 0.864701 0.177038
O O6 0.136142 0.740325 0.703190
O O7 0.089271 0.559851 0.812375
O O8 0.053640 0.918817 0.707396
O O9 0.106750 0.050996 0.815992
O O10 0.901601 0.681638 0.661793
O O11 0.861786 0.418785 0.562512
O O12 0.582626 0.040158 0.068169
O O13 0.883298 0.676192 0.934910
#
# Coordination Sequence:
#
# PCOD9366062 Si02
#       7
#     4   8   8   8   8   8   8
#     4  10  22  40  66  96 124 166 226 268 326 372
#     4  11  22  39  65  96 128 166 219 272 315 385
#     4  10  19  38  66  91 122 167 217 254 310 396
#     4   9  20  39  65  95 120 170 214 254 327 378
#     4  10  19  40  68  93 124 168 219 261 320 394
#     4  10  23  39  69  90 133 173 213 267 325 406
#     4  11  23  40  66  96 131 174 213 257 340 389
#
# _framework density 19.892234999999999
#
# number of rings (size 3 to 8) (size 9 to 14) (size 15 to 20)
#    0.000    1.846    3.077    2.308    6.462    0.000 
#    0.000    1.538   13.538    0.000    0.000    0.000 
#    0.000    0.000    0.000    0.000    0.000    0.000 
#
# Total GULP energy -144968.207633 kJ/mol
# GULP energy per Si atom -5575.700294 kJ/mol
# Density = 1.984696 g / cm^3
# Si number density = 19.892235 Si / 1000 Ang^3
#
#
#
# Elastic Constant Matrix: (Units=GPa)
#
#
# Indices 1 2 3 4 5 6 
#
# 1 65.8387 13.1407 34.5517 0.0000 0.0000 0.0000
# 2 13.1407 100.3791 41.4818 0.0000 0.0000 0.0000
# 3 34.5517 41.4818 157.7860 0.0000 0.0000 0.0000
# 4 0.0000 0.0000 0.0000 29.7377 0.0000 0.0000
# 5 0.0000 0.0000 0.0000 0.0000 26.7785 0.0000
# 6 0.0000 0.0000 0.0000 0.0000 0.0000 27.9226
#
#
#
# Elastic Compliance Matrix: (Units=1/GPa)
#
#
# Indices 1 2 3 4 5 6 
#
# 1 0.017215 -0.000781 -0.003565 0.000000 0.000000 0.000000
# 2 -0.000781 0.011212 -0.002777 0.000000 0.000000 0.000000
# 3 -0.003565 -0.002777 0.007848 0.000000 0.000000 0.000000
# 4 0.000000 0.000000 0.000000 0.033627 0.000000 0.000000
# 5 0.000000 0.000000 0.000000 0.000000 0.037343 0.000000
# 6 0.000000 0.000000 0.000000 0.000000 0.000000 0.035813
#
#
# Mechanical properties :
#
#
# Convention : Reuss Voigt Hill
#
# Bulk Modulus (GPa) = 45.38925 55.81690 50.60307
# Shear Modulus (GPa) = 30.36808 32.54307 31.45557
#
# Velocity S-wave (km/s) = 3.91145 4.04910 3.98087
# Velocity P-wave (km/s) = 6.57772 7.06971 6.82815
#
# Compressibility (1/GPa) = 0.02203165
#
# Stress axis : x y z
#
# Youngs Moduli (GPa) = 58.08865 89.19108 127.41727
#
# Poissons Ratio (x) = 0.06962 0.45418
# Poissons Ratio (y) = 0.04534 0.35379
# Poissons Ratio (z) = 0.20706 0.24765
#
# Static dielectric constant tensor:
#      x y z
#    x 1.770050 0.000000 0.000000 
#    y 0.000000 1.786900 0.000000 
#    z 0.000000 0.000000 1.675450 
# 
# From -- ./inp_files/10780.got.cif
#   From: 2010.05.17/outbox.cif.g08.bks.cpg/sg41_6_cif.got.tgz:10780.got - 2010.06.03 18:54:24.
