data_PCOD9366253
_publ_section_title
;
Structure prediction by ZEFSAII (Michael W. Deem and Ramdas Pophale) SiO2 
 PCOD9366253
Probable space group: A B A 2
;
_chemical_formula_sum "Si O2"
_cell_formula_units_Z 56
_cell_length_a 8.630264
_cell_length_b 13.743272
_cell_length_c 21.666783
_cell_angle_alpha 90.000000
_cell_angle_beta 90.000000
_cell_angle_gamma 90.000000
_cell_volume 2569.855219
_symmetry_space_group_name_H-M "A B A 2"
_symmetry_group_IT_number 41
_symmetry_cell_setting 'orthorhombic'
loop_
_space_group_symop_operation_xyz
x,y,z
-x,-y,z
1/2-x,y,1/2+z
1/2+x,-y,1/2+z
x,1/2+y,1/2+z
-x,1/2-y,1/2+z
1/2-x,1/2+y,z
1/2+x,1/2-y,z
loop_
_atom_site_type_symbol
_atom_site_label
_atom_site_fract_x
_atom_site_fract_y
_atom_site_fract_z
Si Si1 0.467257 0.864510 0.063900
Si Si2 0.537658 0.683189 0.821977
Si Si3 0.000000 0.000000 0.672647
Si Si4 0.200667 0.627126 0.864852
Si Si5 0.225403 0.198395 0.112660
Si Si6 0.743915 0.019618 0.764068
Si Si7 0.456803 0.816325 0.702264
Si Si8 0.000000 0.000000 0.457314
O O1 0.428274 0.919820 0.127680
O O2 0.654182 0.860907 0.070767
O O3 0.380961 0.763085 0.067933
O O4 0.420907 0.923622 0.003925
O O5 0.384812 0.645679 0.857417
O O6 0.621532 0.767420 0.861209
O O7 0.651150 0.593333 0.806036
O O8 0.496764 0.739534 0.757288
O O9 0.136817 0.031772 0.717348
O O10 0.164948 0.563103 0.804126
O O11 0.124597 0.561055 0.917910
O O12 0.339458 0.262828 0.155328
O O13 0.104873 0.153646 0.161320
O O14 0.629052 0.091050 0.729504
#
# Coordination Sequence:
#
# PCOD9366253 Si02
#       8
#     8   8   4   8   8   8   8   4
#     4  10  23  44  69  92 133 181 233 287 355 417
#     4  12  23  42  67 102 144 188 231 291 373 440
#     4  11  20  38  64 100 140 181 212 292 358 437
#     4  12  27  44  68 100 135 192 245 297 360 429
#     4  10  20  37  68 101 129 177 225 281 360 431
#     4  12  22  39  68 106 149 185 230 296 372 449
#     4  11  19  35  65 106 145 172 220 277 359 452
#     4  11  28  50  68  90 134 187 254 302 346 423
#
# _framework density 21.79111
#
# number of rings (size 3 to 8) (size 9 to 14) (size 15 to 20)
#    0.000    0.857    5.714    1.714    2.000    1.143 
#    0.000    0.000    6.286    0.000    0.000    0.000 
#    0.000    0.000    0.000    0.000    0.000    0.000 
#
# Total GULP energy -156483.600731 kJ/mol
# GULP energy per Si atom -5588.700026 kJ/mol
# Density = 2.174151 g / cm^3
# Si number density = 21.791110 Si / 1000 Ang^3
#
#
#
# Elastic Constant Matrix: (Units=GPa)
#
#
# Indices 1 2 3 4 5 6 
#
# 1 112.8123 38.1135 32.3998 0.0000 0.0000 0.0000
# 2 38.1135 80.8881 24.2334 0.0000 0.0000 0.0000
# 3 32.3998 24.2334 87.7130 0.0000 0.0000 0.0000
# 4 0.0000 0.0000 0.0000 20.8382 0.0000 0.0000
# 5 0.0000 0.0000 0.0000 0.0000 9.1117 0.0000
# 6 0.0000 0.0000 0.0000 0.0000 0.0000 45.9909
#
#
#
# Elastic Compliance Matrix: (Units=1/GPa)
#
#
# Indices 1 2 3 4 5 6 
#
# 1 0.011188 -0.004398 -0.002918 0.000000 0.000000 0.000000
# 2 -0.004398 0.015207 -0.002577 0.000000 0.000000 0.000000
# 3 -0.002918 -0.002577 0.013191 0.000000 0.000000 0.000000
# 4 0.000000 0.000000 0.000000 0.047989 0.000000 0.000000
# 5 0.000000 0.000000 0.000000 0.000000 0.109749 0.000000
# 6 0.000000 0.000000 0.000000 0.000000 0.000000 0.021743
#
#
# Mechanical properties :
#
#
# Convention : Reuss Voigt Hill
#
# Bulk Modulus (GPa) = 50.50266 52.32300 51.41283
# Shear Modulus (GPa) = 20.37069 27.63262 24.00165
#
# Velocity S-wave (km/s) = 3.06079 3.56486 3.32240
# Velocity P-wave (km/s) = 5.97640 6.40372 6.19375
#
# Compressibility (1/GPa) = 0.01980094
#
# Stress axis : x y z
#
# Youngs Moduli (GPa) = 89.38196 65.75983 75.81188
#
# Poissons Ratio (x) = 0.28918 0.22120
# Poissons Ratio (y) = 0.39306 0.19537
# Poissons Ratio (z) = 0.26079 0.16946
#
# Static dielectric constant tensor:
#      x y z
#    x 1.833380 0.000000 0.000000 
#    y 0.000000 1.847400 0.000000 
#    z 0.000000 0.000000 1.796680 
# 
# From -- ./inp_files/11233.got.cif
#   From: 2010.05.17/outbox.cif.g08.bks.cpg/sg41_6_cif.got.tgz:11233.got - 2010.06.03 18:54:24.
