data_PCOD9366453
_publ_section_title
;
Structure prediction by ZEFSAII (Michael W. Deem and Ramdas Pophale) SiO2 
 PCOD9366453
Probable space group: A B A 2
;
_chemical_formula_sum "Si O2"
_cell_formula_units_Z 60
_cell_length_a 19.215983
_cell_length_b 9.160127
_cell_length_c 14.999546
_cell_angle_alpha 90.000000
_cell_angle_beta 90.000000
_cell_angle_gamma 90.000000
_cell_volume 2640.232757
_symmetry_space_group_name_H-M "A B A 2"
_symmetry_group_IT_number 41
_symmetry_cell_setting 'orthorhombic'
loop_
_space_group_symop_operation_xyz
x,y,z
-x,-y,z
1/2-x,y,1/2+z
1/2+x,-y,1/2+z
x,1/2+y,1/2+z
-x,1/2-y,1/2+z
1/2-x,1/2+y,z
1/2+x,1/2-y,z
loop_
_atom_site_type_symbol
_atom_site_label
_atom_site_fract_x
_atom_site_fract_y
_atom_site_fract_z
Si Si1 0.641657 0.892641 0.120760
Si Si2 0.707094 0.392131 0.806403
Si Si3 0.018924 0.263313 0.520498
Si Si4 0.500000 0.000000 0.881602
Si Si5 0.747485 0.761288 0.989764
Si Si6 0.362028 0.092505 0.798302
Si Si7 0.621351 0.233657 0.116449
Si Si8 0.631568 0.115295 0.415579
O O1 0.681679 0.838038 0.209864
O O2 0.574218 0.800355 0.092233
O O3 0.694704 0.876320 0.037148
O O4 0.617815 0.059627 0.134205
O O5 0.783254 0.469605 0.797264
O O6 0.646610 0.497869 0.841248
O O7 0.721409 0.288635 0.891107
O O8 0.060783 0.389524 0.469427
O O9 0.946898 0.291729 0.567596
O O10 0.003199 0.138732 0.446804
O O11 0.571185 0.004409 0.823757
O O12 0.811881 0.748899 0.054541
O O13 0.698056 0.618373 0.981368
O O14 0.370696 0.172843 0.704929
O O15 0.364574 0.225192 0.869829
#
# Coordination Sequence:
#
# PCOD9366453 Si02
#       8
#     8   8   8   4   8   8   8   8
#     4  11  21  41  64  90 126 165 211 258 313 382
#     4  11  21  41  64  93 126 157 209 266 308 367
#     4  10  22  40  64  87 119 171 213 252 316 379
#     4  10  20  42  60  84 122 160 214 252 304 376
#     4  10  23  37  61  95 121 157 213 256 313 372
#     4  10  22  38  62  93 121 160 207 254 312 375
#     4  12  21  41  60  91 126 164 202 258 318 378
#     4   9  20  40  62  89 121 161 206 256 307 371
#
# _framework density 22.725269000000001
#
# number of rings (size 3 to 8) (size 9 to 14) (size 15 to 20)
#    0.000    1.600    4.000    1.600    1.867    0.000 
#    7.200    1.333    0.000    0.000    0.000    0.000 
#    0.000    0.000    0.000    0.000    0.000    0.000 
#
# Total GULP energy -167520.929584 kJ/mol
# GULP energy per Si atom -5584.030986 kJ/mol
# Density = 2.267355 g / cm^3
# Si number density = 22.725269 Si / 1000 Ang^3
#
#
#
# Elastic Constant Matrix: (Units=GPa)
#
#
# Indices 1 2 3 4 5 6 
#
# 1 115.2759 2.3223 43.7361 0.0000 0.0000 0.0000
# 2 2.3223 26.5192 16.5147 0.0000 0.0000 0.0000
# 3 43.7361 16.5147 134.9337 0.0000 0.0000 0.0000
# 4 0.0000 0.0000 0.0000 19.0424 0.0000 0.0000
# 5 0.0000 0.0000 0.0000 0.0000 26.4654 0.0000
# 6 0.0000 0.0000 0.0000 0.0000 0.0000 23.7328
#
#
#
# Elastic Compliance Matrix: (Units=1/GPa)
#
#
# Indices 1 2 3 4 5 6 
#
# 1 0.009928 0.001228 -0.003368 0.000000 0.000000 0.000000
# 2 0.001228 0.040972 -0.005413 0.000000 0.000000 0.000000
# 3 -0.003368 -0.005413 0.009165 0.000000 0.000000 0.000000
# 4 0.000000 0.000000 0.000000 0.052514 0.000000 0.000000
# 5 0.000000 0.000000 0.000000 0.000000 0.037785 0.000000
# 6 0.000000 0.000000 0.000000 0.000000 0.000000 0.042136
#
#
# Mechanical properties :
#
#
# Convention : Reuss Voigt Hill
#
# Bulk Modulus (GPa) = 22.24229 44.65281 33.44755
# Shear Modulus (GPa) = 22.46258 28.12516 25.29387
#
# Velocity S-wave (km/s) = 3.14736 3.52179 3.33983
# Velocity P-wave (km/s) = 4.79756 6.01905 5.44268
#
# Compressibility (1/GPa) = 0.04495940
#
# Stress axis : x y z
#
# Youngs Moduli (GPa) = 100.72474 24.40711 109.10738
#
# Poissons Ratio (x) = -0.02998 0.36751
# Poissons Ratio (y) = -0.12371 0.59056
# Poissons Ratio (z) = 0.33927 0.13211
#
# Static dielectric constant tensor:
#      x y z
#    x 1.862110 0.000000 0.000000 
#    y 0.000000 1.911080 0.000000 
#    z 0.000000 0.000000 1.837890 
# 
# From -- ./inp_files/8791.got.cif
#   From: 2010.05.17/outbox.cif.g08.bks.cpg/sg41_5_cif.got.tgz:8791.got - 2010.06.03 18:54:24.
