data_PCOD9366680
_publ_section_title
;
Structure prediction by ZEFSAII (Michael W. Deem and Ramdas Pophale) SiO2 
 PCOD9366680
Probable space group: A B A 2
;
_chemical_formula_sum "Si O2"
_cell_formula_units_Z 48
_cell_length_a 15.738730
_cell_length_b 5.271071
_cell_length_c 26.690682
_cell_angle_alpha 90.000000
_cell_angle_beta 90.000000
_cell_angle_gamma 90.000000
_cell_volume 2214.257999
_symmetry_space_group_name_H-M "A B A 2"
_symmetry_group_IT_number 41
_symmetry_cell_setting 'orthorhombic'
loop_
_space_group_symop_operation_xyz
x,y,z
-x,-y,z
1/2-x,y,1/2+z
1/2+x,-y,1/2+z
x,1/2+y,1/2+z
-x,1/2-y,1/2+z
1/2-x,1/2+y,z
1/2+x,1/2-y,z
loop_
_atom_site_type_symbol
_atom_site_label
_atom_site_fract_x
_atom_site_fract_y
_atom_site_fract_z
Si Si1 0.692086 0.181892 0.444660
Si Si2 0.784322 0.415349 0.081110
Si Si3 0.055287 0.751211 0.031801
Si Si4 0.307914 0.318108 0.829838
Si Si5 0.284322 0.084651 0.693387
Si Si6 0.944713 0.248789 0.742697
O O1 0.751624 0.429060 0.450514
O O2 0.615965 0.195577 0.484284
O O3 0.659521 0.183430 0.387249
O O4 0.773174 0.692679 0.057446
O O5 0.879469 0.316205 0.076694
O O6 0.750000 0.453863 0.137249
O O7 0.000000 0.500000 0.022799
O O8 0.000000 0.000000 0.042312
O O9 0.251624 0.570939 0.823983
O O10 0.384035 0.304423 0.790213
O O11 0.226826 0.307321 0.717051
O O12 0.379470 0.183794 0.697804
O O13 0.000000 0.500000 0.751699
O O14 0.000000 0.000000 0.732186
#
# Coordination Sequence:
#
# PCOD9366680 Si02
#       6
#     8   8   8   8   8   8
#     4  10  21  39  63  88 118 162 205 234 278 355
#     4  10  21  41  63  82 111 158 201 238 289 356
#     4  12  24  38  60  92 124 152 192 250 306 345
#     4  10  21  39  63  88 118 162 205 234 278 355
#     4  10  21  41  63  82 111 158 201 238 289 356
#     4  12  24  38  60  92 124 152 192 250 306 345
#
# _framework density 21.677689000000001
#
# number of rings (size 3 to 8) (size 9 to 14) (size 15 to 20)
#    0.000    1.333    0.000    6.000    0.000    1.333 
#    0.000   20.000    0.000    0.000    0.000    0.000 
#    0.000    0.000    0.000    0.000    0.000    0.000 
#
# Total GULP energy -134167.141493 kJ/mol
# GULP energy per Si atom -5590.297562 kJ/mol
# Density = 2.162835 g / cm^3
# Si number density = 21.677689 Si / 1000 Ang^3
#
#
#
# Elastic Constant Matrix: (Units=GPa)
#
#
# Indices 1 2 3 4 5 6 
#
# 1 92.0965 14.4391 25.0540 0.0000 0.0000 0.0000
# 2 14.4391 143.8898 -5.2990 0.0000 0.0000 0.0000
# 3 25.0540 -5.2990 100.7675 0.0000 0.0000 0.0000
# 4 0.0000 0.0000 0.0000 21.6506 0.0000 0.0000
# 5 0.0000 0.0000 0.0000 0.0000 24.8315 0.0000
# 6 0.0000 0.0000 0.0000 0.0000 0.0000 29.8874
#
#
#
# Elastic Compliance Matrix: (Units=1/GPa)
#
#
# Indices 1 2 3 4 5 6 
#
# 1 0.011885 -0.001304 -0.003024 0.000000 0.000000 0.000000
# 2 -0.001304 0.007106 0.000698 0.000000 0.000000 0.000000
# 3 -0.003024 0.000698 0.010712 0.000000 0.000000 0.000000
# 4 0.000000 0.000000 0.000000 0.046188 0.000000 0.000000
# 5 0.000000 0.000000 0.000000 0.000000 0.040271 0.000000
# 6 0.000000 0.000000 0.000000 0.000000 0.000000 0.033459
#
#
# Mechanical properties :
#
#
# Convention : Reuss Voigt Hill
#
# Bulk Modulus (GPa) = 44.55455 45.01577 44.78516
# Shear Modulus (GPa) = 30.42048 35.44456 32.93252
#
# Velocity S-wave (km/s) = 3.75014 4.04799 3.90191
# Velocity P-wave (km/s) = 6.27289 6.53141 6.40346
#
# Compressibility (1/GPa) = 0.02244440
#
# Stress axis : x y z
#
# Youngs Moduli (GPa) = 84.13852 140.71986 93.35066
#
# Poissons Ratio (x) = 0.18350 0.28226
# Poissons Ratio (y) = 0.10972 -0.06515
# Poissons Ratio (z) = 0.25440 -0.09821
#
# Static dielectric constant tensor:
#      x y z
#    x 1.765690 0.000000 0.000000 
#    y 0.000000 1.837790 0.000000 
#    z 0.000000 0.000000 1.977740 
# 
# From -- ./inp_files/12561.got.cif
#   From: 2010.05.17/outbox.cif.g08.bks.cpg/sg41_7_cif.got.tgz:12561.got - 2010.06.03 18:54:24.
