data_PCOD9366640
_publ_section_title
;
Structure prediction by ZEFSAII (Michael W. Deem and Ramdas Pophale) SiO2 
 PCOD9366640
Probable space group: A B A 2
;
_chemical_formula_sum "Si O2"
_cell_formula_units_Z 52
_cell_length_a 17.509358
_cell_length_b 17.387360
_cell_length_c 8.071202
_cell_angle_alpha 90.000000
_cell_angle_beta 90.000000
_cell_angle_gamma 90.000000
_cell_volume 2457.208932
_symmetry_space_group_name_H-M "A B A 2"
_symmetry_group_IT_number 41
_symmetry_cell_setting 'orthorhombic'
loop_
_space_group_symop_operation_xyz
x,y,z
-x,-y,z
1/2-x,y,1/2+z
1/2+x,-y,1/2+z
x,1/2+y,1/2+z
-x,1/2-y,1/2+z
1/2-x,1/2+y,z
1/2+x,1/2-y,z
loop_
_atom_site_type_symbol
_atom_site_label
_atom_site_fract_x
_atom_site_fract_y
_atom_site_fract_z
Si Si1 0.384441 0.596058 0.062370
Si Si2 0.145151 0.274182 0.118062
Si Si3 0.000000 0.000000 0.241536
Si Si4 0.470090 0.402743 0.548733
Si Si5 0.617432 0.463934 0.689957
Si Si6 0.780201 0.027966 0.169298
Si Si7 0.214697 0.851650 0.924944
O O1 0.369933 0.685070 0.090809
O O2 0.465189 0.564109 0.121377
O O3 0.331243 0.546385 0.185242
O O4 0.369634 0.571030 0.872282
O O5 0.072040 0.322176 0.055354
O O6 0.163140 0.299349 0.307361
O O7 0.220890 0.302164 0.019123
O O8 0.954165 0.052296 0.376856
O O9 0.560767 0.407057 0.587668
O O10 0.429652 0.455933 0.688409
O O11 0.698585 0.490251 0.614927
O O12 0.757962 0.084443 0.315611
O O13 0.824293 0.088881 0.051237
#
# Coordination Sequence:
#
# PCOD9366640 Si02
#       7
#     8   8   4   8   8   8   8
#     4  12  25  38  66  96 134 160 229 270 329 385
#     4  11  24  41  62  98 131 172 206 291 332 384
#     4  10  24  42  64  94 120 180 220 262 306 420
#     4  10  21  44  66  86 130 173 225 259 335 384
#     4  10  21  38  66  92 123 177 219 262 322 412
#     4  11  20  39  66  93 120 174 216 274 318 400
#     4  10  21  40  62  90 125 165 217 256 340 391
#
# _framework density 21.162223000000001
#
# number of rings (size 3 to 8) (size 9 to 14) (size 15 to 20)
#    0.000    1.538    4.615    1.846    4.308    1.231 
#    0.000    0.000    0.000    0.000    0.000    0.000 
#    0.000    0.000    0.000    0.000    0.000    0.000 
#
# Total GULP energy -144796.455487 kJ/mol
# GULP energy per Si atom -5569.094442 kJ/mol
# Density = 2.111406 g / cm^3
# Si number density = 21.162223 Si / 1000 Ang^3
#
#
#
# Elastic Constant Matrix: (Units=GPa)
#
#
# Indices 1 2 3 4 5 6 
#
# 1 43.5393 27.8615 1.5960 0.0000 0.0000 0.0000
# 2 27.8615 183.3114 27.4173 0.0000 0.0000 0.0000
# 3 1.5960 27.4173 44.6077 0.0000 0.0000 0.0000
# 4 0.0000 0.0000 0.0000 19.9207 0.0000 0.0000
# 5 0.0000 0.0000 0.0000 0.0000 7.6588 0.0000
# 6 0.0000 0.0000 0.0000 0.0000 0.0000 -26.5458
#
#
#
# Elastic Compliance Matrix: (Units=1/GPa)
#
#
# Indices 1 2 3 4 5 6 
#
# 1 0.025548 -0.004126 0.001622 0.000000 0.000000 0.000000
# 2 -0.004126 0.006674 -0.003954 0.000000 0.000000 0.000000
# 3 0.001622 -0.003954 0.024790 0.000000 0.000000 0.000000
# 4 0.000000 0.000000 0.000000 0.050199 0.000000 0.000000
# 5 0.000000 0.000000 0.000000 0.000000 0.130569 0.000000
# 6 0.000000 0.000000 0.000000 0.000000 0.000000 -0.037671
#
#
# Mechanical properties :
#
#
# Convention : Reuss Voigt Hill
#
# Bulk Modulus (GPa) = 22.67801 42.80090 32.73945
# Shear Modulus (GPa) = 21.95631 14.51229 18.23430
#
# Velocity S-wave (km/s) = 3.22456 2.62155 2.93856
# Velocity P-wave (km/s) = 4.96016 5.42517 5.19787
#
# Compressibility (1/GPa) = 0.04409559
#
# Stress axis : x y z
#
# Youngs Moduli (GPa) = 39.14144 149.84244 40.33881
#
# Poissons Ratio (x) = 0.61820 -0.06541
# Poissons Ratio (y) = 0.16148 0.15951
# Poissons Ratio (z) = -0.06347 0.59251
#
# Static dielectric constant tensor:
#      x y z
#    x 1.928470 0.000000 0.000000 
#    y 0.000000 1.726620 0.000000 
#    z 0.000000 0.000000 1.871600 
# 
# From -- ./inp_files/3132.got.cif
#   From: 2010.05.17/outbox.cif.g08.bks.cpg/sg41_2_cif.got.tgz:3132.got - 2010.06.03 18:54:24.
