data_PCOD9366234
_publ_section_title
;
Structure prediction by ZEFSAII (Michael W. Deem and Ramdas Pophale) SiO2 
 PCOD9366234
Probable space group: A B A 2
;
_chemical_formula_sum "Si O2"
_cell_formula_units_Z 64
_cell_length_a 8.590635
_cell_length_b 14.553423
_cell_length_c 22.507725
_cell_angle_alpha 90.000000
_cell_angle_beta 90.000000
_cell_angle_gamma 90.000000
_cell_volume 2813.986566
_symmetry_space_group_name_H-M "A B A 2"
_symmetry_group_IT_number 41
_symmetry_cell_setting 'orthorhombic'
loop_
_space_group_symop_operation_xyz
x,y,z
-x,-y,z
1/2-x,y,1/2+z
1/2+x,-y,1/2+z
x,1/2+y,1/2+z
-x,1/2-y,1/2+z
1/2-x,1/2+y,z
1/2+x,1/2-y,z
loop_
_atom_site_type_symbol
_atom_site_label
_atom_site_fract_x
_atom_site_fract_y
_atom_site_fract_z
Si Si1 0.256923 0.312797 0.538250
Si Si2 0.118263 0.781299 0.736595
Si Si3 0.696992 0.391201 0.497010
Si Si4 0.641051 0.308091 0.824535
Si Si5 0.958780 0.405397 0.110853
Si Si6 0.381805 0.789883 0.654429
Si Si7 0.385743 0.854216 0.917905
Si Si8 0.680907 0.484585 0.888917
O O1 0.261787 0.204534 0.522202
O O2 0.406807 0.351093 0.573574
O O3 0.119965 0.325598 0.586813
O O4 0.258741 0.349792 0.471568
O O5 0.238336 0.742099 0.783008
O O6 0.228300 0.828012 0.687302
O O7 0.998593 0.832800 0.779560
O O8 0.025984 0.703124 0.698954
O O9 0.648351 0.442652 0.556852
O O10 0.545972 0.374846 0.453622
O O11 0.811159 0.448812 0.456674
O O12 0.596888 0.237932 0.878432
O O13 0.723675 0.396419 0.850446
O O14 0.000000 0.500000 0.144242
O O15 0.878164 0.322817 0.147465
O O16 0.307615 0.935429 0.879776
O O17 0.500000 0.500000 0.875008
#
# Coordination Sequence:
#
# PCOD9366234 Si02
#       8
#     8   8   8   8   8   8   8   8
#     4  10  20  37  71  96 132 175 228 267 354 419
#     4  10  22  41  67  90 123 177 234 280 330 397
#     4  10  21  38  63  97 138 178 220 263 343 426
#     4  11  23  43  67  93 133 180 227 284 345 403
#     4  10  20  37  62  96 133 175 215 278 339 409
#     4  10  20  40  68  95 121 177 233 281 334 417
#     4  11  23  41  68 100 138 180 222 279 359 418
#     4  12  25  39  64 104 138 173 228 281 341 419
#
# _framework density 22.743534
#
# number of rings (size 3 to 8) (size 9 to 14) (size 15 to 20)
#    0.000    1.500    2.500    3.375    1.750    1.000 
#    0.000    5.000    2.750    0.000    0.000    0.000 
#    0.000    0.000    0.000    0.000    0.000    0.000 
#
# Total GULP energy -178228.772569 kJ/mol
# GULP energy per Si atom -5569.649143 kJ/mol
# Density = 2.269177 g / cm^3
# Si number density = 22.743534 Si / 1000 Ang^3
#
#
#
# Elastic Constant Matrix: (Units=GPa)
#
#
# Indices 1 2 3 4 5 6 
#
# 1 48.6613 3.9526 11.1270 0.0000 0.0000 0.0000
# 2 3.9526 79.2846 11.7671 0.0000 0.0000 0.0000
# 3 11.1270 11.7671 100.9232 0.0000 0.0000 0.0000
# 4 0.0000 0.0000 0.0000 4.2442 0.0000 0.0000
# 5 0.0000 0.0000 0.0000 0.0000 31.6396 0.0000
# 6 0.0000 0.0000 0.0000 0.0000 0.0000 16.2478
#
#
#
# Elastic Compliance Matrix: (Units=1/GPa)
#
#
# Indices 1 2 3 4 5 6 
#
# 1 0.021122 -0.000720 -0.002245 0.000000 0.000000 0.000000
# 2 -0.000720 0.012859 -0.001420 0.000000 0.000000 0.000000
# 3 -0.002245 -0.001420 0.010322 0.000000 0.000000 0.000000
# 4 0.000000 0.000000 0.000000 0.235617 0.000000 0.000000
# 5 0.000000 0.000000 0.000000 0.000000 0.031606 0.000000
# 6 0.000000 0.000000 0.000000 0.000000 0.000000 0.061547
#
#
# Mechanical properties :
#
#
# Convention : Reuss Voigt Hill
#
# Bulk Modulus (GPa) = 28.14228 31.39583 29.76905
# Shear Modulus (GPa) = 12.70045 23.89447 18.29746
#
# Velocity S-wave (km/s) = 2.36566 3.24482 2.83947
# Velocity P-wave (km/s) = 4.45672 5.27946 4.88544
#
# Compressibility (1/GPa) = 0.03553373
#
# Stress axis : x y z
#
# Youngs Moduli (GPa) = 47.34403 77.76402 96.88437
#
# Poissons Ratio (x) = 0.05598 0.21749
# Poissons Ratio (y) = 0.03408 0.13757
# Poissons Ratio (z) = 0.10628 0.11042
#
# Static dielectric constant tensor:
#      x y z
#    x 1.961030 0.000000 0.000000 
#    y 0.000000 1.869750 0.000000 
#    z 0.000000 0.000000 1.914820 
# 
# From -- ./inp_files/12046.got.cif
#   From: 2010.05.17/outbox.cif.g08.bks.cpg/sg41_7_cif.got.tgz:12046.got - 2010.06.03 18:54:24.
