data_PCOD9366969
_publ_section_title
;
Structure prediction by ZEFSAII (Michael W. Deem and Ramdas Pophale) SiO2 
 PCOD9366969
Probable space group: A B A 2
;
_chemical_formula_sum "Si O2"
_cell_formula_units_Z 60
_cell_length_a 20.037491
_cell_length_b 22.879417
_cell_length_c 5.664510
_cell_angle_alpha 90.000000
_cell_angle_beta 90.000000
_cell_angle_gamma 90.000000
_cell_volume 2596.872587
_symmetry_space_group_name_H-M "A B A 2"
_symmetry_group_IT_number 41
_symmetry_cell_setting 'orthorhombic'
loop_
_space_group_symop_operation_xyz
x,y,z
-x,-y,z
1/2-x,y,1/2+z
1/2+x,-y,1/2+z
x,1/2+y,1/2+z
-x,1/2-y,1/2+z
1/2-x,1/2+y,z
1/2+x,1/2-y,z
loop_
_atom_site_type_symbol
_atom_site_label
_atom_site_fract_x
_atom_site_fract_y
_atom_site_fract_z
Si Si1 0.287813 0.577268 0.790430
Si Si2 0.500000 0.000000 0.069304
Si Si3 0.013888 0.804267 0.680449
Si Si4 0.624015 0.295973 0.194171
Si Si5 0.070296 0.910624 0.914217
Si Si6 0.358155 0.691316 0.704188
Si Si7 0.022706 0.104270 0.299883
Si Si8 0.785526 0.061298 0.801734
O O1 0.241032 0.588922 0.556853
O O2 0.347746 0.621831 0.735096
O O3 0.301447 0.508246 0.798869
O O4 0.455420 0.957648 0.228603
O O5 0.547515 0.952637 0.940915
O O6 0.064222 0.751175 0.686438
O O7 0.936079 0.790390 0.703955
O O8 0.015036 0.846424 0.453911
O O9 0.035305 0.847967 0.885492
O O10 0.663576 0.291660 0.440880
O O11 0.585594 0.359262 0.197755
O O12 0.666751 0.286036 0.957445
O O13 0.037181 0.927725 0.159094
O O14 0.147836 0.904861 0.874241
O O15 0.762152 0.073100 0.531062
#
# Coordination Sequence:
#
# PCOD9366969 Si02
#       8
#     8   4   8   8   8   8   8   8
#     4  10  22  42  62  90 123 168 221 271 320 389
#     4  10  24  38  56 106 138 168 208 268 362 390
#     4  10  23  38  60 104 128 173 212 270 331 400
#     4  11  23  38  63  99 135 168 216 252 344 402
#     4  11  23  40  66  93 136 171 219 273 327 405
#     4  11  21  37  64  94 125 170 206 271 328 393
#     4  10  22  37  61  93 137 175 203 271 330 405
#     4  10  25  44  66  90 124 177 225 268 320 388
#
# _framework density 23.104711999999999
#
# number of rings (size 3 to 8) (size 9 to 14) (size 15 to 20)
#    0.000    1.600    1.333    2.800   11.200    1.067 
#    0.000    0.000    0.000    4.800    0.000    0.000 
#    0.000    0.000    0.000    0.000    0.000    0.000 
#
# Total GULP energy -167054.846325 kJ/mol
# GULP energy per Si atom -5568.494878 kJ/mol
# Density = 2.305212 g / cm^3
# Si number density = 23.104712 Si / 1000 Ang^3
#
#
#
# Elastic Constant Matrix: (Units=GPa)
#
#
# Indices 1 2 3 4 5 6 
#
# 1 25.2874 -4.5004 12.7589 0.0000 0.0000 0.0000
# 2 -4.5004 56.7562 17.4967 0.0000 0.0000 0.0000
# 3 12.7589 17.4967 157.1448 0.0000 0.0000 0.0000
# 4 0.0000 0.0000 0.0000 125.6479 0.0000 0.0000
# 5 0.0000 0.0000 0.0000 0.0000 0.3284 0.0000
# 6 0.0000 0.0000 0.0000 0.0000 0.0000 22.3816
#
#
#
# Elastic Compliance Matrix: (Units=1/GPa)
#
#
# Indices 1 2 3 4 5 6 
#
# 1 0.042352 0.004575 -0.003948 0.000000 0.000000 0.000000
# 2 0.004575 0.018740 -0.002458 0.000000 0.000000 0.000000
# 3 -0.003948 -0.002458 0.006958 0.000000 0.000000 0.000000
# 4 0.000000 0.000000 0.000000 0.007959 0.000000 0.000000
# 5 0.000000 0.000000 0.000000 0.000000 3.045442 0.000000
# 6 0.000000 0.000000 0.000000 0.000000 0.000000 0.044680
#
#
# Mechanical properties :
#
#
# Convention : Reuss Voigt Hill
#
# Bulk Modulus (GPa) = 15.53092 32.29987 23.91540
# Shear Modulus (GPa) = 1.56678 43.90045 22.73362
#
# Velocity S-wave (km/s) = 0.82438 4.36370 3.14018
# Velocity P-wave (km/s) = 2.76454 6.27689 4.84985
#
# Compressibility (1/GPa) = 0.06438769
#
# Stress axis : x y z
#
# Youngs Moduli (GPa) = 23.61187 53.36252 143.72399
#
# Poissons Ratio (x) = -0.24415 0.56743
# Poissons Ratio (y) = -0.10803 0.35327
# Poissons Ratio (z) = 0.09322 0.13116
#
# Static dielectric constant tensor:
#      x y z
#    x 1.874260 0.000000 0.000000 
#    y 0.000000 1.851000 0.000000 
#    z 0.000000 0.000000 2.123820 
# 
# From -- ./inp_files/787.got.cif
#   From: 2010.05.17/outbox.cif.g08.bks.cpg/sg41_1_cif.got.tgz:787.got - 2010.06.03 18:54:24.
