data_PCOD9366261
_publ_section_title
;
Structure prediction by ZEFSAII (Michael W. Deem and Ramdas Pophale) SiO2 
 PCOD9366261
Probable space group: A B A 2
;
_chemical_formula_sum "Si O2"
_cell_formula_units_Z 48
_cell_length_a 5.345617
_cell_length_b 24.776575
_cell_length_c 14.484999
_cell_angle_alpha 90.000000
_cell_angle_beta 90.000000
_cell_angle_gamma 90.000000
_cell_volume 1918.481344
_symmetry_space_group_name_H-M "A B A 2"
_symmetry_group_IT_number 41
_symmetry_cell_setting 'orthorhombic'
loop_
_space_group_symop_operation_xyz
x,y,z
-x,-y,z
1/2-x,y,1/2+z
1/2+x,-y,1/2+z
x,1/2+y,1/2+z
-x,1/2-y,1/2+z
1/2-x,1/2+y,z
1/2+x,1/2-y,z
loop_
_atom_site_type_symbol
_atom_site_label
_atom_site_fract_x
_atom_site_fract_y
_atom_site_fract_z
Si Si1 0.405307 0.274083 0.485680
Si Si2 0.745960 0.950893 0.532950
Si Si3 0.000000 0.000000 0.692551
Si Si4 0.760328 0.596705 0.789321
Si Si5 0.000000 0.500000 0.871666
Si Si6 0.735471 0.612859 0.002400
Si Si7 0.872864 0.217927 0.260945
O O1 0.697752 0.270915 0.509368
O O2 0.279142 0.326117 0.529664
O O3 0.392194 0.278707 0.373669
O O4 0.504400 0.915071 0.544024
O O5 0.777592 0.987015 0.622449
O O6 0.998967 0.915593 0.521623
O O7 0.769443 0.988838 0.441725
O O8 0.061673 0.944332 0.744467
O O9 0.834509 0.653475 0.742448
O O10 0.979510 0.553449 0.810744
O O11 0.677018 0.612505 0.892650
O O12 0.630601 0.252959 0.229946
#
# Coordination Sequence:
#
# PCOD9366261 Si02
#       7
#     8   8   4   8   4   8   8
#     4   9  16  28  53  86 111 139 192 247 285 332
#     4  10  22  38  56  82 122 158 189 234 305 364
#     4  11  24  38  58  91 122 156 200 249 300 352
#     4  10  21  37  64  93 121 156 206 252 292 358
#     4   9  20  36  60  91 120 154 196 245 304 354
#     4  10  20  38  60  83 118 159 192 238 297 355
#     4   9  19  35  56  85 119 154 193 244 299 345
#
# _framework density 25.019788999999999
#
# number of rings (size 3 to 8) (size 9 to 14) (size 15 to 20)
#    0.000    2.333    0.000    2.000    0.000   16.000 
#    0.000    0.000    0.000    6.000    0.000    7.000 
#    0.000    0.000    0.000    0.000    0.000    0.000 
#
# Total GULP energy -134017.383232 kJ/mol
# GULP energy per Si atom -5584.057635 kJ/mol
# Density = 2.496284 g / cm^3
# Si number density = 25.019789 Si / 1000 Ang^3
#
#
#
# Elastic Constant Matrix: (Units=GPa)
#
#
# Indices 1 2 3 4 5 6 
#
# 1 130.9574 29.0961 15.8205 0.0000 0.0000 0.0000
# 2 29.0961 143.3510 21.9600 0.0000 0.0000 0.0000
# 3 15.8205 21.9600 73.8655 0.0000 0.0000 0.0000
# 4 0.0000 0.0000 0.0000 6.8454 0.0000 0.0000
# 5 0.0000 0.0000 0.0000 0.0000 5.0092 0.0000
# 6 0.0000 0.0000 0.0000 0.0000 0.0000 40.1929
#
#
#
# Elastic Compliance Matrix: (Units=1/GPa)
#
#
# Indices 1 2 3 4 5 6 
#
# 1 0.008116 -0.001447 -0.001308 0.000000 0.000000 0.000000
# 2 -0.001447 0.007567 -0.001940 0.000000 0.000000 0.000000
# 3 -0.001308 -0.001940 0.014395 0.000000 0.000000 0.000000
# 4 0.000000 0.000000 0.000000 0.146083 0.000000 0.000000
# 5 0.000000 0.000000 0.000000 0.000000 0.199631 0.000000
# 6 0.000000 0.000000 0.000000 0.000000 0.000000 0.024880
#
#
# Mechanical properties :
#
#
# Convention : Reuss Voigt Hill
#
# Bulk Modulus (GPa) = 48.33707 53.54747 50.94227
# Shear Modulus (GPa) = 11.99168 29.16267 20.57717
#
# Velocity S-wave (km/s) = 2.19164 3.41777 2.87093
# Velocity P-wave (km/s) = 5.07601 6.08468 5.60309
#
# Compressibility (1/GPa) = 0.02068805
#
# Stress axis : x y z
#
# Youngs Moduli (GPa) = 123.22022 132.15822 69.46889
#
# Poissons Ratio (x) = 0.19121 0.09087
# Poissons Ratio (y) = 0.17828 0.13475
# Poissons Ratio (z) = 0.16118 0.25634
#
# Static dielectric constant tensor:
#      x y z
#    x 1.984560 0.000000 0.000000 
#    y 0.000000 2.024080 0.000000 
#    z 0.000000 0.000000 2.057310 
# 
# From -- ./inp_files/6896.got.cif
#   From: 2010.05.17/outbox.cif.g08.bks.cpg/sg41_4_cif.got.tgz:6896.got - 2010.06.03 18:54:24.
