data_PCOD9366695
_publ_section_title
;
Structure prediction by ZEFSAII (Michael W. Deem and Ramdas Pophale) SiO2 
 PCOD9366695
Probable space group: A B A 2
;
_chemical_formula_sum "Si O2"
_cell_formula_units_Z 60
_cell_length_a 28.487234
_cell_length_b 5.132422
_cell_length_c 19.965998
_cell_angle_alpha 90.000000
_cell_angle_beta 90.000000
_cell_angle_gamma 90.000000
_cell_volume 2919.198748
_symmetry_space_group_name_H-M "A B A 2"
_symmetry_group_IT_number 41
_symmetry_cell_setting 'orthorhombic'
loop_
_space_group_symop_operation_xyz
x,y,z
-x,-y,z
1/2-x,y,1/2+z
1/2+x,-y,1/2+z
x,1/2+y,1/2+z
-x,1/2-y,1/2+z
1/2-x,1/2+y,z
1/2+x,1/2-y,z
loop_
_atom_site_type_symbol
_atom_site_label
_atom_site_fract_x
_atom_site_fract_y
_atom_site_fract_z
Si Si1 0.899832 0.573560 0.748200
Si Si2 0.279512 0.056913 0.549965
Si Si3 0.612435 0.488443 0.094531
Si Si4 0.000000 0.500000 0.796088
Si Si5 0.276211 0.576230 0.888720
Si Si6 0.624547 0.568038 0.830335
Si Si7 0.540109 0.675956 0.915459
Si Si8 0.945069 0.989000 0.543619
O O1 0.885650 0.484229 0.674825
O O2 0.882676 0.357231 0.801414
O O3 0.956141 0.579868 0.752230
O O4 0.883496 0.856642 0.772149
O O5 0.254109 0.321415 0.572822
O O6 0.333614 0.021845 0.570334
O O7 0.279231 0.064498 0.469094
O O8 0.584641 0.751316 0.074994
O O9 0.582535 0.250875 0.062839
O O10 0.016517 0.722348 0.847277
O O11 0.236407 0.368897 0.868215
O O12 0.324485 0.477527 0.859164
O O13 0.586484 0.529617 0.890025
O O14 0.500000 0.500000 0.949942
O O15 0.553275 0.912305 0.964609
O O16 0.000000 0.000000 0.565458
#
# Coordination Sequence:
#
# PCOD9366695 Si02
#       8
#     8   8   8   4   8   8   8   8
#     4  11  25  42  64  92 132 180 227 254 318 392
#     4  10  22  42  70  97 125 168 218 275 342 394
#     4  12  26  46  64  96 137 179 227 274 320 400
#     4  10  22  38  62  90 130 174 214 270 312 390
#     4  10  21  39  64  97 128 159 208 273 339 391
#     4  11  23  41  66  94 127 173 216 271 325 393
#     4  11  21  40  63  96 133 165 220 276 338 392
#     4  12  26  40  65  98 135 176 219 276 337 392
#
# _framework density 20.553584000000001
#
# number of rings (size 3 to 8) (size 9 to 14) (size 15 to 20)
#    0.000    1.067    2.000    4.400    1.867    4.267 
#    0.000    4.000    0.000    0.000    0.000    0.000 
#    0.000    0.000    0.000    0.000    0.000    0.000 
#
# Total GULP energy -167690.308085 kJ/mol
# GULP energy per Si atom -5589.676936 kJ/mol
# Density = 2.050680 g / cm^3
# Si number density = 20.553584 Si / 1000 Ang^3
#
#
#
# Elastic Constant Matrix: (Units=GPa)
#
#
# Indices 1 2 3 4 5 6 
#
# 1 123.4853 22.9774 12.8587 0.0000 0.0000 0.0000
# 2 22.9774 87.6501 7.3353 0.0000 0.0000 0.0000
# 3 12.8587 7.3353 29.6584 0.0000 0.0000 0.0000
# 4 0.0000 0.0000 0.0000 22.2863 0.0000 0.0000
# 5 0.0000 0.0000 0.0000 0.0000 19.5233 0.0000
# 6 0.0000 0.0000 0.0000 0.0000 0.0000 34.7420
#
#
#
# Elastic Compliance Matrix: (Units=1/GPa)
#
#
# Indices 1 2 3 4 5 6 
#
# 1 0.008823 -0.002035 -0.003322 0.000000 0.000000 0.000000
# 2 -0.002035 0.012119 -0.002115 0.000000 0.000000 0.000000
# 3 -0.003322 -0.002115 0.035681 0.000000 0.000000 0.000000
# 4 0.000000 0.000000 0.000000 0.044871 0.000000 0.000000
# 5 0.000000 0.000000 0.000000 0.000000 0.051221 0.000000
# 6 0.000000 0.000000 0.000000 0.000000 0.000000 0.028784
#
#
# Mechanical properties :
#
#
# Convention : Reuss Voigt Hill
#
# Bulk Modulus (GPa) = 23.99302 36.34853 30.17078
# Shear Modulus (GPa) = 23.77163 28.48514 26.12839
#
# Velocity S-wave (km/s) = 3.40453 3.72680 3.56930
# Velocity P-wave (km/s) = 5.21087 6.02012 5.63005
#
# Compressibility (1/GPa) = 0.04167878
#
# Stress axis : x y z
#
# Youngs Moduli (GPa) = 113.34429 82.51197 28.02643
#
# Poissons Ratio (x) = 0.16790 0.09310
# Poissons Ratio (y) = 0.23064 0.05928
# Poissons Ratio (z) = 0.37652 0.17453
#
# Static dielectric constant tensor:
#      x y z
#    x 1.727050 0.000000 0.000000 
#    y 0.000000 1.782460 0.000000 
#    z 0.000000 0.000000 1.719830 
# 
# From -- ./inp_files/11748.got.cif
#   From: 2010.05.17/outbox.cif.g08.bks.cpg/sg41_6_cif.got.tgz:11748.got - 2010.06.03 18:54:24.
