data_PCOD9366950
_publ_section_title
;
Structure prediction by ZEFSAII (Michael W. Deem and Ramdas Pophale) SiO2 
 PCOD9366950
Probable space group: A B A 2
;
_chemical_formula_sum "Si O2"
_cell_formula_units_Z 52
_cell_length_a 25.689335
_cell_length_b 5.412509
_cell_length_c 19.318647
_cell_angle_alpha 90.000000
_cell_angle_beta 90.000000
_cell_angle_gamma 90.000000
_cell_volume 2686.137257
_symmetry_space_group_name_H-M "A B A 2"
_symmetry_group_IT_number 41
_symmetry_cell_setting 'orthorhombic'
loop_
_space_group_symop_operation_xyz
x,y,z
-x,-y,z
1/2-x,y,1/2+z
1/2+x,-y,1/2+z
x,1/2+y,1/2+z
-x,1/2-y,1/2+z
1/2-x,1/2+y,z
1/2+x,1/2-y,z
loop_
_atom_site_type_symbol
_atom_site_label
_atom_site_fract_x
_atom_site_fract_y
_atom_site_fract_z
Si Si1 0.832788 0.946776 0.025150
Si Si2 0.419149 0.163822 0.993202
Si Si3 0.762592 0.127831 0.449704
Si Si4 0.436547 0.995339 0.265220
Si Si5 0.937493 0.503812 0.844188
Si Si6 0.094769 0.295794 0.119848
Si Si7 0.000000 0.500000 0.560203
O O1 0.876959 0.115748 0.990972
O O2 0.854416 0.866213 0.099730
O O3 0.778160 0.090389 0.014146
O O4 0.817895 0.703585 0.980345
O O5 0.473887 0.297007 0.010678
O O6 0.407982 0.996028 0.059164
O O7 0.421296 0.006612 0.923813
O O8 0.741213 0.369558 0.411188
O O9 0.421640 0.757838 0.311111
O O10 0.410620 0.938158 0.191434
O O11 0.500000 0.000000 0.256760
O O12 0.420959 0.253072 0.301536
O O13 0.000000 0.500000 0.842245
O O14 0.044702 0.118756 0.108017
#
# Coordination Sequence:
#
# PCOD9366950 Si02
#       7
#     8   8   8   8   8   8   4
#     4   9  20  33  60  84 122 141 200 239 314 342
#     4  11  22  35  57  88 116 155 198 245 291 351
#     4   8  16  34  52  82 114 144 176 246 294 356
#     4  10  23  38  55  76 116 162 199 234 279 340
#     4  10  23  38  55  76 116 162 199 234 279 340
#     4  11  22  35  57  88 116 155 198 245 291 351
#     4  10  22  32  56  82 124 152 196 250 294 334
#
# _framework density 19.358653
#
# number of rings (size 3 to 8) (size 9 to 14) (size 15 to 20)
#    0.923    1.231    0.000    3.231   15.077    0.000 
#    0.000    0.000    0.000    0.000    0.000    6.462 
#    0.000    0.000    0.000    0.000    0.000    0.000 
#
# Total GULP energy -144802.587903 kJ/mol
# GULP energy per Si atom -5569.330304 kJ/mol
# Density = 1.931459 g / cm^3
# Si number density = 19.358653 Si / 1000 Ang^3
#
#
#
# Elastic Constant Matrix: (Units=GPa)
#
#
# Indices 1 2 3 4 5 6 
#
# 1 24.0023 12.5969 0.5674 0.0000 0.0000 0.0000
# 2 12.5969 126.8930 41.0982 0.0000 0.0000 0.0000
# 3 0.5674 41.0982 101.0562 0.0000 0.0000 0.0000
# 4 0.0000 0.0000 0.0000 33.8062 0.0000 0.0000
# 5 0.0000 0.0000 0.0000 0.0000 -16.8669 0.0000
# 6 0.0000 0.0000 0.0000 0.0000 0.0000 30.4151
#
#
#
# Elastic Compliance Matrix: (Units=1/GPa)
#
#
# Indices 1 2 3 4 5 6 
#
# 1 0.044226 -0.004964 0.001770 0.000000 0.000000 0.000000
# 2 -0.004964 0.009633 -0.003890 0.000000 0.000000 0.000000
# 3 0.001770 -0.003890 0.011468 0.000000 0.000000 0.000000
# 4 0.000000 0.000000 0.000000 0.029580 0.000000 0.000000
# 5 0.000000 0.000000 0.000000 0.000000 -0.059288 0.000000
# 6 0.000000 0.000000 0.000000 0.000000 0.000000 0.032878
#
#
# Mechanical properties :
#
#
# Convention : Reuss Voigt Hill
#
# Bulk Modulus (GPa) = 19.54643 40.05295 29.79969
# Shear Modulus (GPa) = 50.14156 22.65014 36.39585
#
# Velocity S-wave (km/s) = 5.09486 3.42428 4.34069
# Velocity P-wave (km/s) = 6.68798 6.03068 6.36781
#
# Compressibility (1/GPa) = 0.05116024
#
# Stress axis : x y z
#
# Youngs Moduli (GPa) = 22.61115 103.80691 87.20293
#
# Poissons Ratio (x) = 0.51528 -0.15438
# Poissons Ratio (y) = 0.11224 0.33921
# Poissons Ratio (z) = -0.04003 0.40379
#
# Static dielectric constant tensor:
#      x y z
#    x 1.721100 0.000000 0.000000 
#    y 0.000000 1.743440 0.000000 
#    z 0.000000 0.000000 1.641400 
# 
# From -- ./inp_files/10777.got.cif
#   From: 2010.05.17/outbox.cif.g08.bks.cpg/sg41_6_cif.got.tgz:10777.got - 2010.06.03 18:54:24.
