data_PCOD9366999
_publ_section_title
;
Structure prediction by ZEFSAII (Michael W. Deem and Ramdas Pophale) SiO2 
 PCOD9366999
Probable space group: A B A 2
;
_chemical_formula_sum "Si O2"
_cell_formula_units_Z 52
_cell_length_a 23.314872
_cell_length_b 5.257843
_cell_length_c 18.777501
_cell_angle_alpha 90.000000
_cell_angle_beta 90.000000
_cell_angle_gamma 90.000000
_cell_volume 2301.857546
_symmetry_space_group_name_H-M "A B A 2"
_symmetry_group_IT_number 41
_symmetry_cell_setting 'orthorhombic'
loop_
_space_group_symop_operation_xyz
x,y,z
-x,-y,z
1/2-x,y,1/2+z
1/2+x,-y,1/2+z
x,1/2+y,1/2+z
-x,1/2-y,1/2+z
1/2-x,1/2+y,z
1/2+x,1/2-y,z
loop_
_atom_site_type_symbol
_atom_site_label
_atom_site_fract_x
_atom_site_fract_y
_atom_site_fract_z
Si Si1 0.562990 0.373587 0.438650
Si Si2 0.775494 0.772939 0.794486
Si Si3 0.392545 0.610051 0.164876
Si Si4 0.900984 0.157296 0.306726
Si Si5 0.936636 0.881753 0.599896
Si Si6 0.500000 0.000000 0.342284
Si Si7 0.771733 0.143338 0.130351
O O1 0.500000 0.500000 0.443917
O O2 0.599469 0.547808 0.386233
O O3 0.584333 0.348393 0.518519
O O4 0.547771 0.121606 0.394324
O O5 0.759370 0.502705 0.828089
O O6 0.843503 0.819344 0.794441
O O7 0.756312 0.720111 0.712424
O O8 0.396073 0.570357 0.249601
O O9 0.435907 0.397261 0.134112
O O10 0.333040 0.492422 0.135832
O O11 0.401192 0.899453 0.141268
O O12 0.962056 0.300673 0.297729
O O13 0.000000 0.000000 0.599229
O O14 0.768469 0.424674 0.096982
#
# Coordination Sequence:
#
# PCOD9366999 Si02
#       7
#     8   8   8   8   8   4   8
#     4   9  22  40  61  84 118 171 211 242 302 386
#     4   9  19  34  58  88 120 158 203 257 312 369
#     4  11  24  38  62  96 121 157 202 260 317 351
#     4  10  23  38  64  93 127 160 213 264 319 377
#     4  11  25  40  60  86 127 166 204 245 304 377
#     4  10  22  38  66  92 126 172 218 258 318 388
#     4   9  17  34  58  83 116 153 198 247 300 370
#
# _framework density 22.590450000000001
#
# number of rings (size 3 to 8) (size 9 to 14) (size 15 to 20)
#    0.000    2.154    0.000    1.385   11.846    4.923 
#    0.000    0.000    0.000    5.538    0.000    0.000 
#    0.000    0.000    0.000    0.000    0.000    0.000 
#
# Total GULP energy -145030.670598 kJ/mol
# GULP energy per Si atom -5578.102715 kJ/mol
# Density = 2.253903 g / cm^3
# Si number density = 22.590450 Si / 1000 Ang^3
#
#
#
# Elastic Constant Matrix: (Units=GPa)
#
#
# Indices 1 2 3 4 5 6 
#
# 1 84.9342 31.1687 9.4536 0.0000 0.0000 0.0000
# 2 31.1687 104.9806 4.9563 0.0000 0.0000 0.0000
# 3 9.4536 4.9563 69.8568 0.0000 0.0000 0.0000
# 4 0.0000 0.0000 0.0000 13.3505 0.0000 0.0000
# 5 0.0000 0.0000 0.0000 0.0000 -1.5939 0.0000
# 6 0.0000 0.0000 0.0000 0.0000 0.0000 32.3355
#
#
#
# Elastic Compliance Matrix: (Units=1/GPa)
#
#
# Indices 1 2 3 4 5 6 
#
# 1 0.013375 -0.003899 -0.001533 0.000000 0.000000 0.000000
# 2 -0.003899 0.010694 -0.000231 0.000000 0.000000 0.000000
# 3 -0.001533 -0.000231 0.014539 0.000000 0.000000 0.000000
# 4 0.000000 0.000000 0.000000 0.074903 0.000000 0.000000
# 5 0.000000 0.000000 0.000000 0.000000 -0.627396 0.000000
# 6 0.000000 0.000000 0.000000 0.000000 0.000000 0.030926
#
#
# Mechanical properties :
#
#
# Convention : Reuss Voigt Hill
#
# Bulk Modulus (GPa) = 36.65474 38.99209 37.82342
# Shear Modulus (GPa) = -10.80992 23.09797 6.14403
#
# Velocity S-wave (km/s) = -2.18988 3.20107 1.65095
# Velocity P-wave (km/s) = 3.14116 5.56420 4.51815
#
# Compressibility (1/GPa) = 0.02728160
#
# Stress axis : x y z
#
# Youngs Moduli (GPa) = 74.76515 93.51032 68.78094
#
# Poissons Ratio (x) = 0.36457 0.10547
# Poissons Ratio (y) = 0.29149 0.01590
# Poissons Ratio (z) = 0.11465 0.02161
#
# Static dielectric constant tensor:
#      x y z
#    x 1.880630 0.000000 0.000000 
#    y 0.000000 1.977910 0.000000 
#    z 0.000000 0.000000 1.826670 
# 
# From -- ./inp_files/11699.got.cif
#   From: 2010.05.17/outbox.cif.g08.bks.cpg/sg41_6_cif.got.tgz:11699.got - 2010.06.03 18:54:24.
