data_PCOD9367661
_publ_section_title
;
Structure prediction by ZEFSAII (Michael W. Deem and Ramdas Pophale) SiO2 
 PCOD9367661
Probable space group: A B A 2
;
_chemical_formula_sum "Si O2"
_cell_formula_units_Z 40
_cell_length_a 8.360573
_cell_length_b 11.005738
_cell_length_c 17.526845
_cell_angle_alpha 90.000000
_cell_angle_beta 90.000000
_cell_angle_gamma 90.000000
_cell_volume 1612.719953
_symmetry_space_group_name_H-M "A B A 2"
_symmetry_group_IT_number 41
_symmetry_cell_setting 'orthorhombic'
loop_
_space_group_symop_operation_xyz
x,y,z
-x,-y,z
1/2-x,y,1/2+z
1/2+x,-y,1/2+z
x,1/2+y,1/2+z
-x,1/2-y,1/2+z
1/2-x,1/2+y,z
1/2+x,1/2-y,z
loop_
_atom_site_type_symbol
_atom_site_label
_atom_site_fract_x
_atom_site_fract_y
_atom_site_fract_z
Si Si1 0.133229 0.228330 0.880680
Si Si2 0.815114 0.004521 0.431132
Si Si3 0.811862 0.294505 0.624219
Si Si4 0.086166 0.852635 0.022267
Si Si5 0.024811 0.134630 0.726225
O O1 0.195327 0.366362 0.887058
O O2 0.049425 0.218437 0.799136
O O3 0.260995 0.116630 0.886982
O O4 0.010783 0.199484 0.949964
O O5 0.685936 0.029200 0.497612
O O6 0.000000 0.000000 0.457159
O O7 0.718250 0.243964 0.550547
O O8 0.684129 0.364965 0.674525
O O9 0.969527 0.360965 0.594472
O O10 0.880403 0.183080 0.674368
O O11 0.000000 0.000000 0.755811
#
# Coordination Sequence:
#
# PCOD9367661 Si02
#       5
#     8   8   8   8   8
#     4  12  28  51  81 116 150 205 263 322 381 460
#     4  12  28  46  83 114 153 195 265 324 385 453
#     4  10  26  48  74 111 157 197 259 311 393 460
#     4  11  23  49  76 112 149 205 254 321 376 458
#     4  11  27  48  77 108 156 205 253 319 388 467
#
# _framework density 24.802817999999998
#
# number of rings (size 3 to 8) (size 9 to 14) (size 15 to 20)
#    0.000    0.800    2.000    3.000    8.400    4.000 
#    0.000    3.000    0.000    0.000    0.000    0.000 
#    0.000    0.000    0.000    0.000    0.000    0.000 
#
# Total GULP energy -112020.704628 kJ/mol
# GULP energy per Si atom -5601.035231 kJ/mol
# Density = 2.474637 g / cm^3
# Si number density = 24.802818 Si / 1000 Ang^3
#
#
#
# Elastic Constant Matrix: (Units=GPa)
#
#
# Indices 1 2 3 4 5 6 
#
# 1 114.5976 25.3940 24.5209 0.0000 0.0000 0.0000
# 2 25.3940 144.8475 15.5697 0.0000 0.0000 0.0000
# 3 24.5209 15.5697 87.8470 0.0000 0.0000 0.0000
# 4 0.0000 0.0000 0.0000 35.3141 0.0000 0.0000
# 5 0.0000 0.0000 0.0000 0.0000 24.3526 0.0000
# 6 0.0000 0.0000 0.0000 0.0000 0.0000 42.2748
#
#
#
# Elastic Compliance Matrix: (Units=1/GPa)
#
#
# Indices 1 2 3 4 5 6 
#
# 1 0.009557 -0.001416 -0.002417 0.000000 0.000000 0.000000
# 2 -0.001416 0.007248 -0.000889 0.000000 0.000000 0.000000
# 3 -0.002417 -0.000889 0.012216 0.000000 0.000000 0.000000
# 4 0.000000 0.000000 0.000000 0.028317 0.000000 0.000000
# 5 0.000000 0.000000 0.000000 0.000000 0.041063 0.000000
# 6 0.000000 0.000000 0.000000 0.000000 0.000000 0.023655
#
#
# Mechanical properties :
#
#
# Convention : Reuss Voigt Hill
#
# Bulk Modulus (GPa) = 51.08138 53.14013 52.11075
# Shear Modulus (GPa) = 36.22536 39.17549 37.70043
#
# Velocity S-wave (km/s) = 3.82584 3.97858 3.90295
# Velocity P-wave (km/s) = 6.33686 6.52510 6.43167
#
# Compressibility (1/GPa) = 0.01957661
#
# Stress axis : x y z
#
# Youngs Moduli (GPa) = 104.63513 137.97658 81.86221
#
# Poissons Ratio (x) = 0.19534 0.19784
# Poissons Ratio (y) = 0.14813 0.07281
# Poissons Ratio (z) = 0.25288 0.12271
#
# Static dielectric constant tensor:
#      x y z
#    x 2.027970 0.000000 0.000000 
#    y 0.000000 1.986710 0.000000 
#    z 0.000000 0.000000 1.913640 
# 
# From -- ./inp_files/9559.got.cif
#   From: 2010.05.17/outbox.cif.g08.bks.cpg/sg41_5_cif.got.tgz:9559.got - 2010.06.03 18:54:24.
