data_PCOD9367512
_publ_section_title
;
Structure prediction by ZEFSAII (Michael W. Deem and Ramdas Pophale) SiO2 
 PCOD9367512
Probable space group: A B A 2
;
_chemical_formula_sum "Si O2"
_cell_formula_units_Z 40
_cell_length_a 10.489426
_cell_length_b 17.182495
_cell_length_c 9.139503
_cell_angle_alpha 90.000000
_cell_angle_beta 90.000000
_cell_angle_gamma 90.000000
_cell_volume 1647.253843
_symmetry_space_group_name_H-M "A B A 2"
_symmetry_group_IT_number 41
_symmetry_cell_setting 'orthorhombic'
loop_
_space_group_symop_operation_xyz
x,y,z
-x,-y,z
1/2-x,y,1/2+z
1/2+x,-y,1/2+z
x,1/2+y,1/2+z
-x,1/2-y,1/2+z
1/2-x,1/2+y,z
1/2+x,1/2-y,z
loop_
_atom_site_type_symbol
_atom_site_label
_atom_site_fract_x
_atom_site_fract_y
_atom_site_fract_z
Si Si1 0.832124 0.461290 0.007930
Si Si2 0.212686 0.183545 0.850223
Si Si3 0.208009 0.441047 0.742899
Si Si4 0.976283 0.120886 0.730579
Si Si5 0.740029 0.712411 0.600588
O O1 0.721131 0.495836 0.113388
O O2 0.937082 0.428948 0.120331
O O3 0.788804 0.389756 0.907867
O O4 0.862203 0.529549 0.888285
O O5 0.064605 0.159588 0.852632
O O6 0.236794 0.207094 0.683843
O O7 0.250646 0.262676 0.933864
O O8 0.356910 0.428254 0.790319
O O9 0.175668 0.358382 0.665538
O O10 0.903670 0.185289 0.633700
#
# Coordination Sequence:
#
# PCOD9367512 Si02
#       5
#     8   8   8   8   8
#     4  12  21  43  69  94 135 181 228 285 342 408
#     4  12  22  44  68  98 136 179 227 282 346 410
#     4  10  24  43  70  94 139 180 226 281 351 401
#     4  10  25  40  71  96 143 174 232 278 352 406
#     4  10  25  41  68 100 135 180 225 280 347 408
#
# _framework density 24.28284
#
# number of rings (size 3 to 8) (size 9 to 14) (size 15 to 20)
#    1.200    0.000    4.000    1.800    2.800    0.000 
#    0.000    0.000    8.800    0.000    0.000    0.000 
#    0.000    0.000    0.000    0.000    0.000    0.000 
#
# Total GULP energy -111578.568921 kJ/mol
# GULP energy per Si atom -5578.928446 kJ/mol
# Density = 2.422757 g / cm^3
# Si number density = 24.282840 Si / 1000 Ang^3
#
#
#
# Elastic Constant Matrix: (Units=GPa)
#
#
# Indices 1 2 3 4 5 6 
#
# 1 27.8655 19.3281 3.5420 0.0000 0.0000 0.0000
# 2 19.3281 115.4682 27.3878 0.0000 0.0000 0.0000
# 3 3.5420 27.3878 77.9582 0.0000 0.0000 0.0000
# 4 0.0000 0.0000 0.0000 49.2353 0.0000 0.0000
# 5 0.0000 0.0000 0.0000 0.0000 27.1350 0.0000
# 6 0.0000 0.0000 0.0000 0.0000 0.0000 36.4038
#
#
#
# Elastic Compliance Matrix: (Units=1/GPa)
#
#
# Indices 1 2 3 4 5 6 
#
# 1 0.040626 -0.006941 0.000593 0.000000 0.000000 0.000000
# 2 -0.006941 0.010633 -0.003420 0.000000 0.000000 0.000000
# 3 0.000593 -0.003420 0.014002 0.000000 0.000000 0.000000
# 4 0.000000 0.000000 0.000000 0.020311 0.000000 0.000000
# 5 0.000000 0.000000 0.000000 0.000000 0.036853 0.000000
# 6 0.000000 0.000000 0.000000 0.000000 0.000000 0.027470
#
#
# Mechanical properties :
#
#
# Convention : Reuss Voigt Hill
#
# Bulk Modulus (GPa) = 21.87032 35.75640 28.81336
# Shear Modulus (GPa) = 27.07490 33.95708 30.51599
#
# Velocity S-wave (km/s) = 3.34276 3.74357 3.54883
# Velocity P-wave (km/s) = 4.89129 5.78297 5.35572
#
# Compressibility (1/GPa) = 0.04572406
#
# Stress axis : x y z
#
# Youngs Moduli (GPa) = 24.61498 94.04257 71.41799
#
# Poissons Ratio (x) = 0.65274 -0.04232
# Poissons Ratio (y) = 0.17085 0.24427
# Poissons Ratio (z) = -0.01459 0.32166
#
# Static dielectric constant tensor:
#      x y z
#    x 1.927380 0.000000 0.000000 
#    y 0.000000 1.984160 0.000000 
#    z 0.000000 0.000000 1.890630 
# 
# From -- ./inp_files/2454.got.cif
#   From: 2010.05.17/outbox.cif.g08.bks.cpg/sg41_2_cif.got.tgz:2454.got - 2010.06.03 18:54:24.
