data_PCOD9367582
_publ_section_title
;
Structure prediction by ZEFSAII (Michael W. Deem and Ramdas Pophale) SiO2 
 PCOD9367582
Probable space group: A B A 2
;
_chemical_formula_sum "Si O2"
_cell_formula_units_Z 40
_cell_length_a 8.649702
_cell_length_b 13.527158
_cell_length_c 13.787929
_cell_angle_alpha 90.000000
_cell_angle_beta 90.000000
_cell_angle_gamma 90.000000
_cell_volume 1613.268843
_symmetry_space_group_name_H-M "A B A 2"
_symmetry_group_IT_number 41
_symmetry_cell_setting 'orthorhombic'
loop_
_space_group_symop_operation_xyz
x,y,z
-x,-y,z
1/2-x,y,1/2+z
1/2+x,-y,1/2+z
x,1/2+y,1/2+z
-x,1/2-y,1/2+z
1/2-x,1/2+y,z
1/2+x,1/2-y,z
loop_
_atom_site_type_symbol
_atom_site_label
_atom_site_fract_x
_atom_site_fract_y
_atom_site_fract_z
Si Si1 0.988146 0.754911 0.031920
Si Si2 0.367291 0.082034 0.936549
Si Si3 0.176380 0.339173 0.200579
Si Si4 0.464379 0.265634 0.322176
Si Si5 0.656348 0.043467 0.559835
O O1 0.880366 0.745045 0.124640
O O2 0.085769 0.653883 0.025380
O O3 0.101102 0.847508 0.029466
O O4 0.898023 0.753747 0.929620
O O5 0.710124 0.063100 0.138406
O O6 0.500000 0.000000 0.925266
O O7 0.216320 0.022856 0.970780
O O8 0.397102 0.154851 0.844817
O O9 0.336071 0.310611 0.252688
O O10 0.041730 0.332670 0.279619
O O11 0.500000 0.000000 0.604001
#
# Coordination Sequence:
#
# PCOD9367582 Si02
#       5
#     8   8   8   8   8
#     4  10  26  49  78 110 167 209 266 347 412 475
#     4  10  24  47  80 111 156 215 259 333 413 486
#     4  12  24  49  74 118 156 210 273 327 411 496
#     4  10  27  43  81 111 155 212 265 334 410 487
#     4  12  27  45  78 116 153 216 268 332 416 493
#
# _framework density 24.794377999999998
#
# number of rings (size 3 to 8) (size 9 to 14) (size 15 to 20)
#    1.200    0.000    4.000    0.000   11.200    0.800 
#    0.000    0.000    4.400    0.000    0.000    0.000 
#    0.000    0.000    0.000    0.000    0.000    0.000 
#
# Total GULP energy -111651.622701 kJ/mol
# GULP energy per Si atom -5582.581135 kJ/mol
# Density = 2.473795 g / cm^3
# Si number density = 24.794378 Si / 1000 Ang^3
#
#
#
# Elastic Constant Matrix: (Units=GPa)
#
#
# Indices 1 2 3 4 5 6 
#
# 1 66.7886 12.7116 34.8897 0.0000 0.0000 0.0000
# 2 12.7116 97.2303 14.7242 0.0000 0.0000 0.0000
# 3 34.8897 14.7242 116.1326 0.0000 0.0000 0.0000
# 4 0.0000 0.0000 0.0000 22.9813 0.0000 0.0000
# 5 0.0000 0.0000 0.0000 0.0000 49.4216 0.0000
# 6 0.0000 0.0000 0.0000 0.0000 0.0000 53.2038
#
#
#
# Elastic Compliance Matrix: (Units=1/GPa)
#
#
# Indices 1 2 3 4 5 6 
#
# 1 0.017990 -0.001564 -0.005207 0.000000 0.000000 0.000000
# 2 -0.001564 0.010622 -0.000877 0.000000 0.000000 0.000000
# 3 -0.005207 -0.000877 0.010286 0.000000 0.000000 0.000000
# 4 0.000000 0.000000 0.000000 0.043514 0.000000 0.000000
# 5 0.000000 0.000000 0.000000 0.000000 0.020234 0.000000
# 6 0.000000 0.000000 0.000000 0.000000 0.000000 0.018796
#
#
# Mechanical properties :
#
#
# Convention : Reuss Voigt Hill
#
# Bulk Modulus (GPa) = 42.36527 44.97808 43.67167
# Shear Modulus (GPa) = 34.57724 39.64306 37.11015
#
# Velocity S-wave (km/s) = 3.73843 4.00293 3.87294
# Velocity P-wave (km/s) = 5.97982 6.28843 6.13607
#
# Compressibility (1/GPa) = 0.02360424
#
# Stress axis : x y z
#
# Youngs Moduli (GPa) = 55.58639 94.14349 97.21730
#
# Poissons Ratio (x) = 0.14719 0.50616
# Poissons Ratio (y) = 0.08691 0.08526
# Poissons Ratio (z) = 0.28941 0.08257
#
# Static dielectric constant tensor:
#      x y z
#    x 2.020450 0.000000 0.000000 
#    y 0.000000 1.986810 0.000000 
#    z 0.000000 0.000000 2.008080 
# 
# From -- ./inp_files/4370.got.cif
#   From: 2010.05.17/outbox.cif.g08.bks.cpg/sg41_3_cif.got.tgz:4370.got - 2010.06.03 18:54:24.
