data_PCOD9367656
_publ_section_title
;
Structure prediction by ZEFSAII (Michael W. Deem and Ramdas Pophale) SiO2 
 PCOD9367656
Probable space group: A B A 2
;
_chemical_formula_sum "Si O2"
_cell_formula_units_Z 40
_cell_length_a 10.170991
_cell_length_b 8.862062
_cell_length_c 19.583579
_cell_angle_alpha 90.000000
_cell_angle_beta 90.000000
_cell_angle_gamma 90.000000
_cell_volume 1765.184553
_symmetry_space_group_name_H-M "A B A 2"
_symmetry_group_IT_number 41
_symmetry_cell_setting 'orthorhombic'
loop_
_space_group_symop_operation_xyz
x,y,z
-x,-y,z
1/2-x,y,1/2+z
1/2+x,-y,1/2+z
x,1/2+y,1/2+z
-x,1/2-y,1/2+z
1/2-x,1/2+y,z
1/2+x,1/2-y,z
loop_
_atom_site_type_symbol
_atom_site_label
_atom_site_fract_x
_atom_site_fract_y
_atom_site_fract_z
Si Si1 0.713065 0.802726 0.741090
Si Si2 0.500000 0.500000 0.083747
Si Si3 0.000000 0.000000 0.291941
Si Si4 0.485392 0.170160 0.157870
Si Si5 0.858320 0.957030 0.953436
Si Si6 0.172995 0.323917 0.879029
O O1 0.626266 0.956171 0.747631
O O2 0.845335 0.822060 0.697261
O O3 0.609843 0.685109 0.708914
O O4 0.749125 0.754064 0.817524
O O5 0.496330 0.333035 0.118205
O O6 0.625754 0.500424 0.032218
O O7 0.037876 0.865789 0.342260
O O8 0.500000 0.000000 0.125633
O O9 0.844398 0.780846 0.943920
O O10 0.747316 0.033261 0.908831
O O11 0.000000 0.000000 0.922126
#
# Coordination Sequence:
#
# PCOD9367656 Si02
#       6
#     8   4   4   8   8   8
#     4  12  26  45  78 118 155 189 257 322 410 473
#     4  10  29  56  70 108 154 207 284 304 366 480
#     4  12  23  40  74 120 152 189 242 314 400 504
#     4  12  29  50  78 112 155 214 254 329 388 462
#     4  10  26  47  68 105 146 198 251 315 375 467
#     4  12  23  44  77 109 150 190 242 321 409 459
#
# _framework density 22.660519000000001
#
# number of rings (size 3 to 8) (size 9 to 14) (size 15 to 20)
#    0.600    0.000    4.000    3.000    2.800    1.600 
#    5.400    0.000    0.000    0.000    0.000    0.000 
#    0.000    0.000    0.000    0.000    0.000    0.000 
#
# Total GULP energy -111496.417300 kJ/mol
# GULP energy per Si atom -5574.820865 kJ/mol
# Density = 2.260894 g / cm^3
# Si number density = 22.660519 Si / 1000 Ang^3
#
#
#
# Elastic Constant Matrix: (Units=GPa)
#
#
# Indices 1 2 3 4 5 6 
#
# 1 126.3053 30.2655 28.3589 0.0000 0.0000 0.0000
# 2 30.2655 140.5024 52.0939 0.0000 0.0000 0.0000
# 3 28.3589 52.0939 84.0760 0.0000 0.0000 0.0000
# 4 0.0000 0.0000 0.0000 33.4679 0.0000 0.0000
# 5 0.0000 0.0000 0.0000 0.0000 18.9837 0.0000
# 6 0.0000 0.0000 0.0000 0.0000 0.0000 38.3976
#
#
#
# Elastic Compliance Matrix: (Units=1/GPa)
#
#
# Indices 1 2 3 4 5 6 
#
# 1 0.008677 -0.001018 -0.002296 0.000000 0.000000 0.000000
# 2 -0.001018 0.009359 -0.005456 0.000000 0.000000 0.000000
# 3 -0.002296 -0.005456 0.016049 0.000000 0.000000 0.000000
# 4 0.000000 0.000000 0.000000 0.029879 0.000000 0.000000
# 5 0.000000 0.000000 0.000000 0.000000 0.052677 0.000000
# 6 0.000000 0.000000 0.000000 0.000000 0.000000 0.026043
#
#
# Mechanical properties :
#
#
# Convention : Reuss Voigt Hill
#
# Bulk Modulus (GPa) = 60.43846 63.59114 62.01480
# Shear Modulus (GPa) = 30.16791 34.18087 32.17439
#
# Velocity S-wave (km/s) = 3.65265 3.88801 3.77217
# Velocity P-wave (km/s) = 6.67221 6.94831 6.81166
#
# Compressibility (1/GPa) = 0.01654576
#
# Stress axis : x y z
#
# Youngs Moduli (GPa) = 115.25088 106.84441 62.30949
#
# Poissons Ratio (x) = 0.10874 0.14307
# Poissons Ratio (y) = 0.11730 0.33995
# Poissons Ratio (z) = 0.26462 0.58293
#
# Static dielectric constant tensor:
#      x y z
#    x 1.932070 0.000000 0.000000 
#    y 0.000000 1.995160 0.000000 
#    z 0.000000 0.000000 1.829780 
# 
# From -- ./inp_files/11363.got.cif
#   From: 2010.05.17/outbox.cif.g08.bks.cpg/sg41_6_cif.got.tgz:11363.got - 2010.06.03 18:54:24.
