data_PCOD9367291
_publ_section_title
;
Structure prediction by ZEFSAII (Michael W. Deem and Ramdas Pophale) SiO2 
 PCOD9367291
Probable space group: A B A 2
;
_chemical_formula_sum "Si O2"
_cell_formula_units_Z 64
_cell_length_a 9.152061
_cell_length_b 10.925785
_cell_length_c 30.140397
_cell_angle_alpha 90.000000
_cell_angle_beta 90.000000
_cell_angle_gamma 90.000000
_cell_volume 3013.842304
_symmetry_space_group_name_H-M "A B A 2"
_symmetry_group_IT_number 41
_symmetry_cell_setting 'orthorhombic'
loop_
_space_group_symop_operation_xyz
x,y,z
-x,-y,z
1/2-x,y,1/2+z
1/2+x,-y,1/2+z
x,1/2+y,1/2+z
-x,1/2-y,1/2+z
1/2-x,1/2+y,z
1/2+x,1/2-y,z
loop_
_atom_site_type_symbol
_atom_site_label
_atom_site_fract_x
_atom_site_fract_y
_atom_site_fract_z
Si Si1 0.276173 0.477805 0.891420
Si Si2 0.682525 0.632571 0.569373
Si Si3 0.575078 0.619565 0.330889
Si Si4 0.043358 0.193601 0.907414
Si Si5 0.097844 0.387566 0.974689
Si Si6 0.848454 0.870605 0.602965
Si Si7 0.939279 0.368729 0.732979
Si Si8 0.400056 0.618697 0.707367
O O1 0.239235 0.424628 0.842217
O O2 0.305953 0.620442 0.898626
O O3 0.416163 0.402317 0.905522
O O4 0.166370 0.440006 0.929858
O O5 0.697578 0.645797 0.516367
O O6 0.764795 0.744472 0.592937
O O7 0.725411 0.494056 0.583316
O O8 0.511179 0.641661 0.582675
O O9 0.500000 0.500000 0.350314
O O10 0.533106 0.726582 0.363258
O O11 0.511720 0.636147 0.282251
O O12 0.030590 0.265063 0.953660
O O13 0.000000 0.500000 0.991801
O O14 0.862573 0.892964 0.655442
O O15 0.760759 0.371830 0.731465
O O16 0.000000 0.500000 0.714312
O O17 0.004940 0.244157 0.711961
O O18 0.500000 0.500000 0.720631
#
# Coordination Sequence:
#
# PCOD9367291 Si02
#       8
#     8   8   8   8   8   8   8   8
#     4  10  23  39  64  94 133 182 234 291 345 422
#     4  11  25  44  72 102 148 186 245 289 364 425
#     4  10  24  42  65  91 135 172 227 281 356 415
#     4  10  23  39  65  95 130 183 235 289 352 416
#     4  11  24  39  66  93 142 179 233 290 356 410
#     4  11  25  48  70 107 139 193 233 299 358 440
#     4  11  27  45  76 109 144 190 240 303 376 444
#     4  12  25  50  77 108 148 184 247 307 375 455
#
# _framework density 21.235351000000001
#
# number of rings (size 3 to 8) (size 9 to 14) (size 15 to 20)
#    0.000    1.250    2.500    3.000   14.000    1.500 
#    2.250    0.000    0.000    0.000    0.000    0.000 
#    0.000    0.000    0.000    0.000    0.000    0.000 
#
# Total GULP energy -178211.580384 kJ/mol
# GULP energy per Si atom -5569.111887 kJ/mol
# Density = 2.118702 g / cm^3
# Si number density = 21.235351 Si / 1000 Ang^3
#
#
#
# Elastic Constant Matrix: (Units=GPa)
#
#
# Indices 1 2 3 4 5 6 
#
# 1 73.4300 37.8594 14.2656 0.0000 0.0000 0.0000
# 2 37.8594 141.6557 19.8207 0.0000 0.0000 0.0000
# 3 14.2656 19.8207 105.9122 0.0000 0.0000 0.0000
# 4 0.0000 0.0000 0.0000 33.0864 0.0000 0.0000
# 5 0.0000 0.0000 0.0000 0.0000 5.1581 0.0000
# 6 0.0000 0.0000 0.0000 0.0000 0.0000 37.4347
#
#
#
# Elastic Compliance Matrix: (Units=1/GPa)
#
#
# Indices 1 2 3 4 5 6 
#
# 1 0.015992 -0.004079 -0.001391 0.000000 0.000000 0.000000
# 2 -0.004079 0.008290 -0.001002 0.000000 0.000000 0.000000
# 3 -0.001391 -0.001002 0.009817 0.000000 0.000000 0.000000
# 4 0.000000 0.000000 0.000000 0.030224 0.000000 0.000000
# 5 0.000000 0.000000 0.000000 0.000000 0.193868 0.000000
# 6 0.000000 0.000000 0.000000 0.000000 0.000000 0.026713
#
#
# Mechanical properties :
#
#
# Convention : Reuss Voigt Hill
#
# Bulk Modulus (GPa) = 47.27137 51.65435 49.46286
# Shear Modulus (GPa) = 16.39889 31.73933 24.06911
#
# Velocity S-wave (km/s) = 2.78194 3.87026 3.37032
# Velocity P-wave (km/s) = 5.71209 6.65953 6.20392
#
# Compressibility (1/GPa) = 0.02115445
#
# Stress axis : x y z
#
# Youngs Moduli (GPa) = 62.53178 120.62938 101.86848
#
# Poissons Ratio (x) = 0.49210 0.14165
# Poissons Ratio (y) = 0.25510 0.10206
# Poissons Ratio (z) = 0.08695 0.12086
#
# Static dielectric constant tensor:
#      x y z
#    x 2.077420 0.000000 0.000000 
#    y 0.000000 1.801400 0.000000 
#    z 0.000000 0.000000 1.766870 
# 
# From -- ./inp_files/12698.got.cif
#   From: 2010.05.17/outbox.cif.g08.bks.cpg/sg41_7_cif.got.tgz:12698.got - 2010.06.03 18:54:24.
