data_PCOD9367288
_publ_section_title
;
Structure prediction by ZEFSAII (Michael W. Deem and Ramdas Pophale) SiO2 
 PCOD9367288
Probable space group: A B A 2
;
_chemical_formula_sum "Si O2"
_cell_formula_units_Z 40
_cell_length_a 9.602741
_cell_length_b 19.703093
_cell_length_c 10.144750
_cell_angle_alpha 90.000000
_cell_angle_beta 90.000000
_cell_angle_gamma 90.000000
_cell_volume 1919.424225
_symmetry_space_group_name_H-M "A B A 2"
_symmetry_group_IT_number 41
_symmetry_cell_setting 'orthorhombic'
loop_
_space_group_symop_operation_xyz
x,y,z
-x,-y,z
1/2-x,y,1/2+z
1/2+x,-y,1/2+z
x,1/2+y,1/2+z
-x,1/2-y,1/2+z
1/2-x,1/2+y,z
1/2+x,1/2-y,z
loop_
_atom_site_type_symbol
_atom_site_label
_atom_site_fract_x
_atom_site_fract_y
_atom_site_fract_z
Si Si1 0.463262 0.791375 0.495100
Si Si2 0.233214 0.690235 0.887713
Si Si3 0.876468 0.553513 0.505095
Si Si4 0.898479 0.836573 0.640793
Si Si5 0.120678 0.945727 0.700026
O O1 0.367419 0.755521 0.383000
O O2 0.622993 0.785502 0.454078
O O3 0.430057 0.869279 0.518598
O O4 0.428156 0.743413 0.619096
O O5 0.280384 0.656342 0.752064
O O6 0.158249 0.642331 0.996114
O O7 0.834560 0.546299 0.351723
O O8 0.748047 0.544856 0.602465
O O9 0.000000 0.500000 0.530503
O O10 0.038082 0.875176 0.679476
O O11 0.000000 0.000000 0.674034
#
# Coordination Sequence:
#
# PCOD9367288 Si02
#       5
#     8   8   8   8   8
#     4  10  23  39  67  96 138 174 228 285 344 413
#     4  10  23  38  67  95 142 169 230 276 357 399
#     4  11  26  46  71 101 140 187 234 296 351 432
#     4  10  24  41  66 105 133 183 223 296 344 427
#     4  11  26  48  70  99 145 181 243 287 357 427
#
# _framework density 20.839583000000001
#
# number of rings (size 3 to 8) (size 9 to 14) (size 15 to 20)
#    1.200    0.400    2.000    1.200    8.400    0.800 
#    3.600    0.000    0.000    0.000    0.000    0.000 
#    0.000    0.000    0.000    0.000    0.000    0.000 
#
# Total GULP energy -111599.826673 kJ/mol
# GULP energy per Si atom -5579.991334 kJ/mol
# Density = 2.079215 g / cm^3
# Si number density = 20.839583 Si / 1000 Ang^3
#
#
#
# Elastic Constant Matrix: (Units=GPa)
#
#
# Indices 1 2 3 4 5 6 
#
# 1 123.4632 46.0208 71.5358 0.0000 0.0000 0.0000
# 2 46.0208 69.0810 66.3318 0.0000 0.0000 0.0000
# 3 71.5358 66.3318 119.9707 0.0000 0.0000 0.0000
# 4 0.0000 0.0000 0.0000 12.8374 0.0000 0.0000
# 5 0.0000 0.0000 0.0000 0.0000 47.7521 0.0000
# 6 0.0000 0.0000 0.0000 0.0000 0.0000 18.2609
#
#
#
# Elastic Compliance Matrix: (Units=1/GPa)
#
#
# Indices 1 2 3 4 5 6 
#
# 1 0.012576 -0.002510 -0.006111 0.000000 0.000000 0.000000
# 2 -0.002510 0.031359 -0.015842 0.000000 0.000000 0.000000
# 3 -0.006111 -0.015842 0.020738 0.000000 0.000000 0.000000
# 4 0.000000 0.000000 0.000000 0.077898 0.000000 0.000000
# 5 0.000000 0.000000 0.000000 0.000000 0.020941 0.000000
# 6 0.000000 0.000000 0.000000 0.000000 0.000000 0.054762
#
#
# Mechanical properties :
#
#
# Convention : Reuss Voigt Hill
#
# Bulk Modulus (GPa) = 63.50170 75.58796 69.54483
# Shear Modulus (GPa) = 18.35203 24.34517 21.34860
#
# Velocity S-wave (km/s) = 2.97077 3.42163 3.20414
# Velocity P-wave (km/s) = 6.50424 7.20834 6.86532
#
# Compressibility (1/GPa) = 0.01574761
#
# Stress axis : x y z
#
# Youngs Moduli (GPa) = 79.51683 31.88830 48.22062
#
# Poissons Ratio (x) = 0.08005 0.29467
# Poissons Ratio (y) = 0.19961 0.76390
# Poissons Ratio (z) = 0.48591 0.50517
#
# Static dielectric constant tensor:
#      x y z
#    x 1.699960 0.000000 0.000000 
#    y 0.000000 1.810680 0.000000 
#    z 0.000000 0.000000 1.796610 
# 
# From -- ./inp_files/1715.got.cif
#   From: 2010.05.17/outbox.cif.g08.bks.cpg/sg41_1_cif.got.tgz:1715.got - 2010.06.03 18:54:24.
