data_PCOD9367232
_publ_section_title
;
Structure prediction by ZEFSAII (Michael W. Deem and Ramdas Pophale) SiO2 
 PCOD9367232
Probable space group: A B A 2
;
_chemical_formula_sum "Si O2"
_cell_formula_units_Z 40
_cell_length_a 6.899175
_cell_length_b 17.462799
_cell_length_c 13.914756
_cell_angle_alpha 90.000000
_cell_angle_beta 90.000000
_cell_angle_gamma 90.000000
_cell_volume 1676.434584
_symmetry_space_group_name_H-M "A B A 2"
_symmetry_group_IT_number 41
_symmetry_cell_setting 'orthorhombic'
loop_
_space_group_symop_operation_xyz
x,y,z
-x,-y,z
1/2-x,y,1/2+z
1/2+x,-y,1/2+z
x,1/2+y,1/2+z
-x,1/2-y,1/2+z
1/2-x,1/2+y,z
1/2+x,1/2-y,z
loop_
_atom_site_type_symbol
_atom_site_label
_atom_site_fract_x
_atom_site_fract_y
_atom_site_fract_z
Si Si1 0.597281 0.842018 0.377310
Si Si2 0.248686 0.437797 0.833621
Si Si3 0.500000 0.000000 0.009038
Si Si4 0.307088 0.628710 0.084322
Si Si5 0.459093 0.689565 0.273679
Si Si6 0.000000 0.500000 0.680505
O O1 0.467351 0.915053 0.354418
O O2 0.623584 0.827578 0.489845
O O3 0.510503 0.771046 0.318491
O O4 0.815134 0.853105 0.345496
O O5 0.149956 0.362110 0.785068
O O6 0.184932 0.497218 0.751053
O O7 0.152514 0.460843 0.935152
O O8 0.620758 0.930010 0.065012
O O9 0.332501 0.686669 0.174987
O O10 0.478906 0.571007 0.111900
#
# Coordination Sequence:
#
# PCOD9367232 Si02
#       6
#     8   8   4   8   8   4
#     4  12  24  47  73  98 145 198 238 311 372 435
#     4  10  22  44  71  97 147 182 237 306 367 441
#     4  11  22  44  67 106 144 190 247 300 367 460
#     4  11  25  43  71 108 141 193 245 293 374 440
#     4  11  25  46  66 109 141 189 251 303 367 443
#     4   9  22  44  63 110 140 182 241 288 365 454
#
# _framework density 23.860161000000002
#
# number of rings (size 3 to 8) (size 9 to 14) (size 15 to 20)
#    0.000    1.200    4.000    1.200    2.800    1.600 
#    0.000    0.000    0.000    0.000    0.000    0.000 
#    0.000    0.000    0.000    0.000    0.000    0.000 
#
# Total GULP energy -111399.793941 kJ/mol
# GULP energy per Si atom -5569.989697 kJ/mol
# Density = 2.380585 g / cm^3
# Si number density = 23.860161 Si / 1000 Ang^3
#
#
#
# Elastic Constant Matrix: (Units=GPa)
#
#
# Indices 1 2 3 4 5 6 
#
# 1 61.8763 7.5533 9.5593 0.0000 0.0000 0.0000
# 2 7.5533 109.0459 32.9586 0.0000 0.0000 0.0000
# 3 9.5593 32.9586 154.0507 0.0000 0.0000 0.0000
# 4 0.0000 0.0000 0.0000 33.4029 0.0000 0.0000
# 5 0.0000 0.0000 0.0000 0.0000 25.6735 0.0000
# 6 0.0000 0.0000 0.0000 0.0000 0.0000 37.3819
#
#
#
# Elastic Compliance Matrix: (Units=1/GPa)
#
#
# Indices 1 2 3 4 5 6 
#
# 1 0.016397 -0.000886 -0.000828 0.000000 0.000000 0.000000
# 2 -0.000886 0.009852 -0.002053 0.000000 0.000000 0.000000
# 3 -0.000828 -0.002053 0.006982 0.000000 0.000000 0.000000
# 4 0.000000 0.000000 0.000000 0.029938 0.000000 0.000000
# 5 0.000000 0.000000 0.000000 0.000000 0.038951 0.000000
# 6 0.000000 0.000000 0.000000 0.000000 0.000000 0.026751
#
#
# Mechanical properties :
#
#
# Convention : Reuss Voigt Hill
#
# Bulk Modulus (GPa) = 38.91266 47.23503 43.07385
# Shear Modulus (GPa) = 34.48993 37.61843 36.05418
#
# Velocity S-wave (km/s) = 3.80610 3.97498 3.89146
# Velocity P-wave (km/s) = 5.97154 6.39585 6.18733
#
# Compressibility (1/GPa) = 0.02569858
#
# Stress axis : x y z
#
# Youngs Moduli (GPa) = 60.98565 101.49950 143.22616
#
# Poissons Ratio (x) = 0.08988 0.11860
# Poissons Ratio (y) = 0.05400 0.29403
# Poissons Ratio (z) = 0.05050 0.20837
#
# Static dielectric constant tensor:
#      x y z
#    x 1.905760 0.000000 0.000000 
#    y 0.000000 2.080300 0.000000 
#    z 0.000000 0.000000 1.944470 
# 
# From -- ./inp_files/4451.got.cif
#   From: 2010.05.17/outbox.cif.g08.bks.cpg/sg41_3_cif.got.tgz:4451.got - 2010.06.03 18:54:24.
