data_PCOD9367355
_publ_section_title
;
Structure prediction by ZEFSAII (Michael W. Deem and Ramdas Pophale) SiO2 
 PCOD9367355
Probable space group: A B A 2
;
_chemical_formula_sum "Si O2"
_cell_formula_units_Z 56
_cell_length_a 13.472316
_cell_length_b 14.890983
_cell_length_c 12.775784
_cell_angle_alpha 90.000000
_cell_angle_beta 90.000000
_cell_angle_gamma 90.000000
_cell_volume 2563.027047
_symmetry_space_group_name_H-M "A B A 2"
_symmetry_group_IT_number 41
_symmetry_cell_setting 'orthorhombic'
loop_
_space_group_symop_operation_xyz
x,y,z
-x,-y,z
1/2-x,y,1/2+z
1/2+x,-y,1/2+z
x,1/2+y,1/2+z
-x,1/2-y,1/2+z
1/2-x,1/2+y,z
1/2+x,1/2-y,z
loop_
_atom_site_type_symbol
_atom_site_label
_atom_site_fract_x
_atom_site_fract_y
_atom_site_fract_z
Si Si1 0.290600 0.965781 0.278910
Si Si2 0.124072 0.301933 0.407527
Si Si3 0.312610 0.688095 0.129385
Si Si4 0.992399 0.245474 0.237001
Si Si5 0.822112 0.645927 0.633765
Si Si6 0.718953 0.891787 0.946862
Si Si7 0.111645 0.092773 0.649620
O O1 0.318261 0.872476 0.334427
O O2 0.217510 0.946299 0.180904
O O3 0.284204 0.142814 0.182923
O O4 0.244685 0.032962 0.363825
O O5 0.019652 0.279705 0.352308
O O6 0.121381 0.344992 0.523164
O O7 0.179567 0.205684 0.410678
O O8 0.413419 0.691607 0.192173
O O9 0.273318 0.789898 0.115367
O O10 0.313400 0.634722 0.019827
O O11 0.112331 0.508853 0.225601
O O12 0.895488 0.185727 0.221550
O O13 0.972095 0.333759 0.166662
O O14 0.634223 0.926521 0.028476
#
# Coordination Sequence:
#
# PCOD9367355 Si02
#       7
#     8   8   8   8   8   8   8
#     4  12  22  41  73 100 139 178 226 290 350 409
#     4  11  23  42  70 101 132 183 238 278 350 421
#     4   8  18  42  64  90 133 176 219 280 328 407
#     4  11  20  42  70  95 137 184 226 287 343 407
#     4  10  23  43  64 100 138 176 230 288 340 418
#     4   9  22  43  67  95 137 182 227 273 345 416
#     4   9  22  41  65  95 137 173 224 280 335 406
#
# _framework density 21.849163999999998
#
# number of rings (size 3 to 8) (size 9 to 14) (size 15 to 20)
#    0.857    1.143    2.857    1.714    2.000    1.714 
#    2.571    2.857    3.143    0.000    0.000    0.000 
#    0.000    0.000    0.000    0.000    0.000    0.000 
#
# Total GULP energy -156009.234244 kJ/mol
# GULP energy per Si atom -5571.758366 kJ/mol
# Density = 2.179943 g / cm^3
# Si number density = 21.849164 Si / 1000 Ang^3
#
#
#
# Elastic Constant Matrix: (Units=GPa)
#
#
# Indices 1 2 3 4 5 6 
#
# 1 58.3937 18.7128 10.4055 0.0000 0.0000 0.0000
# 2 18.7128 65.7702 51.1569 0.0000 0.0000 0.0000
# 3 10.4055 51.1569 98.1405 0.0000 0.0000 0.0000
# 4 0.0000 0.0000 0.0000 53.1139 0.0000 0.0000
# 5 0.0000 0.0000 0.0000 0.0000 25.5298 0.0000
# 6 0.0000 0.0000 0.0000 0.0000 0.0000 20.1076
#
#
#
# Elastic Compliance Matrix: (Units=1/GPa)
#
#
# Indices 1 2 3 4 5 6 
#
# 1 0.018949 -0.006439 0.001348 0.000000 0.000000 0.000000
# 2 -0.006439 0.027761 -0.013788 0.000000 0.000000 0.000000
# 3 0.001348 -0.013788 0.017234 0.000000 0.000000 0.000000
# 4 0.000000 0.000000 0.000000 0.018827 0.000000 0.000000
# 5 0.000000 0.000000 0.000000 0.000000 0.039170 0.000000
# 6 0.000000 0.000000 0.000000 0.000000 0.000000 0.049733
#
#
# Mechanical properties :
#
#
# Convention : Reuss Voigt Hill
#
# Bulk Modulus (GPa) = 38.19167 42.53942 40.36555
# Shear Modulus (GPa) = 22.91886 29.21888 26.06887
#
# Velocity S-wave (km/s) = 3.24228 3.66088 3.45792
# Velocity P-wave (km/s) = 5.61552 6.11402 5.87007
#
# Compressibility (1/GPa) = 0.02618372
#
# Stress axis : x y z
#
# Youngs Moduli (GPa) = 52.77451 36.02161 58.02547
#
# Poissons Ratio (x) = 0.23195 -0.07819
# Poissons Ratio (y) = 0.33983 0.80006
# Poissons Ratio (z) = -0.07112 0.49667
#
# Static dielectric constant tensor:
#      x y z
#    x 1.792340 0.000000 0.000000 
#    y 0.000000 1.813580 0.000000 
#    z 0.000000 0.000000 1.874070 
# 
# From -- ./inp_files/5584.got.cif
#   From: 2010.05.17/outbox.cif.g08.bks.cpg/sg41_3_cif.got.tgz:5584.got - 2010.06.03 18:54:24.
