data_PCOD9367464
_publ_section_title
;
Structure prediction by ZEFSAII (Michael W. Deem and Ramdas Pophale) SiO2 
 PCOD9367464
Probable space group: A B A 2
;
_chemical_formula_sum "Si O2"
_cell_formula_units_Z 64
_cell_length_a 25.991307
_cell_length_b 9.116038
_cell_length_c 11.067256
_cell_angle_alpha 90.000000
_cell_angle_beta 90.000000
_cell_angle_gamma 90.000000
_cell_volume 2622.250650
_symmetry_space_group_name_H-M "A B A 2"
_symmetry_group_IT_number 41
_symmetry_cell_setting 'orthorhombic'
loop_
_space_group_symop_operation_xyz
x,y,z
-x,-y,z
1/2-x,y,1/2+z
1/2+x,-y,1/2+z
x,1/2+y,1/2+z
-x,1/2-y,1/2+z
1/2-x,1/2+y,z
1/2+x,1/2-y,z
loop_
_atom_site_type_symbol
_atom_site_label
_atom_site_fract_x
_atom_site_fract_y
_atom_site_fract_z
Si Si1 0.749546 0.167534 0.609690
Si Si2 0.677510 0.379848 0.891464
Si Si3 0.659371 0.563541 0.453703
Si Si4 0.145541 0.155297 0.635871
Si Si5 0.030039 0.653783 0.630637
Si Si6 0.215211 0.600582 0.773646
Si Si7 0.887775 0.556508 0.546525
Si Si8 0.476146 0.340961 0.878105
O O1 0.782635 0.089535 0.506907
O O2 0.701197 0.277911 0.591900
O O3 0.790885 0.270851 0.678343
O O4 0.732556 0.045837 0.704986
O O5 0.647507 0.228755 0.919540
O O6 0.654300 0.420752 0.762645
O O7 0.737397 0.353331 0.861344
O O8 0.666250 0.502132 0.990548
O O9 0.626608 0.472754 0.548901
O O10 0.665499 0.450765 0.344350
O O11 0.113958 0.305725 0.636650
O O12 0.086282 0.587535 0.602060
O O13 0.025410 0.747288 0.754111
O O14 0.000000 0.500000 0.649745
O O15 0.007379 0.714582 0.500617
O O16 0.920487 0.619944 0.434340
O O17 0.500000 0.500000 0.848151
#
# Coordination Sequence:
#
# PCOD9367464 Si02
#       8
#     8   8   8   8   8   8   8   8
#     4  11  22  39  58  81 110 158 221 275 311 364
#     4  11  24  39  55  85 122 159 211 263 316 371
#     4  12  23  38  58  79 109 164 213 263 326 362
#     4  11  24  39  55  85 122 159 211 263 316 371
#     4   9  21  44  71 101 129 163 203 244 303 378
#     4  11  22  39  58  81 110 158 221 275 311 364
#     4  10  24  40  62  93 134 164 194 259 312 374
#     4   9  21  44  71 101 129 163 203 244 303 378
#
# _framework density 24.406517000000001
#
# number of rings (size 3 to 8) (size 9 to 14) (size 15 to 20)
#    0.000    1.750    5.000    1.500    3.500    6.500 
#    0.000    0.000    0.000    0.000    0.000    0.000 
#    0.000    0.000    0.000    0.000    0.000    0.000 
#
# Total GULP energy -178555.130633 kJ/mol
# GULP energy per Si atom -5579.847832 kJ/mol
# Density = 2.435097 g / cm^3
# Si number density = 24.406517 Si / 1000 Ang^3
#
#
#
# Elastic Constant Matrix: (Units=GPa)
#
#
# Indices 1 2 3 4 5 6 
#
# 1 36.5443 -11.9825 11.7329 0.0000 0.0000 0.0000
# 2 -11.9825 88.9540 50.5243 0.0000 0.0000 0.0000
# 3 11.7329 50.5243 117.2001 0.0000 0.0000 0.0000
# 4 0.0000 0.0000 0.0000 53.5211 0.0000 0.0000
# 5 0.0000 0.0000 0.0000 0.0000 9.1059 0.0000
# 6 0.0000 0.0000 0.0000 0.0000 0.0000 16.8299
#
#
#
# Elastic Compliance Matrix: (Units=1/GPa)
#
#
# Indices 1 2 3 4 5 6 
#
# 1 0.032209 0.008171 -0.006747 0.000000 0.000000 0.000000
# 2 0.008171 0.016960 -0.008129 0.000000 0.000000 0.000000
# 3 -0.006747 -0.008129 0.012712 0.000000 0.000000 0.000000
# 4 0.000000 0.000000 0.000000 0.018684 0.000000 0.000000
# 5 0.000000 0.000000 0.000000 0.000000 0.109819 0.000000
# 6 0.000000 0.000000 0.000000 0.000000 0.000000 0.059418
#
#
# Mechanical properties :
#
#
# Convention : Reuss Voigt Hill
#
# Bulk Modulus (GPa) = 20.63097 38.13864 29.38480
# Shear Modulus (GPa) = 17.89739 28.71962 23.30851
#
# Velocity S-wave (km/s) = 2.71090 3.43406 3.09368
# Velocity P-wave (km/s) = 4.27434 5.60214 4.98267
#
# Compressibility (1/GPa) = 0.04847082
#
# Stress axis : x y z
#
# Youngs Moduli (GPa) = 31.04693 58.96346 78.66403
#
# Poissons Ratio (x) = -0.48178 0.53074
# Poissons Ratio (y) = -0.25368 0.63948
# Poissons Ratio (z) = 0.20947 0.47933
#
# Static dielectric constant tensor:
#      x y z
#    x 2.062640 0.000000 0.000000 
#    y 0.000000 1.907080 0.000000 
#    z 0.000000 0.000000 1.982380 
# 
# From -- ./inp_files/6657.got.cif
#   From: 2010.05.17/outbox.cif.g08.bks.cpg/sg41_4_cif.got.tgz:6657.got - 2010.06.03 18:54:24.
