data_PCOD9367699
_publ_section_title
;
Structure prediction by ZEFSAII (Michael W. Deem and Ramdas Pophale) SiO2 
 PCOD9367699
Probable space group: A B A 2
;
_chemical_formula_sum "Si O2"
_cell_formula_units_Z 56
_cell_length_a 11.493728
_cell_length_b 13.389012
_cell_length_c 19.314468
_cell_angle_alpha 90.000000
_cell_angle_beta 90.000000
_cell_angle_gamma 90.000000
_cell_volume 2972.296954
_symmetry_space_group_name_H-M "A B A 2"
_symmetry_group_IT_number 41
_symmetry_cell_setting 'orthorhombic'
loop_
_space_group_symop_operation_xyz
x,y,z
-x,-y,z
1/2-x,y,1/2+z
1/2+x,-y,1/2+z
x,1/2+y,1/2+z
-x,1/2-y,1/2+z
1/2-x,1/2+y,z
1/2+x,1/2-y,z
loop_
_atom_site_type_symbol
_atom_site_label
_atom_site_fract_x
_atom_site_fract_y
_atom_site_fract_z
Si Si1 0.350498 0.351994 0.957630
Si Si2 0.000000 0.500000 0.984220
Si Si3 0.698064 0.370146 0.437869
Si Si4 0.198064 0.129855 0.092464
Si Si5 0.649501 0.148007 0.072703
Si Si6 0.359358 0.010543 0.185087
Si Si7 0.140642 0.510543 0.345245
Si Si8 0.000000 0.500000 0.546113
O O1 0.362363 0.237973 0.933437
O O2 0.317622 0.417723 0.891449
O O3 0.750000 0.147565 0.015166
O O4 0.455421 0.410155 0.996241
O O5 0.955421 0.589845 0.034092
O O6 0.898886 0.455630 0.937012
O O7 0.750000 0.377729 0.515166
O O8 0.800936 0.394313 0.383728
O O9 0.137636 0.237973 0.096896
O O10 0.101114 0.044371 0.093321
O O11 0.300936 0.105687 0.146605
O O12 0.682378 0.082276 0.138883
O O13 0.324572 0.008393 0.265166
O O14 0.500000 0.000000 0.182970
O O15 0.000000 0.500000 0.347363
#
# Coordination Sequence:
#
# PCOD9367699 Si02
#       8
#     8   4   8   8   8   8   8   4
#     4  11  21  37  64  91 118 156 204 254 301 360
#     4  12  18  38  64  94 120 154 198 258 318 360
#     4  11  22  37  62  92 120 153 204 255 302 359
#     4  11  22  37  62  92 120 153 204 255 302 359
#     4  11  21  37  64  91 118 156 204 254 301 360
#     4  11  22  41  62  83 121 163 200 244 300 368
#     4  11  22  41  62  83 121 163 200 244 300 368
#     4  12  18  38  64  94 120 154 198 258 318 360
#
# _framework density 18.840647000000001
#
# number of rings (size 3 to 8) (size 9 to 14) (size 15 to 20)
#    0.000    0.857    7.143    0.857    0.000    3.429 
#    0.000    0.714    0.000    0.000    0.000    0.000 
#    0.000    0.000    0.000    0.000    0.000    0.000 
#
# Total GULP energy -156119.161862 kJ/mol
# GULP energy per Si atom -5575.684352 kJ/mol
# Density = 1.879776 g / cm^3
# Si number density = 18.840647 Si / 1000 Ang^3
#
#
#
# Elastic Constant Matrix: (Units=GPa)
#
#
# Indices 1 2 3 4 5 6 
#
# 1 74.6506 42.8605 24.4407 0.0000 0.0000 0.0000
# 2 42.8605 115.9309 27.3011 0.0000 0.0000 0.0000
# 3 24.4407 27.3011 123.7712 0.0000 0.0000 0.0000
# 4 0.0000 0.0000 0.0000 4.6031 0.0000 0.0000
# 5 0.0000 0.0000 0.0000 0.0000 27.0478 0.0000
# 6 0.0000 0.0000 0.0000 0.0000 0.0000 30.2182
#
#
#
# Elastic Compliance Matrix: (Units=1/GPa)
#
#
# Indices 1 2 3 4 5 6 
#
# 1 0.017528 -0.005976 -0.002143 0.000000 0.000000 0.000000
# 2 -0.005976 0.011136 -0.001276 0.000000 0.000000 0.000000
# 3 -0.002143 -0.001276 0.008784 0.000000 0.000000 0.000000
# 4 0.000000 0.000000 0.000000 0.217245 0.000000 0.000000
# 5 0.000000 0.000000 0.000000 0.000000 0.036972 0.000000
# 6 0.000000 0.000000 0.000000 0.000000 0.000000 0.033093
#
#
# Mechanical properties :
#
#
# Convention : Reuss Voigt Hill
#
# Bulk Modulus (GPa) = 53.59656 55.95082 54.77369
# Shear Modulus (GPa) = 14.29525 27.02384 20.65955
#
# Velocity S-wave (km/s) = 2.75752 3.79137 3.31500
# Velocity P-wave (km/s) = 6.21672 6.99481 6.61721
#
# Compressibility (1/GPa) = 0.01865791
#
# Stress axis : x y z
#
# Youngs Moduli (GPa) = 57.05053 89.80189 113.84142
#
# Poissons Ratio (x) = 0.53662 0.24398
# Poissons Ratio (y) = 0.34091 0.14529
# Poissons Ratio (z) = 0.12227 0.11461
#
# Static dielectric constant tensor:
#      x y z
#    x 1.706590 0.000000 0.000000 
#    y 0.000000 1.707940 0.000000 
#    z 0.000000 0.000000 1.624230 
# 
# From -- ./inp_files/11404.got.cif
#   From: 2010.05.17/outbox.cif.g08.bks.cpg/sg41_6_cif.got.tgz:11404.got - 2010.06.03 18:54:24.
