data_PCOD9367495
_publ_section_title
;
Structure prediction by ZEFSAII (Michael W. Deem and Ramdas Pophale) SiO2 
 PCOD9367495
Probable space group: A B A 2
;
_chemical_formula_sum "Si O2"
_cell_formula_units_Z 44
_cell_length_a 13.021987
_cell_length_b 8.683491
_cell_length_c 17.617068
_cell_angle_alpha 90.000000
_cell_angle_beta 90.000000
_cell_angle_gamma 90.000000
_cell_volume 1992.072988
_symmetry_space_group_name_H-M "A B A 2"
_symmetry_group_IT_number 41
_symmetry_cell_setting 'orthorhombic'
loop_
_space_group_symop_operation_xyz
x,y,z
-x,-y,z
1/2-x,y,1/2+z
1/2+x,-y,1/2+z
x,1/2+y,1/2+z
-x,1/2-y,1/2+z
1/2-x,1/2+y,z
1/2+x,1/2-y,z
loop_
_atom_site_type_symbol
_atom_site_label
_atom_site_fract_x
_atom_site_fract_y
_atom_site_fract_z
Si Si1 0.000000 0.000000 0.017360
Si Si2 0.467873 0.732091 0.405044
Si Si3 0.808304 0.821814 0.693678
Si Si4 0.805308 0.553894 0.584328
Si Si5 0.838006 0.599238 0.292738
Si Si6 0.177756 0.440450 0.929798
O O1 0.098035 0.051774 0.063231
O O2 0.041847 0.864528 0.966364
O O3 0.433224 0.805076 0.325748
O O4 0.385935 0.600255 0.426971
O O5 0.585713 0.677289 0.409325
O O6 0.850797 0.699294 0.631783
O O7 0.727195 0.718457 0.740938
O O8 0.758460 0.950582 0.640995
O O9 0.865301 0.937053 0.752386
O O10 0.733987 0.588102 0.510605
O O11 0.763190 0.560709 0.364044
#
# Coordination Sequence:
#
# PCOD9367495 Si02
#       6
#     4   8   8   8   8   8
#     4  12  24  40  72 110 130 182 240 296 342 414
#     4  11  25  40  72 111 130 183 242 295 350 417
#     4  10  24  42  70  97 145 189 220 290 369 417
#     4  11  23  45  70 102 140 188 233 292 352 428
#     4  11  22  46  69 103 139 189 227 291 355 428
#     4  11  24  45  75  97 147 183 243 294 347 424
#
# _framework density 22.087544999999999
#
# number of rings (size 3 to 8) (size 9 to 14) (size 15 to 20)
#    0.000    1.091    3.636    2.182    5.091    0.000 
#    6.545    0.000   12.000    0.000    0.000    0.000 
#    0.000    0.000    0.000    0.000    0.000    0.000 
#
# Total GULP energy -122740.356814 kJ/mol
# GULP energy per Si atom -5579.107128 kJ/mol
# Density = 2.203727 g / cm^3
# Si number density = 22.087545 Si / 1000 Ang^3
#
#
#
# Elastic Constant Matrix: (Units=GPa)
#
#
# Indices 1 2 3 4 5 6 
#
# 1 105.1943 21.4889 46.0809 0.0000 0.0000 0.0000
# 2 21.4889 85.7479 36.9490 0.0000 0.0000 0.0000
# 3 46.0809 36.9490 120.2746 0.0000 0.0000 0.0000
# 4 0.0000 0.0000 0.0000 12.1498 0.0000 0.0000
# 5 0.0000 0.0000 0.0000 0.0000 22.2223 0.0000
# 6 0.0000 0.0000 0.0000 0.0000 0.0000 27.0240
#
#
#
# Elastic Compliance Matrix: (Units=1/GPa)
#
#
# Indices 1 2 3 4 5 6 
#
# 1 0.011519 -0.001135 -0.004064 0.000000 0.000000 0.000000
# 2 -0.001135 0.013553 -0.003729 0.000000 0.000000 0.000000
# 3 -0.004064 -0.003729 0.011017 0.000000 0.000000 0.000000
# 4 0.000000 0.000000 0.000000 0.082306 0.000000 0.000000
# 5 0.000000 0.000000 0.000000 0.000000 0.045000 0.000000
# 6 0.000000 0.000000 0.000000 0.000000 0.000000 0.037004
#
#
# Mechanical properties :
#
#
# Convention : Reuss Voigt Hill
#
# Bulk Modulus (GPa) = 54.84805 57.80603 56.32704
# Shear Modulus (GPa) = 22.28829 26.05907 24.17368
#
# Velocity S-wave (km/s) = 3.18006 3.43856 3.31183
# Velocity P-wave (km/s) = 6.19433 6.48021 6.33888
#
# Compressibility (1/GPa) = 0.01823219
#
# Stress axis : x y z
#
# Youngs Moduli (GPa) = 86.81658 73.78275 90.76922
#
# Poissons Ratio (x) = 0.08376 0.36892
# Poissons Ratio (y) = 0.09856 0.33845
# Poissons Ratio (z) = 0.35285 0.27511
#
# Static dielectric constant tensor:
#      x y z
#    x 1.909040 0.000000 0.000000 
#    y 0.000000 1.839100 0.000000 
#    z 0.000000 0.000000 1.883850 
# 
# From -- ./inp_files/10269.got.cif
#   From: 2010.05.17/outbox.cif.g08.bks.cpg/sg41_6_cif.got.tgz:10269.got - 2010.06.03 18:54:24.
