data_PCOD9367137
_publ_section_title
;
Structure prediction by ZEFSAII (Michael W. Deem and Ramdas Pophale) SiO2 
 PCOD9367137
Probable space group: A B A 2
;
_chemical_formula_sum "Si O2"
_cell_formula_units_Z 56
_cell_length_a 5.914877
_cell_length_b 27.314497
_cell_length_c 13.899642
_cell_angle_alpha 90.000000
_cell_angle_beta 90.000000
_cell_angle_gamma 90.000000
_cell_volume 2245.652433
_symmetry_space_group_name_H-M "A B A 2"
_symmetry_group_IT_number 41
_symmetry_cell_setting 'orthorhombic'
loop_
_space_group_symop_operation_xyz
x,y,z
-x,-y,z
1/2-x,y,1/2+z
1/2+x,-y,1/2+z
x,1/2+y,1/2+z
-x,1/2-y,1/2+z
1/2-x,1/2+y,z
1/2+x,1/2-y,z
loop_
_atom_site_type_symbol
_atom_site_label
_atom_site_fract_x
_atom_site_fract_y
_atom_site_fract_z
Si Si1 0.666234 0.375142 0.942610
Si Si2 0.751837 0.228129 0.404230
Si Si3 0.963883 0.149247 0.286315
Si Si4 0.352661 0.960030 0.418186
Si Si5 0.150085 0.818315 0.083354
Si Si6 0.963277 0.587191 0.072500
Si Si7 0.324432 0.960863 0.724012
O O1 0.510163 0.414722 0.891518
O O2 0.829210 0.352915 0.861913
O O3 0.530737 0.336210 0.004759
O O4 0.791823 0.403669 0.030516
O O5 0.502872 0.249664 0.376535
O O6 0.770915 0.175261 0.350699
O O7 0.759092 0.225464 0.521661
O O8 0.965190 0.181525 0.188080
O O9 0.928172 0.092813 0.251861
O O10 0.161659 0.938011 0.483590
O O11 0.252623 0.984174 0.323974
O O12 0.500000 0.000000 0.471126
O O13 0.344675 0.860196 0.090559
O O14 0.893600 0.553109 0.160616
O O15 0.500000 0.000000 0.681543
#
# Coordination Sequence:
#
# PCOD9367137 Si02
#       7
#     8   8   8   8   8   8   8
#     4  11  21  43  70 102 143 206 268 329 399 498
#     4  12  27  50  77 117 160 200 265 337 408 507
#     4  11  23  47  77 107 158 210 269 333 419 492
#     4  11  23  38  59  93 140 191 255 325 394 460
#     4  10  24  44  71 107 146 201 256 334 411 489
#     4  10  22  42  66  95 138 196 252 325 397 470
#     4  11  23  43  68 106 151 199 271 327 400 491
#
# _framework density 24.937071
#
# number of rings (size 3 to 8) (size 9 to 14) (size 15 to 20)
#    0.000    1.143    2.857    3.000    2.000    1.143 
#    7.714    0.000    0.000    0.000    0.000    0.000 
#    0.000    0.000    0.000    0.000    0.000    0.000 
#
# Total GULP energy -156292.692872 kJ/mol
# GULP energy per Si atom -5581.881888 kJ/mol
# Density = 2.488031 g / cm^3
# Si number density = 24.937071 Si / 1000 Ang^3
#
#
#
# Elastic Constant Matrix: (Units=GPa)
#
#
# Indices 1 2 3 4 5 6 
#
# 1 115.3423 25.8435 5.8733 0.0000 0.0000 0.0000
# 2 25.8435 101.7588 21.3069 0.0000 0.0000 0.0000
# 3 5.8733 21.3069 170.1937 0.0000 0.0000 0.0000
# 4 0.0000 0.0000 0.0000 44.7205 0.0000 0.0000
# 5 0.0000 0.0000 0.0000 0.0000 15.5801 0.0000
# 6 0.0000 0.0000 0.0000 0.0000 0.0000 -1.6516
#
#
#
# Elastic Compliance Matrix: (Units=1/GPa)
#
#
# Indices 1 2 3 4 5 6 
#
# 1 0.009193 -0.002329 -0.000026 0.000000 0.000000 0.000000
# 2 -0.002329 0.010682 -0.001257 0.000000 0.000000 0.000000
# 3 -0.000026 -0.001257 0.006034 0.000000 0.000000 0.000000
# 4 0.000000 0.000000 0.000000 0.022361 0.000000 0.000000
# 5 0.000000 0.000000 0.000000 0.000000 0.064184 0.000000
# 6 0.000000 0.000000 0.000000 0.000000 0.000000 -0.605490
#
#
# Mechanical properties :
#
#
# Convention : Reuss Voigt Hill
#
# Bulk Modulus (GPa) = 53.51869 54.81580 54.16724
# Shear Modulus (GPa) = -10.42570 34.01455 11.79442
#
# Velocity S-wave (km/s) = -2.04692 3.69726 2.17714
# Velocity P-wave (km/s) = 3.99019 6.34474 5.29987
#
# Compressibility (1/GPa) = 0.01868506
#
# Stress axis : x y z
#
# Youngs Moduli (GPa) = 108.77754 93.61604 165.73039
#
# Poissons Ratio (x) = 0.21807 0.00425
# Poissons Ratio (y) = 0.25339 0.20831
# Poissons Ratio (z) = 0.00279 0.11767
#
# Static dielectric constant tensor:
#      x y z
#    x 1.993150 0.000000 0.000000 
#    y 0.000000 2.013900 0.000000 
#    z 0.000000 0.000000 1.958630 
# 
# From -- ./inp_files/6961.got.cif
#   From: 2010.05.17/outbox.cif.g08.bks.cpg/sg41_4_cif.got.tgz:6961.got - 2010.06.03 18:54:24.
