data_PCOD9367589
_publ_section_title
;
Structure prediction by ZEFSAII (Michael W. Deem and Ramdas Pophale) SiO2 
 PCOD9367589
Probable space group: A B A 2
;
_chemical_formula_sum "Si O2"
_cell_formula_units_Z 44
_cell_length_a 10.780214
_cell_length_b 16.518899
_cell_length_c 9.106464
_cell_angle_alpha 90.000000
_cell_angle_beta 90.000000
_cell_angle_gamma 90.000000
_cell_volume 1621.654214
_symmetry_space_group_name_H-M "A B A 2"
_symmetry_group_IT_number 41
_symmetry_cell_setting 'orthorhombic'
loop_
_space_group_symop_operation_xyz
x,y,z
-x,-y,z
1/2-x,y,1/2+z
1/2+x,-y,1/2+z
x,1/2+y,1/2+z
-x,1/2-y,1/2+z
1/2-x,1/2+y,z
1/2+x,1/2-y,z
loop_
_atom_site_type_symbol
_atom_site_label
_atom_site_fract_x
_atom_site_fract_y
_atom_site_fract_z
Si Si1 0.007587 0.786382 0.928220
Si Si2 0.112330 0.898628 0.692720
Si Si3 0.238641 0.059748 0.210863
Si Si4 0.500000 0.000000 0.698028
Si Si5 0.118878 0.132311 0.487566
Si Si6 0.618215 0.169919 0.732523
O O1 0.043353 0.864970 0.836885
O O2 0.108838 0.715854 0.902781
O O3 0.891425 0.738192 0.858773
O O4 0.027484 0.801904 0.100033
O O5 0.242229 0.849118 0.679463
O O6 0.014203 0.887207 0.561953
O O7 0.157380 0.990857 0.706341
O O8 0.181719 0.071298 0.372091
O O9 0.292548 0.136631 0.128786
O O10 0.120266 0.031565 0.114867
O O11 0.440042 0.919022 0.772708
#
# Coordination Sequence:
#
# PCOD9367589 Si02
#       6
#     8   8   8   4   8   8
#     4  12  27  50  78 118 165 218 275 348 422 499
#     4  11  29  50  84 121 162 220 285 346 427 504
#     4  11  28  48  88 114 168 218 275 353 421 507
#     4  10  24  48  72 116 156 212 268 332 420 496
#     4  12  28  55  80 123 166 219 283 350 426 512
#     4  11  27  49  82 116 163 219 275 347 419 504
#
# _framework density 27.13279
#
# number of rings (size 3 to 8) (size 9 to 14) (size 15 to 20)
#    0.000    0.727    3.636    0.545   12.727    2.909 
#    0.000    0.000    0.000    0.000    0.000    0.000 
#    0.000    0.000    0.000    0.000    0.000    0.000 
#
# Total GULP energy -122925.796805 kJ/mol
# GULP energy per Si atom -5587.536218 kJ/mol
# Density = 2.707103 g / cm^3
# Si number density = 27.132790 Si / 1000 Ang^3
#
#
#
# Elastic Constant Matrix: (Units=GPa)
#
#
# Indices 1 2 3 4 5 6 
#
# 1 156.3099 16.7120 58.0502 0.0000 0.0000 0.0000
# 2 16.7120 67.2532 20.9610 0.0000 0.0000 0.0000
# 3 58.0502 20.9610 138.7184 0.0000 0.0000 0.0000
# 4 0.0000 0.0000 0.0000 35.1001 0.0000 0.0000
# 5 0.0000 0.0000 0.0000 0.0000 44.7862 0.0000
# 6 0.0000 0.0000 0.0000 0.0000 0.0000 39.3042
#
#
#
# Elastic Compliance Matrix: (Units=1/GPa)
#
#
# Indices 1 2 3 4 5 6 
#
# 1 0.007632 -0.000946 -0.003051 0.000000 0.000000 0.000000
# 2 -0.000946 0.015721 -0.001980 0.000000 0.000000 0.000000
# 3 -0.003051 -0.001980 0.008785 0.000000 0.000000 0.000000
# 4 0.000000 0.000000 0.000000 0.028490 0.000000 0.000000
# 5 0.000000 0.000000 0.000000 0.000000 0.022328 0.000000
# 6 0.000000 0.000000 0.000000 0.000000 0.000000 0.025443
#
#
# Mechanical properties :
#
#
# Convention : Reuss Voigt Hill
#
# Bulk Modulus (GPa) = 49.54136 61.52532 55.53334
# Shear Modulus (GPa) = 39.34556 41.60866 40.47711
#
# Velocity S-wave (km/s) = 3.81216 3.92027 3.86659
# Velocity P-wave (km/s) = 6.13802 6.57390 6.35970
#
# Compressibility (1/GPa) = 0.02018516
#
# Stress axis : x y z
#
# Youngs Moduli (GPa) = 131.03352 63.60829 113.83446
#
# Poissons Ratio (x) = 0.06015 0.34728
# Poissons Ratio (y) = 0.12390 0.22538
# Poissons Ratio (z) = 0.39975 0.12594
#
# Static dielectric constant tensor:
#      x y z
#    x 2.157300 0.000000 0.000000 
#    y 0.000000 2.204650 0.000000 
#    z 0.000000 0.000000 2.133830 
# 
# From -- ./inp_files/4939.got.cif
#   From: 2010.05.17/outbox.cif.g08.bks.cpg/sg41_3_cif.got.tgz:4939.got - 2010.06.03 18:54:24.
