data_PCOD9367326
_publ_section_title
;
Structure prediction by ZEFSAII (Michael W. Deem and Ramdas Pophale) SiO2 
 PCOD9367326
Probable space group: A B A 2
;
_chemical_formula_sum "Si O2"
_cell_formula_units_Z 56
_cell_length_a 5.553224
_cell_length_b 31.041570
_cell_length_c 13.513059
_cell_angle_alpha 90.000000
_cell_angle_beta 90.000000
_cell_angle_gamma 90.000000
_cell_volume 2329.391806
_symmetry_space_group_name_H-M "A B A 2"
_symmetry_group_IT_number 41
_symmetry_cell_setting 'orthorhombic'
loop_
_space_group_symop_operation_xyz
x,y,z
-x,-y,z
1/2-x,y,1/2+z
1/2+x,-y,1/2+z
x,1/2+y,1/2+z
-x,1/2-y,1/2+z
1/2-x,1/2+y,z
1/2+x,1/2-y,z
loop_
_atom_site_type_symbol
_atom_site_label
_atom_site_fract_x
_atom_site_fract_y
_atom_site_fract_z
Si Si1 0.398076 0.089408 0.768110
Si Si2 0.380726 0.407447 0.059491
Si Si3 0.649225 0.271156 0.650725
Si Si4 0.731962 0.644205 0.384036
Si Si5 0.498717 0.866332 0.189020
Si Si6 0.500000 0.000000 0.476010
Si Si7 0.000000 0.000000 0.351951
Si Si8 0.808561 0.238649 0.926510
O O1 0.470946 0.104657 0.657315
O O2 0.490859 0.117687 0.859891
O O3 0.116875 0.095504 0.754839
O O4 0.507341 0.042809 0.786318
O O5 0.117628 0.390823 0.095991
O O6 0.405866 0.382890 0.955931
O O7 0.441270 0.457127 0.038765
O O8 0.400988 0.248947 0.688284
O O9 0.640381 0.322847 0.661304
O O10 0.653192 0.258987 0.534302
O O11 0.712232 0.690164 0.433686
O O12 0.817112 0.651975 0.271795
O O13 0.749967 0.994930 0.413615
O O14 0.578716 0.263418 0.881028
#
# Coordination Sequence:
#
# PCOD9367326 Si02
#       8
#     8   8   8   8   8   4   4   8
#     4  11  27  47  77 109 155 208 257 336 395 487
#     4  11  25  48  76 113 147 208 263 323 401 483
#     4  10  23  44  70 108 152 203 260 328 393 471
#     4  11  25  47  71 111 151 206 260 321 398 476
#     4  11  27  45  77 112 162 208 271 333 406 489
#     4  12  27  50  83 114 154 204 257 324 403 484
#     4  12  27  54  77 116 162 196 261 328 405 476
#     4  10  23  41  69 102 144 196 249 314 376 457
#
# _framework density 24.040610000000001
#
# number of rings (size 3 to 8) (size 9 to 14) (size 15 to 20)
#    0.000    1.143    1.429    3.000   14.000    2.286 
#    0.000    0.000    0.000    0.000    0.000    0.000 
#    0.000    0.000    0.000    0.000    0.000    0.000 
#
# Total GULP energy -156069.666772 kJ/mol
# GULP energy per Si atom -5573.916670 kJ/mol
# Density = 2.398589 g / cm^3
# Si number density = 24.040610 Si / 1000 Ang^3
#
#
#
# Elastic Constant Matrix: (Units=GPa)
#
#
# Indices 1 2 3 4 5 6 
#
# 1 298.8020 244.1768 147.8319 0.0000 0.0000 0.0000
# 2 244.1768 404.5637 171.8828 0.0000 0.0000 0.0000
# 3 147.8319 171.8828 194.3591 0.0000 0.0000 0.0000
# 4 0.0000 0.0000 0.0000 87.7996 0.0000 0.0000
# 5 0.0000 0.0000 0.0000 0.0000 27.7693 0.0000
# 6 0.0000 0.0000 0.0000 0.0000 0.0000 32.0845
#
#
#
# Elastic Compliance Matrix: (Units=1/GPa)
#
#
# Indices 1 2 3 4 5 6 
#
# 1 0.007385 -0.003317 -0.002684 0.000000 0.000000 0.000000
# 2 -0.003317 0.005449 -0.002296 0.000000 0.000000 0.000000
# 3 -0.002684 -0.002296 0.009217 0.000000 0.000000 0.000000
# 4 0.000000 0.000000 0.000000 0.011390 0.000000 0.000000
# 5 0.000000 0.000000 0.000000 0.000000 0.036011 0.000000
# 6 0.000000 0.000000 0.000000 0.000000 0.000000 0.031168
#
#
# Mechanical properties :
#
#
# Convention : Reuss Voigt Hill
#
# Bulk Modulus (GPa) = 183.23238 225.05643 204.14440
# Shear Modulus (GPa) = 42.00508 51.78624 46.89566
#
# Velocity S-wave (km/s) = 4.18455 4.64628 4.42145
# Velocity P-wave (km/s) = 9.98652 11.07259 10.54355
#
# Compressibility (1/GPa) = 0.00545755
#
# Stress axis : x y z
#
# Youngs Moduli (GPa) = 135.40554 183.50439 108.49508
#
# Poissons Ratio (x) = 0.60872 0.29117
# Poissons Ratio (y) = 0.44917 0.24912
# Poissons Ratio (z) = 0.36339 0.42136
#
# Static dielectric constant tensor:
#      x y z
#    x 2.276270 0.000000 0.000000 
#    y 0.000000 1.901230 0.000000 
#    z 0.000000 0.000000 1.812690 
# 
# From -- ./inp_files/6998.got.cif
#   From: 2010.05.17/outbox.cif.g08.bks.cpg/sg41_4_cif.got.tgz:6998.got - 2010.06.03 18:54:24.
