data_PCOD9367686
_publ_section_title
;
Structure prediction by ZEFSAII (Michael W. Deem and Ramdas Pophale) SiO2 
 PCOD9367686
Probable space group: A B A 2
;
_chemical_formula_sum "Si O2"
_cell_formula_units_Z 64
_cell_length_a 17.153352
_cell_length_b 21.493932
_cell_length_c 8.262403
_cell_angle_alpha 90.000000
_cell_angle_beta 90.000000
_cell_angle_gamma 90.000000
_cell_volume 3046.289996
_symmetry_space_group_name_H-M "A B A 2"
_symmetry_group_IT_number 41
_symmetry_cell_setting 'orthorhombic'
loop_
_space_group_symop_operation_xyz
x,y,z
-x,-y,z
1/2-x,y,1/2+z
1/2+x,-y,1/2+z
x,1/2+y,1/2+z
-x,1/2-y,1/2+z
1/2-x,1/2+y,z
1/2+x,1/2-y,z
loop_
_atom_site_type_symbol
_atom_site_label
_atom_site_fract_x
_atom_site_fract_y
_atom_site_fract_z
Si Si1 0.590682 0.015010 0.623090
Si Si2 0.836695 0.789870 0.181896
Si Si3 0.890791 0.360404 0.371184
Si Si4 0.964198 0.560951 0.287438
Si Si5 0.732248 0.453994 0.988749
Si Si6 0.172191 0.661495 0.047038
Si Si7 0.295681 0.916661 0.837983
Si Si8 0.658260 0.146076 0.139048
O O1 0.588668 0.036684 0.435675
O O2 0.627069 0.066480 0.738356
O O3 0.500000 0.000000 0.663094
O O4 0.662972 0.965265 0.622047
O O5 0.847022 0.817336 0.363498
O O6 0.749414 0.803806 0.115197
O O7 0.849560 0.716405 0.193504
O O8 0.886568 0.819012 0.033227
O O9 0.815771 0.406696 0.373831
O O10 0.888413 0.328546 0.194064
O O11 0.966904 0.402280 0.374647
O O12 0.918516 0.606023 0.171239
O O13 0.000000 0.500000 0.204197
O O14 0.764165 0.520528 0.928055
O O15 0.805491 0.411676 0.036395
O O16 0.226415 0.891088 0.729741
O O17 0.317659 0.860414 0.954773
#
# Coordination Sequence:
#
# PCOD9367686 Si02
#       8
#     8   8   8   8   8   8   8   8
#     4  11  22  40  63 101 143 175 210 278 359 412
#     4  11  24  43  67  97 132 180 235 287 337 402
#     4  11  23  44  66  95 137 181 225 285 341 410
#     4  11  23  44  68  93 138 177 213 286 358 404
#     4  11  20  38  68 101 129 172 225 283 349 403
#     4  11  23  39  72  99 127 178 235 285 332 411
#     4  12  24  39  70 100 135 176 225 287 344 417
#     4  12  25  45  65 100 134 179 230 281 340 417
#
# _framework density 21.009160999999999
#
# number of rings (size 3 to 8) (size 9 to 14) (size 15 to 20)
#    0.000    0.750    7.500    1.500    3.500    0.500 
#    4.500    0.000    0.000    0.000    0.000    0.000 
#    0.000    0.000    0.000    0.000    0.000    0.000 
#
# Total GULP energy -178401.857989 kJ/mol
# GULP energy per Si atom -5575.058062 kJ/mol
# Density = 2.096134 g / cm^3
# Si number density = 21.009161 Si / 1000 Ang^3
#
#
#
# Elastic Constant Matrix: (Units=GPa)
#
#
# Indices 1 2 3 4 5 6 
#
# 1 48.0124 18.6098 13.1273 0.0000 0.0000 0.0000
# 2 18.6098 95.6592 38.0385 0.0000 0.0000 0.0000
# 3 13.1273 38.0385 120.6499 0.0000 0.0000 0.0000
# 4 0.0000 0.0000 0.0000 24.9915 0.0000 0.0000
# 5 0.0000 0.0000 0.0000 0.0000 13.7679 0.0000
# 6 0.0000 0.0000 0.0000 0.0000 0.0000 10.3282
#
#
#
# Elastic Compliance Matrix: (Units=1/GPa)
#
#
# Indices 1 2 3 4 5 6 
#
# 1 0.022685 -0.003924 -0.001231 0.000000 0.000000 0.000000
# 2 -0.003924 0.012631 -0.003555 0.000000 0.000000 0.000000
# 3 -0.001231 -0.003555 0.009543 0.000000 0.000000 0.000000
# 4 0.000000 0.000000 0.000000 0.040014 0.000000 0.000000
# 5 0.000000 0.000000 0.000000 0.000000 0.072633 0.000000
# 6 0.000000 0.000000 0.000000 0.000000 0.000000 0.096822
#
#
# Mechanical properties :
#
#
# Convention : Reuss Voigt Hill
#
# Bulk Modulus (GPa) = 36.44433 44.87473 40.65953
# Shear Modulus (GPa) = 17.80027 22.78727 20.29377
#
# Velocity S-wave (km/s) = 2.91393 3.29695 3.11134
# Velocity P-wave (km/s) = 5.35779 5.99159 5.68353
#
# Compressibility (1/GPa) = 0.02743911
#
# Stress axis : x y z
#
# Youngs Moduli (GPa) = 44.08121 79.17119 104.78517
#
# Poissons Ratio (x) = 0.31064 0.12901
# Poissons Ratio (y) = 0.17296 0.37255
# Poissons Ratio (z) = 0.05427 0.28148
#
# Static dielectric constant tensor:
#      x y z
#    x 1.766820 0.000000 0.000000 
#    y 0.000000 1.792660 0.000000 
#    z 0.000000 0.000000 1.839480 
# 
# From -- ./inp_files/3237.got.cif
#   From: 2010.05.17/outbox.cif.g08.bks.cpg/sg41_2_cif.got.tgz:3237.got - 2010.06.03 18:54:24.
