data_PCOD9367336
_publ_section_title
;
Structure prediction by ZEFSAII (Michael W. Deem and Ramdas Pophale) SiO2 
 PCOD9367336
Probable space group: A B A 2
;
_chemical_formula_sum "Si O2"
_cell_formula_units_Z 36
_cell_length_a 22.925575
_cell_length_b 12.826812
_cell_length_c 4.922544
_cell_angle_alpha 90.000000
_cell_angle_beta 90.000000
_cell_angle_gamma 90.000000
_cell_volume 1447.533333
_symmetry_space_group_name_H-M "A B A 2"
_symmetry_group_IT_number 41
_symmetry_cell_setting 'orthorhombic'
loop_
_space_group_symop_operation_xyz
x,y,z
-x,-y,z
1/2-x,y,1/2+z
1/2+x,-y,1/2+z
x,1/2+y,1/2+z
-x,1/2-y,1/2+z
1/2-x,1/2+y,z
1/2+x,1/2-y,z
loop_
_atom_site_type_symbol
_atom_site_label
_atom_site_fract_x
_atom_site_fract_y
_atom_site_fract_z
Si Si1 0.351661 0.899846 0.764620
Si Si2 0.915204 0.669774 0.272445
Si Si3 0.500000 0.500000 0.760749
Si Si4 0.112652 0.608709 0.003660
Si Si5 0.213488 0.703205 0.364093
O O1 0.363149 0.881681 0.447758
O O2 0.298003 0.827354 0.845853
O O3 0.353421 0.020259 0.835919
O O4 0.403433 0.849747 0.954678
O O5 0.970433 0.604268 0.385339
O O6 0.910302 0.791083 0.339235
O O7 0.444982 0.550322 0.609128
O O8 0.156019 0.649272 0.239725
O O9 0.232966 0.677596 0.665508
#
# Coordination Sequence:
#
# PCOD9367336 Si02
#       5
#     8   8   4   8   8
#     4  10  23  43  66  94 128 170 221 273 331 398
#     4  10  23  42  65  97 135 172 216 267 327 399
#     4  10  24  42  70 106 140 180 224 276 338 410
#     4  10  24  44  69  99 136 179 224 278 343 406
#     4  11  24  43  67  95 129 174 229 284 340 405
#
# _framework density 24.869893000000001
#
# number of rings (size 3 to 8) (size 9 to 14) (size 15 to 20)
#    0.000    1.778    0.000    2.667    0.000   24.889 
#    0.000    0.000    0.000    0.000    0.000    0.000 
#    0.000    0.000    0.000    0.000    0.000    0.000 
#
# Total GULP energy -100558.615720 kJ/mol
# GULP energy per Si atom -5586.589762 kJ/mol
# Density = 2.481329 g / cm^3
# Si number density = 24.869893 Si / 1000 Ang^3
#
#
#
# Elastic Constant Matrix: (Units=GPa)
#
#
# Indices 1 2 3 4 5 6 
#
# 1 102.7746 61.4346 18.0531 0.0000 0.0000 0.0000
# 2 61.4346 201.3468 31.9956 0.0000 0.0000 0.0000
# 3 18.0531 31.9956 70.3909 0.0000 0.0000 0.0000
# 4 0.0000 0.0000 0.0000 25.8419 0.0000 0.0000
# 5 0.0000 0.0000 0.0000 0.0000 24.0870 0.0000
# 6 0.0000 0.0000 0.0000 0.0000 0.0000 66.0959
#
#
#
# Elastic Compliance Matrix: (Units=1/GPa)
#
#
# Indices 1 2 3 4 5 6 
#
# 1 0.012051 -0.003434 -0.001530 0.000000 0.000000 0.000000
# 2 -0.003434 0.006332 -0.001997 0.000000 0.000000 0.000000
# 3 -0.001530 -0.001997 0.015507 0.000000 0.000000 0.000000
# 4 0.000000 0.000000 0.000000 0.038697 0.000000 0.000000
# 5 0.000000 0.000000 0.000000 0.000000 0.041516 0.000000
# 6 0.000000 0.000000 0.000000 0.000000 0.000000 0.015130
#
#
# Mechanical properties :
#
#
# Convention : Reuss Voigt Hill
#
# Bulk Modulus (GPa) = 50.08182 66.38653 58.23417
# Shear Modulus (GPa) = 33.37546 40.74023 37.05784
#
# Velocity S-wave (km/s) = 3.66731 4.05178 3.86433
# Velocity P-wave (km/s) = 6.17361 6.97429 6.58613
#
# Compressibility (1/GPa) = 0.01996733
#
# Stress axis : x y z
#
# Youngs Moduli (GPa) = 82.97727 157.93483 64.48857
#
# Poissons Ratio (x) = 0.54235 0.09866
# Poissons Ratio (y) = 0.28494 0.12880
# Poissons Ratio (z) = 0.12695 0.31545
#
# Static dielectric constant tensor:
#      x y z
#    x 1.996710 0.000000 0.000000 
#    y 0.000000 1.991360 0.000000 
#    z 0.000000 0.000000 1.957170 
# 
# From -- ./inp_files/884.got.cif
#   From: 2010.05.17/outbox.cif.g08.bks.cpg/sg41_1_cif.got.tgz:884.got - 2010.06.03 18:54:24.
