data_PCOD9367946
_publ_section_title
;
Structure prediction by ZEFSAII (Michael W. Deem and Ramdas Pophale) SiO2 
 PCOD9367946
Probable space group: A B A 2
;
_chemical_formula_sum "Si O2"
_cell_formula_units_Z 36
_cell_length_a 8.889373
_cell_length_b 11.936335
_cell_length_c 13.543313
_cell_angle_alpha 90.000000
_cell_angle_beta 90.000000
_cell_angle_gamma 90.000000
_cell_volume 1437.034002
_symmetry_space_group_name_H-M "A B A 2"
_symmetry_group_IT_number 41
_symmetry_cell_setting 'orthorhombic'
loop_
_space_group_symop_operation_xyz
x,y,z
-x,-y,z
1/2-x,y,1/2+z
1/2+x,-y,1/2+z
x,1/2+y,1/2+z
-x,1/2-y,1/2+z
1/2-x,1/2+y,z
1/2+x,1/2-y,z
loop_
_atom_site_type_symbol
_atom_site_label
_atom_site_fract_x
_atom_site_fract_y
_atom_site_fract_z
Si Si1 0.604686 0.229603 0.523850
Si Si2 0.500000 0.000000 0.474911
Si Si3 0.467997 0.181918 0.813495
Si Si4 0.398522 0.349472 0.640227
Si Si5 0.751410 0.026313 0.308732
O O1 0.507516 0.114412 0.537549
O O2 0.591279 0.250068 0.407477
O O3 0.537004 0.346602 0.564999
O O4 0.760902 0.199782 0.575696
O O5 0.643360 0.003743 0.401654
O O6 0.461019 0.263188 0.721299
O O7 0.633856 0.129818 0.826338
O O8 0.354786 0.080924 0.795640
O O9 0.338908 0.449718 0.707701
#
# Coordination Sequence:
#
# PCOD9367946 Si02
#       5
#     8   4   8   8   8
#     4  12  27  46  77 113 152 201 258 320 390 465
#     4  12  26  46  78 112 152 202 258 314 396 466
#     4  11  26  53  71 110 160 199 251 332 388 466
#     4  12  26  46  77 111 148 201 260 313 389 460
#     4  11  26  48  77 106 151 203 252 316 399 454
#
# _framework density 25.051597999999998
#
# number of rings (size 3 to 8) (size 9 to 14) (size 15 to 20)
#    0.000    0.444    4.444    2.667    9.333    0.000 
#    8.000    0.000    0.000    0.000    0.000    0.000 
#    0.000    0.000    0.000    0.000    0.000    0.000 
#
# Total GULP energy -100796.197520 kJ/mol
# GULP energy per Si atom -5599.788751 kJ/mol
# Density = 2.499458 g / cm^3
# Si number density = 25.051598 Si / 1000 Ang^3
#
#
#
# Elastic Constant Matrix: (Units=GPa)
#
#
# Indices 1 2 3 4 5 6 
#
# 1 79.3742 5.4522 -8.3830 0.0000 0.0000 0.0000
# 2 5.4522 67.4777 -16.2407 0.0000 0.0000 0.0000
# 3 -8.3830 -16.2407 59.3271 0.0000 0.0000 0.0000
# 4 0.0000 0.0000 0.0000 42.1810 0.0000 0.0000
# 5 0.0000 0.0000 0.0000 0.0000 37.2230 0.0000
# 6 0.0000 0.0000 0.0000 0.0000 0.0000 41.8893
#
#
#
# Elastic Compliance Matrix: (Units=1/GPa)
#
#
# Indices 1 2 3 4 5 6 
#
# 1 0.012815 -0.000642 0.001635 0.000000 0.000000 0.000000
# 2 -0.000642 0.015897 0.004261 0.000000 0.000000 0.000000
# 3 0.001635 0.004261 0.018253 0.000000 0.000000 0.000000
# 4 0.000000 0.000000 0.000000 0.023707 0.000000 0.000000
# 5 0.000000 0.000000 0.000000 0.000000 0.026865 0.000000
# 6 0.000000 0.000000 0.000000 0.000000 0.000000 0.023872
#
#
# Mechanical properties :
#
#
# Convention : Reuss Voigt Hill
#
# Bulk Modulus (GPa) = 17.39912 18.64846 18.02379
# Shear Modulus (GPa) = 38.44374 39.28202 38.86288
#
# Velocity S-wave (km/s) = 3.92162 3.96415 3.94294
# Velocity P-wave (km/s) = 5.24079 5.33037 5.28577
#
# Compressibility (1/GPa) = 0.05747418
#
# Stress axis : x y z
#
# Youngs Moduli (GPa) = 78.03153 62.90441 54.78492
#
# Poissons Ratio (x) = 0.04038 -0.08958
# Poissons Ratio (y) = 0.05009 -0.23344
# Poissons Ratio (z) = -0.12759 -0.26804
#
# Static dielectric constant tensor:
#      x y z
#    x 2.013830 0.000000 0.000000 
#    y 0.000000 2.022630 0.000000 
#    z 0.000000 0.000000 1.940330 
# 
# From -- ./inp_files/7143.got.cif
#   From: 2010.05.17/outbox.cif.g08.bks.cpg/sg41_4_cif.got.tgz:7143.got - 2010.06.03 18:54:24.
