data_PCOD9367505
_publ_section_title
;
Structure prediction by ZEFSAII (Michael W. Deem and Ramdas Pophale) SiO2 
 PCOD9367505
Probable space group: A B A 2
;
_chemical_formula_sum "Si O2"
_cell_formula_units_Z 56
_cell_length_a 20.502438
_cell_length_b 17.228379
_cell_length_c 7.857559
_cell_angle_alpha 90.000000
_cell_angle_beta 90.000000
_cell_angle_gamma 90.000000
_cell_volume 2775.476631
_symmetry_space_group_name_H-M "A B A 2"
_symmetry_group_IT_number 41
_symmetry_cell_setting 'orthorhombic'
loop_
_space_group_symop_operation_xyz
x,y,z
-x,-y,z
1/2-x,y,1/2+z
1/2+x,-y,1/2+z
x,1/2+y,1/2+z
-x,1/2-y,1/2+z
1/2-x,1/2+y,z
1/2+x,1/2-y,z
loop_
_atom_site_type_symbol
_atom_site_label
_atom_site_fract_x
_atom_site_fract_y
_atom_site_fract_z
Si Si1 0.056060 0.716304 0.752400
Si Si2 0.599969 0.556786 0.036655
Si Si3 0.673737 0.711989 0.958095
Si Si4 0.680326 0.240151 0.851299
Si Si5 0.991787 0.608101 0.237871
Si Si6 0.389667 0.115484 0.449157
Si Si7 0.936983 0.122278 0.400815
O O1 0.124221 0.737146 0.844341
O O2 0.025093 0.800699 0.723512
O O3 0.067438 0.664513 0.585312
O O4 0.002701 0.670382 0.861366
O O5 0.579207 0.573811 0.230866
O O6 0.649747 0.623180 0.975016
O O7 0.540716 0.571347 0.905776
O O8 0.625032 0.469526 0.018702
O O9 0.747059 0.713277 0.891363
O O10 0.670151 0.742516 0.149892
O O11 0.669878 0.326658 0.920320
O O12 0.624652 0.181229 0.923560
O O13 0.068411 0.604605 0.276226
O O14 0.955669 0.575315 0.070772
#
# Coordination Sequence:
#
# PCOD9367505 Si02
#       7
#     8   8   8   8   8   8   8
#     4  11  20  38  67  96 131 168 227 271 317 395
#     4  10  25  43  61  98 137 170 209 283 339 387
#     4  10  24  43  67  95 128 180 225 271 337 400
#     4  11  22  41  69  95 127 177 231 273 322 404
#     4  11  20  38  65  96 130 174 214 261 328 395
#     4  12  22  41  67  98 137 168 221 285 332 384
#     4  11  22  40  67  94 129 182 218 265 337 398
#
# _framework density 20.176714
#
# number of rings (size 3 to 8) (size 9 to 14) (size 15 to 20)
#    0.000    1.143    4.286    2.143    4.000    0.000 
#    7.714    5.714    0.000    0.000    0.000    0.000 
#    0.000    0.000    0.000    0.000    0.000    0.000 
#
# Total GULP energy -156351.594232 kJ/mol
# GULP energy per Si atom -5583.985508 kJ/mol
# Density = 2.013079 g / cm^3
# Si number density = 20.176714 Si / 1000 Ang^3
#
#
#
# Elastic Constant Matrix: (Units=GPa)
#
#
# Indices 1 2 3 4 5 6 
#
# 1 113.0180 36.3936 35.6017 0.0000 0.0000 0.0000
# 2 36.3936 131.0508 40.3027 0.0000 0.0000 0.0000
# 3 35.6017 40.3027 91.0444 0.0000 0.0000 0.0000
# 4 0.0000 0.0000 0.0000 14.2707 0.0000 0.0000
# 5 0.0000 0.0000 0.0000 0.0000 28.7102 0.0000
# 6 0.0000 0.0000 0.0000 0.0000 0.0000 15.1144
#
#
#
# Elastic Compliance Matrix: (Units=1/GPa)
#
#
# Indices 1 2 3 4 5 6 
#
# 1 0.010489 -0.001912 -0.003255 0.000000 0.000000 0.000000
# 2 -0.001912 0.009182 -0.003317 0.000000 0.000000 0.000000
# 3 -0.003255 -0.003317 0.013725 0.000000 0.000000 0.000000
# 4 0.000000 0.000000 0.000000 0.070074 0.000000 0.000000
# 5 0.000000 0.000000 0.000000 0.000000 0.034831 0.000000
# 6 0.000000 0.000000 0.000000 0.000000 0.000000 0.066162
#
#
# Mechanical properties :
#
#
# Convention : Reuss Voigt Hill
#
# Bulk Modulus (GPa) = 60.87277 62.18990 61.53133
# Shear Modulus (GPa) = 22.03552 26.47340 24.25446
#
# Velocity S-wave (km/s) = 3.30832 3.62619 3.47090
# Velocity P-wave (km/s) = 6.69542 6.95858 6.82827
#
# Compressibility (1/GPa) = 0.01642771
#
# Stress axis : x y z
#
# Youngs Moduli (GPa) = 95.33574 108.91367 72.86028
#
# Poissons Ratio (x) = 0.20822 0.23719
# Poissons Ratio (y) = 0.18226 0.24167
# Poissons Ratio (z) = 0.31035 0.36125
#
# Static dielectric constant tensor:
#      x y z
#    x 1.744360 0.000000 0.000000 
#    y 0.000000 1.726490 0.000000 
#    z 0.000000 0.000000 1.786540 
# 
# From -- ./inp_files/3434.got.cif
#   From: 2010.05.17/outbox.cif.g08.bks.cpg/sg41_2_cif.got.tgz:3434.got - 2010.06.03 18:54:24.
