data_PCOD9367029
_publ_section_title
;
Structure prediction by ZEFSAII (Michael W. Deem and Ramdas Pophale) SiO2 
 PCOD9367029
Probable space group: A B A 2
;
_chemical_formula_sum "Si O2"
_cell_formula_units_Z 56
_cell_length_a 19.489808
_cell_length_b 10.742744
_cell_length_c 10.972545
_cell_angle_alpha 90.000000
_cell_angle_beta 90.000000
_cell_angle_gamma 90.000000
_cell_volume 2297.365834
_symmetry_space_group_name_H-M "A B A 2"
_symmetry_group_IT_number 41
_symmetry_cell_setting 'orthorhombic'
loop_
_space_group_symop_operation_xyz
x,y,z
-x,-y,z
1/2-x,y,1/2+z
1/2+x,-y,1/2+z
x,1/2+y,1/2+z
-x,1/2-y,1/2+z
1/2-x,1/2+y,z
1/2+x,1/2-y,z
loop_
_atom_site_type_symbol
_atom_site_label
_atom_site_fract_x
_atom_site_fract_y
_atom_site_fract_z
Si Si1 0.067840 0.048938 0.434030
Si Si2 0.532858 0.796500 0.164294
Si Si3 0.143042 0.069545 0.827812
Si Si4 0.613770 0.314966 0.211954
Si Si5 0.923159 0.545860 0.546705
Si Si6 0.805015 0.011945 0.571908
Si Si7 0.775091 0.265350 0.519676
O O1 0.032408 0.121408 0.543708
O O2 0.112199 0.140004 0.349766
O O3 0.123541 0.961554 0.499556
O O4 0.000000 0.000000 0.362082
O O5 0.576455 0.865251 0.267187
O O6 0.455348 0.764672 0.198354
O O7 0.572124 0.672925 0.120207
O O8 0.183907 0.005606 0.716812
O O9 0.117614 0.964676 0.921387
O O10 0.182255 0.177881 0.904957
O O11 0.678512 0.258145 0.143697
O O12 0.606711 0.442511 0.136147
O O13 0.000000 0.500000 0.518351
O O14 0.780491 0.872424 0.539167
O O15 0.755223 0.119485 0.518851
#
# Coordination Sequence:
#
# PCOD9367029 Si02
#       7
#     8   8   8   8   8   8   8
#     4  11  24  42  70 109 144 186 248 315 377 448
#     4  10  22  39  68 105 142 183 234 298 383 438
#     4  10  25  44  72 104 145 189 242 313 357 456
#     4  10  23  40  70 103 143 188 234 311 373 454
#     4   9  20  38  62 101 139 183 229 288 376 436
#     4  11  28  48  74 108 143 204 255 308 374 458
#     4  11  27  49  73 104 146 201 252 304 382 448
#
# _framework density 24.375744000000001
#
# number of rings (size 3 to 8) (size 9 to 14) (size 15 to 20)
#    0.000    1.714    0.000    2.143   14.000    8.000 
#    0.000    0.000    0.000    0.000    0.000    0.000 
#    0.000    0.000    0.000    0.000    0.000    0.000 
#
# Total GULP energy -156471.328142 kJ/mol
# GULP energy per Si atom -5588.261719 kJ/mol
# Density = 2.432026 g / cm^3
# Si number density = 24.375744 Si / 1000 Ang^3
#
#
#
# Elastic Constant Matrix: (Units=GPa)
#
#
# Indices 1 2 3 4 5 6 
#
# 1 47.7921 27.6271 37.3326 0.0000 0.0000 0.0000
# 2 27.6271 91.6904 13.2961 0.0000 0.0000 0.0000
# 3 37.3326 13.2961 118.1422 0.0000 0.0000 0.0000
# 4 0.0000 0.0000 0.0000 26.5817 0.0000 0.0000
# 5 0.0000 0.0000 0.0000 0.0000 23.4039 0.0000
# 6 0.0000 0.0000 0.0000 0.0000 0.0000 32.9741
#
#
#
# Elastic Compliance Matrix: (Units=1/GPa)
#
#
# Indices 1 2 3 4 5 6 
#
# 1 0.033433 -0.008683 -0.009587 0.000000 0.000000 0.000000
# 2 -0.008683 0.013342 0.001242 0.000000 0.000000 0.000000
# 3 -0.009587 0.001242 0.011354 0.000000 0.000000 0.000000
# 4 0.000000 0.000000 0.000000 0.037620 0.000000 0.000000
# 5 0.000000 0.000000 0.000000 0.000000 0.042728 0.000000
# 6 0.000000 0.000000 0.000000 0.000000 0.000000 0.030327
#
#
# Mechanical properties :
#
#
# Convention : Reuss Voigt Hill
#
# Bulk Modulus (GPa) = 41.54112 46.01515 43.77813
# Shear Modulus (GPa) = 23.70963 28.54987 26.12975
#
# Velocity S-wave (km/s) = 3.12215 3.42605 3.27763
# Velocity P-wave (km/s) = 5.48417 5.87953 5.68529
#
# Compressibility (1/GPa) = 0.02407254
#
# Stress axis : x y z
#
# Youngs Moduli (GPa) = 29.91090 74.94870 88.07357
#
# Poissons Ratio (x) = 0.65080 0.84439
# Poissons Ratio (y) = 0.25972 -0.10941
# Poissons Ratio (z) = 0.28677 -0.09311
#
# Static dielectric constant tensor:
#      x y z
#    x 2.059190 0.000000 0.000000 
#    y 0.000000 2.105330 0.000000 
#    z 0.000000 0.000000 1.937610 
# 
# From -- ./inp_files/6231.got.cif
#   From: 2010.05.17/outbox.cif.g08.bks.cpg/sg41_4_cif.got.tgz:6231.got - 2010.06.03 18:54:24.
