data_PCOD9367601
_publ_section_title
;
Structure prediction by ZEFSAII (Michael W. Deem and Ramdas Pophale) SiO2 
 PCOD9367601
Probable space group: A B A 2
;
_chemical_formula_sum "Si O2"
_cell_formula_units_Z 36
_cell_length_a 6.777445
_cell_length_b 27.072570
_cell_length_c 7.646403
_cell_angle_alpha 90.000000
_cell_angle_beta 90.000000
_cell_angle_gamma 90.000000
_cell_volume 1402.983847
_symmetry_space_group_name_H-M "A B A 2"
_symmetry_group_IT_number 41
_symmetry_cell_setting 'orthorhombic'
loop_
_space_group_symop_operation_xyz
x,y,z
-x,-y,z
1/2-x,y,1/2+z
1/2+x,-y,1/2+z
x,1/2+y,1/2+z
-x,1/2-y,1/2+z
1/2-x,1/2+y,z
1/2+x,1/2-y,z
loop_
_atom_site_type_symbol
_atom_site_label
_atom_site_fract_x
_atom_site_fract_y
_atom_site_fract_z
Si Si1 0.500000 0.500000 0.454250
Si Si2 0.430455 0.880759 0.349752
Si Si3 0.425145 0.802325 0.868848
Si Si4 0.313375 0.196440 0.514457
Si Si5 0.699348 0.049973 0.643972
O O1 0.568791 0.541893 0.315972
O O2 0.695133 0.500091 0.575721
O O3 0.246656 0.842457 0.361473
O O4 0.616584 0.847693 0.389898
O O5 0.425595 0.921959 0.501157
O O6 0.384786 0.913982 0.182691
O O7 0.546365 0.802808 0.685335
O O8 0.579141 0.811206 0.026477
O O9 0.336689 0.748731 0.913881
#
# Coordination Sequence:
#
# PCOD9367601 Si02
#       5
#     4   8   8   8   8
#     4  10  24  50  80 106 144 184 236 308 416 446
#     4  11  24  47  69 106 152 188 246 298 355 442
#     4  12  26  42  68 104 146 204 251 297 355 422
#     4  12  26  42  68 101 149 202 249 293 358 416
#     4  10  24  50  75 108 141 186 236 318 378 463
#
# _framework density 25.659599
#
# number of rings (size 3 to 8) (size 9 to 14) (size 15 to 20)
#    0.000    0.889    4.444    1.333    6.222    3.556 
#   16.000    0.000    0.000    0.000    0.000    0.000 
#    0.000    0.000    0.000    0.000    0.000    0.000 
#
# Total GULP energy -100623.366524 kJ/mol
# GULP energy per Si atom -5590.187029 kJ/mol
# Density = 2.560120 g / cm^3
# Si number density = 25.659599 Si / 1000 Ang^3
#
#
#
# Elastic Constant Matrix: (Units=GPa)
#
#
# Indices 1 2 3 4 5 6 
#
# 1 80.1101 43.4131 -5.7890 0.0000 0.0000 0.0000
# 2 43.4131 87.9828 7.4724 0.0000 0.0000 0.0000
# 3 -5.7890 7.4724 87.9239 0.0000 0.0000 0.0000
# 4 0.0000 0.0000 0.0000 23.6132 0.0000 0.0000
# 5 0.0000 0.0000 0.0000 0.0000 30.9174 0.0000
# 6 0.0000 0.0000 0.0000 0.0000 0.0000 47.7134
#
#
#
# Elastic Compliance Matrix: (Units=1/GPa)
#
#
# Indices 1 2 3 4 5 6 
#
# 1 0.017343 -0.008717 0.001883 0.000000 0.000000 0.000000
# 2 -0.008717 0.015830 -0.001919 0.000000 0.000000 0.000000
# 3 0.001883 -0.001919 0.011661 0.000000 0.000000 0.000000
# 4 0.000000 0.000000 0.000000 0.042349 0.000000 0.000000
# 5 0.000000 0.000000 0.000000 0.000000 0.032344 0.000000
# 6 0.000000 0.000000 0.000000 0.000000 0.000000 0.020958
#
#
# Mechanical properties :
#
#
# Convention : Reuss Voigt Hill
#
# Bulk Modulus (GPa) = 36.59543 38.46778 37.53160
# Shear Modulus (GPa) = 29.92180 34.51016 32.21598
#
# Velocity S-wave (km/s) = 3.41853 3.67130 3.54717
# Velocity P-wave (km/s) = 5.46577 5.74416 5.60669
#
# Compressibility (1/GPa) = 0.02732582
#
# Stress axis : x y z
#
# Youngs Moduli (GPa) = 57.66018 63.17007 85.75923
#
# Poissons Ratio (x) = 0.55068 -0.16146
# Poissons Ratio (y) = 0.50265 0.16460
# Poissons Ratio (z) = -0.10856 0.12124
#
# Static dielectric constant tensor:
#      x y z
#    x 2.025250 0.000000 0.000000 
#    y 0.000000 2.028310 0.000000 
#    z 0.000000 0.000000 2.112330 
# 
# From -- ./inp_files/1752.got.cif
#   From: 2010.05.17/outbox.cif.g08.bks.cpg/sg41_1_cif.got.tgz:1752.got - 2010.06.03 18:54:24.
