data_PCOD9367236
_publ_section_title
;
Structure prediction by ZEFSAII (Michael W. Deem and Ramdas Pophale) SiO2 
 PCOD9367236
Probable space group: A B A 2
;
_chemical_formula_sum "Si O2"
_cell_formula_units_Z 52
_cell_length_a 11.136757
_cell_length_b 21.662707
_cell_length_c 9.059655
_cell_angle_alpha 90.000000
_cell_angle_beta 90.000000
_cell_angle_gamma 90.000000
_cell_volume 2185.662641
_symmetry_space_group_name_H-M "A B A 2"
_symmetry_group_IT_number 41
_symmetry_cell_setting 'orthorhombic'
loop_
_space_group_symop_operation_xyz
x,y,z
-x,-y,z
1/2-x,y,1/2+z
1/2+x,-y,1/2+z
x,1/2+y,1/2+z
-x,1/2-y,1/2+z
1/2-x,1/2+y,z
1/2+x,1/2-y,z
loop_
_atom_site_type_symbol
_atom_site_label
_atom_site_fract_x
_atom_site_fract_y
_atom_site_fract_z
Si Si1 0.612156 0.125474 0.651940
Si Si2 0.910501 0.299074 0.506178
Si Si3 0.269681 0.656030 0.285992
Si Si4 0.000000 0.000000 0.080140
Si Si5 0.789898 0.982319 0.858052
Si Si6 0.514428 0.165618 0.955672
Si Si7 0.147845 0.436382 0.080510
O O1 0.531208 0.162083 0.535072
O O2 0.554550 0.057162 0.666830
O O3 0.597958 0.156476 0.810400
O O4 0.745773 0.114283 0.596461
O O5 0.850057 0.312093 0.348252
O O6 0.814505 0.322263 0.627055
O O7 0.943006 0.228054 0.531338
O O8 0.252586 0.582381 0.293317
O O9 0.380933 0.671971 0.393358
O O10 0.105827 0.026687 0.978300
O O11 0.845352 0.024665 0.729711
O O12 0.686217 0.018945 0.946517
O O13 0.529892 0.103462 0.050810
#
# Coordination Sequence:
#
# PCOD9367236 Si02
#       7
#     8   8   8   4   8   8   8
#     4  10  23  47  70 100 145 192 233 302 359 430
#     4  11  26  46  71 100 142 193 241 295 354 438
#     4  11  26  47  72 104 144 187 242 300 365 428
#     4  10  22  44  74 104 144 182 242 300 370 426
#     4  11  23  43  73 108 142 185 234 301 369 436
#     4  11  27  43  71 106 140 196 237 297 359 442
#     4  11  24  43  71 107 144 185 234 296 366 437
#
# _framework density 23.791412999999999
#
# number of rings (size 3 to 8) (size 9 to 14) (size 15 to 20)
#    0.000    1.231    3.077    0.923   10.769    4.308 
#    8.308    0.000    0.000    0.000    0.000    0.000 
#    0.000    0.000    0.000    0.000    0.000    0.000 
#
# Total GULP energy -145699.167701 kJ/mol
# GULP energy per Si atom -5603.814142 kJ/mol
# Density = 2.373726 g / cm^3
# Si number density = 23.791413 Si / 1000 Ang^3
#
#
#
# Elastic Constant Matrix: (Units=GPa)
#
#
# Indices 1 2 3 4 5 6 
#
# 1 41.0115 4.3672 16.0040 0.0000 0.0000 0.0000
# 2 4.3672 90.5734 14.4112 0.0000 0.0000 0.0000
# 3 16.0040 14.4112 53.0048 0.0000 0.0000 0.0000
# 4 0.0000 0.0000 0.0000 29.4570 0.0000 0.0000
# 5 0.0000 0.0000 0.0000 0.0000 34.4309 0.0000
# 6 0.0000 0.0000 0.0000 0.0000 0.0000 16.2127
#
#
#
# Elastic Compliance Matrix: (Units=1/GPa)
#
#
# Indices 1 2 3 4 5 6 
#
# 1 0.027640 -0.000005 -0.008344 0.000000 0.000000 0.000000
# 2 -0.000005 0.011540 -0.003136 0.000000 0.000000 0.000000
# 3 -0.008344 -0.003136 0.022238 0.000000 0.000000 0.000000
# 4 0.000000 0.000000 0.000000 0.033948 0.000000 0.000000
# 5 0.000000 0.000000 0.000000 0.000000 0.029044 0.000000
# 6 0.000000 0.000000 0.000000 0.000000 0.000000 0.061680
#
#
# Mechanical properties :
#
#
# Convention : Reuss Voigt Hill
#
# Bulk Modulus (GPa) = 26.00923 28.23938 27.12431
# Shear Modulus (GPa) = 22.53509 26.00728 24.27118
#
# Velocity S-wave (km/s) = 3.08099 3.30985 3.19747
# Velocity P-wave (km/s) = 4.85928 5.14802 5.00573
#
# Compressibility (1/GPa) = 0.03844788
#
# Stress axis : x y z
#
# Youngs Moduli (GPa) = 36.17931 86.65521 44.96760
#
# Poissons Ratio (x) = 0.00044 0.37521
# Poissons Ratio (y) = 0.00018 0.14102
# Poissons Ratio (z) = 0.30188 0.27175
#
# Static dielectric constant tensor:
#      x y z
#    x 1.905510 0.000000 0.000000 
#    y 0.000000 1.869830 0.000000 
#    z 0.000000 0.000000 1.911600 
# 
# From -- ./inp_files/2661.got.cif
#   From: 2010.05.17/outbox.cif.g08.bks.cpg/sg41_2_cif.got.tgz:2661.got - 2010.06.03 18:54:24.
