data_PCOD9367049
_publ_section_title
;
Structure prediction by ZEFSAII (Michael W. Deem and Ramdas Pophale) SiO2 
 PCOD9367049
Probable space group: A B A 2
;
_chemical_formula_sum "Si O2"
_cell_formula_units_Z 48
_cell_length_a 13.945587
_cell_length_b 20.049305
_cell_length_c 6.817280
_cell_angle_alpha 90.000000
_cell_angle_beta 90.000000
_cell_angle_gamma 90.000000
_cell_volume 1906.106901
_symmetry_space_group_name_H-M "A B A 2"
_symmetry_group_IT_number 41
_symmetry_cell_setting 'orthorhombic'
loop_
_space_group_symop_operation_xyz
x,y,z
-x,-y,z
1/2-x,y,1/2+z
1/2+x,-y,1/2+z
x,1/2+y,1/2+z
-x,1/2-y,1/2+z
1/2-x,1/2+y,z
1/2+x,1/2-y,z
loop_
_atom_site_type_symbol
_atom_site_label
_atom_site_fract_x
_atom_site_fract_y
_atom_site_fract_z
Si Si1 0.898386 0.686416 0.570120
Si Si2 0.028721 0.575331 0.708280
Si Si3 0.260749 0.130311 0.773252
Si Si4 0.276006 0.737774 0.025533
Si Si5 0.968512 0.693231 0.128412
Si Si6 0.441116 0.065619 0.238758
O O1 0.785637 0.694181 0.553944
O O2 0.931598 0.681411 0.347130
O O3 0.945022 0.632132 0.712327
O O4 0.939125 0.759361 0.624226
O O5 0.132760 0.598882 0.785809
O O6 0.040489 0.573294 0.470911
O O7 0.000000 0.500000 0.765350
O O8 0.259844 0.217591 0.780162
O O9 0.173405 0.077731 0.735793
O O10 0.232699 0.151979 0.019958
O O11 0.385998 0.763584 0.022867
O O12 0.011223 0.620319 0.094127
O O13 0.500000 0.000000 0.188211
#
# Coordination Sequence:
#
# PCOD9367049 Si02
#       6
#     8   8   8   8   8   8
#     4  11  21  37  61  91 121 161 214 266 317 380
#     4  10  22  41  65  91 126 173 215 263 322 389
#     4  12  21  41  65  92 126 173 210 265 336 383
#     4  12  22  36  63  95 123 163 212 270 324 388
#     4  11  22  37  62  92 120 162 216 264 318 381
#     4  10  22  40  64  91 128 170 213 264 323 389
#
# _framework density 25.182217000000001
#
# number of rings (size 3 to 8) (size 9 to 14) (size 15 to 20)
#    0.000    1.000    6.667    1.000    0.000    1.333 
#    0.000    0.833    0.000    0.000    0.000    0.000 
#    0.000    0.000    0.000    0.000    0.000    0.000 
#
# Total GULP energy -133697.176778 kJ/mol
# GULP energy per Si atom -5570.715699 kJ/mol
# Density = 2.512490 g / cm^3
# Si number density = 25.182217 Si / 1000 Ang^3
#
#
#
# Elastic Constant Matrix: (Units=GPa)
#
#
# Indices 1 2 3 4 5 6 
#
# 1 147.3691 92.4910 46.6461 0.0000 0.0000 0.0000
# 2 92.4910 188.2513 29.7634 0.0000 0.0000 0.0000
# 3 46.6461 29.7634 141.5284 0.0000 0.0000 0.0000
# 4 0.0000 0.0000 0.0000 31.4163 0.0000 0.0000
# 5 0.0000 0.0000 0.0000 0.0000 55.6725 0.0000
# 6 0.0000 0.0000 0.0000 0.0000 0.0000 28.2388
#
#
#
# Elastic Compliance Matrix: (Units=1/GPa)
#
#
# Indices 1 2 3 4 5 6 
#
# 1 0.010590 -0.004811 -0.002478 0.000000 0.000000 0.000000
# 2 -0.004811 0.007680 -0.000030 0.000000 0.000000 0.000000
# 3 -0.002478 -0.000030 0.007889 0.000000 0.000000 0.000000
# 4 0.000000 0.000000 0.000000 0.031831 0.000000 0.000000
# 5 0.000000 0.000000 0.000000 0.000000 0.017962 0.000000
# 6 0.000000 0.000000 0.000000 0.000000 0.000000 0.035412
#
#
# Mechanical properties :
#
#
# Convention : Reuss Voigt Hill
#
# Bulk Modulus (GPa) = 86.79913 90.54999 88.67456
# Shear Modulus (GPa) = 38.50828 43.61543 41.06186
#
# Velocity S-wave (km/s) = 3.91472 4.16624 4.04244
# Velocity P-wave (km/s) = 7.41462 7.69281 7.55500
#
# Compressibility (1/GPa) = 0.01152085
#
# Stress axis : x y z
#
# Youngs Moduli (GPa) = 94.43188 130.20070 126.76195
#
# Poissons Ratio (x) = 0.62640 0.31418
# Poissons Ratio (y) = 0.45431 0.00375
# Poissons Ratio (z) = 0.23405 0.00385
#
# Static dielectric constant tensor:
#      x y z
#    x 1.811890 0.000000 0.000000 
#    y 0.000000 1.927160 0.000000 
#    z 0.000000 0.000000 2.421830 
# 
# From -- ./inp_files/2559.got.cif
#   From: 2010.05.17/outbox.cif.g08.bks.cpg/sg41_2_cif.got.tgz:2559.got - 2010.06.03 18:54:24.
