data_PCOD9367859
_publ_section_title
;
Structure prediction by ZEFSAII (Michael W. Deem and Ramdas Pophale) SiO2 
 PCOD9367859
Probable space group: A B A 2
;
_chemical_formula_sum "Si O2"
_cell_formula_units_Z 32
_cell_length_a 19.408855
_cell_length_b 7.816465
_cell_length_c 7.811101
_cell_angle_alpha 90.000000
_cell_angle_beta 90.000000
_cell_angle_gamma 90.000000
_cell_volume 1185.011477
_symmetry_space_group_name_H-M "A B A 2"
_symmetry_group_IT_number 41
_symmetry_cell_setting 'orthorhombic'
loop_
_space_group_symop_operation_xyz
x,y,z
-x,-y,z
1/2-x,y,1/2+z
1/2+x,-y,1/2+z
x,1/2+y,1/2+z
-x,1/2-y,1/2+z
1/2-x,1/2+y,z
1/2+x,1/2-y,z
loop_
_atom_site_type_symbol
_atom_site_label
_atom_site_fract_x
_atom_site_fract_y
_atom_site_fract_z
Si Si1 0.964041 0.271390 0.491360
Si Si2 0.788862 0.252357 0.968799
Si Si3 0.838070 0.386441 0.335583
Si Si4 0.915124 0.901271 0.358476
O O1 0.920034 0.380285 0.355692
O O2 0.944832 0.356902 0.671150
O O3 0.045218 0.244618 0.469117
O O4 0.934732 0.081283 0.445532
O O5 0.815443 0.309108 0.154617
O O6 0.706999 0.269599 0.964371
O O7 0.833239 0.383225 0.852374
O O8 0.811587 0.072242 0.890398
#
# Coordination Sequence:
#
# PCOD9367859 Si02
#       4
#     8   8   8   8
#     4  11  24  44  68  99 136 179 230 290 351 419
#     4  12  24  41  65  95 133 179 231 291 352 420
#     4  12  24  41  65  95 133 179 231 291 352 420
#     4  11  24  44  68  99 136 179 230 290 351 419
#
# _framework density 27.003957
#
# number of rings (size 3 to 8) (size 9 to 14) (size 15 to 20)
#    0.000    0.500    0.000    9.000    0.000    5.000 
#    0.000    0.000    0.000    0.000    0.000    0.000 
#    0.000    0.000    0.000    0.000    0.000    0.000 
#
# Total GULP energy -89484.536336 kJ/mol
# GULP energy per Si atom -5592.783521 kJ/mol
# Density = 2.694249 g / cm^3
# Si number density = 27.003957 Si / 1000 Ang^3
#
#
#
# Elastic Constant Matrix: (Units=GPa)
#
#
# Indices 1 2 3 4 5 6 
#
# 1 101.6313 34.4993 8.6167 0.0000 0.0000 0.0000
# 2 34.4993 165.4328 18.4145 0.0000 0.0000 0.0000
# 3 8.6167 18.4145 165.9665 0.0000 0.0000 0.0000
# 4 0.0000 0.0000 0.0000 30.9580 0.0000 0.0000
# 5 0.0000 0.0000 0.0000 0.0000 50.2897 0.0000
# 6 0.0000 0.0000 0.0000 0.0000 0.0000 76.4248
#
#
#
# Elastic Compliance Matrix: (Units=1/GPa)
#
#
# Indices 1 2 3 4 5 6 
#
# 1 0.010605 -0.002177 -0.000309 0.000000 0.000000 0.000000
# 2 -0.002177 0.006567 -0.000616 0.000000 0.000000 0.000000
# 3 -0.000309 -0.000616 0.006110 0.000000 0.000000 0.000000
# 4 0.000000 0.000000 0.000000 0.032302 0.000000 0.000000
# 5 0.000000 0.000000 0.000000 0.000000 0.019885 0.000000
# 6 0.000000 0.000000 0.000000 0.000000 0.000000 0.013085
#
#
# Mechanical properties :
#
#
# Convention : Reuss Voigt Hill
#
# Bulk Modulus (GPa) = 58.55435 61.78797 60.17116
# Shear Modulus (GPa) = 49.77637 56.30118 53.03877
#
# Velocity S-wave (km/s) = 4.29802 4.57105 4.43664
# Velocity P-wave (km/s) = 6.80892 7.12672 6.96963
#
# Compressibility (1/GPa) = 0.01707815
#
# Stress axis : x y z
#
# Youngs Moduli (GPa) = 94.29759 152.26980 163.67519
#
# Poissons Ratio (x) = 0.33151 0.05058
# Poissons Ratio (y) = 0.20530 0.10076
# Poissons Ratio (z) = 0.02914 0.09374
#
# Static dielectric constant tensor:
#      x y z
#    x 2.101290 0.000000 0.000000 
#    y 0.000000 2.177720 0.000000 
#    z 0.000000 0.000000 2.176240 
# 
# From -- ./inp_files/3279.got.cif
#   From: 2010.05.17/outbox.cif.g08.bks.cpg/sg41_2_cif.got.tgz:3279.got - 2010.06.03 18:54:24.
