data_PCOD9367963
_publ_section_title
;
Structure prediction by ZEFSAII (Michael W. Deem and Ramdas Pophale) SiO2 
 PCOD9367963
Probable space group: A B A 2
;
_chemical_formula_sum "Si O2"
_cell_formula_units_Z 36
_cell_length_a 13.147206
_cell_length_b 8.615101
_cell_length_c 11.175655
_cell_angle_alpha 90.000000
_cell_angle_beta 90.000000
_cell_angle_gamma 90.000000
_cell_volume 1265.805060
_symmetry_space_group_name_H-M "A B A 2"
_symmetry_group_IT_number 41
_symmetry_cell_setting 'orthorhombic'
loop_
_space_group_symop_operation_xyz
x,y,z
-x,-y,z
1/2-x,y,1/2+z
1/2+x,-y,1/2+z
x,1/2+y,1/2+z
-x,1/2-y,1/2+z
1/2-x,1/2+y,z
1/2+x,1/2-y,z
loop_
_atom_site_type_symbol
_atom_site_label
_atom_site_fract_x
_atom_site_fract_y
_atom_site_fract_z
Si Si1 0.058257 0.808747 0.500000
Si Si2 0.163823 0.507180 0.447564
Si Si3 0.500000 0.000000 0.791642
Si Si4 0.332255 0.199970 0.076836
Si Si5 0.663773 0.738095 0.731683
O O1 0.073102 0.902494 0.379033
O O2 0.073283 0.631234 0.458193
O O3 0.137149 0.841756 0.604877
O O4 0.948093 0.846331 0.554675
O O5 0.262066 0.616319 0.475882
O O6 0.157966 0.384910 0.555899
O O7 0.162586 0.389831 0.335117
O O8 0.425846 0.132223 0.738628
O O9 0.272961 0.183713 0.202514
#
# Coordination Sequence:
#
# PCOD9367963 Si02
#       5
#     8   8   4   8   8
#     4  11  28  55  87 124 171 220 294 346 418 521
#     4  11  27  54  81 123 172 223 278 356 420 502
#     4  12  28  52  84 124 164 228 282 348 428 510
#     4  11  27  52  84 125 171 215 287 350 415 518
#     4  11  29  53  88 122 171 229 275 353 439 494
#
# _framework density 28.440397999999998
#
# number of rings (size 3 to 8) (size 9 to 14) (size 15 to 20)
#    0.000    0.889    2.222    0.667   12.444    7.111 
#    0.000    4.444    0.000    0.000    0.000    0.000 
#    0.000    0.000    0.000    0.000    0.000    0.000 
#
# Total GULP energy -100849.432710 kJ/mol
# GULP energy per Si atom -5602.746262 kJ/mol
# Density = 2.837567 g / cm^3
# Si number density = 28.440398 Si / 1000 Ang^3
#
#
#
# Elastic Constant Matrix: (Units=GPa)
#
#
# Indices 1 2 3 4 5 6 
#
# 1 146.1380 50.1756 30.9928 0.0000 0.0000 0.0000
# 2 50.1756 182.9272 50.1753 0.0000 0.0000 0.0000
# 3 30.9928 50.1753 117.5367 0.0000 0.0000 0.0000
# 4 0.0000 0.0000 0.0000 75.7284 0.0000 0.0000
# 5 0.0000 0.0000 0.0000 0.0000 49.7078 0.0000
# 6 0.0000 0.0000 0.0000 0.0000 0.0000 72.6086
#
#
#
# Elastic Compliance Matrix: (Units=1/GPa)
#
#
# Indices 1 2 3 4 5 6 
#
# 1 0.007721 -0.001766 -0.001282 0.000000 0.000000 0.000000
# 2 -0.001766 0.006596 -0.002350 0.000000 0.000000 0.000000
# 3 -0.001282 -0.002350 0.009849 0.000000 0.000000 0.000000
# 4 0.000000 0.000000 0.000000 0.013205 0.000000 0.000000
# 5 0.000000 0.000000 0.000000 0.000000 0.020118 0.000000
# 6 0.000000 0.000000 0.000000 0.000000 0.000000 0.013772
#
#
# Mechanical properties :
#
#
# Convention : Reuss Voigt Hill
#
# Bulk Modulus (GPa) = 74.79546 78.80993 76.80270
# Shear Modulus (GPa) = 57.79419 60.62620 59.21019
#
# Velocity S-wave (km/s) = 4.51279 4.62203 4.56774
# Velocity P-wave (km/s) = 7.31504 7.50033 7.40827
#
# Compressibility (1/GPa) = 0.01336979
#
# Stress axis : x y z
#
# Youngs Moduli (GPa) = 129.51439 151.61452 101.53139
#
# Poissons Ratio (x) = 0.26779 0.13016
# Poissons Ratio (y) = 0.22875 0.23859
# Poissons Ratio (z) = 0.16603 0.35628
#
# Static dielectric constant tensor:
#      x y z
#    x 2.257950 0.000000 0.000000 
#    y 0.000000 2.263780 0.000000 
#    z 0.000000 0.000000 2.223140 
# 
# From -- ./inp_files/9928.got.cif
#   From: 2010.05.17/outbox.cif.g08.bks.cpg/sg41_5_cif.got.tgz:9928.got - 2010.06.03 18:54:24.
