data_PCOD9367483
_publ_section_title
;
Structure prediction by ZEFSAII (Michael W. Deem and Ramdas Pophale) SiO2 
 PCOD9367483
Probable space group: A B A 2
;
_chemical_formula_sum "Si O2"
_cell_formula_units_Z 48
_cell_length_a 10.245761
_cell_length_b 21.998517
_cell_length_c 9.192819
_cell_angle_alpha 90.000000
_cell_angle_beta 90.000000
_cell_angle_gamma 90.000000
_cell_volume 2071.983701
_symmetry_space_group_name_H-M "A B A 2"
_symmetry_group_IT_number 41
_symmetry_cell_setting 'orthorhombic'
loop_
_space_group_symop_operation_xyz
x,y,z
-x,-y,z
1/2-x,y,1/2+z
1/2+x,-y,1/2+z
x,1/2+y,1/2+z
-x,1/2-y,1/2+z
1/2-x,1/2+y,z
1/2+x,1/2-y,z
loop_
_atom_site_type_symbol
_atom_site_label
_atom_site_fract_x
_atom_site_fract_y
_atom_site_fract_z
Si Si1 0.568996 0.723988 0.891420
Si Si2 0.250000 0.818943 0.141420
Si Si3 0.955274 0.909238 0.891420
Si Si4 0.000000 0.500000 0.142489
Si Si5 0.571416 0.647828 0.391420
Si Si6 0.657249 0.950504 0.891420
Si Si7 0.500000 0.000000 0.640351
O O1 0.659443 0.721081 0.747987
O O2 0.486616 0.661615 0.891420
O O3 0.481018 0.783164 0.891420
O O4 0.659443 0.721081 0.034854
O O5 0.161506 0.857909 0.250121
O O6 0.338494 0.857909 0.032719
O O7 0.801606 0.924401 0.891420
O O8 0.012629 0.942860 0.750113
O O9 0.012629 0.942860 0.032726
O O10 0.121204 0.511027 0.034273
O O11 0.449123 0.603509 0.391420
O O12 0.621204 0.988973 0.748567
#
# Coordination Sequence:
#
# PCOD9367483 Si02
#       7
#     8   8   8   4   8   8   4
#     4  11  24  46  71 106 137 185 228 283 355 409
#     4  10  24  42  62 106 138 182 218 278 344 396
#     4  11  24  47  73 100 138 180 233 287 344 418
#     4  10  24  46  62 106 126 178 236 278 348 386
#     4  11  24  46  71 106 137 185 228 283 355 409
#     4  11  24  47  73 100 138 180 233 287 344 418
#     4  10  24  46  62 106 126 178 236 278 348 386
#
# _framework density 23.166205999999999
#
# number of rings (size 3 to 8) (size 9 to 14) (size 15 to 20)
#    0.000    1.333    0.000    4.000    4.667    0.000 
#   60.000    0.000    0.000    0.000    0.000    0.000 
#    0.000    0.000    0.000    0.000    0.000    0.000 
#
# Total GULP energy -134492.328207 kJ/mol
# GULP energy per Si atom -5603.847009 kJ/mol
# Density = 2.311348 g / cm^3
# Si number density = 23.166206 Si / 1000 Ang^3
#
#
#
# Elastic Constant Matrix: (Units=GPa)
#
#
# Indices 1 2 3 4 5 6 
#
# 1 152.0959 79.9702 84.9864 0.0000 0.0000 0.0000
# 2 79.9702 149.8050 58.3964 0.0000 0.0000 0.0000
# 3 84.9864 58.3964 201.8901 0.0000 0.0000 0.0000
# 4 0.0000 0.0000 0.0000 36.4706 0.0000 0.0000
# 5 0.0000 0.0000 0.0000 0.0000 61.9657 0.0000
# 6 0.0000 0.0000 0.0000 0.0000 0.0000 4.8989
#
#
#
# Elastic Compliance Matrix: (Units=1/GPa)
#
#
# Indices 1 2 3 4 5 6 
#
# 1 0.010725 -0.004469 -0.003222 0.000000 0.000000 0.000000
# 2 -0.004469 0.009386 -0.000834 0.000000 0.000000 0.000000
# 3 -0.003222 -0.000834 0.006551 0.000000 0.000000 0.000000
# 4 0.000000 0.000000 0.000000 0.027419 0.000000 0.000000
# 5 0.000000 0.000000 0.000000 0.000000 0.016138 0.000000
# 6 0.000000 0.000000 0.000000 0.000000 0.000000 0.204127
#
#
# Mechanical properties :
#
#
# Convention : Reuss Voigt Hill
#
# Bulk Modulus (GPa) = 104.03638 105.61078 104.82358
# Shear Modulus (GPa) = 16.97216 39.36291 28.16753
#
# Velocity S-wave (km/s) = 2.70964 4.12655 3.49074
# Velocity P-wave (km/s) = 7.40241 8.26993 7.84817
#
# Compressibility (1/GPa) = 0.00961202
#
# Stress axis : x y z
#
# Youngs Moduli (GPa) = 93.23918 106.54000 152.65760
#
# Poissons Ratio (x) = 0.47617 0.49186
# Poissons Ratio (y) = 0.41672 0.12724
# Poissons Ratio (z) = 0.30042 0.08880
#
# Static dielectric constant tensor:
#      x y z
#    x 1.842980 0.000000 0.000000 
#    y 0.000000 1.823560 0.000000 
#    z 0.000000 0.000000 1.866280 
# 
# From -- ./inp_files/2122.got.cif
#   From: 2010.05.17/outbox.cif.g08.bks.cpg/sg41_2_cif.got.tgz:2122.got - 2010.06.03 18:54:24.
