data_PCOD9367064
_publ_section_title
;
Structure prediction by ZEFSAII (Michael W. Deem and Ramdas Pophale) SiO2 
 PCOD9367064
Probable space group: A B A 2
;
_chemical_formula_sum "Si O2"
_cell_formula_units_Z 60
_cell_length_a 13.985894
_cell_length_b 11.696839
_cell_length_c 14.883675
_cell_angle_alpha 90.000000
_cell_angle_beta 90.000000
_cell_angle_gamma 90.000000
_cell_volume 2434.831562
_symmetry_space_group_name_H-M "A B A 2"
_symmetry_group_IT_number 41
_symmetry_cell_setting 'orthorhombic'
loop_
_space_group_symop_operation_xyz
x,y,z
-x,-y,z
1/2-x,y,1/2+z
1/2+x,-y,1/2+z
x,1/2+y,1/2+z
-x,1/2-y,1/2+z
1/2-x,1/2+y,z
1/2+x,1/2-y,z
loop_
_atom_site_type_symbol
_atom_site_label
_atom_site_fract_x
_atom_site_fract_y
_atom_site_fract_z
Si Si1 0.559105 0.844369 0.588230
Si Si2 0.580981 0.086679 0.112303
Si Si3 0.870342 0.678209 0.292416
Si Si4 0.314660 0.221979 0.216218
Si Si5 0.008224 0.368640 0.789445
Si Si6 0.500000 0.000000 0.458357
Si Si7 0.224961 0.089428 0.549301
Si Si8 0.807870 0.459343 0.368320
O O1 0.567403 0.710657 0.570584
O O2 0.535934 0.872763 0.689998
O O3 0.662840 0.899269 0.571217
O O4 0.476322 0.898798 0.527177
O O5 0.569021 0.104666 0.220090
O O6 0.500000 0.000000 0.080548
O O7 0.679798 0.028896 0.083139
O O8 0.790070 0.726371 0.225851
O O9 0.810380 0.596216 0.357540
O O10 0.938718 0.773811 0.335100
O O11 0.390071 0.306531 0.265996
O O12 0.328608 0.184015 0.112327
O O13 0.303466 0.106359 0.274864
O O14 0.000000 0.500000 0.825017
O O15 0.416567 0.055189 0.401614
O O16 0.231393 0.087042 0.440428
#
# Coordination Sequence:
#
# PCOD9367064 Si02
#       8
#     8   8   8   8   8   4   8   8
#     4  10  22  40  66 111 138 190 245 287 372 451
#     4  11  23  43  75 105 143 193 249 302 378 446
#     4  11  25  44  71 107 147 190 252 305 372 449
#     4  12  25  45  76 104 152 197 249 317 374 458
#     4  11  24  41  74 109 149 200 249 305 381 457
#     4  10  22  44  68 102 152 180 240 308 356 460
#     4  11  23  45  75 103 150 191 238 317 372 449
#     4  11  26  44  75 109 142 194 255 303 386 445
#
# _framework density 24.642361000000001
#
# number of rings (size 3 to 8) (size 9 to 14) (size 15 to 20)
#    0.000    1.067    4.667    2.400    4.667    2.133 
#    9.600    0.000    0.000    0.000    0.000    0.000 
#    0.000    0.000    0.000    0.000    0.000    0.000 
#
# Total GULP energy -167351.269458 kJ/mol
# GULP energy per Si atom -5578.375649 kJ/mol
# Density = 2.458627 g / cm^3
# Si number density = 24.642361 Si / 1000 Ang^3
#
#
#
# Elastic Constant Matrix: (Units=GPa)
#
#
# Indices 1 2 3 4 5 6 
#
# 1 84.2548 62.1229 18.4902 0.0000 0.0000 0.0000
# 2 62.1229 160.8169 23.9199 0.0000 0.0000 0.0000
# 3 18.4902 23.9199 65.5625 0.0000 0.0000 0.0000
# 4 0.0000 0.0000 0.0000 19.5948 0.0000 0.0000
# 5 0.0000 0.0000 0.0000 0.0000 14.5671 0.0000
# 6 0.0000 0.0000 0.0000 0.0000 0.0000 50.7255
#
#
#
# Elastic Compliance Matrix: (Units=1/GPa)
#
#
# Indices 1 2 3 4 5 6 
#
# 1 0.016985 -0.006184 -0.002534 0.000000 0.000000 0.000000
# 2 -0.006184 0.008827 -0.001476 0.000000 0.000000 0.000000
# 3 -0.002534 -0.001476 0.016506 0.000000 0.000000 0.000000
# 4 0.000000 0.000000 0.000000 0.051034 0.000000 0.000000
# 5 0.000000 0.000000 0.000000 0.000000 0.068648 0.000000
# 6 0.000000 0.000000 0.000000 0.000000 0.000000 0.019714
#
#
# Mechanical properties :
#
#
# Convention : Reuss Voigt Hill
#
# Bulk Modulus (GPa) = 45.60258 57.74450 51.67354
# Shear Modulus (GPa) = 23.87650 30.71755 27.29702
#
# Velocity S-wave (km/s) = 3.11613 3.53446 3.33186
# Velocity P-wave (km/s) = 5.61186 6.33565 5.98470
#
# Compressibility (1/GPa) = 0.02192858
#
# Stress axis : x y z
#
# Youngs Moduli (GPa) = 58.87704 113.29189 60.58470
#
# Poissons Ratio (x) = 0.70062 0.15351
# Poissons Ratio (y) = 0.36411 0.08944
# Poissons Ratio (z) = 0.14918 0.16725
#
# Static dielectric constant tensor:
#      x y z
#    x 1.995320 0.000000 0.000000 
#    y 0.000000 2.037510 0.000000 
#    z 0.000000 0.000000 2.044610 
# 
# From -- ./inp_files/10379.got.cif
#   From: 2010.05.17/outbox.cif.g08.bks.cpg/sg41_6_cif.got.tgz:10379.got - 2010.06.03 18:54:24.
