data_PCOD9367243
_publ_section_title
;
Structure prediction by ZEFSAII (Michael W. Deem and Ramdas Pophale) SiO2 
 PCOD9367243
Probable space group: A B A 2
;
_chemical_formula_sum "Si O2"
_cell_formula_units_Z 64
_cell_length_a 28.572758
_cell_length_b 9.233411
_cell_length_c 11.423654
_cell_angle_alpha 90.000000
_cell_angle_beta 90.000000
_cell_angle_gamma 90.000000
_cell_volume 3013.834299
_symmetry_space_group_name_H-M "A B A 2"
_symmetry_group_IT_number 41
_symmetry_cell_setting 'orthorhombic'
loop_
_space_group_symop_operation_xyz
x,y,z
-x,-y,z
1/2-x,y,1/2+z
1/2+x,-y,1/2+z
x,1/2+y,1/2+z
-x,1/2-y,1/2+z
1/2-x,1/2+y,z
1/2+x,1/2-y,z
loop_
_atom_site_type_symbol
_atom_site_label
_atom_site_fract_x
_atom_site_fract_y
_atom_site_fract_z
Si Si1 0.664419 0.826077 0.697640
Si Si2 0.299876 0.336471 0.475437
Si Si3 0.119291 0.745706 0.319024
Si Si4 0.128124 0.891845 0.090925
Si Si5 0.746817 0.923752 0.860067
Si Si6 0.478861 0.839679 0.525475
Si Si7 0.488797 0.328981 0.293064
Si Si8 0.658005 0.065099 0.346872
O O1 0.691304 0.739883 0.597024
O O2 0.630308 0.947048 0.645505
O O3 0.703933 0.905661 0.772942
O O4 0.640402 0.701997 0.774992
O O5 0.350640 0.334281 0.413193
O O6 0.268150 0.228302 0.398599
O O7 0.274837 0.489803 0.470078
O O8 0.066297 0.798360 0.313140
O O9 0.124837 0.575415 0.343620
O O10 0.140961 0.780637 0.192386
O O11 0.076667 0.855620 0.044682
O O12 0.162618 0.890063 0.981877
O O13 0.790756 0.011800 0.808053
O O14 0.487881 0.748885 0.406312
O O15 0.497898 0.784655 0.654847
O O16 0.500000 0.000000 0.508207
O O17 0.500000 0.500000 0.297669
#
# Coordination Sequence:
#
# PCOD9367243 Si02
#       8
#     8   8   8   8   8   8   8   8
#     4  12  25  41  66  93 134 182 225 283 336 401
#     4  11  24  41  65  93 131 175 224 282 329 400
#     4  10  22  45  67  94 140 171 225 285 338 415
#     4  11  23  44  66  97 136 173 224 285 340 403
#     4  11  23  41  60  95 128 175 228 271 336 393
#     4  10  23  43  72 101 140 178 221 290 348 429
#     4  10  23  46  71 103 135 181 227 281 359 425
#     4  11  25  41  63  99 127 182 224 277 343 401
#
# _framework density 21.235406000000001
#
# number of rings (size 3 to 8) (size 9 to 14) (size 15 to 20)
#    0.000    1.250    5.000    0.750    1.750    6.500 
#    4.500    0.000    0.000    0.000    0.000    0.000 
#    0.000    0.000    0.000    0.000    0.000    0.000 
#
# Total GULP energy -178668.082657 kJ/mol
# GULP energy per Si atom -5583.377583 kJ/mol
# Density = 2.118707 g / cm^3
# Si number density = 21.235406 Si / 1000 Ang^3
#
#
#
# Elastic Constant Matrix: (Units=GPa)
#
#
# Indices 1 2 3 4 5 6 
#
# 1 52.9014 21.5922 21.1875 0.0000 0.0000 0.0000
# 2 21.5922 24.7949 39.6825 0.0000 0.0000 0.0000
# 3 21.1875 39.6825 96.6817 0.0000 0.0000 0.0000
# 4 0.0000 0.0000 0.0000 36.7211 0.0000 0.0000
# 5 0.0000 0.0000 0.0000 0.0000 16.8244 0.0000
# 6 0.0000 0.0000 0.0000 0.0000 0.0000 24.9871
#
#
#
# Elastic Compliance Matrix: (Units=1/GPa)
#
#
# Indices 1 2 3 4 5 6 
#
# 1 0.034831 -0.052798 0.014037 0.000000 0.000000 0.000000
# 2 -0.052798 0.197576 -0.069524 0.000000 0.000000 0.000000
# 3 0.014037 -0.069524 0.035803 0.000000 0.000000 0.000000
# 4 0.000000 0.000000 0.000000 0.027232 0.000000 0.000000
# 5 0.000000 0.000000 0.000000 0.000000 0.059438 0.000000
# 6 0.000000 0.000000 0.000000 0.000000 0.000000 0.040021
#
#
# Mechanical properties :
#
#
# Convention : Reuss Voigt Hill
#
# Bulk Modulus (GPa) = 19.36412 37.70026 28.53219
# Shear Modulus (GPa) = 7.95314 21.83424 14.89369
#
# Velocity S-wave (km/s) = 1.93736 3.21003 2.65120
# Velocity P-wave (km/s) = 3.76073 5.61526 4.77882
#
# Compressibility (1/GPa) = 0.05164190
#
# Stress axis : x y z
#
# Youngs Moduli (GPa) = 28.71020 5.06133 27.93094
#
# Poissons Ratio (x) = 0.26723 -0.39208
# Poissons Ratio (y) = 1.51583 1.94186
# Poissons Ratio (z) = -0.40302 0.35188
#
# Static dielectric constant tensor:
#      x y z
#    x 1.766560 0.000000 0.000000 
#    y 0.000000 1.776010 0.000000 
#    z 0.000000 0.000000 1.806590 
# 
# From -- ./inp_files/6655.got.cif
#   From: 2010.05.17/outbox.cif.g08.bks.cpg/sg41_4_cif.got.tgz:6655.got - 2010.06.03 18:54:24.
