data_PCOD9367286
_publ_section_title
;
Structure prediction by ZEFSAII (Michael W. Deem and Ramdas Pophale) SiO2 
 PCOD9367286
Probable space group: A B A 2
;
_chemical_formula_sum "Si O2"
_cell_formula_units_Z 48
_cell_length_a 10.868134
_cell_length_b 22.182585
_cell_length_c 10.304977
_cell_angle_alpha 90.000000
_cell_angle_beta 90.000000
_cell_angle_gamma 90.000000
_cell_volume 2484.357926
_symmetry_space_group_name_H-M "A B A 2"
_symmetry_group_IT_number 41
_symmetry_cell_setting 'orthorhombic'
loop_
_space_group_symop_operation_xyz
x,y,z
-x,-y,z
1/2-x,y,1/2+z
1/2+x,-y,1/2+z
x,1/2+y,1/2+z
-x,1/2-y,1/2+z
1/2-x,1/2+y,z
1/2+x,1/2-y,z
loop_
_atom_site_type_symbol
_atom_site_label
_atom_site_fract_x
_atom_site_fract_y
_atom_site_fract_z
Si Si1 0.665990 0.552837 0.397510
Si Si2 0.181601 0.753626 0.689225
Si Si3 0.023706 0.654467 0.601466
Si Si4 0.113480 0.081938 0.329784
Si Si5 0.245719 0.883422 0.649014
Si Si6 0.773013 0.308681 0.434637
O O1 0.525982 0.575709 0.379931
O O2 0.671700 0.482933 0.357585
O O3 0.744736 0.589116 0.292003
O O4 0.703959 0.568359 0.543049
O O5 0.055582 0.714886 0.684222
O O6 0.165175 0.823059 0.656307
O O7 0.257536 0.722281 0.571981
O O8 0.251780 0.740083 0.822366
O O9 0.098102 0.601957 0.679020
O O10 0.087895 0.668027 0.463517
O O11 0.882134 0.638292 0.605695
O O12 0.189064 0.134549 0.399396
#
# Coordination Sequence:
#
# PCOD9367286 Si02
#       6
#     8   8   8   8   8   8
#     4  10  23  36  60  83 118 155 187 245 286 351
#     4   9  19  35  55  85 112 147 190 229 288 340
#     4   8  20  37  59  81 112 156 189 238 290 340
#     4   9  19  41  59  79 114 157 196 227 302 338
#     4  11  21  40  55  90 117 152 192 238 298 344
#     4   9  18  37  59  82 107 156 188 237 277 351
#
# _framework density 19.320886000000002
#
# number of rings (size 3 to 8) (size 9 to 14) (size 15 to 20)
#    1.000    1.667    0.000    1.000    2.333    1.333 
#   12.000    0.000    0.000    0.000    0.000    0.000 
#    0.000    0.000    0.000    0.000    0.000    0.000 
#
# Total GULP energy -133642.129032 kJ/mol
# GULP energy per Si atom -5568.422043 kJ/mol
# Density = 1.927691 g / cm^3
# Si number density = 19.320886 Si / 1000 Ang^3
#
#
#
# Elastic Constant Matrix: (Units=GPa)
#
#
# Indices 1 2 3 4 5 6 
#
# 1 7.2420 -1.1270 -3.1788 0.0000 0.0000 0.0000
# 2 -1.1270 79.2277 -7.2291 0.0000 0.0000 0.0000
# 3 -3.1788 -7.2291 52.1708 0.0000 0.0000 0.0000
# 4 0.0000 0.0000 0.0000 -11.4073 0.0000 0.0000
# 5 0.0000 0.0000 0.0000 0.0000 14.0490 0.0000
# 6 0.0000 0.0000 0.0000 0.0000 0.0000 13.2770
#
#
#
# Elastic Compliance Matrix: (Units=1/GPa)
#
#
# Indices 1 2 3 4 5 6 
#
# 1 0.142513 0.002856 0.009079 0.000000 0.000000 0.000000
# 2 0.002856 0.012841 0.001953 0.000000 0.000000 0.000000
# 3 0.009079 0.001953 0.019992 0.000000 0.000000 0.000000
# 4 0.000000 0.000000 0.000000 -0.087663 0.000000 0.000000
# 5 0.000000 0.000000 0.000000 0.000000 0.071179 0.000000
# 6 0.000000 0.000000 0.000000 0.000000 0.000000 0.075318
#
#
# Mechanical properties :
#
#
# Convention : Reuss Voigt Hill
#
# Bulk Modulus (GPa) = 4.92318 12.84120 8.88219
# Shear Modulus (GPa) = 18.24080 13.19543 15.71811
#
# Velocity S-wave (km/s) = 3.07595 2.61619 2.85534
# Velocity P-wave (km/s) = 3.89473 3.97324 3.93418
#
# Compressibility (1/GPa) = 0.20312086
#
# Stress axis : x y z
#
# Youngs Moduli (GPa) = 7.01691 77.87737 50.02088
#
# Poissons Ratio (x) = -0.22239 -0.45414
# Poissons Ratio (y) = -0.02004 -0.09770
# Poissons Ratio (z) = -0.06371 -0.15212
#
# Static dielectric constant tensor:
#      x y z
#    x 1.689630 0.000000 0.000000 
#    y 0.000000 1.688990 0.000000 
#    z 0.000000 0.000000 1.675500 
# 
# From -- ./inp_files/5035.got.cif
#   From: 2010.05.17/outbox.cif.g08.bks.cpg/sg41_3_cif.got.tgz:5035.got - 2010.06.03 18:54:24.
