data_PCOD9367385
_publ_section_title
;
Structure prediction by ZEFSAII (Michael W. Deem and Ramdas Pophale) SiO2 
 PCOD9367385
Probable space group: A B A 2
;
_chemical_formula_sum "Si O2"
_cell_formula_units_Z 52
_cell_length_a 13.819264
_cell_length_b 20.892750
_cell_length_c 8.570353
_cell_angle_alpha 90.000000
_cell_angle_beta 90.000000
_cell_angle_gamma 90.000000
_cell_volume 2474.453126
_symmetry_space_group_name_H-M "A B A 2"
_symmetry_group_IT_number 41
_symmetry_cell_setting 'orthorhombic'
loop_
_space_group_symop_operation_xyz
x,y,z
-x,-y,z
1/2-x,y,1/2+z
1/2+x,-y,1/2+z
x,1/2+y,1/2+z
-x,1/2-y,1/2+z
1/2-x,1/2+y,z
1/2+x,1/2-y,z
loop_
_atom_site_type_symbol
_atom_site_label
_atom_site_fract_x
_atom_site_fract_y
_atom_site_fract_z
Si Si1 0.823490 0.804294 0.188280
Si Si2 0.039622 0.599116 0.760597
Si Si3 0.189857 0.580205 0.040059
Si Si4 0.177115 0.490575 0.317176
Si Si5 0.823234 0.119545 0.213782
Si Si6 0.500000 0.500000 0.016636
Si Si7 0.766111 0.712630 0.454989
O O1 0.928886 0.834691 0.181468
O O2 0.749215 0.861282 0.127642
O O3 0.812268 0.772060 0.359449
O O4 0.805419 0.745836 0.075500
O O5 0.061024 0.545200 0.632205
O O6 0.925339 0.593343 0.773093
O O7 0.104472 0.596451 0.916181
O O8 0.146549 0.538378 0.179644
O O9 0.259434 0.533987 0.936620
O O10 0.242316 0.435358 0.237199
O O11 0.081533 0.467261 0.408907
O O12 0.795525 0.174968 0.331141
O O13 0.825425 0.157667 0.048713
#
# Coordination Sequence:
#
# PCOD9367385 Si02
#       7
#     8   8   8   8   8   4   8
#     4  11  21  42  70  96 130 180 233 285 341 408
#     4  12  24  42  70 102 141 181 234 288 364 427
#     4  12  22  42  71 101 133 183 229 301 351 428
#     4  12  24  43  69 100 144 180 236 290 367 431
#     4  11  25  43  66 100 140 186 221 292 358 416
#     4  12  26  42  66 108 138 186 232 296 358 440
#     4  10  23  44  67  93 139 182 230 284 343 411
#
# _framework density 21.014745000000001
#
# number of rings (size 3 to 8) (size 9 to 14) (size 15 to 20)
#    0.000    0.615    4.615    3.692    0.000    4.308 
#    0.000    0.000    0.000    0.000    0.000    0.000 
#    0.000    0.000    0.000    0.000    0.000    0.000 
#
# Total GULP energy -144809.193830 kJ/mol
# GULP energy per Si atom -5569.584378 kJ/mol
# Density = 2.096691 g / cm^3
# Si number density = 21.014745 Si / 1000 Ang^3
#
#
#
# Elastic Constant Matrix: (Units=GPa)
#
#
# Indices 1 2 3 4 5 6 
#
# 1 82.4835 32.2273 32.3799 0.0000 0.0000 0.0000
# 2 32.2273 97.3012 41.0818 0.0000 0.0000 0.0000
# 3 32.3799 41.0818 108.4099 0.0000 0.0000 0.0000
# 4 0.0000 0.0000 0.0000 32.7605 0.0000 0.0000
# 5 0.0000 0.0000 0.0000 0.0000 25.3290 0.0000
# 6 0.0000 0.0000 0.0000 0.0000 0.0000 34.2595
#
#
#
# Elastic Compliance Matrix: (Units=1/GPa)
#
#
# Indices 1 2 3 4 5 6 
#
# 1 0.014719 -0.003594 -0.003034 0.000000 0.000000 0.000000
# 2 -0.003594 0.013112 -0.003896 0.000000 0.000000 0.000000
# 3 -0.003034 -0.003896 0.011607 0.000000 0.000000 0.000000
# 4 0.000000 0.000000 0.000000 0.030525 0.000000 0.000000
# 5 0.000000 0.000000 0.000000 0.000000 0.039480 0.000000
# 6 0.000000 0.000000 0.000000 0.000000 0.000000 0.029189
#
#
# Mechanical properties :
#
#
# Convention : Reuss Voigt Hill
#
# Bulk Modulus (GPa) = 54.37567 55.50807 54.94187
# Shear Modulus (GPa) = 30.15499 30.63684 30.39591
#
# Velocity S-wave (km/s) = 3.79218 3.82235 3.80729
# Velocity P-wave (km/s) = 6.71605 6.77877 6.74748
#
# Compressibility (1/GPa) = 0.01839058
#
# Stress axis : x y z
#
# Youngs Moduli (GPa) = 67.93937 76.26336 86.15681
#
# Poissons Ratio (x) = 0.27409 0.26143
# Poissons Ratio (y) = 0.24417 0.33562
# Poissons Ratio (z) = 0.20615 0.29708
#
# Static dielectric constant tensor:
#      x y z
#    x 1.748690 0.000000 0.000000 
#    y 0.000000 1.881630 0.000000 
#    z 0.000000 0.000000 1.845090 
# 
# From -- ./inp_files/2635.got.cif
#   From: 2010.05.17/outbox.cif.g08.bks.cpg/sg41_2_cif.got.tgz:2635.got - 2010.06.03 18:54:24.
