data_PCOD9367449
_publ_section_title
;
Structure prediction by ZEFSAII (Michael W. Deem and Ramdas Pophale) SiO2 
 PCOD9367449
Probable space group: A B A 2
;
_chemical_formula_sum "Si O2"
_cell_formula_units_Z 36
_cell_length_a 20.337441
_cell_length_b 5.184070
_cell_length_c 12.916035
_cell_angle_alpha 90.000000
_cell_angle_beta 90.000000
_cell_angle_gamma 90.000000
_cell_volume 1361.746841
_symmetry_space_group_name_H-M "A B A 2"
_symmetry_group_IT_number 41
_symmetry_cell_setting 'orthorhombic'
loop_
_space_group_symop_operation_xyz
x,y,z
-x,-y,z
1/2-x,y,1/2+z
1/2+x,-y,1/2+z
x,1/2+y,1/2+z
-x,1/2-y,1/2+z
1/2-x,1/2+y,z
1/2+x,1/2-y,z
loop_
_atom_site_type_symbol
_atom_site_label
_atom_site_fract_x
_atom_site_fract_y
_atom_site_fract_z
Si Si1 0.882162 0.314567 0.808010
Si Si2 0.732858 0.855119 0.101399
Si Si3 0.096927 0.372822 0.605302
Si Si4 0.849028 0.338159 0.430055
Si Si5 0.500000 0.500000 0.728156
O O1 0.878249 0.430991 0.693202
O O2 0.868613 0.568104 0.877979
O O3 0.840528 0.069124 0.847322
O O4 0.954282 0.180441 0.799310
O O5 0.752721 0.606342 0.163972
O O6 0.656735 0.821253 0.078197
O O7 0.783419 0.830739 0.003256
O O8 0.092578 0.552657 0.504666
O O9 0.040491 0.197703 0.654662
#
# Coordination Sequence:
#
# PCOD9367449 Si02
#       5
#     8   8   8   8   4
#     4  12  27  53  79 120 168 218 280 339 418 510
#     4  10  23  47  80 112 159 205 271 339 408 489
#     4  11  27  53  85 122 170 214 281 348 428 503
#     4  11  26  51  83 116 165 222 280 344 419 495
#     4  12  28  56  84 128 176 226 282 352 430 512
#
# _framework density 26.436630999999998
#
# number of rings (size 3 to 8) (size 9 to 14) (size 15 to 20)
#    0.000    0.889    2.222    3.333    9.333    0.000 
#    8.000   26.667    0.000    0.000    0.000    0.000 
#    0.000    0.000    0.000    0.000    0.000    0.000 
#
# Total GULP energy -100561.005201 kJ/mol
# GULP energy per Si atom -5586.722511 kJ/mol
# Density = 2.637646 g / cm^3
# Si number density = 26.436631 Si / 1000 Ang^3
#
#
#
# Elastic Constant Matrix: (Units=GPa)
#
#
# Indices 1 2 3 4 5 6 
#
# 1 124.4127 49.3813 55.4691 0.0000 0.0000 0.0000
# 2 49.3813 210.0462 59.5948 0.0000 0.0000 0.0000
# 3 55.4691 59.5948 155.7170 0.0000 0.0000 0.0000
# 4 0.0000 0.0000 0.0000 36.1985 0.0000 0.0000
# 5 0.0000 0.0000 0.0000 0.0000 55.9383 0.0000
# 6 0.0000 0.0000 0.0000 0.0000 0.0000 63.7800
#
#
#
# Elastic Compliance Matrix: (Units=1/GPa)
#
#
# Indices 1 2 3 4 5 6 
#
# 1 0.009958 -0.001497 -0.002974 0.000000 0.000000 0.000000
# 2 -0.001497 0.005566 -0.001597 0.000000 0.000000 0.000000
# 3 -0.002974 -0.001597 0.008092 0.000000 0.000000 0.000000
# 4 0.000000 0.000000 0.000000 0.027625 0.000000 0.000000
# 5 0.000000 0.000000 0.000000 0.000000 0.017877 0.000000
# 6 0.000000 0.000000 0.000000 0.000000 0.000000 0.015679
#
#
# Mechanical properties :
#
#
# Convention : Reuss Voigt Hill
#
# Bulk Modulus (GPa) = 87.10852 91.00736 89.05794
# Shear Modulus (GPa) = 49.62245 52.89876 51.26061
#
# Velocity S-wave (km/s) = 4.33718 4.47807 4.40818
# Velocity P-wave (km/s) = 7.62253 7.82540 7.72463
#
# Compressibility (1/GPa) = 0.01147993
#
# Stress axis : x y z
#
# Youngs Moduli (GPa) = 100.42078 179.66532 123.57147
#
# Poissons Ratio (x) = 0.26901 0.36753
# Poissons Ratio (y) = 0.15036 0.19732
# Poissons Ratio (z) = 0.29867 0.28689
#
# Static dielectric constant tensor:
#      x y z
#    x 2.131030 0.000000 0.000000 
#    y 0.000000 2.201520 0.000000 
#    z 0.000000 0.000000 2.074310 
# 
# From -- ./inp_files/8911.got.cif
#   From: 2010.05.17/outbox.cif.g08.bks.cpg/sg41_5_cif.got.tgz:8911.got - 2010.06.03 18:54:24.
