data_PCOD9367147
_publ_section_title
;
Structure prediction by ZEFSAII (Michael W. Deem and Ramdas Pophale) SiO2 
 PCOD9367147
Probable space group: A B A 2
;
_chemical_formula_sum "Si O2"
_cell_formula_units_Z 44
_cell_length_a 25.855116
_cell_length_b 5.249147
_cell_length_c 14.276379
_cell_angle_alpha 90.000000
_cell_angle_beta 90.000000
_cell_angle_gamma 90.000000
_cell_volume 1937.551677
_symmetry_space_group_name_H-M "A B A 2"
_symmetry_group_IT_number 41
_symmetry_cell_setting 'orthorhombic'
loop_
_space_group_symop_operation_xyz
x,y,z
-x,-y,z
1/2-x,y,1/2+z
1/2+x,-y,1/2+z
x,1/2+y,1/2+z
-x,1/2-y,1/2+z
1/2-x,1/2+y,z
1/2+x,1/2-y,z
loop_
_atom_site_type_symbol
_atom_site_label
_atom_site_fract_x
_atom_site_fract_y
_atom_site_fract_z
Si Si1 0.397669 0.938570 0.384690
Si Si2 0.000000 0.500000 0.262401
Si Si3 0.717562 0.137970 0.305152
Si Si4 0.722651 0.663966 0.579922
Si Si5 0.018965 0.255597 0.082615
Si Si6 0.886949 0.558420 0.000889
O O1 0.341823 0.880020 0.337992
O O2 0.401296 0.722933 0.465634
O O3 0.448869 0.933548 0.320160
O O4 0.395466 0.228186 0.421751
O O5 0.007973 0.722134 0.184037
O O6 0.748400 0.392616 0.334754
O O7 0.716461 0.144550 0.191944
O O8 0.766853 0.457985 0.555443
O O9 0.671795 0.562859 0.531077
O O10 0.000000 0.500000 0.024551
O O11 0.079262 0.318751 0.085792
O O12 0.000000 0.000000 0.037215
#
# Coordination Sequence:
#
# PCOD9367147 Si02
#       6
#     8   4   8   8   8   8
#     4  12  27  41  67 102 135 174 208 281 342 391
#     4  10  28  44  70  94 134 172 234 266 332 398
#     4  10  22  44  67  95 130 174 221 266 322 395
#     4  10  22  42  68  94 127 173 222 263 316 393
#     4  10  24  45  68  91 121 182 216 275 309 393
#     4  12  26  42  66  99 135 170 215 272 336 392
#
# _framework density 22.709071000000002
#
# number of rings (size 3 to 8) (size 9 to 14) (size 15 to 20)
#    0.545    0.727    0.000    4.364    6.364    4.364 
#    6.545    0.000    0.000    0.000    0.000    0.000 
#    0.000    0.000    0.000    0.000    0.000    0.000 
#
# Total GULP energy -122768.743549 kJ/mol
# GULP energy per Si atom -5580.397434 kJ/mol
# Density = 2.265738 g / cm^3
# Si number density = 22.709071 Si / 1000 Ang^3
#
#
#
# Elastic Constant Matrix: (Units=GPa)
#
#
# Indices 1 2 3 4 5 6 
#
# 1 132.7662 25.4508 23.1489 0.0000 0.0000 0.0000
# 2 25.4508 138.5744 4.0757 0.0000 0.0000 0.0000
# 3 23.1489 4.0757 55.9118 0.0000 0.0000 0.0000
# 4 0.0000 0.0000 0.0000 19.6141 0.0000 0.0000
# 5 0.0000 0.0000 0.0000 0.0000 48.4152 0.0000
# 6 0.0000 0.0000 0.0000 0.0000 0.0000 34.4614
#
#
#
# Elastic Compliance Matrix: (Units=1/GPa)
#
#
# Indices 1 2 3 4 5 6 
#
# 1 0.008396 -0.001443 -0.003371 0.000000 0.000000 0.000000
# 2 -0.001443 0.007480 0.000052 0.000000 0.000000 0.000000
# 3 -0.003371 0.000052 0.019277 0.000000 0.000000 0.000000
# 4 0.000000 0.000000 0.000000 0.050984 0.000000 0.000000
# 5 0.000000 0.000000 0.000000 0.000000 0.020655 0.000000
# 6 0.000000 0.000000 0.000000 0.000000 0.000000 0.029018
#
#
# Mechanical properties :
#
#
# Convention : Reuss Voigt Hill
#
# Bulk Modulus (GPa) = 39.01729 48.06702 43.54216
# Shear Modulus (GPa) = 32.49347 38.80326 35.64837
#
# Velocity S-wave (km/s) = 3.78677 4.13814 3.96635
# Velocity P-wave (km/s) = 6.02812 6.63662 6.33967
#
# Compressibility (1/GPa) = 0.02562966
#
# Stress axis : x y z
#
# Youngs Moduli (GPa) = 119.09814 133.69301 51.87458
#
# Poissons Ratio (x) = 0.19291 0.17488
# Poissons Ratio (y) = 0.17185 -0.00271
# Poissons Ratio (z) = 0.40150 -0.00698
#
# Static dielectric constant tensor:
#      x y z
#    x 1.922730 0.000000 0.000000 
#    y 0.000000 1.898020 0.000000 
#    z 0.000000 0.000000 1.869330 
# 
# From -- ./inp_files/9205.got.cif
#   From: 2010.05.17/outbox.cif.g08.bks.cpg/sg41_5_cif.got.tgz:9205.got - 2010.06.03 18:54:24.
