data_PCOD9367945
_publ_section_title
;
Structure prediction by ZEFSAII (Michael W. Deem and Ramdas Pophale) SiO2 
 PCOD9367945
Probable space group: A B A 2
;
_chemical_formula_sum "Si O2"
_cell_formula_units_Z 36
_cell_length_a 8.997049
_cell_length_b 17.800272
_cell_length_c 7.804295
_cell_angle_alpha 90.000000
_cell_angle_beta 90.000000
_cell_angle_gamma 90.000000
_cell_volume 1249.857215
_symmetry_space_group_name_H-M "A B A 2"
_symmetry_group_IT_number 41
_symmetry_cell_setting 'orthorhombic'
loop_
_space_group_symop_operation_xyz
x,y,z
-x,-y,z
1/2-x,y,1/2+z
1/2+x,-y,1/2+z
x,1/2+y,1/2+z
-x,1/2-y,1/2+z
1/2-x,1/2+y,z
1/2+x,1/2-y,z
loop_
_atom_site_type_symbol
_atom_site_label
_atom_site_fract_x
_atom_site_fract_y
_atom_site_fract_z
Si Si1 0.000000 0.000000 0.653630
Si Si2 0.004631 0.391075 0.931677
Si Si3 0.940520 0.879534 0.918076
Si Si4 0.271259 0.366167 0.128769
Si Si5 0.295317 0.699417 0.231232
O O1 0.090435 0.046477 0.810382
O O2 0.100009 0.042946 0.488006
O O3 0.125985 0.392160 0.783558
O O4 0.907704 0.317244 0.891191
O O5 0.113471 0.408642 0.101743
O O6 0.870598 0.815863 0.795341
O O7 0.857828 0.861076 0.096765
O O8 0.113474 0.870182 0.970493
O O9 0.210862 0.281603 0.151447
#
# Coordination Sequence:
#
# PCOD9367945 Si02
#       5
#     4   8   8   8   8
#     4  12  28  50  72 110 156 210 264 292 380 466
#     4  11  27  46  75 108 153 204 247 318 375 463
#     4  11  27  46  75 108 153 204 247 318 375 463
#     4  11  26  48  76 112 148 193 256 324 395 445
#     4  11  26  48  76 112 148 193 256 324 395 445
#
# _framework density 28.803291000000002
#
# number of rings (size 3 to 8) (size 9 to 14) (size 15 to 20)
#    0.000    0.889    0.000    4.000    0.000   32.000 
#    0.000    0.000    0.000    0.000    0.000    0.000 
#    0.000    0.000    0.000    0.000    0.000    0.000 
#
# Total GULP energy -100241.508956 kJ/mol
# GULP energy per Si atom -5568.972720 kJ/mol
# Density = 2.873773 g / cm^3
# Si number density = 28.803291 Si / 1000 Ang^3
#
#
#
# Elastic Constant Matrix: (Units=GPa)
#
#
# Indices 1 2 3 4 5 6 
#
# 1 186.2072 60.7212 79.0358 0.0000 0.0000 0.0000
# 2 60.7212 148.7099 41.2409 0.0000 0.0000 0.0000
# 3 79.0358 41.2409 157.0726 0.0000 0.0000 0.0000
# 4 0.0000 0.0000 0.0000 61.2480 0.0000 0.0000
# 5 0.0000 0.0000 0.0000 0.0000 68.9167 0.0000
# 6 0.0000 0.0000 0.0000 0.0000 0.0000 38.0817
#
#
#
# Elastic Compliance Matrix: (Units=1/GPa)
#
#
# Indices 1 2 3 4 5 6 
#
# 1 0.007416 -0.002150 -0.003167 0.000000 0.000000 0.000000
# 2 -0.002150 0.007876 -0.000986 0.000000 0.000000 0.000000
# 3 -0.003167 -0.000986 0.008219 0.000000 0.000000 0.000000
# 4 0.000000 0.000000 0.000000 0.016327 0.000000 0.000000
# 5 0.000000 0.000000 0.000000 0.000000 0.014510 0.000000
# 6 0.000000 0.000000 0.000000 0.000000 0.000000 0.026259
#
#
# Mechanical properties :
#
#
# Convention : Reuss Voigt Hill
#
# Bulk Modulus (GPa) = 91.70371 94.88729 93.29550
# Shear Modulus (GPa) = 51.62761 54.38208 53.00485
#
# Velocity S-wave (km/s) = 4.23829 4.34988 4.29445
# Velocity P-wave (km/s) = 7.47381 7.63174 7.55319
#
# Compressibility (1/GPa) = 0.01090468
#
# Stress axis : x y z
#
# Youngs Moduli (GPa) = 134.85147 126.97216 121.66978
#
# Poissons Ratio (x) = 0.27295 0.38532
# Poissons Ratio (y) = 0.28988 0.11999
# Poissons Ratio (z) = 0.42707 0.12522
#
# Static dielectric constant tensor:
#      x y z
#    x 2.323070 0.000000 0.000000 
#    y 0.000000 3.548480 0.000000 
#    z 0.000000 0.000000 2.455260 
# 
# From -- ./inp_files/1662.got.cif
#   From: 2010.05.17/outbox.cif.g08.bks.cpg/sg41_1_cif.got.tgz:1662.got - 2010.06.03 18:54:24.
