data_PCOD9367981
_publ_section_title
;
Structure prediction by ZEFSAII (Michael W. Deem and Ramdas Pophale) SiO2 
 PCOD9367981
Probable space group: A B A 2
;
_chemical_formula_sum "Si O2"
_cell_formula_units_Z 48
_cell_length_a 9.364701
_cell_length_b 12.846778
_cell_length_c 17.404529
_cell_angle_alpha 90.000000
_cell_angle_beta 90.000000
_cell_angle_gamma 90.000000
_cell_volume 2093.873352
_symmetry_space_group_name_H-M "A B A 2"
_symmetry_group_IT_number 41
_symmetry_cell_setting 'orthorhombic'
loop_
_space_group_symop_operation_xyz
x,y,z
-x,-y,z
1/2-x,y,1/2+z
1/2+x,-y,1/2+z
x,1/2+y,1/2+z
-x,1/2-y,1/2+z
1/2-x,1/2+y,z
1/2+x,1/2-y,z
loop_
_atom_site_type_symbol
_atom_site_label
_atom_site_fract_x
_atom_site_fract_y
_atom_site_fract_z
Si Si1 0.000000 0.500000 0.886210
Si Si2 0.321436 0.876917 0.605109
Si Si3 0.527867 0.212698 0.042434
Si Si4 0.786498 0.125162 0.285390
Si Si5 0.706364 0.931494 0.018222
Si Si6 0.500000 0.000000 0.324665
Si Si7 0.133026 0.205892 0.900486
O O1 0.925414 0.577133 0.825750
O O2 0.868724 0.488727 0.946540
O O3 0.178258 0.819047 0.576923
O O4 0.458826 0.819004 0.571594
O O5 0.322011 0.864814 0.696193
O O6 0.302115 0.991633 0.568525
O O7 0.418886 0.121045 0.067270
O O8 0.529808 0.217170 0.949018
O O9 0.644961 0.051191 0.288320
O O10 0.776320 0.233020 0.335577
O O11 0.782481 0.838140 0.973844
O O12 0.442436 0.102657 0.368559
#
# Coordination Sequence:
#
# PCOD9367981 Si02
#       7
#     4   8   8   8   8   4   8
#     4  12  24  51  75 104 146 210 260 318 386 481
#     4  12  29  46  74 113 155 197 251 325 398 456
#     4  12  25  48  76 104 147 200 252 315 381 468
#     4  12  30  47  75 114 160 203 261 333 403 465
#     4  12  23  46  77 105 145 198 260 306 376 461
#     4  12  28  45  79 112 152 206 266 324 396 473
#     4  12  25  47  80 113 149 205 272 319 383 483
#
# _framework density 22.924022999999998
#
# number of rings (size 3 to 8) (size 9 to 14) (size 15 to 20)
#    0.000    0.000    6.667    2.000    4.667    1.333 
#    0.000    0.000    0.000    0.000    0.000    0.000 
#    0.000    0.000    0.000    0.000    0.000    0.000 
#
# Total GULP energy -133821.971862 kJ/mol
# GULP energy per Si atom -5575.915494 kJ/mol
# Density = 2.287185 g / cm^3
# Si number density = 22.924023 Si / 1000 Ang^3
#
#
#
# Elastic Constant Matrix: (Units=GPa)
#
#
# Indices 1 2 3 4 5 6 
#
# 1 71.5936 34.8506 33.9309 0.0000 0.0000 0.0000
# 2 34.8506 113.1022 55.1763 0.0000 0.0000 0.0000
# 3 33.9309 55.1763 157.8393 0.0000 0.0000 0.0000
# 4 0.0000 0.0000 0.0000 15.8697 0.0000 0.0000
# 5 0.0000 0.0000 0.0000 0.0000 16.8014 0.0000
# 6 0.0000 0.0000 0.0000 0.0000 0.0000 55.1686
#
#
#
# Elastic Compliance Matrix: (Units=1/GPa)
#
#
# Indices 1 2 3 4 5 6 
#
# 1 0.017046 -0.004177 -0.002204 0.000000 0.000000 0.000000
# 2 -0.004177 0.011683 -0.003186 0.000000 0.000000 0.000000
# 3 -0.002204 -0.003186 0.007923 0.000000 0.000000 0.000000
# 4 0.000000 0.000000 0.000000 0.063013 0.000000 0.000000
# 5 0.000000 0.000000 0.000000 0.000000 0.059519 0.000000
# 6 0.000000 0.000000 0.000000 0.000000 0.000000 0.018126
#
#
# Mechanical properties :
#
#
# Convention : Reuss Voigt Hill
#
# Bulk Modulus (GPa) = 57.08679 65.60566 61.34622
# Shear Modulus (GPa) = 24.71775 32.13976 28.42875
#
# Velocity S-wave (km/s) = 3.28723 3.74841 3.52537
# Velocity P-wave (km/s) = 6.27411 6.88585 6.58709
#
# Compressibility (1/GPa) = 0.01751719
#
# Stress axis : x y z
#
# Youngs Moduli (GPa) = 58.66591 85.59463 126.21223
#
# Poissons Ratio (x) = 0.35753 0.27819
# Poissons Ratio (y) = 0.24505 0.40213
# Poissons Ratio (z) = 0.12931 0.27271
#
# Static dielectric constant tensor:
#      x y z
#    x 2.036120 0.000000 0.000000 
#    y 0.000000 2.034340 0.000000 
#    z 0.000000 0.000000 1.816170 
# 
# From -- ./inp_files/9683.got.cif
#   From: 2010.05.17/outbox.cif.g08.bks.cpg/sg41_5_cif.got.tgz:9683.got - 2010.06.03 18:54:24.
