data_PCOD9367476
_publ_section_title
;
Structure prediction by ZEFSAII (Michael W. Deem and Ramdas Pophale) SiO2 
 PCOD9367476
Probable space group: A B A 2
;
_chemical_formula_sum "Si O2"
_cell_formula_units_Z 60
_cell_length_a 16.611496
_cell_length_b 15.685341
_cell_length_c 9.113109
_cell_angle_alpha 90.000000
_cell_angle_beta 90.000000
_cell_angle_gamma 90.000000
_cell_volume 2374.484153
_symmetry_space_group_name_H-M "A B A 2"
_symmetry_group_IT_number 41
_symmetry_cell_setting 'orthorhombic'
loop_
_space_group_symop_operation_xyz
x,y,z
-x,-y,z
1/2-x,y,1/2+z
1/2+x,-y,1/2+z
x,1/2+y,1/2+z
-x,1/2-y,1/2+z
1/2-x,1/2+y,z
1/2+x,1/2-y,z
loop_
_atom_site_type_symbol
_atom_site_label
_atom_site_fract_x
_atom_site_fract_y
_atom_site_fract_z
Si Si1 0.569048 0.370005 0.861290
Si Si2 0.679031 0.268247 0.657830
Si Si3 0.000000 0.500000 0.737749
Si Si4 0.304625 0.070705 0.947209
Si Si5 0.090005 0.928641 0.788459
Si Si6 0.262064 0.332177 0.893454
Si Si7 0.841189 0.431437 0.613105
Si Si8 0.589526 0.586490 0.464632
O O1 0.599827 0.299090 0.746935
O O2 0.474018 0.378115 0.890281
O O3 0.586621 0.468539 0.807309
O O4 0.622395 0.357550 0.008773
O O5 0.694247 0.346972 0.548674
O O6 0.690380 0.191168 0.542496
O O7 0.744511 0.246128 0.782649
O O8 0.079385 0.513837 0.643621
O O9 0.022501 0.417819 0.838753
O O10 0.226350 0.024321 0.014106
O O11 0.304445 0.084439 0.773365
O O12 0.380478 0.011374 0.973680
O O13 0.180285 0.896183 0.806145
O O14 0.060607 0.897083 0.627689
O O15 0.171197 0.364633 0.923636
#
# Coordination Sequence:
#
# PCOD9367476 Si02
#       8
#     8   8   4   8   8   8   8   8
#     4  11  24  46  81 106 150 191 263 303 385 434
#     4  12  26  48  68 109 144 203 235 314 371 466
#     4  10  24  40  72 112 152 174 258 312 386 414
#     4  11  24  43  77 104 144 188 262 297 371 433
#     4  11  24  48  78 112 143 201 257 317 366 457
#     4  12  27  46  74 108 159 188 257 302 393 446
#     4  11  23  41  68 115 138 185 238 323 361 438
#     4  11  24  45  75 112 144 200 248 324 358 454
#
# _framework density 25.268644999999999
#
# number of rings (size 3 to 8) (size 9 to 14) (size 15 to 20)
#    0.000    0.800    2.667    4.800    5.600    3.200 
#    2.400    0.000    0.000    0.000    0.000    0.000 
#    0.000    0.000    0.000    0.000    0.000    0.000 
#
# Total GULP energy -167519.326881 kJ/mol
# GULP energy per Si atom -5583.977563 kJ/mol
# Density = 2.521113 g / cm^3
# Si number density = 25.268645 Si / 1000 Ang^3
#
#
#
# Elastic Constant Matrix: (Units=GPa)
#
#
# Indices 1 2 3 4 5 6 
#
# 1 123.8321 33.8872 37.6128 0.0000 0.0000 0.0000
# 2 33.8872 57.4738 10.6198 0.0000 0.0000 0.0000
# 3 37.6128 10.6198 150.3236 0.0000 0.0000 0.0000
# 4 0.0000 0.0000 0.0000 32.2394 0.0000 0.0000
# 5 0.0000 0.0000 0.0000 0.0000 45.0364 0.0000
# 6 0.0000 0.0000 0.0000 0.0000 0.0000 36.3808
#
#
#
# Elastic Compliance Matrix: (Units=1/GPa)
#
#
# Indices 1 2 3 4 5 6 
#
# 1 0.010285 -0.005663 -0.002173 0.000000 0.000000 0.000000
# 2 -0.005663 0.020747 -0.000049 0.000000 0.000000 0.000000
# 3 -0.002173 -0.000049 0.007200 0.000000 0.000000 0.000000
# 4 0.000000 0.000000 0.000000 0.031018 0.000000 0.000000
# 5 0.000000 0.000000 0.000000 0.000000 0.022204 0.000000
# 6 0.000000 0.000000 0.000000 0.000000 0.000000 0.027487
#
#
# Mechanical properties :
#
#
# Convention : Reuss Voigt Hill
#
# Bulk Modulus (GPa) = 44.51976 55.09657 49.80816
# Shear Modulus (GPa) = 35.16218 39.36531 37.26375
#
# Velocity S-wave (km/s) = 3.73437 3.95127 3.84435
# Velocity P-wave (km/s) = 6.02087 6.53210 6.28169
#
# Compressibility (1/GPa) = 0.02246194
#
# Stress axis : x y z
#
# Youngs Moduli (GPa) = 97.22686 48.19970 138.89681
#
# Poissons Ratio (x) = 0.27294 0.30188
# Poissons Ratio (y) = 0.55056 0.00678
# Poissons Ratio (z) = 0.21132 0.00235
#
# Static dielectric constant tensor:
#      x y z
#    x 2.026750 0.000000 0.000000 
#    y 0.000000 2.068520 0.000000 
#    z 0.000000 0.000000 2.072080 
# 
# From -- ./inp_files/3148.got.cif
#   From: 2010.05.17/outbox.cif.g08.bks.cpg/sg41_2_cif.got.tgz:3148.got - 2010.06.03 18:54:24.
