data_PCOD9367398
_publ_section_title
;
Structure prediction by ZEFSAII (Michael W. Deem and Ramdas Pophale) SiO2 
 PCOD9367398
Probable space group: A B A 2
;
_chemical_formula_sum "Si O2"
_cell_formula_units_Z 48
_cell_length_a 14.194901
_cell_length_b 8.772990
_cell_length_c 17.824428
_cell_angle_alpha 90.000000
_cell_angle_beta 90.000000
_cell_angle_gamma 90.000000
_cell_volume 2219.706757
_symmetry_space_group_name_H-M "A B A 2"
_symmetry_group_IT_number 41
_symmetry_cell_setting 'orthorhombic'
loop_
_space_group_symop_operation_xyz
x,y,z
-x,-y,z
1/2-x,y,1/2+z
1/2+x,-y,1/2+z
x,1/2+y,1/2+z
-x,1/2-y,1/2+z
1/2-x,1/2+y,z
1/2+x,1/2-y,z
loop_
_atom_site_type_symbol
_atom_site_label
_atom_site_fract_x
_atom_site_fract_y
_atom_site_fract_z
Si Si1 0.000000 0.000000 0.557461
Si Si2 0.351528 0.680009 0.924174
Si Si3 0.128134 0.097864 0.268419
Si Si4 0.856010 0.953829 0.435790
Si Si5 0.169091 0.237380 0.756949
Si Si6 0.515120 0.735516 0.149093
Si Si7 0.000000 0.000000 0.026031
O O1 0.043346 0.867577 0.608249
O O2 0.924591 0.918882 0.503961
O O3 0.248014 0.614516 0.942140
O O4 0.366891 0.662968 0.834667
O O5 0.351688 0.862200 0.935134
O O6 0.427095 0.591479 0.974203
O O7 0.102869 0.108459 0.356766
O O8 0.221877 0.194608 0.252498
O O9 0.046901 0.154963 0.213313
O O10 0.155054 0.920258 0.258524
O O11 0.104891 0.187128 0.688021
O O12 0.546464 0.617049 0.085223
#
# Coordination Sequence:
#
# PCOD9367398 Si02
#       7
#     4   8   8   8   8   8   4
#     4  12  28  42  64 106 138 176 222 278 346 396
#     4  10  24  44  70  98 131 178 230 273 330 399
#     4  10  23  44  71  94 131 176 227 270 332 396
#     4  10  24  45  69  97 132 180 225 277 329 399
#     4  10  23  45  67  97 129 178 223 275 326 399
#     4  12  26  43  66 100 139 177 218 276 344 397
#     4  12  24  44  66 102 138 178 220 276 344 398
#
# _framework density 21.624479999999998
#
# number of rings (size 3 to 8) (size 9 to 14) (size 15 to 20)
#    0.000    1.333    3.333    0.000    9.333    3.333 
#    6.000    0.000    0.000    0.000    0.000    0.000 
#    0.000    0.000    0.000    0.000    0.000    0.000 
#
# Total GULP energy -134140.962223 kJ/mol
# GULP energy per Si atom -5589.206759 kJ/mol
# Density = 2.157526 g / cm^3
# Si number density = 21.624480 Si / 1000 Ang^3
#
#
#
# Elastic Constant Matrix: (Units=GPa)
#
#
# Indices 1 2 3 4 5 6 
#
# 1 78.0845 47.3915 58.9244 0.0000 0.0000 0.0000
# 2 47.3915 79.5565 65.5049 0.0000 0.0000 0.0000
# 3 58.9244 65.5049 113.6952 0.0000 0.0000 0.0000
# 4 0.0000 0.0000 0.0000 -67.4586 0.0000 0.0000
# 5 0.0000 0.0000 0.0000 0.0000 -109.9710 0.0000
# 6 0.0000 0.0000 0.0000 0.0000 0.0000 36.2702
#
#
#
# Elastic Compliance Matrix: (Units=1/GPa)
#
#
# Indices 1 2 3 4 5 6 
#
# 1 0.023135 -0.007437 -0.007705 0.000000 0.000000 0.000000
# 2 -0.007437 0.026305 -0.011301 0.000000 0.000000 0.000000
# 3 -0.007705 -0.011301 0.019300 0.000000 0.000000 0.000000
# 4 0.000000 0.000000 0.000000 -0.014824 0.000000 0.000000
# 5 0.000000 0.000000 0.000000 0.000000 -0.009093 0.000000
# 6 0.000000 0.000000 0.000000 0.000000 0.000000 0.027571
#
#
# Mechanical properties :
#
#
# Convention : Reuss Voigt Hill
#
# Bulk Modulus (GPa) = 63.07963 68.33087 65.70525
# Shear Modulus (GPa) = 38.29526 -21.59751 8.34887
#
# Velocity S-wave (km/s) = 4.21280 -3.16373 1.96703
# Velocity P-wave (km/s) = 7.27306 4.28040 5.96738
#
# Compressibility (1/GPa) = 0.01585298
#
# Stress axis : x y z
#
# Youngs Moduli (GPa) = 43.22464 38.01565 51.81388
#
# Poissons Ratio (x) = 0.28273 0.39924
# Poissons Ratio (y) = 0.32147 0.58555
# Poissons Ratio (z) = 0.33305 0.42962
#
# Static dielectric constant tensor:
#      x y z
#    x 1.753620 0.000000 0.000000 
#    y 0.000000 1.816580 0.000000 
#    z 0.000000 0.000000 1.833470 
# 
# From -- ./inp_files/10322.got.cif
#   From: 2010.05.17/outbox.cif.g08.bks.cpg/sg41_6_cif.got.tgz:10322.got - 2010.06.03 18:54:24.
