data_PCOD9367941
_publ_section_title
;
Structure prediction by ZEFSAII (Michael W. Deem and Ramdas Pophale) SiO2 
 PCOD9367941
Probable space group: A B A 2
;
_chemical_formula_sum "Si O2"
_cell_formula_units_Z 56
_cell_length_a 9.140148
_cell_length_b 20.326391
_cell_length_c 13.889470
_cell_angle_alpha 90.000000
_cell_angle_beta 90.000000
_cell_angle_gamma 90.000000
_cell_volume 2580.472158
_symmetry_space_group_name_H-M "A B A 2"
_symmetry_group_IT_number 41
_symmetry_cell_setting 'orthorhombic'
loop_
_space_group_symop_operation_xyz
x,y,z
-x,-y,z
1/2-x,y,1/2+z
1/2+x,-y,1/2+z
x,1/2+y,1/2+z
-x,1/2-y,1/2+z
1/2-x,1/2+y,z
1/2+x,1/2-y,z
loop_
_atom_site_type_symbol
_atom_site_label
_atom_site_fract_x
_atom_site_fract_y
_atom_site_fract_z
Si Si1 0.451566 0.192586 0.554940
Si Si2 0.818272 0.687012 0.311795
Si Si3 0.749747 0.570075 0.459357
Si Si4 0.000000 0.000000 0.364035
Si Si5 0.000000 0.500000 0.570914
Si Si6 0.214319 0.823378 0.589668
Si Si7 0.130800 0.095813 0.220643
Si Si8 0.156060 0.676217 0.350194
O O1 0.625946 0.191562 0.545174
O O2 0.396596 0.266823 0.560826
O O3 0.414389 0.157740 0.655692
O O4 0.369217 0.160349 0.463369
O O5 0.773662 0.624727 0.376844
O O6 0.768367 0.674290 0.203213
O O7 0.750178 0.756684 0.343955
O O8 0.993743 0.691707 0.312500
O O9 0.648138 0.511663 0.422427
O O10 0.903085 0.546481 0.503536
O O11 0.666727 0.607708 0.545291
O O12 0.021795 0.065412 0.299807
O O13 0.883203 0.462032 0.639751
O O14 0.269736 0.120479 0.282974
#
# Coordination Sequence:
#
# PCOD9367941 Si02
#       8
#     8   8   8   4   4   8   8   8
#     4  12  23  46  71 109 144 186 228 308 371 429
#     4  12  26  45  73 113 146 188 237 313 364 448
#     4  12  27  49  72 104 145 194 252 297 359 438
#     4  11  30  46  73 102 148 209 240 298 349 450
#     4  11  26  52  75  94 154 207 238 298 357 434
#     4  12  25  44  73 105 147 180 236 301 372 426
#     4  11  26  47  74 104 147 193 242 289 370 432
#     4  12  25  44  76 112 146 184 240 301 382 430
#
# _framework density 21.701454999999999
#
# number of rings (size 3 to 8) (size 9 to 14) (size 15 to 20)
#    0.000    0.286    5.714    1.714    8.000    2.286 
#    0.000    0.714    0.000    0.000    0.000    0.000 
#    0.000    0.000    0.000    0.000    0.000    0.000 
#
# Total GULP energy -156400.610595 kJ/mol
# GULP energy per Si atom -5585.736093 kJ/mol
# Density = 2.165206 g / cm^3
# Si number density = 21.701455 Si / 1000 Ang^3
#
#
#
# Elastic Constant Matrix: (Units=GPa)
#
#
# Indices 1 2 3 4 5 6 
#
# 1 107.5341 44.6343 48.3741 0.0000 0.0000 0.0000
# 2 44.6343 91.3520 40.1622 0.0000 0.0000 0.0000
# 3 48.3741 40.1622 129.8186 0.0000 0.0000 0.0000
# 4 0.0000 0.0000 0.0000 38.4741 0.0000 0.0000
# 5 0.0000 0.0000 0.0000 0.0000 27.3973 0.0000
# 6 0.0000 0.0000 0.0000 0.0000 0.0000 41.6015
#
#
#
# Elastic Compliance Matrix: (Units=1/GPa)
#
#
# Indices 1 2 3 4 5 6 
#
# 1 0.012762 -0.004797 -0.003271 0.000000 0.000000 0.000000
# 2 -0.004797 0.014473 -0.002690 0.000000 0.000000 0.000000
# 3 -0.003271 -0.002690 0.009754 0.000000 0.000000 0.000000
# 4 0.000000 0.000000 0.000000 0.025992 0.000000 0.000000
# 5 0.000000 0.000000 0.000000 0.000000 0.036500 0.000000
# 6 0.000000 0.000000 0.000000 0.000000 0.000000 0.024038
#
#
# Mechanical properties :
#
#
# Convention : Reuss Voigt Hill
#
# Bulk Modulus (GPa) = 64.63160 66.11619 65.37389
# Shear Modulus (GPa) = 33.29034 34.53020 33.91027
#
# Velocity S-wave (km/s) = 3.92090 3.99325 3.95724
# Velocity P-wave (km/s) = 7.09540 7.19679 7.14627
#
# Compressibility (1/GPa) = 0.01547231
#
# Stress axis : x y z
#
# Youngs Moduli (GPa) = 78.35604 69.09291 102.51903
#
# Poissons Ratio (x) = 0.33146 0.33538
# Poissons Ratio (y) = 0.37590 0.27578
# Poissons Ratio (z) = 0.25634 0.18586
#
# Static dielectric constant tensor:
#      x y z
#    x 1.766740 0.000000 0.000000 
#    y 0.000000 1.807090 0.000000 
#    z 0.000000 0.000000 1.851850 
# 
# From -- ./inp_files/7497.got.cif
#   From: 2010.05.17/outbox.cif.g08.bks.cpg/sg41_4_cif.got.tgz:7497.got - 2010.06.03 18:54:24.
