data_PCOD9367837
_publ_section_title
;
Structure prediction by ZEFSAII (Michael W. Deem and Ramdas Pophale) SiO2 
 PCOD9367837
Probable space group: A B A 2
;
_chemical_formula_sum "Si O2"
_cell_formula_units_Z 32
_cell_length_a 9.524311
_cell_length_b 14.078962
_cell_length_c 8.860089
_cell_angle_alpha 90.000000
_cell_angle_beta 90.000000
_cell_angle_gamma 90.000000
_cell_volume 1188.070710
_symmetry_space_group_name_H-M "A B A 2"
_symmetry_group_IT_number 41
_symmetry_cell_setting 'orthorhombic'
loop_
_space_group_symop_operation_xyz
x,y,z
-x,-y,z
1/2-x,y,1/2+z
1/2+x,-y,1/2+z
x,1/2+y,1/2+z
-x,1/2-y,1/2+z
1/2-x,1/2+y,z
1/2+x,1/2-y,z
loop_
_atom_site_type_symbol
_atom_site_label
_atom_site_fract_x
_atom_site_fract_y
_atom_site_fract_z
Si Si1 0.685709 0.298909 0.553290
Si Si2 0.341624 0.011817 0.475943
Si Si3 0.053071 0.262029 0.252153
Si Si4 0.890420 0.567193 0.801663
O O1 0.765178 0.385885 0.468378
O O2 0.562352 0.329268 0.671401
O O3 0.810170 0.247198 0.645900
O O4 0.605406 0.237684 0.425265
O O5 0.500000 0.000000 0.418341
O O6 0.246979 0.932467 0.399286
O O7 0.349467 0.990088 0.652648
O O8 0.964505 0.163322 0.254952
O O9 0.000000 0.500000 0.887987
#
# Coordination Sequence:
#
# PCOD9367837 Si02
#       4
#     8   8   8   8
#     4  12  25  50  76 115 161 207 263 327 410 478
#     4  11  23  48  80 109 153 208 270 327 388 483
#     4  12  27  50  78 114 161 206 265 332 405 482
#     4  11  23  47  76 112 148 205 269 329 393 467
#
# _framework density 26.934425000000001
#
# number of rings (size 3 to 8) (size 9 to 14) (size 15 to 20)
#    0.000    0.500    7.500    1.500    0.000    5.000 
#   13.500    0.000    0.000    0.000    0.000    0.000 
#    0.000    0.000    0.000    0.000    0.000    0.000 
#
# Total GULP energy -89630.008072 kJ/mol
# GULP energy per Si atom -5601.875505 kJ/mol
# Density = 2.687312 g / cm^3
# Si number density = 26.934425 Si / 1000 Ang^3
#
#
#
# Elastic Constant Matrix: (Units=GPa)
#
#
# Indices 1 2 3 4 5 6 
#
# 1 234.4791 33.6031 86.2010 0.0000 0.0000 0.0000
# 2 33.6031 65.4405 20.9604 0.0000 0.0000 0.0000
# 3 86.2010 20.9604 119.8231 0.0000 0.0000 0.0000
# 4 0.0000 0.0000 0.0000 32.0180 0.0000 0.0000
# 5 0.0000 0.0000 0.0000 0.0000 66.5874 0.0000
# 6 0.0000 0.0000 0.0000 0.0000 0.0000 28.4935
#
#
#
# Elastic Compliance Matrix: (Units=1/GPa)
#
#
# Indices 1 2 3 4 5 6 
#
# 1 0.005991 -0.001797 -0.003996 0.000000 0.000000 0.000000
# 2 -0.001797 0.016727 -0.001634 0.000000 0.000000 0.000000
# 3 -0.003996 -0.001634 0.011506 0.000000 0.000000 0.000000
# 4 0.000000 0.000000 0.000000 0.031232 0.000000 0.000000
# 5 0.000000 0.000000 0.000000 0.000000 0.015018 0.000000
# 6 0.000000 0.000000 0.000000 0.000000 0.000000 0.035096
#
#
# Mechanical properties :
#
#
# Convention : Reuss Voigt Hill
#
# Bulk Modulus (GPa) = 51.62048 77.91908 64.76978
# Shear Modulus (GPa) = 36.52856 44.01834 40.27345
#
# Velocity S-wave (km/s) = 3.68666 4.04701 3.87103
# Velocity P-wave (km/s) = 6.10973 7.12949 6.63922
#
# Compressibility (1/GPa) = 0.01937215
#
# Stress axis : x y z
#
# Youngs Moduli (GPa) = 166.91105 59.78434 86.91130
#
# Poissons Ratio (x) = 0.10741 0.34728
# Poissons Ratio (y) = 0.29987 0.14197
# Poissons Ratio (z) = 0.66695 0.09766
#
# Static dielectric constant tensor:
#      x y z
#    x 2.101390 0.000000 0.000000 
#    y 0.000000 2.128110 0.000000 
#    z 0.000000 0.000000 2.062810 
# 
# From -- ./inp_files/4326.got.cif
#   From: 2010.05.17/outbox.cif.g08.bks.cpg/sg41_3_cif.got.tgz:4326.got - 2010.06.03 18:54:24.
