data_PCOD9367647
_publ_section_title
;
Structure prediction by ZEFSAII (Michael W. Deem and Ramdas Pophale) SiO2 
 PCOD9367647
Probable space group: A B A 2
;
_chemical_formula_sum "Si O2"
_cell_formula_units_Z 56
_cell_length_a 16.010454
_cell_length_b 10.286960
_cell_length_c 14.950368
_cell_angle_alpha 90.000000
_cell_angle_beta 90.000000
_cell_angle_gamma 90.000000
_cell_volume 2462.309162
_symmetry_space_group_name_H-M "A B A 2"
_symmetry_group_IT_number 41
_symmetry_cell_setting 'orthorhombic'
loop_
_space_group_symop_operation_xyz
x,y,z
-x,-y,z
1/2-x,y,1/2+z
1/2+x,-y,1/2+z
x,1/2+y,1/2+z
-x,1/2-y,1/2+z
1/2-x,1/2+y,z
1/2+x,1/2-y,z
loop_
_atom_site_type_symbol
_atom_site_label
_atom_site_fract_x
_atom_site_fract_y
_atom_site_fract_z
Si Si1 0.317345 0.888763 0.891130
Si Si2 0.642306 0.192672 0.426932
Si Si3 0.078846 0.420733 0.732952
Si Si4 0.927388 0.396264 0.213567
Si Si5 0.961392 0.817694 0.897443
Si Si6 0.194355 0.089091 0.554484
Si Si7 0.380652 0.554759 0.047868
O O1 0.232454 0.806079 0.879948
O O2 0.340908 0.951530 0.796019
O O3 0.400012 0.802833 0.899727
O O4 0.311903 0.973394 0.981284
O O5 0.556897 0.211194 0.373216
O O6 0.644573 0.297022 0.505706
O O7 0.637843 0.054842 0.474901
O O8 0.063195 0.264648 0.713322
O O9 0.095516 0.489112 0.639186
O O10 0.000000 0.500000 0.772425
O O11 0.922634 0.411937 0.321407
O O12 0.000000 0.500000 0.185642
O O13 0.848929 0.430645 0.150495
O O14 0.954000 0.866831 0.999232
O O15 0.292109 0.127412 0.561063
#
# Coordination Sequence:
#
# PCOD9367647 Si02
#       7
#     8   8   8   8   8   8   8
#     4  10  26  45  69 104 144 185 238 296 359 425
#     4  11  22  44  70 100 140 190 231 296 359 427
#     4  11  25  46  70 106 143 189 241 297 360 426
#     4  11  26  46  69 107 141 186 242 296 351 434
#     4  11  24  45  77 100 143 190 240 288 367 433
#     4  11  25  42  70 102 146 182 240 299 360 419
#     4  11  23  44  70 102 138 189 236 296 360 426
#
# _framework density 22.742878999999999
#
# number of rings (size 3 to 8) (size 9 to 14) (size 15 to 20)
#    0.000    1.143    2.857    2.143    6.000    3.429 
#    0.000    0.000    0.000    0.000    0.000    0.000 
#    0.000    0.000    0.000    0.000    0.000    0.000 
#
# Total GULP energy -156019.021853 kJ/mol
# GULP energy per Si atom -5572.107923 kJ/mol
# Density = 2.269112 g / cm^3
# Si number density = 22.742879 Si / 1000 Ang^3
#
#
#
# Elastic Constant Matrix: (Units=GPa)
#
#
# Indices 1 2 3 4 5 6 
#
# 1 136.4079 29.1473 50.1032 0.0000 0.0000 0.0000
# 2 29.1473 49.2320 11.8439 0.0000 0.0000 0.0000
# 3 50.1032 11.8439 128.2510 0.0000 0.0000 0.0000
# 4 0.0000 0.0000 0.0000 26.9034 0.0000 0.0000
# 5 0.0000 0.0000 0.0000 0.0000 -25.5608 0.0000
# 6 0.0000 0.0000 0.0000 0.0000 0.0000 29.3293
#
#
#
# Elastic Compliance Matrix: (Units=1/GPa)
#
#
# Indices 1 2 3 4 5 6 
#
# 1 0.009584 -0.004882 -0.003293 0.000000 0.000000 0.000000
# 2 -0.004882 0.023260 -0.000241 0.000000 0.000000 0.000000
# 3 -0.003293 -0.000241 0.009106 0.000000 0.000000 0.000000
# 4 0.000000 0.000000 0.000000 0.037170 0.000000 0.000000
# 5 0.000000 0.000000 0.000000 0.000000 -0.039122 0.000000
# 6 0.000000 0.000000 0.000000 0.000000 0.000000 0.034096
#
#
# Mechanical properties :
#
#
# Convention : Reuss Voigt Hill
#
# Bulk Modulus (GPa) = 39.81189 55.11998 47.46593
# Shear Modulus (GPa) = 50.35384 20.98747 35.67065
#
# Velocity S-wave (km/s) = 4.71047 3.04108 3.96464
# Velocity P-wave (km/s) = 6.86498 6.05142 6.47100
#
# Compressibility (1/GPa) = 0.02511812
#
# Stress axis : x y z
#
# Youngs Moduli (GPa) = 104.34430 42.99211 109.81771
#
# Poissons Ratio (x) = 0.20987 0.36165
# Poissons Ratio (y) = 0.50937 0.02646
# Poissons Ratio (z) = 0.34362 0.01036
#
# Static dielectric constant tensor:
#      x y z
#    x 1.942240 0.000000 0.000000 
#    y 0.000000 1.928130 0.000000 
#    z 0.000000 0.000000 1.900780 
# 
# From -- ./inp_files/8379.got.cif
#   From: 2010.05.17/outbox.cif.g08.bks.cpg/sg41_5_cif.got.tgz:8379.got - 2010.06.03 18:54:24.
