data_PCOD9367487
_publ_section_title
;
Structure prediction by ZEFSAII (Michael W. Deem and Ramdas Pophale) SiO2 
 PCOD9367487
Probable space group: A B A 2
;
_chemical_formula_sum "Si O2"
_cell_formula_units_Z 60
_cell_length_a 25.032544
_cell_length_b 7.537329
_cell_length_c 12.529953
_cell_angle_alpha 90.000000
_cell_angle_beta 90.000000
_cell_angle_gamma 90.000000
_cell_volume 2364.132986
_symmetry_space_group_name_H-M "A B A 2"
_symmetry_group_IT_number 41
_symmetry_cell_setting 'orthorhombic'
loop_
_space_group_symop_operation_xyz
x,y,z
-x,-y,z
1/2-x,y,1/2+z
1/2+x,-y,1/2+z
x,1/2+y,1/2+z
-x,1/2-y,1/2+z
1/2-x,1/2+y,z
1/2+x,1/2-y,z
loop_
_atom_site_type_symbol
_atom_site_label
_atom_site_fract_x
_atom_site_fract_y
_atom_site_fract_z
Si Si1 0.000000 0.000000 0.256980
Si Si2 0.750000 0.694246 0.506981
Si Si3 0.083540 0.809246 0.100530
Si Si4 0.416460 0.809246 0.913431
Si Si5 0.439787 0.425949 0.641646
Si Si6 0.185186 0.554762 0.637134
Si Si7 0.185186 0.054762 0.376827
Si Si8 0.060213 0.925949 0.872315
O O1 0.966878 0.112488 0.164244
O O2 0.966878 0.112488 0.349717
O O3 0.767225 0.581543 0.609242
O O4 0.732775 0.581543 0.404719
O O5 0.698071 0.801155 0.546535
O O6 0.801929 0.801155 0.467426
O O7 0.094301 0.607247 0.136075
O O8 0.131309 0.944425 0.124187
O O9 0.072103 0.808483 0.974141
O O10 0.368691 0.944425 0.889774
O O11 0.405699 0.607247 0.877886
O O12 0.427897 0.808483 0.039820
O O13 0.500000 0.500000 0.635341
O O14 0.433072 0.332995 0.756980
O O15 0.188261 0.624605 0.756981
O O16 0.000000 0.000000 0.878619
#
# Coordination Sequence:
#
# PCOD9367487 Si02
#       8
#     4   8   8   8   8   8   8   8
#     4  12  24  40  68  96 136 172 210 266 316 378
#     4  10  24  42  66  96 124 160 218 270 324 386
#     4  12  24  42  66  95 132 173 217 261 324 387
#     4  12  24  42  66  95 132 173 217 261 324 387
#     4  11  24  41  60  90 129 176 218 265 308 373
#     4  11  22  43  67  94 127 166 208 270 329 382
#     4  11  22  43  67  94 127 166 208 270 329 382
#     4  11  24  41  60  90 129 176 218 265 308 373
#
# _framework density 25.379286
#
# number of rings (size 3 to 8) (size 9 to 14) (size 15 to 20)
#    0.000    0.800    4.000    3.200    0.000    0.000 
#    0.000    6.667    0.000    0.000    0.000    0.000 
#    0.000    0.000    0.000    0.000    0.000    0.000 
#
# Total GULP energy -167611.958313 kJ/mol
# GULP energy per Si atom -5587.065277 kJ/mol
# Density = 2.532152 g / cm^3
# Si number density = 25.379286 Si / 1000 Ang^3
#
#
#
# Elastic Constant Matrix: (Units=GPa)
#
#
# Indices 1 2 3 4 5 6 
#
# 1 56.1561 13.5930 15.3560 0.0000 0.0000 0.0000
# 2 13.5930 31.8400 2.7586 0.0000 0.0000 0.0000
# 3 15.3560 2.7586 209.0065 0.0000 0.0000 0.0000
# 4 0.0000 0.0000 0.0000 16.5220 0.0000 0.0000
# 5 0.0000 0.0000 0.0000 0.0000 15.2028 0.0000
# 6 0.0000 0.0000 0.0000 0.0000 0.0000 37.0306
#
#
#
# Elastic Compliance Matrix: (Units=1/GPa)
#
#
# Indices 1 2 3 4 5 6 
#
# 1 0.020247 -0.008525 -0.001375 0.000000 0.000000 0.000000
# 2 -0.008525 0.035032 0.000164 0.000000 0.000000 0.000000
# 3 -0.001375 0.000164 0.004883 0.000000 0.000000 0.000000
# 4 0.000000 0.000000 0.000000 0.060526 0.000000 0.000000
# 5 0.000000 0.000000 0.000000 0.000000 0.065777 0.000000
# 6 0.000000 0.000000 0.000000 0.000000 0.000000 0.027005
#
#
# Mechanical properties :
#
#
# Convention : Reuss Voigt Hill
#
# Bulk Modulus (GPa) = 24.57545 40.04643 32.31094
# Shear Modulus (GPa) = 20.28356 31.43741 25.86048
#
# Velocity S-wave (km/s) = 2.83011 3.52334 3.19558
# Velocity P-wave (km/s) = 4.51483 5.68905 5.13561
#
# Compressibility (1/GPa) = 0.04069101
#
# Stress axis : x y z
#
# Youngs Moduli (GPa) = 49.39016 28.54525 204.77517
#
# Poissons Ratio (x) = 0.24334 0.28158
# Poissons Ratio (y) = 0.42103 -0.03357
# Poissons Ratio (z) = 0.06791 -0.00468
#
# Static dielectric constant tensor:
#      x y z
#    x 2.035680 0.000000 0.000000 
#    y 0.000000 2.059770 0.000000 
#    z 0.000000 0.000000 1.953940 
# 
# From -- ./inp_files/6585.got.cif
#   From: 2010.05.17/outbox.cif.g08.bks.cpg/sg41_4_cif.got.tgz:6585.got - 2010.06.03 18:54:24.
