data_PCOD9367440
_publ_section_title
;
Structure prediction by ZEFSAII (Michael W. Deem and Ramdas Pophale) SiO2 
 PCOD9367440
Probable space group: A B A 2
;
_chemical_formula_sum "Si O2"
_cell_formula_units_Z 32
_cell_length_a 16.781411
_cell_length_b 12.279655
_cell_length_c 7.486719
_cell_angle_alpha 90.000000
_cell_angle_beta 90.000000
_cell_angle_gamma 90.000000
_cell_volume 1542.787716
_symmetry_space_group_name_H-M "A B A 2"
_symmetry_group_IT_number 41
_symmetry_cell_setting 'orthorhombic'
loop_
_space_group_symop_operation_xyz
x,y,z
-x,-y,z
1/2-x,y,1/2+z
1/2+x,-y,1/2+z
x,1/2+y,1/2+z
-x,1/2-y,1/2+z
1/2-x,1/2+y,z
1/2+x,1/2-y,z
loop_
_atom_site_type_symbol
_atom_site_label
_atom_site_fract_x
_atom_site_fract_y
_atom_site_fract_z
Si Si1 0.407793 0.367885 0.746220
Si Si2 0.845295 0.895042 0.675770
Si Si3 0.055216 0.204197 0.966321
Si Si4 0.166078 0.153868 0.269112
O O1 0.384000 0.491840 0.737579
O O2 0.446574 0.322205 0.561103
O O3 0.471014 0.339547 0.900195
O O4 0.332934 0.286505 0.771016
O O5 0.887154 0.802147 0.794928
O O6 0.856759 0.883054 0.465423
O O7 0.751081 0.891886 0.713320
O O8 0.098299 0.132575 0.120575
#
# Coordination Sequence:
#
# PCOD9367440 Si02
#       4
#     8   8   8   8
#     4  10  24  45  70  99 143 187 218 300 346 406
#     4  12  22  47  68 103 140 182 235 288 356 412
#     4  10  23  47  65 104 138 181 240 281 342 433
#     4  10  24  43  70 103 140 175 240 285 339 433
#
# _framework density 20.741674
#
# number of rings (size 3 to 8) (size 9 to 14) (size 15 to 20)
#    1.500    0.000    2.500    2.250    0.000    4.000 
#   13.500    0.000    0.000    0.000    0.000    0.000 
#    0.000    0.000    0.000    0.000    0.000    0.000 
#
# Total GULP energy -89212.997820 kJ/mol
# GULP energy per Si atom -5575.812364 kJ/mol
# Density = 2.069446 g / cm^3
# Si number density = 20.741674 Si / 1000 Ang^3
#
#
#
# Elastic Constant Matrix: (Units=GPa)
#
#
# Indices 1 2 3 4 5 6 
#
# 1 86.9286 17.8550 52.1009 0.0000 0.0000 0.0000
# 2 17.8550 34.8508 18.3178 0.0000 0.0000 0.0000
# 3 52.1009 18.3178 132.4774 0.0000 0.0000 0.0000
# 4 0.0000 0.0000 0.0000 19.0542 0.0000 0.0000
# 5 0.0000 0.0000 0.0000 0.0000 38.6847 0.0000
# 6 0.0000 0.0000 0.0000 0.0000 0.0000 31.1100
#
#
#
# Elastic Compliance Matrix: (Units=1/GPa)
#
#
# Indices 1 2 3 4 5 6 
#
# 1 0.015891 -0.005237 -0.005526 0.000000 0.000000 0.000000
# 2 -0.005237 0.032669 -0.002457 0.000000 0.000000 0.000000
# 3 -0.005526 -0.002457 0.010061 0.000000 0.000000 0.000000
# 4 0.000000 0.000000 0.000000 0.052482 0.000000 0.000000
# 5 0.000000 0.000000 0.000000 0.000000 0.025850 0.000000
# 6 0.000000 0.000000 0.000000 0.000000 0.000000 0.032144
#
#
# Mechanical properties :
#
#
# Convention : Reuss Voigt Hill
#
# Bulk Modulus (GPa) = 31.07454 47.86712 39.47083
# Shear Modulus (GPa) = 24.24077 28.83533 26.53805
#
# Velocity S-wave (km/s) = 3.42233 3.73260 3.58083
# Velocity P-wave (km/s) = 5.53450 6.45788 6.01394
#
# Compressibility (1/GPa) = 0.03218068
#
# Stress axis : x y z
#
# Youngs Moduli (GPa) = 62.92811 30.61052 99.39033
#
# Poissons Ratio (x) = 0.16031 0.54918
# Poissons Ratio (y) = 0.32957 0.24424
# Poissons Ratio (z) = 0.34771 0.07522
#
# Static dielectric constant tensor:
#      x y z
#    x 1.762490 0.000000 0.000000 
#    y 0.000000 1.727810 0.000000 
#    z 0.000000 0.000000 1.748100 
# 
# From -- ./inp_files/869.got.cif
#   From: 2010.05.17/outbox.cif.g08.bks.cpg/sg41_1_cif.got.tgz:869.got - 2010.06.03 18:54:24.
