data_PCOD9367497
_publ_section_title
;
Structure prediction by ZEFSAII (Michael W. Deem and Ramdas Pophale) SiO2 
 PCOD9367497
Probable space group: A B A 2
;
_chemical_formula_sum "Si O2"
_cell_formula_units_Z 64
_cell_length_a 29.401741
_cell_length_b 8.609828
_cell_length_c 11.839385
_cell_angle_alpha 90.000000
_cell_angle_beta 90.000000
_cell_angle_gamma 90.000000
_cell_volume 2997.068482
_symmetry_space_group_name_H-M "A B A 2"
_symmetry_group_IT_number 41
_symmetry_cell_setting 'orthorhombic'
loop_
_space_group_symop_operation_xyz
x,y,z
-x,-y,z
1/2-x,y,1/2+z
1/2+x,-y,1/2+z
x,1/2+y,1/2+z
-x,1/2-y,1/2+z
1/2-x,1/2+y,z
1/2+x,1/2-y,z
loop_
_atom_site_type_symbol
_atom_site_label
_atom_site_fract_x
_atom_site_fract_y
_atom_site_fract_z
Si Si1 0.475978 0.173831 0.645550
Si Si2 0.194471 0.082299 0.660195
Si Si3 0.758351 0.700284 0.039822
Si Si4 0.043045 0.407950 0.943433
Si Si5 0.905295 0.355765 0.084524
Si Si6 0.812318 0.978407 0.923131
Si Si7 0.585001 0.507733 0.013035
Si Si8 0.458636 0.144110 0.302300
O O1 0.479171 0.296267 0.540094
O O2 0.425047 0.111390 0.616852
O O3 0.494441 0.280862 0.749734
O O4 0.500000 0.000000 0.641479
O O5 0.233131 0.211463 0.642206
O O6 0.147463 0.145127 0.610644
O O7 0.187638 0.034798 0.788812
O O8 0.210295 0.935240 0.587638
O O9 0.787992 0.825556 0.973030
O O10 0.718777 0.622071 0.964355
O O11 0.079966 0.525288 0.988987
O O12 0.000000 0.500000 0.896639
O O13 0.064938 0.299008 0.850004
O O14 0.932022 0.415543 0.194747
O O15 0.921394 0.183106 0.054532
O O16 0.863872 0.990388 0.967964
O O17 0.549879 0.469516 0.909004
#
# Coordination Sequence:
#
# PCOD9367497 Si02
#       8
#     8   8   8   8   8   8   8   8
#     4  11  22  45  68  94 135 178 232 285 351 409
#     4  11  23  42  70  99 135 181 225 277 349 411
#     4  10  24  42  70  98 142 179 224 287 337 419
#     4  11  24  43  65  96 129 173 228 273 342 410
#     4  12  24  46  64  99 138 170 233 287 337 419
#     4  11  22  44  68 101 138 182 229 279 352 411
#     4  11  24  43  70  97 137 183 231 290 347 410
#     4  11  24  45  66  91 133 187 216 287 345 404
#
# _framework density 21.354201
#
# number of rings (size 3 to 8) (size 9 to 14) (size 15 to 20)
#    0.000    1.000    5.000    1.125    3.500    0.000 
#   15.750    1.250    0.000    0.000    0.000    0.000 
#    0.000    0.000    0.000    0.000    0.000    0.000 
#
# Total GULP energy -178464.741603 kJ/mol
# GULP energy per Si atom -5577.023175 kJ/mol
# Density = 2.130560 g / cm^3
# Si number density = 21.354201 Si / 1000 Ang^3
#
#
#
# Elastic Constant Matrix: (Units=GPa)
#
#
# Indices 1 2 3 4 5 6 
#
# 1 84.0515 32.6205 32.9684 0.0000 0.0000 0.0000
# 2 32.6205 58.0076 -2.1410 0.0000 0.0000 0.0000
# 3 32.9684 -2.1410 50.9064 0.0000 0.0000 0.0000
# 4 0.0000 0.0000 0.0000 29.5395 0.0000 0.0000
# 5 0.0000 0.0000 0.0000 0.0000 22.1610 0.0000
# 6 0.0000 0.0000 0.0000 0.0000 0.0000 34.9333
#
#
#
# Elastic Compliance Matrix: (Units=1/GPa)
#
#
# Indices 1 2 3 4 5 6 
#
# 1 0.023401 -0.013740 -0.015733 0.000000 0.000000 0.000000
# 2 -0.013740 0.025334 0.009964 0.000000 0.000000 0.000000
# 3 -0.015733 0.009964 0.030252 0.000000 0.000000 0.000000
# 4 0.000000 0.000000 0.000000 0.033853 0.000000 0.000000
# 5 0.000000 0.000000 0.000000 0.000000 0.045124 0.000000
# 6 0.000000 0.000000 0.000000 0.000000 0.000000 0.028626
#
#
# Mechanical properties :
#
#
# Convention : Reuss Voigt Hill
#
# Bulk Modulus (GPa) = 25.01979 35.54017 30.27998
# Shear Modulus (GPa) = 20.92640 25.96126 23.44383
#
# Velocity S-wave (km/s) = 3.13384 3.49054 3.31698
# Velocity P-wave (km/s) = 4.98363 5.73798 5.37406
#
# Compressibility (1/GPa) = 0.03996836
#
# Stress axis : x y z
#
# Youngs Moduli (GPa) = 42.73254 39.47292 33.05539
#
# Poissons Ratio (x) = 0.54238 0.52007
# Poissons Ratio (y) = 0.58716 -0.32937
# Poissons Ratio (z) = 0.67232 -0.39331
#
# Static dielectric constant tensor:
#      x y z
#    x 1.753950 0.000000 0.000000 
#    y 0.000000 1.789950 0.000000 
#    z 0.000000 0.000000 1.769820 
# 
# From -- ./inp_files/6651.got.cif
#   From: 2010.05.17/outbox.cif.g08.bks.cpg/sg41_4_cif.got.tgz:6651.got - 2010.06.03 18:54:24.
