data_PCOD9367742
_publ_section_title
;
Structure prediction by ZEFSAII (Michael W. Deem and Ramdas Pophale) SiO2 
 PCOD9367742
Probable space group: A B A 2
;
_chemical_formula_sum "Si O2"
_cell_formula_units_Z 48
_cell_length_a 10.186839
_cell_length_b 17.829536
_cell_length_c 11.890577
_cell_angle_alpha 90.000000
_cell_angle_beta 90.000000
_cell_angle_gamma 90.000000
_cell_volume 2159.645223
_symmetry_space_group_name_H-M "A B A 2"
_symmetry_group_IT_number 41
_symmetry_cell_setting 'orthorhombic'
loop_
_space_group_symop_operation_xyz
x,y,z
-x,-y,z
1/2-x,y,1/2+z
1/2+x,-y,1/2+z
x,1/2+y,1/2+z
-x,1/2-y,1/2+z
1/2-x,1/2+y,z
1/2+x,1/2-y,z
loop_
_atom_site_type_symbol
_atom_site_label
_atom_site_fract_x
_atom_site_fract_y
_atom_site_fract_z
Si Si1 0.545958 0.083785 0.565950
Si Si2 0.661929 0.326568 0.206029
Si Si3 0.834126 0.035500 0.846986
Si Si4 0.423943 0.085585 0.162380
Si Si5 0.711259 0.650239 0.699363
Si Si6 0.399666 0.061900 0.902535
O O1 0.440389 0.143607 0.611725
O O2 0.559624 0.070896 0.431842
O O3 0.687631 0.116188 0.607720
O O4 0.500000 0.000000 0.606286
O O5 0.802921 0.360051 0.179030
O O6 0.691421 0.238427 0.207339
O O7 0.612216 0.365651 0.322147
O O8 0.742943 0.105503 0.810424
O O9 0.876482 0.985674 0.737762
O O10 0.743172 0.976842 0.912614
O O11 0.561017 0.121775 0.197057
O O12 0.441008 0.075076 0.029811
O O13 0.500000 0.000000 0.854361
#
# Coordination Sequence:
#
# PCOD9367742 Si02
#       6
#     8   8   8   8   8   8
#     4  12  24  44  71  97 132 178 229 280 332 403
#     4  11  26  43  64  99 138 177 220 276 347 407
#     4  11  23  41  68  96 127 174 230 281 335 401
#     4  11  24  44  67  97 133 174 229 284 334 399
#     4  12  25  42  65  97 137 176 222 278 343 409
#     4  11  22  42  70  96 130 175 228 285 334 395
#
# _framework density 22.225873
#
# number of rings (size 3 to 8) (size 9 to 14) (size 15 to 20)
#    0.000    0.667    0.000   10.000    0.000    4.000 
#    0.000    0.000    0.000    0.000    0.000    0.000 
#    0.000    0.000    0.000    0.000    0.000    0.000 
#
# Total GULP energy -133791.938162 kJ/mol
# GULP energy per Si atom -5574.664090 kJ/mol
# Density = 2.217529 g / cm^3
# Si number density = 22.225873 Si / 1000 Ang^3
#
#
#
# Elastic Constant Matrix: (Units=GPa)
#
#
# Indices 1 2 3 4 5 6 
#
# 1 109.3512 44.2746 22.2872 0.0000 0.0000 0.0000
# 2 44.2746 185.5100 79.8416 0.0000 0.0000 0.0000
# 3 22.2872 79.8416 128.6259 0.0000 0.0000 0.0000
# 4 0.0000 0.0000 0.0000 7.5618 0.0000 0.0000
# 5 0.0000 0.0000 0.0000 0.0000 37.1701 0.0000
# 6 0.0000 0.0000 0.0000 0.0000 0.0000 34.4306
#
#
#
# Elastic Compliance Matrix: (Units=1/GPa)
#
#
# Indices 1 2 3 4 5 6 
#
# 1 0.010134 -0.002269 -0.000347 0.000000 0.000000 0.000000
# 2 -0.002269 0.007864 -0.004488 0.000000 0.000000 0.000000
# 3 -0.000347 -0.004488 0.010621 0.000000 0.000000 0.000000
# 4 0.000000 0.000000 0.000000 0.132244 0.000000 0.000000
# 5 0.000000 0.000000 0.000000 0.000000 0.026903 0.000000
# 6 0.000000 0.000000 0.000000 0.000000 0.000000 0.029044
#
#
# Mechanical properties :
#
#
# Convention : Reuss Voigt Hill
#
# Bulk Modulus (GPa) = 69.39958 79.58822 74.49390
# Shear Modulus (GPa) = 21.20240 34.30472 27.75356
#
# Velocity S-wave (km/s) = 3.09196 3.93295 3.53754
# Velocity P-wave (km/s) = 6.63622 7.51736 7.09049
#
# Compressibility (1/GPa) = 0.01440931
#
# Stress axis : x y z
#
# Youngs Moduli (GPa) = 98.67359 127.16615 94.15711
#
# Poissons Ratio (x) = 0.28856 0.03272
# Poissons Ratio (y) = 0.22391 0.42258
# Poissons Ratio (z) = 0.03429 0.57073
#
# Static dielectric constant tensor:
#      x y z
#    x 1.898530 0.000000 0.000000 
#    y 0.000000 2.014960 0.000000 
#    z 0.000000 0.000000 1.958630 
# 
# From -- ./inp_files/4949.got.cif
#   From: 2010.05.17/outbox.cif.g08.bks.cpg/sg41_3_cif.got.tgz:4949.got - 2010.06.03 18:54:24.
