data_PCOD9367513
_publ_section_title
;
Structure prediction by ZEFSAII (Michael W. Deem and Ramdas Pophale) SiO2 
 PCOD9367513
Probable space group: A B A 2
;
_chemical_formula_sum "Si O2"
_cell_formula_units_Z 64
_cell_length_a 31.256826
_cell_length_b 11.490444
_cell_length_c 8.854111
_cell_angle_alpha 90.000000
_cell_angle_beta 90.000000
_cell_angle_gamma 90.000000
_cell_volume 3179.996543
_symmetry_space_group_name_H-M "A B A 2"
_symmetry_group_IT_number 41
_symmetry_cell_setting 'orthorhombic'
loop_
_space_group_symop_operation_xyz
x,y,z
-x,-y,z
1/2-x,y,1/2+z
1/2+x,-y,1/2+z
x,1/2+y,1/2+z
-x,1/2-y,1/2+z
1/2-x,1/2+y,z
1/2+x,1/2-y,z
loop_
_atom_site_type_symbol
_atom_site_label
_atom_site_fract_x
_atom_site_fract_y
_atom_site_fract_z
Si Si1 0.895782 0.310519 0.635200
Si Si2 0.745957 0.309251 0.458473
Si Si3 0.805518 0.423970 0.688848
Si Si4 0.453005 0.958988 0.634408
Si Si5 0.976505 0.876754 0.633616
Si Si6 0.190545 0.303759 0.722806
Si Si7 0.905187 0.754539 0.793208
Si Si8 0.544111 0.212694 0.361295
O O1 0.847201 0.349184 0.651017
O O2 0.923914 0.427489 0.635439
O O3 0.904222 0.252089 0.473844
O O4 0.911385 0.233745 0.776273
O O5 0.772246 0.404494 0.553282
O O6 0.716240 0.371806 0.337214
O O7 0.780111 0.230945 0.366451
O O8 0.716936 0.238595 0.576631
O O9 0.816139 0.558356 0.712731
O O10 0.430112 0.859184 0.732673
O O11 0.456877 0.900523 0.468116
O O12 0.500000 0.000000 0.683430
O O13 0.932225 0.864049 0.727584
O O14 0.967133 0.818827 0.472507
O O15 0.009487 0.798591 0.729504
O O16 0.000000 0.000000 0.621319
O O17 0.143646 0.246102 0.735459
#
# Coordination Sequence:
#
# PCOD9367513 Si02
#       8
#     8   8   8   8   8   8   8   8
#     4  12  24  41  65  97 134 170 216 272 325 387
#     4  10  24  43  70  98 135 173 220 272 336 397
#     4  11  23  42  68  99 132 175 219 267 335 399
#     4  11  24  44  67  92 130 179 217 271 334 386
#     4  11  24  44  64  91 128 172 218 267 324 382
#     4  11  22  45  69 100 136 175 219 275 331 397
#     4  11  23  42  69  99 135 175 224 274 325 396
#     4  11  25  41  64  92 125 171 220 264 325 386
#
# _framework density 20.125807999999999
#
# number of rings (size 3 to 8) (size 9 to 14) (size 15 to 20)
#    0.000    1.000    2.500    4.875    3.500    3.500 
#    0.000    1.875    0.000    0.000    0.000    0.000 
#    0.000    0.000    0.000    0.000    0.000    0.000 
#
# Total GULP energy -178961.309818 kJ/mol
# GULP energy per Si atom -5592.540932 kJ/mol
# Density = 2.008000 g / cm^3
# Si number density = 20.125808 Si / 1000 Ang^3
#
#
#
# Elastic Constant Matrix: (Units=GPa)
#
#
# Indices 1 2 3 4 5 6 
#
# 1 124.7909 27.0699 40.8699 0.0000 0.0000 0.0000
# 2 27.0699 49.0653 25.1638 0.0000 0.0000 0.0000
# 3 40.8699 25.1638 114.3763 0.0000 0.0000 0.0000
# 4 0.0000 0.0000 0.0000 19.3030 0.0000 0.0000
# 5 0.0000 0.0000 0.0000 0.0000 59.3819 0.0000
# 6 0.0000 0.0000 0.0000 0.0000 0.0000 48.9047
#
#
#
# Elastic Compliance Matrix: (Units=1/GPa)
#
#
# Indices 1 2 3 4 5 6 
#
# 1 0.009739 -0.004045 -0.002590 0.000000 0.000000 0.000000
# 2 -0.004045 0.024653 -0.003979 0.000000 0.000000 0.000000
# 3 -0.002590 -0.003979 0.010544 0.000000 0.000000 0.000000
# 4 0.000000 0.000000 0.000000 0.051805 0.000000 0.000000
# 5 0.000000 0.000000 0.000000 0.000000 0.016840 0.000000
# 6 0.000000 0.000000 0.000000 0.000000 0.000000 0.020448
#
#
# Mechanical properties :
#
#
# Convention : Reuss Voigt Hill
#
# Bulk Modulus (GPa) = 42.17804 52.71552 47.44678
# Shear Modulus (GPa) = 30.64484 38.52651 34.58567
#
# Velocity S-wave (km/s) = 3.90637 4.38000 4.14995
# Velocity P-wave (km/s) = 6.43031 7.19924 6.82561
#
# Compressibility (1/GPa) = 0.02370902
#
# Stress axis : x y z
#
# Youngs Moduli (GPa) = 102.67880 40.56304 94.84125
#
# Poissons Ratio (x) = 0.16407 0.24566
# Poissons Ratio (y) = 0.41531 0.37733
# Poissons Ratio (z) = 0.26596 0.16138
#
# Static dielectric constant tensor:
#      x y z
#    x 1.693630 0.000000 0.000000 
#    y 0.000000 1.706470 0.000000 
#    z 0.000000 0.000000 1.707350 
# 
# From -- ./inp_files/3981.got.cif
#   From: 2010.05.17/outbox.cif.g08.bks.cpg/sg41_2_cif.got.tgz:3981.got - 2010.06.03 18:54:24.
