data_PCOD9367673
_publ_section_title
;
Structure prediction by ZEFSAII (Michael W. Deem and Ramdas Pophale) SiO2 
 PCOD9367673
Probable space group: A B A 2
;
_chemical_formula_sum "Si O2"
_cell_formula_units_Z 56
_cell_length_a 13.106464
_cell_length_b 10.479241
_cell_length_c 19.842535
_cell_angle_alpha 90.000000
_cell_angle_beta 90.000000
_cell_angle_gamma 90.000000
_cell_volume 2725.288743
_symmetry_space_group_name_H-M "A B A 2"
_symmetry_group_IT_number 41
_symmetry_cell_setting 'orthorhombic'
loop_
_space_group_symop_operation_xyz
x,y,z
-x,-y,z
1/2-x,y,1/2+z
1/2+x,-y,1/2+z
x,1/2+y,1/2+z
-x,1/2-y,1/2+z
1/2-x,1/2+y,z
1/2+x,1/2-y,z
loop_
_atom_site_type_symbol
_atom_site_label
_atom_site_fract_x
_atom_site_fract_y
_atom_site_fract_z
Si Si1 0.086257 0.393131 0.304740
Si Si2 0.050684 0.121812 0.522202
Si Si3 0.722973 0.462958 0.062062
Si Si4 0.756420 0.612797 0.698237
Si Si5 0.589519 0.106515 0.460123
Si Si6 0.479690 0.356259 0.242506
Si Si7 0.593100 0.264985 0.116107
O O1 0.178983 0.430889 0.255999
O O2 0.120810 0.390820 0.382095
O O3 0.036625 0.256702 0.282984
O O4 0.000000 0.500000 0.297119
O O5 0.164152 0.083613 0.544809
O O6 0.054123 0.252061 0.480499
O O7 0.977526 0.154031 0.586015
O O8 0.000000 0.000000 0.486551
O O9 0.718316 0.512171 0.139240
O O10 0.642506 0.348066 0.057574
O O11 0.680847 0.568700 0.010775
O O12 0.689906 0.715608 0.657655
O O13 0.858899 0.662429 0.733159
O O14 0.500000 0.000000 0.466395
O O15 0.500000 0.500000 0.268201
O O16 0.524248 0.346012 0.166682
#
# Coordination Sequence:
#
# PCOD9367673 Si02
#       7
#     8   8   8   8   8   8   8
#     4  10  27  48  69  96 141 193 232 291 359 432
#     4  12  26  42  69 108 141 186 240 304 354 424
#     4  12  23  42  74 104 140 186 240 293 363 425
#     4  11  24  41  69 104 136 180 237 292 355 422
#     4  11  25  51  71  98 146 196 236 292 366 436
#     4  11  23  41  68 101 134 181 232 292 349 416
#     4  11  22  39  67 102 143 178 228 298 353 418
#
# _framework density 20.548280999999999
#
# number of rings (size 3 to 8) (size 9 to 14) (size 15 to 20)
#    0.000    0.857    4.286    2.571    6.000    0.571 
#   10.286    0.000    0.000    0.000    0.000    0.000 
#    0.000    0.000    0.000    0.000    0.000    0.000 
#
# Total GULP energy -156394.708502 kJ/mol
# GULP energy per Si atom -5585.525304 kJ/mol
# Density = 2.050151 g / cm^3
# Si number density = 20.548281 Si / 1000 Ang^3
#
#
#
# Elastic Constant Matrix: (Units=GPa)
#
#
# Indices 1 2 3 4 5 6 
#
# 1 109.1897 37.1515 55.1559 0.0000 0.0000 0.0000
# 2 37.1515 120.6266 37.5409 0.0000 0.0000 0.0000
# 3 55.1559 37.5409 97.7202 0.0000 0.0000 0.0000
# 4 0.0000 0.0000 0.0000 18.2598 0.0000 0.0000
# 5 0.0000 0.0000 0.0000 0.0000 22.1182 0.0000
# 6 0.0000 0.0000 0.0000 0.0000 0.0000 30.7020
#
#
#
# Elastic Compliance Matrix: (Units=1/GPa)
#
#
# Indices 1 2 3 4 5 6 
#
# 1 0.013217 -0.001987 -0.006697 0.000000 0.000000 0.000000
# 2 -0.001987 0.009714 -0.002611 0.000000 0.000000 0.000000
# 3 -0.006697 -0.002611 0.015016 0.000000 0.000000 0.000000
# 4 0.000000 0.000000 0.000000 0.054765 0.000000 0.000000
# 5 0.000000 0.000000 0.000000 0.000000 0.045212 0.000000
# 6 0.000000 0.000000 0.000000 0.000000 0.000000 0.032571
#
#
# Mechanical properties :
#
#
# Convention : Reuss Voigt Hill
#
# Bulk Modulus (GPa) = 65.10690 65.24811 65.17751
# Shear Modulus (GPa) = 25.22657 27.39522 26.31089
#
# Velocity S-wave (km/s) = 3.50762 3.65528 3.58221
# Velocity P-wave (km/s) = 6.93961 7.04537 6.99269
#
# Compressibility (1/GPa) = 0.01535936
#
# Stress axis : x y z
#
# Youngs Moduli (GPa) = 75.65907 102.94046 66.59474
#
# Poissons Ratio (x) = 0.20449 0.44598
# Poissons Ratio (y) = 0.15030 0.17386
# Poissons Ratio (z) = 0.50669 0.26875
#
# Static dielectric constant tensor:
#      x y z
#    x 1.728040 0.000000 0.000000 
#    y 0.000000 1.785230 0.000000 
#    z 0.000000 0.000000 1.722350 
# 
# From -- ./inp_files/11378.got.cif
#   From: 2010.05.17/outbox.cif.g08.bks.cpg/sg41_6_cif.got.tgz:11378.got - 2010.06.03 18:54:24.
