data_PCOD9367271
_publ_section_title
;
Structure prediction by ZEFSAII (Michael W. Deem and Ramdas Pophale) SiO2 
 PCOD9367271
Probable space group: A B A 2
;
_chemical_formula_sum "Si O2"
_cell_formula_units_Z 40
_cell_length_a 10.625510
_cell_length_b 8.641793
_cell_length_c 17.514030
_cell_angle_alpha 90.000000
_cell_angle_beta 90.000000
_cell_angle_gamma 90.000000
_cell_volume 1608.198797
_symmetry_space_group_name_H-M "A B A 2"
_symmetry_group_IT_number 41
_symmetry_cell_setting 'orthorhombic'
loop_
_space_group_symop_operation_xyz
x,y,z
-x,-y,z
1/2-x,y,1/2+z
1/2+x,-y,1/2+z
x,1/2+y,1/2+z
-x,1/2-y,1/2+z
1/2-x,1/2+y,z
1/2+x,1/2-y,z
loop_
_atom_site_type_symbol
_atom_site_label
_atom_site_fract_x
_atom_site_fract_y
_atom_site_fract_z
Si Si1 0.500000 0.500000 0.593101
Si Si2 0.865737 0.237496 0.290650
Si Si3 0.500000 0.000000 0.705522
Si Si4 0.753403 0.622736 0.644809
Si Si5 0.851276 0.275077 0.995695
Si Si6 0.803501 0.012905 0.891646
O O1 0.466104 0.642550 0.538089
O O2 0.728729 0.402612 0.450295
O O3 0.870722 0.401137 0.331236
O O4 0.990464 0.152519 0.258905
O O5 0.776160 0.235739 0.216195
O O6 0.800417 0.115808 0.347846
O O7 0.374974 0.989338 0.654907
O O8 0.620132 0.540068 0.643764
O O9 0.768772 0.704833 0.563883
O O10 0.885468 0.136730 0.938437
#
# Coordination Sequence:
#
# PCOD9367271 Si02
#       6
#     4   8   4   8   8   8
#     4  12  26  45  84 123 164 218 284 338 414 501
#     4   9  22  44  79 107 155 210 270 339 408 493
#     4   8  22  47  78 113 164 206 284 334 404 481
#     4  10  24  47  81 113 166 216 280 341 399 497
#     4  11  24  47  74 113 168 209 269 337 415 499
#     4  10  22  46  75 113 160 206 266 342 424 479
#
# _framework density 24.872546
#
# number of rings (size 3 to 8) (size 9 to 14) (size 15 to 20)
#    1.200    0.800    2.000    0.000    2.800    4.000 
#    0.000    0.000    8.800    0.000    0.000    0.000 
#    0.000    0.000    0.000    0.000    0.000    0.000 
#
# Total GULP energy -111946.997584 kJ/mol
# GULP energy per Si atom -5597.349879 kJ/mol
# Density = 2.481593 g / cm^3
# Si number density = 24.872546 Si / 1000 Ang^3
#
#
#
# Elastic Constant Matrix: (Units=GPa)
#
#
# Indices 1 2 3 4 5 6 
#
# 1 134.9199 55.8679 40.8494 0.0000 0.0000 0.0000
# 2 55.8679 149.8769 64.4669 0.0000 0.0000 0.0000
# 3 40.8494 64.4669 130.7146 0.0000 0.0000 0.0000
# 4 0.0000 0.0000 0.0000 34.4931 0.0000 0.0000
# 5 0.0000 0.0000 0.0000 0.0000 28.5552 0.0000
# 6 0.0000 0.0000 0.0000 0.0000 0.0000 36.4046
#
#
#
# Elastic Compliance Matrix: (Units=1/GPa)
#
#
# Indices 1 2 3 4 5 6 
#
# 1 0.008981 -0.002717 -0.001467 0.000000 0.000000 0.000000
# 2 -0.002717 0.009291 -0.003733 0.000000 0.000000 0.000000
# 3 -0.001467 -0.003733 0.009950 0.000000 0.000000 0.000000
# 4 0.000000 0.000000 0.000000 0.028991 0.000000 0.000000
# 5 0.000000 0.000000 0.000000 0.000000 0.035020 0.000000
# 6 0.000000 0.000000 0.000000 0.000000 0.000000 0.027469
#
#
# Mechanical properties :
#
#
# Convention : Reuss Voigt Hill
#
# Bulk Modulus (GPa) = 80.72252 81.98666 81.35459
# Shear Modulus (GPa) = 35.80031 36.84572 36.32302
#
# Velocity S-wave (km/s) = 3.79799 3.85305 3.82562
# Velocity P-wave (km/s) = 7.19430 7.26835 7.23142
#
# Compressibility (1/GPa) = 0.01238812
#
# Stress axis : x y z
#
# Youngs Moduli (GPa) = 111.34793 107.63650 100.50596
#
# Poissons Ratio (x) = 0.29243 0.14741
# Poissons Ratio (y) = 0.30251 0.37518
# Poissons Ratio (z) = 0.16331 0.40180
#
# Static dielectric constant tensor:
#      x y z
#    x 1.946410 0.000000 0.000000 
#    y 0.000000 1.999080 0.000000 
#    z 0.000000 0.000000 1.948840 
# 
# From -- ./inp_files/9915.got.cif
#   From: 2010.05.17/outbox.cif.g08.bks.cpg/sg41_5_cif.got.tgz:9915.got - 2010.06.03 18:54:24.
