data_PCOD9367834
_publ_section_title
;
Structure prediction by ZEFSAII (Michael W. Deem and Ramdas Pophale) SiO2 
 PCOD9367834
Probable space group: A B A 2
;
_chemical_formula_sum "Si O2"
_cell_formula_units_Z 40
_cell_length_a 13.889418
_cell_length_b 8.912294
_cell_length_c 13.278351
_cell_angle_alpha 90.000000
_cell_angle_beta 90.000000
_cell_angle_gamma 90.000000
_cell_volume 1643.681615
_symmetry_space_group_name_H-M "A B A 2"
_symmetry_group_IT_number 41
_symmetry_cell_setting 'orthorhombic'
loop_
_space_group_symop_operation_xyz
x,y,z
-x,-y,z
1/2-x,y,1/2+z
1/2+x,-y,1/2+z
x,1/2+y,1/2+z
-x,1/2-y,1/2+z
1/2-x,1/2+y,z
1/2+x,1/2-y,z
loop_
_atom_site_type_symbol
_atom_site_label
_atom_site_fract_x
_atom_site_fract_y
_atom_site_fract_z
Si Si1 0.898669 0.570921 0.211090
Si Si2 0.258330 0.195510 0.262940
Si Si3 0.661047 0.160226 0.590719
Si Si4 0.818709 0.348582 0.480038
Si Si5 0.013979 0.343847 0.996847
O O1 0.846956 0.722774 0.252981
O O2 0.813818 0.446641 0.211608
O O3 0.929075 0.606336 0.097527
O O4 0.000000 0.500000 0.255860
O O5 0.257057 0.260193 0.550131
O O6 0.259971 0.137402 0.377522
O O7 0.670437 0.177702 0.711568
O O8 0.576740 0.256182 0.540113
O O9 0.657655 0.995457 0.543850
O O10 0.916681 0.271865 0.443036
O O11 0.000000 0.500000 0.939467
#
# Coordination Sequence:
#
# PCOD9367834 Si02
#       5
#     8   8   8   8   8
#     4  11  24  47  75 106 156 208 264 331 409 487
#     4  12  25  47  78 110 151 215 262 332 411 484
#     4  12  24  47  72 107 157 204 255 340 404 481
#     4  12  27  44  75 110 147 202 273 322 407 497
#     4  11  23  47  72 105 154 203 253 332 411 484
#
# _framework density 24.335614
#
# number of rings (size 3 to 8) (size 9 to 14) (size 15 to 20)
#    0.000    0.400    6.000    4.200    0.000    3.200 
#    0.000    3.000    0.000    0.000    0.000    0.000 
#    0.000    0.000    0.000    0.000    0.000    0.000 
#
# Total GULP energy -111407.408785 kJ/mol
# GULP energy per Si atom -5570.370439 kJ/mol
# Density = 2.428023 g / cm^3
# Si number density = 24.335614 Si / 1000 Ang^3
#
#
#
# Elastic Constant Matrix: (Units=GPa)
#
#
# Indices 1 2 3 4 5 6 
#
# 1 123.0778 60.5882 -8.1037 0.0000 0.0000 0.0000
# 2 60.5882 117.8967 -17.9681 0.0000 0.0000 0.0000
# 3 -8.1037 -17.9681 37.6513 0.0000 0.0000 0.0000
# 4 0.0000 0.0000 0.0000 16.2157 0.0000 0.0000
# 5 0.0000 0.0000 0.0000 0.0000 1.0931 0.0000
# 6 0.0000 0.0000 0.0000 0.0000 0.0000 68.7632
#
#
#
# Elastic Compliance Matrix: (Units=1/GPa)
#
#
# Indices 1 2 3 4 5 6 
#
# 1 0.010881 -0.005645 -0.000352 0.000000 0.000000 0.000000
# 2 -0.005645 0.012076 0.004548 0.000000 0.000000 0.000000
# 3 -0.000352 0.004548 0.028654 0.000000 0.000000 0.000000
# 4 0.000000 0.000000 0.000000 0.061669 0.000000 0.000000
# 5 0.000000 0.000000 0.000000 0.000000 0.914802 0.000000
# 6 0.000000 0.000000 0.000000 0.000000 0.000000 0.014543
#
#
# Mechanical properties :
#
#
# Convention : Reuss Voigt Hill
#
# Bulk Modulus (GPa) = 20.52879 38.62874 29.57877
# Shear Modulus (GPa) = 4.70916 33.48837 19.09876
#
# Velocity S-wave (km/s) = 1.39258 3.71361 2.80448
# Velocity P-wave (km/s) = 3.32261 5.85625 4.76106
#
# Compressibility (1/GPa) = 0.04871207
#
# Stress axis : x y z
#
# Youngs Moduli (GPa) = 91.90437 82.80609 34.89902
#
# Poissons Ratio (x) = 0.46748 0.01229
# Poissons Ratio (y) = 0.51884 -0.15872
# Poissons Ratio (z) = 0.03237 -0.37661
#
# Static dielectric constant tensor:
#      x y z
#    x 2.022090 0.000000 0.000000 
#    y 0.000000 2.125320 0.000000 
#    z 0.000000 0.000000 2.212510 
# 
# From -- ./inp_files/8235.got.cif
#   From: 2010.05.17/outbox.cif.g08.bks.cpg/sg41_5_cif.got.tgz:8235.got - 2010.06.03 18:54:24.
