data_PCOD9367019
_publ_section_title
;
Structure prediction by ZEFSAII (Michael W. Deem and Ramdas Pophale) SiO2 
 PCOD9367019
Probable space group: A B A 2
;
_chemical_formula_sum "Si O2"
_cell_formula_units_Z 56
_cell_length_a 14.626795
_cell_length_b 8.063027
_cell_length_c 19.498837
_cell_angle_alpha 90.000000
_cell_angle_beta 90.000000
_cell_angle_gamma 90.000000
_cell_volume 2299.619579
_symmetry_space_group_name_H-M "A B A 2"
_symmetry_group_IT_number 41
_symmetry_cell_setting 'orthorhombic'
loop_
_space_group_symop_operation_xyz
x,y,z
-x,-y,z
1/2-x,y,1/2+z
1/2+x,-y,1/2+z
x,1/2+y,1/2+z
-x,1/2-y,1/2+z
1/2-x,1/2+y,z
1/2+x,1/2-y,z
loop_
_atom_site_type_symbol
_atom_site_label
_atom_site_fract_x
_atom_site_fract_y
_atom_site_fract_z
Si Si1 0.234829 0.405074 0.814210
Si Si2 0.235407 0.503149 0.576308
Si Si3 0.169952 0.134658 0.716728
Si Si4 0.481946 0.198999 0.737283
Si Si5 0.940884 0.326910 0.595008
Si Si6 0.610907 0.808184 0.027469
Si Si7 0.378898 0.687092 0.372290
O O1 0.208176 0.309097 0.744892
O O2 0.310891 0.527265 0.784135
O O3 0.151337 0.502432 0.848593
O O4 0.284155 0.287063 0.867339
O O5 0.279879 0.553707 0.650973
O O6 0.154301 0.634235 0.559045
O O7 0.178152 0.333019 0.562486
O O8 0.324872 0.529905 0.530287
O O9 0.064373 0.184653 0.711882
O O10 0.413117 0.214829 0.673378
O O11 0.445162 0.245884 0.811441
O O12 0.500000 0.000000 0.740116
O O13 0.000000 0.500000 0.595440
O O14 0.013739 0.199019 0.565227
O O15 0.586531 0.784538 0.948044
#
# Coordination Sequence:
#
# PCOD9367019 Si02
#       7
#     8   8   8   8   8   8   8
#     4  10  22  39  62  96 130 180 232 286 355 419
#     4  11  22  41  68  96 130 174 228 281 346 414
#     4  11  21  39  69  99 129 178 234 299 349 413
#     4  11  21  40  66  98 133 174 235 296 353 418
#     4   9  20  39  65  93 124 172 223 273 342 414
#     4  11  23  43  65  95 134 182 222 280 351 422
#     4  11  23  42  63  95 140 182 232 289 356 436
#
# _framework density 24.351853999999999
#
# number of rings (size 3 to 8) (size 9 to 14) (size 15 to 20)
#    0.000    1.429    2.857    3.429    2.000    0.571 
#   12.857    0.714    0.000    0.000    0.000    0.000 
#    0.000    0.000    0.000    0.000    0.000    0.000 
#
# Total GULP energy -156083.218372 kJ/mol
# GULP energy per Si atom -5574.400656 kJ/mol
# Density = 2.429643 g / cm^3
# Si number density = 24.351854 Si / 1000 Ang^3
#
#
#
# Elastic Constant Matrix: (Units=GPa)
#
#
# Indices 1 2 3 4 5 6 
#
# 1 91.5315 18.7950 26.0393 0.0000 0.0000 0.0000
# 2 18.7950 67.0293 15.0609 0.0000 0.0000 0.0000
# 3 26.0393 15.0609 137.4703 0.0000 0.0000 0.0000
# 4 0.0000 0.0000 0.0000 -12.6224 0.0000 0.0000
# 5 0.0000 0.0000 0.0000 0.0000 32.1647 0.0000
# 6 0.0000 0.0000 0.0000 0.0000 0.0000 31.5486
#
#
#
# Elastic Compliance Matrix: (Units=1/GPa)
#
#
# Indices 1 2 3 4 5 6 
#
# 1 0.012090 -0.002948 -0.001967 0.000000 0.000000 0.000000
# 2 -0.002948 0.016014 -0.001196 0.000000 0.000000 0.000000
# 3 -0.001967 -0.001196 0.007778 0.000000 0.000000 0.000000
# 4 0.000000 0.000000 0.000000 -0.079224 0.000000 0.000000
# 5 0.000000 0.000000 0.000000 0.000000 0.031090 0.000000
# 6 0.000000 0.000000 0.000000 0.000000 0.000000 0.031697
#
#
# Mechanical properties :
#
#
# Convention : Reuss Voigt Hill
#
# Bulk Modulus (GPa) = 42.26572 46.20239 44.23405
# Shear Modulus (GPa) = 126.40752 25.96057 76.18405
#
# Velocity S-wave (km/s) = 7.21259 3.26860 5.59934
# Velocity P-wave (km/s) = 9.31429 5.76707 7.74645
#
# Compressibility (1/GPa) = 0.02365984
#
# Stress axis : x y z
#
# Youngs Moduli (GPa) = 82.71181 62.44449 128.56876
#
# Poissons Ratio (x) = 0.18409 0.25291
# Poissons Ratio (y) = 0.24384 0.15378
# Poissons Ratio (z) = 0.16270 0.07469
#
# Static dielectric constant tensor:
#      x y z
#    x 1.934530 0.000000 0.000000 
#    y 0.000000 2.120210 0.000000 
#    z 0.000000 0.000000 1.942840 
# 
# From -- ./inp_files/11565.got.cif
#   From: 2010.05.17/outbox.cif.g08.bks.cpg/sg41_6_cif.got.tgz:11565.got - 2010.06.03 18:54:24.
