data_PCOD9367231
_publ_section_title
;
Structure prediction by ZEFSAII (Michael W. Deem and Ramdas Pophale) SiO2 
 PCOD9367231
Probable space group: A B A 2
;
_chemical_formula_sum "Si O2"
_cell_formula_units_Z 64
_cell_length_a 9.772237
_cell_length_b 15.213232
_cell_length_c 17.219684
_cell_angle_alpha 90.000000
_cell_angle_beta 90.000000
_cell_angle_gamma 90.000000
_cell_volume 2560.004076
_symmetry_space_group_name_H-M "A B A 2"
_symmetry_group_IT_number 41
_symmetry_cell_setting 'orthorhombic'
loop_
_space_group_symop_operation_xyz
x,y,z
-x,-y,z
1/2-x,y,1/2+z
1/2+x,-y,1/2+z
x,1/2+y,1/2+z
-x,1/2-y,1/2+z
1/2-x,1/2+y,z
1/2+x,1/2-y,z
loop_
_atom_site_type_symbol
_atom_site_label
_atom_site_fract_x
_atom_site_fract_y
_atom_site_fract_z
Si Si1 0.932665 0.792748 0.753670
Si Si2 0.350584 0.454758 0.250921
Si Si3 0.955524 0.679625 0.632249
Si Si4 0.719189 0.638959 0.989205
Si Si5 0.195301 0.068390 0.481280
Si Si6 0.744302 0.391567 0.149954
Si Si7 0.940005 0.644873 0.886262
Si Si8 0.467620 0.600649 0.892660
O O1 0.010667 0.766189 0.675281
O O2 0.787850 0.816790 0.711963
O O3 0.961388 0.719872 0.821206
O O4 0.965608 0.879103 0.801835
O O5 0.500000 0.500000 0.252967
O O6 0.369285 0.368996 0.199281
O O7 0.255965 0.520998 0.203560
O O8 0.337144 0.422708 0.339567
O O9 0.848595 0.681657 0.563943
O O10 0.089461 0.621264 0.617876
O O11 0.764572 0.535419 0.996119
O O12 0.067796 0.594486 0.924925
O O13 0.594668 0.650534 0.929678
O O14 0.171605 0.102343 0.569689
O O15 0.353679 0.315376 0.456620
O O16 0.323515 0.112591 0.436387
O O17 0.500000 0.500000 0.905877
#
# Coordination Sequence:
#
# PCOD9367231 Si02
#       8
#     8   8   8   8   8   8   8   8
#     4  11  28  45  68 109 152 203 250 321 396 466
#     4   9  19  38  71 104 135 191 245 310 371 465
#     4  10  22  44  71 105 145 189 258 316 385 461
#     4  11  22  45  75 108 144 191 252 317 384 460
#     4  11  23  46  75 110 143 197 256 319 384 467
#     4  11  23  44  75 102 147 198 255 310 389 470
#     4  11  26  43  74 112 155 190 255 319 395 467
#     4  10  25  43  73 105 144 193 260 312 379 468
#
# _framework density 24.999960999999999
#
# number of rings (size 3 to 8) (size 9 to 14) (size 15 to 20)
#    0.000    1.500    2.500    1.125   10.500    2.000 
#    2.250    1.250    0.000    0.000    0.000    0.000 
#    0.000    0.000    0.000    0.000    0.000    0.000 
#
# Total GULP energy -178348.691394 kJ/mol
# GULP energy per Si atom -5573.396606 kJ/mol
# Density = 2.494306 g / cm^3
# Si number density = 24.999961 Si / 1000 Ang^3
#
#
#
# Elastic Constant Matrix: (Units=GPa)
#
#
# Indices 1 2 3 4 5 6 
#
# 1 85.1066 14.6395 56.7885 0.0000 0.0000 0.0000
# 2 14.6395 56.9870 28.8641 0.0000 0.0000 0.0000
# 3 56.7885 28.8641 159.0741 0.0000 0.0000 0.0000
# 4 0.0000 0.0000 0.0000 27.8645 0.0000 0.0000
# 5 0.0000 0.0000 0.0000 0.0000 42.1672 0.0000
# 6 0.0000 0.0000 0.0000 0.0000 0.0000 17.1666
#
#
#
# Elastic Compliance Matrix: (Units=1/GPa)
#
#
# Indices 1 2 3 4 5 6 
#
# 1 0.015511 -0.001299 -0.005302 0.000000 0.000000 0.000000
# 2 -0.001299 0.019433 -0.003062 0.000000 0.000000 0.000000
# 3 -0.005302 -0.003062 0.008735 0.000000 0.000000 0.000000
# 4 0.000000 0.000000 0.000000 0.035888 0.000000 0.000000
# 5 0.000000 0.000000 0.000000 0.000000 0.023715 0.000000
# 6 0.000000 0.000000 0.000000 0.000000 0.000000 0.058253
#
#
# Mechanical properties :
#
#
# Convention : Reuss Voigt Hill
#
# Bulk Modulus (GPa) = 41.06434 55.75022 48.40728
# Shear Modulus (GPa) = 26.45813 30.83136 28.64474
#
# Velocity S-wave (km/s) = 3.25672 3.51558 3.38863
# Velocity P-wave (km/s) = 5.53200 6.23118 5.89197
#
# Compressibility (1/GPa) = 0.02435203
#
# Stress axis : x y z
#
# Youngs Moduli (GPa) = 64.47030 51.45972 114.48656
#
# Poissons Ratio (x) = 0.06687 0.60696
# Poissons Ratio (y) = 0.08377 0.35058
# Poissons Ratio (z) = 0.34179 0.15758
#
# Static dielectric constant tensor:
#      x y z
#    x 2.036720 0.000000 0.000000 
#    y 0.000000 2.193220 0.000000 
#    z 0.000000 0.000000 2.010140 
# 
# From -- ./inp_files/10122.got.cif
#   From: 2010.05.17/outbox.cif.g08.bks.cpg/sg41_6_cif.got.tgz:10122.got - 2010.06.03 18:54:24.
