data_PCOD9367563
_publ_section_title
;
Structure prediction by ZEFSAII (Michael W. Deem and Ramdas Pophale) SiO2 
 PCOD9367563
Probable space group: A B A 2
;
_chemical_formula_sum "Si O2"
_cell_formula_units_Z 28
_cell_length_a 5.431323
_cell_length_b 13.560007
_cell_length_c 16.194451
_cell_angle_alpha 90.000000
_cell_angle_beta 90.000000
_cell_angle_gamma 90.000000
_cell_volume 1192.701525
_symmetry_space_group_name_H-M "A B A 2"
_symmetry_group_IT_number 41
_symmetry_cell_setting 'orthorhombic'
loop_
_space_group_symop_operation_xyz
x,y,z
-x,-y,z
1/2-x,y,1/2+z
1/2+x,-y,1/2+z
x,1/2+y,1/2+z
-x,1/2-y,1/2+z
1/2-x,1/2+y,z
1/2+x,1/2-y,z
loop_
_atom_site_type_symbol
_atom_site_label
_atom_site_fract_x
_atom_site_fract_y
_atom_site_fract_z
Si Si1 0.685228 0.810216 0.511670
Si Si2 0.500000 0.500000 0.106284
Si Si3 0.239894 0.622607 0.324342
Si Si4 0.754899 0.592977 0.759201
O O1 0.447880 0.741021 0.531324
O O2 0.693182 0.833758 0.413883
O O3 0.634672 0.914965 0.555121
O O4 0.691451 0.552134 0.168571
O O5 0.505505 0.651049 0.288909
O O6 0.247875 0.502443 0.320293
O O7 0.006774 0.643237 0.266357
#
# Coordination Sequence:
#
# PCOD9367563 Si02
#       4
#     8   4   8   8
#     4  12  27  43  67 102 134 177 222 268 337 402
#     4  10  24  46  68  94 144 172 212 284 332 396
#     4   9  18  38  60  90 124 158 221 263 303 385
#     4   9  19  38  69  92 118 179 217 261 336 372
#
# _framework density 23.476116999999999
#
# number of rings (size 3 to 8) (size 9 to 14) (size 15 to 20)
#    0.000    2.286    0.000    3.429    0.000   12.571 
#    0.000   20.000    0.000    0.000    0.000    0.000 
#    0.000    0.000    0.000    0.000    0.000    0.000 
#
# Total GULP energy -78205.132178 kJ/mol
# GULP energy per Si atom -5586.080870 kJ/mol
# Density = 2.342268 g / cm^3
# Si number density = 23.476117 Si / 1000 Ang^3
#
#
#
# Elastic Constant Matrix: (Units=GPa)
#
#
# Indices 1 2 3 4 5 6 
#
# 1 244.7688 50.9151 58.4957 0.0000 0.0000 0.0000
# 2 50.9151 141.7184 38.3090 0.0000 0.0000 0.0000
# 3 58.4957 38.3090 97.4743 0.0000 0.0000 0.0000
# 4 0.0000 0.0000 0.0000 17.1313 0.0000 0.0000
# 5 0.0000 0.0000 0.0000 0.0000 4.8609 0.0000
# 6 0.0000 0.0000 0.0000 0.0000 0.0000 -9.4421
#
#
#
# Elastic Compliance Matrix: (Units=1/GPa)
#
#
# Indices 1 2 3 4 5 6 
#
# 1 0.004914 -0.001083 -0.002523 0.000000 0.000000 0.000000
# 2 -0.001083 0.008134 -0.002547 0.000000 0.000000 0.000000
# 3 -0.002523 -0.002547 0.012774 0.000000 0.000000 0.000000
# 4 0.000000 0.000000 0.000000 0.058373 0.000000 0.000000
# 5 0.000000 0.000000 0.000000 0.000000 0.205721 0.000000
# 6 0.000000 0.000000 0.000000 0.000000 0.000000 -0.105908
#
#
# Mechanical properties :
#
#
# Convention : Reuss Voigt Hill
#
# Bulk Modulus (GPa) = 73.98797 86.60011 80.29404
# Shear Modulus (GPa) = 24.89805 24.92614 24.91209
#
# Velocity S-wave (km/s) = 3.26017 3.26201 3.26109
# Velocity P-wave (km/s) = 6.76434 7.15236 6.96106
#
# Compressibility (1/GPa) = 0.01351571
#
# Stress axis : x y z
#
# Youngs Moduli (GPa) = 203.50803 122.94292 78.28338
#
# Poissons Ratio (x) = 0.13319 0.19751
# Poissons Ratio (y) = 0.22047 0.19936
# Poissons Ratio (z) = 0.51347 0.31309
#
# Static dielectric constant tensor:
#      x y z
#    x 1.920820 0.000000 0.000000 
#    y 0.000000 1.920890 0.000000 
#    z 0.000000 0.000000 1.821910 
# 
# From -- ./inp_files/9338.got.cif
#   From: 2010.05.17/outbox.cif.g08.bks.cpg/sg41_5_cif.got.tgz:9338.got - 2010.06.03 18:54:24.
