data_PCOD9367434
_publ_section_title
;
Structure prediction by ZEFSAII (Michael W. Deem and Ramdas Pophale) SiO2 
 PCOD9367434
Probable space group: A B A 2
;
_chemical_formula_sum "Si O2"
_cell_formula_units_Z 48
_cell_length_a 11.460545
_cell_length_b 17.428661
_cell_length_c 11.986620
_cell_angle_alpha 90.000000
_cell_angle_beta 90.000000
_cell_angle_gamma 90.000000
_cell_volume 2394.230897
_symmetry_space_group_name_H-M "A B A 2"
_symmetry_group_IT_number 41
_symmetry_cell_setting 'orthorhombic'
loop_
_space_group_symop_operation_xyz
x,y,z
-x,-y,z
1/2-x,y,1/2+z
1/2+x,-y,1/2+z
x,1/2+y,1/2+z
-x,1/2-y,1/2+z
1/2-x,1/2+y,z
1/2+x,1/2-y,z
loop_
_atom_site_type_symbol
_atom_site_label
_atom_site_fract_x
_atom_site_fract_y
_atom_site_fract_z
Si Si1 0.491535 0.591688 0.189760
Si Si2 0.590736 0.844454 0.457438
Si Si3 0.930666 0.166982 0.519845
Si Si4 0.846309 0.900042 0.393539
Si Si5 0.696661 0.577658 0.352283
Si Si6 0.548645 0.584996 0.751206
O O1 0.500000 0.500000 0.190113
O O2 0.382972 0.620305 0.266046
O O3 0.609444 0.612437 0.257724
O O4 0.469281 0.615772 0.064046
O O5 0.572750 0.755193 0.484583
O O6 0.727094 0.865456 0.440981
O O7 0.531116 0.875673 0.345153
O O8 0.818136 0.129175 0.461420
O O9 0.937338 0.143087 0.648191
O O10 0.044917 0.127841 0.466024
O O11 0.839912 0.992244 0.389855
O O12 0.824855 0.572677 0.304459
O O13 0.500000 0.500000 0.719243
#
# Coordination Sequence:
#
# PCOD9367434 Si02
#       6
#     8   8   8   8   8   8
#     4   9  22  42  68  99 133 184 229 284 350 405
#     4  12  27  41  71 107 139 182 231 294 352 423
#     4  11  28  43  70 103 146 183 224 297 364 402
#     4  10  23  47  69  97 139 183 233 283 354 416
#     4  10  23  46  73  96 138 185 236 287 341 425
#     4  12  26  46  73 107 136 186 248 283 342 427
#
# _framework density 20.048192
#
# number of rings (size 3 to 8) (size 9 to 14) (size 15 to 20)
#    0.000    1.333    1.667    3.000   11.667    1.333 
#    0.000    0.000    0.000    0.000    0.000    0.000 
#    0.000    0.000    0.000    0.000    0.000    0.000 
#
# Total GULP energy -133985.509961 kJ/mol
# GULP energy per Si atom -5582.729582 kJ/mol
# Density = 2.000256 g / cm^3
# Si number density = 20.048192 Si / 1000 Ang^3
#
#
#
# Elastic Constant Matrix: (Units=GPa)
#
#
# Indices 1 2 3 4 5 6 
#
# 1 86.8285 26.7984 6.8436 0.0000 0.0000 0.0000
# 2 26.7984 93.2355 29.1593 0.0000 0.0000 0.0000
# 3 6.8436 29.1593 85.9560 0.0000 0.0000 0.0000
# 4 0.0000 0.0000 0.0000 22.2832 0.0000 0.0000
# 5 0.0000 0.0000 0.0000 0.0000 19.5657 0.0000
# 6 0.0000 0.0000 0.0000 0.0000 0.0000 10.3700
#
#
#
# Elastic Compliance Matrix: (Units=1/GPa)
#
#
# Indices 1 2 3 4 5 6 
#
# 1 0.012643 -0.003713 0.000253 0.000000 0.000000 0.000000
# 2 -0.003713 0.013089 -0.004145 0.000000 0.000000 0.000000
# 3 0.000253 -0.004145 0.013020 0.000000 0.000000 0.000000
# 4 0.000000 0.000000 0.000000 0.044877 0.000000 0.000000
# 5 0.000000 0.000000 0.000000 0.000000 0.051110 0.000000
# 6 0.000000 0.000000 0.000000 0.000000 0.000000 0.096432
#
#
# Mechanical properties :
#
#
# Convention : Reuss Voigt Hill
#
# Bulk Modulus (GPa) = 42.47667 43.51361 42.99514
# Shear Modulus (GPa) = 19.66744 23.99169 21.82956
#
# Velocity S-wave (km/s) = 3.13550 3.46309 3.30336
# Velocity P-wave (km/s) = 5.86019 6.14347 6.00350
#
# Compressibility (1/GPa) = 0.02354234
#
# Stress axis : x y z
#
# Youngs Moduli (GPa) = 79.09517 76.40006 76.80662
#
# Poissons Ratio (x) = 0.28368 -0.01943
# Poissons Ratio (y) = 0.29369 0.31833
# Poissons Ratio (z) = -0.02001 0.31665
#
# Static dielectric constant tensor:
#      x y z
#    x 1.705700 0.000000 0.000000 
#    y 0.000000 1.718450 0.000000 
#    z 0.000000 0.000000 1.716630 
# 
# From -- ./inp_files/4985.got.cif
#   From: 2010.05.17/outbox.cif.g08.bks.cpg/sg41_3_cif.got.tgz:4985.got - 2010.06.03 18:54:24.
