data_PCOD9367134
_publ_section_title
;
Structure prediction by ZEFSAII (Michael W. Deem and Ramdas Pophale) SiO2 
 PCOD9367134
Probable space group: A B A 2
;
_chemical_formula_sum "Si O2"
_cell_formula_units_Z 52
_cell_length_a 9.110311
_cell_length_b 14.148251
_cell_length_c 19.393324
_cell_angle_alpha 90.000000
_cell_angle_beta 90.000000
_cell_angle_gamma 90.000000
_cell_volume 2499.701851
_symmetry_space_group_name_H-M "A B A 2"
_symmetry_group_IT_number 41
_symmetry_cell_setting 'orthorhombic'
loop_
_space_group_symop_operation_xyz
x,y,z
-x,-y,z
1/2-x,y,1/2+z
1/2+x,-y,1/2+z
x,1/2+y,1/2+z
-x,1/2-y,1/2+z
1/2-x,1/2+y,z
1/2+x,1/2-y,z
loop_
_atom_site_type_symbol
_atom_site_label
_atom_site_fract_x
_atom_site_fract_y
_atom_site_fract_z
Si Si1 0.873734 0.326309 0.302100
Si Si2 0.874342 0.753712 0.395714
Si Si3 0.624558 0.689503 0.489951
Si Si4 0.439311 0.787867 0.666746
Si Si5 0.276215 0.442282 0.612574
Si Si6 0.000000 0.000000 0.724560
Si Si7 0.779628 0.338719 0.595793
O O1 0.720264 0.314757 0.341622
O O2 0.894357 0.247829 0.242047
O O3 0.902622 0.427693 0.268205
O O4 0.004191 0.306801 0.355970
O O5 0.754948 0.688748 0.433943
O O6 0.968630 0.812614 0.451756
O O7 0.656008 0.610124 0.546558
O O8 0.648958 0.790394 0.528755
O O9 0.361023 0.883140 0.640997
O O10 0.375429 0.709358 0.613784
O O11 0.611497 0.804401 0.656955
O O12 0.393435 0.442405 0.674211
O O13 0.235237 0.549608 0.594750
#
# Coordination Sequence:
#
# PCOD9367134 Si02
#       7
#     8   8   8   8   8   4   8
#     4  11  22  43  68  90 137 174 227 263 333 395
#     4  10  23  43  66  90 127 194 210 265 319 407
#     4  10  22  42  66  94 132 171 232 260 340 391
#     4  11  22  40  68  97 132 172 217 280 344 394
#     4  11  24  38  69 103 134 168 220 290 347 394
#     4  12  24  40  66 106 128 168 224 286 340 392
#     4  11  22  40  67 100 134 169 215 293 338 398
#
# _framework density 20.802481
#
# number of rings (size 3 to 8) (size 9 to 14) (size 15 to 20)
#    0.000    1.231    1.538    6.000    2.154    0.000 
#    5.538    0.000    3.385    0.000    0.000    0.000 
#    0.000    0.000    0.000    0.000    0.000    0.000 
#
# Total GULP energy -145409.676774 kJ/mol
# GULP energy per Si atom -5592.679876 kJ/mol
# Density = 2.075513 g / cm^3
# Si number density = 20.802481 Si / 1000 Ang^3
#
#
#
# Elastic Constant Matrix: (Units=GPa)
#
#
# Indices 1 2 3 4 5 6 
#
# 1 114.5417 29.7998 35.3274 0.0000 0.0000 0.0000
# 2 29.7998 125.9374 32.1222 0.0000 0.0000 0.0000
# 3 35.3274 32.1222 102.5271 0.0000 0.0000 0.0000
# 4 0.0000 0.0000 0.0000 28.9602 0.0000 0.0000
# 5 0.0000 0.0000 0.0000 0.0000 47.0571 0.0000
# 6 0.0000 0.0000 0.0000 0.0000 0.0000 22.2201
#
#
#
# Elastic Compliance Matrix: (Units=1/GPa)
#
#
# Indices 1 2 3 4 5 6 
#
# 1 0.010066 -0.001627 -0.002959 0.000000 0.000000 0.000000
# 2 -0.001627 0.008893 -0.002226 0.000000 0.000000 0.000000
# 3 -0.002959 -0.002226 0.011470 0.000000 0.000000 0.000000
# 4 0.000000 0.000000 0.000000 0.034530 0.000000 0.000000
# 5 0.000000 0.000000 0.000000 0.000000 0.021251 0.000000
# 6 0.000000 0.000000 0.000000 0.000000 0.000000 0.045004
#
#
# Mechanical properties :
#
#
# Convention : Reuss Voigt Hill
#
# Bulk Modulus (GPa) = 59.50005 59.72277 59.61141
# Shear Modulus (GPa) = 33.23576 36.03125 34.63351
#
# Velocity S-wave (km/s) = 4.00144 4.16632 4.08471
# Velocity P-wave (km/s) = 7.07200 7.20528 7.13895
#
# Compressibility (1/GPa) = 0.01680671
#
# Stress axis : x y z
#
# Youngs Moduli (GPa) = 99.34104 112.44588 87.18196
#
# Poissons Ratio (x) = 0.18298 0.25794
# Poissons Ratio (y) = 0.16166 0.19403
# Poissons Ratio (z) = 0.29392 0.25026
#
# Static dielectric constant tensor:
#      x y z
#    x 1.784420 0.000000 0.000000 
#    y 0.000000 1.718510 0.000000 
#    z 0.000000 0.000000 1.790930 
# 
# From -- ./inp_files/11157.got.cif
#   From: 2010.05.17/outbox.cif.g08.bks.cpg/sg41_6_cif.got.tgz:11157.got - 2010.06.03 18:54:24.
