data_PCOD9367899
_publ_section_title
;
Structure prediction by ZEFSAII (Michael W. Deem and Ramdas Pophale) SiO2 
 PCOD9367899
Probable space group: A B A 2
;
_chemical_formula_sum "Si O2"
_cell_formula_units_Z 60
_cell_length_a 29.392232
_cell_length_b 17.323114
_cell_length_c 5.357520
_cell_angle_alpha 90.000000
_cell_angle_beta 90.000000
_cell_angle_gamma 90.000000
_cell_volume 2727.861594
_symmetry_space_group_name_H-M "A B A 2"
_symmetry_group_IT_number 41
_symmetry_cell_setting 'orthorhombic'
loop_
_space_group_symop_operation_xyz
x,y,z
-x,-y,z
1/2-x,y,1/2+z
1/2+x,-y,1/2+z
x,1/2+y,1/2+z
-x,1/2-y,1/2+z
1/2-x,1/2+y,z
1/2+x,1/2-y,z
loop_
_atom_site_type_symbol
_atom_site_label
_atom_site_fract_x
_atom_site_fract_y
_atom_site_fract_z
Si Si1 0.000000 0.000000 0.206790
Si Si2 0.778810 0.082208 0.219411
Si Si3 0.129191 0.636560 0.287574
Si Si4 0.933593 0.208059 0.809620
Si Si5 0.138831 0.298510 0.688930
Si Si6 0.918162 0.579870 0.963753
Si Si7 0.534450 0.345992 0.956087
Si Si8 0.347035 0.549334 0.298251
O O1 0.025338 0.067137 0.052848
O O2 0.965559 0.046623 0.379358
O O3 0.755136 0.092184 0.487679
O O4 0.819108 0.144230 0.177770
O O5 0.801433 0.997313 0.229532
O O6 0.149301 0.721332 0.338329
O O7 0.074044 0.644267 0.246439
O O8 0.135682 0.586164 0.538577
O O9 0.153901 0.604671 0.039642
O O10 0.921565 0.118751 0.731109
O O11 0.942750 0.282921 0.637742
O O12 0.885819 0.229098 0.939435
O O13 0.985065 0.191697 0.906660
O O14 0.096779 0.345073 0.809079
O O15 0.881396 0.515734 0.904927
#
# Coordination Sequence:
#
# PCOD9367899 Si02
#       8
#     4   8   8   8   8   8   8   8
#     4  12  24  42  58 106 140 208 260 314 348 432
#     4  11  27  52  82 114 146 186 242 306 391 474
#     4  12  25  47  71 110 148 196 246 297 364 434
#     4  12  25  45  65 102 148 208 256 311 372 436
#     4  11  26  47  76 102 144 193 247 312 372 455
#     4  11  25  41  66  95 144 194 253 301 366 432
#     4  12  25  40  67  98 151 200 258 302 357 421
#     4  11  27  45  76 105 146 188 235 303 377 441
#
# _framework density 21.995249000000001
#
# number of rings (size 3 to 8) (size 9 to 14) (size 15 to 20)
#    0.000    0.533    4.000    3.200   11.200    0.000 
#    0.000    4.000    0.000    0.000    0.000    0.000 
#    0.000    0.000    0.000    0.000    0.000    0.000 
#
# Total GULP energy -167301.109731 kJ/mol
# GULP energy per Si atom -5576.703658 kJ/mol
# Density = 2.194519 g / cm^3
# Si number density = 21.995249 Si / 1000 Ang^3
#
#
#
# Elastic Constant Matrix: (Units=GPa)
#
#
# Indices 1 2 3 4 5 6 
#
# 1 52.4403 25.6809 21.8176 0.0000 0.0000 0.0000
# 2 25.6809 136.1776 30.9849 0.0000 0.0000 0.0000
# 3 21.8176 30.9849 70.4588 0.0000 0.0000 0.0000
# 4 0.0000 0.0000 0.0000 40.8018 0.0000 0.0000
# 5 0.0000 0.0000 0.0000 0.0000 27.2951 0.0000
# 6 0.0000 0.0000 0.0000 0.0000 0.0000 12.6241
#
#
#
# Elastic Compliance Matrix: (Units=1/GPa)
#
#
# Indices 1 2 3 4 5 6 
#
# 1 0.022950 -0.003012 -0.005782 0.000000 0.000000 0.000000
# 2 -0.003012 0.008555 -0.002829 0.000000 0.000000 0.000000
# 3 -0.005782 -0.002829 0.017227 0.000000 0.000000 0.000000
# 4 0.000000 0.000000 0.000000 0.024509 0.000000 0.000000
# 5 0.000000 0.000000 0.000000 0.000000 0.036637 0.000000
# 6 0.000000 0.000000 0.000000 0.000000 0.000000 0.079214
#
#
# Mechanical properties :
#
#
# Convention : Reuss Voigt Hill
#
# Bulk Modulus (GPa) = 39.23832 46.22706 42.73269
# Shear Modulus (GPa) = 22.64146 28.18377 25.41261
#
# Velocity S-wave (km/s) = 3.21188 3.58349 3.40276
# Velocity P-wave (km/s) = 5.62433 6.17935 5.90836
#
# Compressibility (1/GPa) = 0.02548529
#
# Stress axis : x y z
#
# Youngs Moduli (GPa) = 43.57300 116.88740 58.04756
#
# Poissons Ratio (x) = 0.35212 0.33561
# Poissons Ratio (y) = 0.13126 0.16424
# Poissons Ratio (z) = 0.25193 0.33073
#
# Static dielectric constant tensor:
#      x y z
#    x 1.801030 0.000000 0.000000 
#    y 0.000000 1.851260 0.000000 
#    z 0.000000 0.000000 2.305780 
# 
# From -- ./inp_files/1207.got.cif
#   From: 2010.05.17/outbox.cif.g08.bks.cpg/sg41_1_cif.got.tgz:1207.got - 2010.06.03 18:54:24.
