data_PCOD9367034
_publ_section_title
;
Structure prediction by ZEFSAII (Michael W. Deem and Ramdas Pophale) SiO2 
 PCOD9367034
Probable space group: A B A 2
;
_chemical_formula_sum "Si O2"
_cell_formula_units_Z 60
_cell_length_a 10.996408
_cell_length_b 8.698490
_cell_length_c 29.600329
_cell_angle_alpha 90.000000
_cell_angle_beta 90.000000
_cell_angle_gamma 90.000000
_cell_volume 2831.334962
_symmetry_space_group_name_H-M "A B A 2"
_symmetry_group_IT_number 41
_symmetry_cell_setting 'orthorhombic'
loop_
_space_group_symop_operation_xyz
x,y,z
-x,-y,z
1/2-x,y,1/2+z
1/2+x,-y,1/2+z
x,1/2+y,1/2+z
-x,1/2-y,1/2+z
1/2-x,1/2+y,z
1/2+x,1/2-y,z
loop_
_atom_site_type_symbol
_atom_site_label
_atom_site_fract_x
_atom_site_fract_y
_atom_site_fract_z
Si Si1 0.858919 0.502601 0.024190
Si Si2 0.376054 0.596791 0.162719
Si Si3 0.884819 0.892902 0.268242
Si Si4 0.500000 0.000000 0.441930
Si Si5 0.661880 0.830479 0.381640
Si Si6 0.860391 0.566261 0.124983
Si Si7 0.289207 0.788772 0.467690
Si Si8 0.279037 0.888914 0.318516
O O1 0.810309 0.536533 0.074127
O O2 0.000000 0.500000 0.031641
O O3 0.821560 0.341764 0.002963
O O4 0.830399 0.630730 0.986905
O O5 0.500000 0.500000 0.152325
O O6 0.387211 0.644474 0.215439
O O7 0.248308 0.505813 0.155598
O O8 0.370462 0.752362 0.133935
O O9 0.869189 0.740790 0.299067
O O10 0.770103 0.002523 0.279058
O O11 0.000000 0.000000 0.278899
O O12 0.455887 0.142859 0.411538
O O13 0.612702 0.073020 0.468042
O O14 0.764948 0.784807 0.418466
O O15 0.670159 0.704230 0.342927
O O16 0.676831 0.993655 0.356820
O O17 0.000000 0.500000 0.131469
#
# Coordination Sequence:
#
# PCOD9367034 Si02
#       8
#     8   8   8   4   8   8   8   8
#     4  11  25  43  66  95 134 168 221 276 333 392
#     4  11  23  44  71 101 139 177 222 278 351 417
#     4  10  23  41  64  95 131 172 214 275 335 396
#     4  12  24  38  68  92 128 176 220 268 336 386
#     4  11  22  39  61  93 130 173 218 268 321 386
#     4  11  24  44  70 101 135 176 226 281 343 414
#     4  12  23  44  64  97 130 174 220 270 335 397
#     4  10  22  40  61  93 129 168 222 266 321 388
#
# _framework density 21.191417999999999
#
# number of rings (size 3 to 8) (size 9 to 14) (size 15 to 20)
#    0.000    1.067    2.667    3.200    1.867    2.133 
#    1.200    1.333    0.000    0.000    0.000    0.000 
#    0.000    0.000    0.000    0.000    0.000    0.000 
#
# Total GULP energy -167341.869752 kJ/mol
# GULP energy per Si atom -5578.062325 kJ/mol
# Density = 2.114318 g / cm^3
# Si number density = 21.191418 Si / 1000 Ang^3
#
#
#
# Elastic Constant Matrix: (Units=GPa)
#
#
# Indices 1 2 3 4 5 6 
#
# 1 63.9018 11.6509 12.6836 0.0000 0.0000 0.0000
# 2 11.6509 71.2796 28.5275 0.0000 0.0000 0.0000
# 3 12.6836 28.5275 89.5257 0.0000 0.0000 0.0000
# 4 0.0000 0.0000 0.0000 27.2143 0.0000 0.0000
# 5 0.0000 0.0000 0.0000 0.0000 24.8889 0.0000
# 6 0.0000 0.0000 0.0000 0.0000 0.0000 28.6871
#
#
#
# Elastic Compliance Matrix: (Units=1/GPa)
#
#
# Indices 1 2 3 4 5 6 
#
# 1 0.016347 -0.002000 -0.001679 0.000000 0.000000 0.000000
# 2 -0.002000 0.016325 -0.004918 0.000000 0.000000 0.000000
# 3 -0.001679 -0.004918 0.012975 0.000000 0.000000 0.000000
# 4 0.000000 0.000000 0.000000 0.036745 0.000000 0.000000
# 5 0.000000 0.000000 0.000000 0.000000 0.040179 0.000000
# 6 0.000000 0.000000 0.000000 0.000000 0.000000 0.034859
#
#
# Mechanical properties :
#
#
# Convention : Reuss Voigt Hill
#
# Bulk Modulus (GPa) = 35.14676 36.71455 35.93066
# Shear Modulus (GPa) = 27.15797 27.61439 27.38618
#
# Velocity S-wave (km/s) = 3.58377 3.61375 3.59879
# Velocity P-wave (km/s) = 5.80912 5.89704 5.85325
#
# Compressibility (1/GPa) = 0.02845213
#
# Stress axis : x y z
#
# Youngs Moduli (GPa) = 61.17380 61.25704 77.07086
#
# Poissons Ratio (x) = 0.12252 0.12937
# Poissons Ratio (y) = 0.12236 0.37907
# Poissons Ratio (z) = 0.10269 0.30129
#
# Static dielectric constant tensor:
#      x y z
#    x 1.867970 0.000000 0.000000 
#    y 0.000000 1.744210 0.000000 
#    z 0.000000 0.000000 1.774300 
# 
# From -- ./inp_files/12514.got.cif
#   From: 2010.05.17/outbox.cif.g08.bks.cpg/sg41_7_cif.got.tgz:12514.got - 2010.06.03 18:54:24.
