data_PCOD9367791
_publ_section_title
;
Structure prediction by ZEFSAII (Michael W. Deem and Ramdas Pophale) SiO2 
 PCOD9367791
Probable space group: A B A 2
;
_chemical_formula_sum "Si O2"
_cell_formula_units_Z 40
_cell_length_a 24.741236
_cell_length_b 13.402967
_cell_length_c 4.868897
_cell_angle_alpha 90.000000
_cell_angle_beta 90.000000
_cell_angle_gamma 90.000000
_cell_volume 1614.555311
_symmetry_space_group_name_H-M "A B A 2"
_symmetry_group_IT_number 41
_symmetry_cell_setting 'orthorhombic'
loop_
_space_group_symop_operation_xyz
x,y,z
-x,-y,z
1/2-x,y,1/2+z
1/2+x,-y,1/2+z
x,1/2+y,1/2+z
-x,1/2-y,1/2+z
1/2-x,1/2+y,z
1/2+x,1/2-y,z
loop_
_atom_site_type_symbol
_atom_site_label
_atom_site_fract_x
_atom_site_fract_y
_atom_site_fract_z
Si Si1 0.853204 0.167191 0.684490
Si Si2 0.508671 0.316715 0.405712
Si Si3 0.285095 0.519208 0.790885
Si Si4 0.126342 0.123243 0.433265
Si Si5 0.407755 0.918938 0.684080
O O1 0.849872 0.280293 0.780780
O O2 0.869558 0.152798 0.368970
O O3 0.802323 0.096200 0.747959
O O4 0.899420 0.113696 0.872385
O O5 0.480363 0.248092 0.633113
O O6 0.565780 0.348822 0.532652
O O7 0.467566 0.400479 0.298417
O O8 0.233029 0.538200 0.599488
O O9 0.333463 0.585168 0.668387
O O10 0.113215 0.029552 0.236664
#
# Coordination Sequence:
#
# PCOD9367791 Si02
#       5
#     8   8   8   8   8
#     4  11  24  44  70  97 138 180 229 290 348 417
#     4  12  23  42  68 105 148 185 225 278 353 428
#     4  11  26  47  69 102 135 179 245 306 355 415
#     4  11  25  44  75 101 139 190 232 285 357 427
#     4  11  23  43  66 105 144 181 225 279 336 431
#
# _framework density 24.774622000000001
#
# number of rings (size 3 to 8) (size 9 to 14) (size 15 to 20)
#    0.000    0.800    4.000    3.000    0.000   11.200 
#    0.000    6.000    0.000    0.000    0.000    0.000 
#    0.000    0.000    0.000    0.000    0.000    0.000 
#
# Total GULP energy -112060.697226 kJ/mol
# GULP energy per Si atom -5603.034861 kJ/mol
# Density = 2.471823 g / cm^3
# Si number density = 24.774622 Si / 1000 Ang^3
#
#
#
# Elastic Constant Matrix: (Units=GPa)
#
#
# Indices 1 2 3 4 5 6 
#
# 1 117.4407 38.6430 13.6988 0.0000 0.0000 0.0000
# 2 38.6430 155.2695 12.7842 0.0000 0.0000 0.0000
# 3 13.6988 12.7842 72.1558 0.0000 0.0000 0.0000
# 4 0.0000 0.0000 0.0000 22.6380 0.0000 0.0000
# 5 0.0000 0.0000 0.0000 0.0000 39.2159 0.0000
# 6 0.0000 0.0000 0.0000 0.0000 0.0000 44.8729
#
#
#
# Elastic Compliance Matrix: (Units=1/GPa)
#
#
# Indices 1 2 3 4 5 6 
#
# 1 0.009410 -0.002227 -0.001392 0.000000 0.000000 0.000000
# 2 -0.002227 0.007063 -0.000829 0.000000 0.000000 0.000000
# 3 -0.001392 -0.000829 0.014270 0.000000 0.000000 0.000000
# 4 0.000000 0.000000 0.000000 0.044174 0.000000 0.000000
# 5 0.000000 0.000000 0.000000 0.000000 0.025500 0.000000
# 6 0.000000 0.000000 0.000000 0.000000 0.000000 0.022285
#
#
# Mechanical properties :
#
#
# Convention : Reuss Voigt Hill
#
# Bulk Modulus (GPa) = 45.77177 52.79092 49.28134
# Shear Modulus (GPa) = 36.00237 39.99470 37.99854
#
# Velocity S-wave (km/s) = 3.81622 4.02225 3.92058
# Velocity P-wave (km/s) = 6.15901 6.55179 6.35843
#
# Compressibility (1/GPa) = 0.02184753
#
# Stress axis : x y z
#
# Youngs Moduli (GPa) = 106.26766 141.58341 70.07739
#
# Poissons Ratio (x) = 0.31536 0.09754
# Poissons Ratio (y) = 0.23670 0.05806
# Poissons Ratio (z) = 0.14791 0.11730
#
# Static dielectric constant tensor:
#      x y z
#    x 2.018210 0.000000 0.000000 
#    y 0.000000 1.972170 0.000000 
#    z 0.000000 0.000000 1.885890 
# 
# From -- ./inp_files/1091.got.cif
#   From: 2010.05.17/outbox.cif.g08.bks.cpg/sg41_1_cif.got.tgz:1091.got - 2010.06.03 18:54:24.
