data_PCOD9367376
_publ_section_title
;
Structure prediction by ZEFSAII (Michael W. Deem and Ramdas Pophale) SiO2 
 PCOD9367376
Probable space group: A B A 2
;
_chemical_formula_sum "Si O2"
_cell_formula_units_Z 52
_cell_length_a 18.736579
_cell_length_b 21.824115
_cell_length_c 5.007246
_cell_angle_alpha 90.000000
_cell_angle_beta 90.000000
_cell_angle_gamma 90.000000
_cell_volume 2047.509230
_symmetry_space_group_name_H-M "A B A 2"
_symmetry_group_IT_number 41
_symmetry_cell_setting 'orthorhombic'
loop_
_space_group_symop_operation_xyz
x,y,z
-x,-y,z
1/2-x,y,1/2+z
1/2+x,-y,1/2+z
x,1/2+y,1/2+z
-x,1/2-y,1/2+z
1/2-x,1/2+y,z
1/2+x,1/2-y,z
loop_
_atom_site_type_symbol
_atom_site_label
_atom_site_fract_x
_atom_site_fract_y
_atom_site_fract_z
Si Si1 0.428188 0.694823 0.431650
Si Si2 0.153761 0.510539 0.346434
Si Si3 0.000000 0.500000 0.106672
Si Si4 0.208656 0.145901 0.745991
Si Si5 0.903172 0.578355 0.751278
Si Si6 0.292286 0.385139 0.621071
Si Si7 0.980550 0.171070 0.923033
O O1 0.357945 0.670100 0.575819
O O2 0.432653 0.768281 0.452339
O O3 0.490099 0.671792 0.627840
O O4 0.453172 0.675894 0.134090
O O5 0.195016 0.573199 0.292975
O O6 0.192253 0.457793 0.171988
O O7 0.070401 0.521033 0.265851
O O8 0.144565 0.478092 0.636245
O O9 0.968456 0.551038 0.912658
O O10 0.226054 0.165059 0.049236
O O11 0.861059 0.626492 0.937579
O O12 0.934502 0.612378 0.495342
O O13 0.271019 0.365596 0.918212
#
# Coordination Sequence:
#
# PCOD9367376 Si02
#       7
#     8   8   4   8   8   8   8
#     4  10  23  46  70  97 131 170 230 280 337 396
#     4  11  24  39  60  94 131 175 215 269 330 397
#     4  10  24  36  60  98 136 168 218 274 330 398
#     4  12  27  42  68  94 134 183 222 273 325 408
#     4  11  24  38  65  95 133 168 215 274 330 405
#     4  11  22  39  57  81 123 167 209 247 305 392
#     4  10  23  43  73 100 127 170 219 291 346 386
#
# _framework density 25.396709000000001
#
# number of rings (size 3 to 8) (size 9 to 14) (size 15 to 20)
#    0.000    1.231    1.538    3.231   12.923    0.000 
#    0.000    1.538    0.000    0.000    0.000    0.000 
#    0.000    0.000    0.000    0.000    0.000    0.000 
#
# Total GULP energy -145271.341350 kJ/mol
# GULP energy per Si atom -5587.359283 kJ/mol
# Density = 2.533890 g / cm^3
# Si number density = 25.396709 Si / 1000 Ang^3
#
#
#
# Elastic Constant Matrix: (Units=GPa)
#
#
# Indices 1 2 3 4 5 6 
#
# 1 70.3874 12.1848 8.5724 0.0000 0.0000 0.0000
# 2 12.1848 34.0966 11.8857 0.0000 0.0000 0.0000
# 3 8.5724 11.8857 142.2474 0.0000 0.0000 0.0000
# 4 0.0000 0.0000 0.0000 28.1952 0.0000 0.0000
# 5 0.0000 0.0000 0.0000 0.0000 37.4764 0.0000
# 6 0.0000 0.0000 0.0000 0.0000 0.0000 20.9267
#
#
#
# Elastic Compliance Matrix: (Units=1/GPa)
#
#
# Indices 1 2 3 4 5 6 
#
# 1 0.015175 -0.005257 -0.000475 0.000000 0.000000 0.000000
# 2 -0.005257 0.032030 -0.002359 0.000000 0.000000 0.000000
# 3 -0.000475 -0.002359 0.007256 0.000000 0.000000 0.000000
# 4 0.000000 0.000000 0.000000 0.035467 0.000000 0.000000
# 5 0.000000 0.000000 0.000000 0.000000 0.026683 0.000000
# 6 0.000000 0.000000 0.000000 0.000000 0.000000 0.047786
#
#
# Mechanical properties :
#
#
# Convention : Reuss Voigt Hill
#
# Bulk Modulus (GPa) = 26.12569 34.66859 30.39714
# Shear Modulus (GPa) = 25.86123 31.59223 28.72673
#
# Velocity S-wave (km/s) = 3.19453 3.53079 3.36686
# Velocity P-wave (km/s) = 4.89040 5.50477 5.20666
#
# Compressibility (1/GPa) = 0.03827650
#
# Stress axis : x y z
#
# Youngs Moduli (GPa) = 65.89764 31.22107 137.82088
#
# Poissons Ratio (x) = 0.16414 0.06550
# Poissons Ratio (y) = 0.34644 0.32518
# Poissons Ratio (z) = 0.03132 0.07366
#
# Static dielectric constant tensor:
#      x y z
#    x 2.104040 0.000000 0.000000 
#    y 0.000000 1.999590 0.000000 
#    z 0.000000 0.000000 2.018210 
# 
# From -- ./inp_files/531.got.cif
#   From: 2010.05.17/outbox.cif.g08.bks.cpg/sg41_1_cif.got.tgz:531.got - 2010.06.03 18:54:24.
