data_PCOD9367498
_publ_section_title
;
Structure prediction by ZEFSAII (Michael W. Deem and Ramdas Pophale) SiO2 
 PCOD9367498
Probable space group: A B A 2
;
_chemical_formula_sum "Si O2"
_cell_formula_units_Z 64
_cell_length_a 29.368620
_cell_length_b 7.666767
_cell_length_c 12.539623
_cell_angle_alpha 90.000000
_cell_angle_beta 90.000000
_cell_angle_gamma 90.000000
_cell_volume 2823.451192
_symmetry_space_group_name_H-M "A B A 2"
_symmetry_group_IT_number 41
_symmetry_cell_setting 'orthorhombic'
loop_
_space_group_symop_operation_xyz
x,y,z
-x,-y,z
1/2-x,y,1/2+z
1/2+x,-y,1/2+z
x,1/2+y,1/2+z
-x,1/2-y,1/2+z
1/2-x,1/2+y,z
1/2+x,1/2-y,z
loop_
_atom_site_type_symbol
_atom_site_label
_atom_site_fract_x
_atom_site_fract_y
_atom_site_fract_z
Si Si1 0.610927 0.779529 0.506520
Si Si2 0.800548 0.617212 0.735988
Si Si3 0.779700 0.292551 0.867485
Si Si4 0.101301 0.331049 0.775936
Si Si5 0.704009 0.972497 0.500536
Si Si6 0.477331 0.689154 0.638783
Si Si7 0.452011 0.404344 0.935499
Si Si8 0.429277 0.715056 0.220242
O O1 0.598065 0.668386 0.403481
O O2 0.597103 0.700647 0.619992
O O3 0.663619 0.832595 0.502735
O O4 0.581846 0.956467 0.488896
O O5 0.807040 0.444131 0.808908
O O6 0.757971 0.720106 0.784544
O O7 0.847551 0.722083 0.743922
O O8 0.791693 0.556064 0.616521
O O9 0.805945 0.128548 0.916642
O O10 0.750309 0.382277 0.961390
O O11 0.064239 0.207598 0.720755
O O12 0.092098 0.525414 0.735532
O O13 0.500000 0.500000 0.633442
O O14 0.462386 0.757236 0.523457
O O15 0.518576 0.806507 0.683092
O O16 0.500000 0.500000 0.910255
O O17 0.430690 0.322582 0.829201
#
# Coordination Sequence:
#
# PCOD9367498 Si02
#       8
#     8   8   8   8   8   8   8   8
#     4  12  25  45  68 101 144 182 236 294 347 420
#     4  11  22  45  69 105 139 179 233 286 349 424
#     4  10  24  42  71 102 136 190 229 283 369 413
#     4  12  25  47  71 101 146 187 236 296 348 425
#     4  11  22  43  69 100 142 180 231 292 348 421
#     4  12  26  47  72 105 137 195 238 289 362 420
#     4  12  25  48  69  98 142 182 234 293 347 420
#     4  12  26  45  72 100 139 187 231 288 352 412
#
# _framework density 22.667293000000001
#
# number of rings (size 3 to 8) (size 9 to 14) (size 15 to 20)
#    0.000    0.500    5.000    3.000    3.500    0.000 
#    0.000    0.000    0.000    0.000    0.000    0.000 
#    0.000    0.000    0.000    0.000    0.000    0.000 
#
# Total GULP energy -179255.473689 kJ/mol
# GULP energy per Si atom -5601.733553 kJ/mol
# Density = 2.261570 g / cm^3
# Si number density = 22.667293 Si / 1000 Ang^3
#
#
#
# Elastic Constant Matrix: (Units=GPa)
#
#
# Indices 1 2 3 4 5 6 
#
# 1 81.2890 2.1194 32.5936 0.0000 0.0000 0.0000
# 2 2.1194 24.9726 11.7885 0.0000 0.0000 0.0000
# 3 32.5936 11.7885 151.7995 0.0000 0.0000 0.0000
# 4 0.0000 0.0000 0.0000 40.7109 0.0000 0.0000
# 5 0.0000 0.0000 0.0000 0.0000 1.7489 0.0000
# 6 0.0000 0.0000 0.0000 0.0000 0.0000 12.7291
#
#
#
# Elastic Compliance Matrix: (Units=1/GPa)
#
#
# Indices 1 2 3 4 5 6 
#
# 1 0.013462 0.000230 -0.002908 0.000000 0.000000 0.000000
# 2 0.000230 0.041572 -0.003278 0.000000 0.000000 0.000000
# 3 -0.002908 -0.003278 0.007467 0.000000 0.000000 0.000000
# 4 0.000000 0.000000 0.000000 0.024563 0.000000 0.000000
# 5 0.000000 0.000000 0.000000 0.000000 0.571778 0.000000
# 6 0.000000 0.000000 0.000000 0.000000 0.000000 0.078560
#
#
# Mechanical properties :
#
#
# Convention : Reuss Voigt Hill
#
# Bulk Modulus (GPa) = 19.76726 39.00712 29.38719
# Shear Modulus (GPa) = 6.52591 25.14175 15.83383
#
# Velocity S-wave (km/s) = 1.69860 3.33402 2.64584
# Velocity P-wave (km/s) = 3.54775 5.66276 4.72511
#
# Compressibility (1/GPa) = 0.05058869
#
# Stress axis : x y z
#
# Youngs Moduli (GPa) = 74.28366 24.05478 133.92866
#
# Poissons Ratio (x) = -0.00554 0.38951
# Poissons Ratio (y) = -0.01712 0.43900
# Poissons Ratio (z) = 0.21604 0.07885
#
# Static dielectric constant tensor:
#      x y z
#    x 1.818890 0.000000 0.000000 
#    y 0.000000 1.855010 0.000000 
#    z 0.000000 0.000000 1.831000 
# 
# From -- ./inp_files/6680.got.cif
#   From: 2010.05.17/outbox.cif.g08.bks.cpg/sg41_4_cif.got.tgz:6680.got - 2010.06.03 18:54:24.
