data_PCOD9367251
_publ_section_title
;
Structure prediction by ZEFSAII (Michael W. Deem and Ramdas Pophale) SiO2 
 PCOD9367251
Probable space group: A B A 2
;
_chemical_formula_sum "Si O2"
_cell_formula_units_Z 60
_cell_length_a 10.818895
_cell_length_b 20.973006
_cell_length_c 11.098125
_cell_angle_alpha 90.000000
_cell_angle_beta 90.000000
_cell_angle_gamma 90.000000
_cell_volume 2518.217276
_symmetry_space_group_name_H-M "A B A 2"
_symmetry_group_IT_number 41
_symmetry_cell_setting 'orthorhombic'
loop_
_space_group_symop_operation_xyz
x,y,z
-x,-y,z
1/2-x,y,1/2+z
1/2+x,-y,1/2+z
x,1/2+y,1/2+z
-x,1/2-y,1/2+z
1/2-x,1/2+y,z
1/2+x,1/2-y,z
loop_
_atom_site_type_symbol
_atom_site_label
_atom_site_fract_x
_atom_site_fract_y
_atom_site_fract_z
Si Si1 0.084023 0.629771 0.007950
Si Si2 0.712862 0.028565 0.687338
Si Si3 0.183963 0.238117 0.209723
Si Si4 0.051596 0.405401 0.509684
Si Si5 0.500000 0.000000 0.874276
Si Si6 0.932807 0.237563 0.061495
Si Si7 0.923241 0.627265 0.251861
Si Si8 0.195070 0.106866 0.150994
O O1 0.059340 0.703290 0.967475
O O2 0.229058 0.629222 0.035140
O O3 0.015002 0.631508 0.138806
O O4 0.043716 0.563917 0.945151
O O5 0.653454 0.045261 0.557047
O O6 0.812055 0.081605 0.714073
O O7 0.609350 0.026282 0.790284
O O8 0.763108 0.957152 0.690091
O O9 0.322566 0.248751 0.157813
O O10 0.137641 0.302470 0.274804
O O11 0.189804 0.163361 0.248443
O O12 0.072533 0.232368 0.111797
O O13 0.101332 0.333596 0.523334
O O14 0.017768 0.405396 0.369770
O O15 0.939548 0.411899 0.603436
#
# Coordination Sequence:
#
# PCOD9367251 Si02
#       8
#     8   8   8   8   4   8   8   8
#     4  10  24  45  66 103 136 179 233 284 355 409
#     4  12  25  44  68  98 135 187 230 286 349 418
#     4   9  19  40  68  97 136 177 222 285 343 409
#     4  11  23  45  69 102 134 182 233 283 354 410
#     4  12  26  44  64 100 138 192 228 292 352 416
#     4   9  19  40  68  95 138 175 228 287 339 419
#     4  11  25  42  74 102 137 180 233 291 344 420
#     4  10  22  45  69  95 143 172 233 288 344 421
#
# _framework density 23.826378999999999
#
# number of rings (size 3 to 8) (size 9 to 14) (size 15 to 20)
#    0.000    1.600    2.667    0.800    3.733    2.133 
#    7.200   10.667    0.000    0.000    0.000    0.000 
#    0.000    0.000    0.000    0.000    0.000    0.000 
#
# Total GULP energy -167197.436762 kJ/mol
# GULP energy per Si atom -5573.247892 kJ/mol
# Density = 2.377215 g / cm^3
# Si number density = 23.826379 Si / 1000 Ang^3
#
#
#
# Elastic Constant Matrix: (Units=GPa)
#
#
# Indices 1 2 3 4 5 6 
#
# 1 76.5013 15.5934 7.8375 0.0000 0.0000 0.0000
# 2 15.5934 188.5959 28.3941 0.0000 0.0000 0.0000
# 3 7.8375 28.3941 58.3278 0.0000 0.0000 0.0000
# 4 0.0000 0.0000 0.0000 15.4427 0.0000 0.0000
# 5 0.0000 0.0000 0.0000 0.0000 9.8802 0.0000
# 6 0.0000 0.0000 0.0000 0.0000 0.0000 29.7078
#
#
#
# Elastic Compliance Matrix: (Units=1/GPa)
#
#
# Indices 1 2 3 4 5 6 
#
# 1 0.013395 -0.000903 -0.001360 0.000000 0.000000 0.000000
# 2 -0.000903 0.005783 -0.002694 0.000000 0.000000 0.000000
# 3 -0.001360 -0.002694 0.018639 0.000000 0.000000 0.000000
# 4 0.000000 0.000000 0.000000 0.064755 0.000000 0.000000
# 5 0.000000 0.000000 0.000000 0.000000 0.101213 0.000000
# 6 0.000000 0.000000 0.000000 0.000000 0.000000 0.033661
#
#
# Mechanical properties :
#
#
# Convention : Reuss Voigt Hill
#
# Bulk Modulus (GPa) = 35.83904 47.45275 41.64589
# Shear Modulus (GPa) = 19.48104 29.11282 24.29693
#
# Velocity S-wave (km/s) = 2.86252 3.49932 3.19682
# Velocity P-wave (km/s) = 5.09899 6.02381 5.58059
#
# Compressibility (1/GPa) = 0.02790254
#
# Stress axis : x y z
#
# Youngs Moduli (GPa) = 74.65440 172.93494 53.65227
#
# Poissons Ratio (x) = 0.15611 0.07299
# Poissons Ratio (y) = 0.06739 0.14452
# Poissons Ratio (z) = 0.10156 0.46582
#
# Static dielectric constant tensor:
#      x y z
#    x 1.973490 0.000000 0.000000 
#    y 0.000000 2.000050 0.000000 
#    z 0.000000 0.000000 1.991780 
# 
# From -- ./inp_files/5115.got.cif
#   From: 2010.05.17/outbox.cif.g08.bks.cpg/sg41_3_cif.got.tgz:5115.got - 2010.06.03 18:54:24.
