data_PCOD9367970
_publ_section_title
;
Structure prediction by ZEFSAII (Michael W. Deem and Ramdas Pophale) SiO2 
 PCOD9367970
Probable space group: A B A 2
;
_chemical_formula_sum "Si O2"
_cell_formula_units_Z 36
_cell_length_a 17.741391
_cell_length_b 13.980020
_cell_length_c 5.837938
_cell_angle_alpha 90.000000
_cell_angle_beta 90.000000
_cell_angle_gamma 90.000000
_cell_volume 1447.954578
_symmetry_space_group_name_H-M "A B A 2"
_symmetry_group_IT_number 41
_symmetry_cell_setting 'orthorhombic'
loop_
_space_group_symop_operation_xyz
x,y,z
-x,-y,z
1/2-x,y,1/2+z
1/2+x,-y,1/2+z
x,1/2+y,1/2+z
-x,1/2-y,1/2+z
1/2-x,1/2+y,z
1/2+x,1/2-y,z
loop_
_atom_site_type_symbol
_atom_site_label
_atom_site_fract_x
_atom_site_fract_y
_atom_site_fract_z
Si Si1 0.054577 0.855650 0.529380
Si Si2 0.214968 0.825152 0.974520
Si Si3 0.500000 0.500000 0.156762
Si Si4 0.605277 0.796833 0.211811
Si Si5 0.857609 0.995152 0.837122
O O1 0.102377 0.766756 0.439966
O O2 0.107738 0.933477 0.647928
O O3 0.981316 0.827089 0.672313
O O4 0.020003 0.909342 0.310283
O O5 0.251429 0.800926 0.224024
O O6 0.135241 0.770457 0.007099
O O7 0.204020 0.940454 0.965025
O O8 0.573272 0.478204 0.009378
O O9 0.656882 0.891141 0.233569
#
# Coordination Sequence:
#
# PCOD9367970 Si02
#       5
#     8   8   4   8   8
#     4  12  23  44  73 120 152 179 243 320 394 461
#     4  12  30  52  72 106 154 208 266 309 358 461
#     4  12  20  42  76 112 152 184 230 320 406 446
#     4  12  24  45  79 105 150 198 248 310 390 454
#     4  12  25  48  74 110 151 193 244 321 394 448
#
# _framework density 24.862658
#
# number of rings (size 3 to 8) (size 9 to 14) (size 15 to 20)
#    0.000    0.000    6.667    4.000    0.000    3.556 
#    0.000    0.000    0.000    0.000    0.000    0.000 
#    0.000    0.000    0.000    0.000    0.000    0.000 
#
# Total GULP energy -100761.837510 kJ/mol
# GULP energy per Si atom -5597.879862 kJ/mol
# Density = 2.480607 g / cm^3
# Si number density = 24.862658 Si / 1000 Ang^3
#
#
#
# Elastic Constant Matrix: (Units=GPa)
#
#
# Indices 1 2 3 4 5 6 
#
# 1 54.9625 15.0033 35.8198 0.0000 0.0000 0.0000
# 2 15.0033 170.9326 45.6797 0.0000 0.0000 0.0000
# 3 35.8198 45.6797 126.9662 0.0000 0.0000 0.0000
# 4 0.0000 0.0000 0.0000 -13.4089 0.0000 0.0000
# 5 0.0000 0.0000 0.0000 0.0000 19.6172 0.0000
# 6 0.0000 0.0000 0.0000 0.0000 0.0000 27.6373
#
#
#
# Elastic Compliance Matrix: (Units=1/GPa)
#
#
# Indices 1 2 3 4 5 6 
#
# 1 0.022308 -0.000306 -0.006183 0.000000 0.000000 0.000000
# 2 -0.000306 0.006477 -0.002244 0.000000 0.000000 0.000000
# 3 -0.006183 -0.002244 0.010428 0.000000 0.000000 0.000000
# 4 0.000000 0.000000 0.000000 -0.074577 0.000000 0.000000
# 5 0.000000 0.000000 0.000000 0.000000 0.050976 0.000000
# 6 0.000000 0.000000 0.000000 0.000000 0.000000 0.036183
#
#
# Mechanical properties :
#
#
# Convention : Reuss Voigt Hill
#
# Bulk Modulus (GPa) = 45.98511 60.65186 53.31849
# Shear Modulus (GPa) = 65.35224 23.85967 44.60596
#
# Velocity S-wave (km/s) = 5.13248 3.10120 4.24027
# Velocity P-wave (km/s) = 7.32523 6.10499 6.74277
#
# Compressibility (1/GPa) = 0.02174617
#
# Stress axis : x y z
#
# Youngs Moduli (GPa) = 44.82797 154.39818 95.89622
#
# Poissons Ratio (x) = 0.04717 0.59297
# Poissons Ratio (y) = 0.01370 0.21519
# Poissons Ratio (z) = 0.27719 0.34647
#
# Static dielectric constant tensor:
#      x y z
#    x 2.087730 0.000000 0.000000 
#    y 0.000000 2.009940 0.000000 
#    z 0.000000 0.000000 1.976050 
# 
# From -- ./inp_files/629.got.cif
#   From: 2010.05.17/outbox.cif.g08.bks.cpg/sg41_1_cif.got.tgz:629.got - 2010.06.03 18:54:24.
