data_PCOD9367520
_publ_section_title
;
Structure prediction by ZEFSAII (Michael W. Deem and Ramdas Pophale) SiO2 
 PCOD9367520
Probable space group: A B A 2
;
_chemical_formula_sum "Si O2"
_cell_formula_units_Z 60
_cell_length_a 12.897751
_cell_length_b 8.417191
_cell_length_c 26.309396
_cell_angle_alpha 90.000000
_cell_angle_beta 90.000000
_cell_angle_gamma 90.000000
_cell_volume 2856.222581
_symmetry_space_group_name_H-M "A B A 2"
_symmetry_group_IT_number 41
_symmetry_cell_setting 'orthorhombic'
loop_
_space_group_symop_operation_xyz
x,y,z
-x,-y,z
1/2-x,y,1/2+z
1/2+x,-y,1/2+z
x,1/2+y,1/2+z
-x,1/2-y,1/2+z
1/2-x,1/2+y,z
1/2+x,1/2-y,z
loop_
_atom_site_type_symbol
_atom_site_label
_atom_site_fract_x
_atom_site_fract_y
_atom_site_fract_z
Si Si1 0.939213 0.161688 0.824010
Si Si2 0.103554 0.291936 0.748125
Si Si3 0.000000 0.000000 0.576553
Si Si4 0.880027 0.558280 0.534053
Si Si5 0.251992 0.018727 0.789591
Si Si6 0.549292 0.676854 0.134180
Si Si7 0.886145 0.923541 0.389975
Si Si8 0.179189 0.603098 0.001445
O O1 0.835159 0.115974 0.795275
O O2 0.910655 0.240928 0.877038
O O3 0.008165 0.271805 0.787092
O O4 0.000000 0.000000 0.832677
O O5 0.157670 0.462345 0.752438
O O6 0.078769 0.262470 0.689736
O O7 0.186361 0.164864 0.768894
O O8 0.994292 0.167471 0.608032
O O9 0.100365 0.016649 0.540218
O O10 0.866277 0.626606 0.591541
O O11 0.796338 0.425203 0.520140
O O12 0.854390 0.712754 0.500813
O O13 0.000000 0.500000 0.529772
O O14 0.307669 0.032561 0.844374
O O15 0.500000 0.500000 0.142528
O O16 0.837566 0.958454 0.444342
O O17 0.000000 0.000000 0.386435
#
# Coordination Sequence:
#
# PCOD9367520 Si02
#       8
#     8   8   4   8   8   8   8   8
#     4  10  24  44  63  97 142 182 231 296 345 430
#     4  11  24  43  68 100 140 187 233 295 358 438
#     4  10  24  50  70 108 144 190 254 318 364 448
#     4  10  26  50  71 110 145 181 249 311 365 449
#     4  11  24  42  63 100 144 178 235 285 355 432
#     4  10  25  45  74 104 143 192 245 302 374 433
#     4  12  24  43  70 101 135 192 237 291 360 429
#     4  11  26  45  77 100 146 192 245 306 378 432
#
# _framework density 21.006767
#
# number of rings (size 3 to 8) (size 9 to 14) (size 15 to 20)
#    0.000    1.333    3.333    0.000   12.133    2.667 
#    2.400    0.000    0.000    0.000    0.000    0.000 
#    0.000    0.000    0.000    0.000    0.000    0.000 
#
# Total GULP energy -167219.147793 kJ/mol
# GULP energy per Si atom -5573.971593 kJ/mol
# Density = 2.095895 g / cm^3
# Si number density = 21.006767 Si / 1000 Ang^3
#
#
#
# Elastic Constant Matrix: (Units=GPa)
#
#
# Indices 1 2 3 4 5 6 
#
# 1 120.5046 46.0557 49.5451 0.0000 0.0000 0.0000
# 2 46.0557 79.0523 16.8186 0.0000 0.0000 0.0000
# 3 49.5451 16.8186 116.6810 0.0000 0.0000 0.0000
# 4 0.0000 0.0000 0.0000 21.9635 0.0000 0.0000
# 5 0.0000 0.0000 0.0000 0.0000 18.2595 0.0000
# 6 0.0000 0.0000 0.0000 0.0000 0.0000 37.4138
#
#
#
# Elastic Compliance Matrix: (Units=1/GPa)
#
#
# Indices 1 2 3 4 5 6 
#
# 1 0.012546 -0.006371 -0.004409 0.000000 0.000000 0.000000
# 2 -0.006371 0.016286 0.000358 0.000000 0.000000 0.000000
# 3 -0.004409 0.000358 0.010391 0.000000 0.000000 0.000000
# 4 0.000000 0.000000 0.000000 0.045530 0.000000 0.000000
# 5 0.000000 0.000000 0.000000 0.000000 0.054766 0.000000
# 6 0.000000 0.000000 0.000000 0.000000 0.000000 0.026728
#
#
# Mechanical properties :
#
#
# Convention : Reuss Voigt Hill
#
# Bulk Modulus (GPa) = 54.41289 60.11962 57.26625
# Shear Modulus (GPa) = 25.87752 29.11527 27.49640
#
# Velocity S-wave (km/s) = 3.51360 3.72693 3.62184
# Velocity P-wave (km/s) = 6.51301 6.87032 6.69405
#
# Compressibility (1/GPa) = 0.01837800
#
# Stress axis : x y z
#
# Youngs Moduli (GPa) = 79.70491 61.40375 96.23777
#
# Poissons Ratio (x) = 0.39123 0.42431
# Poissons Ratio (y) = 0.50783 -0.03445
# Poissons Ratio (z) = 0.35142 -0.02198
#
# Static dielectric constant tensor:
#      x y z
#    x 2.108960 0.000000 0.000000 
#    y 0.000000 2.033950 0.000000 
#    z 0.000000 0.000000 1.718660 
# 
# From -- ./inp_files/12509.got.cif
#   From: 2010.05.17/outbox.cif.g08.bks.cpg/sg41_7_cif.got.tgz:12509.got - 2010.06.03 18:54:24.
