data_PCOD9367973
_publ_section_title
;
Structure prediction by ZEFSAII (Michael W. Deem and Ramdas Pophale) SiO2 
 PCOD9367973
Probable space group: A B A 2
;
_chemical_formula_sum "Si O2"
_cell_formula_units_Z 64
_cell_length_a 20.959061
_cell_length_b 14.847716
_cell_length_c 9.254794
_cell_angle_alpha 90.000000
_cell_angle_beta 90.000000
_cell_angle_gamma 90.000000
_cell_volume 2880.038079
_symmetry_space_group_name_H-M "A B A 2"
_symmetry_group_IT_number 41
_symmetry_cell_setting 'orthorhombic'
loop_
_space_group_symop_operation_xyz
x,y,z
-x,-y,z
1/2-x,y,1/2+z
1/2+x,-y,1/2+z
x,1/2+y,1/2+z
-x,1/2-y,1/2+z
1/2-x,1/2+y,z
1/2+x,1/2-y,z
loop_
_atom_site_type_symbol
_atom_site_label
_atom_site_fract_x
_atom_site_fract_y
_atom_site_fract_z
Si Si1 0.168793 0.423643 0.096250
Si Si2 0.366467 0.471800 0.284801
Si Si3 0.631309 0.829941 0.376272
Si Si4 0.242202 0.762164 0.519002
Si Si5 0.868336 0.210876 0.833667
Si Si6 0.937788 0.866121 0.161841
Si Si7 0.760995 0.914004 0.715494
Si Si8 0.080365 0.801817 0.143660
O O1 0.133425 0.378724 0.234080
O O2 0.196825 0.522072 0.117075
O O3 0.129626 0.435775 0.948595
O O4 0.231195 0.359624 0.086305
O O5 0.422431 0.539411 0.236771
O O6 0.302437 0.531799 0.259542
O O7 0.372273 0.382797 0.187433
O O8 0.672848 0.750671 0.447415
O O9 0.582000 0.868030 0.492593
O O10 0.690059 0.897569 0.347095
O O11 0.599886 0.787912 0.232735
O O12 0.299415 0.767031 0.404973
O O13 0.251588 0.680828 0.632148
O O14 0.891718 0.292069 0.734124
O O15 0.913950 0.208293 0.972252
O O16 0.009410 0.832670 0.182289
#
# Coordination Sequence:
#
# PCOD9367973 Si02
#       8
#     8   8   8   8   8   8   8   8
#     4  12  25  43  70 107 147 183 235 303 380 442
#     4  12  25  46  69 107 143 192 240 307 374 435
#     4  12  24  47  70 105 143 190 243 299 372 436
#     4  12  22  46  71 107 147 187 233 314 381 441
#     4  12  25  44  74 108 141 190 244 305 378 444
#     4  12  26  48  73 101 145 198 252 297 360 448
#     4  12  25  41  75 110 144 185 240 310 380 442
#     4  12  27  47  74 100 148 197 248 298 365 446
#
# _framework density 22.221928999999999
#
# number of rings (size 3 to 8) (size 9 to 14) (size 15 to 20)
#    0.000    0.000    5.000    5.625    1.750    0.000 
#    0.000    0.000    2.750    0.000    0.000    0.000 
#    0.000    0.000    0.000    0.000    0.000    0.000 
#
# Total GULP energy -178829.585105 kJ/mol
# GULP energy per Si atom -5588.424535 kJ/mol
# Density = 2.217135 g / cm^3
# Si number density = 22.221929 Si / 1000 Ang^3
#
#
#
# Elastic Constant Matrix: (Units=GPa)
#
#
# Indices 1 2 3 4 5 6 
#
# 1 61.9609 -1.5290 3.7186 0.0000 0.0000 0.0000
# 2 -1.5290 76.0124 20.7135 0.0000 0.0000 0.0000
# 3 3.7186 20.7135 93.2713 0.0000 0.0000 0.0000
# 4 0.0000 0.0000 0.0000 35.5865 0.0000 0.0000
# 5 0.0000 0.0000 0.0000 0.0000 28.9720 0.0000
# 6 0.0000 0.0000 0.0000 0.0000 0.0000 24.4238
#
#
#
# Elastic Compliance Matrix: (Units=1/GPa)
#
#
# Indices 1 2 3 4 5 6 
#
# 1 0.016198 0.000534 -0.000764 0.000000 0.000000 0.000000
# 2 0.000534 0.014021 -0.003135 0.000000 0.000000 0.000000
# 3 -0.000764 -0.003135 0.011448 0.000000 0.000000 0.000000
# 4 0.000000 0.000000 0.000000 0.028101 0.000000 0.000000
# 5 0.000000 0.000000 0.000000 0.000000 0.034516 0.000000
# 6 0.000000 0.000000 0.000000 0.000000 0.000000 0.040944
#
#
# Mechanical properties :
#
#
# Convention : Reuss Voigt Hill
#
# Bulk Modulus (GPa) = 28.62328 30.78341 29.70335
# Shear Modulus (GPa) = 30.56168 31.68590 31.12379
#
# Velocity S-wave (km/s) = 3.71252 3.78018 3.74650
# Velocity P-wave (km/s) = 5.59336 5.73898 5.66664
#
# Compressibility (1/GPa) = 0.03493659
#
# Stress axis : x y z
#
# Youngs Moduli (GPa) = 61.73505 71.32265 87.35078
#
# Poissons Ratio (x) = -0.03810 0.06677
# Poissons Ratio (y) = -0.03297 0.27384
# Poissons Ratio (z) = 0.04719 0.22360
#
# Static dielectric constant tensor:
#      x y z
#    x 1.803540 0.000000 0.000000 
#    y 0.000000 1.873420 0.000000 
#    z 0.000000 0.000000 1.944210 
# 
# From -- ./inp_files/3713.got.cif
#   From: 2010.05.17/outbox.cif.g08.bks.cpg/sg41_2_cif.got.tgz:3713.got - 2010.06.03 18:54:24.
