data_PCOD9367341
_publ_section_title
;
Structure prediction by ZEFSAII (Michael W. Deem and Ramdas Pophale) SiO2 
 PCOD9367341
Probable space group: A B A 2
;
_chemical_formula_sum "Si O2"
_cell_formula_units_Z 36
_cell_length_a 21.382521
_cell_length_b 13.085377
_cell_length_c 4.920031
_cell_angle_alpha 90.000000
_cell_angle_beta 90.000000
_cell_angle_gamma 90.000000
_cell_volume 1376.616548
_symmetry_space_group_name_H-M "A B A 2"
_symmetry_group_IT_number 41
_symmetry_cell_setting 'orthorhombic'
loop_
_space_group_symop_operation_xyz
x,y,z
-x,-y,z
1/2-x,y,1/2+z
1/2+x,-y,1/2+z
x,1/2+y,1/2+z
-x,1/2-y,1/2+z
1/2-x,1/2+y,z
1/2+x,1/2-y,z
loop_
_atom_site_type_symbol
_atom_site_label
_atom_site_fract_x
_atom_site_fract_y
_atom_site_fract_z
Si Si1 0.465184 0.788187 0.918340
Si Si2 0.883800 0.887146 0.947183
Si Si3 0.500000 0.000000 0.704386
Si Si4 0.705504 0.774355 0.815798
Si Si5 0.706313 0.548054 0.690544
O O1 0.519979 0.741290 0.727724
O O2 0.405285 0.722235 0.824904
O O3 0.467228 0.908997 0.874154
O O4 0.844144 0.855543 0.211728
O O5 0.842717 0.962254 0.767951
O O6 0.946568 0.946547 0.027389
O O7 0.765381 0.783907 0.612755
O O8 0.680059 0.660493 0.758030
O O9 0.733326 0.540572 0.388989
#
# Coordination Sequence:
#
# PCOD9367341 Si02
#       5
#     8   8   4   8   8
#     4  10  25  45  66  96 134 177 224 273 330 396
#     4  11  24  44  72 100 137 181 228 283 340 405
#     4  10  26  46  68 102 140 184 232 278 336 404
#     4  10  23  42  66  98 133 174 224 279 344 410
#     4  10  23  43  70 102 134 174 224 281 344 405
#
# _framework density 26.151074000000001
#
# number of rings (size 3 to 8) (size 9 to 14) (size 15 to 20)
#    0.000    1.778    0.000    1.333    0.000   24.889 
#    0.000    0.000    0.000    0.000    0.000    0.000 
#    0.000    0.000    0.000    0.000    0.000    0.000 
#
# Total GULP energy -100972.915243 kJ/mol
# GULP energy per Si atom -5609.606402 kJ/mol
# Density = 2.609155 g / cm^3
# Si number density = 26.151074 Si / 1000 Ang^3
#
#
#
# Elastic Constant Matrix: (Units=GPa)
#
#
# Indices 1 2 3 4 5 6 
#
# 1 78.4559 71.9949 3.3890 0.0000 0.0000 0.0000
# 2 71.9949 194.0942 32.6665 0.0000 0.0000 0.0000
# 3 3.3890 32.6665 72.0089 0.0000 0.0000 0.0000
# 4 0.0000 0.0000 0.0000 38.0773 0.0000 0.0000
# 5 0.0000 0.0000 0.0000 0.0000 22.6560 0.0000
# 6 0.0000 0.0000 0.0000 0.0000 0.0000 65.1693
#
#
#
# Elastic Compliance Matrix: (Units=1/GPa)
#
#
# Indices 1 2 3 4 5 6 
#
# 1 0.019761 -0.007766 0.002593 0.000000 0.000000 0.000000
# 2 -0.007766 0.008630 -0.003550 0.000000 0.000000 0.000000
# 3 0.002593 -0.003550 0.015375 0.000000 0.000000 0.000000
# 4 0.000000 0.000000 0.000000 0.026262 0.000000 0.000000
# 5 0.000000 0.000000 0.000000 0.000000 0.044138 0.000000
# 6 0.000000 0.000000 0.000000 0.000000 0.000000 0.015345
#
#
# Mechanical properties :
#
#
# Convention : Reuss Voigt Hill
#
# Bulk Modulus (GPa) = 37.99262 62.29555 50.14408
# Shear Modulus (GPa) = 32.10672 40.94774 36.52723
#
# Velocity S-wave (km/s) = 3.50771 3.96133 3.74140
# Velocity P-wave (km/s) = 5.56463 6.69298 6.15472
#
# Compressibility (1/GPa) = 0.02632090
#
# Stress axis : x y z
#
# Youngs Moduli (GPa) = 50.60569 115.87171 65.03906
#
# Poissons Ratio (x) = 0.89988 -0.16865
# Poissons Ratio (y) = 0.39301 0.23086
# Poissons Ratio (z) = -0.13122 0.41129
#
# Static dielectric constant tensor:
#      x y z
#    x 2.060150 0.000000 0.000000 
#    y 0.000000 2.088390 0.000000 
#    z 0.000000 0.000000 2.018550 
# 
# From -- ./inp_files/635.got.cif
#   From: 2010.05.17/outbox.cif.g08.bks.cpg/sg41_1_cif.got.tgz:635.got - 2010.06.03 18:54:24.
