data_PCOD9367990
_publ_section_title
;
Structure prediction by ZEFSAII (Michael W. Deem and Ramdas Pophale) SiO2 
 PCOD9367990
Probable space group: A B A 2
;
_chemical_formula_sum "Si O2"
_cell_formula_units_Z 32
_cell_length_a 13.101167
_cell_length_b 18.728372
_cell_length_c 4.904630
_cell_angle_alpha 90.000000
_cell_angle_beta 90.000000
_cell_angle_gamma 90.000000
_cell_volume 1203.417326
_symmetry_space_group_name_H-M "A B A 2"
_symmetry_group_IT_number 41
_symmetry_cell_setting 'orthorhombic'
loop_
_space_group_symop_operation_xyz
x,y,z
-x,-y,z
1/2-x,y,1/2+z
1/2+x,-y,1/2+z
x,1/2+y,1/2+z
-x,1/2-y,1/2+z
1/2-x,1/2+y,z
1/2+x,1/2-y,z
loop_
_atom_site_type_symbol
_atom_site_label
_atom_site_fract_x
_atom_site_fract_y
_atom_site_fract_z
Si Si1 0.809398 0.766393 0.306810
Si Si2 0.475583 0.122145 0.902704
Si Si3 0.188834 0.040705 0.046883
Si Si4 0.114565 0.885802 0.914231
O O1 0.715022 0.787412 0.499103
O O2 0.906525 0.807509 0.424375
O O3 0.823829 0.681680 0.306123
O O4 0.407784 0.066505 0.723056
O O5 0.565225 0.140522 0.694242
O O6 0.527769 0.097434 0.184243
O O7 0.283816 0.063643 0.239889
O O8 0.176044 0.956210 0.996998
#
# Coordination Sequence:
#
# PCOD9367990 Si02
#       4
#     8   8   8   8
#     4  12  24  44  70 102 138 182 232 290 354 424
#     4  12  25  44  69 101 139 183 232 291 354 422
#     4  12  25  44  67  98 136 182 232 286 347 420
#     4  12  25  44  69 101 139 183 232 291 354 422
#
# _framework density 26.590942999999999
#
# number of rings (size 3 to 8) (size 9 to 14) (size 15 to 20)
#    0.000    0.000    0.000   11.250    0.000    2.000 
#    0.000    0.000    0.000    0.000    0.000    0.000 
#    0.000    0.000    0.000    0.000    0.000    0.000 
#
# Total GULP energy -89661.044434 kJ/mol
# GULP energy per Si atom -5603.815277 kJ/mol
# Density = 2.653042 g / cm^3
# Si number density = 26.590943 Si / 1000 Ang^3
#
#
#
# Elastic Constant Matrix: (Units=GPa)
#
#
# Indices 1 2 3 4 5 6 
#
# 1 57.5433 18.0034 43.6711 0.0000 0.0000 0.0000
# 2 18.0034 155.9025 38.4482 0.0000 0.0000 0.0000
# 3 43.6711 38.4482 186.8632 0.0000 0.0000 0.0000
# 4 0.0000 0.0000 0.0000 40.3212 0.0000 0.0000
# 5 0.0000 0.0000 0.0000 0.0000 50.1523 0.0000
# 6 0.0000 0.0000 0.0000 0.0000 0.0000 25.1900
#
#
#
# Elastic Compliance Matrix: (Units=1/GPa)
#
#
# Indices 1 2 3 4 5 6 
#
# 1 0.021373 -0.001302 -0.004727 0.000000 0.000000 0.000000
# 2 -0.001302 0.006837 -0.001102 0.000000 0.000000 0.000000
# 3 -0.004727 -0.001102 0.006683 0.000000 0.000000 0.000000
# 4 0.000000 0.000000 0.000000 0.024801 0.000000 0.000000
# 5 0.000000 0.000000 0.000000 0.000000 0.019939 0.000000
# 6 0.000000 0.000000 0.000000 0.000000 0.000000 0.039698
#
#
# Mechanical properties :
#
#
# Convention : Reuss Voigt Hill
#
# Bulk Modulus (GPa) = 48.47477 66.72826 57.60152
# Shear Modulus (GPa) = 35.59452 43.14512 39.36982
#
# Velocity S-wave (km/s) = 3.66265 4.03246 3.85200
# Velocity P-wave (km/s) = 6.01299 6.84323 6.44150
#
# Compressibility (1/GPa) = 0.02062929
#
# Stress axis : x y z
#
# Youngs Moduli (GPa) = 46.78762 146.27360 149.63224
#
# Poissons Ratio (x) = 0.19050 0.70732
# Poissons Ratio (y) = 0.06094 0.16494
# Poissons Ratio (z) = 0.22117 0.16123
#
# Static dielectric constant tensor:
#      x y z
#    x 2.135770 0.000000 0.000000 
#    y 0.000000 2.104530 0.000000 
#    z 0.000000 0.000000 1.969030 
# 
# From -- ./inp_files/87.got.cif
#   From: 2010.05.17/outbox.cif.g08.bks.cpg/sg41_1_cif.got.tgz:87.got - 2010.06.03 18:54:24.
