data_PCOD9367062
_publ_section_title
;
Structure prediction by ZEFSAII (Michael W. Deem and Ramdas Pophale) SiO2 
 PCOD9367062
Probable space group: A B A 2
;
_chemical_formula_sum "Si O2"
_cell_formula_units_Z 52
_cell_length_a 14.000092
_cell_length_b 7.525783
_cell_length_c 21.877771
_cell_angle_alpha 90.000000
_cell_angle_beta 90.000000
_cell_angle_gamma 90.000000
_cell_volume 2305.078147
_symmetry_space_group_name_H-M "A B A 2"
_symmetry_group_IT_number 41
_symmetry_cell_setting 'orthorhombic'
loop_
_space_group_symop_operation_xyz
x,y,z
-x,-y,z
1/2-x,y,1/2+z
1/2+x,-y,1/2+z
x,1/2+y,1/2+z
-x,1/2-y,1/2+z
1/2-x,1/2+y,z
1/2+x,1/2-y,z
loop_
_atom_site_type_symbol
_atom_site_label
_atom_site_fract_x
_atom_site_fract_y
_atom_site_fract_z
Si Si1 0.142805 0.250567 0.933850
Si Si2 0.978614 0.307674 0.008119
Si Si3 0.198175 0.411047 0.503617
Si Si4 0.151223 0.700997 0.737666
Si Si5 0.349024 0.816683 0.799239
Si Si6 0.000000 0.500000 0.277178
Si Si7 0.092518 0.587385 0.610406
O O1 0.195983 0.353597 0.988815
O O2 0.179187 0.327313 0.870606
O O3 0.164475 0.047494 0.950977
O O4 0.031149 0.282236 0.943554
O O5 0.000000 0.500000 0.031793
O O6 0.031562 0.183687 0.056995
O O7 0.869481 0.260274 0.999605
O O8 0.171294 0.483445 0.570306
O O9 0.256559 0.751414 0.761672
O O10 0.124673 0.511579 0.771300
O O11 0.149229 0.678118 0.664635
O O12 0.078489 0.864815 0.748538
O O13 0.428536 0.657760 0.802403
O O14 0.000000 0.500000 0.644080
#
# Coordination Sequence:
#
# PCOD9367062 Si02
#       7
#     8   8   8   8   8   4   8
#     4  11  23  41  68 100 140 185 230 297 357 451
#     4  10  22  40  66 105 133 181 235 291 370 435
#     4  10  22  41  66 100 137 180 232 296 366 431
#     4  12  26  50  72 112 147 203 257 320 376 463
#     4  12  27  47  75 110 153 198 264 306 390 457
#     4  12  28  48  76 106 152 208 248 330 386 442
#     4   9  21  43  69  98 145 180 242 307 364 451
#
# _framework density 22.558886999999999
#
# number of rings (size 3 to 8) (size 9 to 14) (size 15 to 20)
#    0.000    1.231    1.538    4.615    3.231    3.692 
#    0.000    0.000    0.000    0.000    0.000    0.000 
#    0.000    0.000    0.000    0.000    0.000    0.000 
#
# Total GULP energy -144784.762849 kJ/mol
# GULP energy per Si atom -5568.644725 kJ/mol
# Density = 2.250754 g / cm^3
# Si number density = 22.558887 Si / 1000 Ang^3
#
#
#
# Elastic Constant Matrix: (Units=GPa)
#
#
# Indices 1 2 3 4 5 6 
#
# 1 75.9346 20.5499 37.7701 0.0000 0.0000 0.0000
# 2 20.5499 139.6067 24.0879 0.0000 0.0000 0.0000
# 3 37.7701 24.0879 88.6623 0.0000 0.0000 0.0000
# 4 0.0000 0.0000 0.0000 -34.1049 0.0000 0.0000
# 5 0.0000 0.0000 0.0000 0.0000 1.3894 0.0000
# 6 0.0000 0.0000 0.0000 0.0000 0.0000 38.5301
#
#
#
# Elastic Compliance Matrix: (Units=1/GPa)
#
#
# Indices 1 2 3 4 5 6 
#
# 1 0.016935 -0.001309 -0.006859 0.000000 0.000000 0.000000
# 2 -0.001309 0.007617 -0.001511 0.000000 0.000000 0.000000
# 3 -0.006859 -0.001511 0.014611 0.000000 0.000000 0.000000
# 4 0.000000 0.000000 0.000000 -0.029321 0.000000 0.000000
# 5 0.000000 0.000000 0.000000 0.000000 0.719734 0.000000
# 6 0.000000 0.000000 0.000000 0.000000 0.000000 0.025954
#
#
# Mechanical properties :
#
#
# Convention : Reuss Voigt Hill
#
# Bulk Modulus (GPa) = 50.49536 52.11326 51.30431
# Shear Modulus (GPa) = 6.39804 15.94931 11.17368
#
# Velocity S-wave (km/s) = 1.68591 2.66185 2.22797
# Velocity P-wave (km/s) = 5.12076 5.70950 5.42312
#
# Compressibility (1/GPa) = 0.01980380
#
# Stress axis : x y z
#
# Youngs Moduli (GPa) = 59.04907 131.29365 68.44100
#
# Poissons Ratio (x) = 0.17192 0.46941
# Poissons Ratio (y) = 0.07732 0.10344
# Poissons Ratio (z) = 0.40499 0.19844
#
# Static dielectric constant tensor:
#      x y z
#    x 1.856500 0.000000 0.000000 
#    y 0.000000 1.975350 0.000000 
#    z 0.000000 0.000000 1.812520 
# 
# From -- ./inp_files/11517.got.cif
#   From: 2010.05.17/outbox.cif.g08.bks.cpg/sg41_6_cif.got.tgz:11517.got - 2010.06.03 18:54:24.
