data_PCOD9367754
_publ_section_title
;
Structure prediction by ZEFSAII (Michael W. Deem and Ramdas Pophale) SiO2 
 PCOD9367754
Probable space group: A B A 2
;
_chemical_formula_sum "Si O2"
_cell_formula_units_Z 52
_cell_length_a 15.242099
_cell_length_b 8.461144
_cell_length_c 16.930154
_cell_angle_alpha 90.000000
_cell_angle_beta 90.000000
_cell_angle_gamma 90.000000
_cell_volume 2183.407376
_symmetry_space_group_name_H-M "A B A 2"
_symmetry_group_IT_number 41
_symmetry_cell_setting 'orthorhombic'
loop_
_space_group_symop_operation_xyz
x,y,z
-x,-y,z
1/2-x,y,1/2+z
1/2+x,-y,1/2+z
x,1/2+y,1/2+z
-x,1/2-y,1/2+z
1/2-x,1/2+y,z
1/2+x,1/2-y,z
loop_
_atom_site_type_symbol
_atom_site_label
_atom_site_fract_x
_atom_site_fract_y
_atom_site_fract_z
Si Si1 0.640151 0.847350 0.210670
Si Si2 0.500000 0.000000 0.481026
Si Si3 0.315368 0.546248 0.536077
Si Si4 0.679349 0.621011 0.955463
Si Si5 0.044187 0.832112 0.482619
Si Si6 0.702233 0.166393 0.288533
Si Si7 0.513537 0.819457 0.798944
O O1 0.651166 0.893784 0.119595
O O2 0.718051 0.728186 0.235902
O O3 0.546424 0.785456 0.240945
O O4 0.663026 0.007437 0.254928
O O5 0.412375 0.961966 0.432657
O O6 0.515826 0.831705 0.523701
O O7 0.215172 0.490462 0.525369
O O8 0.332615 0.697269 0.480418
O O9 0.358932 0.381722 0.507511
O O10 0.736239 0.626586 0.876336
O O11 0.024350 0.807765 0.389300
O O12 0.000000 0.000000 0.505037
O O13 0.617328 0.280792 0.296038
O O14 0.500000 0.000000 0.774977
#
# Coordination Sequence:
#
# PCOD9367754 Si02
#       7
#     8   4   8   8   8   8   8
#     4  12  27  46  72 108 156 193 244 309 387 451
#     4  12  22  42  72 108 140 188 250 316 362 434
#     4  12  26  48  70 111 153 194 243 314 385 454
#     4  12  24  45  74 104 144 195 256 309 370 445
#     4  11  22  44  73 106 146 185 255 308 360 443
#     4  12  24  46  74 106 143 200 251 306 368 450
#     4  11  23  45  73 108 145 197 256 309 368 447
#
# _framework density 23.815985000000001
#
# number of rings (size 3 to 8) (size 9 to 14) (size 15 to 20)
#    0.000    0.308    3.077    6.923    0.000    1.231 
#    4.154    0.000    0.000    0.000    0.000    0.000 
#    0.000    0.000    0.000    0.000    0.000    0.000 
#
# Total GULP energy -145262.185547 kJ/mol
# GULP energy per Si atom -5587.007136 kJ/mol
# Density = 2.376178 g / cm^3
# Si number density = 23.815985 Si / 1000 Ang^3
#
#
#
# Elastic Constant Matrix: (Units=GPa)
#
#
# Indices 1 2 3 4 5 6 
#
# 1 74.0454 11.7013 17.5539 0.0000 0.0000 0.0000
# 2 11.7013 148.8015 15.4963 0.0000 0.0000 0.0000
# 3 17.5539 15.4963 105.3338 0.0000 0.0000 0.0000
# 4 0.0000 0.0000 0.0000 39.9581 0.0000 0.0000
# 5 0.0000 0.0000 0.0000 0.0000 15.1325 0.0000
# 6 0.0000 0.0000 0.0000 0.0000 0.0000 16.3091
#
#
#
# Elastic Compliance Matrix: (Units=1/GPa)
#
#
# Indices 1 2 3 4 5 6 
#
# 1 0.014174 -0.000882 -0.002232 0.000000 0.000000 0.000000
# 2 -0.000882 0.006880 -0.000865 0.000000 0.000000 0.000000
# 3 -0.002232 -0.000865 0.009993 0.000000 0.000000 0.000000
# 4 0.000000 0.000000 0.000000 0.025026 0.000000 0.000000
# 5 0.000000 0.000000 0.000000 0.000000 0.066083 0.000000
# 6 0.000000 0.000000 0.000000 0.000000 0.000000 0.061316
#
#
# Mechanical properties :
#
#
# Convention : Reuss Voigt Hill
#
# Bulk Modulus (GPa) = 43.31348 46.40929 44.86138
# Shear Modulus (GPa) = 25.10970 33.17522 29.14246
#
# Velocity S-wave (km/s) = 3.25055 3.73632 3.50187
# Velocity P-wave (km/s) = 5.68457 6.17595 5.93535
#
# Compressibility (1/GPa) = 0.02308750
#
# Stress axis : x y z
#
# Youngs Moduli (GPa) = 70.55253 145.35252 100.07091
#
# Poissons Ratio (x) = 0.12822 0.22339
# Poissons Ratio (y) = 0.06224 0.08657
# Poissons Ratio (z) = 0.15749 0.12575
#
# Static dielectric constant tensor:
#      x y z
#    x 1.887370 0.000000 0.000000 
#    y 0.000000 1.901600 0.000000 
#    z 0.000000 0.000000 2.056300 
# 
# From -- ./inp_files/10545.got.cif
#   From: 2010.05.17/outbox.cif.g08.bks.cpg/sg41_6_cif.got.tgz:10545.got - 2010.06.03 18:54:24.
