data_PCOD9367233
_publ_section_title
;
Structure prediction by ZEFSAII (Michael W. Deem and Ramdas Pophale) SiO2 
 PCOD9367233
Probable space group: A B A 2
;
_chemical_formula_sum "Si O2"
_cell_formula_units_Z 40
_cell_length_a 9.780890
_cell_length_b 15.029011
_cell_length_c 10.733205
_cell_angle_alpha 90.000000
_cell_angle_beta 90.000000
_cell_angle_gamma 90.000000
_cell_volume 1577.750045
_symmetry_space_group_name_H-M "A B A 2"
_symmetry_group_IT_number 41
_symmetry_cell_setting 'orthorhombic'
loop_
_space_group_symop_operation_xyz
x,y,z
-x,-y,z
1/2-x,y,1/2+z
1/2+x,-y,1/2+z
x,1/2+y,1/2+z
-x,1/2-y,1/2+z
1/2-x,1/2+y,z
1/2+x,1/2-y,z
loop_
_atom_site_type_symbol
_atom_site_label
_atom_site_fract_x
_atom_site_fract_y
_atom_site_fract_z
Si Si1 0.787735 0.174677 0.776460
Si Si2 0.008057 0.901390 0.189064
Si Si3 0.185787 0.145251 0.386884
Si Si4 0.830460 0.528528 0.458443
Si Si5 0.449239 0.905019 0.082006
O O1 0.631699 0.159962 0.734492
O O2 0.783887 0.250482 0.880820
O O3 0.900457 0.178388 0.666439
O O4 0.836401 0.080582 0.830887
O O5 0.863107 0.868098 0.241655
O O6 0.000000 0.000000 0.251653
O O7 0.056392 0.926846 0.049736
O O8 0.302315 0.075517 0.427362
O O9 0.060281 0.126910 0.480662
O O10 0.689754 0.562686 0.517841
O O11 0.500000 0.000000 0.137236
#
# Coordination Sequence:
#
# PCOD9367233 Si02
#       5
#     8   8   8   8   8
#     4  11  23  41  70 105 136 178 246 288 355 437
#     4  11  22  47  72  96 141 192 226 291 366 413
#     4  11  22  45  73  99 144 185 236 303 360 416
#     4  10  22  44  71  99 138 186 238 281 357 440
#     4   9  20  43  68  95 140 185 225 298 361 418
#
# _framework density 25.352557999999998
#
# number of rings (size 3 to 8) (size 9 to 14) (size 15 to 20)
#    0.000    1.600    4.000    0.600    2.800    0.800 
#   14.400    0.000    0.000    0.000    0.000    0.000 
#    0.000    0.000    0.000    0.000    0.000    0.000 
#
# Total GULP energy -111364.052818 kJ/mol
# GULP energy per Si atom -5568.202641 kJ/mol
# Density = 2.529485 g / cm^3
# Si number density = 25.352558 Si / 1000 Ang^3
#
#
#
# Elastic Constant Matrix: (Units=GPa)
#
#
# Indices 1 2 3 4 5 6 
#
# 1 116.9312 32.4666 54.0918 0.0000 0.0000 0.0000
# 2 32.4666 119.0074 26.5720 0.0000 0.0000 0.0000
# 3 54.0918 26.5720 60.7634 0.0000 0.0000 0.0000
# 4 0.0000 0.0000 0.0000 53.4772 0.0000 0.0000
# 5 0.0000 0.0000 0.0000 0.0000 23.0001 0.0000
# 6 0.0000 0.0000 0.0000 0.0000 0.0000 13.8457
#
#
#
# Elastic Compliance Matrix: (Units=1/GPa)
#
#
# Indices 1 2 3 4 5 6 
#
# 1 0.014694 -0.001206 -0.012553 0.000000 0.000000 0.000000
# 2 -0.001206 0.009411 -0.003042 0.000000 0.000000 0.000000
# 3 -0.012553 -0.003042 0.028963 0.000000 0.000000 0.000000
# 4 0.000000 0.000000 0.000000 0.018700 0.000000 0.000000
# 5 0.000000 0.000000 0.000000 0.000000 0.043478 0.000000
# 6 0.000000 0.000000 0.000000 0.000000 0.000000 0.072225
#
#
# Mechanical properties :
#
#
# Convention : Reuss Voigt Hill
#
# Bulk Modulus (GPa) = 51.37368 58.10699 54.74034
# Shear Modulus (GPa) = 21.97216 30.30270 26.13743
#
# Velocity S-wave (km/s) = 2.94711 3.46099 3.21434
# Velocity P-wave (km/s) = 5.64697 6.24024 5.95101
#
# Compressibility (1/GPa) = 0.01946522
#
# Stress axis : x y z
#
# Youngs Moduli (GPa) = 68.05536 106.25829 34.52727
#
# Poissons Ratio (x) = 0.12812 0.43343
# Poissons Ratio (y) = 0.08206 0.10504
# Poissons Ratio (z) = 0.85432 0.32325
#
# Static dielectric constant tensor:
#      x y z
#    x 2.181930 0.000000 0.000000 
#    y 0.000000 1.963490 0.000000 
#    z 0.000000 0.000000 2.085410 
# 
# From -- ./inp_files/4868.got.cif
#   From: 2010.05.17/outbox.cif.g08.bks.cpg/sg41_3_cif.got.tgz:4868.got - 2010.06.03 18:54:24.
