data_PCOD9367260
_publ_section_title
;
Structure prediction by ZEFSAII (Michael W. Deem and Ramdas Pophale) SiO2 
 PCOD9367260
Probable space group: A B A 2
;
_chemical_formula_sum "Si O2"
_cell_formula_units_Z 40
_cell_length_a 8.587462
_cell_length_b 23.625565
_cell_length_c 8.624506
_cell_angle_alpha 90.000000
_cell_angle_beta 90.000000
_cell_angle_gamma 90.000000
_cell_volume 1749.771185
_symmetry_space_group_name_H-M "A B A 2"
_symmetry_group_IT_number 41
_symmetry_cell_setting 'orthorhombic'
loop_
_space_group_symop_operation_xyz
x,y,z
-x,-y,z
1/2-x,y,1/2+z
1/2+x,-y,1/2+z
x,1/2+y,1/2+z
-x,1/2-y,1/2+z
1/2-x,1/2+y,z
1/2+x,1/2-y,z
loop_
_atom_site_type_symbol
_atom_site_label
_atom_site_fract_x
_atom_site_fract_y
_atom_site_fract_z
Si Si1 0.500000 0.000000 0.375000
Si Si2 0.343825 0.700747 0.739816
Si Si3 0.980516 0.305209 0.593061
Si Si4 0.333867 0.423299 0.118042
Si Si5 0.538512 0.917152 0.121919
Si Si6 0.500000 0.500000 0.365360
O O1 0.612097 0.038131 0.476350
O O2 0.411489 0.043914 0.265217
O O3 0.158260 0.698047 0.719323
O O4 0.405373 0.754720 0.643996
O O5 0.400764 0.644968 0.649206
O O6 0.408861 0.700583 0.917617
O O7 0.073957 0.364101 0.606412
O O8 0.149611 0.414319 0.120233
O O9 0.392111 0.460251 0.262000
O O10 0.586508 0.954220 0.974401
#
# Coordination Sequence:
#
# PCOD9367260 Si02
#       6
#     4   8   8   8   8   4
#     4  10  22  46  62 108 142 186 234 290 356 422
#     4  12  28  49  76 107 145 188 242 301 365 435
#     4  12  28  49  76 107 145 188 242 301 365 435
#     4  11  24  45  73 103 144 188 241 293 358 421
#     4  11  24  45  73 103 144 188 241 293 358 421
#     4  10  26  38  70 108 142 194 230 298 344 434
#
# _framework density 22.860130999999999
#
# number of rings (size 3 to 8) (size 9 to 14) (size 15 to 20)
#    0.000    0.800    2.000    3.600    5.600    9.600 
#    0.000    0.000    0.000    0.000    0.000    0.000 
#    0.000    0.000    0.000    0.000    0.000    0.000 
#
# Total GULP energy -111982.620488 kJ/mol
# GULP energy per Si atom -5599.131024 kJ/mol
# Density = 2.280810 g / cm^3
# Si number density = 22.860131 Si / 1000 Ang^3
#
#
#
# Elastic Constant Matrix: (Units=GPa)
#
#
# Indices 1 2 3 4 5 6 
#
# 1 96.6113 78.1733 19.7666 0.0000 0.0000 0.0000
# 2 78.1733 202.1698 56.7502 0.0000 0.0000 0.0000
# 3 19.7666 56.7502 128.9844 0.0000 0.0000 0.0000
# 4 0.0000 0.0000 0.0000 45.3970 0.0000 0.0000
# 5 0.0000 0.0000 0.0000 0.0000 22.2117 0.0000
# 6 0.0000 0.0000 0.0000 0.0000 0.0000 33.9977
#
#
#
# Elastic Compliance Matrix: (Units=1/GPa)
#
#
# Indices 1 2 3 4 5 6 
#
# 1 0.015073 -0.005910 0.000290 0.000000 0.000000 0.000000
# 2 -0.005910 0.007960 -0.002597 0.000000 0.000000 0.000000
# 3 0.000290 -0.002597 0.008851 0.000000 0.000000 0.000000
# 4 0.000000 0.000000 0.000000 0.022028 0.000000 0.000000
# 5 0.000000 0.000000 0.000000 0.000000 0.045021 0.000000
# 6 0.000000 0.000000 0.000000 0.000000 0.000000 0.029414
#
#
# Mechanical properties :
#
#
# Convention : Reuss Voigt Hill
#
# Bulk Modulus (GPa) = 64.71675 81.90509 73.31092
# Shear Modulus (GPa) = 33.34862 38.52630 35.93746
#
# Velocity S-wave (km/s) = 3.82358 4.10970 3.96922
# Velocity P-wave (km/s) = 6.91841 7.64370 7.29008
#
# Compressibility (1/GPa) = 0.01545195
#
# Stress axis : x y z
#
# Youngs Moduli (GPa) = 66.34201 125.62085 112.98289
#
# Poissons Ratio (x) = 0.74241 -0.03280
# Poissons Ratio (y) = 0.39208 0.29339
# Poissons Ratio (z) = -0.01926 0.32620
#
# Static dielectric constant tensor:
#      x y z
#    x 1.849610 0.000000 0.000000 
#    y 0.000000 1.810570 0.000000 
#    z 0.000000 0.000000 1.904860 
# 
# From -- ./inp_files/1719.got.cif
#   From: 2010.05.17/outbox.cif.g08.bks.cpg/sg41_1_cif.got.tgz:1719.got - 2010.06.03 18:54:24.
