data_PCOD9367707
_publ_section_title
;
Structure prediction by ZEFSAII (Michael W. Deem and Ramdas Pophale) SiO2 
 PCOD9367707
Probable space group: A B A 2
;
_chemical_formula_sum "Si O2"
_cell_formula_units_Z 60
_cell_length_a 12.978256
_cell_length_b 12.530281
_cell_length_c 17.497030
_cell_angle_alpha 90.000000
_cell_angle_beta 90.000000
_cell_angle_gamma 90.000000
_cell_volume 2845.387920
_symmetry_space_group_name_H-M "A B A 2"
_symmetry_group_IT_number 41
_symmetry_cell_setting 'orthorhombic'
loop_
_space_group_symop_operation_xyz
x,y,z
-x,-y,z
1/2-x,y,1/2+z
1/2+x,-y,1/2+z
x,1/2+y,1/2+z
-x,1/2-y,1/2+z
1/2-x,1/2+y,z
1/2+x,1/2-y,z
loop_
_atom_site_type_symbol
_atom_site_label
_atom_site_fract_x
_atom_site_fract_y
_atom_site_fract_z
Si Si1 0.169606 0.425469 0.502800
Si Si2 0.434806 0.227795 0.089515
Si Si3 0.149573 0.578992 0.779121
Si Si4 0.000000 0.500000 0.381088
Si Si5 0.731618 0.881403 0.611987
Si Si6 0.564788 0.159818 0.753409
Si Si7 0.153646 0.663257 0.350353
Si Si8 0.138800 0.292326 0.005202
O O1 0.114860 0.322122 0.538723
O O2 0.093932 0.461294 0.435095
O O3 0.184675 0.519557 0.564687
O O4 0.284786 0.387301 0.481324
O O5 0.353858 0.133557 0.105262
O O6 0.456903 0.291217 0.169155
O O7 0.528185 0.181025 0.039680
O O8 0.198743 0.613281 0.698951
O O9 0.113584 0.457984 0.761890
O O10 0.238810 0.601008 0.840839
O O11 0.046450 0.647579 0.794332
O O12 0.055063 0.590112 0.331842
O O13 0.688367 0.773957 0.574548
O O14 0.645181 0.237695 0.793701
O O15 0.136049 0.710613 0.434539
#
# Coordination Sequence:
#
# PCOD9367707 Si02
#       8
#     8   8   8   4   8   8   8   8
#     4  11  23  42  71  98 132 177 231 281 339 411
#     4  11  21  42  69 103 132 177 231 281 341 405
#     4  11  25  43  69 102 138 187 229 283 353 408
#     4  12  26  48  72  98 130 196 228 284 352 428
#     4  11  21  41  71 100 130 177 232 278 333 415
#     4  11  25  42  70 101 144 183 230 285 349 424
#     4  12  27  45  67 102 140 180 233 292 348 415
#     4  11  25  41  71  98 137 177 225 290 339 409
#
# _framework density 21.086755
#
# number of rings (size 3 to 8) (size 9 to 14) (size 15 to 20)
#    0.000    0.800    6.667    0.000    3.733    0.533 
#    2.400    0.000    0.000    0.000    0.000    0.000 
#    0.000    0.000    0.000    0.000    0.000    0.000 
#
# Total GULP energy -167452.358738 kJ/mol
# GULP energy per Si atom -5581.745291 kJ/mol
# Density = 2.103876 g / cm^3
# Si number density = 21.086755 Si / 1000 Ang^3
#
#
#
# Elastic Constant Matrix: (Units=GPa)
#
#
# Indices 1 2 3 4 5 6 
#
# 1 137.1703 25.0910 19.1266 0.0000 0.0000 0.0000
# 2 25.0910 43.4338 -4.5580 0.0000 0.0000 0.0000
# 3 19.1266 -4.5580 36.7721 0.0000 0.0000 0.0000
# 4 0.0000 0.0000 0.0000 19.5191 0.0000 0.0000
# 5 0.0000 0.0000 0.0000 0.0000 27.4176 0.0000
# 6 0.0000 0.0000 0.0000 0.0000 0.0000 40.6565
#
#
#
# Elastic Compliance Matrix: (Units=1/GPa)
#
#
# Indices 1 2 3 4 5 6 
#
# 1 0.009122 -0.005843 -0.005469 0.000000 0.000000 0.000000
# 2 -0.005843 0.027070 0.006395 0.000000 0.000000 0.000000
# 3 -0.005469 0.006395 0.030832 0.000000 0.000000 0.000000
# 4 0.000000 0.000000 0.000000 0.051232 0.000000 0.000000
# 5 0.000000 0.000000 0.000000 0.000000 0.036473 0.000000
# 6 0.000000 0.000000 0.000000 0.000000 0.000000 0.024596
#
#
# Mechanical properties :
#
#
# Convention : Reuss Voigt Hill
#
# Bulk Modulus (GPa) = 17.48591 32.96615 25.22603
# Shear Modulus (GPa) = 24.01280 29.36642 26.68961
#
# Velocity S-wave (km/s) = 3.37822 3.73587 3.56153
# Velocity P-wave (km/s) = 4.85045 5.85461 5.37602
#
# Compressibility (1/GPa) = 0.05718892
#
# Stress axis : x y z
#
# Youngs Moduli (GPa) = 109.62968 36.94098 32.43407
#
# Poissons Ratio (x) = 0.21586 0.17738
# Poissons Ratio (y) = 0.64060 -0.20741
# Poissons Ratio (z) = 0.59955 -0.23623
#
# Static dielectric constant tensor:
#      x y z
#    x 1.811680 0.000000 0.000000 
#    y 0.000000 1.786710 0.000000 
#    z 0.000000 0.000000 1.751010 
# 
# From -- ./inp_files/11421.got.cif
#   From: 2010.05.17/outbox.cif.g08.bks.cpg/sg41_6_cif.got.tgz:11421.got - 2010.06.03 18:54:24.
