data_PCOD9367927
_publ_section_title
;
Structure prediction by ZEFSAII (Michael W. Deem and Ramdas Pophale) SiO2 
 PCOD9367927
Probable space group: A B A 2
;
_chemical_formula_sum "Si O2"
_cell_formula_units_Z 56
_cell_length_a 14.622393
_cell_length_b 14.613663
_cell_length_c 11.817265
_cell_angle_alpha 90.000000
_cell_angle_beta 90.000000
_cell_angle_gamma 90.000000
_cell_volume 2525.192639
_symmetry_space_group_name_H-M "A B A 2"
_symmetry_group_IT_number 41
_symmetry_cell_setting 'orthorhombic'
loop_
_space_group_symop_operation_xyz
x,y,z
-x,-y,z
1/2-x,y,1/2+z
1/2+x,-y,1/2+z
x,1/2+y,1/2+z
-x,1/2-y,1/2+z
1/2-x,1/2+y,z
1/2+x,1/2-y,z
loop_
_atom_site_type_symbol
_atom_site_label
_atom_site_fract_x
_atom_site_fract_y
_atom_site_fract_z
Si Si1 0.905143 0.445012 0.073140
Si Si2 0.453064 0.914393 0.597217
Si Si3 0.263156 0.936308 0.667006
Si Si4 0.886362 0.341529 0.455159
Si Si5 0.540220 0.275650 0.728649
Si Si6 0.705114 0.418847 0.352676
Si Si7 0.163830 0.251682 0.191171
O O1 0.824812 0.509527 0.121542
O O2 0.916278 0.355080 0.150978
O O3 0.000000 0.500000 0.072371
O O4 0.872550 0.417645 0.948056
O O5 0.347503 0.938307 0.579204
O O6 0.522171 0.895438 0.493737
O O7 0.452349 0.822659 0.670398
O O8 0.500000 0.000000 0.659891
O O9 0.236921 0.832056 0.690537
O O10 0.295044 0.988935 0.779576
O O11 0.915068 0.277893 0.351258
O O12 0.803078 0.403252 0.411945
O O13 0.852987 0.285191 0.564224
O O14 0.431613 0.292873 0.735708
O O15 0.690732 0.334471 0.267133
#
# Coordination Sequence:
#
# PCOD9367927 Si02
#       7
#     8   8   8   8   8   8   8
#     4  12  27  50  74 110 149 201 256 315 392 460
#     4  11  26  48  74 114 150 195 256 312 378 461
#     4  12  26  49  75 112 149 200 260 312 379 471
#     4  11  26  48  80 107 157 202 247 316 393 456
#     4  11  25  50  75 108 156 201 250 321 387 458
#     4  12  27  48  77 110 157 194 253 324 377 461
#     4  11  27  46  76 118 148 201 257 312 393 466
#
# _framework density 22.176525000000002
#
# number of rings (size 3 to 8) (size 9 to 14) (size 15 to 20)
#    0.000    0.571    2.857    4.286    6.000    8.000 
#    0.000    0.000    0.000    0.000    0.000    0.000 
#    0.000    0.000    0.000    0.000    0.000    0.000 
#
# Total GULP energy -156805.526431 kJ/mol
# GULP energy per Si atom -5600.197373 kJ/mol
# Density = 2.212605 g / cm^3
# Si number density = 22.176525 Si / 1000 Ang^3
#
#
#
# Elastic Constant Matrix: (Units=GPa)
#
#
# Indices 1 2 3 4 5 6 
#
# 1 142.4065 43.2472 44.7956 0.0000 0.0000 0.0000
# 2 43.2472 134.5113 69.0211 0.0000 0.0000 0.0000
# 3 44.7956 69.0211 141.0667 0.0000 0.0000 0.0000
# 4 0.0000 0.0000 0.0000 10.2577 0.0000 0.0000
# 5 0.0000 0.0000 0.0000 0.0000 39.9934 0.0000
# 6 0.0000 0.0000 0.0000 0.0000 0.0000 40.2154
#
#
#
# Elastic Compliance Matrix: (Units=1/GPa)
#
#
# Indices 1 2 3 4 5 6 
#
# 1 0.008086 -0.001712 -0.001730 0.000000 0.000000 0.000000
# 2 -0.001712 0.010289 -0.004491 0.000000 0.000000 0.000000
# 3 -0.001730 -0.004491 0.009835 0.000000 0.000000 0.000000
# 4 0.000000 0.000000 0.000000 0.097487 0.000000 0.000000
# 5 0.000000 0.000000 0.000000 0.000000 0.025004 0.000000
# 6 0.000000 0.000000 0.000000 0.000000 0.000000 0.024866
#
#
# Mechanical properties :
#
#
# Convention : Reuss Voigt Hill
#
# Bulk Modulus (GPa) = 81.00305 81.34580 81.17442
# Shear Modulus (GPa) = 25.56908 35.48802 30.52855
#
# Velocity S-wave (km/s) = 3.39924 4.00465 3.71430
# Velocity P-wave (km/s) = 7.21195 7.62520 7.42145
#
# Compressibility (1/GPa) = 0.01234521
#
# Stress axis : x y z
#
# Youngs Moduli (GPa) = 123.66558 97.19140 101.67403
#
# Poissons Ratio (x) = 0.16640 0.17591
# Poissons Ratio (y) = 0.21173 0.45657
# Poissons Ratio (z) = 0.21396 0.43644
#
# Static dielectric constant tensor:
#      x y z
#    x 1.850490 0.000000 0.000000 
#    y 0.000000 1.791850 0.000000 
#    z 0.000000 0.000000 1.784120 
# 
# From -- ./inp_files/5592.got.cif
#   From: 2010.05.17/outbox.cif.g08.bks.cpg/sg41_3_cif.got.tgz:5592.got - 2010.06.03 18:54:24.
