data_PCOD9367968
_publ_section_title
;
Structure prediction by ZEFSAII (Michael W. Deem and Ramdas Pophale) SiO2 
 PCOD9367968
Probable space group: A B A 2
;
_chemical_formula_sum "Si O2"
_cell_formula_units_Z 32
_cell_length_a 8.936624
_cell_length_b 8.565337
_cell_length_c 17.295689
_cell_angle_alpha 90.000000
_cell_angle_beta 90.000000
_cell_angle_gamma 90.000000
_cell_volume 1323.901908
_symmetry_space_group_name_H-M "A B A 2"
_symmetry_group_IT_number 41
_symmetry_cell_setting 'orthorhombic'
loop_
_space_group_symop_operation_xyz
x,y,z
-x,-y,z
1/2-x,y,1/2+z
1/2+x,-y,1/2+z
x,1/2+y,1/2+z
-x,1/2-y,1/2+z
1/2-x,1/2+y,z
1/2+x,1/2-y,z
loop_
_atom_site_type_symbol
_atom_site_label
_atom_site_fract_x
_atom_site_fract_y
_atom_site_fract_z
Si Si1 0.875285 0.632982 0.912260
Si Si2 0.588315 0.646298 0.816235
Si Si3 0.363229 0.602950 0.188102
Si Si4 0.858280 0.609890 0.086386
O O1 0.734539 0.587525 0.860271
O O2 0.000000 0.500000 0.913659
O O3 0.967235 0.777281 0.874884
O O4 0.808611 0.648594 0.998935
O O5 0.500000 0.500000 0.777744
O O6 0.657913 0.777520 0.759218
O O7 0.500000 0.500000 0.215208
O O8 0.250560 0.483014 0.145544
O O9 0.405546 0.725301 0.121636
O O10 0.000000 0.500000 0.079329
#
# Coordination Sequence:
#
# PCOD9367968 Si02
#       4
#     8   8   8   8
#     4  11  28  50  80 118 159 214 268 329 406 482
#     4  12  29  49  83 119 164 208 272 336 405 487
#     4  12  29  50  79 114 158 209 263 334 402 478
#     4  11  28  49  80 115 158 207 265 325 405 477
#
# _framework density 24.170977000000001
#
# number of rings (size 3 to 8) (size 9 to 14) (size 15 to 20)
#    0.000    0.500    0.000    4.500   28.000    0.000 
#    0.000    0.000    0.000    0.000    0.000    0.000 
#    0.000    0.000    0.000    0.000    0.000    0.000 
#
# Total GULP energy -89427.920908 kJ/mol
# GULP energy per Si atom -5589.245057 kJ/mol
# Density = 2.411596 g / cm^3
# Si number density = 24.170977 Si / 1000 Ang^3
#
#
#
# Elastic Constant Matrix: (Units=GPa)
#
#
# Indices 1 2 3 4 5 6 
#
# 1 82.5524 5.4916 33.7417 0.0000 0.0000 0.0000
# 2 5.4916 105.3397 27.9484 0.0000 0.0000 0.0000
# 3 33.7417 27.9484 140.1819 0.0000 0.0000 0.0000
# 4 0.0000 0.0000 0.0000 41.3807 0.0000 0.0000
# 5 0.0000 0.0000 0.0000 0.0000 43.7204 0.0000
# 6 0.0000 0.0000 0.0000 0.0000 0.0000 45.6190
#
#
#
# Elastic Compliance Matrix: (Units=1/GPa)
#
#
# Indices 1 2 3 4 5 6 
#
# 1 0.013438 0.000166 -0.003268 0.000000 0.000000 0.000000
# 2 0.000166 0.010025 -0.002039 0.000000 0.000000 0.000000
# 3 -0.003268 -0.002039 0.008327 0.000000 0.000000 0.000000
# 4 0.000000 0.000000 0.000000 0.024166 0.000000 0.000000
# 5 0.000000 0.000000 0.000000 0.000000 0.022873 0.000000
# 6 0.000000 0.000000 0.000000 0.000000 0.000000 0.021921
#
#
# Mechanical properties :
#
#
# Convention : Reuss Voigt Hill
#
# Bulk Modulus (GPa) = 46.49048 51.38192 48.93620
# Shear Modulus (GPa) = 42.30142 43.53685 42.91913
#
# Velocity S-wave (km/s) = 4.18795 4.24866 4.21841
# Velocity P-wave (km/s) = 6.53154 6.73588 6.63449
#
# Compressibility (1/GPa) = 0.02150978
#
# Stress axis : x y z
#
# Youngs Moduli (GPa) = 74.41552 99.74705 120.09686
#
# Poissons Ratio (x) = -0.01660 0.39244
# Poissons Ratio (y) = -0.01238 0.24486
# Poissons Ratio (z) = 0.24317 0.20337
#
# Static dielectric constant tensor:
#      x y z
#    x 1.880590 0.000000 0.000000 
#    y 0.000000 1.842370 0.000000 
#    z 0.000000 0.000000 2.006250 
# 
# From -- ./inp_files/11060.got.cif
#   From: 2010.05.17/outbox.cif.g08.bks.cpg/sg41_6_cif.got.tgz:11060.got - 2010.06.03 18:54:24.
