data_PCOD9367166
_publ_section_title
;
Structure prediction by ZEFSAII (Michael W. Deem and Ramdas Pophale) SiO2 
 PCOD9367166
Probable space group: A B A 2
;
_chemical_formula_sum "Si O2"
_cell_formula_units_Z 48
_cell_length_a 9.169627
_cell_length_b 10.674921
_cell_length_c 18.417810
_cell_angle_alpha 90.000000
_cell_angle_beta 90.000000
_cell_angle_gamma 90.000000
_cell_volume 1802.828139
_symmetry_space_group_name_H-M "A B A 2"
_symmetry_group_IT_number 41
_symmetry_cell_setting 'orthorhombic'
loop_
_space_group_symop_operation_xyz
x,y,z
-x,-y,z
1/2-x,y,1/2+z
1/2+x,-y,1/2+z
x,1/2+y,1/2+z
-x,1/2-y,1/2+z
1/2-x,1/2+y,z
1/2+x,1/2-y,z
loop_
_atom_site_type_symbol
_atom_site_label
_atom_site_fract_x
_atom_site_fract_y
_atom_site_fract_z
Si Si1 0.157117 0.894104 0.704750
Si Si2 0.963988 0.844766 0.837118
Si Si3 0.840224 0.328497 0.148912
Si Si4 0.828431 0.337714 0.876773
Si Si5 0.750600 0.173797 0.512609
Si Si6 0.000000 0.000000 0.979334
Si Si7 0.000000 0.000000 0.478743
O O1 0.279601 0.790464 0.693838
O O2 0.020354 0.703820 0.840916
O O3 0.090547 0.903274 0.786702
O O4 0.013327 0.838808 0.664007
O O5 0.795725 0.856864 0.817963
O O6 0.953023 0.896376 0.919735
O O7 0.628926 0.950170 0.928044
O O8 0.797725 0.471445 0.171280
O O9 0.784350 0.286554 0.068709
O O10 0.777174 0.226697 0.931439
O O11 0.911546 0.111652 0.518462
O O12 0.627500 0.066384 0.523974
#
# Coordination Sequence:
#
# PCOD9367166 Si02
#       7
#     8   8   8   8   8   4   4
#     4  11  27  52  79 116 163 226 279 337 402 488
#     4  11  22  44  73 107 158 201 273 329 408 487
#     4  11  28  49  77 115 165 221 280 337 400 492
#     4  11  24  42  72 119 152 211 260 349 420 486
#     4  11  26  43  74 114 165 214 276 340 421 490
#     4  10  22  42  73 113 152 206 258 336 412 478
#     4  12  24  46  75 119 166 208 268 334 430 494
#
# _framework density 26.624832999999999
#
# number of rings (size 3 to 8) (size 9 to 14) (size 15 to 20)
#    0.000    1.000    3.333    2.000    4.667    2.000 
#    0.000    0.000    0.000    0.000    0.000    0.000 
#    0.000    0.000    0.000    0.000    0.000    0.000 
#
# Total GULP energy -134016.795172 kJ/mol
# GULP energy per Si atom -5584.033132 kJ/mol
# Density = 2.656423 g / cm^3
# Si number density = 26.624833 Si / 1000 Ang^3
#
#
#
# Elastic Constant Matrix: (Units=GPa)
#
#
# Indices 1 2 3 4 5 6 
#
# 1 127.8125 84.9074 42.3265 0.0000 0.0000 0.0000
# 2 84.9074 172.2176 57.1476 0.0000 0.0000 0.0000
# 3 42.3265 57.1476 120.1790 0.0000 0.0000 0.0000
# 4 0.0000 0.0000 0.0000 41.7675 0.0000 0.0000
# 5 0.0000 0.0000 0.0000 0.0000 33.4014 0.0000
# 6 0.0000 0.0000 0.0000 0.0000 0.0000 67.6409
#
#
#
# Elastic Compliance Matrix: (Units=1/GPa)
#
#
# Indices 1 2 3 4 5 6 
#
# 1 0.011909 -0.005319 -0.001665 0.000000 0.000000 0.000000
# 2 -0.005319 0.009270 -0.002535 0.000000 0.000000 0.000000
# 3 -0.001665 -0.002535 0.010113 0.000000 0.000000 0.000000
# 4 0.000000 0.000000 0.000000 0.023942 0.000000 0.000000
# 5 0.000000 0.000000 0.000000 0.000000 0.029939 0.000000
# 6 0.000000 0.000000 0.000000 0.000000 0.000000 0.014784
#
#
# Mechanical properties :
#
#
# Convention : Reuss Voigt Hill
#
# Bulk Modulus (GPa) = 81.60477 87.66358 84.63417
# Shear Modulus (GPa) = 40.62457 44.28379 42.45418
#
# Velocity S-wave (km/s) = 3.91041 4.08272 3.99749
# Velocity P-wave (km/s) = 7.14876 7.43114 7.29132
#
# Compressibility (1/GPa) = 0.01225419
#
# Stress axis : x y z
#
# Youngs Moduli (GPa) = 83.97252 107.87453 98.88550
#
# Poissons Ratio (x) = 0.57376 0.16464
# Poissons Ratio (y) = 0.44663 0.25066
# Poissons Ratio (z) = 0.13981 0.27345
#
# Static dielectric constant tensor:
#      x y z
#    x 2.191800 0.000000 0.000000 
#    y 0.000000 2.161680 0.000000 
#    z 0.000000 0.000000 2.177480 
# 
# From -- ./inp_files/7352.got.cif
#   From: 2010.05.17/outbox.cif.g08.bks.cpg/sg41_4_cif.got.tgz:7352.got - 2010.06.03 18:54:24.
