data_PCOD9367347
_publ_section_title
;
Structure prediction by ZEFSAII (Michael W. Deem and Ramdas Pophale) SiO2 
 PCOD9367347
Probable space group: A B A 2
;
_chemical_formula_sum "Si O2"
_cell_formula_units_Z 60
_cell_length_a 12.752658
_cell_length_b 19.430820
_cell_length_c 10.242302
_cell_angle_alpha 90.000000
_cell_angle_beta 90.000000
_cell_angle_gamma 90.000000
_cell_volume 2537.987149
_symmetry_space_group_name_H-M "A B A 2"
_symmetry_group_IT_number 41
_symmetry_cell_setting 'orthorhombic'
loop_
_space_group_symop_operation_xyz
x,y,z
-x,-y,z
1/2-x,y,1/2+z
1/2+x,-y,1/2+z
x,1/2+y,1/2+z
-x,1/2-y,1/2+z
1/2-x,1/2+y,z
1/2+x,1/2-y,z
loop_
_atom_site_type_symbol
_atom_site_label
_atom_site_fract_x
_atom_site_fract_y
_atom_site_fract_z
Si Si1 0.958412 0.309167 0.136390
Si Si2 0.000000 0.000000 0.146325
Si Si3 0.476304 0.297858 0.361839
Si Si4 0.408283 0.427039 0.911257
Si Si5 0.223426 0.734842 0.570209
Si Si6 0.742966 0.681773 0.317309
Si Si7 0.886428 0.929422 0.783166
Si Si8 0.650200 0.383316 0.245901
O O1 0.845276 0.280661 0.099682
O O2 0.940221 0.390722 0.159649
O O3 0.033468 0.288193 0.017380
O O4 0.915094 0.337894 0.846675
O O5 0.925524 0.947567 0.221608
O O6 0.083873 0.960303 0.053122
O O7 0.709424 0.204653 0.179599
O O8 0.378018 0.342325 0.307139
O O9 0.485025 0.231090 0.270116
O O10 0.321873 0.369814 0.888198
O O11 0.529215 0.404949 0.890872
O O12 0.386960 0.488385 0.805593
O O13 0.222424 0.755098 0.418123
O O14 0.164221 0.666390 0.619507
O O15 0.766912 0.904441 0.790201
#
# Coordination Sequence:
#
# PCOD9367347 Si02
#       8
#     8   4   8   8   8   8   8   8
#     4  10  23  42  69 106 143 189 235 292 379 428
#     4  10  26  44  72 100 138 202 244 314 362 460
#     4  11  25  40  71 111 144 186 232 317 368 448
#     4  10  25  46  70  99 137 205 241 292 368 455
#     4  10  24  43  70 106 143 193 229 308 354 452
#     4  11  25  43  72 109 147 184 246 294 377 431
#     4   9  23  45  70  94 139 192 245 291 363 446
#     4  11  24  45  70 104 143 184 251 301 379 426
#
# _framework density 23.640782999999999
#
# number of rings (size 3 to 8) (size 9 to 14) (size 15 to 20)
#    0.000    1.867    0.000    1.600   11.200   11.733 
#    2.400    1.333    0.000    0.000    0.000    0.000 
#    0.000    0.000    0.000    0.000    0.000    0.000 
#
# Total GULP energy -167401.177372 kJ/mol
# GULP energy per Si atom -5580.039246 kJ/mol
# Density = 2.358698 g / cm^3
# Si number density = 23.640783 Si / 1000 Ang^3
#
#
#
# Elastic Constant Matrix: (Units=GPa)
#
#
# Indices 1 2 3 4 5 6 
#
# 1 132.5890 58.9188 29.6852 0.0000 0.0000 0.0000
# 2 58.9188 88.9027 38.9929 0.0000 0.0000 0.0000
# 3 29.6852 38.9929 115.4841 0.0000 0.0000 0.0000
# 4 0.0000 0.0000 0.0000 35.3979 0.0000 0.0000
# 5 0.0000 0.0000 0.0000 0.0000 39.8817 0.0000
# 6 0.0000 0.0000 0.0000 0.0000 0.0000 35.6496
#
#
#
# Elastic Compliance Matrix: (Units=1/GPa)
#
#
# Indices 1 2 3 4 5 6 
#
# 1 0.010708 -0.006913 -0.000418 0.000000 0.000000 0.000000
# 2 -0.006913 0.017667 -0.004188 0.000000 0.000000 0.000000
# 3 -0.000418 -0.004188 0.010181 0.000000 0.000000 0.000000
# 4 0.000000 0.000000 0.000000 0.028250 0.000000 0.000000
# 5 0.000000 0.000000 0.000000 0.000000 0.025074 0.000000
# 6 0.000000 0.000000 0.000000 0.000000 0.000000 0.028051
#
#
# Mechanical properties :
#
#
# Convention : Reuss Voigt Hill
#
# Bulk Modulus (GPa) = 64.44754 65.79663 65.12209
# Shear Modulus (GPa) = 33.75166 36.14444 34.94805
#
# Velocity S-wave (km/s) = 3.78258 3.91436 3.84903
# Velocity P-wave (km/s) = 6.81157 6.95139 6.88184
#
# Compressibility (1/GPa) = 0.01551650
#
# Stress axis : x y z
#
# Youngs Moduli (GPa) = 93.39146 56.60424 98.22382
#
# Poissons Ratio (x) = 0.39130 0.04109
# Poissons Ratio (y) = 0.64560 0.41137
# Poissons Ratio (z) = 0.03907 0.23707
#
# Static dielectric constant tensor:
#      x y z
#    x 1.951020 0.000000 0.000000 
#    y 0.000000 1.953560 0.000000 
#    z 0.000000 0.000000 1.966410 
# 
# From -- ./inp_files/5142.got.cif
#   From: 2010.05.17/outbox.cif.g08.bks.cpg/sg41_3_cif.got.tgz:5142.got - 2010.06.03 18:54:24.
