data_PCOD9367922
_publ_section_title
;
Structure prediction by ZEFSAII (Michael W. Deem and Ramdas Pophale) SiO2 
 PCOD9367922
Probable space group: A B A 2
;
_chemical_formula_sum "Si O2"
_cell_formula_units_Z 28
_cell_length_a 12.524615
_cell_length_b 8.042822
_cell_length_c 12.273947
_cell_angle_alpha 90.000000
_cell_angle_beta 90.000000
_cell_angle_gamma 90.000000
_cell_volume 1236.394560
_symmetry_space_group_name_H-M "A B A 2"
_symmetry_group_IT_number 41
_symmetry_cell_setting 'orthorhombic'
loop_
_space_group_symop_operation_xyz
x,y,z
-x,-y,z
1/2-x,y,1/2+z
1/2+x,-y,1/2+z
x,1/2+y,1/2+z
-x,1/2-y,1/2+z
1/2-x,1/2+y,z
1/2+x,1/2-y,z
loop_
_atom_site_type_symbol
_atom_site_label
_atom_site_fract_x
_atom_site_fract_y
_atom_site_fract_z
Si Si1 0.673249 0.154565 0.641370
Si Si2 0.500000 0.500000 0.289674
Si Si3 0.068577 0.830526 0.910987
Si Si4 0.873091 0.507461 0.202144
O O1 0.620728 0.201124 0.526614
O O2 0.666597 0.320772 0.712098
O O3 0.601461 0.022611 0.708419
O O4 0.793136 0.094423 0.618830
O O5 0.487339 0.664827 0.363782
O O6 0.144414 0.889997 0.812813
O O7 0.000000 0.000000 0.925498
O O8 0.000000 0.500000 0.178449
#
# Coordination Sequence:
#
# PCOD9367922 Si02
#       4
#     8   4   8   8
#     4  12  26  47  80 109 160 203 256 322 395 453
#     4  12  24  46  80 116 150 202 252 330 386 472
#     4  11  25  48  77 113 155 198 261 317 393 463
#     4  11  26  50  74 113 157 198 262 321 377 467
#
# _framework density 22.646493
#
# number of rings (size 3 to 8) (size 9 to 14) (size 15 to 20)
#    0.000    0.571    7.143    1.714    2.000    4.571 
#    0.000    0.000    0.000    0.000    0.000    0.000 
#    0.000    0.000    0.000    0.000    0.000    0.000 
#
# Total GULP energy -78149.471808 kJ/mol
# GULP energy per Si atom -5582.105129 kJ/mol
# Density = 2.259495 g / cm^3
# Si number density = 22.646493 Si / 1000 Ang^3
#
#
#
# Elastic Constant Matrix: (Units=GPa)
#
#
# Indices 1 2 3 4 5 6 
#
# 1 129.4956 49.0641 41.0634 0.0000 0.0000 0.0000
# 2 49.0641 133.6787 36.4216 0.0000 0.0000 0.0000
# 3 41.0634 36.4216 110.3683 0.0000 0.0000 0.0000
# 4 0.0000 0.0000 0.0000 15.5369 0.0000 0.0000
# 5 0.0000 0.0000 0.0000 0.0000 21.8080 0.0000
# 6 0.0000 0.0000 0.0000 0.0000 0.0000 38.2615
#
#
#
# Elastic Compliance Matrix: (Units=1/GPa)
#
#
# Indices 1 2 3 4 5 6 
#
# 1 0.009629 -0.002811 -0.002655 0.000000 0.000000 0.000000
# 2 -0.002811 0.009040 -0.001937 0.000000 0.000000 0.000000
# 3 -0.002655 -0.001937 0.010688 0.000000 0.000000 0.000000
# 4 0.000000 0.000000 0.000000 0.064363 0.000000 0.000000
# 5 0.000000 0.000000 0.000000 0.000000 0.045855 0.000000
# 6 0.000000 0.000000 0.000000 0.000000 0.000000 0.026136
#
#
# Mechanical properties :
#
#
# Convention : Reuss Voigt Hill
#
# Bulk Modulus (GPa) = 68.72643 69.62676 69.17660
# Shear Modulus (GPa) = 26.97344 31.58750 29.28047
#
# Velocity S-wave (km/s) = 3.45492 3.73876 3.59964
# Velocity P-wave (km/s) = 6.80652 7.03204 6.92020
#
# Compressibility (1/GPa) = 0.01455044
#
# Stress axis : x y z
#
# Youngs Moduli (GPa) = 103.85112 110.61757 93.56488
#
# Poissons Ratio (x) = 0.31093 0.24842
# Poissons Ratio (y) = 0.29191 0.18128
# Poissons Ratio (z) = 0.27573 0.21432
#
# Static dielectric constant tensor:
#      x y z
#    x 1.893640 0.000000 0.000000 
#    y 0.000000 1.850630 0.000000 
#    z 0.000000 0.000000 1.847110 
# 
# From -- ./inp_files/5240.got.cif
#   From: 2010.05.17/outbox.cif.g08.bks.cpg/sg41_3_cif.got.tgz:5240.got - 2010.06.03 18:54:24.
