data_PCOD9367907
_publ_section_title
;
Structure prediction by ZEFSAII (Michael W. Deem and Ramdas Pophale) SiO2 
 PCOD9367907
Probable space group: A B A 2
;
_chemical_formula_sum "Si O2"
_cell_formula_units_Z 56
_cell_length_a 14.677264
_cell_length_b 10.557448
_cell_length_c 15.390326
_cell_angle_alpha 90.000000
_cell_angle_beta 90.000000
_cell_angle_gamma 90.000000
_cell_volume 2384.799523
_symmetry_space_group_name_H-M "A B A 2"
_symmetry_group_IT_number 41
_symmetry_cell_setting 'orthorhombic'
loop_
_space_group_symop_operation_xyz
x,y,z
-x,-y,z
1/2-x,y,1/2+z
1/2+x,-y,1/2+z
x,1/2+y,1/2+z
-x,1/2-y,1/2+z
1/2-x,1/2+y,z
1/2+x,1/2-y,z
loop_
_atom_site_type_symbol
_atom_site_label
_atom_site_fract_x
_atom_site_fract_y
_atom_site_fract_z
Si Si1 0.358344 0.571507 0.287360
Si Si2 0.089791 0.069159 0.720611
Si Si3 0.541669 0.694353 0.323908
Si Si4 0.386470 0.262835 0.078107
Si Si5 0.257595 0.106337 0.966992
Si Si6 0.746942 0.037263 0.640672
Si Si7 0.540420 0.868157 0.475388
O O1 0.440468 0.672111 0.286635
O O2 0.404928 0.435447 0.308873
O O3 0.286856 0.584766 0.367289
O O4 0.313156 0.567570 0.192152
O O5 0.098345 0.187879 0.785076
O O6 0.080095 0.139787 0.628406
O O7 0.166614 0.964631 0.703792
O O8 0.000000 0.000000 0.747031
O O9 0.524444 0.739139 0.421848
O O10 0.315046 0.339923 0.136655
O O11 0.323693 0.220257 0.997579
O O12 0.473622 0.348599 0.057395
O O13 0.149307 0.124412 0.980598
O O14 0.273826 0.999199 0.041944
O O15 0.500000 0.000000 0.437202
#
# Coordination Sequence:
#
# PCOD9367907 Si02
#       7
#     8   8   8   8   8   8   8
#     4  11  25  48  75 106 154 200 256 313 389 459
#     4  11  26  45  73 108 147 193 254 312 383 453
#     4  11  25  45  73 108 151 198 254 314 384 464
#     4  11  25  46  70 112 148 197 254 313 382 459
#     4  11  26  45  73 108 147 200 248 313 381 458
#     4  11  25  48  73 108 148 197 251 312 386 456
#     4  12  25  43  70 104 149 195 249 313 376 454
#
# _framework density 23.482057999999999
#
# number of rings (size 3 to 8) (size 9 to 14) (size 15 to 20)
#    0.000    0.857    4.286    1.286    6.000    2.286 
#    5.143    0.000    0.000    0.000    0.000    0.000 
#    0.000    0.000    0.000    0.000    0.000    0.000 
#
# Total GULP energy -156141.287369 kJ/mol
# GULP energy per Si atom -5576.474549 kJ/mol
# Density = 2.342861 g / cm^3
# Si number density = 23.482058 Si / 1000 Ang^3
#
#
#
# Elastic Constant Matrix: (Units=GPa)
#
#
# Indices 1 2 3 4 5 6 
#
# 1 109.5224 8.1410 15.6226 0.0000 0.0000 0.0000
# 2 8.1410 40.8584 16.3126 0.0000 0.0000 0.0000
# 3 15.6226 16.3126 67.6439 0.0000 0.0000 0.0000
# 4 0.0000 0.0000 0.0000 15.6628 0.0000 0.0000
# 5 0.0000 0.0000 0.0000 0.0000 29.6536 0.0000
# 6 0.0000 0.0000 0.0000 0.0000 0.0000 30.6394
#
#
#
# Elastic Compliance Matrix: (Units=1/GPa)
#
#
# Indices 1 2 3 4 5 6 
#
# 1 0.009488 -0.001124 -0.001920 0.000000 0.000000 0.000000
# 2 -0.001124 0.027215 -0.006304 0.000000 0.000000 0.000000
# 3 -0.001920 -0.006304 0.016747 0.000000 0.000000 0.000000
# 4 0.000000 0.000000 0.000000 0.063845 0.000000 0.000000
# 5 0.000000 0.000000 0.000000 0.000000 0.033723 0.000000
# 6 0.000000 0.000000 0.000000 0.000000 0.000000 0.032638
#
#
# Mechanical properties :
#
#
# Convention : Reuss Voigt Hill
#
# Bulk Modulus (GPa) = 28.77283 33.13078 30.95180
# Shear Modulus (GPa) = 23.37144 27.05440 25.21292
#
# Velocity S-wave (km/s) = 3.15824 3.39799 3.28031
# Velocity P-wave (km/s) = 5.05757 5.43458 5.24946
#
# Compressibility (1/GPa) = 0.03475501
#
# Stress axis : x y z
#
# Youngs Moduli (GPa) = 105.39623 36.74401 59.71247
#
# Poissons Ratio (x) = 0.04129 0.11466
# Poissons Ratio (y) = 0.11845 0.37640
# Poissons Ratio (z) = 0.20239 0.23162
#
# Static dielectric constant tensor:
#      x y z
#    x 1.915960 0.000000 0.000000 
#    y 0.000000 1.870350 0.000000 
#    z 0.000000 0.000000 1.939420 
# 
# From -- ./inp_files/8389.got.cif
#   From: 2010.05.17/outbox.cif.g08.bks.cpg/sg41_5_cif.got.tgz:8389.got - 2010.06.03 18:54:24.
