data_PCOD9367869
_publ_section_title
;
Structure prediction by ZEFSAII (Michael W. Deem and Ramdas Pophale) SiO2 
 PCOD9367869
Probable space group: A B A 2
;
_chemical_formula_sum "Si O2"
_cell_formula_units_Z 40
_cell_length_a 17.063716
_cell_length_b 8.450144
_cell_length_c 11.669319
_cell_angle_alpha 90.000000
_cell_angle_beta 90.000000
_cell_angle_gamma 90.000000
_cell_volume 1682.609112
_symmetry_space_group_name_H-M "A B A 2"
_symmetry_group_IT_number 41
_symmetry_cell_setting 'orthorhombic'
loop_
_space_group_symop_operation_xyz
x,y,z
-x,-y,z
1/2-x,y,1/2+z
1/2+x,-y,1/2+z
x,1/2+y,1/2+z
-x,1/2-y,1/2+z
1/2-x,1/2+y,z
1/2+x,1/2-y,z
loop_
_atom_site_type_symbol
_atom_site_label
_atom_site_fract_x
_atom_site_fract_y
_atom_site_fract_z
Si Si1 0.718432 0.361879 0.080970
Si Si2 0.154109 0.429319 0.181680
Si Si3 0.866069 0.307153 0.362918
Si Si4 0.012806 0.329074 0.022811
Si Si5 0.917368 0.093327 0.159085
O O1 0.798688 0.452616 0.098121
O O2 0.706628 0.228849 0.178814
O O3 0.647173 0.483704 0.100462
O O4 0.703230 0.288244 0.955862
O O5 0.142470 0.526758 0.297399
O O6 0.072779 0.373515 0.125910
O O7 0.945264 0.290730 0.437074
O O8 0.877844 0.166882 0.271927
O O9 0.000000 0.500000 0.965990
O O10 0.940282 0.240805 0.078515
O O11 0.000000 0.000000 0.178504
#
# Coordination Sequence:
#
# PCOD9367869 Si02
#       5
#     8   8   8   8   8
#     4  11  27  47  69 107 145 195 253 305 360 452
#     4  11  24  45  72 100 149 190 249 300 361 438
#     4  11  25  46  73 102 142 197 229 301 379 411
#     4  11  24  46  75 113 148 190 250 306 365 453
#     4  12  23  46  74 111 150 186 248 305 365 451
#
# _framework density 23.772604999999999
#
# number of rings (size 3 to 8) (size 9 to 14) (size 15 to 20)
#    0.000    0.800    6.000    1.800    0.000    9.600 
#    3.600    0.000    0.000    0.000    0.000    0.000 
#    0.000    0.000    0.000    0.000    0.000    0.000 
#
# Total GULP energy -111860.838951 kJ/mol
# GULP energy per Si atom -5593.041948 kJ/mol
# Density = 2.371850 g / cm^3
# Si number density = 23.772605 Si / 1000 Ang^3
#
#
#
# Elastic Constant Matrix: (Units=GPa)
#
#
# Indices 1 2 3 4 5 6 
#
# 1 88.8597 46.1241 21.8788 0.0000 0.0000 0.0000
# 2 46.1241 143.2091 44.9709 0.0000 0.0000 0.0000
# 3 21.8788 44.9709 104.9309 0.0000 0.0000 0.0000
# 4 0.0000 0.0000 0.0000 20.7650 0.0000 0.0000
# 5 0.0000 0.0000 0.0000 0.0000 18.1307 0.0000
# 6 0.0000 0.0000 0.0000 0.0000 0.0000 57.1804
#
#
#
# Elastic Compliance Matrix: (Units=1/GPa)
#
#
# Indices 1 2 3 4 5 6 
#
# 1 0.013624 -0.004039 -0.001109 0.000000 0.000000 0.000000
# 2 -0.004039 0.009266 -0.003129 0.000000 0.000000 0.000000
# 3 -0.001109 -0.003129 0.011102 0.000000 0.000000 0.000000
# 4 0.000000 0.000000 0.000000 0.048158 0.000000 0.000000
# 5 0.000000 0.000000 0.000000 0.000000 0.055155 0.000000
# 6 0.000000 0.000000 0.000000 0.000000 0.000000 0.017489
#
#
# Mechanical properties :
#
#
# Convention : Reuss Voigt Hill
#
# Bulk Modulus (GPa) = 57.35081 62.54972 59.95026
# Shear Modulus (GPa) = 28.22276 34.15029 31.18653
#
# Velocity S-wave (km/s) = 3.44931 3.79428 3.62590
# Velocity P-wave (km/s) = 6.32778 6.75013 6.54236
#
# Compressibility (1/GPa) = 0.01743655
#
# Stress axis : x y z
#
# Youngs Moduli (GPa) = 73.40208 107.91652 90.07007
#
# Poissons Ratio (x) = 0.43592 0.09992
# Poissons Ratio (y) = 0.29650 0.28184
# Poissons Ratio (z) = 0.08143 0.33768
#
# Static dielectric constant tensor:
#      x y z
#    x 1.899690 0.000000 0.000000 
#    y 0.000000 1.952180 0.000000 
#    z 0.000000 0.000000 1.910080 
# 
# From -- ./inp_files/5817.got.cif
#   From: 2010.05.17/outbox.cif.g08.bks.cpg/sg41_3_cif.got.tgz:5817.got - 2010.06.03 18:54:24.
