data_PCOD9367651
_publ_section_title
;
Structure prediction by ZEFSAII (Michael W. Deem and Ramdas Pophale) SiO2 
 PCOD9367651
Probable space group: A B A 2
;
_chemical_formula_sum "Si O2"
_cell_formula_units_Z 36
_cell_length_a 12.988478
_cell_length_b 17.530302
_cell_length_c 6.019233
_cell_angle_alpha 90.000000
_cell_angle_beta 90.000000
_cell_angle_gamma 90.000000
_cell_volume 1370.530850
_symmetry_space_group_name_H-M "A B A 2"
_symmetry_group_IT_number 41
_symmetry_cell_setting 'orthorhombic'
loop_
_space_group_symop_operation_xyz
x,y,z
-x,-y,z
1/2-x,y,1/2+z
1/2+x,-y,1/2+z
x,1/2+y,1/2+z
-x,1/2-y,1/2+z
1/2-x,1/2+y,z
1/2+x,1/2-y,z
loop_
_atom_site_type_symbol
_atom_site_label
_atom_site_fract_x
_atom_site_fract_y
_atom_site_fract_z
Si Si1 0.497254 0.123295 0.400800
Si Si2 0.000000 0.000000 0.259795
Si Si3 0.849849 0.910111 0.542775
Si Si4 0.338548 0.689817 0.170166
Si Si5 0.213964 0.855910 0.700609
O O1 0.528814 0.072182 0.608784
O O2 0.411901 0.076990 0.266364
O O3 0.431252 0.193890 0.496089
O O4 0.591812 0.137582 0.241257
O O5 0.102382 0.022737 0.394893
O O6 0.734996 0.883399 0.610505
O O7 0.884148 0.834352 0.407391
O O8 0.269765 0.764309 0.189502
O O9 0.243471 0.882918 0.447558
#
# Coordination Sequence:
#
# PCOD9367651 Si02
#       5
#     8   4   8   8   8
#     4  11  26  46  74 108 151 208 258 330 394 469
#     4  10  26  46  72 104 148 196 270 318 388 476
#     4  11  21  46  72 108 145 196 265 316 391 470
#     4  11  23  42  76 112 147 201 254 323 394 481
#     4  12  28  48  72 115 161 202 260 328 404 471
#
# _framework density 26.267192999999999
#
# number of rings (size 3 to 8) (size 9 to 14) (size 15 to 20)
#    0.000    0.889    4.444    0.667    9.333    0.000 
#    8.000    0.000    0.000    0.000    0.000    0.000 
#    0.000    0.000    0.000    0.000    0.000    0.000 
#
# Total GULP energy -100304.633686 kJ/mol
# GULP energy per Si atom -5572.479649 kJ/mol
# Density = 2.620741 g / cm^3
# Si number density = 26.267193 Si / 1000 Ang^3
#
#
#
# Elastic Constant Matrix: (Units=GPa)
#
#
# Indices 1 2 3 4 5 6 
#
# 1 134.3043 28.0920 49.5605 0.0000 0.0000 0.0000
# 2 28.0920 42.4950 19.9300 0.0000 0.0000 0.0000
# 3 49.5605 19.9300 136.7619 0.0000 0.0000 0.0000
# 4 0.0000 0.0000 0.0000 25.8251 0.0000 0.0000
# 5 0.0000 0.0000 0.0000 0.0000 40.9908 0.0000
# 6 0.0000 0.0000 0.0000 0.0000 0.0000 31.5888
#
#
#
# Elastic Compliance Matrix: (Units=1/GPa)
#
#
# Indices 1 2 3 4 5 6 
#
# 1 0.009493 -0.005004 -0.002711 0.000000 0.000000 0.000000
# 2 -0.005004 0.027896 -0.002252 0.000000 0.000000 0.000000
# 3 -0.002711 -0.002252 0.008623 0.000000 0.000000 0.000000
# 4 0.000000 0.000000 0.000000 0.038722 0.000000 0.000000
# 5 0.000000 0.000000 0.000000 0.000000 0.024396 0.000000
# 6 0.000000 0.000000 0.000000 0.000000 0.000000 0.031657
#
#
# Mechanical properties :
#
#
# Convention : Reuss Voigt Hill
#
# Bulk Modulus (GPa) = 38.34628 56.52514 47.43571
# Shear Modulus (GPa) = 29.51383 34.07954 31.79668
#
# Velocity S-wave (km/s) = 3.35565 3.60588 3.48301
# Velocity P-wave (km/s) = 5.44464 6.23718 5.85434
#
# Compressibility (1/GPa) = 0.02607815
#
# Stress axis : x y z
#
# Youngs Moduli (GPa) = 105.34319 35.84710 115.97554
#
# Poissons Ratio (x) = 0.17938 0.31439
# Poissons Ratio (y) = 0.52714 0.26116
# Poissons Ratio (z) = 0.28557 0.08072
#
# Static dielectric constant tensor:
#      x y z
#    x 2.045390 0.000000 0.000000 
#    y 0.000000 2.150410 0.000000 
#    z 0.000000 0.000000 2.191080 
# 
# From -- ./inp_files/113.got.cif
#   From: 2010.05.17/outbox.cif.g08.bks.cpg/sg41_1_cif.got.tgz:113.got - 2010.06.03 18:54:24.
