data_PCOD9367479
_publ_section_title
;
Structure prediction by ZEFSAII (Michael W. Deem and Ramdas Pophale) SiO2 
 PCOD9367479
Probable space group: A B A 2
;
_chemical_formula_sum "Si O2"
_cell_formula_units_Z 52
_cell_length_a 24.774580
_cell_length_b 12.298960
_cell_length_c 7.830139
_cell_angle_alpha 90.000000
_cell_angle_beta 90.000000
_cell_angle_gamma 90.000000
_cell_volume 2385.855634
_symmetry_space_group_name_H-M "A B A 2"
_symmetry_group_IT_number 41
_symmetry_cell_setting 'orthorhombic'
loop_
_space_group_symop_operation_xyz
x,y,z
-x,-y,z
1/2-x,y,1/2+z
1/2+x,-y,1/2+z
x,1/2+y,1/2+z
-x,1/2-y,1/2+z
1/2-x,1/2+y,z
1/2+x,1/2-y,z
loop_
_atom_site_type_symbol
_atom_site_label
_atom_site_fract_x
_atom_site_fract_y
_atom_site_fract_z
Si Si1 0.716221 0.426292 0.037550
Si Si2 0.811070 0.296543 0.859683
Si Si3 0.971142 0.784862 0.044754
Si Si4 0.805569 0.057939 0.720275
Si Si5 0.070253 0.164561 0.421398
Si Si6 0.500000 0.500000 0.839960
Si Si7 0.918794 0.069872 0.546202
O O1 0.683252 0.369250 0.187641
O O2 0.751502 0.521730 0.123831
O O3 0.761731 0.343662 0.967834
O O4 0.684944 0.472328 0.874353
O O5 0.799349 0.175143 0.802981
O O6 0.868039 0.303311 0.954353
O O7 0.976054 0.899604 0.948726
O O8 0.030093 0.728489 0.046236
O O9 0.947815 0.802907 0.232419
O O10 0.934409 0.686691 0.969003
O O11 0.856066 0.062592 0.593474
O O12 0.065652 0.034881 0.436371
O O13 0.546485 0.550985 0.719327
#
# Coordination Sequence:
#
# PCOD9367479 Si02
#       7
#     8   8   8   8   8   4   8
#     4  10  24  41  68  97 135 179 225 279 334 405
#     4  11  22  44  65 100 137 175 225 281 332 408
#     4  12  25  45  67  99 131 184 222 286 336 416
#     4  11  22  42  66  96 131 175 221 275 338 395
#     4  12  24  45  68  97 140 180 230 277 352 408
#     4  12  26  42  68  96 132 174 226 272 340 406
#     4  12  24  44  66  95 139 174 223 284 333 412
#
# _framework density 21.795114999999999
#
# number of rings (size 3 to 8) (size 9 to 14) (size 15 to 20)
#    0.000    0.615    6.154    0.923    4.308    0.000 
#    0.000    0.000    0.000    0.000    0.000    0.000 
#    0.000    0.000    0.000    0.000    0.000    0.000 
#
# Total GULP energy -145457.826351 kJ/mol
# GULP energy per Si atom -5594.531783 kJ/mol
# Density = 2.174551 g / cm^3
# Si number density = 21.795115 Si / 1000 Ang^3
#
#
#
# Elastic Constant Matrix: (Units=GPa)
#
#
# Indices 1 2 3 4 5 6 
#
# 1 69.2431 20.1985 -2.1478 0.0000 0.0000 0.0000
# 2 20.1985 134.0742 14.3652 0.0000 0.0000 0.0000
# 3 -2.1478 14.3652 14.3512 0.0000 0.0000 0.0000
# 4 0.0000 0.0000 0.0000 39.9449 0.0000 0.0000
# 5 0.0000 0.0000 0.0000 0.0000 629.0812 0.0000
# 6 0.0000 0.0000 0.0000 0.0000 0.0000 -10.7992
#
#
#
# Elastic Compliance Matrix: (Units=1/GPa)
#
#
# Indices 1 2 3 4 5 6 
#
# 1 0.015444 -0.002884 0.005198 0.000000 0.000000 0.000000
# 2 -0.002884 0.008893 -0.009333 0.000000 0.000000 0.000000
# 3 0.005198 -0.009333 0.079801 0.000000 0.000000 0.000000
# 4 0.000000 0.000000 0.000000 0.025034 0.000000 0.000000
# 5 0.000000 0.000000 0.000000 0.000000 0.001590 0.000000
# 6 0.000000 0.000000 0.000000 0.000000 0.000000 -0.092600
#
#
# Mechanical properties :
#
#
# Convention : Reuss Voigt Hill
#
# Bulk Modulus (GPa) = 11.09879 31.38896 21.24388
# Shear Modulus (GPa) = 60.80232 143.99556 102.39894
#
# Velocity S-wave (km/s) = 5.28751 8.13703 6.86182
# Velocity P-wave (km/s) = 6.51003 10.13483 8.51749
#
# Compressibility (1/GPa) = 0.09009987
#
# Stress axis : x y z
#
# Youngs Moduli (GPa) = 64.74899 112.44832 12.53121
#
# Poissons Ratio (x) = 0.32426 -0.06513
# Poissons Ratio (y) = 0.18671 0.11696
# Poissons Ratio (z) = -0.33655 1.04950
#
# Static dielectric constant tensor:
#      x y z
#    x 1.770390 0.000000 0.000000 
#    y 0.000000 1.804660 0.000000 
#    z 0.000000 0.000000 1.804380 
# 
# From -- ./inp_files/3783.got.cif
#   From: 2010.05.17/outbox.cif.g08.bks.cpg/sg41_2_cif.got.tgz:3783.got - 2010.06.03 18:54:24.
