data_PCOD9367630
_publ_section_title
;
Structure prediction by ZEFSAII (Michael W. Deem and Ramdas Pophale) SiO2 
 PCOD9367630
Probable space group: A B A 2
;
_chemical_formula_sum "Si O2"
_cell_formula_units_Z 48
_cell_length_a 10.580334
_cell_length_b 8.910958
_cell_length_c 21.623294
_cell_angle_alpha 90.000000
_cell_angle_beta 90.000000
_cell_angle_gamma 90.000000
_cell_volume 2038.663877
_symmetry_space_group_name_H-M "A B A 2"
_symmetry_group_IT_number 41
_symmetry_cell_setting 'orthorhombic'
loop_
_space_group_symop_operation_xyz
x,y,z
-x,-y,z
1/2-x,y,1/2+z
1/2+x,-y,1/2+z
x,1/2+y,1/2+z
-x,1/2-y,1/2+z
1/2-x,1/2+y,z
1/2+x,1/2-y,z
loop_
_atom_site_type_symbol
_atom_site_label
_atom_site_fract_x
_atom_site_fract_y
_atom_site_fract_z
Si Si1 0.000000 0.000000 0.031910
Si Si2 0.500000 0.000000 0.739075
Si Si3 0.730279 0.484310 0.803463
Si Si4 0.137251 0.047419 0.675709
Si Si5 0.641896 0.148942 0.637598
Si Si6 0.971340 0.174496 0.464621
Si Si7 0.774826 0.742227 0.390085
O O1 0.111004 0.944609 0.077447
O O2 0.962808 0.837804 0.001174
O O3 0.623583 0.978403 0.780645
O O4 0.469961 0.868111 0.688945
O O5 0.648547 0.415288 0.748197
O O6 0.699001 0.650642 0.826561
O O7 0.709316 0.391953 0.865451
O O8 0.169781 0.178880 0.628817
O O9 0.236091 0.916355 0.669649
O O10 0.000000 0.000000 0.659363
O O11 0.834070 0.163452 0.431080
O O12 0.094117 0.213863 0.422437
O O13 0.000000 0.000000 0.488964
#
# Coordination Sequence:
#
# PCOD9367630 Si02
#       7
#     4   4   8   8   8   8   8
#     4  11  28  52  86 100 144 208 262 327 398 442
#     4   9  20  40  68 100 148 190 244 301 364 460
#     4  11  22  38  72 106 152 202 242 293 389 457
#     4  11  26  43  72 112 152 197 247 301 379 475
#     4  10  25  48  69 107 149 187 257 318 374 455
#     4  12  28  54  76 114 154 199 268 332 381 453
#     4  12  25  46  73 110 153 202 254 316 379 460
#
# _framework density 23.544832
#
# number of rings (size 3 to 8) (size 9 to 14) (size 15 to 20)
#    0.000    1.000    1.667    4.000   11.667    2.000 
#    0.000    0.000    0.000    0.000    0.000    0.000 
#    0.000    0.000    0.000    0.000    0.000    0.000 
#
# Total GULP energy -133726.791450 kJ/mol
# GULP energy per Si atom -5571.949644 kJ/mol
# Density = 2.349124 g / cm^3
# Si number density = 23.544832 Si / 1000 Ang^3
#
#
#
# Elastic Constant Matrix: (Units=GPa)
#
#
# Indices 1 2 3 4 5 6 
#
# 1 48.4544 32.3913 20.7946 0.0000 0.0000 0.0000
# 2 32.3913 140.0218 44.1013 0.0000 0.0000 0.0000
# 3 20.7946 44.1013 63.7636 0.0000 0.0000 0.0000
# 4 0.0000 0.0000 0.0000 45.6548 0.0000 0.0000
# 5 0.0000 0.0000 0.0000 0.0000 9.8416 0.0000
# 6 0.0000 0.0000 0.0000 0.0000 0.0000 30.1238
#
#
#
# Elastic Compliance Matrix: (Units=1/GPa)
#
#
# Indices 1 2 3 4 5 6 
#
# 1 0.025832 -0.004248 -0.005486 0.000000 0.000000 0.000000
# 2 -0.004248 0.009829 -0.005413 0.000000 0.000000 0.000000
# 3 -0.005486 -0.005413 0.021216 0.000000 0.000000 0.000000
# 4 0.000000 0.000000 0.000000 0.021904 0.000000 0.000000
# 5 0.000000 0.000000 0.000000 0.000000 0.101609 0.000000
# 6 0.000000 0.000000 0.000000 0.000000 0.000000 0.033196
#
#
# Mechanical properties :
#
#
# Convention : Reuss Voigt Hill
#
# Bulk Modulus (GPa) = 37.61814 49.64604 43.63209
# Shear Modulus (GPa) = 19.78302 27.45420 23.61861
#
# Velocity S-wave (km/s) = 2.90181 3.41844 3.17066
# Velocity P-wave (km/s) = 5.21913 6.05908 5.65472
#
# Compressibility (1/GPa) = 0.02658292
#
# Stress axis : x y z
#
# Youngs Moduli (GPa) = 38.71154 101.73707 47.13418
#
# Poissons Ratio (x) = 0.43215 0.25860
# Poissons Ratio (y) = 0.16444 0.25514
# Poissons Ratio (z) = 0.21239 0.55070
#
# Static dielectric constant tensor:
#      x y z
#    x 1.836160 0.000000 0.000000 
#    y 0.000000 2.053410 0.000000 
#    z 0.000000 0.000000 1.931550 
# 
# From -- ./inp_files/12120.got.cif
#   From: 2010.05.17/outbox.cif.g08.bks.cpg/sg41_7_cif.got.tgz:12120.got - 2010.06.03 18:54:24.
