data_PCOD9367888
_publ_section_title
;
Structure prediction by ZEFSAII (Michael W. Deem and Ramdas Pophale) SiO2 
 PCOD9367888
Probable space group: A B A 2
;
_chemical_formula_sum "Si O2"
_cell_formula_units_Z 44
_cell_length_a 16.481345
_cell_length_b 13.433844
_cell_length_c 8.835202
_cell_angle_alpha 90.000000
_cell_angle_beta 90.000000
_cell_angle_gamma 90.000000
_cell_volume 1956.182793
_symmetry_space_group_name_H-M "A B A 2"
_symmetry_group_IT_number 41
_symmetry_cell_setting 'orthorhombic'
loop_
_space_group_symop_operation_xyz
x,y,z
-x,-y,z
1/2-x,y,1/2+z
1/2+x,-y,1/2+z
x,1/2+y,1/2+z
-x,1/2-y,1/2+z
1/2-x,1/2+y,z
1/2+x,1/2-y,z
loop_
_atom_site_type_symbol
_atom_site_label
_atom_site_fract_x
_atom_site_fract_y
_atom_site_fract_z
Si Si1 0.914713 0.333214 0.890850
Si Si2 0.500000 0.000000 0.367410
Si Si3 0.167149 0.807722 0.478408
Si Si4 0.510189 0.309347 0.070918
Si Si5 0.631726 0.990032 0.121230
Si Si6 0.742105 0.809258 0.227171
O O1 0.977107 0.328461 0.749050
O O2 0.825350 0.331678 0.817592
O O3 0.920079 0.429363 0.997022
O O4 0.929278 0.240349 0.003795
O O5 0.475307 0.091071 0.474822
O O6 0.426082 0.971655 0.255929
O O7 0.077962 0.771538 0.525382
O O8 0.227064 0.738505 0.573492
O O9 0.188167 0.774540 0.309982
O O10 0.175079 0.920565 0.532765
O O11 0.692436 0.909498 0.195021
#
# Coordination Sequence:
#
# PCOD9367888 Si02
#       6
#     8   4   8   8   8   8
#     4  11  25  48  74 107 149 199 254 318 381 468
#     4  12  24  46  72 108 150 200 256 322 378 468
#     4  11  25  44  73 103 151 197 251 322 382 461
#     4  11  25  47  74 108 148 199 262 312 388 460
#     4  12  25  46  75 107 156 199 255 317 400 461
#     4  11  24  47  68 111 147 196 253 313 387 466
#
# _framework density 22.492784
#
# number of rings (size 3 to 8) (size 9 to 14) (size 15 to 20)
#    0.000    0.727    3.636    4.364    2.545    2.182 
#    6.545    0.000    0.000    0.000    0.000    0.000 
#    0.000    0.000    0.000    0.000    0.000    0.000 
#
# Total GULP energy -123037.924216 kJ/mol
# GULP energy per Si atom -5592.632919 kJ/mol
# Density = 2.244159 g / cm^3
# Si number density = 22.492784 Si / 1000 Ang^3
#
#
#
# Elastic Constant Matrix: (Units=GPa)
#
#
# Indices 1 2 3 4 5 6 
#
# 1 70.8534 33.5493 43.4276 0.0000 0.0000 0.0000
# 2 33.5493 79.6705 29.9913 0.0000 0.0000 0.0000
# 3 43.4276 29.9913 142.1570 0.0000 0.0000 0.0000
# 4 0.0000 0.0000 0.0000 48.1694 0.0000 0.0000
# 5 0.0000 0.0000 0.0000 0.0000 4.1284 0.0000
# 6 0.0000 0.0000 0.0000 0.0000 0.0000 37.7229
#
#
#
# Elastic Compliance Matrix: (Units=1/GPa)
#
#
# Indices 1 2 3 4 5 6 
#
# 1 0.020211 -0.006720 -0.004756 0.000000 0.000000 0.000000
# 2 -0.006720 0.015869 -0.001295 0.000000 0.000000 0.000000
# 3 -0.004756 -0.001295 0.008761 0.000000 0.000000 0.000000
# 4 0.000000 0.000000 0.000000 0.020760 0.000000 0.000000
# 5 0.000000 0.000000 0.000000 0.000000 0.242225 0.000000
# 6 0.000000 0.000000 0.000000 0.000000 0.000000 0.026509
#
#
# Mechanical properties :
#
#
# Convention : Reuss Voigt Hill
#
# Bulk Modulus (GPa) = 51.82053 56.29079 54.05566
# Shear Modulus (GPa) = 13.64961 30.38500 22.01731
#
# Velocity S-wave (km/s) = 2.46609 3.67942 3.13207
# Velocity P-wave (km/s) = 5.58548 6.56744 6.09626
#
# Compressibility (1/GPa) = 0.01929737
#
# Stress axis : x y z
#
# Youngs Moduli (GPa) = 49.47766 63.01545 114.14563
#
# Poissons Ratio (x) = 0.42349 0.54293
# Poissons Ratio (y) = 0.33251 0.14781
# Poissons Ratio (z) = 0.23534 0.08160
#
# Static dielectric constant tensor:
#      x y z
#    x 1.876580 0.000000 0.000000 
#    y 0.000000 1.801860 0.000000 
#    z 0.000000 0.000000 1.840630 
# 
# From -- ./inp_files/3001.got.cif
#   From: 2010.05.17/outbox.cif.g08.bks.cpg/sg41_2_cif.got.tgz:3001.got - 2010.06.03 18:54:24.
