data_PCOD9367455
_publ_section_title
;
Structure prediction by ZEFSAII (Michael W. Deem and Ramdas Pophale) SiO2 
 PCOD9367455
Probable space group: A B A 2
;
_chemical_formula_sum "Si O2"
_cell_formula_units_Z 40
_cell_length_a 13.834230
_cell_length_b 9.361754
_cell_length_c 11.145328
_cell_angle_alpha 90.000000
_cell_angle_beta 90.000000
_cell_angle_gamma 90.000000
_cell_volume 1443.461054
_symmetry_space_group_name_H-M "A B A 2"
_symmetry_group_IT_number 41
_symmetry_cell_setting 'orthorhombic'
loop_
_space_group_symop_operation_xyz
x,y,z
-x,-y,z
1/2-x,y,1/2+z
1/2+x,-y,1/2+z
x,1/2+y,1/2+z
-x,1/2-y,1/2+z
1/2-x,1/2+y,z
1/2+x,1/2-y,z
loop_
_atom_site_type_symbol
_atom_site_label
_atom_site_fract_x
_atom_site_fract_y
_atom_site_fract_z
Si Si1 0.485214 0.796180 0.730330
Si Si2 0.784035 0.538087 0.748255
Si Si3 0.500000 0.500000 0.022796
Si Si4 0.644533 0.199600 0.386259
Si Si5 0.291543 0.467386 0.505961
Si Si6 0.000000 0.500000 0.109059
O O1 0.384162 0.876320 0.749232
O O2 0.530214 0.874716 0.614557
O O3 0.556577 0.800483 0.843639
O O4 0.469845 0.633905 0.690975
O O5 0.696592 0.651174 0.764111
O O6 0.759333 0.467260 0.622802
O O7 0.780391 0.454075 0.875466
O O8 0.582578 0.566901 0.941814
O O9 0.735106 0.182234 0.479281
O O10 0.404778 0.460377 0.533515
#
# Coordination Sequence:
#
# PCOD9367455 Si02
#       6
#     8   8   4   8   8   4
#     4  12  26  50  83 118 166 227 280 349 436 514
#     4  10  23  48  75 118 157 216 277 341 424 510
#     4  12  27  51  82 124 172 222 290 356 432 516
#     4  10  25  48  80 117 167 213 279 355 420 508
#     4  10  23  49  71 121 158 217 280 347 420 514
#     4  12  25  49  84 116 170 222 280 350 436 512
#
# _framework density 27.711172999999999
#
# number of rings (size 3 to 8) (size 9 to 14) (size 15 to 20)
#    1.200    0.000    4.000    0.600    2.800    2.400 
#    0.000    8.000    0.000    0.000    0.000    0.000 
#    0.000    0.000    0.000    0.000    0.000    0.000 
#
# Total GULP energy -111694.221355 kJ/mol
# GULP energy per Si atom -5584.711068 kJ/mol
# Density = 2.764810 g / cm^3
# Si number density = 27.711173 Si / 1000 Ang^3
#
#
#
# Elastic Constant Matrix: (Units=GPa)
#
#
# Indices 1 2 3 4 5 6 
#
# 1 233.5743 37.9711 79.8093 0.0000 0.0000 0.0000
# 2 37.9711 96.3570 41.8591 0.0000 0.0000 0.0000
# 3 79.8093 41.8591 193.1147 0.0000 0.0000 0.0000
# 4 0.0000 0.0000 0.0000 55.3065 0.0000 0.0000
# 5 0.0000 0.0000 0.0000 0.0000 4.8805 0.0000
# 6 0.0000 0.0000 0.0000 0.0000 0.0000 24.1949
#
#
#
# Elastic Compliance Matrix: (Units=1/GPa)
#
#
# Indices 1 2 3 4 5 6 
#
# 1 0.005110 -0.001210 -0.001849 0.000000 0.000000 0.000000
# 2 -0.001210 0.011744 -0.002045 0.000000 0.000000 0.000000
# 3 -0.001849 -0.002045 0.006386 0.000000 0.000000 0.000000
# 4 0.000000 0.000000 0.000000 0.018081 0.000000 0.000000
# 5 0.000000 0.000000 0.000000 0.000000 0.204897 0.000000
# 6 0.000000 0.000000 0.000000 0.000000 0.000000 0.041331
#
#
# Mechanical properties :
#
#
# Convention : Reuss Voigt Hill
#
# Bulk Modulus (GPa) = 76.74991 93.59167 85.17079
# Shear Modulus (GPa) = 16.55073 41.10348 28.82711
#
# Velocity S-wave (km/s) = 2.44654 3.85552 3.22882
# Velocity P-wave (km/s) = 5.97806 7.32580 6.68598
#
# Compressibility (1/GPa) = 0.01302933
#
# Stress axis : x y z
#
# Youngs Moduli (GPa) = 195.69531 85.15341 156.59345
#
# Poissons Ratio (x) = 0.10305 0.28962
# Poissons Ratio (y) = 0.23683 0.32029
# Poissons Ratio (z) = 0.36194 0.17417
#
# Static dielectric constant tensor:
#      x y z
#    x 3.062820 0.000000 0.000000 
#    y 0.000000 -3.220870 0.000000 
#    z 0.000000 0.000000 2.192500 
# 
# From -- ./inp_files/5419.got.cif
#   From: 2010.05.17/outbox.cif.g08.bks.cpg/sg41_3_cif.got.tgz:5419.got - 2010.06.03 18:54:24.
