data_PCOD9367471
_publ_section_title
;
Structure prediction by ZEFSAII (Michael W. Deem and Ramdas Pophale) SiO2 
 PCOD9367471
Probable space group: A B A 2
;
_chemical_formula_sum "Si O2"
_cell_formula_units_Z 64
_cell_length_a 7.571608
_cell_length_b 32.063832
_cell_length_c 11.768908
_cell_angle_alpha 90.000000
_cell_angle_beta 90.000000
_cell_angle_gamma 90.000000
_cell_volume 2857.193896
_symmetry_space_group_name_H-M "A B A 2"
_symmetry_group_IT_number 41
_symmetry_cell_setting 'orthorhombic'
loop_
_space_group_symop_operation_xyz
x,y,z
-x,-y,z
1/2-x,y,1/2+z
1/2+x,-y,1/2+z
x,1/2+y,1/2+z
-x,1/2-y,1/2+z
1/2-x,1/2+y,z
1/2+x,1/2-y,z
loop_
_atom_site_type_symbol
_atom_site_label
_atom_site_fract_x
_atom_site_fract_y
_atom_site_fract_z
Si Si1 0.227274 0.760949 0.794240
Si Si2 0.496016 0.810187 0.911920
Si Si3 0.160055 0.972991 0.189074
Si Si4 0.140105 0.395388 0.827952
Si Si5 0.559150 0.308027 0.674807
Si Si6 0.445636 0.606829 0.770921
Si Si7 0.315750 0.025748 0.397979
Si Si8 0.005853 0.943037 0.547441
O O1 0.311804 0.785301 0.900634
O O2 0.344789 0.735074 0.705100
O O3 0.117562 0.723589 0.850253
O O4 0.134243 0.796671 0.720913
O O5 0.465984 0.852577 0.841519
O O6 0.554302 0.817859 0.041290
O O7 0.088059 0.927737 0.228416
O O8 0.334647 0.965773 0.114919
O O9 0.223469 0.998580 0.299326
O O10 0.000000 0.000000 0.140661
O O11 0.349291 0.389270 0.808794
O O12 0.102543 0.419043 0.945667
O O13 0.625976 0.346534 0.752107
O O14 0.361189 0.572422 0.853462
O O15 0.434195 0.587029 0.645535
O O16 0.500000 0.000000 0.416114
O O17 0.161669 0.033836 0.490627
#
# Coordination Sequence:
#
# PCOD9367471 Si02
#       8
#     8   8   8   8   8   8   8   8
#     4  10  24  40  68 102 143 185 235 305 362 440
#     4  11  22  42  69 102 141 190 237 295 375 432
#     4  11  25  49  77 110 145 192 254 310 370 448
#     4  11  22  43  72 104 145 190 238 311 370 441
#     4  11  22  42  68 100 143 184 243 296 365 445
#     4  11  25  45  69 106 146 191 247 302 372 451
#     4  12  25  48  74 109 150 193 253 311 372 448
#     4  11  25  47  76 106 147 196 239 310 384 440
#
# _framework density 22.3996
#
# number of rings (size 3 to 8) (size 9 to 14) (size 15 to 20)
#    0.000    1.000    6.250    0.750    1.750    2.000 
#    4.500    0.000    8.250    0.000    0.000    0.000 
#    0.000    0.000    0.000    0.000    0.000    0.000 
#
# Total GULP energy -178542.787884 kJ/mol
# GULP energy per Si atom -5579.462121 kJ/mol
# Density = 2.234862 g / cm^3
# Si number density = 22.399600 Si / 1000 Ang^3
#
#
#
# Elastic Constant Matrix: (Units=GPa)
#
#
# Indices 1 2 3 4 5 6 
#
# 1 78.2025 34.9929 33.2728 0.0000 0.0000 0.0000
# 2 34.9929 158.4858 38.2425 0.0000 0.0000 0.0000
# 3 33.2728 38.2425 82.9736 0.0000 0.0000 0.0000
# 4 0.0000 0.0000 0.0000 39.2364 0.0000 0.0000
# 5 0.0000 0.0000 0.0000 0.0000 54.9536 0.0000
# 6 0.0000 0.0000 0.0000 0.0000 0.0000 44.7214
#
#
#
# Elastic Compliance Matrix: (Units=1/GPa)
#
#
# Indices 1 2 3 4 5 6 
#
# 1 0.016099 -0.002247 -0.005420 0.000000 0.000000 0.000000
# 2 -0.002247 0.007413 -0.002516 0.000000 0.000000 0.000000
# 3 -0.005420 -0.002516 0.015385 0.000000 0.000000 0.000000
# 4 0.000000 0.000000 0.000000 0.025487 0.000000 0.000000
# 5 0.000000 0.000000 0.000000 0.000000 0.018197 0.000000
# 6 0.000000 0.000000 0.000000 0.000000 0.000000 0.022361
#
#
# Mechanical properties :
#
#
# Convention : Reuss Voigt Hill
#
# Bulk Modulus (GPa) = 53.96190 59.18647 56.57419
# Shear Modulus (GPa) = 38.02772 41.99252 40.01012
#
# Velocity S-wave (km/s) = 4.12478 4.33448 4.23093
# Velocity P-wave (km/s) = 6.84310 7.17848 7.01279
#
# Compressibility (1/GPa) = 0.01853159
#
# Stress axis : x y z
#
# Youngs Moduli (GPa) = 62.11663 134.90212 64.99836
#
# Poissons Ratio (x) = 0.30308 0.35230
# Poissons Ratio (y) = 0.13955 0.16351
# Poissons Ratio (z) = 0.33668 0.33936
#
# Static dielectric constant tensor:
#      x y z
#    x 1.918800 0.000000 0.000000 
#    y 0.000000 1.859170 0.000000 
#    z 0.000000 0.000000 1.812300 
# 
# From -- ./inp_files/4613.got.cif
#   From: 2010.05.17/outbox.cif.g08.bks.cpg/sg41_3_cif.got.tgz:4613.got - 2010.06.03 18:54:24.
