data_PCOD9367392
_publ_section_title
;
Structure prediction by ZEFSAII (Michael W. Deem and Ramdas Pophale) SiO2 
 PCOD9367392
Probable space group: A B A 2
;
_chemical_formula_sum "Si O2"
_cell_formula_units_Z 60
_cell_length_a 19.016961
_cell_length_b 17.613196
_cell_length_c 8.131059
_cell_angle_alpha 90.000000
_cell_angle_beta 90.000000
_cell_angle_gamma 90.000000
_cell_volume 2723.493833
_symmetry_space_group_name_H-M "A B A 2"
_symmetry_group_IT_number 41
_symmetry_cell_setting 'orthorhombic'
loop_
_space_group_symop_operation_xyz
x,y,z
-x,-y,z
1/2-x,y,1/2+z
1/2+x,-y,1/2+z
x,1/2+y,1/2+z
-x,1/2-y,1/2+z
1/2-x,1/2+y,z
1/2+x,1/2-y,z
loop_
_atom_site_type_symbol
_atom_site_label
_atom_site_fract_x
_atom_site_fract_y
_atom_site_fract_z
Si Si1 0.251738 0.521574 0.985910
Si Si2 0.343275 0.160887 0.440859
Si Si3 0.000111 0.818020 0.422731
Si Si4 0.389273 0.083111 0.119130
Si Si5 0.500000 0.000000 0.350855
Si Si6 0.497343 0.848132 0.542042
Si Si7 0.842980 0.168946 0.514878
Si Si8 0.737022 0.585611 0.228061
O O1 0.291427 0.598912 0.011868
O O2 0.256421 0.498259 0.794618
O O3 0.169626 0.535347 0.023748
O O4 0.291114 0.445797 0.055027
O O5 0.355460 0.143565 0.247519
O O6 0.418238 0.149850 0.526429
O O7 0.319596 0.245355 0.478941
O O8 0.018872 0.836074 0.233706
O O9 0.072695 0.831535 0.523155
O O10 0.939876 0.871964 0.494257
O O11 0.977746 0.729616 0.445239
O O12 0.437437 0.029655 0.234010
O O13 0.475116 0.927910 0.460747
O O14 0.802769 0.136555 0.673915
O O15 0.815892 0.122646 0.354878
#
# Coordination Sequence:
#
# PCOD9367392 Si02
#       8
#     8   8   8   8   4   8   8   8
#     4  11  23  44  66  93 137 177 228 281 344 403
#     4  10  23  44  68  97 138 177 234 275 345 412
#     4  11  24  47  72 100 141 182 233 282 347 420
#     4  11  25  42  72 100 138 186 231 282 347 414
#     4  10  24  44  66 102 140 174 230 282 348 400
#     4  10  23  45  70 105 138 181 226 286 343 422
#     4  10  24  44  66  97 133 174 229 284 343 403
#     4  10  24  43  62  96 129 174 225 283 336 405
#
# _framework density 22.030524
#
# number of rings (size 3 to 8) (size 9 to 14) (size 15 to 20)
#    0.000    1.600    1.333    2.400    7.467    2.667 
#    2.400    0.000    0.000    0.000    0.000    0.000 
#    0.000    0.000    0.000    0.000    0.000    0.000 
#
# Total GULP energy -167385.640780 kJ/mol
# GULP energy per Si atom -5579.521359 kJ/mol
# Density = 2.198038 g / cm^3
# Si number density = 22.030524 Si / 1000 Ang^3
#
#
#
# Elastic Constant Matrix: (Units=GPa)
#
#
# Indices 1 2 3 4 5 6 
#
# 1 46.4520 43.1927 16.8262 0.0000 0.0000 0.0000
# 2 43.1927 159.3156 33.4372 0.0000 0.0000 0.0000
# 3 16.8262 33.4372 44.4681 0.0000 0.0000 0.0000
# 4 0.0000 0.0000 0.0000 28.3454 0.0000 0.0000
# 5 0.0000 0.0000 0.0000 0.0000 4.2952 0.0000
# 6 0.0000 0.0000 0.0000 0.0000 0.0000 17.8739
#
#
#
# Elastic Compliance Matrix: (Units=1/GPa)
#
#
# Indices 1 2 3 4 5 6 
#
# 1 0.030181 -0.006870 -0.006254 0.000000 0.000000 0.000000
# 2 -0.006870 0.009017 -0.004181 0.000000 0.000000 0.000000
# 3 -0.006254 -0.004181 0.027998 0.000000 0.000000 0.000000
# 4 0.000000 0.000000 0.000000 0.035279 0.000000 0.000000
# 5 0.000000 0.000000 0.000000 0.000000 0.232816 0.000000
# 6 0.000000 0.000000 0.000000 0.000000 0.000000 0.055947
#
#
# Mechanical properties :
#
#
# Convention : Reuss Voigt Hill
#
# Bulk Modulus (GPa) = 30.68784 48.57200 39.62992
# Shear Modulus (GPa) = 11.44924 20.55489 16.00207
#
# Velocity S-wave (km/s) = 2.28216 3.05785 2.69803
# Velocity P-wave (km/s) = 4.57212 5.87901 5.26626
#
# Compressibility (1/GPa) = 0.03258619
#
# Stress axis : x y z
#
# Youngs Moduli (GPa) = 33.13350 110.90448 35.71661
#
# Poissons Ratio (x) = 0.76189 0.22339
# Poissons Ratio (y) = 0.22762 0.14932
# Poissons Ratio (z) = 0.20723 0.46365
#
# Static dielectric constant tensor:
#      x y z
#    x 1.880570 0.000000 0.000000 
#    y 0.000000 1.839250 0.000000 
#    z 0.000000 0.000000 1.846450 
# 
# From -- ./inp_files/3177.got.cif
#   From: 2010.05.17/outbox.cif.g08.bks.cpg/sg41_2_cif.got.tgz:3177.got - 2010.06.03 18:54:24.
