data_PCOD9367842
_publ_section_title
;
Structure prediction by ZEFSAII (Michael W. Deem and Ramdas Pophale) SiO2 
 PCOD9367842
Probable space group: A B A 2
;
_chemical_formula_sum "Si O2"
_cell_formula_units_Z 48
_cell_length_a 9.588832
_cell_length_b 21.581665
_cell_length_c 10.745591
_cell_angle_alpha 90.000000
_cell_angle_beta 90.000000
_cell_angle_gamma 90.000000
_cell_volume 2223.724408
_symmetry_space_group_name_H-M "A B A 2"
_symmetry_group_IT_number 41
_symmetry_cell_setting 'orthorhombic'
loop_
_space_group_symop_operation_xyz
x,y,z
-x,-y,z
1/2-x,y,1/2+z
1/2+x,-y,1/2+z
x,1/2+y,1/2+z
-x,1/2-y,1/2+z
1/2-x,1/2+y,z
1/2+x,1/2-y,z
loop_
_atom_site_type_symbol
_atom_site_label
_atom_site_fract_x
_atom_site_fract_y
_atom_site_fract_z
Si Si1 0.235423 0.351272 0.972170
Si Si2 0.610667 0.230496 0.168776
Si Si3 0.350573 0.033918 0.650643
Si Si4 0.337739 0.486987 0.420883
Si Si5 0.554372 0.845774 0.526707
Si Si6 0.343812 0.225578 0.325761
O O1 0.173824 0.412667 0.912223
O O2 0.399379 0.365214 0.986817
O O3 0.199859 0.290073 0.891961
O O4 0.165730 0.332019 0.104731
O O5 0.502894 0.223113 0.280308
O O6 0.742254 0.271925 0.208949
O O7 0.530676 0.275744 0.074784
O O8 0.385307 0.105659 0.624244
O O9 0.500000 0.000000 0.641477
O O10 0.295345 0.018109 0.788937
O O11 0.252469 0.010032 0.538615
O O12 0.500000 0.500000 0.442794
O O13 0.665449 0.833206 0.416488
#
# Coordination Sequence:
#
# PCOD9367842 Si02
#       6
#     8   8   8   8   8   8
#     4  11  24  45  70 100 143 191 240 299 376 438
#     4  11  24  40  70 102 140 183 237 300 366 434
#     4  11  26  48  73 105 141 198 248 305 368 444
#     4  11  28  47  74 107 143 194 250 308 371 441
#     4  11  24  43  68 101 143 186 241 299 365 440
#     4  11  24  40  69 105 138 186 236 300 364 436
#
# _framework density 21.585408000000001
#
# number of rings (size 3 to 8) (size 9 to 14) (size 15 to 20)
#    0.000    1.000    5.000    0.000    9.333    2.000 
#    0.000    0.000    0.000    0.000    0.000    0.000 
#    0.000    0.000    0.000    0.000    0.000    0.000 
#
# Total GULP energy -133911.901032 kJ/mol
# GULP energy per Si atom -5579.662543 kJ/mol
# Density = 2.153628 g / cm^3
# Si number density = 21.585408 Si / 1000 Ang^3
#
#
#
# Elastic Constant Matrix: (Units=GPa)
#
#
# Indices 1 2 3 4 5 6 
#
# 1 69.8267 16.8295 39.2755 0.0000 0.0000 0.0000
# 2 16.8295 98.9231 20.7610 0.0000 0.0000 0.0000
# 3 39.2755 20.7610 105.1992 0.0000 0.0000 0.0000
# 4 0.0000 0.0000 0.0000 40.8734 0.0000 0.0000
# 5 0.0000 0.0000 0.0000 0.0000 36.2373 0.0000
# 6 0.0000 0.0000 0.0000 0.0000 0.0000 19.3884
#
#
#
# Elastic Compliance Matrix: (Units=1/GPa)
#
#
# Indices 1 2 3 4 5 6 
#
# 1 0.018418 -0.001763 -0.006528 0.000000 0.000000 0.000000
# 2 -0.001763 0.010714 -0.001456 0.000000 0.000000 0.000000
# 3 -0.006528 -0.001456 0.012230 0.000000 0.000000 0.000000
# 4 0.000000 0.000000 0.000000 0.024466 0.000000 0.000000
# 5 0.000000 0.000000 0.000000 0.000000 0.027596 0.000000
# 6 0.000000 0.000000 0.000000 0.000000 0.000000 0.051577
#
#
# Mechanical properties :
#
#
# Convention : Reuss Voigt Hill
#
# Bulk Modulus (GPa) = 45.73007 47.52011 46.62509
# Shear Modulus (GPa) = 29.10583 32.43866 30.77225
#
# Velocity S-wave (km/s) = 3.67604 3.88081 3.77981
# Velocity P-wave (km/s) = 6.26493 6.49181 6.37938
#
# Compressibility (1/GPa) = 0.02186745
#
# Stress axis : x y z
#
# Youngs Moduli (GPa) = 54.29428 93.33183 81.76311
#
# Poissons Ratio (x) = 0.16457 0.53377
# Poissons Ratio (y) = 0.09574 0.11906
# Poissons Ratio (z) = 0.35445 0.13591
#
# Static dielectric constant tensor:
#      x y z
#    x 1.795760 0.000000 0.000000 
#    y 0.000000 1.747980 0.000000 
#    z 0.000000 0.000000 1.967420 
# 
# From -- ./inp_files/4480.got.cif
#   From: 2010.05.17/outbox.cif.g08.bks.cpg/sg41_3_cif.got.tgz:4480.got - 2010.06.03 18:54:24.
