data_PCOD9367169
_publ_section_title
;
Structure prediction by ZEFSAII (Michael W. Deem and Ramdas Pophale) SiO2 
 PCOD9367169
Probable space group: A B A 2
;
_chemical_formula_sum "Si O2"
_cell_formula_units_Z 48
_cell_length_a 17.041216
_cell_length_b 13.437170
_cell_length_c 8.230762
_cell_angle_alpha 90.000000
_cell_angle_beta 90.000000
_cell_angle_gamma 90.000000
_cell_volume 1884.726933
_symmetry_space_group_name_H-M "A B A 2"
_symmetry_group_IT_number 41
_symmetry_cell_setting 'orthorhombic'
loop_
_space_group_symop_operation_xyz
x,y,z
-x,-y,z
1/2-x,y,1/2+z
1/2+x,-y,1/2+z
x,1/2+y,1/2+z
-x,1/2-y,1/2+z
1/2-x,1/2+y,z
1/2+x,1/2-y,z
loop_
_atom_site_type_symbol
_atom_site_label
_atom_site_fract_x
_atom_site_fract_y
_atom_site_fract_z
Si Si1 0.147296 0.903531 0.988590
Si Si2 0.267500 0.577861 0.148341
Si Si3 0.324169 0.291439 0.665732
Si Si4 0.874970 0.938674 0.460480
Si Si5 0.464683 0.256905 0.870904
Si Si6 0.881735 0.642444 0.842779
O O1 0.187573 0.854047 0.830730
O O2 0.058106 0.863133 0.952133
O O3 0.160434 0.858899 0.169273
O O4 0.175212 0.015171 0.027409
O O5 0.273408 0.695448 0.126934
O O6 0.305660 0.568710 0.325909
O O7 0.176572 0.548528 0.123556
O O8 0.414822 0.256767 0.702746
O O9 0.326660 0.348557 0.498384
O O10 0.919333 0.034941 0.389110
O O11 0.924192 0.837032 0.463976
O O12 0.553743 0.228658 0.842352
#
# Coordination Sequence:
#
# PCOD9367169 Si02
#       6
#     8   8   8   8   8   8
#     4   9  22  40  63  94 127 168 215 275 324 392
#     4  10  22  43  58  94 132 166 223 271 326 398
#     4   9  22  40  63  92 126 172 211 273 331 385
#     4  10  23  38  65  88 128 173 211 273 334 391
#     4   9  20  41  62  93 130 162 216 273 329 402
#     4  11  20  40  67  93 126 171 214 273 338 394
#
# _framework density 25.467877999999999
#
# number of rings (size 3 to 8) (size 9 to 14) (size 15 to 20)
#    1.000    1.333    0.000    1.500    2.333    2.667 
#    3.000    2.500    0.000    0.000    0.000    0.000 
#    0.000    0.000    0.000    0.000    0.000    0.000 
#
# Total GULP energy -133703.873989 kJ/mol
# GULP energy per Si atom -5570.994750 kJ/mol
# Density = 2.540991 g / cm^3
# Si number density = 25.467878 Si / 1000 Ang^3
#
#
#
# Elastic Constant Matrix: (Units=GPa)
#
#
# Indices 1 2 3 4 5 6 
#
# 1 52.8650 11.3932 45.4922 0.0000 0.0000 0.0000
# 2 11.3932 96.2849 28.3112 0.0000 0.0000 0.0000
# 3 45.4922 28.3112 129.4628 0.0000 0.0000 0.0000
# 4 0.0000 0.0000 0.0000 31.3989 0.0000 0.0000
# 5 0.0000 0.0000 0.0000 0.0000 16.3715 0.0000
# 6 0.0000 0.0000 0.0000 0.0000 0.0000 34.8592
#
#
#
# Elastic Compliance Matrix: (Units=1/GPa)
#
#
# Indices 1 2 3 4 5 6 
#
# 1 0.027132 -0.000435 -0.009439 0.000000 0.000000 0.000000
# 2 -0.000435 0.011107 -0.002276 0.000000 0.000000 0.000000
# 3 -0.009439 -0.002276 0.011539 0.000000 0.000000 0.000000
# 4 0.000000 0.000000 0.000000 0.031848 0.000000 0.000000
# 5 0.000000 0.000000 0.000000 0.000000 0.061082 0.000000
# 6 0.000000 0.000000 0.000000 0.000000 0.000000 0.028687
#
#
# Mechanical properties :
#
#
# Convention : Reuss Voigt Hill
#
# Bulk Modulus (GPa) = 39.25003 49.88954 44.56979
# Shear Modulus (GPa) = 24.48734 29.42032 26.95383
#
# Velocity S-wave (km/s) = 3.10417 3.40250 3.25675
# Velocity P-wave (km/s) = 5.31910 5.92180 5.62853
#
# Compressibility (1/GPa) = 0.02547769
#
# Stress axis : x y z
#
# Youngs Moduli (GPa) = 36.85620 90.03710 86.66485
#
# Poissons Ratio (x) = 0.03918 0.81803
# Poissons Ratio (y) = 0.01604 0.19724
# Poissons Ratio (z) = 0.34788 0.20492
#
# Static dielectric constant tensor:
#      x y z
#    x 2.061740 0.000000 0.000000 
#    y 0.000000 2.239170 0.000000 
#    z 0.000000 0.000000 2.011740 
# 
# From -- ./inp_files/3360.got.cif
#   From: 2010.05.17/outbox.cif.g08.bks.cpg/sg41_2_cif.got.tgz:3360.got - 2010.06.03 18:54:24.
