data_PCOD9367123
_publ_section_title
;
Structure prediction by ZEFSAII (Michael W. Deem and Ramdas Pophale) SiO2 
 PCOD9367123
Probable space group: A B A 2
;
_chemical_formula_sum "Si O2"
_cell_formula_units_Z 60
_cell_length_a 22.560666
_cell_length_b 19.149544
_cell_length_c 5.267159
_cell_angle_alpha 90.000000
_cell_angle_beta 90.000000
_cell_angle_gamma 90.000000
_cell_volume 2275.552090
_symmetry_space_group_name_H-M "A B A 2"
_symmetry_group_IT_number 41
_symmetry_cell_setting 'orthorhombic'
loop_
_space_group_symop_operation_xyz
x,y,z
-x,-y,z
1/2-x,y,1/2+z
1/2+x,-y,1/2+z
x,1/2+y,1/2+z
-x,1/2-y,1/2+z
1/2-x,1/2+y,z
1/2+x,1/2-y,z
loop_
_atom_site_type_symbol
_atom_site_label
_atom_site_fract_x
_atom_site_fract_y
_atom_site_fract_z
Si Si1 0.288287 0.150452 0.831150
Si Si2 0.290107 0.295937 0.954047
Si Si3 0.859662 0.474388 0.054790
Si Si4 0.958943 0.753509 0.876758
Si Si5 0.459931 0.596660 0.790572
Si Si6 0.500000 0.500000 0.180805
Si Si7 0.790661 0.551519 0.405772
Si Si8 0.575468 0.107491 0.990503
O O1 0.263736 0.152948 0.545809
O O2 0.323297 0.223066 0.895274
O O3 0.321488 0.079110 0.895003
O O4 0.238678 0.295413 0.734847
O O5 0.320848 0.371135 0.914833
O O6 0.924306 0.439514 0.063779
O O7 0.831890 0.486223 0.335344
O O8 0.868933 0.555813 0.986879
O O9 0.930931 0.829716 0.854562
O O10 0.916234 0.687274 0.911895
O O11 0.997391 0.743812 0.620335
O O12 0.530011 0.607749 0.732085
O O13 0.453597 0.539345 0.003144
O O14 0.532775 0.565195 0.303610
O O15 0.754822 0.547831 0.667227
#
# Coordination Sequence:
#
# PCOD9367123 Si02
#       8
#     8   8   8   8   8   4   8   8
#     4  10  22  42  63  95 131 170 215 268 324 388
#     4   8  16  36  64  84 122 170 206 254 318 374
#     4  12  23  40  65  98 132 171 215 276 328 388
#     4  10  22  42  66  88 124 174 210 264 320 382
#     4  11  23  42  61  95 130 171 218 268 327 388
#     4  12  18  40  66  90 128 168 210 276 322 380
#     4  10  22  42  63  95 131 170 215 268 324 388
#     4  11  23  42  61  95 130 171 218 268 327 388
#
# _framework density 26.367225000000001
#
# number of rings (size 3 to 8) (size 9 to 14) (size 15 to 20)
#    0.000    1.600    4.000    0.800    0.000    2.133 
#    0.000   16.000    0.000    0.000    0.000    0.000 
#    0.000    0.000    0.000    0.000    0.000    0.000 
#
# Total GULP energy -167600.201168 kJ/mol
# GULP energy per Si atom -5586.673372 kJ/mol
# Density = 2.630721 g / cm^3
# Si number density = 26.367225 Si / 1000 Ang^3
#
#
#
# Elastic Constant Matrix: (Units=GPa)
#
#
# Indices 1 2 3 4 5 6 
#
# 1 51.7705 18.1291 9.9102 0.0000 0.0000 0.0000
# 2 18.1291 194.3941 19.4043 0.0000 0.0000 0.0000
# 3 9.9102 19.4043 121.5484 0.0000 0.0000 0.0000
# 4 0.0000 0.0000 0.0000 39.1603 0.0000 0.0000
# 5 0.0000 0.0000 0.0000 0.0000 9.2510 0.0000
# 6 0.0000 0.0000 0.0000 0.0000 0.0000 34.8229
#
#
#
# Elastic Compliance Matrix: (Units=1/GPa)
#
#
# Indices 1 2 3 4 5 6 
#
# 1 0.020189 -0.001746 -0.001367 0.000000 0.000000 0.000000
# 2 -0.001746 0.005379 -0.000716 0.000000 0.000000 0.000000
# 3 -0.001367 -0.000716 0.008453 0.000000 0.000000 0.000000
# 4 0.000000 0.000000 0.000000 0.025536 0.000000 0.000000
# 5 0.000000 0.000000 0.000000 0.000000 0.108096 0.000000
# 6 0.000000 0.000000 0.000000 0.000000 0.000000 0.028717
#
#
# Mechanical properties :
#
#
# Convention : Reuss Voigt Hill
#
# Bulk Modulus (GPa) = 37.93482 51.40002 44.66742
# Shear Modulus (GPa) = 23.49438 37.99815 30.74627
#
# Velocity S-wave (km/s) = 2.98828 3.80032 3.41849
# Velocity P-wave (km/s) = 5.13076 6.22838 5.70603
#
# Compressibility (1/GPa) = 0.02636101
#
# Stress axis : x y z
#
# Youngs Moduli (GPa) = 49.53125 185.92373 118.30119
#
# Poissons Ratio (x) = 0.32469 0.16175
# Poissons Ratio (y) = 0.08650 0.08473
# Poissons Ratio (z) = 0.06772 0.13317
#
# Static dielectric constant tensor:
#      x y z
#    x 2.242080 0.000000 0.000000 
#    y 0.000000 2.075130 0.000000 
#    z 0.000000 0.000000 2.199770 
# 
# From -- ./inp_files/1008.got.cif
#   From: 2010.05.17/outbox.cif.g08.bks.cpg/sg41_1_cif.got.tgz:1008.got - 2010.06.03 18:54:24.
