data_PCOD9367965
_publ_section_title
;
Structure prediction by ZEFSAII (Michael W. Deem and Ramdas Pophale) SiO2 
 PCOD9367965
Probable space group: A B A 2
;
_chemical_formula_sum "Si O2"
_cell_formula_units_Z 40
_cell_length_a 7.716691
_cell_length_b 15.228372
_cell_length_c 12.090373
_cell_angle_alpha 90.000000
_cell_angle_beta 90.000000
_cell_angle_gamma 90.000000
_cell_volume 1420.771664
_symmetry_space_group_name_H-M "A B A 2"
_symmetry_group_IT_number 41
_symmetry_cell_setting 'orthorhombic'
loop_
_space_group_symop_operation_xyz
x,y,z
-x,-y,z
1/2-x,y,1/2+z
1/2+x,-y,1/2+z
x,1/2+y,1/2+z
-x,1/2-y,1/2+z
1/2-x,1/2+y,z
1/2+x,1/2-y,z
loop_
_atom_site_type_symbol
_atom_site_label
_atom_site_fract_x
_atom_site_fract_y
_atom_site_fract_z
Si Si1 0.049042 0.143256 0.634480
Si Si2 0.929163 0.867247 0.042866
Si Si3 0.497054 0.680926 0.263132
Si Si4 0.780103 0.136430 0.436832
Si Si5 0.785248 0.952139 0.837225
O O1 0.238355 0.166331 0.581852
O O2 0.099206 0.073639 0.730502
O O3 0.971540 0.228513 0.696108
O O4 0.909726 0.118202 0.539932
O O5 0.022901 0.885741 0.159299
O O6 0.872296 0.939545 0.956259
O O7 0.093940 0.829276 0.976122
O O8 0.640277 0.706206 0.352645
O O9 0.358501 0.624085 0.330514
O O10 0.774610 0.051957 0.354242
#
# Coordination Sequence:
#
# PCOD9367965 Si02
#       5
#     8   8   8   8   8
#     4  11  29  55  87 129 183 228 306 374 452 549
#     4  11  28  50  84 126 175 225 304 356 458 535
#     4  11  28  54  89 124 175 237 292 373 452 539
#     4  12  28  56  90 125 181 241 292 383 459 531
#     4  11  27  55  90 129 177 231 309 364 460 554
#
# _framework density 28.153711999999999
#
# number of rings (size 3 to 8) (size 9 to 14) (size 15 to 20)
#    0.000    0.800    2.000    1.200   11.200    6.400 
#    7.200    0.000    0.000    0.000    0.000    0.000 
#    0.000    0.000    0.000    0.000    0.000    0.000 
#
# Total GULP energy -111619.812084 kJ/mol
# GULP energy per Si atom -5580.990604 kJ/mol
# Density = 2.808963 g / cm^3
# Si number density = 28.153712 Si / 1000 Ang^3
#
#
#
# Elastic Constant Matrix: (Units=GPa)
#
#
# Indices 1 2 3 4 5 6 
#
# 1 162.1981 64.0655 44.9066 0.0000 0.0000 0.0000
# 2 64.0655 122.0050 68.1686 0.0000 0.0000 0.0000
# 3 44.9066 68.1686 153.4215 0.0000 0.0000 0.0000
# 4 0.0000 0.0000 0.0000 92.7446 0.0000 0.0000
# 5 0.0000 0.0000 0.0000 0.0000 65.0742 0.0000
# 6 0.0000 0.0000 0.0000 0.0000 0.0000 42.9163
#
#
#
# Elastic Compliance Matrix: (Units=1/GPa)
#
#
# Indices 1 2 3 4 5 6 
#
# 1 0.007822 -0.003762 -0.000618 0.000000 0.000000 0.000000
# 2 -0.003762 0.012713 -0.004547 0.000000 0.000000 0.000000
# 3 -0.000618 -0.004547 0.008719 0.000000 0.000000 0.000000
# 4 0.000000 0.000000 0.000000 0.010782 0.000000 0.000000
# 5 0.000000 0.000000 0.000000 0.000000 0.015367 0.000000
# 6 0.000000 0.000000 0.000000 0.000000 0.000000 0.023301
#
#
# Mechanical properties :
#
#
# Convention : Reuss Voigt Hill
#
# Bulk Modulus (GPa) = 87.72445 87.98957 87.85701
# Shear Modulus (GPa) = 49.82058 57.51259 53.66659
#
# Velocity S-wave (km/s) = 4.21122 4.52465 4.37074
# Velocity P-wave (km/s) = 7.40760 7.65622 7.53293
#
# Compressibility (1/GPa) = 0.01139933
#
# Stress axis : x y z
#
# Youngs Moduli (GPa) = 127.83721 78.66110 114.68749
#
# Poissons Ratio (x) = 0.29595 0.07087
# Poissons Ratio (y) = 0.48097 0.52152
# Poissons Ratio (z) = 0.07900 0.35770
#
# Static dielectric constant tensor:
#      x y z
#    x 1.752210 0.000000 0.000000 
#    y 0.000000 2.064420 0.000000 
#    z 0.000000 0.000000 2.157390 
# 
# From -- ./inp_files/4384.got.cif
#   From: 2010.05.17/outbox.cif.g08.bks.cpg/sg41_3_cif.got.tgz:4384.got - 2010.06.03 18:54:24.
