data_PCOD9367867
_publ_section_title
;
Structure prediction by ZEFSAII (Michael W. Deem and Ramdas Pophale) SiO2 
 PCOD9367867
Probable space group: A B A 2
;
_chemical_formula_sum "Si O2"
_cell_formula_units_Z 40
_cell_length_a 9.870399
_cell_length_b 14.002240
_cell_length_c 13.000674
_cell_angle_alpha 90.000000
_cell_angle_beta 90.000000
_cell_angle_gamma 90.000000
_cell_volume 1796.793196
_symmetry_space_group_name_H-M "A B A 2"
_symmetry_group_IT_number 41
_symmetry_cell_setting 'orthorhombic'
loop_
_space_group_symop_operation_xyz
x,y,z
-x,-y,z
1/2-x,y,1/2+z
1/2+x,-y,1/2+z
x,1/2+y,1/2+z
-x,1/2-y,1/2+z
1/2-x,1/2+y,z
1/2+x,1/2-y,z
loop_
_atom_site_type_symbol
_atom_site_label
_atom_site_fract_x
_atom_site_fract_y
_atom_site_fract_z
Si Si1 0.160110 0.520943 0.891050
Si Si2 0.072957 0.595253 0.094648
Si Si3 0.085275 0.730287 0.505524
Si Si4 0.674995 0.173583 0.381600
Si Si5 0.698089 0.822146 0.715487
O O1 0.256902 0.430181 0.876504
O O2 0.175601 0.597925 0.801302
O O3 0.000000 0.500000 0.888417
O O4 0.178376 0.559096 0.007261
O O5 0.149992 0.658719 0.177341
O O6 0.000000 0.500000 0.135815
O O7 0.971815 0.665526 0.036249
O O8 0.224260 0.757453 0.447573
O O9 0.108047 0.675267 0.612578
O O10 0.972998 0.680065 0.433704
O O11 0.673973 0.220838 0.269279
#
# Coordination Sequence:
#
# PCOD9367867 Si02
#       5
#     8   8   8   8   8
#     4  11  24  46  68 102 146 188 241 307 364 428
#     4  11  24  45  70 100 150 190 239 304 363 426
#     4  12  25  47  72 105 147 193 243 305 367 429
#     4  12  26  47  77 103 151 196 240 307 368 430
#     4  12  27  43  75 112 141 193 252 295 365 447
#
# _framework density 22.261883000000001
#
# number of rings (size 3 to 8) (size 9 to 14) (size 15 to 20)
#    0.000    0.400    8.000    0.000    8.400    1.600 
#    0.000    2.000    0.000    0.000    0.000    0.000 
#    0.000    0.000    0.000    0.000    0.000    0.000 
#
# Total GULP energy -111816.442246 kJ/mol
# GULP energy per Si atom -5590.822112 kJ/mol
# Density = 2.221121 g / cm^3
# Si number density = 22.261883 Si / 1000 Ang^3
#
#
#
# Elastic Constant Matrix: (Units=GPa)
#
#
# Indices 1 2 3 4 5 6 
#
# 1 48.9511 16.5570 32.9051 0.0000 0.0000 0.0000
# 2 16.5570 90.1631 17.7323 0.0000 0.0000 0.0000
# 3 32.9051 17.7323 100.5615 0.0000 0.0000 0.0000
# 4 0.0000 0.0000 0.0000 22.5178 0.0000 0.0000
# 5 0.0000 0.0000 0.0000 0.0000 41.8212 0.0000
# 6 0.0000 0.0000 0.0000 0.0000 0.0000 28.3885
#
#
#
# Elastic Compliance Matrix: (Units=1/GPa)
#
#
# Indices 1 2 3 4 5 6 
#
# 1 0.027133 -0.003353 -0.008287 0.000000 0.000000 0.000000
# 2 -0.003353 0.011904 -0.001002 0.000000 0.000000 0.000000
# 3 -0.008287 -0.001002 0.012833 0.000000 0.000000 0.000000
# 4 0.000000 0.000000 0.000000 0.044409 0.000000 0.000000
# 5 0.000000 0.000000 0.000000 0.000000 0.023911 0.000000
# 6 0.000000 0.000000 0.000000 0.000000 0.000000 0.035226
#
#
# Mechanical properties :
#
#
# Convention : Reuss Voigt Hill
#
# Bulk Modulus (GPa) = 37.61413 41.56272 39.58843
# Shear Modulus (GPa) = 26.37668 30.04423 28.21045
#
# Velocity S-wave (km/s) = 3.44588 3.67765 3.56365
# Velocity P-wave (km/s) = 5.72407 6.06168 5.89529
#
# Compressibility (1/GPa) = 0.02658576
#
# Stress axis : x y z
#
# Youngs Moduli (GPa) = 36.85517 84.00715 77.92702
#
# Poissons Ratio (x) = 0.28165 0.64579
# Poissons Ratio (y) = 0.12357 0.07808
# Poissons Ratio (z) = 0.30543 0.08417
#
# Static dielectric constant tensor:
#      x y z
#    x 1.864780 0.000000 0.000000 
#    y 0.000000 1.826160 0.000000 
#    z 0.000000 0.000000 1.898390 
# 
# From -- ./inp_files/4848.got.cif
#   From: 2010.05.17/outbox.cif.g08.bks.cpg/sg41_3_cif.got.tgz:4848.got - 2010.06.03 18:54:24.
