data_PCOD9367462
_publ_section_title
;
Structure prediction by ZEFSAII (Michael W. Deem and Ramdas Pophale) SiO2 
 PCOD9367462
Probable space group: A B A 2
;
_chemical_formula_sum "Si O2"
_cell_formula_units_Z 56
_cell_length_a 8.866512
_cell_length_b 11.442391
_cell_length_c 23.417841
_cell_angle_alpha 90.000000
_cell_angle_beta 90.000000
_cell_angle_gamma 90.000000
_cell_volume 2375.835915
_symmetry_space_group_name_H-M "A B A 2"
_symmetry_group_IT_number 41
_symmetry_cell_setting 'orthorhombic'
loop_
_space_group_symop_operation_xyz
x,y,z
-x,-y,z
1/2-x,y,1/2+z
1/2+x,-y,1/2+z
x,1/2+y,1/2+z
-x,1/2-y,1/2+z
1/2-x,1/2+y,z
1/2+x,1/2-y,z
loop_
_atom_site_type_symbol
_atom_site_label
_atom_site_fract_x
_atom_site_fract_y
_atom_site_fract_z
Si Si1 0.007384 0.277119 0.867380
Si Si2 0.770053 0.924276 0.180070
Si Si3 0.844802 0.570450 0.783448
Si Si4 0.201245 0.580521 0.376319
Si Si5 0.649002 0.067346 0.969142
Si Si6 0.239246 0.392388 0.590199
Si Si7 0.503615 0.763678 0.155581
O O1 0.099985 0.307337 0.809075
O O2 0.041177 0.142671 0.877762
O O3 0.086880 0.345871 0.920079
O O4 0.837012 0.323426 0.866301
O O5 0.617257 0.850980 0.187926
O O6 0.904929 0.831453 0.190473
O O7 0.788072 0.037521 0.220670
O O8 0.780596 0.976846 0.116024
O O9 0.725634 0.511766 0.825938
O O10 0.000000 0.500000 0.791843
O O11 0.244477 0.521823 0.435688
O O12 0.500000 0.000000 0.991213
O O13 0.736392 0.116801 0.023026
O O14 0.103993 0.312275 0.612354
O O15 0.387786 0.342148 0.620632
#
# Coordination Sequence:
#
# PCOD9367462 Si02
#       7
#     8   8   8   8   8   8   8
#     4   9  19  36  57  81 109 145 186 231 285 346
#     4  11  22  40  60  85 121 156 197 249 297 353
#     4   9  19  36  57  80 111 149 186 231 290 344
#     4   9  19  36  57  81 109 145 186 231 285 346
#     4   9  19  36  57  80 111 149 186 231 290 344
#     4  11  22  40  60  85 121 156 197 249 297 353
#     4  10  24  38  58  90 116 158 206 238 298 362
#
# _framework density 23.570651999999999
#
# number of rings (size 3 to 8) (size 9 to 14) (size 15 to 20)
#    0.000    2.286    0.000    4.286    0.000    9.143 
#    0.000    5.714    0.000    0.000    0.000    0.000 
#    0.000    0.000    0.000    0.000    0.000    0.000 
#
# Total GULP energy -156499.236147 kJ/mol
# GULP energy per Si atom -5589.258434 kJ/mol
# Density = 2.351700 g / cm^3
# Si number density = 23.570652 Si / 1000 Ang^3
#
#
#
# Elastic Constant Matrix: (Units=GPa)
#
#
# Indices 1 2 3 4 5 6 
#
# 1 107.5850 31.5327 32.7723 0.0000 0.0000 0.0000
# 2 31.5327 45.4568 8.2127 0.0000 0.0000 0.0000
# 3 32.7723 8.2127 85.6291 0.0000 0.0000 0.0000
# 4 0.0000 0.0000 0.0000 17.8715 0.0000 0.0000
# 5 0.0000 0.0000 0.0000 0.0000 13.1202 0.0000
# 6 0.0000 0.0000 0.0000 0.0000 0.0000 48.7478
#
#
#
# Elastic Compliance Matrix: (Units=1/GPa)
#
#
# Indices 1 2 3 4 5 6 
#
# 1 0.012987 -0.008254 -0.004179 0.000000 0.000000 0.000000
# 2 -0.008254 0.027633 0.000509 0.000000 0.000000 0.000000
# 3 -0.004179 0.000509 0.013229 0.000000 0.000000 0.000000
# 4 0.000000 0.000000 0.000000 0.055955 0.000000 0.000000
# 5 0.000000 0.000000 0.000000 0.000000 0.076218 0.000000
# 6 0.000000 0.000000 0.000000 0.000000 0.000000 0.020514
#
#
# Mechanical properties :
#
#
# Convention : Reuss Voigt Hill
#
# Bulk Modulus (GPa) = 33.33280 42.63403 37.98342
# Shear Modulus (GPa) = 20.80006 27.02478 23.91242
#
# Velocity S-wave (km/s) = 2.97384 3.38974 3.18858
# Velocity P-wave (km/s) = 5.09549 5.78338 5.45030
#
# Compressibility (1/GPa) = 0.03000048
#
# Stress axis : x y z
#
# Youngs Moduli (GPa) = 76.99921 36.18899 75.59245
#
# Poissons Ratio (x) = 0.29870 0.31589
# Poissons Ratio (y) = 0.63555 -0.03846
# Poissons Ratio (z) = 0.32177 -0.01841
#
# Static dielectric constant tensor:
#      x y z
#    x 1.879210 0.000000 0.000000 
#    y 0.000000 1.944230 0.000000 
#    z 0.000000 0.000000 1.887070 
# 
# From -- ./inp_files/11204.got.cif
#   From: 2010.05.17/outbox.cif.g08.bks.cpg/sg41_6_cif.got.tgz:11204.got - 2010.06.03 18:54:24.
