data_PCOD9367167
_publ_section_title
;
Structure prediction by ZEFSAII (Michael W. Deem and Ramdas Pophale) SiO2 
 PCOD9367167
Probable space group: A B A 2
;
_chemical_formula_sum "Si O2"
_cell_formula_units_Z 40
_cell_length_a 10.377505
_cell_length_b 17.684932
_cell_length_c 8.722333
_cell_angle_alpha 90.000000
_cell_angle_beta 90.000000
_cell_angle_gamma 90.000000
_cell_volume 1600.770266
_symmetry_space_group_name_H-M "A B A 2"
_symmetry_group_IT_number 41
_symmetry_cell_setting 'orthorhombic'
loop_
_space_group_symop_operation_xyz
x,y,z
-x,-y,z
1/2-x,y,1/2+z
1/2+x,-y,1/2+z
x,1/2+y,1/2+z
-x,1/2-y,1/2+z
1/2-x,1/2+y,z
1/2+x,1/2-y,z
loop_
_atom_site_type_symbol
_atom_site_label
_atom_site_fract_x
_atom_site_fract_y
_atom_site_fract_z
Si Si1 0.692738 0.521756 0.757110
Si Si2 0.139972 0.308128 0.174483
Si Si3 0.000000 0.500000 0.526428
Si Si4 0.500000 0.500000 0.520586
Si Si5 0.376952 0.734576 0.488935
Si Si6 0.581970 0.405527 0.287851
O O1 0.688831 0.604775 0.682494
O O2 0.611399 0.473949 0.633014
O O3 0.819471 0.474584 0.781022
O O4 0.619068 0.516915 0.916816
O O5 0.107572 0.296059 0.354693
O O6 0.258002 0.259227 0.098813
O O7 0.007935 0.283985 0.084249
O O8 0.020572 0.578711 0.622467
O O9 0.525388 0.571329 0.412233
O O10 0.351316 0.664430 0.369959
#
# Coordination Sequence:
#
# PCOD9367167 Si02
#       6
#     8   8   4   4   8   8
#     4  11  25  46  76 110 151 204 272 332 408 473
#     4  12  30  52  82 118 169 220 275 340 420 502
#     4  10  26  42  78 108 156 202 266 344 402 478
#     4  10  22  42  74 100 144 186 268 322 386 474
#     4  12  30  52  82 118 169 220 275 340 420 502
#     4  11  25  46  76 110 151 204 272 332 408 473
#
# _framework density 24.987971000000002
#
# number of rings (size 3 to 8) (size 9 to 14) (size 15 to 20)
#    0.000    0.800    2.000    2.400   14.000    3.200 
#    0.000    0.000    0.000    0.000    0.000    0.000 
#    0.000    0.000    0.000    0.000    0.000    0.000 
#
# Total GULP energy -111399.984087 kJ/mol
# GULP energy per Si atom -5569.999204 kJ/mol
# Density = 2.493110 g / cm^3
# Si number density = 24.987971 Si / 1000 Ang^3
#
#
#
# Elastic Constant Matrix: (Units=GPa)
#
#
# Indices 1 2 3 4 5 6 
#
# 1 115.1107 1.0284 32.8567 0.0000 0.0000 0.0000
# 2 1.0284 32.4305 -0.0615 0.0000 0.0000 0.0000
# 3 32.8567 -0.0615 139.3096 0.0000 0.0000 0.0000
# 4 0.0000 0.0000 0.0000 47.6731 0.0000 0.0000
# 5 0.0000 0.0000 0.0000 0.0000 39.1496 0.0000
# 6 0.0000 0.0000 0.0000 0.0000 0.0000 24.6795
#
#
#
# Elastic Compliance Matrix: (Units=1/GPa)
#
#
# Indices 1 2 3 4 5 6 
#
# 1 0.009317 -0.000300 -0.002198 0.000000 0.000000 0.000000
# 2 -0.000300 0.030845 0.000084 0.000000 0.000000 0.000000
# 3 -0.002198 0.000084 0.007697 0.000000 0.000000 0.000000
# 4 0.000000 0.000000 0.000000 0.020976 0.000000 0.000000
# 5 0.000000 0.000000 0.000000 0.000000 0.025543 0.000000
# 6 0.000000 0.000000 0.000000 0.000000 0.000000 0.040519
#
#
# Mechanical properties :
#
#
# Convention : Reuss Voigt Hill
#
# Bulk Modulus (GPa) = 23.23814 39.38867 31.31340
# Shear Modulus (GPa) = 32.45331 39.16893 35.81112
#
# Velocity S-wave (km/s) = 3.60774 3.96348 3.78978
# Velocity P-wave (km/s) = 5.16471 6.06158 5.63103
#
# Compressibility (1/GPa) = 0.04303270
#
# Stress axis : x y z
#
# Youngs Moduli (GPa) = 107.32779 32.42038 129.92726
#
# Poissons Ratio (x) = 0.00971 0.28553
# Poissons Ratio (y) = 0.03216 -0.01095
# Poissons Ratio (z) = 0.23587 -0.00273
#
# Static dielectric constant tensor:
#      x y z
#    x 2.042000 0.000000 0.000000 
#    y 0.000000 2.180290 0.000000 
#    z 0.000000 0.000000 2.019840 
# 
# From -- ./inp_files/2024.got.cif
#   From: 2010.05.17/outbox.cif.g08.bks.cpg/sg41_2_cif.got.tgz:2024.got - 2010.06.03 18:54:24.
