data_PCOD9367202
_publ_section_title
;
Structure prediction by ZEFSAII (Michael W. Deem and Ramdas Pophale) SiO2 
 PCOD9367202
Probable space group: A B A 2
;
_chemical_formula_sum "Si O2"
_cell_formula_units_Z 48
_cell_length_a 18.839280
_cell_length_b 8.143617
_cell_length_c 12.554894
_cell_angle_alpha 90.000000
_cell_angle_beta 90.000000
_cell_angle_gamma 90.000000
_cell_volume 1926.170342
_symmetry_space_group_name_H-M "A B A 2"
_symmetry_group_IT_number 41
_symmetry_cell_setting 'orthorhombic'
loop_
_space_group_symop_operation_xyz
x,y,z
-x,-y,z
1/2-x,y,1/2+z
1/2+x,-y,1/2+z
x,1/2+y,1/2+z
-x,1/2-y,1/2+z
1/2-x,1/2+y,z
1/2+x,1/2-y,z
loop_
_atom_site_type_symbol
_atom_site_label
_atom_site_fract_x
_atom_site_fract_y
_atom_site_fract_z
Si Si1 0.067298 0.330654 0.280970
Si Si2 0.704463 0.591611 0.362945
Si Si3 0.344946 0.055442 0.420283
Si Si4 0.958282 0.657002 0.635737
Si Si5 0.654192 0.419728 0.175370
Si Si6 0.927634 0.905451 0.470272
O O1 0.089120 0.490283 0.348556
O O2 0.047358 0.201485 0.371053
O O3 0.007603 0.290818 0.193484
O O4 0.136923 0.259164 0.221221
O O5 0.781549 0.576170 0.415228
O O6 0.713777 0.503676 0.247292
O O7 0.643124 0.500821 0.434134
O O8 0.681014 0.778738 0.364829
O O9 0.350594 0.086877 0.547828
O O10 0.908652 0.547972 0.710327
O O11 0.911188 0.767806 0.558685
O O12 0.000000 0.500000 0.582441
O O13 0.000000 0.000000 0.501151
#
# Coordination Sequence:
#
# PCOD9367202 Si02
#       6
#     8   8   8   8   8   8
#     4  10  22  45  70 104 144 192 243 304 374 450
#     4  11  27  47  74 110 146 201 256 316 373 461
#     4  12  26  49  77 104 151 202 252 309 385 450
#     4  10  22  43  74 105 149 195 241 312 383 448
#     4  10  23  48  72 105 148 186 244 309 365 454
#     4  11  23  42  69 105 149 188 248 307 373 445
#
# _framework density 24.919916000000001
#
# number of rings (size 3 to 8) (size 9 to 14) (size 15 to 20)
#    0.000    1.333    1.667    4.500    4.667    4.000 
#    0.000    2.500    0.000    0.000    0.000    0.000 
#    0.000    0.000    0.000    0.000    0.000    0.000 
#
# Total GULP energy -133771.391324 kJ/mol
# GULP energy per Si atom -5573.807972 kJ/mol
# Density = 2.486320 g / cm^3
# Si number density = 24.919916 Si / 1000 Ang^3
#
#
#
# Elastic Constant Matrix: (Units=GPa)
#
#
# Indices 1 2 3 4 5 6 
#
# 1 56.7860 16.7615 7.1143 0.0000 0.0000 0.0000
# 2 16.7615 91.9988 45.6255 0.0000 0.0000 0.0000
# 3 7.1143 45.6255 127.9596 0.0000 0.0000 0.0000
# 4 0.0000 0.0000 0.0000 40.1101 0.0000 0.0000
# 5 0.0000 0.0000 0.0000 0.0000 28.0246 0.0000
# 6 0.0000 0.0000 0.0000 0.0000 0.0000 39.9353
#
#
#
# Elastic Compliance Matrix: (Units=1/GPa)
#
#
# Indices 1 2 3 4 5 6 
#
# 1 0.018616 -0.003497 0.000212 0.000000 0.000000 0.000000
# 2 -0.003497 0.013862 -0.004748 0.000000 0.000000 0.000000
# 3 0.000212 -0.004748 0.009496 0.000000 0.000000 0.000000
# 4 0.000000 0.000000 0.000000 0.024931 0.000000 0.000000
# 5 0.000000 0.000000 0.000000 0.000000 0.035683 0.000000
# 6 0.000000 0.000000 0.000000 0.000000 0.000000 0.025041
#
#
# Mechanical properties :
#
#
# Convention : Reuss Voigt Hill
#
# Bulk Modulus (GPa) = 38.59910 46.19412 42.39661
# Shear Modulus (GPa) = 32.82354 35.43020 34.12687
#
# Velocity S-wave (km/s) = 3.63321 3.77472 3.70464
# Velocity P-wave (km/s) = 5.75527 6.12987 5.94552
#
# Compressibility (1/GPa) = 0.02590734
#
# Stress axis : x y z
#
# Youngs Moduli (GPa) = 53.71857 72.14224 105.30553
#
# Poissons Ratio (x) = 0.25226 -0.02230
# Poissons Ratio (y) = 0.18783 0.50000
# Poissons Ratio (z) = -0.01138 0.34254
#
# Static dielectric constant tensor:
#      x y z
#    x 2.122970 0.000000 0.000000 
#    y 0.000000 1.991090 0.000000 
#    z 0.000000 0.000000 2.016380 
# 
# From -- ./inp_files/6404.got.cif
#   From: 2010.05.17/outbox.cif.g08.bks.cpg/sg41_4_cif.got.tgz:6404.got - 2010.06.03 18:54:24.
