data_PCOD9367994
_publ_section_title
;
Structure prediction by ZEFSAII (Michael W. Deem and Ramdas Pophale) SiO2 
 PCOD9367994
Probable space group: A B A 2
;
_chemical_formula_sum "Si O2"
_cell_formula_units_Z 36
_cell_length_a 10.181426
_cell_length_b 9.296144
_cell_length_c 16.728459
_cell_angle_alpha 90.000000
_cell_angle_beta 90.000000
_cell_angle_gamma 90.000000
_cell_volume 1583.315225
_symmetry_space_group_name_H-M "A B A 2"
_symmetry_group_IT_number 41
_symmetry_cell_setting 'orthorhombic'
loop_
_space_group_symop_operation_xyz
x,y,z
-x,-y,z
1/2-x,y,1/2+z
1/2+x,-y,1/2+z
x,1/2+y,1/2+z
-x,1/2-y,1/2+z
1/2-x,1/2+y,z
1/2+x,1/2-y,z
loop_
_atom_site_type_symbol
_atom_site_label
_atom_site_fract_x
_atom_site_fract_y
_atom_site_fract_z
Si Si1 0.700878 0.173282 0.234720
Si Si2 0.500000 0.000000 0.124158
Si Si3 0.145469 0.055285 0.339703
Si Si4 0.351776 0.506326 0.980061
Si Si5 0.205628 0.713698 0.073969
O O1 0.589678 0.095758 0.182328
O O2 0.646099 0.287146 0.299039
O O3 0.786004 0.252962 0.167518
O O4 0.791361 0.055788 0.276845
O O5 0.411488 0.099944 0.068131
O O6 0.246299 0.048936 0.413334
O O7 0.000000 0.000000 0.360096
O O8 0.500000 0.500000 0.948396
O O9 0.336999 0.631220 0.046406
O O10 0.316643 0.355608 0.022065
#
# Coordination Sequence:
#
# PCOD9367994 Si02
#       5
#     8   4   8   8   8
#     4  12  25  48  78 108 149 197 251 310 371 449
#     4  12  24  44  84 112 148 192 262 308 380 440
#     4  12  29  48  74 109 153 197 250 307 379 446
#     4  12  29  48  74 109 153 197 250 307 379 446
#     4  12  25  48  78 108 149 197 251 310 371 449
#
# _framework density 22.737100999999999
#
# number of rings (size 3 to 8) (size 9 to 14) (size 15 to 20)
#    0.000    0.000    4.444    4.000    3.111    5.333 
#    0.000    0.000    0.000    0.000    0.000    0.000 
#    0.000    0.000    0.000    0.000    0.000    0.000 
#
# Total GULP energy -100859.728437 kJ/mol
# GULP energy per Si atom -5603.318247 kJ/mol
# Density = 2.268535 g / cm^3
# Si number density = 22.737101 Si / 1000 Ang^3
#
#
#
# Elastic Constant Matrix: (Units=GPa)
#
#
# Indices 1 2 3 4 5 6 
#
# 1 94.4622 27.3159 11.0883 0.0000 0.0000 0.0000
# 2 27.3159 122.0965 24.4974 0.0000 0.0000 0.0000
# 3 11.0883 24.4974 82.8494 0.0000 0.0000 0.0000
# 4 0.0000 0.0000 0.0000 21.0318 0.0000 0.0000
# 5 0.0000 0.0000 0.0000 0.0000 39.3818 0.0000
# 6 0.0000 0.0000 0.0000 0.0000 0.0000 44.6831
#
#
#
# Elastic Compliance Matrix: (Units=1/GPa)
#
#
# Indices 1 2 3 4 5 6 
#
# 1 0.011370 -0.002380 -0.000818 0.000000 0.000000 0.000000
# 2 -0.002380 0.009205 -0.002403 0.000000 0.000000 0.000000
# 3 -0.000818 -0.002403 0.012890 0.000000 0.000000 0.000000
# 4 0.000000 0.000000 0.000000 0.047547 0.000000 0.000000
# 5 0.000000 0.000000 0.000000 0.000000 0.025392 0.000000
# 6 0.000000 0.000000 0.000000 0.000000 0.000000 0.022380
#
#
# Mechanical properties :
#
#
# Convention : Reuss Voigt Hill
#
# Bulk Modulus (GPa) = 44.91696 47.24568 46.08132
# Shear Modulus (GPa) = 33.91946 36.78643 35.35294
#
# Velocity S-wave (km/s) = 3.86659 4.02668 3.94745
# Velocity P-wave (km/s) = 6.30332 6.51484 6.40995
#
# Compressibility (1/GPa) = 0.02226331
#
# Stress axis : x y z
#
# Youngs Moduli (GPa) = 87.94746 108.63867 77.57833
#
# Poissons Ratio (x) = 0.25853 0.06347
# Poissons Ratio (y) = 0.20929 0.18644
# Poissons Ratio (z) = 0.07195 0.26109
#
# Static dielectric constant tensor:
#      x y z
#    x 1.871090 0.000000 0.000000 
#    y 0.000000 1.890920 0.000000 
#    z 0.000000 0.000000 1.842540 
# 
# From -- ./inp_files/1654.got.cif
#   From: 2010.05.17/outbox.cif.g08.bks.cpg/sg41_1_cif.got.tgz:1654.got - 2010.06.03 18:54:24.
