data_PCOD9367058
_publ_section_title
;
Structure prediction by ZEFSAII (Michael W. Deem and Ramdas Pophale) SiO2 
 PCOD9367058
Probable space group: A B A 2
;
_chemical_formula_sum "Si O2"
_cell_formula_units_Z 56
_cell_length_a 29.416727
_cell_length_b 5.495327
_cell_length_c 14.241227
_cell_angle_alpha 90.000000
_cell_angle_beta 90.000000
_cell_angle_gamma 90.000000
_cell_volume 2302.158916
_symmetry_space_group_name_H-M "A B A 2"
_symmetry_group_IT_number 41
_symmetry_cell_setting 'orthorhombic'
loop_
_space_group_symop_operation_xyz
x,y,z
-x,-y,z
1/2-x,y,1/2+z
1/2+x,-y,1/2+z
x,1/2+y,1/2+z
-x,1/2-y,1/2+z
1/2-x,1/2+y,z
1/2+x,1/2-y,z
loop_
_atom_site_type_symbol
_atom_site_label
_atom_site_fract_x
_atom_site_fract_y
_atom_site_fract_z
Si Si1 0.086216 0.172364 0.734810
Si Si2 0.240821 0.701187 0.751010
Si Si3 0.139089 0.152498 0.244258
Si Si4 0.128354 0.671318 0.956268
Si Si5 0.951952 0.565026 0.064056
Si Si6 0.551072 0.931245 0.430175
Si Si7 0.724467 0.266905 0.547852
O O1 0.112253 0.418764 0.704005
O O2 0.048508 0.085511 0.659709
O O3 0.066368 0.226801 0.838829
O O4 0.115634 0.918980 0.736440
O O5 0.253491 0.454983 0.803997
O O6 0.190190 0.685691 0.709587
O O7 0.273914 0.719180 0.661521
O O8 0.144641 0.084168 0.354408
O O9 0.173305 0.748274 0.010760
O O10 0.090816 0.873479 0.933224
O O11 0.096858 0.493865 0.016938
O O12 0.000000 0.500000 0.013669
O O13 0.951929 0.847796 0.039422
O O14 0.500000 0.000000 0.404469
O O15 0.747659 0.524347 0.520247
#
# Coordination Sequence:
#
# PCOD9367058 Si02
#       7
#     8   8   8   8   8   8   8
#     4  11  27  44  76 107 149 197 250 307 384 455
#     4  10  22  40  65  96 139 183 237 304 367 434
#     4  11  25  46  70 108 143 199 246 311 377 459
#     4  11  26  45  74 105 149 197 249 308 386 448
#     4  12  26  45  75 112 146 201 255 311 377 464
#     4  11  24  49  73 110 157 199 247 325 380 458
#     4  10  25  41  66 102 138 189 240 306 368 444
#
# _framework density 24.324992999999999
#
# number of rings (size 3 to 8) (size 9 to 14) (size 15 to 20)
#    0.000    1.143    2.857    1.286   12.000    1.143 
#    0.000    1.429    0.000    0.000    0.000    0.000 
#    0.000    0.000    0.000    0.000    0.000    0.000 
#
# Total GULP energy -155988.447090 kJ/mol
# GULP energy per Si atom -5571.015967 kJ/mol
# Density = 2.426963 g / cm^3
# Si number density = 24.324993 Si / 1000 Ang^3
#
#
#
# Elastic Constant Matrix: (Units=GPa)
#
#
# Indices 1 2 3 4 5 6 
#
# 1 137.0688 45.7077 -2.6059 0.0000 0.0000 0.0000
# 2 45.7077 140.8360 5.2739 0.0000 0.0000 0.0000
# 3 -2.6059 5.2739 77.9141 0.0000 0.0000 0.0000
# 4 0.0000 0.0000 0.0000 20.4899 0.0000 0.0000
# 5 0.0000 0.0000 0.0000 0.0000 29.4633 0.0000
# 6 0.0000 0.0000 0.0000 0.0000 0.0000 31.8497
#
#
#
# Elastic Compliance Matrix: (Units=1/GPa)
#
#
# Indices 1 2 3 4 5 6 
#
# 1 0.008197 -0.002677 0.000455 0.000000 0.000000 0.000000
# 2 -0.002677 0.007993 -0.000631 0.000000 0.000000 0.000000
# 3 0.000455 -0.000631 0.012893 0.000000 0.000000 0.000000
# 4 0.000000 0.000000 0.000000 0.048805 0.000000 0.000000
# 5 0.000000 0.000000 0.000000 0.000000 0.033941 0.000000
# 6 0.000000 0.000000 0.000000 0.000000 0.000000 0.031397
#
#
# Mechanical properties :
#
#
# Convention : Reuss Voigt Hill
#
# Bulk Modulus (GPa) = 42.77615 50.28556 46.53086
# Shear Modulus (GPa) = 31.90347 36.85681 34.38014
#
# Velocity S-wave (km/s) = 3.62546 3.89676 3.76356
# Velocity P-wave (km/s) = 5.92864 6.40028 6.16897
#
# Compressibility (1/GPa) = 0.02337751
#
# Stress axis : x y z
#
# Youngs Moduli (GPa) = 121.99468 125.10947 77.56407
#
# Poissons Ratio (x) = 0.33497 -0.03532
# Poissons Ratio (y) = 0.32663 0.04891
# Poissons Ratio (z) = -0.05556 0.07889
#
# Static dielectric constant tensor:
#      x y z
#    x 1.891780 0.000000 0.000000 
#    y 0.000000 2.071630 0.000000 
#    z 0.000000 0.000000 2.027110 
# 
# From -- ./inp_files/9271.got.cif
#   From: 2010.05.17/outbox.cif.g08.bks.cpg/sg41_5_cif.got.tgz:9271.got - 2010.06.03 18:54:24.
