data_PCOD9367911
_publ_section_title
;
Structure prediction by ZEFSAII (Michael W. Deem and Ramdas Pophale) SiO2 
 PCOD9367911
Probable space group: A B A 2
;
_chemical_formula_sum "Si O2"
_cell_formula_units_Z 52
_cell_length_a 9.228107
_cell_length_b 12.494686
_cell_length_c 20.457532
_cell_angle_alpha 90.000000
_cell_angle_beta 90.000000
_cell_angle_gamma 90.000000
_cell_volume 2358.800478
_symmetry_space_group_name_H-M "A B A 2"
_symmetry_group_IT_number 41
_symmetry_cell_setting 'orthorhombic'
loop_
_space_group_symop_operation_xyz
x,y,z
-x,-y,z
1/2-x,y,1/2+z
1/2+x,-y,1/2+z
x,1/2+y,1/2+z
-x,1/2-y,1/2+z
1/2-x,1/2+y,z
1/2+x,1/2-y,z
loop_
_atom_site_type_symbol
_atom_site_label
_atom_site_fract_x
_atom_site_fract_y
_atom_site_fract_z
Si Si1 0.995202 0.803233 0.110570
Si Si2 0.796541 0.304476 0.193723
Si Si3 0.095011 0.087323 0.988650
Si Si4 0.071362 0.297427 0.903914
Si Si5 0.500000 0.500000 0.736553
Si Si6 0.665245 0.684281 0.815022
Si Si7 0.420223 0.597826 0.524473
O O1 0.835665 0.809646 0.141952
O O2 0.001902 0.888355 0.052839
O O3 0.104256 0.795790 0.170650
O O4 0.043871 0.697563 0.070577
O O5 0.732159 0.267236 0.262707
O O6 0.892349 0.413465 0.200372
O O7 0.255717 0.063261 0.012682
O O8 0.116427 0.195182 0.947538
O O9 0.000000 0.000000 0.950561
O O10 0.210260 0.344550 0.867340
O O11 0.959999 0.249028 0.852001
O O12 0.992307 0.375684 0.954431
O O13 0.600281 0.580317 0.779164
O O14 0.500000 0.500000 0.556940
#
# Coordination Sequence:
#
# PCOD9367911 Si02
#       7
#     8   8   8   8   4   8   8
#     4  11  25  46  70 100 149 183 234 307 363 430
#     4  12  25  47  73 105 143 195 242 306 364 442
#     4  11  26  42  71 107 138 189 240 293 369 433
#     4  11  25  46  71 100 148 185 234 307 360 431
#     4  12  28  44  80 104 140 202 248 302 388 436
#     4  12  25  47  73 104 145 193 244 304 365 442
#     4  11  26  42  70 106 141 189 237 294 364 438
#
# _framework density 22.045100999999999
#
# number of rings (size 3 to 8) (size 9 to 14) (size 15 to 20)
#    0.000    0.615    6.154    0.000    6.462    2.462 
#    0.000    1.538    0.000    0.000    0.000    0.000 
#    0.000    0.000    0.000    0.000    0.000    0.000 
#
# Total GULP energy -145176.385945 kJ/mol
# GULP energy per Si atom -5583.707152 kJ/mol
# Density = 2.199493 g / cm^3
# Si number density = 22.045101 Si / 1000 Ang^3
#
#
#
# Elastic Constant Matrix: (Units=GPa)
#
#
# Indices 1 2 3 4 5 6 
#
# 1 111.8450 19.3507 31.3624 0.0000 0.0000 0.0000
# 2 19.3507 61.0413 0.4142 0.0000 0.0000 0.0000
# 3 31.3624 0.4142 66.5126 0.0000 0.0000 0.0000
# 4 0.0000 0.0000 0.0000 6.1214 0.0000 0.0000
# 5 0.0000 0.0000 0.0000 0.0000 58.2177 0.0000
# 6 0.0000 0.0000 0.0000 0.0000 0.0000 39.5673
#
#
#
# Elastic Compliance Matrix: (Units=1/GPa)
#
#
# Indices 1 2 3 4 5 6 
#
# 1 0.010984 -0.003447 -0.005158 0.000000 0.000000 0.000000
# 2 -0.003447 0.017465 0.001517 0.000000 0.000000 0.000000
# 3 -0.005158 0.001517 0.017457 0.000000 0.000000 0.000000
# 4 0.000000 0.000000 0.000000 0.163362 0.000000 0.000000
# 5 0.000000 0.000000 0.000000 0.000000 0.017177 0.000000
# 6 0.000000 0.000000 0.000000 0.000000 0.000000 0.025273
#
#
# Mechanical properties :
#
#
# Convention : Reuss Voigt Hill
#
# Bulk Modulus (GPa) = 31.51622 37.96149 34.73885
# Shear Modulus (GPa) = 18.08514 33.33271 25.70893
#
# Velocity S-wave (km/s) = 2.86732 3.89269 3.41867
# Velocity P-wave (km/s) = 5.02885 6.12057 5.60137
#
# Compressibility (1/GPa) = 0.03172970
#
# Stress axis : x y z
#
# Youngs Moduli (GPa) = 91.04538 57.25813 57.28288
#
# Poissons Ratio (x) = 0.19736 0.29544
# Poissons Ratio (y) = 0.31382 -0.08687
# Poissons Ratio (z) = 0.46957 -0.08683
#
# Static dielectric constant tensor:
#      x y z
#    x 1.798000 0.000000 0.000000 
#    y 0.000000 1.854000 0.000000 
#    z 0.000000 0.000000 1.863290 
# 
# From -- ./inp_files/11179.got.cif
#   From: 2010.05.17/outbox.cif.g08.bks.cpg/sg41_6_cif.got.tgz:11179.got - 2010.06.03 18:54:24.
