data_PCOD9367815
_publ_section_title
;
Structure prediction by ZEFSAII (Michael W. Deem and Ramdas Pophale) SiO2 
 PCOD9367815
Probable space group: A B A 2
;
_chemical_formula_sum "Si O2"
_cell_formula_units_Z 60
_cell_length_a 10.757495
_cell_length_b 29.197260
_cell_length_c 8.651551
_cell_angle_alpha 90.000000
_cell_angle_beta 90.000000
_cell_angle_gamma 90.000000
_cell_volume 2717.360276
_symmetry_space_group_name_H-M "A B A 2"
_symmetry_group_IT_number 41
_symmetry_cell_setting 'orthorhombic'
loop_
_space_group_symop_operation_xyz
x,y,z
-x,-y,z
1/2-x,y,1/2+z
1/2+x,-y,1/2+z
x,1/2+y,1/2+z
-x,1/2-y,1/2+z
1/2-x,1/2+y,z
1/2+x,1/2-y,z
loop_
_atom_site_type_symbol
_atom_site_label
_atom_site_fract_x
_atom_site_fract_y
_atom_site_fract_z
Si Si1 0.689860 0.019854 0.783430
Si Si2 0.375128 0.166172 0.359433
Si Si3 0.354546 0.060158 0.290455
Si Si4 0.500000 0.500000 0.036709
Si Si5 0.386398 0.333509 0.527294
Si Si6 0.854866 0.695580 0.364851
Si Si7 0.854904 0.293702 0.027585
Si Si8 0.410844 0.939752 0.101280
O O1 0.592867 0.027782 0.647007
O O2 0.819119 0.044354 0.738717
O O3 0.724431 0.966018 0.778903
O O4 0.635183 0.036548 0.944559
O O5 0.346626 0.114316 0.309463
O O6 0.518289 0.169505 0.412129
O O7 0.272514 0.181900 0.480020
O O8 0.364807 0.200488 0.212447
O O9 0.422880 0.035518 0.433542
O O10 0.446742 0.050421 0.146649
O O11 0.272286 0.329138 0.411568
O O12 0.359002 0.302191 0.678460
O O13 0.520488 0.318396 0.464084
O O14 0.397831 0.385399 0.583913
O O15 0.855526 0.743605 0.453976
#
# Coordination Sequence:
#
# PCOD9367815 Si02
#       8
#     8   8   8   4   8   8   8   8
#     4  12  27  42  74 102 140 192 234 299 357 435
#     4  11  27  45  72 107 145 193 236 302 361 433
#     4  12  25  50  68 100 153 184 242 302 355 434
#     4  12  28  42  70 106 134 190 238 288 368 416
#     4  11  25  43  72 105 138 192 238 301 357 431
#     4  11  23  45  72 104 144 182 244 296 362 431
#     4  11  24  46  70 104 144 187 238 295 372 430
#     4  12  23  48  71 100 147 184 246 293 361 427
#
# _framework density 22.080252999999999
#
# number of rings (size 3 to 8) (size 9 to 14) (size 15 to 20)
#    0.000    0.533    5.333    2.400    5.600    4.267 
#    0.000    0.000    0.000    0.000    0.000    0.000 
#    0.000    0.000    0.000    0.000    0.000    0.000 
#
# Total GULP energy -167891.564611 kJ/mol
# GULP energy per Si atom -5596.385487 kJ/mol
# Density = 2.203000 g / cm^3
# Si number density = 22.080253 Si / 1000 Ang^3
#
#
#
# Elastic Constant Matrix: (Units=GPa)
#
#
# Indices 1 2 3 4 5 6 
#
# 1 92.7550 -28.2046 5.6033 0.0000 0.0000 0.0000
# 2 -28.2046 69.1408 -12.9129 0.0000 0.0000 0.0000
# 3 5.6033 -12.9129 60.3426 0.0000 0.0000 0.0000
# 4 0.0000 0.0000 0.0000 10.6756 0.0000 0.0000
# 5 0.0000 0.0000 0.0000 0.0000 43.2359 0.0000
# 6 0.0000 0.0000 0.0000 0.0000 0.0000 33.4782
#
#
#
# Elastic Compliance Matrix: (Units=1/GPa)
#
#
# Indices 1 2 3 4 5 6 
#
# 1 0.012308 0.005008 -0.000071 0.000000 0.000000 0.000000
# 2 0.005008 0.017103 0.003195 0.000000 0.000000 0.000000
# 3 -0.000071 0.003195 0.017262 0.000000 0.000000 0.000000
# 4 0.000000 0.000000 0.000000 0.093671 0.000000 0.000000
# 5 0.000000 0.000000 0.000000 0.000000 0.023129 0.000000
# 6 0.000000 0.000000 0.000000 0.000000 0.000000 0.029870
#
#
# Mechanical properties :
#
#
# Convention : Reuss Voigt Hill
#
# Bulk Modulus (GPa) = 15.88939 16.80112 16.34525
# Shear Modulus (GPa) = 25.24488 34.66144 29.95316
#
# Velocity S-wave (km/s) = 3.38498 3.96636 3.68714
# Velocity P-wave (km/s) = 4.74228 5.34805 5.05425
#
# Compressibility (1/GPa) = 0.06293507
#
# Stress axis : x y z
#
# Youngs Moduli (GPa) = 81.24751 58.47055 57.92962
#
# Poissons Ratio (x) = -0.29279 0.00413
# Poissons Ratio (y) = -0.40685 -0.18508
# Poissons Ratio (z) = 0.00580 -0.18680
#
# Static dielectric constant tensor:
#      x y z
#    x 1.834600 0.000000 0.000000 
#    y 0.000000 1.818830 0.000000 
#    z 0.000000 0.000000 1.801060 
# 
# From -- ./inp_files/2161.got.cif
#   From: 2010.05.17/outbox.cif.g08.bks.cpg/sg41_2_cif.got.tgz:2161.got - 2010.06.03 18:54:24.
