data_PCOD9367113
_publ_section_title
;
Structure prediction by ZEFSAII (Michael W. Deem and Ramdas Pophale) SiO2 
 PCOD9367113
Probable space group: A B A 2
;
_chemical_formula_sum "Si O2"
_cell_formula_units_Z 56
_cell_length_a 15.438330
_cell_length_b 11.927998
_cell_length_c 13.491759
_cell_angle_alpha 90.000000
_cell_angle_beta 90.000000
_cell_angle_gamma 90.000000
_cell_volume 2484.485420
_symmetry_space_group_name_H-M "A B A 2"
_symmetry_group_IT_number 41
_symmetry_cell_setting 'orthorhombic'
loop_
_space_group_symop_operation_xyz
x,y,z
-x,-y,z
1/2-x,y,1/2+z
1/2+x,-y,1/2+z
x,1/2+y,1/2+z
-x,1/2-y,1/2+z
1/2-x,1/2+y,z
1/2+x,1/2-y,z
loop_
_atom_site_type_symbol
_atom_site_label
_atom_site_fract_x
_atom_site_fract_y
_atom_site_fract_z
Si Si1 0.643608 0.700099 0.951600
Si Si2 0.372024 0.033826 0.338117
Si Si3 0.403659 0.954980 0.896254
Si Si4 0.101460 0.968959 0.614143
Si Si5 0.452201 0.703984 0.950744
Si Si6 0.308295 0.732883 0.087359
Si Si7 0.701027 0.874493 0.796397
O O1 0.646335 0.575784 0.904078
O O2 0.547474 0.717451 0.996779
O O3 0.645968 0.784865 0.858306
O O4 0.723577 0.727291 0.025346
O O5 0.370224 0.012501 0.220701
O O6 0.455184 0.107897 0.367550
O O7 0.291889 0.117873 0.351079
O O8 0.415760 0.821784 0.908537
O O9 0.500000 0.000000 0.880291
O O10 0.343415 0.003982 0.810496
O O11 0.367993 0.002895 0.002450
O O12 0.133977 0.841102 0.616706
O O13 0.000000 0.000000 0.608906
O O14 0.380133 0.662226 0.027680
O O15 0.285235 0.665977 0.185560
#
# Coordination Sequence:
#
# PCOD9367113 Si02
#       7
#     8   8   8   8   8   8   8
#     4  12  25  50  73 105 150 193 243 306 366 441
#     4  12  25  43  74 107 143 192 244 305 366 434
#     4  10  22  43  71 100 140 189 234 295 359 439
#     4  10  22  41  72 103 138 191 244 289 361 439
#     4  11  24  47  77 105 147 191 242 305 370 429
#     4  11  26  47  71 112 144 193 246 296 372 445
#     4  12  26  44  74 104 147 187 244 302 361 444
#
# _framework density 22.539878999999999
#
# number of rings (size 3 to 8) (size 9 to 14) (size 15 to 20)
#    0.000    0.857    4.286    3.000    2.000    1.143 
#    0.000    2.857    0.000    0.000    0.000    0.000 
#    0.000    0.000    0.000    0.000    0.000    0.000 
#
# Total GULP energy -156225.656320 kJ/mol
# GULP energy per Si atom -5579.487726 kJ/mol
# Density = 2.248858 g / cm^3
# Si number density = 22.539879 Si / 1000 Ang^3
#
#
#
# Elastic Constant Matrix: (Units=GPa)
#
#
# Indices 1 2 3 4 5 6 
#
# 1 116.5800 28.7593 55.8554 0.0000 0.0000 0.0000
# 2 28.7593 94.0633 41.6893 0.0000 0.0000 0.0000
# 3 55.8554 41.6893 108.3964 0.0000 0.0000 0.0000
# 4 0.0000 0.0000 0.0000 27.7814 0.0000 0.0000
# 5 0.0000 0.0000 0.0000 0.0000 14.5233 0.0000
# 6 0.0000 0.0000 0.0000 0.0000 0.0000 29.9688
#
#
#
# Elastic Compliance Matrix: (Units=1/GPa)
#
#
# Indices 1 2 3 4 5 6 
#
# 1 0.011478 -0.001071 -0.005503 0.000000 0.000000 0.000000
# 2 -0.001071 0.012915 -0.004416 0.000000 0.000000 0.000000
# 3 -0.005503 -0.004416 0.013759 0.000000 0.000000 0.000000
# 4 0.000000 0.000000 0.000000 0.035995 0.000000 0.000000
# 5 0.000000 0.000000 0.000000 0.000000 0.068855 0.000000
# 6 0.000000 0.000000 0.000000 0.000000 0.000000 0.033368
#
#
# Mechanical properties :
#
#
# Convention : Reuss Voigt Hill
#
# Bulk Modulus (GPa) = 61.82431 63.51642 62.67037
# Shear Modulus (GPa) = 24.54091 27.30375 25.92233
#
# Velocity S-wave (km/s) = 3.30324 3.48423 3.39494
# Velocity P-wave (km/s) = 6.48359 6.66537 6.57511
#
# Compressibility (1/GPa) = 0.01617487
#
# Stress axis : x y z
#
# Youngs Moduli (GPa) = 87.11962 77.42641 72.67811
#
# Poissons Ratio (x) = 0.08289 0.39995
# Poissons Ratio (y) = 0.09326 0.32092
# Poissons Ratio (z) = 0.47942 0.34189
#
# Static dielectric constant tensor:
#      x y z
#    x 1.916830 0.000000 0.000000 
#    y 0.000000 1.921910 0.000000 
#    z 0.000000 0.000000 1.884050 
# 
# From -- ./inp_files/8385.got.cif
#   From: 2010.05.17/outbox.cif.g08.bks.cpg/sg41_5_cif.got.tgz:8385.got - 2010.06.03 18:54:24.
