data_PCOD9367322
_publ_section_title
;
Structure prediction by ZEFSAII (Michael W. Deem and Ramdas Pophale) SiO2 
 PCOD9367322
Probable space group: A B A 2
;
_chemical_formula_sum "Si O2"
_cell_formula_units_Z 40
_cell_length_a 12.755639
_cell_length_b 5.199677
_cell_length_c 27.125369
_cell_angle_alpha 90.000000
_cell_angle_beta 90.000000
_cell_angle_gamma 90.000000
_cell_volume 1799.095598
_symmetry_space_group_name_H-M "A B A 2"
_symmetry_group_IT_number 41
_symmetry_cell_setting 'orthorhombic'
loop_
_space_group_symop_operation_xyz
x,y,z
-x,-y,z
1/2-x,y,1/2+z
1/2+x,-y,1/2+z
x,1/2+y,1/2+z
-x,1/2-y,1/2+z
1/2-x,1/2+y,z
1/2+x,1/2-y,z
loop_
_atom_site_type_symbol
_atom_site_label
_atom_site_fract_x
_atom_site_fract_y
_atom_site_fract_z
Si Si1 0.436409 0.743696 0.284190
Si Si2 0.684111 0.462641 0.566761
Si Si3 0.185768 0.006291 0.450488
Si Si4 0.500000 0.500000 0.380998
Si Si5 0.000000 0.000000 0.636695
Si Si6 0.185412 0.242744 0.193876
O O1 0.500000 0.500000 0.263433
O O2 0.440916 0.691153 0.342712
O O3 0.330862 0.753737 0.253233
O O4 0.500000 0.000000 0.274936
O O5 0.726564 0.750076 0.576692
O O6 0.658470 0.479393 0.508578
O O7 0.585454 0.381398 0.599541
O O8 0.223340 0.297302 0.440642
O O9 0.090405 0.908198 0.417296
O O10 0.926948 0.185484 0.669882
O O11 0.266862 0.468315 0.180717
#
# Coordination Sequence:
#
# PCOD9367322 Si02
#       6
#     8   8   8   4   4   8
#     4  10  23  44  63  91 132 169 223 268 324 395
#     4  10  23  44  65  98 133 171 217 269 332 398
#     4  10  23  41  66  98 133 170 218 268 326 393
#     4  10  25  40  70  94 136 168 227 260 334 384
#     4  12  25  44  72  94 136 170 227 272 340 388
#     4  12  27  44  68  97 131 174 223 276 334 395
#
# _framework density 22.233393
#
# number of rings (size 3 to 8) (size 9 to 14) (size 15 to 20)
#    0.600    0.800    1.000    3.000    2.800    4.000 
#    0.000    6.000    0.000    0.000    0.000    0.000 
#    0.000    0.000    0.000    0.000    0.000    0.000 
#
# Total GULP energy -111571.209269 kJ/mol
# GULP energy per Si atom -5578.560463 kJ/mol
# Density = 2.218279 g / cm^3
# Si number density = 22.233393 Si / 1000 Ang^3
#
#
#
# Elastic Constant Matrix: (Units=GPa)
#
#
# Indices 1 2 3 4 5 6 
#
# 1 80.0178 8.4403 52.7465 0.0000 0.0000 0.0000
# 2 8.4403 105.2627 22.3653 0.0000 0.0000 0.0000
# 3 52.7465 22.3653 121.0767 0.0000 0.0000 0.0000
# 4 0.0000 0.0000 0.0000 16.2473 0.0000 0.0000
# 5 0.0000 0.0000 0.0000 0.0000 45.2778 0.0000
# 6 0.0000 0.0000 0.0000 0.0000 0.0000 21.4004
#
#
#
# Elastic Compliance Matrix: (Units=1/GPa)
#
#
# Indices 1 2 3 4 5 6 
#
# 1 0.017537 0.000226 -0.007682 0.000000 0.000000 0.000000
# 2 0.000226 0.009891 -0.001926 0.000000 0.000000 0.000000
# 3 -0.007682 -0.001926 0.011961 0.000000 0.000000 0.000000
# 4 0.000000 0.000000 0.000000 0.061549 0.000000 0.000000
# 5 0.000000 0.000000 0.000000 0.000000 0.022086 0.000000
# 6 0.000000 0.000000 0.000000 0.000000 0.000000 0.046728
#
#
# Mechanical properties :
#
#
# Convention : Reuss Voigt Hill
#
# Bulk Modulus (GPa) = 48.48012 52.60683 50.54347
# Shear Modulus (GPa) = 25.58981 31.43876 28.51429
#
# Velocity S-wave (km/s) = 3.39627 3.76444 3.58508
# Velocity P-wave (km/s) = 6.10180 6.52742 6.31819
#
# Compressibility (1/GPa) = 0.02062701
#
# Stress axis : x y z
#
# Youngs Moduli (GPa) = 57.02229 101.10156 83.60236
#
# Poissons Ratio (x) = -0.02284 0.64220
# Poissons Ratio (y) = -0.01288 0.16098
# Poissons Ratio (z) = 0.43803 0.19467
#
# Static dielectric constant tensor:
#      x y z
#    x 1.785760 0.000000 0.000000 
#    y 0.000000 1.785970 0.000000 
#    z 0.000000 0.000000 1.886600 
# 
# From -- ./inp_files/12489.got.cif
#   From: 2010.05.17/outbox.cif.g08.bks.cpg/sg41_7_cif.got.tgz:12489.got - 2010.06.03 18:54:24.
