data_PCOD9367812
_publ_section_title
;
Structure prediction by ZEFSAII (Michael W. Deem and Ramdas Pophale) SiO2 
 PCOD9367812
Probable space group: A B A 2
;
_chemical_formula_sum "Si O2"
_cell_formula_units_Z 56
_cell_length_a 13.806433
_cell_length_b 12.638083
_cell_length_c 14.807945
_cell_angle_alpha 90.000000
_cell_angle_beta 90.000000
_cell_angle_gamma 90.000000
_cell_volume 2583.791622
_symmetry_space_group_name_H-M "A B A 2"
_symmetry_group_IT_number 41
_symmetry_cell_setting 'orthorhombic'
loop_
_space_group_symop_operation_xyz
x,y,z
-x,-y,z
1/2-x,y,1/2+z
1/2+x,-y,1/2+z
x,1/2+y,1/2+z
-x,1/2-y,1/2+z
1/2-x,1/2+y,z
1/2+x,1/2-y,z
loop_
_atom_site_type_symbol
_atom_site_label
_atom_site_fract_x
_atom_site_fract_y
_atom_site_fract_z
Si Si1 0.128709 0.359177 0.104310
Si Si2 0.733432 0.092333 0.915351
Si Si3 0.713031 0.266605 0.265619
Si Si4 0.077147 0.201452 0.544172
Si Si5 0.080543 0.082184 0.358221
Si Si6 0.107311 0.452450 0.546769
Si Si7 0.218406 0.567453 0.147227
O O1 0.191892 0.289394 0.171364
O O2 0.140258 0.474993 0.146124
O O3 0.018048 0.324653 0.101735
O O4 0.176633 0.363595 0.004290
O O5 0.751821 0.184848 0.841978
O O6 0.669288 0.996706 0.878408
O O7 0.833174 0.042729 0.952854
O O8 0.614379 0.325144 0.293331
O O9 0.781388 0.364456 0.238189
O O10 0.051432 0.146751 0.448188
O O11 0.094944 0.325931 0.555569
O O12 0.177003 0.144420 0.570427
O O13 0.000000 0.000000 0.325529
O O14 0.179066 0.512582 0.618457
O O15 0.000000 0.500000 0.547199
#
# Coordination Sequence:
#
# PCOD9367812 Si02
#       7
#     8   8   8   8   8   8   8
#     4  11  24  45  74 104 143 193 242 294 358 437
#     4  11  24  47  73 102 147 191 241 292 364 428
#     4  12  27  42  70 112 146 186 241 301 363 422
#     4  12  22  46  78 100 137 198 237 292 368 425
#     4  12  24  46  74 103 140 190 243 294 359 439
#     4  11  24  41  72 106 141 187 240 294 355 426
#     4  11  23  45  71 105 144 186 243 291 356 431
#
# _framework density 21.673573999999999
#
# number of rings (size 3 to 8) (size 9 to 14) (size 15 to 20)
#    0.000    0.571    5.714    3.857    0.000    4.000 
#    0.000    2.857    0.000    0.000    0.000    0.000 
#    0.000    0.000    0.000    0.000    0.000    0.000 
#
# Total GULP energy -156242.590170 kJ/mol
# GULP energy per Si atom -5580.092506 kJ/mol
# Density = 2.162424 g / cm^3
# Si number density = 21.673574 Si / 1000 Ang^3
#
#
#
# Elastic Constant Matrix: (Units=GPa)
#
#
# Indices 1 2 3 4 5 6 
#
# 1 75.9604 33.9644 -13.8471 0.0000 0.0000 0.0000
# 2 33.9644 129.2182 15.8079 0.0000 0.0000 0.0000
# 3 -13.8471 15.8079 56.9082 0.0000 0.0000 0.0000
# 4 0.0000 0.0000 0.0000 36.4885 0.0000 0.0000
# 5 0.0000 0.0000 0.0000 0.0000 8.5737 0.0000
# 6 0.0000 0.0000 0.0000 0.0000 0.0000 42.9255
#
#
#
# Elastic Compliance Matrix: (Units=1/GPa)
#
#
# Indices 1 2 3 4 5 6 
#
# 1 0.016356 -0.004954 0.005356 0.000000 0.000000 0.000000
# 2 -0.004954 0.009512 -0.003848 0.000000 0.000000 0.000000
# 3 0.005356 -0.003848 0.019944 0.000000 0.000000 0.000000
# 4 0.000000 0.000000 0.000000 0.027406 0.000000 0.000000
# 5 0.000000 0.000000 0.000000 0.000000 0.116635 0.000000
# 6 0.000000 0.000000 0.000000 0.000000 0.000000 0.023296
#
#
# Mechanical properties :
#
#
# Convention : Reuss Voigt Hill
#
# Bulk Modulus (GPa) = 25.69343 37.10413 31.39878
# Shear Modulus (GPa) = 21.45780 32.67497 27.06639
#
# Velocity S-wave (km/s) = 3.14991 3.88699 3.53770
# Velocity P-wave (km/s) = 5.01096 6.10750 5.58620
#
# Compressibility (1/GPa) = 0.03892045
#
# Stress axis : x y z
#
# Youngs Moduli (GPa) = 61.13795 105.13242 50.13978
#
# Poissons Ratio (x) = 0.52087 -0.26856
# Poissons Ratio (y) = 0.30291 0.19292
# Poissons Ratio (z) = -0.32746 0.40452
#
# Static dielectric constant tensor:
#      x y z
#    x 1.811050 0.000000 0.000000 
#    y 0.000000 1.900910 0.000000 
#    z 0.000000 0.000000 1.864980 
# 
# From -- ./inp_files/8382.got.cif
#   From: 2010.05.17/outbox.cif.g08.bks.cpg/sg41_5_cif.got.tgz:8382.got - 2010.06.03 18:54:24.
