data_PCOD9367205
_publ_section_title
;
Structure prediction by ZEFSAII (Michael W. Deem and Ramdas Pophale) SiO2 
 PCOD9367205
Probable space group: A B A 2
;
_chemical_formula_sum "Si O2"
_cell_formula_units_Z 60
_cell_length_a 7.874069
_cell_length_b 17.684278
_cell_length_c 18.412688
_cell_angle_alpha 90.000000
_cell_angle_beta 90.000000
_cell_angle_gamma 90.000000
_cell_volume 2563.915712
_symmetry_space_group_name_H-M "A B A 2"
_symmetry_group_IT_number 41
_symmetry_cell_setting 'orthorhombic'
loop_
_space_group_symop_operation_xyz
x,y,z
-x,-y,z
1/2-x,y,1/2+z
1/2+x,-y,1/2+z
x,1/2+y,1/2+z
-x,1/2-y,1/2+z
1/2-x,1/2+y,z
1/2+x,1/2-y,z
loop_
_atom_site_type_symbol
_atom_site_label
_atom_site_fract_x
_atom_site_fract_y
_atom_site_fract_z
Si Si1 0.267839 0.312719 0.573950
Si Si2 0.704640 0.014401 0.811360
Si Si3 0.988672 0.748875 0.831255
Si Si4 0.500000 0.000000 0.581151
Si Si5 0.659706 0.057431 0.164672
Si Si6 0.102106 0.654125 0.596922
Si Si7 0.283086 0.857230 0.411554
Si Si8 0.234043 0.146945 0.753708
O O1 0.387033 0.364885 0.623832
O O2 0.311054 0.225824 0.561065
O O3 0.253609 0.351759 0.496135
O O4 0.086917 0.316452 0.613721
O O5 0.773881 0.067764 0.746508
O O6 0.764245 0.057227 0.883334
O O7 0.500000 0.000000 0.809514
O O8 0.787900 0.934127 0.791538
O O9 0.855228 0.692929 0.868370
O O10 0.925732 0.798751 0.763315
O O11 0.047623 0.811599 0.889867
O O12 0.130259 0.692966 0.801104
O O13 0.332755 0.973320 0.626036
O O14 0.572884 0.921593 0.549140
O O15 0.500000 0.000000 0.160836
O O16 0.196497 0.636340 0.672505
#
# Coordination Sequence:
#
# PCOD9367205 Si02
#       8
#     8   8   8   4   8   8   8   8
#     4  11  26  44  68 106 141 194 237 291 369 442
#     4  12  23  43  70 100 140 187 234 304 360 423
#     4  10  24  41  65 101 133 179 234 296 340 431
#     4  10  22  44  64 106 142 176 232 302 370 412
#     4  11  25  43  71 103 143 185 245 308 360 430
#     4  11  23  41  73  99 144 182 235 302 354 427
#     4  11  25  45  67  98 148 184 237 287 360 442
#     4  11  22  40  71 103 130 180 236 295 363 403
#
# _framework density 23.401703999999999
#
# number of rings (size 3 to 8) (size 9 to 14) (size 15 to 20)
#    0.000    1.067    3.333    2.400    7.467    0.533 
#    0.000    9.333    0.000    0.000    0.000    0.000 
#    0.000    0.000    0.000    0.000    0.000    0.000 
#
# Total GULP energy -167559.569992 kJ/mol
# GULP energy per Si atom -5585.319000 kJ/mol
# Density = 2.334844 g / cm^3
# Si number density = 23.401704 Si / 1000 Ang^3
#
#
#
# Elastic Constant Matrix: (Units=GPa)
#
#
# Indices 1 2 3 4 5 6 
#
# 1 51.7657 23.6384 -3.2010 0.0000 0.0000 0.0000
# 2 23.6384 152.3482 68.4485 0.0000 0.0000 0.0000
# 3 -3.2010 68.4485 93.2962 0.0000 0.0000 0.0000
# 4 0.0000 0.0000 0.0000 37.3077 0.0000 0.0000
# 5 0.0000 0.0000 0.0000 0.0000 11.1505 0.0000
# 6 0.0000 0.0000 0.0000 0.0000 0.0000 52.0216
#
#
#
# Elastic Compliance Matrix: (Units=1/GPa)
#
#
# Indices 1 2 3 4 5 6 
#
# 1 0.022201 -0.005649 0.004906 0.000000 0.000000 0.000000
# 2 -0.005649 0.011229 -0.008432 0.000000 0.000000 0.000000
# 3 0.004906 -0.008432 0.017073 0.000000 0.000000 0.000000
# 4 0.000000 0.000000 0.000000 0.026804 0.000000 0.000000
# 5 0.000000 0.000000 0.000000 0.000000 0.089682 0.000000
# 6 0.000000 0.000000 0.000000 0.000000 0.000000 0.019223
#
#
# Mechanical properties :
#
#
# Convention : Reuss Voigt Hill
#
# Bulk Modulus (GPa) = 31.10117 52.79798 41.94958
# Shear Modulus (GPa) = 23.22569 33.99758 28.61164
#
# Velocity S-wave (km/s) = 3.15378 3.81567 3.50041
# Velocity P-wave (km/s) = 5.15565 6.48252 5.85678
#
# Compressibility (1/GPa) = 0.03215313
#
# Stress axis : x y z
#
# Youngs Moduli (GPa) = 45.04351 89.05628 58.57120
#
# Poissons Ratio (x) = 0.50308 -0.28736
# Poissons Ratio (y) = 0.25445 0.49388
# Poissons Ratio (z) = -0.22099 0.75093
#
# Static dielectric constant tensor:
#      x y z
#    x 1.971280 0.000000 0.000000 
#    y 0.000000 1.958980 0.000000 
#    z 0.000000 0.000000 1.836230 
# 
# From -- ./inp_files/9772.got.cif
#   From: 2010.05.17/outbox.cif.g08.bks.cpg/sg41_5_cif.got.tgz:9772.got - 2010.06.03 18:54:24.
