data_PCOD9367426
_publ_section_title
;
Structure prediction by ZEFSAII (Michael W. Deem and Ramdas Pophale) SiO2 
 PCOD9367426
Probable space group: A B A 2
;
_chemical_formula_sum "Si O2"
_cell_formula_units_Z 60
_cell_length_a 9.341709
_cell_length_b 10.624782
_cell_length_c 26.385562
_cell_angle_alpha 90.000000
_cell_angle_beta 90.000000
_cell_angle_gamma 90.000000
_cell_volume 2618.862587
_symmetry_space_group_name_H-M "A B A 2"
_symmetry_group_IT_number 41
_symmetry_cell_setting 'orthorhombic'
loop_
_space_group_symop_operation_xyz
x,y,z
-x,-y,z
1/2-x,y,1/2+z
1/2+x,-y,1/2+z
x,1/2+y,1/2+z
-x,1/2-y,1/2+z
1/2-x,1/2+y,z
1/2+x,1/2-y,z
loop_
_atom_site_type_symbol
_atom_site_label
_atom_site_fract_x
_atom_site_fract_y
_atom_site_fract_z
Si Si1 0.000000 0.000000 0.602551
Si Si2 0.048275 0.359176 0.584534
Si Si3 0.163145 0.972523 0.875688
Si Si4 0.672093 0.689188 0.540152
Si Si5 0.133879 0.699090 0.844164
Si Si6 0.156693 0.705608 0.172335
Si Si7 0.554293 0.859558 0.730572
Si Si8 0.421749 0.872206 0.936239
O O1 0.082018 0.096927 0.639197
O O2 0.883158 0.059358 0.564682
O O3 0.157712 0.312807 0.541282
O O4 0.138521 0.325181 0.634709
O O5 0.000000 0.500000 0.581501
O O6 0.899934 0.285901 0.578813
O O7 0.164735 0.848806 0.838962
O O8 0.265521 0.918109 0.918958
O O9 0.235917 0.103966 0.858359
O O10 0.000000 0.000000 0.889433
O O11 0.607583 0.713049 0.484781
O O12 0.084733 0.648556 0.790092
O O13 0.015011 0.680667 0.889071
O O14 0.309146 0.669368 0.194948
O O15 0.059665 0.750380 0.218962
O O16 0.500000 0.000000 0.719297
O O17 0.500000 0.000000 0.952807
#
# Coordination Sequence:
#
# PCOD9367426 Si02
#       8
#     4   8   8   8   8   8   8   8
#     4  10  24  46  72 106 150 192 250 310 372 450
#     4  11  27  48  73 107 151 194 252 315 378 461
#     4  11  25  46  76 104 148 195 247 311 386 446
#     4  11  25  45  74 106 146 199 247 306 391 447
#     4  11  27  50  75 109 156 196 254 322 384 465
#     4  11  27  46  75 108 148 195 247 311 379 450
#     4  12  29  48  78 110 150 199 252 309 386 462
#     4  10  23  46  70 107 150 194 248 313 374 464
#
# _framework density 22.910710000000002
#
# number of rings (size 3 to 8) (size 9 to 14) (size 15 to 20)
#    0.000    1.067    0.667    4.000   16.800    0.533 
#    2.400    0.000    0.000    0.000    0.000    0.000 
#    0.000    0.000    0.000    0.000    0.000    0.000 
#
# Total GULP energy -167621.937469 kJ/mol
# GULP energy per Si atom -5587.397916 kJ/mol
# Density = 2.285856 g / cm^3
# Si number density = 22.910710 Si / 1000 Ang^3
#
#
#
# Elastic Constant Matrix: (Units=GPa)
#
#
# Indices 1 2 3 4 5 6 
#
# 1 159.1726 56.2782 46.0834 0.0000 0.0000 0.0000
# 2 56.2782 81.6867 8.7454 0.0000 0.0000 0.0000
# 3 46.0834 8.7454 104.6877 0.0000 0.0000 0.0000
# 4 0.0000 0.0000 0.0000 20.2522 0.0000 0.0000
# 5 0.0000 0.0000 0.0000 0.0000 101.2181 0.0000
# 6 0.0000 0.0000 0.0000 0.0000 0.0000 37.0617
#
#
#
# Elastic Compliance Matrix: (Units=1/GPa)
#
#
# Indices 1 2 3 4 5 6 
#
# 1 0.009530 -0.006172 -0.003679 0.000000 0.000000 0.000000
# 2 -0.006172 0.016349 0.001351 0.000000 0.000000 0.000000
# 3 -0.003679 0.001351 0.011059 0.000000 0.000000 0.000000
# 4 0.000000 0.000000 0.000000 0.049377 0.000000 0.000000
# 5 0.000000 0.000000 0.000000 0.000000 0.009880 0.000000
# 6 0.000000 0.000000 0.000000 0.000000 0.000000 0.026982
#
#
# Mechanical properties :
#
#
# Convention : Reuss Voigt Hill
#
# Bulk Modulus (GPa) = 50.15590 63.08458 56.62024
# Shear Modulus (GPa) = 34.05450 47.33573 40.69512
#
# Velocity S-wave (km/s) = 3.85957 4.55036 4.21913
# Velocity P-wave (km/s) = 6.46538 7.42984 6.96432
#
# Compressibility (1/GPa) = 0.01993783
#
# Stress axis : x y z
#
# Youngs Moduli (GPa) = 104.93322 61.16487 90.42360
#
# Poissons Ratio (x) = 0.37749 0.33271
# Poissons Ratio (y) = 0.64762 -0.12216
# Poissons Ratio (z) = 0.38610 -0.08263
#
# Static dielectric constant tensor:
#      x y z
#    x 0.645880 0.000000 0.000000 
#    y 0.000000 1.900000 0.000000 
#    z 0.000000 0.000000 1.897430 
# 
# From -- ./inp_files/12471.got.cif
#   From: 2010.05.17/outbox.cif.g08.bks.cpg/sg41_7_cif.got.tgz:12471.got - 2010.06.03 18:54:24.
