data_PCOD9367940
_publ_section_title
;
Structure prediction by ZEFSAII (Michael W. Deem and Ramdas Pophale) SiO2 
 PCOD9367940
Probable space group: A B A 2
;
_chemical_formula_sum "Si O2"
_cell_formula_units_Z 48
_cell_length_a 10.150892
_cell_length_b 9.700826
_cell_length_c 22.282745
_cell_angle_alpha 90.000000
_cell_angle_beta 90.000000
_cell_angle_gamma 90.000000
_cell_volume 2194.227291
_symmetry_space_group_name_H-M "A B A 2"
_symmetry_group_IT_number 41
_symmetry_cell_setting 'orthorhombic'
loop_
_space_group_symop_operation_xyz
x,y,z
-x,-y,z
1/2-x,y,1/2+z
1/2+x,-y,1/2+z
x,1/2+y,1/2+z
-x,1/2-y,1/2+z
1/2-x,1/2+y,z
1/2+x,1/2-y,z
loop_
_atom_site_type_symbol
_atom_site_label
_atom_site_fract_x
_atom_site_fract_y
_atom_site_fract_z
Si Si1 0.311434 0.329317 0.555880
Si Si2 0.750000 0.840487 0.447028
Si Si3 0.351559 0.555522 0.127373
Si Si4 0.000000 0.500000 0.975184
Si Si5 0.311434 0.329317 0.838175
Si Si6 0.851559 0.444478 0.766682
Si Si7 0.500000 0.000000 0.418870
O O1 0.225460 0.254056 0.504688
O O2 0.240419 0.456406 0.587806
O O3 0.345767 0.210996 0.603178
O O4 0.434903 0.386635 0.518534
O O5 0.725460 0.745944 0.389368
O O6 0.879940 0.933494 0.438165
O O7 0.620060 0.933494 0.455890
O O8 0.500000 0.500000 0.122899
O O9 0.310674 0.550494 0.197028
O O10 0.240419 0.456406 0.806249
O O11 0.434904 0.386635 0.875521
O O12 0.345767 0.210996 0.790877
O O13 0.000000 0.500000 0.771157
#
# Coordination Sequence:
#
# PCOD9367940 Si02
#       7
#     8   8   8   4   8   8   4
#     4  12  25  47  73 107 142 189 240 298 361 429
#     4  12  26  46  76 108 148 188 236 298 368 432
#     4  11  26  47  72 102 141 190 242 298 356 425
#     4  12  26  46  73 114 145 192 236 298 368 440
#     4  12  25  47  73 107 142 189 240 298 361 429
#     4  11  26  47  72 102 141 190 242 298 356 425
#     4  12  26  46  73 114 145 192 236 298 368 440
#
# _framework density 21.875582999999999
#
# number of rings (size 3 to 8) (size 9 to 14) (size 15 to 20)
#    0.000    0.333    3.333    5.000    2.333    0.000 
#    0.000    1.667    0.000    0.000    0.000    0.000 
#    0.000    0.000    0.000    0.000    0.000    0.000 
#
# Total GULP energy -134446.020394 kJ/mol
# GULP energy per Si atom -5601.917516 kJ/mol
# Density = 2.182579 g / cm^3
# Si number density = 21.875583 Si / 1000 Ang^3
#
#
#
# Elastic Constant Matrix: (Units=GPa)
#
#
# Indices 1 2 3 4 5 6 
#
# 1 60.1772 28.2162 8.3458 0.0000 0.0000 0.0000
# 2 28.2162 131.3050 29.2826 0.0000 0.0000 0.0000
# 3 8.3458 29.2826 90.3435 0.0000 0.0000 0.0000
# 4 0.0000 0.0000 0.0000 29.8186 0.0000 0.0000
# 5 0.0000 0.0000 0.0000 0.0000 24.8316 0.0000
# 6 0.0000 0.0000 0.0000 0.0000 0.0000 30.7892
#
#
#
# Elastic Compliance Matrix: (Units=1/GPa)
#
#
# Indices 1 2 3 4 5 6 
#
# 1 0.018497 -0.003874 -0.000453 0.000000 0.000000 0.000000
# 2 -0.003874 0.009021 -0.002566 0.000000 0.000000 0.000000
# 3 -0.000453 -0.002566 0.011942 0.000000 0.000000 0.000000
# 4 0.000000 0.000000 0.000000 0.033536 0.000000 0.000000
# 5 0.000000 0.000000 0.000000 0.000000 0.040271 0.000000
# 6 0.000000 0.000000 0.000000 0.000000 0.000000 0.032479
#
#
# Mechanical properties :
#
#
# Convention : Reuss Voigt Hill
#
# Bulk Modulus (GPa) = 38.94974 45.94610 42.44792
# Shear Modulus (GPa) = 29.74607 31.48664 30.61635
#
# Velocity S-wave (km/s) = 3.69153 3.79799 3.74514
# Velocity P-wave (km/s) = 6.00113 6.34681 6.17639
#
# Compressibility (1/GPa) = 0.02567411
#
# Stress axis : x y z
#
# Youngs Moduli (GPa) = 54.06352 110.85838 83.73521
#
# Poissons Ratio (x) = 0.42944 0.03794
# Poissons Ratio (y) = 0.20943 0.21486
# Poissons Ratio (z) = 0.02450 0.28445
#
# Static dielectric constant tensor:
#      x y z
#    x 1.808330 0.000000 0.000000 
#    y 0.000000 1.809690 0.000000 
#    z 0.000000 0.000000 1.783520 
# 
# From -- ./inp_files/12129.got.cif
#   From: 2010.05.17/outbox.cif.g08.bks.cpg/sg41_7_cif.got.tgz:12129.got - 2010.06.03 18:54:24.
