data_PCOD9367528
_publ_section_title
;
Structure prediction by ZEFSAII (Michael W. Deem and Ramdas Pophale) SiO2 
 PCOD9367528
Probable space group: A B A 2
;
_chemical_formula_sum "Si O2"
_cell_formula_units_Z 48
_cell_length_a 7.634853
_cell_length_b 25.582097
_cell_length_c 11.456893
_cell_angle_alpha 90.000000
_cell_angle_beta 90.000000
_cell_angle_gamma 90.000000
_cell_volume 2237.709358
_symmetry_space_group_name_H-M "A B A 2"
_symmetry_group_IT_number 41
_symmetry_cell_setting 'orthorhombic'
loop_
_space_group_symop_operation_xyz
x,y,z
-x,-y,z
1/2-x,y,1/2+z
1/2+x,-y,1/2+z
x,1/2+y,1/2+z
-x,1/2-y,1/2+z
1/2-x,1/2+y,z
1/2+x,1/2-y,z
loop_
_atom_site_type_symbol
_atom_site_label
_atom_site_fract_x
_atom_site_fract_y
_atom_site_fract_z
Si Si1 0.315442 0.030687 0.871920
Si Si2 0.957716 0.801317 0.553148
Si Si3 0.740182 0.621263 0.023848
Si Si4 0.993251 0.862960 0.338103
Si Si5 0.441460 0.181836 0.592753
Si Si6 0.793842 0.507276 0.625256
O O1 0.351117 0.091728 0.849889
O O2 0.500000 0.000000 0.877206
O O3 0.220137 0.010008 0.752788
O O4 0.247249 0.023679 0.004673
O O5 0.944141 0.812224 0.414423
O O6 0.768407 0.819361 0.598194
O O7 0.123930 0.837721 0.584516
O O8 0.999909 0.741710 0.580192
O O9 0.550403 0.646872 0.001393
O O10 0.741645 0.567403 0.093383
O O11 0.833760 0.613705 0.898701
O O12 0.015313 0.844512 0.208768
O O13 0.000000 0.500000 0.639900
#
# Coordination Sequence:
#
# PCOD9367528 Si02
#       6
#     8   8   8   8   8   8
#     4  11  22  45  69  98 147 181 244 303 357 432
#     4  10  24  44  69 103 141 186 241 300 354 443
#     4  10  24  46  69 102 142 183 245 290 364 431
#     4  10  25  44  68 103 141 191 237 308 354 443
#     4  12  22  47  69 100 144 188 240 297 369 428
#     4  11  25  43  73 104 140 195 237 303 369 435
#
# _framework density 21.450507999999999
#
# number of rings (size 3 to 8) (size 9 to 14) (size 15 to 20)
#    1.000    0.333    3.333    2.000    4.667    3.333 
#    6.000    0.000    0.000    0.000    0.000    0.000 
#    0.000    0.000    0.000    0.000    0.000    0.000 
#
# Total GULP energy -133682.256011 kJ/mol
# GULP energy per Si atom -5570.094000 kJ/mol
# Density = 2.140169 g / cm^3
# Si number density = 21.450508 Si / 1000 Ang^3
#
#
#
# Elastic Constant Matrix: (Units=GPa)
#
#
# Indices 1 2 3 4 5 6 
#
# 1 73.9192 3.7201 4.7514 0.0000 0.0000 0.0000
# 2 3.7201 69.1558 -12.3184 0.0000 0.0000 0.0000
# 3 4.7514 -12.3184 65.2363 0.0000 0.0000 0.0000
# 4 0.0000 0.0000 0.0000 20.1217 0.0000 0.0000
# 5 0.0000 0.0000 0.0000 0.0000 28.3528 0.0000
# 6 0.0000 0.0000 0.0000 0.0000 0.0000 32.7704
#
#
#
# Elastic Compliance Matrix: (Units=1/GPa)
#
#
# Indices 1 2 3 4 5 6 
#
# 1 0.013651 -0.000943 -0.001172 0.000000 0.000000 0.000000
# 2 -0.000943 0.015029 0.002906 0.000000 0.000000 0.000000
# 3 -0.001172 0.002906 0.015963 0.000000 0.000000 0.000000
# 4 0.000000 0.000000 0.000000 0.049698 0.000000 0.000000
# 5 0.000000 0.000000 0.000000 0.000000 0.035270 0.000000
# 6 0.000000 0.000000 0.000000 0.000000 0.000000 0.030515
#
#
# Mechanical properties :
#
#
# Convention : Reuss Voigt Hill
#
# Bulk Modulus (GPa) = 21.63343 22.29082 21.96213
# Shear Modulus (GPa) = 28.74359 30.39286 29.56822
#
# Velocity S-wave (km/s) = 3.66457 3.76823 3.71676
# Velocity P-wave (km/s) = 5.29269 5.41730 5.35536
#
# Compressibility (1/GPa) = 0.04622475
#
# Stress axis : x y z
#
# Youngs Moduli (GPa) = 73.25416 66.53998 62.64447
#
# Poissons Ratio (x) = 0.06276 0.07344
# Poissons Ratio (y) = 0.06909 -0.18208
# Poissons Ratio (z) = 0.08588 -0.19340
#
# Static dielectric constant tensor:
#      x y z
#    x 1.862490 0.000000 0.000000 
#    y 0.000000 1.752140 0.000000 
#    z 0.000000 0.000000 1.844580 
# 
# From -- ./inp_files/4541.got.cif
#   From: 2010.05.17/outbox.cif.g08.bks.cpg/sg41_3_cif.got.tgz:4541.got - 2010.06.03 18:54:24.
