data_PCOD9367083
_publ_section_title
;
Structure prediction by ZEFSAII (Michael W. Deem and Ramdas Pophale) SiO2 
 PCOD9367083
Probable space group: A B A 2
;
_chemical_formula_sum "Si O2"
_cell_formula_units_Z 64
_cell_length_a 16.016544
_cell_length_b 15.220279
_cell_length_c 11.753631
_cell_angle_alpha 90.000000
_cell_angle_beta 90.000000
_cell_angle_gamma 90.000000
_cell_volume 2865.256304
_symmetry_space_group_name_H-M "A B A 2"
_symmetry_group_IT_number 41
_symmetry_cell_setting 'orthorhombic'
loop_
_space_group_symop_operation_xyz
x,y,z
-x,-y,z
1/2-x,y,1/2+z
1/2+x,-y,1/2+z
x,1/2+y,1/2+z
-x,1/2-y,1/2+z
1/2-x,1/2+y,z
1/2+x,1/2-y,z
loop_
_atom_site_type_symbol
_atom_site_label
_atom_site_fract_x
_atom_site_fract_y
_atom_site_fract_z
Si Si1 0.860466 0.431287 0.792020
Si Si2 0.390759 0.878515 0.750455
Si Si3 0.805391 0.148108 0.798740
Si Si4 0.341058 0.204287 0.612818
Si Si5 0.402352 0.820769 0.508470
Si Si6 0.845213 0.358059 0.040457
Si Si7 0.433278 0.706655 0.880653
Si Si8 0.161247 0.546004 0.255602
O O1 0.905088 0.524875 0.800037
O O2 0.886348 0.374381 0.682344
O O3 0.760734 0.443771 0.773534
O O4 0.863663 0.380945 0.910826
O O5 0.292813 0.860127 0.774287
O O6 0.402298 0.885444 0.614364
O O7 0.437304 0.795538 0.806224
O O8 0.834834 0.218509 0.705591
O O9 0.852423 0.054711 0.788500
O O10 0.820504 0.176263 0.929052
O O11 0.249491 0.171237 0.571675
O O12 0.388213 0.230337 0.499121
O O13 0.402470 0.725318 0.567223
O O14 0.476901 0.827330 0.419840
O O15 0.861373 0.438635 0.124213
O O16 0.383340 0.625652 0.822781
#
# Coordination Sequence:
#
# PCOD9367083 Si02
#       8
#     8   8   8   8   8   8   8   8
#     4  10  22  40  71 102 130 174 236 285 342 397
#     4  11  25  45  69 104 136 180 240 291 340 425
#     4  11  24  41  73 102 129 180 240 286 348 410
#     4  11  22  40  68  97 135 178 224 287 342 407
#     4  12  26  43  69  95 142 188 230 281 361 425
#     4  11  20  43  67  96 131 176 231 289 329 406
#     4  12  26  44  64  98 146 183 220 287 360 420
#     4  10  23  40  67 102 137 174 222 289 348 408
#
# _framework density 22.336569999999998
#
# number of rings (size 3 to 8) (size 9 to 14) (size 15 to 20)
#    0.000    1.000    5.000    1.500    5.250    2.500 
#    0.000    1.875    0.000    0.000    0.000    0.000 
#    0.000    0.000    0.000    0.000    0.000    0.000 
#
# Total GULP energy -178793.157622 kJ/mol
# GULP energy per Si atom -5587.286176 kJ/mol
# Density = 2.228573 g / cm^3
# Si number density = 22.336570 Si / 1000 Ang^3
#
#
#
# Elastic Constant Matrix: (Units=GPa)
#
#
# Indices 1 2 3 4 5 6 
#
# 1 58.7305 3.1713 5.3739 0.0000 0.0000 0.0000
# 2 3.1713 87.3008 12.8465 0.0000 0.0000 0.0000
# 3 5.3739 12.8465 104.6619 0.0000 0.0000 0.0000
# 4 0.0000 0.0000 0.0000 34.0686 0.0000 0.0000
# 5 0.0000 0.0000 0.0000 0.0000 9.5561 0.0000
# 6 0.0000 0.0000 0.0000 0.0000 0.0000 -2.0651
#
#
#
# Elastic Compliance Matrix: (Units=1/GPa)
#
#
# Indices 1 2 3 4 5 6 
#
# 1 0.017129 -0.000502 -0.000818 0.000000 0.000000 0.000000
# 2 -0.000502 0.011680 -0.001408 0.000000 0.000000 0.000000
# 3 -0.000818 -0.001408 0.009769 0.000000 0.000000 0.000000
# 4 0.000000 0.000000 0.000000 0.029353 0.000000 0.000000
# 5 0.000000 0.000000 0.000000 0.000000 0.104645 0.000000
# 6 0.000000 0.000000 0.000000 0.000000 0.000000 -0.484242
#
#
# Mechanical properties :
#
#
# Convention : Reuss Voigt Hill
#
# Bulk Modulus (GPa) = 30.19047 32.60851 31.39949
# Shear Modulus (GPa) = -16.93941 23.59868 3.32964
#
# Velocity S-wave (km/s) = -2.75684 3.25392 1.22225
# Velocity P-wave (km/s) = 1.84714 5.36169 4.00997
#
# Compressibility (1/GPa) = 0.03312304
#
# Stress axis : x y z
#
# Youngs Moduli (GPa) = 58.38097 85.61604 102.36070
#
# Poissons Ratio (x) = 0.04297 0.08372
# Poissons Ratio (y) = 0.02930 0.14411
# Poissons Ratio (z) = 0.04775 0.12054
#
# Static dielectric constant tensor:
#      x y z
#    x 1.893400 0.000000 0.000000 
#    y 0.000000 1.828080 0.000000 
#    z 0.000000 0.000000 1.793210 
# 
# From -- ./inp_files/6045.got.cif
#   From: 2010.05.17/outbox.cif.g08.bks.cpg/sg41_4_cif.got.tgz:6045.got - 2010.06.03 18:54:24.
