data_PCOD9367722
_publ_section_title
;
Structure prediction by ZEFSAII (Michael W. Deem and Ramdas Pophale) SiO2 
 PCOD9367722
Probable space group: A B A 2
;
_chemical_formula_sum "Si O2"
_cell_formula_units_Z 48
_cell_length_a 9.175401
_cell_length_b 27.039829
_cell_length_c 8.816265
_cell_angle_alpha 90.000000
_cell_angle_beta 90.000000
_cell_angle_gamma 90.000000
_cell_volume 2187.326579
_symmetry_space_group_name_H-M "A B A 2"
_symmetry_group_IT_number 41
_symmetry_cell_setting 'orthorhombic'
loop_
_space_group_symop_operation_xyz
x,y,z
-x,-y,z
1/2-x,y,1/2+z
1/2+x,-y,1/2+z
x,1/2+y,1/2+z
-x,1/2-y,1/2+z
1/2-x,1/2+y,z
1/2+x,1/2-y,z
loop_
_atom_site_type_symbol
_atom_site_label
_atom_site_fract_x
_atom_site_fract_y
_atom_site_fract_z
Si Si1 0.454070 0.867704 0.570750
Si Si2 0.657740 0.003925 0.179163
Si Si3 0.175586 0.880153 0.749869
Si Si4 0.538199 0.799938 0.132177
Si Si5 0.344036 0.718884 0.977969
Si Si6 0.879080 0.461654 0.456231
O O1 0.338489 0.865013 0.704235
O O2 0.353516 0.865274 0.421748
O O3 0.567487 0.823934 0.564175
O O4 0.548439 0.917252 0.543887
O O5 0.673076 0.060538 0.234176
O O6 0.500000 0.000000 0.103066
O O7 0.691348 0.956407 0.291195
O O8 0.777504 0.995424 0.054122
O O9 0.041884 0.853138 0.660065
O O10 0.405948 0.767457 0.062127
O O11 0.605278 0.783961 0.299378
O O12 0.673754 0.792190 0.014880
O O13 0.000000 0.500000 0.397859
#
# Coordination Sequence:
#
# PCOD9367722 Si02
#       6
#     8   8   8   8   8   8
#     4  11  24  42  65  93 130 171 215 267 319 386
#     4  11  22  40  63  89 132 165 214 264 315 377
#     4  11  22  42  64  93 126 171 210 266 320 380
#     4  11  25  44  69  97 132 169 217 267 329 386
#     4  11  25  44  69  97 133 169 215 271 324 389
#     4  11  22  41  62  91 129 166 217 257 319 375
#
# _framework density 21.944596000000001
#
# number of rings (size 3 to 8) (size 9 to 14) (size 15 to 20)
#    0.000    1.000    5.000    2.000    2.333    6.000 
#    3.000    0.000    0.000    0.000    0.000    0.000 
#    0.000    0.000    0.000    0.000    0.000    0.000 
#
# Total GULP energy -133658.269341 kJ/mol
# GULP energy per Si atom -5569.094556 kJ/mol
# Density = 2.189465 g / cm^3
# Si number density = 21.944596 Si / 1000 Ang^3
#
#
#
# Elastic Constant Matrix: (Units=GPa)
#
#
# Indices 1 2 3 4 5 6 
#
# 1 49.9263 34.5047 13.1909 0.0000 0.0000 0.0000
# 2 34.5047 66.9786 11.8545 0.0000 0.0000 0.0000
# 3 13.1909 11.8545 31.9759 0.0000 0.0000 0.0000
# 4 0.0000 0.0000 0.0000 23.1596 0.0000 0.0000
# 5 0.0000 0.0000 0.0000 0.0000 34.8801 0.0000
# 6 0.0000 0.0000 0.0000 0.0000 0.0000 30.3110
#
#
#
# Elastic Compliance Matrix: (Units=1/GPa)
#
#
# Indices 1 2 3 4 5 6 
#
# 1 0.032818 -0.015529 -0.007781 0.000000 0.000000 0.000000
# 2 -0.015529 0.023327 -0.002242 0.000000 0.000000 0.000000
# 3 -0.007781 -0.002242 0.035315 0.000000 0.000000 0.000000
# 4 0.000000 0.000000 0.000000 0.043179 0.000000 0.000000
# 5 0.000000 0.000000 0.000000 0.000000 0.028670 0.000000
# 6 0.000000 0.000000 0.000000 0.000000 0.000000 0.032991
#
#
# Mechanical properties :
#
#
# Convention : Reuss Voigt Hill
#
# Bulk Modulus (GPa) = 24.78001 29.77566 27.27783
# Shear Modulus (GPa) = 19.16774 23.62551 21.39662
#
# Velocity S-wave (km/s) = 2.95864 3.28471 3.12593
# Velocity P-wave (km/s) = 4.79458 5.28997 5.04836
#
# Compressibility (1/GPa) = 0.04035510
#
# Stress axis : x y z
#
# Youngs Moduli (GPa) = 30.47124 42.86880 28.31698
#
# Poissons Ratio (x) = 0.66572 0.22034
# Poissons Ratio (y) = 0.47320 0.06348
# Poissons Ratio (z) = 0.23710 0.09610
#
# Static dielectric constant tensor:
#      x y z
#    x 1.818990 0.000000 0.000000 
#    y 0.000000 1.822130 0.000000 
#    z 0.000000 0.000000 1.846080 
# 
# From -- ./inp_files/1789.got.cif
#   From: 2010.05.17/outbox.cif.g08.bks.cpg/sg41_1_cif.got.tgz:1789.got - 2010.06.03 18:54:24.
