data_PCOD9367006
_publ_section_title
;
Structure prediction by ZEFSAII (Michael W. Deem and Ramdas Pophale) SiO2 
 PCOD9367006
Probable space group: A B A 2
;
_chemical_formula_sum "Si O2"
_cell_formula_units_Z 64
_cell_length_a 8.608864
_cell_length_b 12.127753
_cell_length_c 28.595549
_cell_angle_alpha 90.000000
_cell_angle_beta 90.000000
_cell_angle_gamma 90.000000
_cell_volume 2985.551928
_symmetry_space_group_name_H-M "A B A 2"
_symmetry_group_IT_number 41
_symmetry_cell_setting 'orthorhombic'
loop_
_space_group_symop_operation_xyz
x,y,z
-x,-y,z
1/2-x,y,1/2+z
1/2+x,-y,1/2+z
x,1/2+y,1/2+z
-x,1/2-y,1/2+z
1/2-x,1/2+y,z
1/2+x,1/2-y,z
loop_
_atom_site_type_symbol
_atom_site_label
_atom_site_fract_x
_atom_site_fract_y
_atom_site_fract_z
Si Si1 0.341240 0.805878 0.335440
Si Si2 0.933929 0.623317 0.995490
Si Si3 0.749230 0.882607 0.121648
Si Si4 0.905531 0.804845 0.767025
Si Si5 0.646385 0.059504 0.549463
Si Si6 0.495987 0.262541 0.590012
Si Si7 0.447488 0.872936 0.889511
Si Si8 0.103803 0.605674 0.721448
O O1 0.470870 0.861254 0.302155
O O2 0.209858 0.765329 0.299592
O O3 0.232488 0.867102 0.372796
O O4 0.435471 0.704944 0.359862
O O5 0.954795 0.666726 0.943371
O O6 0.000000 0.500000 0.995434
O O7 0.755678 0.614002 0.011441
O O8 0.011063 0.689170 0.037961
O O9 0.570297 0.846698 0.126800
O O10 0.850627 0.906762 0.166988
O O11 0.820772 0.768366 0.101717
O O12 0.758902 0.974375 0.081707
O O13 0.778022 0.883454 0.742922
O O14 0.003838 0.716691 0.734861
O O15 0.568330 0.141837 0.586083
O O16 0.500000 0.000000 0.525850
O O17 0.500000 0.000000 0.886024
O O18 0.000000 0.500000 0.736239
#
# Coordination Sequence:
#
# PCOD9367006 Si02
#       8
#     8   8   8   8   8   8   8   8
#     4   9  20  43  67  95 126 163 215 270 336 407
#     4  11  22  39  60  91 126 167 222 257 310 377
#     4  11  22  37  61  89 128 168 222 255 311 373
#     4   9  21  41  67  96 126 162 216 273 333 406
#     4  10  22  39  57  86 122 169 218 260 308 374
#     4  11  21  36  59  85 121 181 200 264 314 354
#     4  10  23  41  66  97 134 170 212 276 324 399
#     4  11  22  41  66  97 133 172 215 277 325 393
#
# _framework density 21.436572000000002
#
# number of rings (size 3 to 8) (size 9 to 14) (size 15 to 20)
#    0.000    1.750    2.500    1.875    1.750    4.500 
#    2.250    8.750    2.750    0.000    0.000    0.000 
#    0.000    0.000    0.000    0.000    0.000    0.000 
#
# Total GULP energy -178192.941525 kJ/mol
# GULP energy per Si atom -5568.529423 kJ/mol
# Density = 2.138778 g / cm^3
# Si number density = 21.436572 Si / 1000 Ang^3
#
#
#
# Elastic Constant Matrix: (Units=GPa)
#
#
# Indices 1 2 3 4 5 6 
#
# 1 106.9631 28.6893 29.8475 0.0000 0.0000 0.0000
# 2 28.6893 52.3443 15.8821 0.0000 0.0000 0.0000
# 3 29.8475 15.8821 87.3842 0.0000 0.0000 0.0000
# 4 0.0000 0.0000 0.0000 2.4086 0.0000 0.0000
# 5 0.0000 0.0000 0.0000 0.0000 38.7229 0.0000
# 6 0.0000 0.0000 0.0000 0.0000 0.0000 18.8657
#
#
#
# Elastic Compliance Matrix: (Units=1/GPa)
#
#
# Indices 1 2 3 4 5 6 
#
# 1 0.011652 -0.005481 -0.002984 0.000000 0.000000 0.000000
# 2 -0.005481 0.022797 -0.002271 0.000000 0.000000 0.000000
# 3 -0.002984 -0.002271 0.012876 0.000000 0.000000 0.000000
# 4 0.000000 0.000000 0.000000 0.415178 0.000000 0.000000
# 5 0.000000 0.000000 0.000000 0.000000 0.025824 0.000000
# 6 0.000000 0.000000 0.000000 0.000000 0.000000 0.053006
#
#
# Mechanical properties :
#
#
# Convention : Reuss Voigt Hill
#
# Bulk Modulus (GPa) = 38.68025 43.94772 41.31399
# Shear Modulus (GPa) = 8.75009 23.48428 16.11718
#
# Velocity S-wave (km/s) = 2.02255 3.31346 2.74497
# Velocity P-wave (km/s) = 4.85155 5.93165 5.41858
#
# Compressibility (1/GPa) = 0.02585299
#
# Stress axis : x y z
#
# Youngs Moduli (GPa) = 85.82468 43.86459 77.66587
#
# Poissons Ratio (x) = 0.24042 0.23173
# Poissons Ratio (y) = 0.47039 0.17641
# Poissons Ratio (z) = 0.25607 0.09963
#
# Static dielectric constant tensor:
#      x y z
#    x 1.481730 0.000000 0.000000 
#    y 0.000000 1.795470 0.000000 
#    z 0.000000 0.000000 1.798630 
# 
# From -- ./inp_files/12700.got.cif
#   From: 2010.05.17/outbox.cif.g08.bks.cpg/sg41_7_cif.got.tgz:12700.got - 2010.06.03 18:54:24.
