data_PCOD9367177
_publ_section_title
;
Structure prediction by ZEFSAII (Michael W. Deem and Ramdas Pophale) SiO2 
 PCOD9367177
Probable space group: A B A 2
;
_chemical_formula_sum "Si O2"
_cell_formula_units_Z 56
_cell_length_a 23.065093
_cell_length_b 11.046381
_cell_length_c 10.209816
_cell_angle_alpha 90.000000
_cell_angle_beta 90.000000
_cell_angle_gamma 90.000000
_cell_volume 2601.316189
_symmetry_space_group_name_H-M "A B A 2"
_symmetry_group_IT_number 41
_symmetry_cell_setting 'orthorhombic'
loop_
_space_group_symop_operation_xyz
x,y,z
-x,-y,z
1/2-x,y,1/2+z
1/2+x,-y,1/2+z
x,1/2+y,1/2+z
-x,1/2-y,1/2+z
1/2-x,1/2+y,z
1/2+x,1/2-y,z
loop_
_atom_site_type_symbol
_atom_site_label
_atom_site_fract_x
_atom_site_fract_y
_atom_site_fract_z
Si Si1 0.500000 0.500000 0.416320
Si Si2 0.182892 0.267756 0.389067
Si Si3 0.232875 0.583337 0.450591
Si Si4 0.294365 0.454423 0.684041
Si Si5 0.409680 0.621738 0.247634
Si Si6 0.500000 0.500000 0.851559
Si Si7 0.574973 0.120395 0.137791
Si Si8 0.114863 0.994715 0.012042
O O1 0.467337 0.597262 0.327772
O O2 0.546254 0.569089 0.507431
O O3 0.232727 0.206470 0.472582
O O4 0.211925 0.327050 0.260322
O O5 0.141067 0.159426 0.345664
O O6 0.142879 0.369948 0.457453
O O7 0.262530 0.485220 0.548489
O O8 0.230419 0.544476 0.297256
O O9 0.165844 0.589926 0.486464
O O10 0.364711 0.452706 0.664106
O O11 0.414398 0.736566 0.150085
O O12 0.395983 0.501127 0.166142
O O13 0.528140 0.596759 0.753081
O O14 0.444951 0.528899 0.941940
#
# Coordination Sequence:
#
# PCOD9367177 Si02
#       8
#     4   8   8   8   8   4   8   8
#     4  11  25  40  66 104 135 181 244 292 336 445
#     4  10  23  45  67 100 144 183 232 300 355 421
#     4  11  22  41  71 100 139 185 236 291 361 419
#     4  10  22  43  66 105 137 184 236 293 354 432
#     4  11  23  42  63 100 133 180 231 292 350 413
#     4  11  19  46  70  94 139 183 234 274 356 429
#     4  10  23  43  69  93 143 186 227 291 360 418
#     4  11  24  41  72 102 138 188 233 294 350 437
#
# _framework density 21.527563000000001
#
# number of rings (size 3 to 8) (size 9 to 14) (size 15 to 20)
#    0.000    1.429    4.286    2.143    2.000    8.000 
#    0.000    2.857    3.143    0.000    0.000    0.000 
#    0.000    0.000    0.000    0.000    0.000    0.000 
#
# Total GULP energy -156114.336314 kJ/mol
# GULP energy per Si atom -5575.512011 kJ/mol
# Density = 2.147857 g / cm^3
# Si number density = 21.527563 Si / 1000 Ang^3
#
#
#
# Elastic Constant Matrix: (Units=GPa)
#
#
# Indices 1 2 3 4 5 6 
#
# 1 157.4123 58.0002 51.7140 0.0000 0.0000 0.0000
# 2 58.0002 64.0310 45.3477 0.0000 0.0000 0.0000
# 3 51.7140 45.3477 96.8978 0.0000 0.0000 0.0000
# 4 0.0000 0.0000 0.0000 3.7855 0.0000 0.0000
# 5 0.0000 0.0000 0.0000 0.0000 35.9396 0.0000
# 6 0.0000 0.0000 0.0000 0.0000 0.0000 26.5802
#
#
#
# Elastic Compliance Matrix: (Units=1/GPa)
#
#
# Indices 1 2 3 4 5 6 
#
# 1 0.009697 -0.007656 -0.001592 0.000000 0.000000 0.000000
# 2 -0.007656 0.029404 -0.009675 0.000000 0.000000 0.000000
# 3 -0.001592 -0.009675 0.015698 0.000000 0.000000 0.000000
# 4 0.000000 0.000000 0.000000 0.264164 0.000000 0.000000
# 5 0.000000 0.000000 0.000000 0.000000 0.027824 0.000000
# 6 0.000000 0.000000 0.000000 0.000000 0.000000 0.037622
#
#
# Mechanical properties :
#
#
# Convention : Reuss Voigt Hill
#
# Bulk Modulus (GPa) = 58.98860 69.82944 64.40902
# Shear Modulus (GPa) = 11.68479 24.14635 17.91557
#
# Velocity S-wave (km/s) = 2.33230 3.35274 2.88794
# Velocity P-wave (km/s) = 5.89184 6.89169 6.41128
#
# Compressibility (1/GPa) = 0.01695243
#
# Stress axis : x y z
#
# Youngs Moduli (GPa) = 103.12827 34.00875 63.70298
#
# Poissons Ratio (x) = 0.26036 0.10143
# Poissons Ratio (y) = 0.78952 0.61634
# Poissons Ratio (z) = 0.16420 0.32904
#
# Static dielectric constant tensor:
#      x y z
#    x 1.811650 0.000000 0.000000 
#    y 0.000000 1.896830 0.000000 
#    z 0.000000 0.000000 1.829440 
# 
# From -- ./inp_files/6243.got.cif
#   From: 2010.05.17/outbox.cif.g08.bks.cpg/sg41_4_cif.got.tgz:6243.got - 2010.06.03 18:54:24.
