data_PCOD9367504
_publ_section_title
;
Structure prediction by ZEFSAII (Michael W. Deem and Ramdas Pophale) SiO2 
 PCOD9367504
Probable space group: A B A 2
;
_chemical_formula_sum "Si O2"
_cell_formula_units_Z 64
_cell_length_a 8.893586
_cell_length_b 29.251440
_cell_length_c 10.377232
_cell_angle_alpha 90.000000
_cell_angle_beta 90.000000
_cell_angle_gamma 90.000000
_cell_volume 2699.638952
_symmetry_space_group_name_H-M "A B A 2"
_symmetry_group_IT_number 41
_symmetry_cell_setting 'orthorhombic'
loop_
_space_group_symop_operation_xyz
x,y,z
-x,-y,z
1/2-x,y,1/2+z
1/2+x,-y,1/2+z
x,1/2+y,1/2+z
-x,1/2-y,1/2+z
1/2-x,1/2+y,z
1/2+x,1/2-y,z
loop_
_atom_site_type_symbol
_atom_site_label
_atom_site_fract_x
_atom_site_fract_y
_atom_site_fract_z
Si Si1 0.333391 0.913155 0.019810
Si Si2 0.686168 0.687184 0.643104
Si Si3 0.305450 0.673831 0.916639
Si Si4 0.594123 0.126672 0.352833
Si Si5 0.448983 0.451416 0.124841
Si Si6 0.424769 0.046373 0.332325
Si Si7 0.640254 0.274768 0.645133
Si Si8 0.609775 0.414802 0.352568
O O1 0.320142 0.860897 0.069658
O O2 0.229731 0.945882 0.106656
O O3 0.224237 0.907135 0.896425
O O4 0.495556 0.926825 0.968188
O O5 0.673077 0.669570 0.788752
O O6 0.532504 0.714108 0.614809
O O7 0.822967 0.721436 0.631173
O O8 0.466385 0.649387 0.942044
O O9 0.325098 0.705755 0.789191
O O10 0.188348 0.633393 0.882695
O O11 0.242544 0.699686 0.040047
O O12 0.490853 0.092396 0.265485
O O13 0.500000 0.500000 0.179587
O O14 0.514733 0.413882 0.221020
O O15 0.527085 0.449097 0.983727
O O16 0.246134 0.049710 0.332088
O O17 0.500000 0.000000 0.284277
#
# Coordination Sequence:
#
# PCOD9367504 Si02
#       8
#     8   8   8   8   8   8   8   8
#     4  11  23  42  68  96 140 184 239 289 367 434
#     4  11  25  41  64  99 137 180 241 289 363 422
#     4  10  24  44  69  99 138 188 242 296 368 430
#     4   9  22  41  62  94 136 181 228 290 361 423
#     4  10  24  43  65 102 138 182 240 299 367 444
#     4   9  21  43  70 100 142 183 238 302 365 441
#     4  11  26  43  66 100 142 181 244 301 357 440
#     4  11  23  41  74  98 141 193 238 297 374 442
#
# _framework density 23.706875
#
# number of rings (size 3 to 8) (size 9 to 14) (size 15 to 20)
#    0.000    1.750    1.250    0.750    8.750    7.000 
#    0.000    0.000    0.000    0.750    0.000    0.000 
#    0.000    0.000    0.000    0.000    0.000    0.000 
#
# Total GULP energy -178649.670613 kJ/mol
# GULP energy per Si atom -5582.802207 kJ/mol
# Density = 2.365292 g / cm^3
# Si number density = 23.706875 Si / 1000 Ang^3
#
#
#
# Elastic Constant Matrix: (Units=GPa)
#
#
# Indices 1 2 3 4 5 6 
#
# 1 108.3510 41.4375 2.6412 0.0000 0.0000 0.0000
# 2 41.4375 105.0455 4.6392 0.0000 0.0000 0.0000
# 3 2.6412 4.6392 47.3071 0.0000 0.0000 0.0000
# 4 0.0000 0.0000 0.0000 18.1262 0.0000 0.0000
# 5 0.0000 0.0000 0.0000 0.0000 16.9788 0.0000
# 6 0.0000 0.0000 0.0000 0.0000 0.0000 33.1414
#
#
#
# Elastic Compliance Matrix: (Units=1/GPa)
#
#
# Indices 1 2 3 4 5 6 
#
# 1 0.010871 -0.004280 -0.000187 0.000000 0.000000 0.000000
# 2 -0.004280 0.011246 -0.000864 0.000000 0.000000 0.000000
# 3 -0.000187 -0.000864 0.021234 0.000000 0.000000 0.000000
# 4 0.000000 0.000000 0.000000 0.055169 0.000000 0.000000
# 5 0.000000 0.000000 0.000000 0.000000 0.058897 0.000000
# 6 0.000000 0.000000 0.000000 0.000000 0.000000 0.030174
#
#
# Mechanical properties :
#
#
# Convention : Reuss Voigt Hill
#
# Bulk Modulus (GPa) = 30.59186 39.79325 35.19256
# Shear Modulus (GPa) = 23.90652 27.78167 25.84409
#
# Velocity S-wave (km/s) = 3.17901 3.42699 3.30533
# Velocity P-wave (km/s) = 5.13878 5.69921 5.42623
#
# Compressibility (1/GPa) = 0.03268843
#
# Stress axis : x y z
#
# Youngs Moduli (GPa) = 91.99115 88.91951 47.09503
#
# Poissons Ratio (x) = 0.38056 0.00882
# Poissons Ratio (y) = 0.39371 0.04069
# Poissons Ratio (z) = 0.01722 0.07682
#
# Static dielectric constant tensor:
#      x y z
#    x 1.903880 0.000000 0.000000 
#    y 0.000000 1.933640 0.000000 
#    z 0.000000 0.000000 2.131820 
# 
# From -- ./inp_files/4632.got.cif
#   From: 2010.05.17/outbox.cif.g08.bks.cpg/sg41_3_cif.got.tgz:4632.got - 2010.06.03 18:54:24.
