data_PCOD9367653
_publ_section_title
;
Structure prediction by ZEFSAII (Michael W. Deem and Ramdas Pophale) SiO2 
 PCOD9367653
Probable space group: A B A 2
;
_chemical_formula_sum "Si O2"
_cell_formula_units_Z 52
_cell_length_a 15.117728
_cell_length_b 18.190151
_cell_length_c 8.217155
_cell_angle_alpha 90.000000
_cell_angle_beta 90.000000
_cell_angle_gamma 90.000000
_cell_volume 2259.666310
_symmetry_space_group_name_H-M "A B A 2"
_symmetry_group_IT_number 41
_symmetry_cell_setting 'orthorhombic'
loop_
_space_group_symop_operation_xyz
x,y,z
-x,-y,z
1/2-x,y,1/2+z
1/2+x,-y,1/2+z
x,1/2+y,1/2+z
-x,1/2-y,1/2+z
1/2-x,1/2+y,z
1/2+x,1/2-y,z
loop_
_atom_site_type_symbol
_atom_site_label
_atom_site_fract_x
_atom_site_fract_y
_atom_site_fract_z
Si Si1 0.000000 0.000000 0.580461
Si Si2 0.181281 0.738090 0.074769
Si Si3 0.245505 0.892755 0.107266
Si Si4 0.336650 0.149507 0.750003
Si Si5 0.060568 0.354908 0.222475
Si Si6 0.330634 0.486957 0.354181
Si Si7 0.500259 0.285479 0.067408
O O1 0.001158 0.926244 0.687178
O O2 0.082820 0.996048 0.461166
O O3 0.226670 0.814727 0.025623
O O4 0.253713 0.692409 0.172601
O O5 0.091349 0.765068 0.161268
O O6 0.151400 0.687886 0.924795
O O7 0.337902 0.881551 0.204752
O O8 0.168010 0.921115 0.224442
O O9 0.258015 0.958554 0.980795
O O10 0.427288 0.161359 0.649526
O O11 0.312712 0.064683 0.771829
O O12 0.048048 0.293929 0.080797
O O13 0.032863 0.318314 0.394672
#
# Coordination Sequence:
#
# PCOD9367653 Si02
#       7
#     4   8   8   8   8   8   8
#     4  10  26  46  76 104 150 190 246 304 374 430
#     4  12  25  46  75 105 143 193 247 296 369 432
#     4  11  24  49  76 104 147 193 242 298 369 441
#     4  12  27  46  71 112 143 194 243 306 362 434
#     4  11  25  50  74 107 147 197 240 308 367 438
#     4  11  25  47  70 108 146 189 242 300 365 431
#     4  12  25  46  74 108 146 188 251 295 373 434
#
# _framework density 23.012249000000001
#
# number of rings (size 3 to 8) (size 9 to 14) (size 15 to 20)
#    0.000    0.615    3.077    3.692    4.308    2.462 
#    8.308    0.000    0.000    0.000    0.000    0.000 
#    0.000    0.000    0.000    0.000    0.000    0.000 
#
# Total GULP energy -145266.670452 kJ/mol
# GULP energy per Si atom -5587.179633 kJ/mol
# Density = 2.295987 g / cm^3
# Si number density = 23.012249 Si / 1000 Ang^3
#
#
#
# Elastic Constant Matrix: (Units=GPa)
#
#
# Indices 1 2 3 4 5 6 
#
# 1 102.3554 23.5097 17.5505 0.0000 0.0000 0.0000
# 2 23.5097 168.8227 42.5904 0.0000 0.0000 0.0000
# 3 17.5505 42.5904 52.6054 0.0000 0.0000 0.0000
# 4 0.0000 0.0000 0.0000 29.6158 0.0000 0.0000
# 5 0.0000 0.0000 0.0000 0.0000 25.6608 0.0000
# 6 0.0000 0.0000 0.0000 0.0000 0.0000 19.8836
#
#
#
# Elastic Compliance Matrix: (Units=1/GPa)
#
#
# Indices 1 2 3 4 5 6 
#
# 1 0.010432 -0.000722 -0.002896 0.000000 0.000000 0.000000
# 2 -0.000722 0.007494 -0.005826 0.000000 0.000000 0.000000
# 3 -0.002896 -0.005826 0.024693 0.000000 0.000000 0.000000
# 4 0.000000 0.000000 0.000000 0.033766 0.000000 0.000000
# 5 0.000000 0.000000 0.000000 0.000000 0.038970 0.000000
# 6 0.000000 0.000000 0.000000 0.000000 0.000000 0.050293
#
#
# Mechanical properties :
#
#
# Convention : Reuss Voigt Hill
#
# Bulk Modulus (GPa) = 42.14017 54.56497 48.35257
# Shear Modulus (GPa) = 25.98142 31.04092 28.51117
#
# Velocity S-wave (km/s) = 3.36374 3.67670 3.52370
# Velocity P-wave (km/s) = 5.78257 6.46428 6.13291
#
# Compressibility (1/GPa) = 0.02373033
#
# Stress axis : x y z
#
# Youngs Moduli (GPa) = 95.85629 133.44424 40.49805
#
# Poissons Ratio (x) = 0.09638 0.11727
# Poissons Ratio (y) = 0.06923 0.23595
# Poissons Ratio (z) = 0.27758 0.77747
#
# Static dielectric constant tensor:
#      x y z
#    x 1.911250 0.000000 0.000000 
#    y 0.000000 1.847220 0.000000 
#    z 0.000000 0.000000 1.933150 
# 
# From -- ./inp_files/2621.got.cif
#   From: 2010.05.17/outbox.cif.g08.bks.cpg/sg41_2_cif.got.tgz:2621.got - 2010.06.03 18:54:24.
