data_PCOD9367454
_publ_section_title
;
Structure prediction by ZEFSAII (Michael W. Deem and Ramdas Pophale) SiO2 
 PCOD9367454
Probable space group: A B A 2
;
_chemical_formula_sum "Si O2"
_cell_formula_units_Z 60
_cell_length_a 11.220285
_cell_length_b 25.760624
_cell_length_c 8.820629
_cell_angle_alpha 90.000000
_cell_angle_beta 90.000000
_cell_angle_gamma 90.000000
_cell_volume 2549.528217
_symmetry_space_group_name_H-M "A B A 2"
_symmetry_group_IT_number 41
_symmetry_cell_setting 'orthorhombic'
loop_
_space_group_symop_operation_xyz
x,y,z
-x,-y,z
1/2-x,y,1/2+z
1/2+x,-y,1/2+z
x,1/2+y,1/2+z
-x,1/2-y,1/2+z
1/2-x,1/2+y,z
1/2+x,1/2-y,z
loop_
_atom_site_type_symbol
_atom_site_label
_atom_site_fract_x
_atom_site_fract_y
_atom_site_fract_z
Si Si1 0.866133 0.179754 0.193540
Si Si2 0.713094 0.023113 0.343637
Si Si3 0.962943 0.847349 0.465941
Si Si4 0.500000 0.000000 0.564233
Si Si5 0.271960 0.753315 0.430449
Si Si6 0.684801 0.097696 0.083542
Si Si7 0.229735 0.180540 0.148463
Si Si8 0.631241 0.425700 0.250032
O O1 0.981889 0.174253 0.302837
O O2 0.773748 0.203389 0.315628
O O3 0.806129 0.127548 0.129077
O O4 0.863906 0.217873 0.045947
O O5 0.652734 0.057229 0.213925
O O6 0.797168 0.063092 0.434257
O O7 0.615426 0.003889 0.461358
O O8 0.780495 0.973748 0.275065
O O9 0.081796 0.860414 0.559231
O O10 0.866221 0.821910 0.581906
O O11 0.902628 0.900768 0.410262
O O12 0.517258 0.950004 0.668698
O O13 0.175350 0.725424 0.540767
O O14 0.287653 0.704669 0.314379
O O15 0.183374 0.122000 0.151720
#
# Coordination Sequence:
#
# PCOD9367454 Si02
#       8
#     8   8   8   4   8   8   8   8
#     4  11  22  48  73 110 148 190 252 322 373 462
#     4  12  26  44  71 102 150 193 253 315 376 454
#     4  12  25  44  80 104 148 206 244 312 397 454
#     4  12  26  42  72 102 138 210 244 304 396 448
#     4  10  23  48  75 101 155 191 245 322 376 449
#     4  12  24  46  71 109 144 193 254 316 373 452
#     4  11  25  48  71 111 150 198 247 317 384 457
#     4  12  26  49  68 108 158 189 254 323 372 462
#
# _framework density 23.533764999999999
#
# number of rings (size 3 to 8) (size 9 to 14) (size 15 to 20)
#    0.000    0.533    5.333    2.400    1.867    0.000 
#    9.600    0.000    0.000    0.000    0.000    0.000 
#    0.000    0.000    0.000    0.000    0.000    0.000 
#
# Total GULP energy -167246.901676 kJ/mol
# GULP energy per Si atom -5574.896723 kJ/mol
# Density = 2.348020 g / cm^3
# Si number density = 23.533765 Si / 1000 Ang^3
#
#
#
# Elastic Constant Matrix: (Units=GPa)
#
#
# Indices 1 2 3 4 5 6 
#
# 1 97.3372 30.5976 31.6393 0.0000 0.0000 0.0000
# 2 30.5976 123.7962 29.1972 0.0000 0.0000 0.0000
# 3 31.6393 29.1972 114.2616 0.0000 0.0000 0.0000
# 4 0.0000 0.0000 0.0000 59.0376 0.0000 0.0000
# 5 0.0000 0.0000 0.0000 0.0000 30.8785 0.0000
# 6 0.0000 0.0000 0.0000 0.0000 0.0000 16.0702
#
#
#
# Elastic Compliance Matrix: (Units=1/GPa)
#
#
# Indices 1 2 3 4 5 6 
#
# 1 0.011874 -0.002298 -0.002701 0.000000 0.000000 0.000000
# 2 -0.002298 0.009040 -0.001674 0.000000 0.000000 0.000000
# 3 -0.002701 -0.001674 0.009927 0.000000 0.000000 0.000000
# 4 0.000000 0.000000 0.000000 0.016938 0.000000 0.000000
# 5 0.000000 0.000000 0.000000 0.000000 0.032385 0.000000
# 6 0.000000 0.000000 0.000000 0.000000 0.000000 0.062227
#
#
# Mechanical properties :
#
#
# Convention : Reuss Voigt Hill
#
# Bulk Modulus (GPa) = 57.15285 57.58481 57.36883
# Shear Modulus (GPa) = 30.94658 37.46134 34.20396
#
# Velocity S-wave (km/s) = 3.63021 3.99408 3.81648
# Velocity P-wave (km/s) = 6.47375 6.76701 6.62200
#
# Compressibility (1/GPa) = 0.01749694
#
# Stress axis : x y z
#
# Youngs Moduli (GPa) = 84.21957 110.61355 100.73124
#
# Poissons Ratio (x) = 0.25416 0.27205
# Poissons Ratio (y) = 0.19352 0.16861
# Poissons Ratio (z) = 0.22745 0.18515
#
# Static dielectric constant tensor:
#      x y z
#    x 1.948910 0.000000 0.000000 
#    y 0.000000 2.017840 0.000000 
#    z 0.000000 0.000000 1.903520 
# 
# From -- ./inp_files/2185.got.cif
#   From: 2010.05.17/outbox.cif.g08.bks.cpg/sg41_2_cif.got.tgz:2185.got - 2010.06.03 18:54:24.
