data_PCOD9367091
_publ_section_title
;
Structure prediction by ZEFSAII (Michael W. Deem and Ramdas Pophale) SiO2 
 PCOD9367091
Probable space group: A B A 2
;
_chemical_formula_sum "Si O2"
_cell_formula_units_Z 60
_cell_length_a 19.371391
_cell_length_b 10.176911
_cell_length_c 14.097289
_cell_angle_alpha 90.000000
_cell_angle_beta 90.000000
_cell_angle_gamma 90.000000
_cell_volume 2779.152553
_symmetry_space_group_name_H-M "A B A 2"
_symmetry_group_IT_number 41
_symmetry_cell_setting 'orthorhombic'
loop_
_space_group_symop_operation_xyz
x,y,z
-x,-y,z
1/2-x,y,1/2+z
1/2+x,-y,1/2+z
x,1/2+y,1/2+z
-x,1/2-y,1/2+z
1/2-x,1/2+y,z
1/2+x,1/2-y,z
loop_
_atom_site_type_symbol
_atom_site_label
_atom_site_fract_x
_atom_site_fract_y
_atom_site_fract_z
Si Si1 0.000000 0.500000 0.151330
Si Si2 0.627530 0.151262 0.198008
Si Si3 0.459807 0.680900 0.478717
Si Si4 0.719136 0.600504 0.199944
Si Si5 0.256829 0.767943 0.878641
Si Si6 0.349924 0.414187 0.995612
Si Si7 0.143539 0.101662 0.335830
Si Si8 0.108763 0.217047 0.992336
O O1 0.061448 0.439717 0.212096
O O2 0.032394 0.607060 0.079059
O O3 0.628916 0.266042 0.275733
O O4 0.616975 0.225392 0.098001
O O5 0.698977 0.069775 0.193130
O O6 0.409804 0.806078 0.487055
O O7 0.422249 0.583903 0.403480
O O8 0.535583 0.733780 0.452907
O O9 0.724400 0.728776 0.267256
O O10 0.688407 0.609683 0.095831
O O11 0.670179 0.505926 0.262143
O O12 0.210092 0.640641 0.899388
O O13 0.206644 0.885082 0.913856
O O14 0.327320 0.773252 0.934094
O O15 0.381231 0.559905 0.992405
#
# Coordination Sequence:
#
# PCOD9367091 Si02
#       8
#     4   8   8   8   8   8   8   8
#     4  10  24  44  66  86 132 178 218 262 344 402
#     4  10  22  41  63  96 128 169 216 274 330 394
#     4  10  25  43  63  93 131 178 219 271 337 400
#     4  11  22  39  69  98 129 171 225 277 325 394
#     4  10  23  39  63  99 126 170 218 269 335 391
#     4  11  22  43  68  94 134 174 222 280 327 410
#     4  10  22  43  60  97 132 160 226 274 319 398
#     4  11  21  43  65  93 130 175 214 269 341 395
#
# _framework density 21.589314000000002
#
# number of rings (size 3 to 8) (size 9 to 14) (size 15 to 20)
#    0.000    1.600    2.667    1.200    3.733    4.267 
#   14.400    0.000    0.000    0.000    0.000    0.000 
#    0.000    0.000    0.000    0.000    0.000    0.000 
#
# Total GULP energy -167485.034143 kJ/mol
# GULP energy per Si atom -5582.834471 kJ/mol
# Density = 2.154018 g / cm^3
# Si number density = 21.589314 Si / 1000 Ang^3
#
#
#
# Elastic Constant Matrix: (Units=GPa)
#
#
# Indices 1 2 3 4 5 6 
#
# 1 150.3357 34.1295 24.1961 0.0000 0.0000 0.0000
# 2 34.1295 66.0658 -2.5747 0.0000 0.0000 0.0000
# 3 24.1961 -2.5747 48.8122 0.0000 0.0000 0.0000
# 4 0.0000 0.0000 0.0000 24.3948 0.0000 0.0000
# 5 0.0000 0.0000 0.0000 0.0000 34.8037 0.0000
# 6 0.0000 0.0000 0.0000 0.0000 0.0000 26.5653
#
#
#
# Elastic Compliance Matrix: (Units=1/GPa)
#
#
# Indices 1 2 3 4 5 6 
#
# 1 0.008380 -0.004500 -0.004391 0.000000 0.000000 0.000000
# 2 -0.004500 0.017584 0.003158 0.000000 0.000000 0.000000
# 3 -0.004391 0.003158 0.022830 0.000000 0.000000 0.000000
# 4 0.000000 0.000000 0.000000 0.040992 0.000000 0.000000
# 5 0.000000 0.000000 0.000000 0.000000 0.028733 0.000000
# 6 0.000000 0.000000 0.000000 0.000000 0.000000 0.037643
#
#
# Mechanical properties :
#
#
# Convention : Reuss Voigt Hill
#
# Bulk Modulus (GPa) = 26.78969 41.85729 34.32349
# Shear Modulus (GPa) = 27.76663 31.11695 29.44179
#
# Velocity S-wave (km/s) = 3.59015 3.80058 3.69686
# Velocity P-wave (km/s) = 5.44255 6.22007 5.84425
#
# Compressibility (1/GPa) = 0.03732779
#
# Stress axis : x y z
#
# Youngs Moduli (GPa) = 119.32811 56.86858 43.80182
#
# Poissons Ratio (x) = 0.25593 0.19235
# Poissons Ratio (y) = 0.53702 -0.13834
# Poissons Ratio (z) = 0.52402 -0.17961
#
# Static dielectric constant tensor:
#      x y z
#    x 1.790840 0.000000 0.000000 
#    y 0.000000 1.823090 0.000000 
#    z 0.000000 0.000000 1.784920 
# 
# From -- ./inp_files/8792.got.cif
#   From: 2010.05.17/outbox.cif.g08.bks.cpg/sg41_5_cif.got.tgz:8792.got - 2010.06.03 18:54:24.
