data_PCOD9367607
_publ_section_title
;
Structure prediction by ZEFSAII (Michael W. Deem and Ramdas Pophale) SiO2 
 PCOD9367607
Probable space group: A B A 2
;
_chemical_formula_sum "Si O2"
_cell_formula_units_Z 48
_cell_length_a 11.382094
_cell_length_b 19.645359
_cell_length_c 9.144646
_cell_angle_alpha 90.000000
_cell_angle_beta 90.000000
_cell_angle_gamma 90.000000
_cell_volume 2044.791521
_symmetry_space_group_name_H-M "A B A 2"
_symmetry_group_IT_number 41
_symmetry_cell_setting 'orthorhombic'
loop_
_space_group_symop_operation_xyz
x,y,z
-x,-y,z
1/2-x,y,1/2+z
1/2+x,-y,1/2+z
x,1/2+y,1/2+z
-x,1/2-y,1/2+z
1/2-x,1/2+y,z
1/2+x,1/2-y,z
loop_
_atom_site_type_symbol
_atom_site_label
_atom_site_fract_x
_atom_site_fract_y
_atom_site_fract_z
Si Si1 0.540289 0.568236 0.847770
Si Si2 0.101054 0.553097 0.849988
Si Si3 0.323595 0.533413 0.026261
Si Si4 0.754970 0.696457 0.544588
Si Si5 0.413522 0.279802 0.782309
Si Si6 0.415046 0.834674 0.796541
O O1 0.500000 0.500000 0.758928
O O2 0.430854 0.578576 0.959620
O O3 0.646791 0.537771 0.944157
O O4 0.665565 0.653316 0.155944
O O5 0.199128 0.559890 0.972912
O O6 0.162350 0.528582 0.699192
O O7 0.030700 0.620955 0.811262
O O8 0.000000 0.500000 0.890321
O O9 0.671446 0.741240 0.649371
O O10 0.844377 0.732965 0.433631
O O11 0.430688 0.861588 0.271661
O O12 0.665939 0.657565 0.437960
O O13 0.536880 0.242186 0.782906
#
# Coordination Sequence:
#
# PCOD9367607 Si02
#       6
#     8   8   8   8   8   8
#     4   8  20  43  66  96 134 185 218 292 345 403
#     4  12  25  44  67 103 137 181 236 280 355 412
#     4   9  23  42  69  96 137 179 227 294 338 412
#     4  10  25  42  67  97 143 183 227 292 356 421
#     4  11  22  43  69  98 138 177 240 278 357 419
#     4  11  26  43  70 101 134 192 234 292 350 418
#
# _framework density 23.474277000000001
#
# number of rings (size 3 to 8) (size 9 to 14) (size 15 to 20)
#    1.000    0.667    1.667    2.000    4.667    5.333 
#    3.000    0.000    0.000    0.000    0.000    0.000 
#    0.000    0.000    0.000    0.000    0.000    0.000 
#
# Total GULP energy -134047.249681 kJ/mol
# GULP energy per Si atom -5585.302070 kJ/mol
# Density = 2.342085 g / cm^3
# Si number density = 23.474277 Si / 1000 Ang^3
#
#
#
# Elastic Constant Matrix: (Units=GPa)
#
#
# Indices 1 2 3 4 5 6 
#
# 1 130.5666 28.0399 56.8221 0.0000 0.0000 0.0000
# 2 28.0399 82.3849 14.3669 0.0000 0.0000 0.0000
# 3 56.8221 14.3669 125.3938 0.0000 0.0000 0.0000
# 4 0.0000 0.0000 0.0000 10.7330 0.0000 0.0000
# 5 0.0000 0.0000 0.0000 0.0000 32.4824 0.0000
# 6 0.0000 0.0000 0.0000 0.0000 0.0000 22.2048
#
#
#
# Elastic Compliance Matrix: (Units=1/GPa)
#
#
# Indices 1 2 3 4 5 6 
#
# 1 0.010093 -0.002691 -0.004265 0.000000 0.000000 0.000000
# 2 -0.002691 0.013103 -0.000282 0.000000 0.000000 0.000000
# 3 -0.004265 -0.000282 0.009940 0.000000 0.000000 0.000000
# 4 0.000000 0.000000 0.000000 0.093171 0.000000 0.000000
# 5 0.000000 0.000000 0.000000 0.000000 0.030786 0.000000
# 6 0.000000 0.000000 0.000000 0.000000 0.000000 0.045035
#
#
# Mechanical properties :
#
#
# Convention : Reuss Voigt Hill
#
# Bulk Modulus (GPa) = 53.59182 59.64480 56.61831
# Shear Modulus (GPa) = 22.43910 29.02513 25.73212
#
# Velocity S-wave (km/s) = 3.09512 3.52016 3.31446
# Velocity P-wave (km/s) = 5.97098 6.47964 6.23050
#
# Compressibility (1/GPa) = 0.01865956
#
# Stress axis : x y z
#
# Youngs Moduli (GPa) = 99.07678 76.31667 100.60373
#
# Poissons Ratio (x) = 0.20540 0.42911
# Poissons Ratio (y) = 0.26666 0.02834
# Poissons Ratio (z) = 0.42260 0.02150
#
# Static dielectric constant tensor:
#      x y z
#    x 1.850590 0.000000 0.000000 
#    y 0.000000 1.969590 0.000000 
#    z 0.000000 0.000000 1.869620 
# 
# From -- ./inp_files/2084.got.cif
#   From: 2010.05.17/outbox.cif.g08.bks.cpg/sg41_2_cif.got.tgz:2084.got - 2010.06.03 18:54:24.
