data_PCOD9367846
_publ_section_title
;
Structure prediction by ZEFSAII (Michael W. Deem and Ramdas Pophale) SiO2 
 PCOD9367846
Probable space group: A B A 2
;
_chemical_formula_sum "Si O2"
_cell_formula_units_Z 48
_cell_length_a 26.773034
_cell_length_b 9.240111
_cell_length_c 10.081906
_cell_angle_alpha 90.000000
_cell_angle_beta 90.000000
_cell_angle_gamma 90.000000
_cell_volume 2494.120441
_symmetry_space_group_name_H-M "A B A 2"
_symmetry_group_IT_number 41
_symmetry_cell_setting 'orthorhombic'
loop_
_space_group_symop_operation_xyz
x,y,z
-x,-y,z
1/2-x,y,1/2+z
1/2+x,-y,1/2+z
x,1/2+y,1/2+z
-x,1/2-y,1/2+z
1/2-x,1/2+y,z
1/2+x,1/2-y,z
loop_
_atom_site_type_symbol
_atom_site_label
_atom_site_fract_x
_atom_site_fract_y
_atom_site_fract_z
Si Si1 0.473584 0.655257 0.752410
Si Si2 0.311126 0.026295 0.899120
Si Si3 0.358505 0.521491 0.110001
Si Si4 0.467212 0.144717 0.551990
Si Si5 0.862960 0.817143 0.637289
Si Si6 0.206992 0.688806 0.395296
O O1 0.500000 0.500000 0.756465
O O2 0.508075 0.754233 0.661179
O O3 0.418169 0.648237 0.690988
O O4 0.468771 0.710480 0.903802
O O5 0.340752 0.035030 0.761256
O O6 0.262805 0.128354 0.886377
O O7 0.294362 0.860520 0.922701
O O8 0.345340 0.079797 0.019434
O O9 0.411308 0.598544 0.087466
O O10 0.362597 0.349024 0.086163
O O11 0.320090 0.598496 0.010884
O O12 0.500000 0.000000 0.548787
O O13 0.823871 0.831738 0.758772
#
# Coordination Sequence:
#
# PCOD9367846 Si02
#       6
#     8   8   8   8   8   8
#     4  11  26  41  66  99 131 173 217 268 320 389
#     4  11  26  41  69  96 127 174 215 271 327 386
#     4  11  24  42  69  96 131 173 213 270 324 384
#     4  11  24  45  66  96 135 172 213 265 325 382
#     4  11  24  44  66  98 133 168 222 267 324 388
#     4  11  24  46  64  97 131 169 222 269 326 388
#
# _framework density 19.245262
#
# number of rings (size 3 to 8) (size 9 to 14) (size 15 to 20)
#    0.000    1.000    3.333    2.000    4.667    6.000 
#    0.000    0.000    0.000    0.000    0.000    0.000 
#    0.000    0.000    0.000    0.000    0.000    0.000 
#
# Total GULP energy -134230.189879 kJ/mol
# GULP energy per Si atom -5592.924578 kJ/mol
# Density = 1.920146 g / cm^3
# Si number density = 19.245262 Si / 1000 Ang^3
#
#
#
# Elastic Constant Matrix: (Units=GPa)
#
#
# Indices 1 2 3 4 5 6 
#
# 1 82.1430 28.3393 31.3068 0.0000 0.0000 0.0000
# 2 28.3393 95.9615 73.5551 0.0000 0.0000 0.0000
# 3 31.3068 73.5551 108.2038 0.0000 0.0000 0.0000
# 4 0.0000 0.0000 0.0000 33.5800 0.0000 0.0000
# 5 0.0000 0.0000 0.0000 0.0000 32.9309 0.0000
# 6 0.0000 0.0000 0.0000 0.0000 0.0000 34.0534
#
#
#
# Elastic Compliance Matrix: (Units=1/GPa)
#
#
# Indices 1 2 3 4 5 6 
#
# 1 0.013889 -0.002133 -0.002569 0.000000 0.000000 0.000000
# 2 -0.002133 0.022086 -0.014396 0.000000 0.000000 0.000000
# 3 -0.002569 -0.014396 0.019771 0.000000 0.000000 0.000000
# 4 0.000000 0.000000 0.000000 0.029780 0.000000 0.000000
# 5 0.000000 0.000000 0.000000 0.000000 0.030367 0.000000
# 6 0.000000 0.000000 0.000000 0.000000 0.000000 0.029366
#
#
# Mechanical properties :
#
#
# Convention : Reuss Voigt Hill
#
# Bulk Modulus (GPa) = 56.97929 61.41230 59.19579
# Shear Modulus (GPa) = 26.41269 30.32000 28.36634
#
# Velocity S-wave (km/s) = 3.70864 3.97350 3.84336
# Velocity P-wave (km/s) = 6.92892 7.28226 7.10778
#
# Compressibility (1/GPa) = 0.01755024
#
# Stress axis : x y z
#
# Youngs Moduli (GPa) = 72.00123 45.27845 50.57807
#
# Poissons Ratio (x) = 0.09657 0.12992
# Poissons Ratio (y) = 0.15356 0.72814
# Poissons Ratio (z) = 0.18495 0.65184
#
# Static dielectric constant tensor:
#      x y z
#    x 1.636310 0.000000 0.000000 
#    y 0.000000 1.648270 0.000000 
#    z 0.000000 0.000000 1.654620 
# 
# From -- ./inp_files/3914.got.cif
#   From: 2010.05.17/outbox.cif.g08.bks.cpg/sg41_2_cif.got.tgz:3914.got - 2010.06.03 18:54:24.
