data_PCOD9367157
_publ_section_title
;
Structure prediction by ZEFSAII (Michael W. Deem and Ramdas Pophale) SiO2 
 PCOD9367157
Probable space group: A B A 2
;
_chemical_formula_sum "Si O2"
_cell_formula_units_Z 52
_cell_length_a 8.667620
_cell_length_b 24.272880
_cell_length_c 10.761733
_cell_angle_alpha 90.000000
_cell_angle_beta 90.000000
_cell_angle_gamma 90.000000
_cell_volume 2264.140560
_symmetry_space_group_name_H-M "A B A 2"
_symmetry_group_IT_number 41
_symmetry_cell_setting 'orthorhombic'
loop_
_space_group_symop_operation_xyz
x,y,z
-x,-y,z
1/2-x,y,1/2+z
1/2+x,-y,1/2+z
x,1/2+y,1/2+z
-x,1/2-y,1/2+z
1/2-x,1/2+y,z
1/2+x,1/2-y,z
loop_
_atom_site_type_symbol
_atom_site_label
_atom_site_fract_x
_atom_site_fract_y
_atom_site_fract_z
Si Si1 0.452097 0.842773 0.417770
Si Si2 0.604745 0.831859 0.162304
Si Si3 0.796550 0.577665 0.601238
Si Si4 0.500000 0.500000 0.274231
Si Si5 0.523684 0.916009 0.977065
Si Si6 0.582587 0.268259 0.134550
Si Si7 0.355264 0.829613 0.802666
O O1 0.560900 0.851657 0.299742
O O2 0.393989 0.899288 0.483192
O O3 0.531821 0.803990 0.517045
O O4 0.297795 0.810815 0.372470
O O5 0.459011 0.795325 0.114081
O O6 0.747101 0.789778 0.161165
O O7 0.633274 0.884515 0.073877
O O8 0.882200 0.531763 0.683659
O O9 0.625122 0.561942 0.555385
O O10 0.794675 0.630581 0.692296
O O11 0.582012 0.458761 0.373354
O O12 0.451398 0.868330 0.892625
O O13 0.472899 0.285980 0.248336
#
# Coordination Sequence:
#
# PCOD9367157 Si02
#       7
#     8   8   8   4   8   8   8
#     4  10  22  43  68  96 139 184 237 289 347 420
#     4  12  26  42  66 103 148 193 240 290 353 427
#     4   9  19  43  73 101 126 185 232 290 369 417
#     4  10  22  46  72 106 134 180 240 300 360 428
#     4  10  22  42  70  99 140 186 234 299 356 419
#     4  11  27  40  65 105 141 194 238 281 352 425
#     4   9  19  42  71  92 136 184 236 284 341 426
#
# _framework density 22.966774000000001
#
# number of rings (size 3 to 8) (size 9 to 14) (size 15 to 20)
#    0.000    1.846    1.538    0.923    8.615    0.000 
#    8.308    0.769    0.000    0.000    0.000    0.000 
#    0.000    0.000    0.000    0.000    0.000    0.000 
#
# Total GULP energy -145292.514211 kJ/mol
# GULP energy per Si atom -5588.173624 kJ/mol
# Density = 2.291450 g / cm^3
# Si number density = 22.966774 Si / 1000 Ang^3
#
#
#
# Elastic Constant Matrix: (Units=GPa)
#
#
# Indices 1 2 3 4 5 6 
#
# 1 82.6973 41.1537 41.7979 0.0000 0.0000 0.0000
# 2 41.1537 80.8473 33.6542 0.0000 0.0000 0.0000
# 3 41.7979 33.6542 97.3977 0.0000 0.0000 0.0000
# 4 0.0000 0.0000 0.0000 41.4590 0.0000 0.0000
# 5 0.0000 0.0000 0.0000 0.0000 26.5052 0.0000
# 6 0.0000 0.0000 0.0000 0.0000 0.0000 27.2146
#
#
#
# Elastic Compliance Matrix: (Units=1/GPa)
#
#
# Indices 1 2 3 4 5 6 
#
# 1 0.018365 -0.007087 -0.005432 0.000000 0.000000 0.000000
# 2 -0.007087 0.017182 -0.002896 0.000000 0.000000 0.000000
# 3 -0.005432 -0.002896 0.013599 0.000000 0.000000 0.000000
# 4 0.000000 0.000000 0.000000 0.024120 0.000000 0.000000
# 5 0.000000 0.000000 0.000000 0.000000 0.037728 0.000000
# 6 0.000000 0.000000 0.000000 0.000000 0.000000 0.036745
#
#
# Mechanical properties :
#
#
# Convention : Reuss Voigt Hill
#
# Bulk Modulus (GPa) = 54.59766 54.90597 54.75182
# Shear Modulus (GPa) = 27.07473 28.65821 27.86647
#
# Velocity S-wave (km/s) = 3.43719 3.53627 3.48708
# Velocity P-wave (km/s) = 6.29098 6.37434 6.33280
#
# Compressibility (1/GPa) = 0.01831580
#
# Stress axis : x y z
#
# Youngs Moduli (GPa) = 54.45221 58.20127 73.53478
#
# Poissons Ratio (x) = 0.41246 0.39947
# Poissons Ratio (y) = 0.38589 0.21293
# Poissons Ratio (z) = 0.29581 0.16853
#
# Static dielectric constant tensor:
#      x y z
#    x 1.874880 0.000000 0.000000 
#    y 0.000000 1.876980 0.000000 
#    z 0.000000 0.000000 1.892750 
# 
# From -- ./inp_files/4560.got.cif
#   From: 2010.05.17/outbox.cif.g08.bks.cpg/sg41_3_cif.got.tgz:4560.got - 2010.06.03 18:54:24.
