data_PCOD9367668
_publ_section_title
;
Structure prediction by ZEFSAII (Michael W. Deem and Ramdas Pophale) SiO2 
 PCOD9367668
Probable space group: A B A 2
;
_chemical_formula_sum "Si O2"
_cell_formula_units_Z 32
_cell_length_a 4.849578
_cell_length_b 24.629868
_cell_length_c 10.352697
_cell_angle_alpha 90.000000
_cell_angle_beta 90.000000
_cell_angle_gamma 90.000000
_cell_volume 1236.572365
_symmetry_space_group_name_H-M "A B A 2"
_symmetry_group_IT_number 41
_symmetry_cell_setting 'orthorhombic'
loop_
_space_group_symop_operation_xyz
x,y,z
-x,-y,z
1/2-x,y,1/2+z
1/2+x,-y,1/2+z
x,1/2+y,1/2+z
-x,1/2-y,1/2+z
1/2-x,1/2+y,z
1/2+x,1/2-y,z
loop_
_atom_site_type_symbol
_atom_site_label
_atom_site_fract_x
_atom_site_fract_y
_atom_site_fract_z
Si Si1 0.875711 0.285548 0.774920
Si Si2 0.523548 0.115392 0.227419
Si Si3 0.263712 0.037770 0.051180
Si Si4 0.041594 0.864968 0.453647
O O1 0.677437 0.235676 0.742070
O O2 0.925212 0.305082 0.923986
O O3 0.716031 0.339007 0.728706
O O4 0.372353 0.058990 0.191037
O O5 0.743715 0.119708 0.341293
O O6 0.683493 0.127665 0.092073
O O7 0.500000 0.000000 0.993510
O O8 0.286205 0.092647 0.966128
O O9 0.000000 0.000000 0.058457
#
# Coordination Sequence:
#
# PCOD9367668 Si02
#       4
#     8   8   8   8
#     4  12  26  48  76 118 168 224 268 342 426 498
#     4  10  26  50  85 125 172 210 292 347 423 513
#     4  10  26  50  82 118 164 224 270 340 436 502
#     4  10  26  50  85 125 172 210 292 347 423 513
#
# _framework density 25.877984000000001
#
# number of rings (size 3 to 8) (size 9 to 14) (size 15 to 20)
#    1.500    0.000    2.500    0.000    7.000    4.000 
#    4.500    0.000    0.000    1.500    0.000    0.000 
#    0.000    0.000    0.000    0.000    0.000    0.000 
#
# Total GULP energy -89188.367357 kJ/mol
# GULP energy per Si atom -5574.272960 kJ/mol
# Density = 2.581908 g / cm^3
# Si number density = 25.877984 Si / 1000 Ang^3
#
#
#
# Elastic Constant Matrix: (Units=GPa)
#
#
# Indices 1 2 3 4 5 6 
#
# 1 176.2015 56.0193 62.1907 0.0000 0.0000 0.0000
# 2 56.0193 121.4776 11.6805 0.0000 0.0000 0.0000
# 3 62.1907 11.6805 123.7166 0.0000 0.0000 0.0000
# 4 0.0000 0.0000 0.0000 28.3979 0.0000 0.0000
# 5 0.0000 0.0000 0.0000 0.0000 27.6198 0.0000
# 6 0.0000 0.0000 0.0000 0.0000 0.0000 41.5831
#
#
#
# Elastic Compliance Matrix: (Units=1/GPa)
#
#
# Indices 1 2 3 4 5 6 
#
# 1 0.008061 -0.003358 -0.003735 0.000000 0.000000 0.000000
# 2 -0.003358 0.009706 0.000772 0.000000 0.000000 0.000000
# 3 -0.003735 0.000772 0.009888 0.000000 0.000000 0.000000
# 4 0.000000 0.000000 0.000000 0.035214 0.000000 0.000000
# 5 0.000000 0.000000 0.000000 0.000000 0.036206 0.000000
# 6 0.000000 0.000000 0.000000 0.000000 0.000000 0.024048
#
#
# Mechanical properties :
#
#
# Convention : Reuss Voigt Hill
#
# Bulk Modulus (GPa) = 66.61357 75.68629 71.14993
# Shear Modulus (GPa) = 35.51858 38.95384 37.23621
#
# Velocity S-wave (km/s) = 3.70880 3.88401 3.79742
# Velocity P-wave (km/s) = 6.64361 7.03029 6.83968
#
# Compressibility (1/GPa) = 0.01501196
#
# Stress axis : x y z
#
# Youngs Moduli (GPa) = 124.04772 103.02410 101.13465
#
# Poissons Ratio (x) = 0.34599 0.37777
# Poissons Ratio (y) = 0.41660 -0.07805
# Poissons Ratio (z) = 0.46335 -0.07951
#
# Static dielectric constant tensor:
#      x y z
#    x 2.050290 0.000000 0.000000 
#    y 0.000000 2.115530 0.000000 
#    z 0.000000 0.000000 2.211160 
# 
# From -- ./inp_files/4121.got.cif
#   From: 2010.05.17/outbox.cif.g08.bks.cpg/sg41_3_cif.got.tgz:4121.got - 2010.06.03 18:54:24.
