data_PCOD9367802
_publ_section_title
;
Structure prediction by ZEFSAII (Michael W. Deem and Ramdas Pophale) SiO2 
 PCOD9367802
Probable space group: A B A 2
;
_chemical_formula_sum "Si O2"
_cell_formula_units_Z 64
_cell_length_a 7.663254
_cell_length_b 30.241020
_cell_length_c 11.741997
_cell_angle_alpha 90.000000
_cell_angle_beta 90.000000
_cell_angle_gamma 90.000000
_cell_volume 2721.144603
_symmetry_space_group_name_H-M "A B A 2"
_symmetry_group_IT_number 41
_symmetry_cell_setting 'orthorhombic'
loop_
_space_group_symop_operation_xyz
x,y,z
-x,-y,z
1/2-x,y,1/2+z
1/2+x,-y,1/2+z
x,1/2+y,1/2+z
-x,1/2-y,1/2+z
1/2-x,1/2+y,z
1/2+x,1/2-y,z
loop_
_atom_site_type_symbol
_atom_site_label
_atom_site_fract_x
_atom_site_fract_y
_atom_site_fract_z
Si Si1 0.464178 0.548251 0.368320
Si Si2 0.453386 0.049870 0.364791
Si Si3 0.910417 0.308169 0.389013
Si Si4 0.184952 0.790028 0.441956
Si Si5 0.588971 0.139511 0.766418
Si Si6 0.102703 0.613465 0.544114
Si Si7 0.442509 0.573121 0.609466
Si Si8 0.050799 0.332910 0.157548
O O1 0.500000 0.500000 0.316693
O O2 0.256340 0.556046 0.363688
O O3 0.559666 0.590562 0.316100
O O4 0.515905 0.547338 0.501956
O O5 0.521017 0.084932 0.458495
O O6 0.505231 0.058279 0.233416
O O7 0.500000 0.000000 0.396075
O O8 0.112854 0.304846 0.431827
O O9 0.916789 0.318080 0.254389
O O10 0.824915 0.260987 0.408818
O O11 0.827470 0.348627 0.458544
O O12 0.068978 0.821098 0.358131
O O13 0.112253 0.796365 0.569024
O O14 0.475918 0.139169 0.651287
O O15 0.783335 0.148347 0.724186
O O16 0.232638 0.576696 0.597630
O O17 0.485724 0.624437 0.591556
#
# Coordination Sequence:
#
# PCOD9367802 Si02
#       8
#     8   8   8   8   8   8   8   8
#     4  11  25  43  66 100 134 178 224 283 343 403
#     4  11  25  43  68 102 135 176 229 280 340 416
#     4  11  26  43  67 102 134 177 225 279 345 403
#     4  11  26  43  68 102 136 176 227 283 336 412
#     4  11  24  46  67  96 139 176 230 278 343 407
#     4  11  24  45  68  96 138 176 225 281 343 404
#     4  11  23  44  69  97 132 176 226 273 342 401
#     4  11  24  43  72  97 133 182 223 278 343 399
#
# _framework density 23.519514999999998
#
# number of rings (size 3 to 8) (size 9 to 14) (size 15 to 20)
#    0.000    1.000    5.000    0.375    5.250    2.500 
#    0.000    0.000    0.000    0.000    0.000    0.000 
#    0.000    0.000    0.000    0.000    0.000    0.000 
#
# Total GULP energy -178823.991727 kJ/mol
# GULP energy per Si atom -5588.249741 kJ/mol
# Density = 2.346598 g / cm^3
# Si number density = 23.519515 Si / 1000 Ang^3
#
#
#
# Elastic Constant Matrix: (Units=GPa)
#
#
# Indices 1 2 3 4 5 6 
#
# 1 28.2948 5.9424 15.8073 0.0000 0.0000 0.0000
# 2 5.9424 159.0935 42.7578 0.0000 0.0000 0.0000
# 3 15.8073 42.7578 98.0958 0.0000 0.0000 0.0000
# 4 0.0000 0.0000 0.0000 28.9978 0.0000 0.0000
# 5 0.0000 0.0000 0.0000 0.0000 22.4970 0.0000
# 6 0.0000 0.0000 0.0000 0.0000 0.0000 30.3847
#
#
#
# Elastic Compliance Matrix: (Units=1/GPa)
#
#
# Indices 1 2 3 4 5 6 
#
# 1 0.038848 0.000262 -0.006374 0.000000 0.000000 0.000000
# 2 0.000262 0.007121 -0.003146 0.000000 0.000000 0.000000
# 3 -0.006374 -0.003146 0.012593 0.000000 0.000000 0.000000
# 4 0.000000 0.000000 0.000000 0.034485 0.000000 0.000000
# 5 0.000000 0.000000 0.000000 0.000000 0.044450 0.000000
# 6 0.000000 0.000000 0.000000 0.000000 0.000000 0.032911
#
#
# Mechanical properties :
#
#
# Convention : Reuss Voigt Hill
#
# Bulk Modulus (GPa) = 24.97170 46.05546 35.51358
# Shear Modulus (GPa) = 24.71883 31.10767 27.91325
#
# Velocity S-wave (km/s) = 3.24542 3.64075 3.44875
# Velocity P-wave (km/s) = 4.96831 6.10718 5.56695
#
# Compressibility (1/GPa) = 0.04004533
#
# Stress axis : x y z
#
# Youngs Moduli (GPa) = 25.74118 140.42146 79.41116
#
# Poissons Ratio (x) = -0.03681 0.50619
# Poissons Ratio (y) = -0.00675 0.24985
# Poissons Ratio (z) = 0.16408 0.44181
#
# Static dielectric constant tensor:
#      x y z
#    x 1.991580 0.000000 0.000000 
#    y 0.000000 1.828700 0.000000 
#    z 0.000000 0.000000 1.920460 
# 
# From -- ./inp_files/4622.got.cif
#   From: 2010.05.17/outbox.cif.g08.bks.cpg/sg41_3_cif.got.tgz:4622.got - 2010.06.03 18:54:24.
