data_PCOD9367189
_publ_section_title
;
Structure prediction by ZEFSAII (Michael W. Deem and Ramdas Pophale) SiO2 
 PCOD9367189
Probable space group: A B A 2
;
_chemical_formula_sum "Si O2"
_cell_formula_units_Z 36
_cell_length_a 11.114576
_cell_length_b 22.300396
_cell_length_c 5.460681
_cell_angle_alpha 90.000000
_cell_angle_beta 90.000000
_cell_angle_gamma 90.000000
_cell_volume 1353.481368
_symmetry_space_group_name_H-M "A B A 2"
_symmetry_group_IT_number 41
_symmetry_cell_setting 'orthorhombic'
loop_
_space_group_symop_operation_xyz
x,y,z
-x,-y,z
1/2-x,y,1/2+z
1/2+x,-y,1/2+z
x,1/2+y,1/2+z
-x,1/2-y,1/2+z
1/2-x,1/2+y,z
1/2+x,1/2-y,z
loop_
_atom_site_type_symbol
_atom_site_label
_atom_site_fract_x
_atom_site_fract_y
_atom_site_fract_z
Si Si1 0.326829 0.844543 0.684870
Si Si2 0.175734 0.203245 0.695693
Si Si3 0.964076 0.897976 0.460437
Si Si4 0.255760 0.508722 0.968383
Si Si5 0.000000 0.500000 0.283857
O O1 0.257935 0.854180 0.426768
O O2 0.356637 0.773082 0.685872
O O3 0.454931 0.877450 0.732987
O O4 0.268256 0.191935 0.465835
O O5 0.066326 0.159473 0.626226
O O6 0.837000 0.935654 0.445370
O O7 0.041585 0.947529 0.603861
O O8 0.235299 0.474417 0.719166
O O9 0.393670 0.528579 0.935147
#
# Coordination Sequence:
#
# PCOD9367189 Si02
#       5
#     8   8   8   8   4
#     4  10  25  44  67 103 145 188 237 302 362 421
#     4  10  22  43  69 102 140 180 236 295 359 431
#     4  11  24  45  75 104 143 193 242 293 362 440
#     4  10  23  43  68 102 136 181 233 288 354 423
#     4  10  24  44  70 106 144 182 236 298 354 424
#
# _framework density 26.598075000000001
#
# number of rings (size 3 to 8) (size 9 to 14) (size 15 to 20)
#    0.000    1.778    0.000    2.667    0.000   17.778 
#    0.000    0.000    0.000    0.000    0.000    0.000 
#    0.000    0.000    0.000    0.000    0.000    0.000 
#
# Total GULP energy -100495.037713 kJ/mol
# GULP energy per Si atom -5583.057651 kJ/mol
# Density = 2.653754 g / cm^3
# Si number density = 26.598075 Si / 1000 Ang^3
#
#
#
# Elastic Constant Matrix: (Units=GPa)
#
#
# Indices 1 2 3 4 5 6 
#
# 1 132.1507 57.9761 41.1884 0.0000 0.0000 0.0000
# 2 57.9761 156.6216 56.9258 0.0000 0.0000 0.0000
# 3 41.1884 56.9258 191.6537 0.0000 0.0000 0.0000
# 4 0.0000 0.0000 0.0000 1.5371 0.0000 0.0000
# 5 0.0000 0.0000 0.0000 0.0000 39.6576 0.0000
# 6 0.0000 0.0000 0.0000 0.0000 0.0000 47.4484
#
#
#
# Elastic Compliance Matrix: (Units=1/GPa)
#
#
# Indices 1 2 3 4 5 6 
#
# 1 0.009232 -0.003022 -0.001086 0.000000 0.000000 0.000000
# 2 -0.003022 0.008147 -0.001770 0.000000 0.000000 0.000000
# 3 -0.001086 -0.001770 0.005977 0.000000 0.000000 0.000000
# 4 0.000000 0.000000 0.000000 0.650587 0.000000 0.000000
# 5 0.000000 0.000000 0.000000 0.000000 0.025216 0.000000
# 6 0.000000 0.000000 0.000000 0.000000 0.000000 0.021076
#
#
# Mechanical properties :
#
#
# Convention : Reuss Voigt Hill
#
# Bulk Modulus (GPa) = 86.22382 88.06742 87.14562
# Shear Modulus (GPa) = 6.79479 39.35098 23.07288
#
# Velocity S-wave (km/s) = 1.60005 3.85056 2.94847
# Velocity P-wave (km/s) = 5.99176 7.27677 6.66531
#
# Compressibility (1/GPa) = 0.01159772
#
# Stress axis : x y z
#
# Youngs Moduli (GPa) = 108.32287 122.74354 167.30752
#
# Poissons Ratio (x) = 0.37099 0.18174
# Poissons Ratio (y) = 0.32740 0.29619
# Poissons Ratio (z) = 0.11766 0.21730
#
# Static dielectric constant tensor:
#      x y z
#    x 2.198050 0.000000 0.000000 
#    y 0.000000 2.015380 0.000000 
#    z 0.000000 0.000000 2.172250 
# 
# From -- ./inp_files/109.got.cif
#   From: 2010.05.17/outbox.cif.g08.bks.cpg/sg41_1_cif.got.tgz:109.got - 2010.06.03 18:54:24.
