data_PCOD9367740
_publ_section_title
;
Structure prediction by ZEFSAII (Michael W. Deem and Ramdas Pophale) SiO2 
 PCOD9367740
Probable space group: A B A 2
;
_chemical_formula_sum "Si O2"
_cell_formula_units_Z 48
_cell_length_a 15.056275
_cell_length_b 14.662765
_cell_length_c 8.899791
_cell_angle_alpha 90.000000
_cell_angle_beta 90.000000
_cell_angle_gamma 90.000000
_cell_volume 1964.776796
_symmetry_space_group_name_H-M "A B A 2"
_symmetry_group_IT_number 41
_symmetry_cell_setting 'orthorhombic'
loop_
_space_group_symop_operation_xyz
x,y,z
-x,-y,z
1/2-x,y,1/2+z
1/2+x,-y,1/2+z
x,1/2+y,1/2+z
-x,1/2-y,1/2+z
1/2-x,1/2+y,z
1/2+x,1/2-y,z
loop_
_atom_site_type_symbol
_atom_site_label
_atom_site_fract_x
_atom_site_fract_y
_atom_site_fract_z
Si Si1 0.164036 0.821663 0.248780
Si Si2 0.591942 0.156721 0.427389
Si Si3 0.891045 0.494441 0.885699
Si Si4 0.835039 0.303219 0.750011
Si Si5 0.894712 0.829472 0.928769
Si Si6 0.607586 0.493720 0.728977
O O1 0.252065 0.763136 0.283050
O O2 0.097629 0.771943 0.364036
O O3 0.154720 0.928101 0.284209
O O4 0.141485 0.808635 0.074417
O O5 0.587607 0.232319 0.296535
O O6 0.491626 0.135281 0.477325
O O7 0.634845 0.068354 0.351347
O O8 0.854444 0.395333 0.839980
O O9 0.000000 0.500000 0.871296
O O10 0.864137 0.511636 0.059284
O O11 0.835125 0.328753 0.575576
O O12 0.865399 0.895952 0.794132
O O13 0.500000 0.500000 0.722990
#
# Coordination Sequence:
#
# PCOD9367740 Si02
#       6
#     8   8   8   8   8   8
#     4  12  26  43  68 104 143 183 233 299 363 418
#     4  11  22  42  69 101 139 189 241 289 349 433
#     4  11  23  46  77 108 142 194 250 297 355 441
#     4  12  26  43  68 104 143 183 233 299 363 418
#     4  11  22  42  69 101 139 189 241 289 349 433
#     4   9  21  40  71 106 135 176 246 307 344 407
#
# _framework density 24.430254999999999
#
# number of rings (size 3 to 8) (size 9 to 14) (size 15 to 20)
#    0.000    1.000    0.000    7.000    0.000    5.333 
#    0.000    6.667    0.000    0.000    0.000    0.000 
#    0.000    0.000    0.000    0.000    0.000    0.000 
#
# Total GULP energy -134243.369920 kJ/mol
# GULP energy per Si atom -5593.473747 kJ/mol
# Density = 2.437465 g / cm^3
# Si number density = 24.430255 Si / 1000 Ang^3
#
#
#
# Elastic Constant Matrix: (Units=GPa)
#
#
# Indices 1 2 3 4 5 6 
#
# 1 94.6758 5.0398 2.4061 0.0000 0.0000 0.0000
# 2 5.0398 111.4005 -0.3807 0.0000 0.0000 0.0000
# 3 2.4061 -0.3807 114.0312 0.0000 0.0000 0.0000
# 4 0.0000 0.0000 0.0000 50.5512 0.0000 0.0000
# 5 0.0000 0.0000 0.0000 0.0000 28.6933 0.0000
# 6 0.0000 0.0000 0.0000 0.0000 0.0000 36.0859
#
#
#
# Elastic Compliance Matrix: (Units=1/GPa)
#
#
# Indices 1 2 3 4 5 6 
#
# 1 0.010594 -0.000480 -0.000225 0.000000 0.000000 0.000000
# 2 -0.000480 0.008998 0.000040 0.000000 0.000000 0.000000
# 3 -0.000225 0.000040 0.008774 0.000000 0.000000 0.000000
# 4 0.000000 0.000000 0.000000 0.019782 0.000000 0.000000
# 5 0.000000 0.000000 0.000000 0.000000 0.034851 0.000000
# 6 0.000000 0.000000 0.000000 0.000000 0.000000 0.027712
#
#
# Mechanical properties :
#
#
# Convention : Reuss Voigt Hill
#
# Bulk Modulus (GPa) = 36.98698 37.13755 37.06227
# Shear Modulus (GPa) = 41.30401 43.93557 42.61979
#
# Velocity S-wave (km/s) = 4.11626 4.24536 4.18131
# Velocity P-wave (km/s) = 6.14526 6.26620 6.20602
#
# Compressibility (1/GPa) = 0.02703654
#
# Stress axis : x y z
#
# Youngs Moduli (GPa) = 94.39628 111.12990 113.96775
#
# Poissons Ratio (x) = 0.05335 0.02566
# Poissons Ratio (y) = 0.04531 -0.00458
# Poissons Ratio (z) = 0.02125 -0.00446
#
# Static dielectric constant tensor:
#      x y z
#    x 2.043860 0.000000 0.000000 
#    y 0.000000 1.894170 0.000000 
#    z 0.000000 0.000000 1.830200 
# 
# From -- ./inp_files/3029.got.cif
#   From: 2010.05.17/outbox.cif.g08.bks.cpg/sg41_2_cif.got.tgz:3029.got - 2010.06.03 18:54:24.
