data_PCOD9367726
_publ_section_title
;
Structure prediction by ZEFSAII (Michael W. Deem and Ramdas Pophale) SiO2 
 PCOD9367726
Probable space group: A B A 2
;
_chemical_formula_sum "Si O2"
_cell_formula_units_Z 64
_cell_length_a 15.346565
_cell_length_b 8.136890
_cell_length_c 23.758325
_cell_angle_alpha 90.000000
_cell_angle_beta 90.000000
_cell_angle_gamma 90.000000
_cell_volume 2966.780713
_symmetry_space_group_name_H-M "A B A 2"
_symmetry_group_IT_number 41
_symmetry_cell_setting 'orthorhombic'
loop_
_space_group_symop_operation_xyz
x,y,z
-x,-y,z
1/2-x,y,1/2+z
1/2+x,-y,1/2+z
x,1/2+y,1/2+z
-x,1/2-y,1/2+z
1/2-x,1/2+y,z
1/2+x,1/2-y,z
loop_
_atom_site_type_symbol
_atom_site_label
_atom_site_fract_x
_atom_site_fract_y
_atom_site_fract_z
Si Si1 0.990021 0.304718 0.141970
Si Si2 0.657733 0.834359 0.345304
Si Si3 0.503589 0.301194 0.769042
Si Si4 0.176550 0.747973 0.080848
Si Si5 0.135889 0.629395 0.565715
Si Si6 0.646417 0.230883 0.356634
Si Si7 0.559181 0.860714 0.448706
Si Si8 0.420937 0.133130 0.975263
O O1 0.052280 0.204380 0.098806
O O2 0.000000 0.500000 0.134185
O O3 0.011414 0.248604 0.205191
O O4 0.886652 0.292184 0.132130
O O5 0.600068 0.772946 0.293348
O O6 0.757612 0.788403 0.339729
O O7 0.606614 0.760933 0.399619
O O8 0.653682 0.030925 0.358921
O O9 0.500000 0.500000 0.769117
O O10 0.429978 0.235393 0.811627
O O11 0.278938 0.725248 0.086793
O O12 0.153883 0.938365 0.074117
O O13 0.144825 0.633551 0.027606
O O14 0.129608 0.633429 0.497731
O O15 0.623491 0.324115 0.415406
O O16 0.478568 0.794154 0.485069
O O17 0.500000 0.000000 0.418174
O O18 0.500000 0.000000 0.973503
#
# Coordination Sequence:
#
# PCOD9367726 Si02
#       8
#     8   8   8   8   8   8   8   8
#     4  11  23  44  69  94 127 170 221 278 334 390
#     4  11  22  40  65  93 131 172 212 267 318 390
#     4   9  21  43  67  90 125 172 217 271 331 385
#     4  12  25  43  64  98 131 172 219 267 330 392
#     4  12  25  41  67  96 132 173 217 270 327 395
#     4  11  23  41  64  97 130 170 216 261 325 383
#     4  12  20  41  66  89 131 174 205 258 323 386
#     4  12  25  39  66  95 134 169 216 262 322 387
#
# _framework density 21.572203999999999
#
# number of rings (size 3 to 8) (size 9 to 14) (size 15 to 20)
#    0.000    0.750    5.000    2.625    3.500    1.000 
#    0.000    6.250    0.000    0.000    0.000    0.000 
#    0.000    0.000    0.000    0.000    0.000    0.000 
#
# Total GULP energy -178172.120823 kJ/mol
# GULP energy per Si atom -5567.878776 kJ/mol
# Density = 2.152310 g / cm^3
# Si number density = 21.572204 Si / 1000 Ang^3
#
#
#
# Elastic Constant Matrix: (Units=GPa)
#
#
# Indices 1 2 3 4 5 6 
#
# 1 139.6175 19.9234 37.7797 0.0000 0.0000 0.0000
# 2 19.9234 35.1684 13.8034 0.0000 0.0000 0.0000
# 3 37.7797 13.8034 110.0382 0.0000 0.0000 0.0000
# 4 0.0000 0.0000 0.0000 11.7542 0.0000 0.0000
# 5 0.0000 0.0000 0.0000 0.0000 35.0724 0.0000
# 6 0.0000 0.0000 0.0000 0.0000 0.0000 36.7082
#
#
#
# Elastic Compliance Matrix: (Units=1/GPa)
#
#
# Indices 1 2 3 4 5 6 
#
# 1 0.008351 -0.003792 -0.002391 0.000000 0.000000 0.000000
# 2 -0.003792 0.031629 -0.002666 0.000000 0.000000 0.000000
# 3 -0.002391 -0.002666 0.010243 0.000000 0.000000 0.000000
# 4 0.000000 0.000000 0.000000 0.085076 0.000000 0.000000
# 5 0.000000 0.000000 0.000000 0.000000 0.028512 0.000000
# 6 0.000000 0.000000 0.000000 0.000000 0.000000 0.027242
#
#
# Mechanical properties :
#
#
# Convention : Reuss Voigt Hill
#
# Bulk Modulus (GPa) = 30.74590 47.53743 39.14167
# Shear Modulus (GPa) = 22.76939 30.92815 26.84877
#
# Velocity S-wave (km/s) = 3.25237 3.79054 3.53172
# Velocity P-wave (km/s) = 5.32798 6.42198 5.90039
#
# Compressibility (1/GPa) = 0.03252466
#
# Stress axis : x y z
#
# Youngs Moduli (GPa) = 119.75109 31.61641 97.62604
#
# Poissons Ratio (x) = 0.11989 0.23346
# Poissons Ratio (y) = 0.45412 0.26024
# Poissons Ratio (z) = 0.28637 0.08428
#
# Static dielectric constant tensor:
#      x y z
#    x 1.828230 0.000000 0.000000 
#    y 0.000000 2.185370 0.000000 
#    z 0.000000 0.000000 1.816590 
# 
# From -- ./inp_files/12241.got.cif
#   From: 2010.05.17/outbox.cif.g08.bks.cpg/sg41_7_cif.got.tgz:12241.got - 2010.06.03 18:54:24.
