data_PCOD9367925
_publ_section_title
;
Structure prediction by ZEFSAII (Michael W. Deem and Ramdas Pophale) SiO2 
 PCOD9367925
Probable space group: A B A 2
;
_chemical_formula_sum "Si O2"
_cell_formula_units_Z 40
_cell_length_a 13.858289
_cell_length_b 14.135532
_cell_length_c 8.391246
_cell_angle_alpha 90.000000
_cell_angle_beta 90.000000
_cell_angle_gamma 90.000000
_cell_volume 1643.797157
_symmetry_space_group_name_H-M "A B A 2"
_symmetry_group_IT_number 41
_symmetry_cell_setting 'orthorhombic'
loop_
_space_group_symop_operation_xyz
x,y,z
-x,-y,z
1/2-x,y,1/2+z
1/2+x,-y,1/2+z
x,1/2+y,1/2+z
-x,1/2-y,1/2+z
1/2-x,1/2+y,z
1/2+x,1/2-y,z
loop_
_atom_site_type_symbol
_atom_site_label
_atom_site_fract_x
_atom_site_fract_y
_atom_site_fract_z
Si Si1 0.407439 0.795392 0.180800
Si Si2 0.258912 0.134821 0.601729
Si Si3 0.386905 0.481717 0.179658
Si Si4 0.895887 0.715007 0.535425
Si Si5 0.114955 0.491795 0.050077
O O1 0.337800 0.704608 0.178235
O O2 0.509332 0.766874 0.103052
O O3 0.422175 0.824911 0.362878
O O4 0.361634 0.883643 0.089105
O O5 0.192479 0.212447 0.515114
O O6 0.171201 0.066431 0.660653
O O7 0.329246 0.047616 0.556520
O O8 0.500000 0.500000 0.161557
O O9 0.369344 0.371240 0.151035
O O10 0.361687 0.510135 0.362710
O O11 0.000000 0.500000 0.068550
#
# Coordination Sequence:
#
# PCOD9367925 Si02
#       5
#     8   8   8   8   8
#     4  12  27  48  76 112 152 198 251 310 373 447
#     4  12  26  46  78 108 144 200 246 308 374 444
#     4  11  25  49  76 109 150 195 249 310 373 445
#     4  12  27  48  76 112 152 198 251 310 373 447
#     4  11  25  49  76 109 150 195 249 310 373 445
#
# _framework density 24.333901999999998
#
# number of rings (size 3 to 8) (size 9 to 14) (size 15 to 20)
#    0.000    0.400    4.000    3.600    0.000   13.600 
#    0.000    0.000    0.000    0.000    0.000    0.000 
#    0.000    0.000    0.000    0.000    0.000    0.000 
#
# Total GULP energy -111552.399488 kJ/mol
# GULP energy per Si atom -5577.619974 kJ/mol
# Density = 2.427852 g / cm^3
# Si number density = 24.333902 Si / 1000 Ang^3
#
#
#
# Elastic Constant Matrix: (Units=GPa)
#
#
# Indices 1 2 3 4 5 6 
#
# 1 116.9815 3.7381 17.3411 0.0000 0.0000 0.0000
# 2 3.7381 129.6610 -19.9805 0.0000 0.0000 0.0000
# 3 17.3411 -19.9805 48.2832 0.0000 0.0000 0.0000
# 4 0.0000 0.0000 0.0000 -4.6465 0.0000 0.0000
# 5 0.0000 0.0000 0.0000 0.0000 8.0529 0.0000
# 6 0.0000 0.0000 0.0000 0.0000 0.0000 84.8498
#
#
#
# Elastic Compliance Matrix: (Units=1/GPa)
#
#
# Indices 1 2 3 4 5 6 
#
# 1 0.009110 -0.000819 -0.003611 0.000000 0.000000 0.000000
# 2 -0.000819 0.008311 0.003734 0.000000 0.000000 0.000000
# 3 -0.003611 0.003734 0.023553 0.000000 0.000000 0.000000
# 4 0.000000 0.000000 0.000000 -0.215215 0.000000 0.000000
# 5 0.000000 0.000000 0.000000 0.000000 0.124179 0.000000
# 6 0.000000 0.000000 0.000000 0.000000 0.000000 0.011786
#
#
# Mechanical properties :
#
#
# Convention : Reuss Voigt Hill
#
# Bulk Modulus (GPa) = 25.26422 33.01368 29.13895
# Shear Modulus (GPa) = -211.05802 37.23971 -86.90915
#
# Velocity S-wave (km/s) = -9.32322 3.91623 -5.98271
# Velocity P-wave (km/s) = 10.27092 5.83486 5.97688
#
# Compressibility (1/GPa) = 0.03958166
#
# Stress axis : x y z
#
# Youngs Moduli (GPa) = 109.77218 120.31717 42.45752
#
# Poissons Ratio (x) = 0.09854 0.15330
# Poissons Ratio (y) = 0.08991 -0.15852
# Poissons Ratio (z) = 0.39636 -0.44921
#
# Static dielectric constant tensor:
#      x y z
#    x 1.930090 0.000000 0.000000 
#    y 0.000000 1.905080 0.000000 
#    z 0.000000 0.000000 1.896700 
# 
# From -- ./inp_files/2418.got.cif
#   From: 2010.05.17/outbox.cif.g08.bks.cpg/sg41_2_cif.got.tgz:2418.got - 2010.06.03 18:54:24.
