data_PCOD9367959
_publ_section_title
;
Structure prediction by ZEFSAII (Michael W. Deem and Ramdas Pophale) SiO2 
 PCOD9367959
Probable space group: A B A 2
;
_chemical_formula_sum "Si O2"
_cell_formula_units_Z 36
_cell_length_a 8.258162
_cell_length_b 9.832020
_cell_length_c 18.150333
_cell_angle_alpha 90.000000
_cell_angle_beta 90.000000
_cell_angle_gamma 90.000000
_cell_volume 1473.705651
_symmetry_space_group_name_H-M "A B A 2"
_symmetry_group_IT_number 41
_symmetry_cell_setting 'orthorhombic'
loop_
_space_group_symop_operation_xyz
x,y,z
-x,-y,z
1/2-x,y,1/2+z
1/2+x,-y,1/2+z
x,1/2+y,1/2+z
-x,1/2-y,1/2+z
1/2-x,1/2+y,z
1/2+x,1/2-y,z
loop_
_atom_site_type_symbol
_atom_site_label
_atom_site_fract_x
_atom_site_fract_y
_atom_site_fract_z
Si Si1 0.866439 0.365575 0.729530
Si Si2 0.668185 0.583973 0.817459
Si Si3 0.824823 0.072212 0.986275
Si Si4 0.500000 0.500000 0.553303
Si Si5 0.395581 0.245570 0.124941
O O1 0.806790 0.485749 0.783376
O O2 0.856475 0.224954 0.775207
O O3 0.735531 0.347544 0.665059
O O4 0.032961 0.353967 0.682738
O O5 0.500000 0.500000 0.812746
O O6 0.702547 0.619025 0.902611
O O7 0.844096 0.184470 0.049451
O O8 0.000000 0.000000 0.987109
O O9 0.665089 0.985248 0.006957
O O10 0.527105 0.632396 0.602997
#
# Coordination Sequence:
#
# PCOD9367959 Si02
#       5
#     8   8   8   4   8
#     4  12  25  46  78 106 151 200 253 320 391 448
#     4  11  27  50  72 111 159 200 253 324 389 474
#     4  11  28  47  77 110 154 202 260 312 393 462
#     4  12  26  48  74 112 156 198 262 324 378 454
#     4  12  25  45  77 108 147 196 265 313 379 464
#
# _framework density 24.428217
#
# number of rings (size 3 to 8) (size 9 to 14) (size 15 to 20)
#    0.000    0.444    4.444    2.667    6.222    3.556 
#    0.000    0.000    0.000    0.000    0.000    0.000 
#    0.000    0.000    0.000    0.000    0.000    0.000 
#
# Total GULP energy -100687.624594 kJ/mol
# GULP energy per Si atom -5593.756922 kJ/mol
# Density = 2.437262 g / cm^3
# Si number density = 24.428217 Si / 1000 Ang^3
#
#
#
# Elastic Constant Matrix: (Units=GPa)
#
#
# Indices 1 2 3 4 5 6 
#
# 1 93.4748 13.2536 31.2283 0.0000 0.0000 0.0000
# 2 13.2536 103.6549 73.3668 0.0000 0.0000 0.0000
# 3 31.2283 73.3668 194.7327 0.0000 0.0000 0.0000
# 4 0.0000 0.0000 0.0000 41.6362 0.0000 0.0000
# 5 0.0000 0.0000 0.0000 0.0000 73.2971 0.0000
# 6 0.0000 0.0000 0.0000 0.0000 0.0000 29.4102
#
#
#
# Elastic Compliance Matrix: (Units=1/GPa)
#
#
# Indices 1 2 3 4 5 6 
#
# 1 0.011307 -0.000221 -0.001730 0.000000 0.000000 0.000000
# 2 -0.000221 0.013160 -0.004923 0.000000 0.000000 0.000000
# 3 -0.001730 -0.004923 0.007267 0.000000 0.000000 0.000000
# 4 0.000000 0.000000 0.000000 0.024018 0.000000 0.000000
# 5 0.000000 0.000000 0.000000 0.000000 0.013643 0.000000
# 6 0.000000 0.000000 0.000000 0.000000 0.000000 0.034002
#
#
# Mechanical properties :
#
#
# Convention : Reuss Voigt Hill
#
# Bulk Modulus (GPa) = 55.59618 69.72888 62.66253
# Shear Modulus (GPa) = 40.60406 47.13626 43.87016
#
# Velocity S-wave (km/s) = 4.08141 4.39747 4.24238
# Velocity P-wave (km/s) = 6.70961 7.37496 7.05014
#
# Compressibility (1/GPa) = 0.01798685
#
# Stress axis : x y z
#
# Youngs Moduli (GPa) = 88.43773 75.98849 137.60322
#
# Poissons Ratio (x) = 0.01682 0.23804
# Poissons Ratio (y) = 0.01958 0.67736
# Poissons Ratio (z) = 0.15299 0.37406
#
# Static dielectric constant tensor:
#      x y z
#    x 1.826010 0.000000 0.000000 
#    y 0.000000 2.007720 0.000000 
#    z 0.000000 0.000000 1.907190 
# 
# From -- ./inp_files/11070.got.cif
#   From: 2010.05.17/outbox.cif.g08.bks.cpg/sg41_6_cif.got.tgz:11070.got - 2010.06.03 18:54:24.
