data_PCOD9367676
_publ_section_title
;
Structure prediction by ZEFSAII (Michael W. Deem and Ramdas Pophale) SiO2 
 PCOD9367676
Probable space group: A B A 2
;
_chemical_formula_sum "Si O2"
_cell_formula_units_Z 36
_cell_length_a 18.473649
_cell_length_b 13.417155
_cell_length_c 4.930436
_cell_angle_alpha 90.000000
_cell_angle_beta 90.000000
_cell_angle_gamma 90.000000
_cell_volume 1222.076662
_symmetry_space_group_name_H-M "A B A 2"
_symmetry_group_IT_number 41
_symmetry_cell_setting 'orthorhombic'
loop_
_space_group_symop_operation_xyz
x,y,z
-x,-y,z
1/2-x,y,1/2+z
1/2+x,-y,1/2+z
x,1/2+y,1/2+z
-x,1/2-y,1/2+z
1/2-x,1/2+y,z
1/2+x,1/2-y,z
loop_
_atom_site_type_symbol
_atom_site_label
_atom_site_fract_x
_atom_site_fract_y
_atom_site_fract_z
Si Si1 0.711403 0.907238 0.706870
Si Si2 0.500000 0.500000 0.620287
Si Si3 0.623444 0.627489 0.522325
Si Si4 0.197992 0.282371 0.524724
Si Si5 0.585280 0.332909 0.851279
O O1 0.770236 0.949592 0.496720
O O2 0.735053 0.785509 0.743056
O O3 0.638921 0.896245 0.542622
O O4 0.573091 0.532817 0.470519
O O5 0.519238 0.403693 0.795011
O O6 0.659131 0.637595 0.815211
O O7 0.572639 0.725925 0.483573
O O8 0.687111 0.647438 0.304107
O O9 0.132028 0.199938 0.586842
#
# Coordination Sequence:
#
# PCOD9367676 Si02
#       5
#     8   4   8   8   8
#     4  11  18  38  74  99 128 186 241 301 368 416
#     4  12  24  44  72 102 148 208 214 288 382 424
#     4   9  22  41  61  96 137 180 227 280 325 442
#     4   9  19  41  60  95 138 163 237 289 335 415
#     4   9  23  40  65 105 139 181 242 288 351 444
#
# _framework density 29.458055999999999
#
# number of rings (size 3 to 8) (size 9 to 14) (size 15 to 20)
#    1.333    0.889    2.222    0.000    3.111    0.889 
#   12.000    0.000    0.000   18.667    0.000    0.000 
#    0.000    0.000    0.000    0.000    0.000    0.000 
#
# Total GULP energy -100450.017967 kJ/mol
# GULP energy per Si atom -5580.556554 kJ/mol
# Density = 2.939101 g / cm^3
# Si number density = 29.458056 Si / 1000 Ang^3
#
#
#
# Elastic Constant Matrix: (Units=GPa)
#
#
# Indices 1 2 3 4 5 6 
#
# 1 107.1099 58.1702 14.7070 0.0000 0.0000 0.0000
# 2 58.1702 136.0458 34.2125 0.0000 0.0000 0.0000
# 3 14.7070 34.2125 225.7484 0.0000 0.0000 0.0000
# 4 0.0000 0.0000 0.0000 28.0244 0.0000 0.0000
# 5 0.0000 0.0000 0.0000 0.0000 21.6981 0.0000
# 6 0.0000 0.0000 0.0000 0.0000 0.0000 46.7496
#
#
#
# Elastic Compliance Matrix: (Units=1/GPa)
#
#
# Indices 1 2 3 4 5 6 
#
# 1 0.012160 -0.005198 -0.000004 0.000000 0.000000 0.000000
# 2 -0.005198 0.009864 -0.001156 0.000000 0.000000 0.000000
# 3 -0.000004 -0.001156 0.004605 0.000000 0.000000 0.000000
# 4 0.000000 0.000000 0.000000 0.035683 0.000000 0.000000
# 5 0.000000 0.000000 0.000000 0.000000 0.046087 0.000000
# 6 0.000000 0.000000 0.000000 0.000000 0.000000 0.021391
#
#
# Mechanical properties :
#
#
# Convention : Reuss Voigt Hill
#
# Bulk Modulus (GPa) = 71.88385 75.89818 73.89101
# Shear Modulus (GPa) = 33.98022 43.41538 38.69780
#
# Velocity S-wave (km/s) = 3.40002 3.84318 3.62837
# Velocity P-wave (km/s) = 6.31416 6.74642 6.53386
#
# Compressibility (1/GPa) = 0.01391133
#
# Stress axis : x y z
#
# Youngs Moduli (GPa) = 82.23765 101.38019 217.14461
#
# Poissons Ratio (x) = 0.52699 0.00095
# Poissons Ratio (y) = 0.42749 0.25107
# Poissons Ratio (z) = 0.00036 0.11722
#
# Static dielectric constant tensor:
#      x y z
#    x 2.360850 0.000000 0.000000 
#    y 0.000000 2.386190 0.000000 
#    z 0.000000 0.000000 2.441300 
# 
# From -- ./inp_files/901.got.cif
#   From: 2010.05.17/outbox.cif.g08.bks.cpg/sg41_1_cif.got.tgz:901.got - 2010.06.03 18:54:24.
