data_PCOD9367764
_publ_section_title
;
Structure prediction by ZEFSAII (Michael W. Deem and Ramdas Pophale) SiO2 
 PCOD9367764
Probable space group: A B A 2
;
_chemical_formula_sum "Si O2"
_cell_formula_units_Z 64
_cell_length_a 26.823310
_cell_length_b 11.098313
_cell_length_c 8.492679
_cell_angle_alpha 90.000000
_cell_angle_beta 90.000000
_cell_angle_gamma 90.000000
_cell_volume 2528.215252
_symmetry_space_group_name_H-M "A B A 2"
_symmetry_group_IT_number 41
_symmetry_cell_setting 'orthorhombic'
loop_
_space_group_symop_operation_xyz
x,y,z
-x,-y,z
1/2-x,y,1/2+z
1/2+x,-y,1/2+z
x,1/2+y,1/2+z
-x,1/2-y,1/2+z
1/2-x,1/2+y,z
1/2+x,1/2-y,z
loop_
_atom_site_type_symbol
_atom_site_label
_atom_site_fract_x
_atom_site_fract_y
_atom_site_fract_z
Si Si1 0.896111 0.935649 0.259310
Si Si2 0.279678 0.164310 0.271984
Si Si3 0.912584 0.085750 0.678477
Si Si4 0.982288 0.810821 0.093358
Si Si5 0.057920 0.667752 0.255146
Si Si6 0.817978 0.291836 0.937196
Si Si7 0.155944 0.975332 0.956070
Si Si8 0.858540 0.179341 0.406749
O O1 0.951489 0.902307 0.203445
O O2 0.871099 0.839502 0.376539
O O3 0.886637 0.063953 0.336609
O O4 0.863400 0.947242 0.101594
O O5 0.221360 0.179619 0.300088
O O6 0.304239 0.285288 0.348892
O O7 0.302884 0.052595 0.365891
O O8 0.297174 0.144628 0.093636
O O9 0.953521 0.183548 0.627447
O O10 0.892530 0.061863 0.853170
O O11 0.864649 0.143930 0.588937
O O12 0.934498 0.951452 0.650382
O O13 0.036957 0.777486 0.151037
O O14 0.977364 0.846818 0.910425
O O15 0.109173 0.710152 0.336321
O O16 0.820924 0.154183 0.991653
#
# Coordination Sequence:
#
# PCOD9367764 Si02
#       8
#     8   8   8   8   8   8   8   8
#     4  12  25  47  69 105 142 188 235 293 353 424
#     4  12  27  48  71 108 141 186 235 291 352 424
#     4  11  22  46  72  97 139 186 233 292 353 420
#     4  11  25  43  70 102 140 183 240 289 355 423
#     4  11  25  45  68 104 138 186 236 293 353 423
#     4  12  29  46  73 106 143 184 240 292 352 421
#     4  12  24  47  76  99 141 187 231 290 356 413
#     4  11  26  44  72 103 146 184 237 290 357 420
#
# _framework density 25.314301
#
# number of rings (size 3 to 8) (size 9 to 14) (size 15 to 20)
#    0.000    0.500    5.000    2.625    5.250    2.500 
#    2.250    0.000    0.000    0.000    0.000    0.000 
#    0.000    0.000    0.000    0.000    0.000    0.000 
#
# Total GULP energy -179023.194111 kJ/mol
# GULP energy per Si atom -5594.474816 kJ/mol
# Density = 2.525668 g / cm^3
# Si number density = 25.314301 Si / 1000 Ang^3
#
#
#
# Elastic Constant Matrix: (Units=GPa)
#
#
# Indices 1 2 3 4 5 6 
#
# 1 51.3154 4.1752 14.2817 0.0000 0.0000 0.0000
# 2 4.1752 130.4764 10.4809 0.0000 0.0000 0.0000
# 3 14.2817 10.4809 83.1663 0.0000 0.0000 0.0000
# 4 0.0000 0.0000 0.0000 38.3252 0.0000 0.0000
# 5 0.0000 0.0000 0.0000 0.0000 33.9596 0.0000
# 6 0.0000 0.0000 0.0000 0.0000 0.0000 21.7323
#
#
#
# Elastic Compliance Matrix: (Units=1/GPa)
#
#
# Indices 1 2 3 4 5 6 
#
# 1 0.020484 -0.000377 -0.003470 0.000000 0.000000 0.000000
# 2 -0.000377 0.007750 -0.000912 0.000000 0.000000 0.000000
# 3 -0.003470 -0.000912 0.012735 0.000000 0.000000 0.000000
# 4 0.000000 0.000000 0.000000 0.026092 0.000000 0.000000
# 5 0.000000 0.000000 0.000000 0.000000 0.029447 0.000000
# 6 0.000000 0.000000 0.000000 0.000000 0.000000 0.046014
#
#
# Mechanical properties :
#
#
# Convention : Reuss Voigt Hill
#
# Bulk Modulus (GPa) = 31.79580 35.87042 33.83311
# Shear Modulus (GPa) = 30.76491 34.53813 32.65152
#
# Velocity S-wave (km/s) = 3.48992 3.69775 3.59534
# Velocity P-wave (km/s) = 5.36909 5.69490 5.53439
#
# Compressibility (1/GPa) = 0.03145070
#
# Stress axis : x y z
#
# Youngs Moduli (GPa) = 48.81922 129.04004 78.52421
#
# Poissons Ratio (x) = 0.04861 0.27249
# Poissons Ratio (y) = 0.01839 0.07161
# Poissons Ratio (z) = 0.16941 0.11768
#
# Static dielectric constant tensor:
#      x y z
#    x 2.033830 0.000000 0.000000 
#    y 0.000000 2.045580 0.000000 
#    z 0.000000 0.000000 2.143330 
# 
# From -- ./inp_files/3988.got.cif
#   From: 2010.05.17/outbox.cif.g08.bks.cpg/sg41_2_cif.got.tgz:3988.got - 2010.06.03 18:54:24.
