data_PCOD9367238
_publ_section_title
;
Structure prediction by ZEFSAII (Michael W. Deem and Ramdas Pophale) SiO2 
 PCOD9367238
Probable space group: A B A 2
;
_chemical_formula_sum "Si O2"
_cell_formula_units_Z 36
_cell_length_a 8.883105
_cell_length_b 18.738881
_cell_length_c 8.089106
_cell_angle_alpha 90.000000
_cell_angle_beta 90.000000
_cell_angle_gamma 90.000000
_cell_volume 1346.508116
_symmetry_space_group_name_H-M "A B A 2"
_symmetry_group_IT_number 41
_symmetry_cell_setting 'orthorhombic'
loop_
_space_group_symop_operation_xyz
x,y,z
-x,-y,z
1/2-x,y,1/2+z
1/2+x,-y,1/2+z
x,1/2+y,1/2+z
-x,1/2-y,1/2+z
1/2-x,1/2+y,z
1/2+x,1/2-y,z
loop_
_atom_site_type_symbol
_atom_site_label
_atom_site_fract_x
_atom_site_fract_y
_atom_site_fract_z
Si Si1 0.000000 0.500000 0.131760
Si Si2 0.156061 0.703282 0.009389
Si Si3 0.290299 0.434124 0.084349
Si Si4 0.865793 0.192929 0.718483
Si Si5 0.608244 0.920434 0.452689
O O1 0.119185 0.455532 0.023396
O O2 0.092504 0.545247 0.270559
O O3 0.093271 0.752863 0.864190
O O4 0.263170 0.638696 0.953215
O O5 0.262435 0.757044 0.106586
O O6 0.019409 0.678086 0.122145
O O7 0.235909 0.379722 0.229603
O O8 0.439299 0.396274 0.005769
O O9 0.350331 0.515617 0.078504
#
# Coordination Sequence:
#
# PCOD9367238 Si02
#       5
#     4   8   8   8   8
#     4  10  22  44  78 106 148 194 268 322 392 472
#     4  12  28  51  76 118 158 218 260 336 402 494
#     4  10  23  46  78 109 152 208 257 332 391 482
#     4  12  28  47  80 112 164 208 270 322 411 482
#     4  10  26  49  73 114 152 204 266 326 399 475
#
# _framework density 26.735818999999999
#
# number of rings (size 3 to 8) (size 9 to 14) (size 15 to 20)
#    0.000    1.333    0.000    4.000   15.556    0.000 
#    4.000    8.889    0.000    0.000    0.000    0.000 
#    0.000    0.000    0.000    0.000    0.000    0.000 
#
# Total GULP energy -100340.571860 kJ/mol
# GULP energy per Si atom -5574.476214 kJ/mol
# Density = 2.667497 g / cm^3
# Si number density = 26.735819 Si / 1000 Ang^3
#
#
#
# Elastic Constant Matrix: (Units=GPa)
#
#
# Indices 1 2 3 4 5 6 
#
# 1 206.9677 79.9564 66.4005 0.0000 0.0000 0.0000
# 2 79.9564 203.9361 56.1745 0.0000 0.0000 0.0000
# 3 66.4005 56.1745 80.6813 0.0000 0.0000 0.0000
# 4 0.0000 0.0000 0.0000 10.9464 0.0000 0.0000
# 5 0.0000 0.0000 0.0000 0.0000 60.2819 0.0000
# 6 0.0000 0.0000 0.0000 0.0000 0.0000 72.0093
#
#
#
# Elastic Compliance Matrix: (Units=1/GPa)
#
#
# Indices 1 2 3 4 5 6 
#
# 1 0.006877 -0.001407 -0.004680 0.000000 0.000000 0.000000
# 2 -0.001407 0.006355 -0.003267 0.000000 0.000000 0.000000
# 3 -0.004680 -0.003267 0.018520 0.000000 0.000000 0.000000
# 4 0.000000 0.000000 0.000000 0.091354 0.000000 0.000000
# 5 0.000000 0.000000 0.000000 0.000000 0.016589 0.000000
# 6 0.000000 0.000000 0.000000 0.000000 0.000000 0.013887
#
#
# Mechanical properties :
#
#
# Convention : Reuss Voigt Hill
#
# Bulk Modulus (GPa) = 76.65819 99.62756 88.14288
# Shear Modulus (GPa) = 28.30657 47.91776 38.11216
#
# Velocity S-wave (km/s) = 3.25738 4.23811 3.77969
# Velocity P-wave (km/s) = 6.54844 7.82901 7.21718
#
# Compressibility (1/GPa) = 0.01304492
#
# Stress axis : x y z
#
# Youngs Moduli (GPa) = 145.41971 157.35753 53.99467
#
# Poissons Ratio (x) = 0.22141 0.25268
# Poissons Ratio (y) = 0.20461 0.17638
# Poissons Ratio (z) = 0.68054 0.51403
#
# Static dielectric constant tensor:
#      x y z
#    x 2.041020 0.000000 0.000000 
#    y 0.000000 2.278250 0.000000 
#    z 0.000000 0.000000 2.181830 
# 
# From -- ./inp_files/1652.got.cif
#   From: 2010.05.17/outbox.cif.g08.bks.cpg/sg41_1_cif.got.tgz:1652.got - 2010.06.03 18:54:24.
