data_PCOD9367423
_publ_section_title
;
Structure prediction by ZEFSAII (Michael W. Deem and Ramdas Pophale) SiO2 
 PCOD9367423
Probable space group: A B A 2
;
_chemical_formula_sum "Si O2"
_cell_formula_units_Z 48
_cell_length_a 14.620934
_cell_length_b 7.379982
_cell_length_c 16.921810
_cell_angle_alpha 90.000000
_cell_angle_beta 90.000000
_cell_angle_gamma 90.000000
_cell_volume 1825.901030
_symmetry_space_group_name_H-M "A B A 2"
_symmetry_group_IT_number 41
_symmetry_cell_setting 'orthorhombic'
loop_
_space_group_symop_operation_xyz
x,y,z
-x,-y,z
1/2-x,y,1/2+z
1/2+x,-y,1/2+z
x,1/2+y,1/2+z
-x,1/2-y,1/2+z
1/2-x,1/2+y,z
1/2+x,1/2-y,z
loop_
_atom_site_type_symbol
_atom_site_label
_atom_site_fract_x
_atom_site_fract_y
_atom_site_fract_z
Si Si1 0.620306 0.202361 0.262040
Si Si2 0.853893 0.296319 0.057770
Si Si3 0.172612 0.796391 0.503121
Si Si4 0.821706 0.619257 0.729394
Si Si5 0.959951 0.311484 0.615170
Si Si6 0.538715 0.205607 0.857100
O O1 0.645496 0.412935 0.242375
O O2 0.718740 0.113453 0.262698
O O3 0.560915 0.167971 0.183292
O O4 0.554300 0.184984 0.337362
O O5 0.780990 0.221369 0.994098
O O6 0.846179 0.510003 0.043227
O O7 0.822033 0.215102 0.143109
O O8 0.960948 0.250657 0.054835
O O9 0.133379 0.655319 0.567518
O O10 0.109128 0.766841 0.428060
O O11 0.895060 0.727386 0.781555
O O12 0.000000 0.500000 0.647204
O O13 0.500000 0.000000 0.864518
#
# Coordination Sequence:
#
# PCOD9367423 Si02
#       6
#     8   8   8   8   8   8
#     4  11  22  43  71 101 138 186 235 299 353 420
#     4  12  23  43  68 107 135 185 241 294 357 426
#     4  12  27  43  71 103 147 186 238 298 369 426
#     4  11  22  41  73 100 135 181 241 287 357 426
#     4  12  22  42  70 100 140 186 238 292 349 428
#     4  10  23  46  67 100 143 189 229 299 367 425
#
# _framework density 26.288391000000001
#
# number of rings (size 3 to 8) (size 9 to 14) (size 15 to 20)
#    0.000    0.667    5.000    4.000    0.000    4.000 
#    0.000    2.500    0.000    2.000    0.000    0.000 
#    0.000    0.000    0.000    0.000    0.000    0.000 
#
# Total GULP energy -134220.132042 kJ/mol
# GULP energy per Si atom -5592.505502 kJ/mol
# Density = 2.622856 g / cm^3
# Si number density = 26.288391 Si / 1000 Ang^3
#
#
#
# Elastic Constant Matrix: (Units=GPa)
#
#
# Indices 1 2 3 4 5 6 
#
# 1 189.7599 23.7766 56.5641 0.0000 0.0000 0.0000
# 2 23.7766 53.4999 6.8847 0.0000 0.0000 0.0000
# 3 56.5641 6.8847 104.1626 0.0000 0.0000 0.0000
# 4 0.0000 0.0000 0.0000 13.3077 0.0000 0.0000
# 5 0.0000 0.0000 0.0000 0.0000 58.3003 0.0000
# 6 0.0000 0.0000 0.0000 0.0000 0.0000 48.4324
#
#
#
# Elastic Compliance Matrix: (Units=1/GPa)
#
#
# Indices 1 2 3 4 5 6 
#
# 1 0.006602 -0.002494 -0.003420 0.000000 0.000000 0.000000
# 2 -0.002494 0.019794 0.000046 0.000000 0.000000 0.000000
# 3 -0.003420 0.000046 0.011455 0.000000 0.000000 0.000000
# 4 0.000000 0.000000 0.000000 0.075144 0.000000 0.000000
# 5 0.000000 0.000000 0.000000 0.000000 0.017153 0.000000
# 6 0.000000 0.000000 0.000000 0.000000 0.000000 0.020647
#
#
# Mechanical properties :
#
#
# Convention : Reuss Voigt Hill
#
# Bulk Modulus (GPa) = 38.29320 57.98591 48.13956
# Shear Modulus (GPa) = 29.19950 41.35453 35.27702
#
# Velocity S-wave (km/s) = 3.33639 3.97055 3.66720
# Velocity P-wave (km/s) = 5.42588 6.56703 6.02354
#
# Compressibility (1/GPa) = 0.02611429
#
# Stress axis : x y z
#
# Youngs Moduli (GPa) = 151.47400 50.52020 87.30101
#
# Poissons Ratio (x) = 0.12599 0.29859
# Poissons Ratio (y) = 0.37776 -0.00401
# Poissons Ratio (z) = 0.51807 -0.00232
#
# Static dielectric constant tensor:
#      x y z
#    x 2.064930 0.000000 0.000000 
#    y 0.000000 2.105020 0.000000 
#    z 0.000000 0.000000 2.115390 
# 
# From -- ./inp_files/10291.got.cif
#   From: 2010.05.17/outbox.cif.g08.bks.cpg/sg41_6_cif.got.tgz:10291.got - 2010.06.03 18:54:24.
