data_PCOD9367844
_publ_section_title
;
Structure prediction by ZEFSAII (Michael W. Deem and Ramdas Pophale) SiO2 
 PCOD9367844
Probable space group: A B A 2
;
_chemical_formula_sum "Si O2"
_cell_formula_units_Z 32
_cell_length_a 15.309018
_cell_length_b 8.412645
_cell_length_c 10.305078
_cell_angle_alpha 90.000000
_cell_angle_beta 90.000000
_cell_angle_gamma 90.000000
_cell_volume 1327.184130
_symmetry_space_group_name_H-M "A B A 2"
_symmetry_group_IT_number 41
_symmetry_cell_setting 'orthorhombic'
loop_
_space_group_symop_operation_xyz
x,y,z
-x,-y,z
1/2-x,y,1/2+z
1/2+x,-y,1/2+z
x,1/2+y,1/2+z
-x,1/2-y,1/2+z
1/2-x,1/2+y,z
1/2+x,1/2-y,z
loop_
_atom_site_type_symbol
_atom_site_label
_atom_site_fract_x
_atom_site_fract_y
_atom_site_fract_z
Si Si1 0.702411 0.105495 0.103140
Si Si2 0.842915 0.078392 0.882871
Si Si3 0.937893 0.358068 0.559098
Si Si4 0.066814 0.619266 0.955272
O O1 0.712650 0.053889 0.252886
O O2 0.652471 0.275569 0.104001
O O3 0.787472 0.111591 0.013490
O O4 0.641020 0.979231 0.028078
O O5 0.897062 0.240652 0.866627
O O6 0.905631 0.932122 0.919932
O O7 0.000000 0.500000 0.610883
O O8 0.004811 0.211925 0.555362
O O9 0.000000 0.500000 0.887233
#
# Coordination Sequence:
#
# PCOD9367844 Si02
#       4
#     8   8   8   8
#     4  11  24  42  65  95 131 170 213 262 319 384
#     4  11  24  42  65  95 131 170 213 262 319 384
#     4   9  21  41  64  94 126 162 210 267 321 373
#     4   9  21  41  64  94 126 162 210 267 321 373
#
# _framework density 24.111198000000002
#
# number of rings (size 3 to 8) (size 9 to 14) (size 15 to 20)
#    0.000    2.000    0.000    1.500    0.000   18.000 
#    0.000   15.000    0.000    0.000    0.000    0.000 
#    0.000    0.000    0.000    0.000    0.000    0.000 
#
# Total GULP energy -89172.310085 kJ/mol
# GULP energy per Si atom -5573.269380 kJ/mol
# Density = 2.405632 g / cm^3
# Si number density = 24.111198 Si / 1000 Ang^3
#
#
#
# Elastic Constant Matrix: (Units=GPa)
#
#
# Indices 1 2 3 4 5 6 
#
# 1 69.1419 7.7514 1.5006 0.0000 0.0000 0.0000
# 2 7.7514 89.5921 -9.1349 0.0000 0.0000 0.0000
# 3 1.5006 -9.1349 103.7626 0.0000 0.0000 0.0000
# 4 0.0000 0.0000 0.0000 -3.6622 0.0000 0.0000
# 5 0.0000 0.0000 0.0000 0.0000 -6.5521 0.0000
# 6 0.0000 0.0000 0.0000 0.0000 0.0000 52.7156
#
#
#
# Elastic Compliance Matrix: (Units=1/GPa)
#
#
# Indices 1 2 3 4 5 6 
#
# 1 0.014616 -0.001298 -0.000326 0.000000 0.000000 0.000000
# 2 -0.001298 0.011378 0.001020 0.000000 0.000000 0.000000
# 3 -0.000326 0.001020 0.009732 0.000000 0.000000 0.000000
# 4 0.000000 0.000000 0.000000 -0.273058 0.000000 0.000000
# 5 0.000000 0.000000 0.000000 0.000000 -0.152623 0.000000
# 6 0.000000 0.000000 0.000000 0.000000 0.000000 0.018970
#
#
# Mechanical properties :
#
#
# Convention : Reuss Voigt Hill
#
# Bulk Modulus (GPa) = 28.96894 29.19232 29.08063
# Shear Modulus (GPa) = -13.95582 25.99222 6.01820
#
# Velocity S-wave (km/s) = -2.40846 3.28687 1.58159
# Velocity P-wave (km/s) = 2.07523 5.15154 3.92715
#
# Compressibility (1/GPa) = 0.03451973
#
# Stress axis : x y z
#
# Youngs Moduli (GPa) = 68.42026 87.88875 102.75454
#
# Poissons Ratio (x) = 0.11406 0.03346
# Poissons Ratio (y) = 0.08879 -0.10486
# Poissons Ratio (z) = 0.02228 -0.08969
#
# Static dielectric constant tensor:
#      x y z
#    x 1.989400 0.000000 0.000000 
#    y 0.000000 1.884380 0.000000 
#    z 0.000000 0.000000 1.891650 
# 
# From -- ./inp_files/3283.got.cif
#   From: 2010.05.17/outbox.cif.g08.bks.cpg/sg41_2_cif.got.tgz:3283.got - 2010.06.03 18:54:24.
