data_PCOD9367500
_publ_section_title
;
Structure prediction by ZEFSAII (Michael W. Deem and Ramdas Pophale) SiO2 
 PCOD9367500
Probable space group: A B A 2
;
_chemical_formula_sum "Si O2"
_cell_formula_units_Z 60
_cell_length_a 14.958081
_cell_length_b 9.194449
_cell_length_c 20.798704
_cell_angle_alpha 90.000000
_cell_angle_beta 90.000000
_cell_angle_gamma 90.000000
_cell_volume 2860.473068
_symmetry_space_group_name_H-M "A B A 2"
_symmetry_group_IT_number 41
_symmetry_cell_setting 'orthorhombic'
loop_
_space_group_symop_operation_xyz
x,y,z
-x,-y,z
1/2-x,y,1/2+z
1/2+x,-y,1/2+z
x,1/2+y,1/2+z
-x,1/2-y,1/2+z
1/2-x,1/2+y,z
1/2+x,1/2-y,z
loop_
_atom_site_type_symbol
_atom_site_label
_atom_site_fract_x
_atom_site_fract_y
_atom_site_fract_z
Si Si1 0.389428 0.667352 0.171750
Si Si2 0.894725 0.994857 0.679524
Si Si3 0.810321 0.153325 0.865123
Si Si4 0.500000 0.000000 0.569600
Si Si5 0.530917 0.345646 0.311978
Si Si6 0.684591 0.090437 0.511332
Si Si7 0.724624 0.365794 0.586074
Si Si8 0.151251 0.163064 0.805595
O O1 0.368036 0.837197 0.180590
O O2 0.463308 0.625910 0.117761
O O3 0.427458 0.620370 0.240915
O O4 0.299572 0.602327 0.140501
O O5 0.868411 0.927171 0.611555
O O6 0.847529 0.894836 0.732608
O O7 0.000000 0.000000 0.692353
O O8 0.892158 0.259667 0.848747
O O9 0.725809 0.220057 0.826698
O O10 0.833952 0.987266 0.844893
O O11 0.797258 0.152042 0.941338
O O12 0.418820 0.945285 0.525598
O O13 0.500000 0.500000 0.340037
O O14 0.445052 0.240158 0.311099
O O15 0.715965 0.199345 0.567332
O O16 0.741435 0.946148 0.522723
#
# Coordination Sequence:
#
# PCOD9367500 Si02
#       8
#     8   8   8   4   8   8   8   8
#     4  11  21  43  66 104 140 170 227 289 355 411
#     4  12  22  40  68 102 139 174 228 288 353 419
#     4  12  26  48  67 103 139 188 238 282 342 420
#     4  10  24  42  72 100 134 184 224 292 346 412
#     4  12  25  45  72 106 140 177 232 292 355 419
#     4  11  25  45  69  97 140 185 233 276 341 415
#     4  11  24  42  69 102 136 183 225 289 347 413
#     4  12  26  43  72 100 138 182 229 292 350 413
#
# _framework density 20.975552
#
# number of rings (size 3 to 8) (size 9 to 14) (size 15 to 20)
#    0.000    0.533    4.667    3.600    1.867    0.000 
#    0.000    2.000    0.000    0.000    0.000    0.000 
#    0.000    0.000    0.000    0.000    0.000    0.000 
#
# Total GULP energy -167585.785182 kJ/mol
# GULP energy per Si atom -5586.192839 kJ/mol
# Density = 2.092781 g / cm^3
# Si number density = 20.975552 Si / 1000 Ang^3
#
#
#
# Elastic Constant Matrix: (Units=GPa)
#
#
# Indices 1 2 3 4 5 6 
#
# 1 85.7739 35.9251 61.3361 0.0000 0.0000 0.0000
# 2 35.9251 82.9875 20.7771 0.0000 0.0000 0.0000
# 3 61.3361 20.7771 78.9592 0.0000 0.0000 0.0000
# 4 0.0000 0.0000 0.0000 29.2571 0.0000 0.0000
# 5 0.0000 0.0000 0.0000 0.0000 13.4882 0.0000
# 6 0.0000 0.0000 0.0000 0.0000 0.0000 31.5029
#
#
#
# Elastic Compliance Matrix: (Units=1/GPa)
#
#
# Indices 1 2 3 4 5 6 
#
# 1 0.030232 -0.007716 -0.021454 0.000000 0.000000 0.000000
# 2 -0.007716 0.014869 0.002081 0.000000 0.000000 0.000000
# 3 -0.021454 0.002081 0.028783 0.000000 0.000000 0.000000
# 4 0.000000 0.000000 0.000000 0.034180 0.000000 0.000000
# 5 0.000000 0.000000 0.000000 0.000000 0.074139 0.000000
# 6 0.000000 0.000000 0.000000 0.000000 0.000000 0.031743
#
#
# Mechanical properties :
#
#
# Convention : Reuss Voigt Hill
#
# Bulk Modulus (GPa) = 50.74529 53.75525 52.25027
# Shear Modulus (GPa) = 18.20223 23.49511 20.84867
#
# Velocity S-wave (km/s) = 2.94901 3.35045 3.15612
# Velocity P-wave (km/s) = 5.98671 6.37578 6.18430
#
# Compressibility (1/GPa) = 0.01970626
#
# Stress axis : x y z
#
# Youngs Moduli (GPa) = 33.07778 67.25317 34.74308
#
# Poissons Ratio (x) = 0.51892 0.74538
# Poissons Ratio (y) = 0.25523 -0.07231
# Poissons Ratio (z) = 0.70965 -0.13997
#
# Static dielectric constant tensor:
#      x y z
#    x 1.781530 0.000000 0.000000 
#    y 0.000000 1.794540 0.000000 
#    z 0.000000 0.000000 1.745700 
# 
# From -- ./inp_files/12217.got.cif
#   From: 2010.05.17/outbox.cif.g08.bks.cpg/sg41_7_cif.got.tgz:12217.got - 2010.06.03 18:54:24.
