data_PCOD9367531
_publ_section_title
;
Structure prediction by ZEFSAII (Michael W. Deem and Ramdas Pophale) SiO2 
 PCOD9367531
Probable space group: A B A 2
;
_chemical_formula_sum "Si O2"
_cell_formula_units_Z 64
_cell_length_a 9.631015
_cell_length_b 21.748055
_cell_length_c 14.338350
_cell_angle_alpha 90.000000
_cell_angle_beta 90.000000
_cell_angle_gamma 90.000000
_cell_volume 3003.251200
_symmetry_space_group_name_H-M "A B A 2"
_symmetry_group_IT_number 41
_symmetry_cell_setting 'orthorhombic'
loop_
_space_group_symop_operation_xyz
x,y,z
-x,-y,z
1/2-x,y,1/2+z
1/2+x,-y,1/2+z
x,1/2+y,1/2+z
-x,1/2-y,1/2+z
1/2-x,1/2+y,z
1/2+x,1/2-y,z
loop_
_atom_site_type_symbol
_atom_site_label
_atom_site_fract_x
_atom_site_fract_y
_atom_site_fract_z
Si Si1 0.312248 0.750126 0.697260
Si Si2 0.082644 0.167373 0.525678
Si Si3 0.672616 0.421569 0.967027
Si Si4 0.717527 0.639881 0.572549
Si Si5 0.664729 0.008769 0.304898
Si Si6 0.886973 0.136082 0.892068
Si Si7 0.932844 0.268945 0.823046
Si Si8 0.648829 0.513278 0.137044
O O1 0.381017 0.709959 0.614695
O O2 0.231283 0.803881 0.643343
O O3 0.205033 0.713113 0.764097
O O4 0.430062 0.780497 0.762334
O O5 0.214762 0.125392 0.504390
O O6 0.058114 0.203956 0.427750
O O7 0.944911 0.129007 0.552882
O O8 0.724762 0.461413 0.879838
O O9 0.530306 0.388524 0.936948
O O10 0.642921 0.471337 0.046182
O O11 0.786105 0.657611 0.474215
O O12 0.807820 0.582160 0.608191
O O13 0.683120 0.079476 0.336939
O O14 0.731110 0.994078 0.206890
O O15 0.500000 0.000000 0.302779
O O16 0.921982 0.195060 0.831362
O O17 0.500000 0.500000 0.184077
#
# Coordination Sequence:
#
# PCOD9367531 Si02
#       8
#     8   8   8   8   8   8   8   8
#     4  12  27  46  72 112 145 188 246 301 367 440
#     4  12  29  45  73 108 146 192 242 305 365 438
#     4  11  25  46  71 102 142 189 237 293 357 429
#     4  12  25  47  73 103 143 190 239 299 362 428
#     4  10  24  44  71 105 141 183 237 294 357 428
#     4  11  22  47  75 100 144 189 235 294 361 432
#     4  12  26  46  74 106 147 193 240 298 374 439
#     4  12  25  46  74 104 138 192 237 295 359 423
#
# _framework density 21.310238999999999
#
# number of rings (size 3 to 8) (size 9 to 14) (size 15 to 20)
#    0.000    0.500    5.000    2.625    5.250    4.000 
#    0.000    0.000    0.000    0.000    0.000    0.000 
#    0.000    0.000    0.000    0.000    0.000    0.000 
#
# Total GULP energy -178934.338229 kJ/mol
# GULP energy per Si atom -5591.698070 kJ/mol
# Density = 2.126174 g / cm^3
# Si number density = 21.310239 Si / 1000 Ang^3
#
#
#
# Elastic Constant Matrix: (Units=GPa)
#
#
# Indices 1 2 3 4 5 6 
#
# 1 87.1643 8.9599 18.3294 0.0000 0.0000 0.0000
# 2 8.9599 51.5232 10.7653 0.0000 0.0000 0.0000
# 3 18.3294 10.7653 88.1272 0.0000 0.0000 0.0000
# 4 0.0000 0.0000 0.0000 23.8597 0.0000 0.0000
# 5 0.0000 0.0000 0.0000 0.0000 37.2460 0.0000
# 6 0.0000 0.0000 0.0000 0.0000 0.0000 104.3705
#
#
#
# Elastic Compliance Matrix: (Units=1/GPa)
#
#
# Indices 1 2 3 4 5 6 
#
# 1 0.012128 -0.001623 -0.002324 0.000000 0.000000 0.000000
# 2 -0.001623 0.020134 -0.002122 0.000000 0.000000 0.000000
# 3 -0.002324 -0.002122 0.012090 0.000000 0.000000 0.000000
# 4 0.000000 0.000000 0.000000 0.041912 0.000000 0.000000
# 5 0.000000 0.000000 0.000000 0.000000 0.026848 0.000000
# 6 0.000000 0.000000 0.000000 0.000000 0.000000 0.009581
#
#
# Mechanical properties :
#
#
# Convention : Reuss Voigt Hill
#
# Bulk Modulus (GPa) = 31.04304 33.65819 32.35062
# Shear Modulus (GPa) = 34.34755 45.67925 40.01340
#
# Velocity S-wave (km/s) = 4.01906 4.63486 4.33790
# Velocity P-wave (km/s) = 6.01132 6.66867 6.34851
#
# Compressibility (1/GPa) = 0.03221334
#
# Stress axis : x y z
#
# Youngs Moduli (GPa) = 82.45234 49.66628 82.71406
#
# Poissons Ratio (x) = 0.08063 0.19224
# Poissons Ratio (y) = 0.13386 0.17551
# Poissons Ratio (z) = 0.19164 0.10539
#
# Static dielectric constant tensor:
#      x y z
#    x 1.791380 0.000000 0.000000 
#    y 0.000000 1.767370 0.000000 
#    z 0.000000 0.000000 1.779730 
# 
# From -- ./inp_files/7568.got.cif
#   From: 2010.05.17/outbox.cif.g08.bks.cpg/sg41_4_cif.got.tgz:7568.got - 2010.06.03 18:54:24.
