data_PCOD9367282
_publ_section_title
;
Structure prediction by ZEFSAII (Michael W. Deem and Ramdas Pophale) SiO2 
 PCOD9367282
Probable space group: A B A 2
;
_chemical_formula_sum "Si O2"
_cell_formula_units_Z 56
_cell_length_a 14.761612
_cell_length_b 13.573277
_cell_length_c 11.114106
_cell_angle_alpha 90.000000
_cell_angle_beta 90.000000
_cell_angle_gamma 90.000000
_cell_volume 2226.860607
_symmetry_space_group_name_H-M "A B A 2"
_symmetry_group_IT_number 41
_symmetry_cell_setting 'orthorhombic'
loop_
_space_group_symop_operation_xyz
x,y,z
-x,-y,z
1/2-x,y,1/2+z
1/2+x,-y,1/2+z
x,1/2+y,1/2+z
-x,1/2-y,1/2+z
1/2-x,1/2+y,z
1/2+x,1/2-y,z
loop_
_atom_site_type_symbol
_atom_site_label
_atom_site_fract_x
_atom_site_fract_y
_atom_site_fract_z
Si Si1 0.777134 0.335217 0.561640
Si Si2 0.536913 0.127407 0.116246
Si Si3 0.103638 0.650896 0.929875
Si Si4 0.500000 0.500000 0.828500
Si Si5 0.793234 0.700120 0.268105
Si Si6 0.190979 0.875221 0.466679
Si Si7 0.127136 0.967302 0.051899
Si Si8 0.000000 0.500000 0.754863
O O1 0.693916 0.388207 0.495753
O O2 0.747303 0.284903 0.686791
O O3 0.816960 0.244421 0.483142
O O4 0.851107 0.418351 0.579241
O O5 0.626657 0.160445 0.184656
O O6 0.478917 0.082381 0.226612
O O7 0.466858 0.183676 0.032751
O O8 0.596953 0.074588 0.008213
O O9 0.146195 0.746024 0.868023
O O10 0.057800 0.577659 0.834368
O O11 0.421753 0.467578 0.921112
O O12 0.726213 0.621529 0.328945
O O13 0.278465 0.909813 0.542418
O O14 0.062356 0.937504 0.161179
#
# Coordination Sequence:
#
# PCOD9367282 Si02
#       8
#     8   8   8   4   8   8   8   4
#     4  10  24  45  69 103 142 193 241 293 370 436
#     4  11  25  41  68 103 144 180 243 302 360 427
#     4  11  25  41  68 103 144 180 243 302 360 427
#     4  11  25  44  70 108 141 185 252 300 370 429
#     4  10  22  48  68 102 144 192 246 296 362 448
#     4  10  24  45  69 103 142 193 241 293 370 436
#     4  11  24  46  77  98 146 198 243 304 372 437
#     4  11  25  44  70 108 141 185 252 300 370 429
#
# _framework density 25.14751
#
# number of rings (size 3 to 8) (size 9 to 14) (size 15 to 20)
#    0.000    1.429    2.857    0.429    4.000   11.429 
#    0.000    0.000    0.000    0.000    0.000    0.000 
#    0.000    0.000    0.000    0.000    0.000    0.000 
#
# Total GULP energy -155988.183585 kJ/mol
# GULP energy per Si atom -5571.006557 kJ/mol
# Density = 2.509027 g / cm^3
# Si number density = 25.147510 Si / 1000 Ang^3
#
#
#
# Elastic Constant Matrix: (Units=GPa)
#
#
# Indices 1 2 3 4 5 6 
#
# 1 82.5326 -2.7588 53.3799 0.0000 0.0000 0.0000
# 2 -2.7588 41.6046 12.9301 0.0000 0.0000 0.0000
# 3 53.3799 12.9301 148.7857 0.0000 0.0000 0.0000
# 4 0.0000 0.0000 0.0000 31.0161 0.0000 0.0000
# 5 0.0000 0.0000 0.0000 0.0000 42.7779 0.0000
# 6 0.0000 0.0000 0.0000 0.0000 0.0000 28.4693
#
#
#
# Elastic Compliance Matrix: (Units=1/GPa)
#
#
# Indices 1 2 3 4 5 6 
#
# 1 0.016121 0.002946 -0.006040 0.000000 0.000000 0.000000
# 2 0.002946 0.025241 -0.003251 0.000000 0.000000 0.000000
# 3 -0.006040 -0.003251 0.009170 0.000000 0.000000 0.000000
# 4 0.000000 0.000000 0.000000 0.032241 0.000000 0.000000
# 5 0.000000 0.000000 0.000000 0.000000 0.023377 0.000000
# 6 0.000000 0.000000 0.000000 0.000000 0.000000 0.035126
#
#
# Mechanical properties :
#
#
# Convention : Reuss Voigt Hill
#
# Bulk Modulus (GPa) = 26.42387 44.44725 35.43556
# Shear Modulus (GPa) = 30.01557 34.41078 32.21317
#
# Velocity S-wave (km/s) = 3.45857 3.70314 3.58295
# Velocity P-wave (km/s) = 5.14581 5.99978 5.58913
#
# Compressibility (1/GPa) = 0.03784457
#
# Stress axis : x y z
#
# Youngs Moduli (GPa) = 62.02957 39.61747 109.04540
#
# Poissons Ratio (x) = -0.11672 0.65862
# Poissons Ratio (y) = -0.18275 0.35446
# Poissons Ratio (z) = 0.37465 0.12878
#
# Static dielectric constant tensor:
#      x y z
#    x 2.192410 0.000000 0.000000 
#    y 0.000000 2.169910 0.000000 
#    z 0.000000 0.000000 2.220620 
# 
# From -- ./inp_files/5635.got.cif
#   From: 2010.05.17/outbox.cif.g08.bks.cpg/sg41_3_cif.got.tgz:5635.got - 2010.06.03 18:54:24.
