data_PCOD9367071
_publ_section_title
;
Structure prediction by ZEFSAII (Michael W. Deem and Ramdas Pophale) SiO2 
 PCOD9367071
Probable space group: A B A 2
;
_chemical_formula_sum "Si O2"
_cell_formula_units_Z 60
_cell_length_a 26.802446
_cell_length_b 16.249293
_cell_length_c 5.244837
_cell_angle_alpha 90.000000
_cell_angle_beta 90.000000
_cell_angle_gamma 90.000000
_cell_volume 2284.235597
_symmetry_space_group_name_H-M "A B A 2"
_symmetry_group_IT_number 41
_symmetry_cell_setting 'orthorhombic'
loop_
_space_group_symop_operation_xyz
x,y,z
-x,-y,z
1/2-x,y,1/2+z
1/2+x,-y,1/2+z
x,1/2+y,1/2+z
-x,1/2-y,1/2+z
1/2-x,1/2+y,z
1/2+x,1/2-y,z
loop_
_atom_site_type_symbol
_atom_site_label
_atom_site_fract_x
_atom_site_fract_y
_atom_site_fract_z
Si Si1 0.546629 0.399689 0.953650
Si Si2 0.000000 0.000000 0.569275
Si Si3 0.015561 0.798760 0.295243
Si Si4 0.394838 0.009200 0.792491
Si Si5 0.216498 0.853081 0.712254
Si Si6 0.368393 0.830822 0.843665
Si Si7 0.719766 0.951636 0.240566
Si Si8 0.633590 0.838465 0.142810
O O1 0.504132 0.422995 0.760656
O O2 0.583782 0.338382 0.815807
O O3 0.520346 0.374220 0.215212
O O4 0.583442 0.475018 0.012685
O O5 0.054434 0.992138 0.447399
O O6 0.071574 0.824606 0.360435
O O7 0.990555 0.749810 0.526570
O O8 0.360182 0.928562 0.785006
O O9 0.374908 0.097236 0.905955
O O10 0.244376 0.833852 0.979545
O O11 0.164873 0.815955 0.597065
O O12 0.206822 0.951642 0.743049
O O13 0.354439 0.758982 0.638894
O O14 0.739825 0.936048 0.957732
O O15 0.676032 0.887694 0.292631
#
# Coordination Sequence:
#
# PCOD9367071 Si02
#       8
#     8   4   8   8   8   8   8   8
#     4  11  24  43  69 101 152 200 250 317 370 468
#     4  10  22  40  66  98 138 200 258 312 374 458
#     4  12  27  47  71 114 160 209 259 321 385 465
#     4  11  24  44  69 103 147 197 260 314 388 465
#     4  10  24  48  75 112 150 192 259 327 392 470
#     4  12  25  46  78 110 152 209 258 325 394 469
#     4  10  23  46  77 106 147 195 247 322 397 464
#     4  11  25  45  70 107 146 196 251 316 389 464
#
# _framework density 26.266991999999998
#
# number of rings (size 3 to 8) (size 9 to 14) (size 15 to 20)
#    0.000    1.067    2.667    2.800    5.600    3.200 
#    2.400    0.000    0.000    0.000    0.000    0.000 
#    0.000    0.000    0.000    0.000    0.000    0.000 
#
# Total GULP energy -167477.649676 kJ/mol
# GULP energy per Si atom -5582.588323 kJ/mol
# Density = 2.620721 g / cm^3
# Si number density = 26.266992 Si / 1000 Ang^3
#
#
#
# Elastic Constant Matrix: (Units=GPa)
#
#
# Indices 1 2 3 4 5 6 
#
# 1 119.6155 36.0389 44.7581 0.0000 0.0000 0.0000
# 2 36.0389 116.4917 48.8824 0.0000 0.0000 0.0000
# 3 44.7581 48.8824 117.1353 0.0000 0.0000 0.0000
# 4 0.0000 0.0000 0.0000 36.1124 0.0000 0.0000
# 5 0.0000 0.0000 0.0000 0.0000 42.6515 0.0000
# 6 0.0000 0.0000 0.0000 0.0000 0.0000 33.7492
#
#
#
# Elastic Compliance Matrix: (Units=1/GPa)
#
#
# Indices 1 2 3 4 5 6 
#
# 1 0.010063 -0.001818 -0.003086 0.000000 0.000000 0.000000
# 2 -0.001818 0.010735 -0.003785 0.000000 0.000000 0.000000
# 3 -0.003086 -0.003785 0.011296 0.000000 0.000000 0.000000
# 4 0.000000 0.000000 0.000000 0.027691 0.000000 0.000000
# 5 0.000000 0.000000 0.000000 0.000000 0.023446 0.000000
# 6 0.000000 0.000000 0.000000 0.000000 0.000000 0.029630
#
#
# Mechanical properties :
#
#
# Convention : Reuss Voigt Hill
#
# Bulk Modulus (GPa) = 67.95917 68.06681 68.01299
# Shear Modulus (GPa) = 36.99714 37.40681 37.20197
#
# Velocity S-wave (km/s) = 3.75707 3.77782 3.76746
# Velocity P-wave (km/s) = 6.68950 6.70812 6.69882
#
# Compressibility (1/GPa) = 0.01471472
#
# Stress axis : x y z
#
# Youngs Moduli (GPa) = 99.37667 93.15227 88.52608
#
# Poissons Ratio (x) = 0.16935 0.27322
# Poissons Ratio (y) = 0.18067 0.33509
# Poissons Ratio (z) = 0.30671 0.35261
#
# Static dielectric constant tensor:
#      x y z
#    x 2.065830 0.000000 0.000000 
#    y 0.000000 2.296440 0.000000 
#    z 0.000000 0.000000 2.060610 
# 
# From -- ./inp_files/1182.got.cif
#   From: 2010.05.17/outbox.cif.g08.bks.cpg/sg41_1_cif.got.tgz:1182.got - 2010.06.03 18:54:24.
