data_PCOD9367796
_publ_section_title
;
Structure prediction by ZEFSAII (Michael W. Deem and Ramdas Pophale) SiO2 
 PCOD9367796
Probable space group: A B A 2
;
_chemical_formula_sum "Si O2"
_cell_formula_units_Z 44
_cell_length_a 22.577402
_cell_length_b 13.912716
_cell_length_c 5.539789
_cell_angle_alpha 90.000000
_cell_angle_beta 90.000000
_cell_angle_gamma 90.000000
_cell_volume 1740.119643
_symmetry_space_group_name_H-M "A B A 2"
_symmetry_group_IT_number 41
_symmetry_cell_setting 'orthorhombic'
loop_
_space_group_symop_operation_xyz
x,y,z
-x,-y,z
1/2-x,y,1/2+z
1/2+x,-y,1/2+z
x,1/2+y,1/2+z
-x,1/2-y,1/2+z
1/2-x,1/2+y,z
1/2+x,1/2-y,z
loop_
_atom_site_type_symbol
_atom_site_label
_atom_site_fract_x
_atom_site_fract_y
_atom_site_fract_z
Si Si1 0.722305 0.275038 0.671530
Si Si2 0.000000 0.000000 0.264066
Si Si3 0.089863 0.200011 0.730166
Si Si4 0.461645 0.324039 0.594594
Si Si5 0.772678 0.503984 0.260520
Si Si6 0.095095 0.489999 0.381285
O O1 0.755591 0.238355 0.432846
O O2 0.651941 0.263122 0.630328
O O3 0.733407 0.389283 0.715159
O O4 0.057117 0.026644 0.105571
O O5 0.023332 0.909318 0.409294
O O6 0.085150 0.246807 0.997546
O O7 0.024891 0.226413 0.634094
O O8 0.090291 0.084108 0.709957
O O9 0.435517 0.390416 0.806607
O O10 0.728685 0.536325 0.478235
O O11 0.835257 0.524710 0.390247
#
# Coordination Sequence:
#
# PCOD9367796 Si02
#       6
#     8   4   8   8   8   8
#     4   9  20  40  65  95 133 182 236 294 354 422
#     4  12  22  42  68  94 146 178 224 308 346 432
#     4  11  23  43  69  99 138 181 238 292 360 439
#     4  12  25  43  66 107 139 185 237 291 375 428
#     4   9  20  37  65  95 129 182 235 289 358 428
#     4  11  23  44  65  99 137 181 234 297 358 425
#
# _framework density 25.285616000000001
#
# number of rings (size 3 to 8) (size 9 to 14) (size 15 to 20)
#    0.000    1.455    3.636    1.091    2.545    5.818 
#    0.000    1.818    0.000    0.000    0.000    0.000 
#    0.000    0.000    0.000    0.000    0.000    0.000 
#
# Total GULP energy -122704.025888 kJ/mol
# GULP energy per Si atom -5577.455722 kJ/mol
# Density = 2.522807 g / cm^3
# Si number density = 25.285616 Si / 1000 Ang^3
#
#
#
# Elastic Constant Matrix: (Units=GPa)
#
#
# Indices 1 2 3 4 5 6 
#
# 1 40.2413 -9.8223 8.5154 0.0000 0.0000 0.0000
# 2 -9.8223 125.6194 3.4217 0.0000 0.0000 0.0000
# 3 8.5154 3.4217 88.8708 0.0000 0.0000 0.0000
# 4 0.0000 0.0000 0.0000 300.7910 0.0000 0.0000
# 5 0.0000 0.0000 0.0000 0.0000 13.3500 0.0000
# 6 0.0000 0.0000 0.0000 0.0000 0.0000 14.6437
#
#
#
# Elastic Compliance Matrix: (Units=1/GPa)
#
#
# Indices 1 2 3 4 5 6 
#
# 1 0.025904 0.002095 -0.002563 0.000000 0.000000 0.000000
# 2 0.002095 0.008138 -0.000514 0.000000 0.000000 0.000000
# 3 -0.002563 -0.000514 0.011518 0.000000 0.000000 0.000000
# 4 0.000000 0.000000 0.000000 0.003325 0.000000 0.000000
# 5 0.000000 0.000000 0.000000 0.000000 0.074906 0.000000
# 6 0.000000 0.000000 0.000000 0.000000 0.000000 0.068289
#
#
# Mechanical properties :
#
#
# Convention : Reuss Voigt Hill
#
# Bulk Modulus (GPa) = 22.93753 28.77346 25.85550
# Shear Modulus (GPa) = 23.97218 82.59804 53.28511
#
# Velocity S-wave (km/s) = 3.08239 5.72162 4.59555
# Velocity P-wave (km/s) = 4.66468 7.41979 6.19728
#
# Compressibility (1/GPa) = 0.04359667
#
# Stress axis : x y z
#
# Youngs Moduli (GPa) = 38.60435 122.87448 86.82336
#
# Poissons Ratio (x) = -0.25745 0.22250
# Poissons Ratio (y) = -0.08089 0.04464
# Poissons Ratio (z) = 0.09893 0.06317
#
# Static dielectric constant tensor:
#      x y z
#    x 2.013710 0.000000 0.000000 
#    y 0.000000 2.030110 0.000000 
#    z 0.000000 0.000000 2.184940 
# 
# From -- ./inp_files/939.got.cif
#   From: 2010.05.17/outbox.cif.g08.bks.cpg/sg41_1_cif.got.tgz:939.got - 2010.06.03 18:54:24.
