data_PCOD9367771
_publ_section_title
;
Structure prediction by ZEFSAII (Michael W. Deem and Ramdas Pophale) SiO2 
 PCOD9367771
Probable space group: A B A 2
;
_chemical_formula_sum "Si O2"
_cell_formula_units_Z 40
_cell_length_a 8.700878
_cell_length_b 23.047547
_cell_length_c 8.733720
_cell_angle_alpha 90.000000
_cell_angle_beta 90.000000
_cell_angle_gamma 90.000000
_cell_volume 1751.406886
_symmetry_space_group_name_H-M "A B A 2"
_symmetry_group_IT_number 41
_symmetry_cell_setting 'orthorhombic'
loop_
_space_group_symop_operation_xyz
x,y,z
-x,-y,z
1/2-x,y,1/2+z
1/2+x,-y,1/2+z
x,1/2+y,1/2+z
-x,1/2-y,1/2+z
1/2-x,1/2+y,z
1/2+x,1/2-y,z
loop_
_atom_site_type_symbol
_atom_site_label
_atom_site_fract_x
_atom_site_fract_y
_atom_site_fract_z
Si Si1 0.605053 0.405347 0.800890
Si Si2 0.904871 0.212600 0.137440
Si Si3 0.185127 0.217581 0.931716
Si Si4 0.106055 0.914645 0.065294
Si Si5 0.726546 0.463556 0.070382
O O1 0.680410 0.344106 0.845616
O O2 0.630435 0.426080 0.629546
O O3 0.440133 0.407010 0.884383
O O4 0.704702 0.454184 0.889171
O O5 0.166210 0.245646 0.507311
O O6 0.878058 0.238480 0.303681
O O7 0.841237 0.147344 0.125226
O O8 0.079498 0.209013 0.081954
O O9 0.935428 0.933764 0.126942
O O10 0.217734 0.968052 0.095721
#
# Coordination Sequence:
#
# PCOD9367771 Si02
#       5
#     8   8   8   8   8
#     4   9  18  34  59  80 107 155 189 238 293 359
#     4  11  23  40  58  91 119 163 196 256 297 366
#     4  11  23  38  62  86 125 155 206 244 309 356
#     4   8  20  36  56  81 116 142 199 244 292 350
#     4   9  17  36  59  76 111 150 187 244 293 349
#
# _framework density 22.838781999999998
#
# number of rings (size 3 to 8) (size 9 to 14) (size 15 to 20)
#    1.200    1.200    0.000    2.400    2.800    1.600 
#    0.000    0.000    8.800    0.000    0.000    0.000 
#    0.000    0.000    0.000    0.000    0.000    0.000 
#
# Total GULP energy -111369.344169 kJ/mol
# GULP energy per Si atom -5568.467208 kJ/mol
# Density = 2.278680 g / cm^3
# Si number density = 22.838782 Si / 1000 Ang^3
#
#
#
# Elastic Constant Matrix: (Units=GPa)
#
#
# Indices 1 2 3 4 5 6 
#
# 1 24.4593 10.6597 1.0860 0.0000 0.0000 0.0000
# 2 10.6597 132.5226 -10.2362 0.0000 0.0000 0.0000
# 3 1.0860 -10.2362 41.0087 0.0000 0.0000 0.0000
# 4 0.0000 0.0000 0.0000 26.1875 0.0000 0.0000
# 5 0.0000 0.0000 0.0000 0.0000 38.2580 0.0000
# 6 0.0000 0.0000 0.0000 0.0000 0.0000 17.8849
#
#
#
# Elastic Compliance Matrix: (Units=1/GPa)
#
#
# Indices 1 2 3 4 5 6 
#
# 1 0.042533 -0.003577 -0.002019 0.000000 0.000000 0.000000
# 2 -0.003577 0.007995 0.002090 0.000000 0.000000 0.000000
# 3 -0.002019 0.002090 0.024960 0.000000 0.000000 0.000000
# 4 0.000000 0.000000 0.000000 0.038186 0.000000 0.000000
# 5 0.000000 0.000000 0.000000 0.000000 0.026138 0.000000
# 6 0.000000 0.000000 0.000000 0.000000 0.000000 0.055913
#
#
# Mechanical properties :
#
#
# Convention : Reuss Voigt Hill
#
# Bulk Modulus (GPa) = 14.60361 22.33441 18.46901
# Shear Modulus (GPa) = 22.16672 29.56484 25.86578
#
# Velocity S-wave (km/s) = 3.11878 3.60182 3.36897
# Velocity P-wave (km/s) = 4.40195 5.20556 4.82053
#
# Compressibility (1/GPa) = 0.06847621
#
# Stress axis : x y z
#
# Youngs Moduli (GPa) = 23.51117 125.07687 40.06361
#
# Poissons Ratio (x) = 0.44742 0.08090
# Poissons Ratio (y) = 0.08410 -0.08375
# Poissons Ratio (z) = 0.04748 -0.26146
#
# Static dielectric constant tensor:
#      x y z
#    x 1.792770 0.000000 0.000000 
#    y 0.000000 1.852150 0.000000 
#    z 0.000000 0.000000 1.874990 
# 
# From -- ./inp_files/2042.got.cif
#   From: 2010.05.17/outbox.cif.g08.bks.cpg/sg41_2_cif.got.tgz:2042.got - 2010.06.03 18:54:24.
