data_PCOD9367090
_publ_section_title
;
Structure prediction by ZEFSAII (Michael W. Deem and Ramdas Pophale) SiO2 
 PCOD9367090
Probable space group: A B A 2
;
_chemical_formula_sum "Si O2"
_cell_formula_units_Z 48
_cell_length_a 20.739747
_cell_length_b 8.845647
_cell_length_c 11.343466
_cell_angle_alpha 90.000000
_cell_angle_beta 90.000000
_cell_angle_gamma 90.000000
_cell_volume 2081.032353
_symmetry_space_group_name_H-M "A B A 2"
_symmetry_group_IT_number 41
_symmetry_cell_setting 'orthorhombic'
loop_
_space_group_symop_operation_xyz
x,y,z
-x,-y,z
1/2-x,y,1/2+z
1/2+x,-y,1/2+z
x,1/2+y,1/2+z
-x,1/2-y,1/2+z
1/2-x,1/2+y,z
1/2+x,1/2-y,z
loop_
_atom_site_type_symbol
_atom_site_label
_atom_site_fract_x
_atom_site_fract_y
_atom_site_fract_z
Si Si1 0.931524 0.572465 0.775140
Si Si2 0.627598 0.742815 0.456318
Si Si3 0.425629 0.436330 0.012291
Si Si4 0.206102 0.489487 0.085637
Si Si5 0.656302 0.810085 0.875266
Si Si6 0.777464 0.226181 0.235773
O O1 0.934814 0.686121 0.885396
O O2 0.917486 0.632374 0.644299
O O3 0.882836 0.437963 0.806417
O O4 0.000000 0.500000 0.762272
O O5 0.649765 0.631827 0.560108
O O6 0.678433 0.708883 0.350867
O O7 0.617892 0.912719 0.496714
O O8 0.500000 0.500000 0.995487
O O9 0.395063 0.307794 0.928970
O O10 0.200613 0.612439 0.187331
O O11 0.268630 0.391885 0.126977
O O12 0.200988 0.598276 0.970416
O O13 0.705879 0.729442 0.789041
#
# Coordination Sequence:
#
# PCOD9367090 Si02
#       6
#     8   8   8   8   8   8
#     4  10  22  41  63  90 128 173 222 274 325 383
#     4  11  24  41  65  96 131 171 219 271 329 395
#     4  11  24  44  70  99 134 177 226 278 332 395
#     4  11  24  39  60  91 129 170 212 262 323 388
#     4  11  24  41  65  96 131 171 219 271 329 395
#     4  12  24  40  62  94 130 168 214 266 328 396
#
# _framework density 23.065473999999998
#
# number of rings (size 3 to 8) (size 9 to 14) (size 15 to 20)
#    0.000    1.000    0.000    7.000    0.000    6.667 
#    0.000    0.000    0.000   12.000    0.000    0.000 
#    0.000    0.000    0.000    0.000    0.000    0.000 
#
# Total GULP energy -133893.102203 kJ/mol
# GULP energy per Si atom -5578.879258 kJ/mol
# Density = 2.301298 g / cm^3
# Si number density = 23.065474 Si / 1000 Ang^3
#
#
#
# Elastic Constant Matrix: (Units=GPa)
#
#
# Indices 1 2 3 4 5 6 
#
# 1 72.2557 29.4810 34.2489 0.0000 0.0000 0.0000
# 2 29.4810 118.2272 30.5548 0.0000 0.0000 0.0000
# 3 34.2489 30.5548 85.3022 0.0000 0.0000 0.0000
# 4 0.0000 0.0000 0.0000 54.2636 0.0000 0.0000
# 5 0.0000 0.0000 0.0000 0.0000 31.9252 0.0000
# 6 0.0000 0.0000 0.0000 0.0000 0.0000 15.6520
#
#
#
# Elastic Compliance Matrix: (Units=1/GPa)
#
#
# Indices 1 2 3 4 5 6 
#
# 1 0.017939 -0.002878 -0.006172 0.000000 0.000000 0.000000
# 2 -0.002878 0.009783 -0.002349 0.000000 0.000000 0.000000
# 3 -0.006172 -0.002349 0.015042 0.000000 0.000000 0.000000
# 4 0.000000 0.000000 0.000000 0.018429 0.000000 0.000000
# 5 0.000000 0.000000 0.000000 0.000000 0.031323 0.000000
# 6 0.000000 0.000000 0.000000 0.000000 0.000000 0.063890
#
#
# Mechanical properties :
#
#
# Convention : Reuss Voigt Hill
#
# Bulk Modulus (GPa) = 50.08147 51.59494 50.83821
# Shear Modulus (GPa) = 26.90210 32.46820 29.68515
#
# Velocity S-wave (km/s) = 3.41887 3.75594 3.59136
# Velocity P-wave (km/s) = 6.11104 6.42082 6.26784
#
# Compressibility (1/GPa) = 0.01996747
#
# Stress axis : x y z
#
# Youngs Moduli (GPa) = 55.74292 102.21815 66.47953
#
# Poissons Ratio (x) = 0.29422 0.41029
# Poissons Ratio (y) = 0.16045 0.15613
# Poissons Ratio (z) = 0.34403 0.24006
#
# Static dielectric constant tensor:
#      x y z
#    x 2.103920 0.000000 0.000000 
#    y 0.000000 1.797030 0.000000 
#    z 0.000000 0.000000 1.923020 
# 
# From -- ./inp_files/6407.got.cif
#   From: 2010.05.17/outbox.cif.g08.bks.cpg/sg41_4_cif.got.tgz:6407.got - 2010.06.03 18:54:24.
