data_PCOD9367337
_publ_section_title
;
Structure prediction by ZEFSAII (Michael W. Deem and Ramdas Pophale) SiO2 
 PCOD9367337
Probable space group: A B A 2
;
_chemical_formula_sum "Si O2"
_cell_formula_units_Z 64
_cell_length_a 9.360784
_cell_length_b 14.527117
_cell_length_c 21.758572
_cell_angle_alpha 90.000000
_cell_angle_beta 90.000000
_cell_angle_gamma 90.000000
_cell_volume 2958.843860
_symmetry_space_group_name_H-M "A B A 2"
_symmetry_group_IT_number 41
_symmetry_cell_setting 'orthorhombic'
loop_
_space_group_symop_operation_xyz
x,y,z
-x,-y,z
1/2-x,y,1/2+z
1/2+x,-y,1/2+z
x,1/2+y,1/2+z
-x,1/2-y,1/2+z
1/2-x,1/2+y,z
1/2+x,1/2-y,z
loop_
_atom_site_type_symbol
_atom_site_label
_atom_site_fract_x
_atom_site_fract_y
_atom_site_fract_z
Si Si1 0.931488 0.098769 0.160100
Si Si2 0.906554 0.785658 0.988220
Si Si3 0.815625 0.163181 0.035160
Si Si4 0.181954 0.766551 0.352622
Si Si5 0.421180 0.729157 0.262097
Si Si6 0.828077 0.019016 0.347332
Si Si7 0.857365 0.557751 0.231261
Si Si8 0.160558 0.520993 0.462163
O O1 0.897314 0.156369 0.099250
O O2 0.774737 0.072322 0.185412
O O3 0.028697 0.158664 0.208179
O O4 0.000000 0.000000 0.146394
O O5 0.854177 0.772633 0.918768
O O6 0.859667 0.889136 0.003492
O O7 0.833292 0.714832 0.033903
O O8 0.076653 0.780739 0.991018
O O9 0.797209 0.063521 0.005202
O O10 0.286379 0.711360 0.306829
O O11 0.214029 0.874624 0.363574
O O12 0.044284 0.773640 0.311286
O O13 0.403428 0.835720 0.242329
O O14 0.725278 0.007479 0.288261
O O15 0.772187 0.965773 0.407169
O O16 0.000000 0.000000 0.336673
O O17 0.000000 0.500000 0.215223
O O18 0.000000 0.500000 0.436409
#
# Coordination Sequence:
#
# PCOD9367337 Si02
#       8
#     8   8   8   8   8   8   8   8
#     4  12  27  49  74  98 141 187 236 293 353 410
#     4  11  24  42  73  95 140 183 223 292 351 413
#     4  11  26  48  67 103 132 184 243 281 350 414
#     4  11  24  40  69 104 140 179 225 287 352 418
#     4  11  25  44  66 105 142 179 235 283 347 417
#     4  11  23  40  67 104 146 177 227 284 354 426
#     4  11  27  45  70 105 138 188 231 289 350 425
#     4  10  23  42  65  98 134 185 230 284 347 419
#
# _framework density 21.63007
#
# number of rings (size 3 to 8) (size 9 to 14) (size 15 to 20)
#    0.000    1.000    3.750    2.625   14.000    0.000 
#    2.250    0.625    0.000    0.000    0.000    0.000 
#    0.000    0.000    0.000    0.000    0.000    0.000 
#
# Total GULP energy -178483.563173 kJ/mol
# GULP energy per Si atom -5577.611349 kJ/mol
# Density = 2.158084 g / cm^3
# Si number density = 21.630070 Si / 1000 Ang^3
#
#
#
# Elastic Constant Matrix: (Units=GPa)
#
#
# Indices 1 2 3 4 5 6 
#
# 1 443.5571 110.0184 105.8994 0.0000 0.0000 0.0000
# 2 110.0184 105.3558 27.6852 0.0000 0.0000 0.0000
# 3 105.8994 27.6852 96.8134 0.0000 0.0000 0.0000
# 4 0.0000 0.0000 0.0000 20.4206 0.0000 0.0000
# 5 0.0000 0.0000 0.0000 0.0000 47.4872 0.0000
# 6 0.0000 0.0000 0.0000 0.0000 0.0000 -39.7713
#
#
#
# Elastic Compliance Matrix: (Units=1/GPa)
#
#
# Indices 1 2 3 4 5 6 
#
# 1 0.003810 -0.003118 -0.003276 0.000000 0.000000 0.000000
# 2 -0.003118 0.012814 -0.000254 0.000000 0.000000 0.000000
# 3 -0.003276 -0.000254 0.013985 0.000000 0.000000 0.000000
# 4 0.000000 0.000000 0.000000 0.048970 0.000000 0.000000
# 5 0.000000 0.000000 0.000000 0.000000 0.021058 0.000000
# 6 0.000000 0.000000 0.000000 0.000000 0.000000 -0.025144
#
#
# Mechanical properties :
#
#
# Convention : Reuss Voigt Hill
#
# Bulk Modulus (GPa) = 57.75746 125.88138 91.81942
# Shear Modulus (GPa) = 52.87616 32.43552 42.65584
#
# Velocity S-wave (km/s) = 4.94962 3.87661 4.44561
# Velocity P-wave (km/s) = 7.70878 8.85219 8.30020
#
# Compressibility (1/GPa) = 0.01731378
#
# Stress axis : x y z
#
# Youngs Moduli (GPa) = 262.47127 78.03906 71.50416
#
# Poissons Ratio (x) = 0.24330 0.23424
# Poissons Ratio (y) = 0.81831 0.01817
# Poissons Ratio (z) = 0.85984 0.01983
#
# Static dielectric constant tensor:
#      x y z
#    x 1.634330 0.000000 0.000000 
#    y 0.000000 1.807680 0.000000 
#    z 0.000000 0.000000 1.754980 
# 
# From -- ./inp_files/12030.got.cif
#   From: 2010.05.17/outbox.cif.g08.bks.cpg/sg41_7_cif.got.tgz:12030.got - 2010.06.03 18:54:24.
