data_PCOD9367657
_publ_section_title
;
Structure prediction by ZEFSAII (Michael W. Deem and Ramdas Pophale) SiO2 
 PCOD9367657
Probable space group: A B A 2
;
_chemical_formula_sum "Si O2"
_cell_formula_units_Z 36
_cell_length_a 19.211529
_cell_length_b 13.616637
_cell_length_c 5.324503
_cell_angle_alpha 90.000000
_cell_angle_beta 90.000000
_cell_angle_gamma 90.000000
_cell_volume 1392.870905
_symmetry_space_group_name_H-M "A B A 2"
_symmetry_group_IT_number 41
_symmetry_cell_setting 'orthorhombic'
loop_
_space_group_symop_operation_xyz
x,y,z
-x,-y,z
1/2-x,y,1/2+z
1/2+x,-y,1/2+z
x,1/2+y,1/2+z
-x,1/2-y,1/2+z
1/2-x,1/2+y,z
1/2+x,1/2-y,z
loop_
_atom_site_type_symbol
_atom_site_label
_atom_site_fract_x
_atom_site_fract_y
_atom_site_fract_z
Si Si1 0.008715 0.316708 0.809750
Si Si2 0.324409 0.734427 0.486784
Si Si3 0.168256 0.150557 0.994715
Si Si4 0.381075 0.933106 0.503632
Si Si5 0.000000 0.500000 0.108279
O O1 0.993013 0.262138 0.540848
O O2 0.078553 0.380043 0.732499
O O3 0.822190 0.149025 0.956920
O O4 0.248831 0.684169 0.486457
O O5 0.363112 0.702881 0.236027
O O6 0.470866 0.587242 0.432989
O O7 0.360196 0.692174 0.734815
O O8 0.156779 0.036373 0.033371
O O9 0.439847 0.954892 0.290768
#
# Coordination Sequence:
#
# PCOD9367657 Si02
#       5
#     8   8   8   8   4
#     4  12  29  50  75 114 166 206 267 321 395 484
#     4  10  26  47  77 111 157 203 261 327 393 464
#     4  10  26  49  75 114 153 201 267 322 392 471
#     4  12  29  48  84 114 161 212 258 329 403 471
#     4  12  30  50  76 122 160 216 268 322 400 492
#
# _framework density 25.845896
#
# number of rings (size 3 to 8) (size 9 to 14) (size 15 to 20)
#    0.000    0.889    2.222    0.667    9.333    8.889 
#    0.000    0.000    0.000    0.000    0.000    0.000 
#    0.000    0.000    0.000    0.000    0.000    0.000 
#
# Total GULP energy -100463.859292 kJ/mol
# GULP energy per Si atom -5581.325516 kJ/mol
# Density = 2.578707 g / cm^3
# Si number density = 25.845896 Si / 1000 Ang^3
#
#
#
# Elastic Constant Matrix: (Units=GPa)
#
#
# Indices 1 2 3 4 5 6 
#
# 1 85.1138 39.6346 32.3576 0.0000 0.0000 0.0000
# 2 39.6346 238.8849 76.7169 0.0000 0.0000 0.0000
# 3 32.3576 76.7169 210.1337 0.0000 0.0000 0.0000
# 4 0.0000 0.0000 0.0000 50.7128 0.0000 0.0000
# 5 0.0000 0.0000 0.0000 0.0000 13.8035 0.0000
# 6 0.0000 0.0000 0.0000 0.0000 0.0000 44.8814
#
#
#
# Elastic Compliance Matrix: (Units=1/GPa)
#
#
# Indices 1 2 3 4 5 6 
#
# 1 0.013079 -0.001725 -0.001384 0.000000 0.000000 0.000000
# 2 -0.001725 0.004970 -0.001549 0.000000 0.000000 0.000000
# 3 -0.001384 -0.001549 0.005537 0.000000 0.000000 0.000000
# 4 0.000000 0.000000 0.000000 0.019719 0.000000 0.000000
# 5 0.000000 0.000000 0.000000 0.000000 0.072445 0.000000
# 6 0.000000 0.000000 0.000000 0.000000 0.000000 0.022281
#
#
# Mechanical properties :
#
#
# Convention : Reuss Voigt Hill
#
# Bulk Modulus (GPa) = 70.07966 92.39450 81.23708
# Shear Modulus (GPa) = 32.87231 47.57443 40.22337
#
# Velocity S-wave (km/s) = 3.57018 4.29499 3.94925
# Velocity P-wave (km/s) = 6.64592 7.77314 7.23153
#
# Compressibility (1/GPa) = 0.01426948
#
# Stress axis : x y z
#
# Youngs Moduli (GPa) = 76.46069 201.21720 180.59041
#
# Poissons Ratio (x) = 0.34720 0.24993
# Poissons Ratio (y) = 0.13193 0.27968
# Poissons Ratio (z) = 0.10582 0.31162
#
# Static dielectric constant tensor:
#      x y z
#    x 3.847710 0.000000 0.000000 
#    y 0.000000 1.997980 0.000000 
#    z 0.000000 0.000000 2.163310 
# 
# From -- ./inp_files/443.got.cif
#   From: 2010.05.17/outbox.cif.g08.bks.cpg/sg41_1_cif.got.tgz:443.got - 2010.06.03 18:54:24.
