data_PCOD9367715
_publ_section_title
;
Structure prediction by ZEFSAII (Michael W. Deem and Ramdas Pophale) SiO2 
 PCOD9367715
Probable space group: A B A 2
;
_chemical_formula_sum "Si O2"
_cell_formula_units_Z 40
_cell_length_a 7.228289
_cell_length_b 14.482770
_cell_length_c 14.142684
_cell_angle_alpha 90.000000
_cell_angle_beta 90.000000
_cell_angle_gamma 90.000000
_cell_volume 1480.536026
_symmetry_space_group_name_H-M "A B A 2"
_symmetry_group_IT_number 41
_symmetry_cell_setting 'orthorhombic'
loop_
_space_group_symop_operation_xyz
x,y,z
-x,-y,z
1/2-x,y,1/2+z
1/2+x,-y,1/2+z
x,1/2+y,1/2+z
-x,1/2-y,1/2+z
1/2-x,1/2+y,z
1/2+x,1/2-y,z
loop_
_atom_site_type_symbol
_atom_site_label
_atom_site_fract_x
_atom_site_fract_y
_atom_site_fract_z
Si Si1 0.520073 0.097145 0.191510
Si Si2 0.302064 0.168184 0.578539
Si Si3 0.566387 0.598153 0.361098
Si Si4 0.148961 0.747648 0.788026
Si Si5 0.700633 0.125390 0.536098
O O1 0.377533 0.109066 0.103978
O O2 0.480949 0.177513 0.266628
O O3 0.716609 0.098401 0.137722
O O4 0.500000 0.000000 0.240505
O O5 0.360451 0.199708 0.684848
O O6 0.479137 0.119215 0.533292
O O7 0.249218 0.264912 0.529965
O O8 0.500000 0.500000 0.319422
O O9 0.391081 0.667900 0.364053
O O10 0.705127 0.671451 0.311577
O O11 0.682266 0.575837 0.455264
#
# Coordination Sequence:
#
# PCOD9367715 Si02
#       5
#     8   8   8   8   8
#     4  11  24  43  73 106 145 195 267 320 379 477
#     4  11  21  44  74 100 146 200 259 319 394 453
#     4  12  27  45  75 114 165 208 261 329 415 496
#     4  11  23  46  70 107 157 204 253 324 394 474
#     4  11  22  44  70 105 143 201 253 324 390 470
#
# _framework density 27.017244000000002
#
# number of rings (size 3 to 8) (size 9 to 14) (size 15 to 20)
#    0.000    0.800    6.000    3.000    2.800    0.800 
#    0.000    0.000    4.400    0.000    0.000    0.000 
#    0.000    0.000    0.000    0.000    0.000    0.000 
#
# Total GULP energy -111602.489015 kJ/mol
# GULP energy per Si atom -5580.124451 kJ/mol
# Density = 2.695575 g / cm^3
# Si number density = 27.017244 Si / 1000 Ang^3
#
#
#
# Elastic Constant Matrix: (Units=GPa)
#
#
# Indices 1 2 3 4 5 6 
#
# 1 110.6928 12.3326 -0.6098 0.0000 0.0000 0.0000
# 2 12.3326 166.1275 12.3182 0.0000 0.0000 0.0000
# 3 -0.6098 12.3182 32.0765 0.0000 0.0000 0.0000
# 4 0.0000 0.0000 0.0000 34.8259 0.0000 0.0000
# 5 0.0000 0.0000 0.0000 0.0000 32.9367 0.0000
# 6 0.0000 0.0000 0.0000 0.0000 0.0000 26.6892
#
#
#
# Elastic Compliance Matrix: (Units=1/GPa)
#
#
# Indices 1 2 3 4 5 6 
#
# 1 0.009116 -0.000710 0.000446 0.000000 0.000000 0.000000
# 2 -0.000710 0.006251 -0.002414 0.000000 0.000000 0.000000
# 3 0.000446 -0.002414 0.032111 0.000000 0.000000 0.000000
# 4 0.000000 0.000000 0.000000 0.028714 0.000000 0.000000
# 5 0.000000 0.000000 0.000000 0.000000 0.030361 0.000000
# 6 0.000000 0.000000 0.000000 0.000000 0.000000 0.037468
#
#
# Mechanical properties :
#
#
# Convention : Reuss Voigt Hill
#
# Bulk Modulus (GPa) = 23.74073 39.66431 31.70252
# Shear Modulus (GPa) = 30.59638 37.88077 34.23857
#
# Velocity S-wave (km/s) = 3.36888 3.74852 3.56376
# Velocity P-wave (km/s) = 4.89273 5.78344 5.35663
#
# Compressibility (1/GPa) = 0.04212171
#
# Stress axis : x y z
#
# Youngs Moduli (GPa) = 109.70269 159.97020 31.14198
#
# Poissons Ratio (x) = 0.11354 -0.01388
# Poissons Ratio (y) = 0.07786 0.07518
# Poissons Ratio (z) = -0.04891 0.38618
#
# Static dielectric constant tensor:
#      x y z
#    x 3.060650 0.000000 0.000000 
#    y 0.000000 2.089860 0.000000 
#    z 0.000000 0.000000 2.136850 
# 
# From -- ./inp_files/9589.got.cif
#   From: 2010.05.17/outbox.cif.g08.bks.cpg/sg41_5_cif.got.tgz:9589.got - 2010.06.03 18:54:24.
