data_PCOD9367783
_publ_section_title
;
Structure prediction by ZEFSAII (Michael W. Deem and Ramdas Pophale) SiO2 
 PCOD9367783
Probable space group: A B A 2
;
_chemical_formula_sum "Si O2"
_cell_formula_units_Z 56
_cell_length_a 21.291918
_cell_length_b 10.406984
_cell_length_c 11.402646
_cell_angle_alpha 90.000000
_cell_angle_beta 90.000000
_cell_angle_gamma 90.000000
_cell_volume 2526.651322
_symmetry_space_group_name_H-M "A B A 2"
_symmetry_group_IT_number 41
_symmetry_cell_setting 'orthorhombic'
loop_
_space_group_symop_operation_xyz
x,y,z
-x,-y,z
1/2-x,y,1/2+z
1/2+x,-y,1/2+z
x,1/2+y,1/2+z
-x,1/2-y,1/2+z
1/2-x,1/2+y,z
1/2+x,1/2-y,z
loop_
_atom_site_type_symbol
_atom_site_label
_atom_site_fract_x
_atom_site_fract_y
_atom_site_fract_z
Si Si1 0.563801 0.542640 0.026660
Si Si2 0.691112 0.404293 0.767941
Si Si3 0.387976 0.184654 0.634988
Si Si4 0.671049 0.449157 0.341982
Si Si5 0.171710 0.765822 0.039663
Si Si6 0.061956 0.926588 0.759136
Si Si7 0.698898 0.688724 0.470728
O O1 0.500000 0.500000 0.091967
O O2 0.594138 0.401062 0.023156
O O3 0.612029 0.648386 0.072877
O O4 0.548848 0.595399 0.897179
O O5 0.759086 0.471245 0.786950
O O6 0.689778 0.324668 0.647399
O O7 0.628903 0.495249 0.761916
O O8 0.694215 0.299829 0.873270
O O9 0.374129 0.080946 0.734780
O O10 0.431542 0.295454 0.686502
O O11 0.326371 0.259098 0.593527
O O12 0.664281 0.326110 0.426795
O O13 0.658419 0.571753 0.422008
O O14 0.230011 0.854293 0.999075
O O15 0.000000 0.000000 0.713634
#
# Coordination Sequence:
#
# PCOD9367783 Si02
#       7
#     8   8   8   8   8   8   8
#     4  11  25  45  68  94 135 183 225 272 329 402
#     4  11  23  41  68  99 138 174 222 276 341 400
#     4  12  24  46  68 100 134 174 222 282 332 402
#     4  11  24  40  68 104 134 172 219 282 342 402
#     4  11  23  41  68  99 138 174 222 276 341 400
#     4  11  25  45  68  94 135 183 225 272 329 402
#     4  11  24  40  68 104 134 172 219 282 342 402
#
# _framework density 22.163723000000001
#
# number of rings (size 3 to 8) (size 9 to 14) (size 15 to 20)
#    0.000    0.857    4.286    2.571    6.000    2.286 
#    0.000    0.000    0.000    0.000    0.000    0.000 
#    0.000    0.000    0.000    0.000    0.000    0.000 
#
# Total GULP energy -156145.179212 kJ/mol
# GULP energy per Si atom -5576.613543 kJ/mol
# Density = 2.211328 g / cm^3
# Si number density = 22.163723 Si / 1000 Ang^3
#
#
#
# Elastic Constant Matrix: (Units=GPa)
#
#
# Indices 1 2 3 4 5 6 
#
# 1 64.9198 4.0718 -13.6176 0.0000 0.0000 0.0000
# 2 4.0718 50.4620 -9.1736 0.0000 0.0000 0.0000
# 3 -13.6176 -9.1736 60.2822 0.0000 0.0000 0.0000
# 4 0.0000 0.0000 0.0000 27.1781 0.0000 0.0000
# 5 0.0000 0.0000 0.0000 0.0000 10.3423 0.0000
# 6 0.0000 0.0000 0.0000 0.0000 0.0000 24.9656
#
#
#
# Elastic Compliance Matrix: (Units=1/GPa)
#
#
# Indices 1 2 3 4 5 6 
#
# 1 0.016191 -0.000660 0.003557 0.000000 0.000000 0.000000
# 2 -0.000660 0.020408 0.002957 0.000000 0.000000 0.000000
# 3 0.003557 0.002957 0.017842 0.000000 0.000000 0.000000
# 4 0.000000 0.000000 0.000000 0.036794 0.000000 0.000000
# 5 0.000000 0.000000 0.000000 0.000000 0.096690 0.000000
# 6 0.000000 0.000000 0.000000 0.000000 0.000000 0.040055
#
#
# Mechanical properties :
#
#
# Convention : Reuss Voigt Hill
#
# Bulk Modulus (GPa) = 15.11749 15.35836 15.23792
# Shear Modulus (GPa) = 20.97996 25.45609 23.21803
#
# Velocity S-wave (km/s) = 3.08001 3.39270 3.24013
# Velocity P-wave (km/s) = 4.41409 4.72142 4.57034
#
# Compressibility (1/GPa) = 0.06614857
#
# Stress axis : x y z
#
# Youngs Moduli (GPa) = 61.76213 49.00135 56.04719
#
# Poissons Ratio (x) = 0.03233 -0.19937
# Poissons Ratio (y) = 0.04075 -0.16571
# Poissons Ratio (z) = -0.21970 -0.14487
#
# Static dielectric constant tensor:
#      x y z
#    x 1.976030 0.000000 0.000000 
#    y 0.000000 1.822230 0.000000 
#    z 0.000000 0.000000 1.805250 
# 
# From -- ./inp_files/6233.got.cif
#   From: 2010.05.17/outbox.cif.g08.bks.cpg/sg41_4_cif.got.tgz:6233.got - 2010.06.03 18:54:24.
