data_PCOD9367693
_publ_section_title
;
Structure prediction by ZEFSAII (Michael W. Deem and Ramdas Pophale) SiO2 
 PCOD9367693
Probable space group: A B A 2
;
_chemical_formula_sum "Si O2"
_cell_formula_units_Z 56
_cell_length_a 12.809437
_cell_length_b 21.677225
_cell_length_c 7.827058
_cell_angle_alpha 90.000000
_cell_angle_beta 90.000000
_cell_angle_gamma 90.000000
_cell_volume 2173.363052
_symmetry_space_group_name_H-M "A B A 2"
_symmetry_group_IT_number 41
_symmetry_cell_setting 'orthorhombic'
loop_
_space_group_symop_operation_xyz
x,y,z
-x,-y,z
1/2-x,y,1/2+z
1/2+x,-y,1/2+z
x,1/2+y,1/2+z
-x,1/2-y,1/2+z
1/2-x,1/2+y,z
1/2+x,1/2-y,z
loop_
_atom_site_type_symbol
_atom_site_label
_atom_site_fract_x
_atom_site_fract_y
_atom_site_fract_z
Si Si1 0.788276 0.608993 0.223370
Si Si2 0.120741 0.618900 0.482245
Si Si3 0.889223 0.774253 0.782023
Si Si4 0.914059 0.446611 0.820442
Si Si5 0.621666 0.981194 0.185284
Si Si6 0.883833 0.164311 0.048004
Si Si7 0.467166 0.337186 0.508509
O O1 0.817542 0.539306 0.259912
O O2 0.826066 0.654455 0.370442
O O3 0.668825 0.614707 0.173531
O O4 0.860783 0.630306 0.066116
O O5 0.177333 0.680401 0.405235
O O6 0.145664 0.579416 0.653005
O O7 0.122988 0.572772 0.323030
O O8 0.004968 0.647375 0.524892
O O9 0.849097 0.728839 0.632876
O O10 0.968441 0.817255 0.675721
O O11 0.946384 0.724526 0.902147
O O12 0.000000 0.500000 0.776100
O O13 0.848941 0.468592 0.987279
O O14 0.969405 0.386396 0.900157
O O15 0.500000 0.000000 0.171232
#
# Coordination Sequence:
#
# PCOD9367693 Si02
#       7
#     8   8   8   8   8   8   8
#     4  12  25  43  67 108 148 191 239 316 385 435
#     4  12  23  40  71 105 137 195 256 301 360 442
#     4  12  22  39  66 103 143 194 254 305 361 455
#     4  11  21  34  66 107 139 180 244 311 354 418
#     4  11  20  42  67 101 146 184 252 307 355 449
#     4  12  25  41  68 105 152 193 237 315 385 439
#     4  12  19  38  62 100 142 185 252 302 352 445
#
# _framework density 25.766521000000001
#
# number of rings (size 3 to 8) (size 9 to 14) (size 15 to 20)
#    0.000    0.286   10.000    1.286    0.000    0.000 
#    0.000    0.000    0.000    3.429    0.000    0.000 
#    0.000    0.000    0.000    0.000    0.000    0.000 
#
# Total GULP energy -156657.048712 kJ/mol
# GULP energy per Si atom -5594.894597 kJ/mol
# Density = 2.570788 g / cm^3
# Si number density = 25.766521 Si / 1000 Ang^3
#
#
#
# Elastic Constant Matrix: (Units=GPa)
#
#
# Indices 1 2 3 4 5 6 
#
# 1 50.6289 25.3976 18.7079 0.0000 0.0000 0.0000
# 2 25.3976 173.0679 62.2135 0.0000 0.0000 0.0000
# 3 18.7079 62.2135 174.4831 0.0000 0.0000 0.0000
# 4 0.0000 0.0000 0.0000 61.6796 0.0000 0.0000
# 5 0.0000 0.0000 0.0000 0.0000 72.1123 0.0000
# 6 0.0000 0.0000 0.0000 0.0000 0.0000 0.8389
#
#
#
# Elastic Compliance Matrix: (Units=1/GPa)
#
#
# Indices 1 2 3 4 5 6 
#
# 1 0.021599 -0.002681 -0.001360 0.000000 0.000000 0.000000
# 2 -0.002681 0.006960 -0.002194 0.000000 0.000000 0.000000
# 3 -0.001360 -0.002194 0.006659 0.000000 0.000000 0.000000
# 4 0.000000 0.000000 0.000000 0.016213 0.000000 0.000000
# 5 0.000000 0.000000 0.000000 0.000000 0.013867 0.000000
# 6 0.000000 0.000000 0.000000 0.000000 0.000000 1.192090
#
#
# Mechanical properties :
#
#
# Convention : Reuss Voigt Hill
#
# Bulk Modulus (GPa) = 43.95895 67.86868 55.91381
# Shear Modulus (GPa) = 3.91407 46.38355 25.14881
#
# Velocity S-wave (km/s) = 1.23384 4.24742 3.12753
# Velocity P-wave (km/s) = 4.37348 7.10290 5.89824
#
# Compressibility (1/GPa) = 0.02274850
#
# Stress axis : x y z
#
# Youngs Moduli (GPa) = 46.29875 143.67239 150.16292
#
# Poissons Ratio (x) = 0.38515 0.20422
# Poissons Ratio (y) = 0.12412 0.32951
# Poissons Ratio (z) = 0.06296 0.31526
#
# Static dielectric constant tensor:
#      x y z
#    x 1.970280 0.000000 0.000000 
#    y 0.000000 2.049030 0.000000 
#    z 0.000000 0.000000 2.105150 
# 
# From -- ./inp_files/2691.got.cif
#   From: 2010.05.17/outbox.cif.g08.bks.cpg/sg41_2_cif.got.tgz:2691.got - 2010.06.03 18:54:24.
