data_PCOD9367415
_publ_section_title
;
Structure prediction by ZEFSAII (Michael W. Deem and Ramdas Pophale) SiO2 
 PCOD9367415
Probable space group: A B A 2
;
_chemical_formula_sum "Si O2"
_cell_formula_units_Z 64
_cell_length_a 8.951726
_cell_length_b 32.430084
_cell_length_c 10.523581
_cell_angle_alpha 90.000000
_cell_angle_beta 90.000000
_cell_angle_gamma 90.000000
_cell_volume 3055.050562
_symmetry_space_group_name_H-M "A B A 2"
_symmetry_group_IT_number 41
_symmetry_cell_setting 'orthorhombic'
loop_
_space_group_symop_operation_xyz
x,y,z
-x,-y,z
1/2-x,y,1/2+z
1/2+x,-y,1/2+z
x,1/2+y,1/2+z
-x,1/2-y,1/2+z
1/2-x,1/2+y,z
1/2+x,1/2-y,z
loop_
_atom_site_type_symbol
_atom_site_label
_atom_site_fract_x
_atom_site_fract_y
_atom_site_fract_z
Si Si1 0.845342 0.827107 0.178550
Si Si2 0.755029 0.751468 0.035553
Si Si3 0.133781 0.966396 0.338295
Si Si4 0.059893 0.371371 0.824658
Si Si5 0.822372 0.186814 0.749989
Si Si6 0.510399 0.760353 0.871788
Si Si7 0.611359 0.037608 0.127821
Si Si8 0.041909 0.127421 0.605840
O O1 0.833193 0.794579 0.066214
O O2 0.901508 0.794700 0.290112
O O3 0.694523 0.854706 0.169792
O O4 0.978811 0.858808 0.193762
O O5 0.750869 0.718541 0.147611
O O6 0.584629 0.762905 0.010074
O O7 0.836179 0.735862 0.906354
O O8 0.079999 0.919778 0.319728
O O9 0.266898 0.968900 0.237371
O O10 0.182338 0.966932 0.486622
O O11 0.000000 0.000000 0.321543
O O12 0.208328 0.342963 0.827291
O O13 0.961694 0.365175 0.953136
O O14 0.946619 0.215343 0.819876
O O15 0.911922 0.154773 0.664142
O O16 0.513715 0.080244 0.130859
O O17 0.500000 0.000000 0.140335
#
# Coordination Sequence:
#
# PCOD9367415 Si02
#       8
#     8   8   8   8   8   8   8   8
#     4  11  23  37  58  88 123 171 216 268 329 384
#     4  11  22  37  56  84 120 165 215 267 319 380
#     4  10  23  45  72 101 136 173 217 271 335 410
#     4  11  23  41  62  93 127 166 216 271 330 396
#     4  11  21  37  62  84 119 169 213 267 327 385
#     4  11  22  37  56  84 120 165 215 267 319 381
#     4  10  23  45  72 101 136 176 213 272 340 412
#     4  11  23  41  62  93 131 163 215 275 332 403
#
# _framework density 20.948917000000002
#
# number of rings (size 3 to 8) (size 9 to 14) (size 15 to 20)
#    0.000    1.250    1.250    5.250    1.750    4.500 
#    0.000    1.250    0.000    0.000    0.000    0.000 
#    0.000    0.000    0.000    0.000    0.000    0.000 
#
# Total GULP energy -178231.783103 kJ/mol
# GULP energy per Si atom -5569.743222 kJ/mol
# Density = 2.090124 g / cm^3
# Si number density = 20.948917 Si / 1000 Ang^3
#
#
#
# Elastic Constant Matrix: (Units=GPa)
#
#
# Indices 1 2 3 4 5 6 
#
# 1 58.6710 33.3750 36.5228 0.0000 0.0000 0.0000
# 2 33.3750 145.7779 53.5628 0.0000 0.0000 0.0000
# 3 36.5228 53.5628 72.8182 0.0000 0.0000 0.0000
# 4 0.0000 0.0000 0.0000 24.6278 0.0000 0.0000
# 5 0.0000 0.0000 0.0000 0.0000 39.8310 0.0000
# 6 0.0000 0.0000 0.0000 0.0000 0.0000 26.1820
#
#
#
# Elastic Compliance Matrix: (Units=1/GPa)
#
#
# Indices 1 2 3 4 5 6 
#
# 1 0.025029 -0.001532 -0.011427 0.000000 0.000000 0.000000
# 2 -0.001532 0.009494 -0.006215 0.000000 0.000000 0.000000
# 3 -0.011427 -0.006215 0.024036 0.000000 0.000000 0.000000
# 4 0.000000 0.000000 0.000000 0.040605 0.000000 0.000000
# 5 0.000000 0.000000 0.000000 0.000000 0.025106 0.000000
# 6 0.000000 0.000000 0.000000 0.000000 0.000000 0.038194
#
#
# Mechanical properties :
#
#
# Convention : Reuss Voigt Hill
#
# Bulk Modulus (GPa) = 49.47782 58.24316 53.86049
# Shear Modulus (GPa) = 24.09081 28.38192 26.23637
#
# Velocity S-wave (km/s) = 3.39481 3.68478 3.54276
# Velocity P-wave (km/s) = 6.24787 6.77984 6.51929
#
# Compressibility (1/GPa) = 0.02021108
#
# Stress axis : x y z
#
# Youngs Moduli (GPa) = 39.95423 105.32851 41.60452
#
# Poissons Ratio (x) = 0.16133 0.47540
# Poissons Ratio (y) = 0.06120 0.25859
# Poissons Ratio (z) = 0.45655 0.65465
#
# Static dielectric constant tensor:
#      x y z
#    x 1.786090 0.000000 0.000000 
#    y 0.000000 1.774730 0.000000 
#    z 0.000000 0.000000 1.815150 
# 
# From -- ./inp_files/4614.got.cif
#   From: 2010.05.17/outbox.cif.g08.bks.cpg/sg41_3_cif.got.tgz:4614.got - 2010.06.03 18:54:24.
