data_PCOD9367050
_publ_section_title
;
Structure prediction by ZEFSAII (Michael W. Deem and Ramdas Pophale) SiO2 
 PCOD9367050
Probable space group: A B A 2
;
_chemical_formula_sum "Si O2"
_cell_formula_units_Z 64
_cell_length_a 24.480896
_cell_length_b 20.751985
_cell_length_c 5.588781
_cell_angle_alpha 90.000000
_cell_angle_beta 90.000000
_cell_angle_gamma 90.000000
_cell_volume 2839.252688
_symmetry_space_group_name_H-M "A B A 2"
_symmetry_group_IT_number 41
_symmetry_cell_setting 'orthorhombic'
loop_
_space_group_symop_operation_xyz
x,y,z
-x,-y,z
1/2-x,y,1/2+z
1/2+x,-y,1/2+z
x,1/2+y,1/2+z
-x,1/2-y,1/2+z
1/2-x,1/2+y,z
1/2+x,1/2-y,z
loop_
_atom_site_type_symbol
_atom_site_label
_atom_site_fract_x
_atom_site_fract_y
_atom_site_fract_z
Si Si1 0.655932 0.994487 0.992970
Si Si2 0.720234 0.244165 0.762975
Si Si3 0.621523 0.543121 0.996120
Si Si4 0.868598 0.252478 0.595800
Si Si5 0.338502 0.153164 0.997230
Si Si6 0.756111 0.097825 0.992047
Si Si7 0.447552 0.202641 0.222988
Si Si8 0.558958 0.169716 0.417168
O O1 0.621342 0.007371 0.751468
O O2 0.709411 0.042209 0.995678
O O3 0.622314 0.005638 0.240762
O O4 0.674915 0.921124 0.972801
O O5 0.741534 0.236896 0.493802
O O6 0.697093 0.317957 0.715227
O O7 0.662957 0.218205 0.875615
O O8 0.682794 0.572372 0.991609
O O9 0.576891 0.599651 0.002157
O O10 0.920439 0.288036 0.482852
O O11 0.889209 0.197317 0.771898
O O12 0.835151 0.304693 0.752305
O O13 0.402121 0.164334 0.071754
O O14 0.748478 0.134142 0.742842
O O15 0.505742 0.169185 0.248790
O O16 0.453108 0.274328 0.111102
#
# Coordination Sequence:
#
# PCOD9367050 Si02
#       8
#     8   8   8   8   8   8   8   8
#     4  10  22  40  64  93 137 179 221 269 338 408
#     4  11  22  39  61  99 139 175 221 276 352 412
#     4  10  23  38  65  98 132 171 227 277 331 407
#     4  10  22  42  65 100 134 174 236 290 349 417
#     4  10  23  40  69  96 138 178 233 289 341 416
#     4   8  16  35  55  86 121 162 217 251 304 389
#     4  10  22  40  70  98 127 177 236 293 358 411
#     4  11  22  42  70  97 132 180 232 296 358 415
#
# _framework density 22.541141
#
# number of rings (size 3 to 8) (size 9 to 14) (size 15 to 20)
#    0.000    2.000    2.500    0.000    5.250    3.000 
#    0.000    4.375    0.000    0.000    0.000    0.000 
#    0.000    0.000    0.000    0.000    0.000    0.000 
#
# Total GULP energy -178400.303177 kJ/mol
# GULP energy per Si atom -5575.009474 kJ/mol
# Density = 2.248984 g / cm^3
# Si number density = 22.541141 Si / 1000 Ang^3
#
#
#
# Elastic Constant Matrix: (Units=GPa)
#
#
# Indices 1 2 3 4 5 6 
#
# 1 54.1255 21.0910 37.7324 0.0000 0.0000 0.0000
# 2 21.0910 46.5355 52.7140 0.0000 0.0000 0.0000
# 3 37.7324 52.7140 180.0513 0.0000 0.0000 0.0000
# 4 0.0000 0.0000 0.0000 13.8508 0.0000 0.0000
# 5 0.0000 0.0000 0.0000 0.0000 47.5304 0.0000
# 6 0.0000 0.0000 0.0000 0.0000 0.0000 51.5295
#
#
#
# Elastic Compliance Matrix: (Units=1/GPa)
#
#
# Indices 1 2 3 4 5 6 
#
# 1 0.023270 -0.007515 -0.002676 0.000000 0.000000 0.000000
# 2 -0.007515 0.034579 -0.008549 0.000000 0.000000 0.000000
# 3 -0.002676 -0.008549 0.008618 0.000000 0.000000 0.000000
# 4 0.000000 0.000000 0.000000 0.072198 0.000000 0.000000
# 5 0.000000 0.000000 0.000000 0.000000 0.021039 0.000000
# 6 0.000000 0.000000 0.000000 0.000000 0.000000 0.019406
#
#
# Mechanical properties :
#
#
# Convention : Reuss Voigt Hill
#
# Bulk Modulus (GPa) = 34.49912 55.97632 45.23772
# Shear Modulus (GPa) = 22.09932 33.86046 27.97989
#
# Velocity S-wave (km/s) = 3.13453 3.87998 3.52700
# Velocity P-wave (km/s) = 5.33278 6.70516 6.05796
#
# Compressibility (1/GPa) = 0.02898624
#
# Stress axis : x y z
#
# Youngs Moduli (GPa) = 42.97460 28.91962 116.03989
#
# Poissons Ratio (x) = 0.21732 0.31057
# Poissons Ratio (y) = 0.32293 0.99201
# Poissons Ratio (z) = 0.11502 0.24723
#
# Static dielectric constant tensor:
#      x y z
#    x 1.923590 0.000000 0.000000 
#    y 0.000000 1.907540 0.000000 
#    z 0.000000 0.000000 1.928420 
# 
# From -- ./inp_files/1226.got.cif
#   From: 2010.05.17/outbox.cif.g08.bks.cpg/sg41_1_cif.got.tgz:1226.got - 2010.06.03 18:54:24.
