data_PCOD9367627
_publ_section_title
;
Structure prediction by ZEFSAII (Michael W. Deem and Ramdas Pophale) SiO2 
 PCOD9367627
Probable space group: A B A 2
;
_chemical_formula_sum "Si O2"
_cell_formula_units_Z 60
_cell_length_a 25.272001
_cell_length_b 5.287407
_cell_length_c 18.323155
_cell_angle_alpha 90.000000
_cell_angle_beta 90.000000
_cell_angle_gamma 90.000000
_cell_volume 2448.401445
_symmetry_space_group_name_H-M "A B A 2"
_symmetry_group_IT_number 41
_symmetry_cell_setting 'orthorhombic'
loop_
_space_group_symop_operation_xyz
x,y,z
-x,-y,z
1/2-x,y,1/2+z
1/2+x,-y,1/2+z
x,1/2+y,1/2+z
-x,1/2-y,1/2+z
1/2-x,1/2+y,z
1/2+x,1/2-y,z
loop_
_atom_site_type_symbol
_atom_site_label
_atom_site_fract_x
_atom_site_fract_y
_atom_site_fract_z
Si Si1 0.565410 0.984527 0.256440
Si Si2 0.778287 0.825831 0.113571
Si Si3 0.714028 0.431176 0.952476
Si Si4 0.358567 0.131736 0.734741
Si Si5 0.052235 0.140792 0.482877
Si Si6 0.442541 0.380842 0.128175
Si Si7 0.500000 0.000000 0.359840
Si Si8 0.616568 0.199992 0.875281
O O1 0.555232 0.862298 0.180114
O O2 0.524275 0.186133 0.285321
O O3 0.565638 0.839274 0.337293
O O4 0.625252 0.083892 0.253864
O O5 0.770704 0.523361 0.111595
O O6 0.805917 0.893288 0.189197
O O7 0.804579 0.902994 0.036767
O O8 0.743768 0.699246 0.941372
O O9 0.663062 0.381618 0.902711
O O10 0.403267 0.054554 0.675307
O O11 0.362702 0.972304 0.808561
O O12 0.077283 0.298740 0.548750
O O13 0.028301 0.316444 0.420889
O O14 0.093802 0.956323 0.443276
O O15 0.000000 0.000000 0.514199
O O16 0.500000 0.500000 0.119275
#
# Coordination Sequence:
#
# PCOD9367627 Si02
#       8
#     8   8   8   8   8   8   4   8
#     4  11  25  42  66  98 138 187 229 291 349 428
#     4  10  25  47  74 105 142 185 237 299 367 432
#     4  10  25  47  74 104 140 184 236 298 365 430
#     4  11  26  45  69 102 137 186 232 293 354 428
#     4  12  26  43  65 102 139 184 236 292 348 419
#     4  11  27  42  66 101 137 185 242 283 352 420
#     4  12  22  42  66  90 146 182 230 284 348 414
#     4  11  26  44  69 103 139 181 235 289 363 423
#
# _framework density 24.505784999999999
#
# number of rings (size 3 to 8) (size 9 to 14) (size 15 to 20)
#    0.000    1.067    3.333    0.800   12.133    4.267 
#    0.000    0.000    0.000    0.000    0.000    0.000 
#    0.000    0.000    0.000    0.000    0.000    0.000 
#
# Total GULP energy -167351.396736 kJ/mol
# GULP energy per Si atom -5578.379891 kJ/mol
# Density = 2.445001 g / cm^3
# Si number density = 24.505785 Si / 1000 Ang^3
#
#
#
# Elastic Constant Matrix: (Units=GPa)
#
#
# Indices 1 2 3 4 5 6 
#
# 1 50.2377 1.5858 31.4338 0.0000 0.0000 0.0000
# 2 1.5858 63.1709 17.0067 0.0000 0.0000 0.0000
# 3 31.4338 17.0067 136.4804 0.0000 0.0000 0.0000
# 4 0.0000 0.0000 0.0000 42.7347 0.0000 0.0000
# 5 0.0000 0.0000 0.0000 0.0000 43.7467 0.0000
# 6 0.0000 0.0000 0.0000 0.0000 0.0000 24.1696
#
#
#
# Elastic Compliance Matrix: (Units=1/GPa)
#
#
# Indices 1 2 3 4 5 6 
#
# 1 0.023305 0.000890 -0.005478 0.000000 0.000000 0.000000
# 2 0.000890 0.016414 -0.002250 0.000000 0.000000 0.000000
# 3 -0.005478 -0.002250 0.008869 0.000000 0.000000 0.000000
# 4 0.000000 0.000000 0.000000 0.023400 0.000000 0.000000
# 5 0.000000 0.000000 0.000000 0.000000 0.022859 0.000000
# 6 0.000000 0.000000 0.000000 0.000000 0.000000 0.041374
#
#
# Mechanical properties :
#
#
# Convention : Reuss Voigt Hill
#
# Bulk Modulus (GPa) = 28.64485 38.88239 33.76362
# Shear Modulus (GPa) = 30.95291 35.45439 33.20365
#
# Velocity S-wave (km/s) = 3.55785 3.80778 3.68493
# Velocity P-wave (km/s) = 5.34716 5.93576 5.64913
#
# Compressibility (1/GPa) = 0.03491028
#
# Stress axis : x y z
#
# Youngs Moduli (GPa) = 42.90896 60.92534 112.74920
#
# Poissons Ratio (x) = -0.05422 0.61769
# Poissons Ratio (y) = -0.03818 0.25371
# Poissons Ratio (z) = 0.23507 0.13710
#
# Static dielectric constant tensor:
#      x y z
#    x 2.414850 0.000000 0.000000 
#    y 0.000000 2.242540 0.000000 
#    z 0.000000 0.000000 1.890610 
# 
# From -- ./inp_files/10795.got.cif
#   From: 2010.05.17/outbox.cif.g08.bks.cpg/sg41_6_cif.got.tgz:10795.got - 2010.06.03 18:54:24.
