data_PCOD9367731
_publ_section_title
;
Structure prediction by ZEFSAII (Michael W. Deem and Ramdas Pophale) SiO2 
 PCOD9367731
Probable space group: A B A 2
;
_chemical_formula_sum "Si O2"
_cell_formula_units_Z 24
_cell_length_a 21.238760
_cell_length_b 8.919173
_cell_length_c 4.376174
_cell_angle_alpha 90.000000
_cell_angle_beta 90.000000
_cell_angle_gamma 90.000000
_cell_volume 828.988158
_symmetry_space_group_name_H-M "A B A 2"
_symmetry_group_IT_number 41
_symmetry_cell_setting 'orthorhombic'
loop_
_space_group_symop_operation_xyz
x,y,z
-x,-y,z
1/2-x,y,1/2+z
1/2+x,-y,1/2+z
x,1/2+y,1/2+z
-x,1/2-y,1/2+z
1/2-x,1/2+y,z
1/2+x,1/2-y,z
loop_
_atom_site_type_symbol
_atom_site_label
_atom_site_fract_x
_atom_site_fract_y
_atom_site_fract_z
Si Si1 0.539410 0.309248 0.150160
Si Si2 0.377462 0.092366 0.163396
Si Si3 0.204719 0.847996 0.342640
O O1 0.481858 0.315838 0.398243
O O2 0.594667 0.297452 0.399946
O O3 0.566959 0.434171 0.913606
O O4 0.323831 0.182258 0.345518
O O5 0.346908 0.958214 0.976888
O O6 0.272641 0.867983 0.497999
#
# Coordination Sequence:
#
# PCOD9367731 Si02
#       3
#     8   8   8
#     4   9  20  41  66  94 128 171 224 283 348 414
#     4  11  22  41  64  94 132 173 224 285 344 416
#     4  12  24  40  63  94 131 176 224 278 342 414
#
# _framework density 28.950955
#
# number of rings (size 3 to 8) (size 9 to 14) (size 15 to 20)
#    0.000    1.333    0.000    6.000    0.000    0.000 
#    0.000   25.000    0.000    0.000    0.000    0.000 
#    0.000    0.000    0.000    0.000    0.000    0.000 
#
# Total GULP energy -66921.917971 kJ/mol
# GULP energy per Si atom -5576.826498 kJ/mol
# Density = 2.888506 g / cm^3
# Si number density = 28.950955 Si / 1000 Ang^3
#
#
#
# Elastic Constant Matrix: (Units=GPa)
#
#
# Indices 1 2 3 4 5 6 
#
# 1 141.9546 51.4916 60.8785 0.0000 0.0000 0.0000
# 2 51.4916 111.3688 26.1383 0.0000 0.0000 0.0000
# 3 60.8785 26.1383 158.1246 0.0000 0.0000 0.0000
# 4 0.0000 0.0000 0.0000 46.0368 0.0000 0.0000
# 5 0.0000 0.0000 0.0000 0.0000 85.4232 0.0000
# 6 0.0000 0.0000 0.0000 0.0000 0.0000 40.6686
#
#
#
# Elastic Compliance Matrix: (Units=1/GPa)
#
#
# Indices 1 2 3 4 5 6 
#
# 1 0.009758 -0.003776 -0.003133 0.000000 0.000000 0.000000
# 2 -0.003776 0.010803 -0.000332 0.000000 0.000000 0.000000
# 3 -0.003133 -0.000332 0.007585 0.000000 0.000000 0.000000
# 4 0.000000 0.000000 0.000000 0.021722 0.000000 0.000000
# 5 0.000000 0.000000 0.000000 0.000000 0.011706 0.000000
# 6 0.000000 0.000000 0.000000 0.000000 0.000000 0.024589
#
#
# Mechanical properties :
#
#
# Convention : Reuss Voigt Hill
#
# Bulk Modulus (GPa) = 73.18297 76.49610 74.83953
# Shear Modulus (GPa) = 47.52892 52.62168 50.07530
#
# Velocity S-wave (km/s) = 4.05619 4.26797 4.16343
# Velocity P-wave (km/s) = 6.87532 7.12513 7.00134
#
# Compressibility (1/GPa) = 0.01366438
#
# Stress axis : x y z
#
# Youngs Moduli (GPa) = 102.48324 92.56653 131.83888
#
# Poissons Ratio (x) = 0.34956 0.41299
# Poissons Ratio (y) = 0.38701 0.04376
# Poissons Ratio (z) = 0.32103 0.03072
#
# Static dielectric constant tensor:
#      x y z
#    x 2.199950 0.000000 0.000000 
#    y 0.000000 2.281440 0.000000 
#    z 0.000000 0.000000 2.147540 
# 
# From -- ./inp_files/361.got.cif
#   From: 2010.05.17/outbox.cif.g08.bks.cpg/sg41_1_cif.got.tgz:361.got - 2010.06.03 18:54:24.
