data_PCOD9367304
_publ_section_title
;
Structure prediction by ZEFSAII (Michael W. Deem and Ramdas Pophale) SiO2 
 PCOD9367304
Probable space group: A B A 2
;
_chemical_formula_sum "Si O2"
_cell_formula_units_Z 56
_cell_length_a 15.312236
_cell_length_b 8.511393
_cell_length_c 19.832881
_cell_angle_alpha 90.000000
_cell_angle_beta 90.000000
_cell_angle_gamma 90.000000
_cell_volume 2584.788804
_symmetry_space_group_name_H-M "A B A 2"
_symmetry_group_IT_number 41
_symmetry_cell_setting 'orthorhombic'
loop_
_space_group_symop_operation_xyz
x,y,z
-x,-y,z
1/2-x,y,1/2+z
1/2+x,-y,1/2+z
x,1/2+y,1/2+z
-x,1/2-y,1/2+z
1/2-x,1/2+y,z
1/2+x,1/2-y,z
loop_
_atom_site_type_symbol
_atom_site_label
_atom_site_fract_x
_atom_site_fract_y
_atom_site_fract_z
Si Si1 0.759245 0.443724 0.010760
Si Si2 0.681208 0.304524 0.819337
Si Si3 0.267245 0.960372 0.724526
Si Si4 0.501813 0.307747 0.346264
Si Si5 0.331226 0.311454 0.920427
Si Si6 0.164632 0.802665 0.600474
Si Si7 0.940492 0.851769 0.195771
O O1 0.701567 0.359769 0.068522
O O2 0.822841 0.576941 0.039528
O O3 0.699492 0.522684 0.951996
O O4 0.819631 0.308013 0.981843
O O5 0.679442 0.178089 0.759346
O O6 0.701348 0.466407 0.780379
O O7 0.591175 0.274444 0.857555
O O8 0.761532 0.252160 0.865838
O O9 0.220197 0.887644 0.659923
O O10 0.340942 0.089563 0.708795
O O11 0.500000 0.500000 0.357934
O O12 0.574648 0.217197 0.388855
O O13 0.525872 0.288487 0.267055
O O14 0.071325 0.768635 0.634486
O O15 0.000000 0.000000 0.177182
#
# Coordination Sequence:
#
# PCOD9367304 Si02
#       7
#     8   8   8   8   8   8   8
#     4  10  23  40  68  85 123 183 229 256 315 379
#     4  12  22  38  70 101 128 169 208 268 344 396
#     4  12  20  38  71  96 127 166 209 264 337 398
#     4  11  21  39  65  98 136 165 208 271 342 396
#     4  11  22  42  64  92 129 174 221 269 315 393
#     4  11  21  42  66  92 122 175 224 264 314 393
#     4  11  21  37  65  96 133 163 200 268 339 388
#
# _framework density 21.665213999999999
#
# number of rings (size 3 to 8) (size 9 to 14) (size 15 to 20)
#    0.000    0.857    7.143    1.714    0.000    0.000 
#    0.000   10.714    3.143    0.000    0.000    0.000 
#    0.000    0.000    0.000    0.000    0.000    0.000 
#
# Total GULP energy -156287.316902 kJ/mol
# GULP energy per Si atom -5581.689889 kJ/mol
# Density = 2.161590 g / cm^3
# Si number density = 21.665214 Si / 1000 Ang^3
#
#
#
# Elastic Constant Matrix: (Units=GPa)
#
#
# Indices 1 2 3 4 5 6 
#
# 1 107.3089 15.3224 13.1629 0.0000 0.0000 0.0000
# 2 15.3224 84.6972 10.8370 0.0000 0.0000 0.0000
# 3 13.1629 10.8370 53.3631 0.0000 0.0000 0.0000
# 4 0.0000 0.0000 0.0000 45.8487 0.0000 0.0000
# 5 0.0000 0.0000 0.0000 0.0000 24.9140 0.0000
# 6 0.0000 0.0000 0.0000 0.0000 0.0000 22.0877
#
#
#
# Elastic Compliance Matrix: (Units=1/GPa)
#
#
# Indices 1 2 3 4 5 6 
#
# 1 0.009792 -0.001501 -0.002110 0.000000 0.000000 0.000000
# 2 -0.001501 0.012352 -0.002138 0.000000 0.000000 0.000000
# 3 -0.002110 -0.002138 0.019694 0.000000 0.000000 0.000000
# 4 0.000000 0.000000 0.000000 0.021811 0.000000 0.000000
# 5 0.000000 0.000000 0.000000 0.000000 0.040138 0.000000
# 6 0.000000 0.000000 0.000000 0.000000 0.000000 0.045274
#
#
# Mechanical properties :
#
#
# Convention : Reuss Voigt Hill
#
# Bulk Modulus (GPa) = 32.96149 36.00153 34.48151
# Shear Modulus (GPa) = 29.29556 32.30654 30.80105
#
# Velocity S-wave (km/s) = 3.68121 3.86576 3.77461
# Velocity P-wave (km/s) = 5.77195 6.04803 5.91161
#
# Compressibility (1/GPa) = 0.03033843
#
# Stress axis : x y z
#
# Youngs Moduli (GPa) = 102.12258 80.95885 50.77600
#
# Poissons Ratio (x) = 0.12156 0.10716
# Poissons Ratio (y) = 0.15333 0.10856
# Poissons Ratio (z) = 0.21553 0.17310
#
# Static dielectric constant tensor:
#      x y z
#    x 1.779030 0.000000 0.000000 
#    y 0.000000 1.885210 0.000000 
#    z 0.000000 0.000000 1.830620 
# 
# From -- ./inp_files/11542.got.cif
#   From: 2010.05.17/outbox.cif.g08.bks.cpg/sg41_6_cif.got.tgz:11542.got - 2010.06.03 18:54:24.
