data_PCOD9367130
_publ_section_title
;
Structure prediction by ZEFSAII (Michael W. Deem and Ramdas Pophale) SiO2 
 PCOD9367130
Probable space group: A B A 2
;
_chemical_formula_sum "Si O2"
_cell_formula_units_Z 48
_cell_length_a 7.897237
_cell_length_b 19.047996
_cell_length_c 12.854063
_cell_angle_alpha 90.000000
_cell_angle_beta 90.000000
_cell_angle_gamma 90.000000
_cell_volume 1933.592206
_symmetry_space_group_name_H-M "A B A 2"
_symmetry_group_IT_number 41
_symmetry_cell_setting 'orthorhombic'
loop_
_space_group_symop_operation_xyz
x,y,z
-x,-y,z
1/2-x,y,1/2+z
1/2+x,-y,1/2+z
x,1/2+y,1/2+z
-x,1/2-y,1/2+z
1/2-x,1/2+y,z
1/2+x,1/2-y,z
loop_
_atom_site_type_symbol
_atom_site_label
_atom_site_fract_x
_atom_site_fract_y
_atom_site_fract_z
Si Si1 0.834878 0.687715 0.303460
Si Si2 0.031589 0.774133 0.439635
Si Si3 0.000000 0.500000 0.513865
Si Si4 0.384212 0.191767 0.648633
Si Si5 0.826501 0.579837 0.696188
Si Si6 0.000000 0.500000 0.877043
Si Si7 0.229001 0.609652 0.980596
O O1 0.001057 0.706308 0.367587
O O2 0.687403 0.682628 0.391280
O O3 0.807489 0.755907 0.231460
O O4 0.841945 0.621407 0.226884
O O5 0.858326 0.819298 0.435023
O O6 0.057872 0.742457 0.553892
O O7 0.861502 0.536789 0.591240
O O8 0.899919 0.436699 0.456828
O O9 0.537989 0.144548 0.691291
O O10 0.259853 0.134527 0.598652
O O11 0.866244 0.531834 0.795332
O O12 0.916713 0.443659 0.950834
#
# Coordination Sequence:
#
# PCOD9367130 Si02
#       7
#     8   8   4   8   8   4   8
#     4  12  23  43  70 104 139 183 228 308 370 416
#     4  12  25  42  72 106 140 182 241 305 366 431
#     4   9  24  44  66  89 138 200 219 288 354 425
#     4  11  24  44  70 103 143 181 234 307 368 431
#     4  10  22  42  64  92 137 181 227 285 356 416
#     4  11  22  42  66  93 136 186 235 292 338 435
#     4  11  23  43  66 101 139 180 241 284 351 435
#
# _framework density 24.824262999999998
#
# number of rings (size 3 to 8) (size 9 to 14) (size 15 to 20)
#    0.000    1.000    5.000    1.000    0.000    4.000 
#    0.000    0.000    0.000    5.000    0.000    0.000 
#    0.000    0.000    0.000    0.000    0.000    0.000 
#
# Total GULP energy -133910.664440 kJ/mol
# GULP energy per Si atom -5579.611018 kJ/mol
# Density = 2.476776 g / cm^3
# Si number density = 24.824263 Si / 1000 Ang^3
#
#
#
# Elastic Constant Matrix: (Units=GPa)
#
#
# Indices 1 2 3 4 5 6 
#
# 1 58.6543 14.8536 22.6984 0.0000 0.0000 0.0000
# 2 14.8536 117.3975 34.0370 0.0000 0.0000 0.0000
# 3 22.6984 34.0370 81.8679 0.0000 0.0000 0.0000
# 4 0.0000 0.0000 0.0000 16.7458 0.0000 0.0000
# 5 0.0000 0.0000 0.0000 0.0000 28.8319 0.0000
# 6 0.0000 0.0000 0.0000 0.0000 0.0000 41.6850
#
#
#
# Elastic Compliance Matrix: (Units=1/GPa)
#
#
# Indices 1 2 3 4 5 6 
#
# 1 0.019202 -0.001007 -0.004905 0.000000 0.000000 0.000000
# 2 -0.001007 0.009738 -0.003769 0.000000 0.000000 0.000000
# 3 -0.004905 -0.003769 0.015142 0.000000 0.000000 0.000000
# 4 0.000000 0.000000 0.000000 0.059717 0.000000 0.000000
# 5 0.000000 0.000000 0.000000 0.000000 0.034684 0.000000
# 6 0.000000 0.000000 0.000000 0.000000 0.000000 0.023989
#
#
# Mechanical properties :
#
#
# Convention : Reuss Voigt Hill
#
# Bulk Modulus (GPa) = 40.45525 44.56643 42.51084
# Shear Modulus (GPa) = 26.30522 29.87456 28.08989
#
# Velocity S-wave (km/s) = 3.25877 3.47283 3.36750
# Velocity P-wave (km/s) = 5.52191 5.83716 5.68172
#
# Compressibility (1/GPa) = 0.02471867
#
# Stress axis : x y z
#
# Youngs Moduli (GPa) = 52.07680 102.68604 66.04162
#
# Poissons Ratio (x) = 0.10345 0.32394
# Poissons Ratio (y) = 0.05246 0.24894
# Poissons Ratio (z) = 0.25544 0.38707
#
# Static dielectric constant tensor:
#      x y z
#    x 2.009820 0.000000 0.000000 
#    y 0.000000 2.031030 0.000000 
#    z 0.000000 0.000000 1.932330 
# 
# From -- ./inp_files/7335.got.cif
#   From: 2010.05.17/outbox.cif.g08.bks.cpg/sg41_4_cif.got.tgz:7335.got - 2010.06.03 18:54:24.
