data_PCOD9367873
_publ_section_title
;
Structure prediction by ZEFSAII (Michael W. Deem and Ramdas Pophale) SiO2 
 PCOD9367873
Probable space group: A B A 2
;
_chemical_formula_sum "Si O2"
_cell_formula_units_Z 60
_cell_length_a 17.098229
_cell_length_b 8.433156
_cell_length_c 16.971067
_cell_angle_alpha 90.000000
_cell_angle_beta 90.000000
_cell_angle_gamma 90.000000
_cell_volume 2447.092644
_symmetry_space_group_name_H-M "A B A 2"
_symmetry_group_IT_number 41
_symmetry_cell_setting 'orthorhombic'
loop_
_space_group_symop_operation_xyz
x,y,z
-x,-y,z
1/2-x,y,1/2+z
1/2+x,-y,1/2+z
x,1/2+y,1/2+z
-x,1/2-y,1/2+z
1/2-x,1/2+y,z
1/2+x,1/2-y,z
loop_
_atom_site_type_symbol
_atom_site_label
_atom_site_fract_x
_atom_site_fract_y
_atom_site_fract_z
Si Si1 0.985383 0.311134 0.625000
Si Si2 0.500000 0.000000 0.353332
Si Si3 0.372529 0.862058 0.241963
Si Si4 0.154950 0.792165 0.177128
Si Si5 0.805338 0.913666 0.448289
Si Si6 0.717909 0.698882 0.342711
Si Si7 0.018164 0.684529 0.958688
Si Si8 0.760522 0.977789 0.616794
O O1 0.070226 0.247236 0.650347
O O2 0.973778 0.224476 0.540905
O O3 0.000000 0.500000 0.614597
O O4 0.926424 0.262697 0.694686
O O5 0.572534 0.032014 0.296394
O O6 0.495435 0.164918 0.403580
O O7 0.303595 0.807001 0.301021
O O8 0.327639 0.957281 0.174174
O O9 0.165045 0.760644 0.268727
O O10 0.224828 0.708875 0.128682
O O11 0.177917 0.971154 0.152575
O O12 0.732596 0.811200 0.416493
O O13 0.886109 0.819356 0.465132
O O14 0.777493 0.004793 0.526074
O O15 0.815622 0.037396 0.377577
O O16 0.000000 0.500000 0.935414
#
# Coordination Sequence:
#
# PCOD9367873 Si02
#       8
#     8   4   8   8   8   8   8   8
#     4  12  28  49  83 117 164 213 278 339 414 500
#     4  12  26  50  82 116 166 206 268 346 412 490
#     4  11  26  48  79 112 156 213 262 334 411 491
#     4  11  25  45  72 111 145 201 262 322 399 477
#     4  12  25  48  71 111 150 204 268 325 405 490
#     4  11  26  47  72 107 155 197 264 332 394 478
#     4  12  28  52  79 122 161 214 275 338 419 501
#     4  11  24  45  75 101 151 199 259 318 397 482
#
# _framework density 24.518892999999998
#
# number of rings (size 3 to 8) (size 9 to 14) (size 15 to 20)
#    0.000    0.533    3.333    4.000    6.533    3.733 
#    2.400    0.000    0.000    0.000    0.000    0.000 
#    0.000    0.000    0.000    0.000    0.000    0.000 
#
# Total GULP energy -167668.141866 kJ/mol
# GULP energy per Si atom -5588.938062 kJ/mol
# Density = 2.446309 g / cm^3
# Si number density = 24.518893 Si / 1000 Ang^3
#
#
#
# Elastic Constant Matrix: (Units=GPa)
#
#
# Indices 1 2 3 4 5 6 
#
# 1 55.4553 24.7935 45.1037 0.0000 0.0000 0.0000
# 2 24.7935 106.6387 55.5451 0.0000 0.0000 0.0000
# 3 45.1037 55.5451 157.6668 0.0000 0.0000 0.0000
# 4 0.0000 0.0000 0.0000 47.9675 0.0000 0.0000
# 5 0.0000 0.0000 0.0000 0.0000 10.2134 0.0000
# 6 0.0000 0.0000 0.0000 0.0000 0.0000 35.8786
#
#
#
# Elastic Compliance Matrix: (Units=1/GPa)
#
#
# Indices 1 2 3 4 5 6 
#
# 1 0.024014 -0.002456 -0.006005 0.000000 0.000000 0.000000
# 2 -0.002456 0.011736 -0.003432 0.000000 0.000000 0.000000
# 3 -0.006005 -0.003432 0.009269 0.000000 0.000000 0.000000
# 4 0.000000 0.000000 0.000000 0.020847 0.000000 0.000000
# 5 0.000000 0.000000 0.000000 0.000000 0.097911 0.000000
# 6 0.000000 0.000000 0.000000 0.000000 0.000000 0.027872
#
#
# Mechanical properties :
#
#
# Convention : Reuss Voigt Hill
#
# Bulk Modulus (GPa) = 47.09227 63.40507 55.24867
# Shear Modulus (GPa) = 22.47065 31.76647 27.11856
#
# Velocity S-wave (km/s) = 3.03060 3.60334 3.32931
# Velocity P-wave (km/s) = 5.61197 6.57479 6.11237
#
# Compressibility (1/GPa) = 0.02123491
#
# Stress axis : x y z
#
# Youngs Moduli (GPa) = 41.64201 85.20746 107.88273
#
# Poissons Ratio (x) = 0.20924 0.64780
# Poissons Ratio (y) = 0.10226 0.37026
# Poissons Ratio (z) = 0.25004 0.29244
#
# Static dielectric constant tensor:
#      x y z
#    x 1.916050 0.000000 0.000000 
#    y 0.000000 2.267620 0.000000 
#    z 0.000000 0.000000 1.887230 
# 
# From -- ./inp_files/10593.got.cif
#   From: 2010.05.17/outbox.cif.g08.bks.cpg/sg41_6_cif.got.tgz:10593.got - 2010.06.03 18:54:24.
