data_PCOD9367036
_publ_section_title
;
Structure prediction by ZEFSAII (Michael W. Deem and Ramdas Pophale) SiO2 
 PCOD9367036
Probable space group: A B A 2
;
_chemical_formula_sum "Si O2"
_cell_formula_units_Z 28
_cell_length_a 13.776022
_cell_length_b 12.201418
_cell_length_c 8.683343
_cell_angle_alpha 90.000000
_cell_angle_beta 90.000000
_cell_angle_gamma 90.000000
_cell_volume 1459.557099
_symmetry_space_group_name_H-M "A B A 2"
_symmetry_group_IT_number 41
_symmetry_cell_setting 'orthorhombic'
loop_
_space_group_symop_operation_xyz
x,y,z
-x,-y,z
1/2-x,y,1/2+z
1/2+x,-y,1/2+z
x,1/2+y,1/2+z
-x,1/2-y,1/2+z
1/2-x,1/2+y,z
1/2+x,1/2-y,z
loop_
_atom_site_type_symbol
_atom_site_label
_atom_site_fract_x
_atom_site_fract_y
_atom_site_fract_z
Si Si1 0.943057 0.857627 0.004090
Si Si2 0.641100 0.074387 0.646577
Si Si3 0.652814 0.620050 0.504463
Si Si4 0.500000 0.000000 0.218267
O O1 0.891953 0.741513 0.006182
O O2 0.046903 0.857885 0.090342
O O3 0.879452 0.950991 0.088186
O O4 0.963640 0.904112 0.833022
O O5 0.738229 0.118703 0.568317
O O6 0.650264 0.078130 0.829596
O O7 0.586475 0.544183 0.612824
#
# Coordination Sequence:
#
# PCOD9367036 Si02
#       4
#     8   8   8   4
#     4  10  23  43  61  88 125 155 197 252 298 352
#     4  10  23  40  61  91 120 157 204 241 297 365
#     4  12  23  40  65  88 121 162 197 248 300 348
#     4  10  22  40  62  92 120 154 204 244 294 362
#
# _framework density 19.183902
#
# number of rings (size 3 to 8) (size 9 to 14) (size 15 to 20)
#    0.000    1.714    0.000    6.857    0.000    6.857 
#    0.000    2.857    0.000    0.000    0.000    0.000 
#    0.000    0.000    0.000    0.000    0.000    0.000 
#
# Total GULP energy -78286.404515 kJ/mol
# GULP energy per Si atom -5591.886037 kJ/mol
# Density = 1.914024 g / cm^3
# Si number density = 19.183902 Si / 1000 Ang^3
#
#
#
# Elastic Constant Matrix: (Units=GPa)
#
#
# Indices 1 2 3 4 5 6 
#
# 1 137.6666 57.5282 72.8870 0.0000 0.0000 0.0000
# 2 57.5282 36.4218 42.2097 0.0000 0.0000 0.0000
# 3 72.8870 42.2097 184.2186 0.0000 0.0000 0.0000
# 4 0.0000 0.0000 0.0000 -17.7465 0.0000 0.0000
# 5 0.0000 0.0000 0.0000 0.0000 38.5978 0.0000
# 6 0.0000 0.0000 0.0000 0.0000 0.0000 14.1573
#
#
#
# Elastic Compliance Matrix: (Units=1/GPa)
#
#
# Indices 1 2 3 4 5 6 
#
# 1 0.021498 -0.032812 -0.000988 0.000000 0.000000 0.000000
# 2 -0.032812 0.087462 -0.007058 0.000000 0.000000 0.000000
# 3 -0.000988 -0.007058 0.007436 0.000000 0.000000 0.000000
# 4 0.000000 0.000000 0.000000 -0.056349 0.000000 0.000000
# 5 0.000000 0.000000 0.000000 0.000000 0.025908 0.000000
# 6 0.000000 0.000000 0.000000 0.000000 0.000000 0.070635
#
#
# Mechanical properties :
#
#
# Convention : Reuss Voigt Hill
#
# Bulk Modulus (GPa) = 28.83381 78.17296 53.50339
# Shear Modulus (GPa) = 20.01075 19.38052 19.69563
#
# Velocity S-wave (km/s) = 3.23321 3.18189 3.20765
# Velocity P-wave (km/s) = 5.38526 7.37136 6.45515
#
# Compressibility (1/GPa) = 0.03468151
#
# Stress axis : x y z
#
# Youngs Moduli (GPa) = 46.51530 11.43358 134.47535
#
# Poissons Ratio (x) = 0.37516 0.13284
# Poissons Ratio (y) = 1.52625 0.94910
# Poissons Ratio (z) = 0.04595 0.08070
#
# Static dielectric constant tensor:
#      x y z
#    x 1.644380 0.000000 0.000000 
#    y 0.000000 1.878610 0.000000 
#    z 0.000000 0.000000 1.652190 
# 
# From -- ./inp_files/1877.got.cif
#   From: 2010.05.17/outbox.cif.g08.bks.cpg/sg41_1_cif.got.tgz:1877.got - 2010.06.03 18:54:24.
