data_PCOD9367879
_publ_section_title
;
Structure prediction by ZEFSAII (Michael W. Deem and Ramdas Pophale) SiO2 
 PCOD9367879
Probable space group: A B A 2
;
_chemical_formula_sum "Si O2"
_cell_formula_units_Z 52
_cell_length_a 9.925846
_cell_length_b 24.249625
_cell_length_c 8.630453
_cell_angle_alpha 90.000000
_cell_angle_beta 90.000000
_cell_angle_gamma 90.000000
_cell_volume 2077.333150
_symmetry_space_group_name_H-M "A B A 2"
_symmetry_group_IT_number 41
_symmetry_cell_setting 'orthorhombic'
loop_
_space_group_symop_operation_xyz
x,y,z
-x,-y,z
1/2-x,y,1/2+z
1/2+x,-y,1/2+z
x,1/2+y,1/2+z
-x,1/2-y,1/2+z
1/2-x,1/2+y,z
1/2+x,1/2-y,z
loop_
_atom_site_type_symbol
_atom_site_label
_atom_site_fract_x
_atom_site_fract_y
_atom_site_fract_z
Si Si1 0.658898 0.206539 0.780640
Si Si2 0.747127 0.516099 0.391243
Si Si3 0.339463 0.635991 0.044014
Si Si4 0.598324 0.086882 0.640537
Si Si5 0.611384 0.411089 0.727494
Si Si6 0.000000 0.500000 0.094801
Si Si7 0.583384 0.740142 0.624683
O O1 0.638267 0.148682 0.690974
O O2 0.568088 0.251474 0.687173
O O3 0.817446 0.218000 0.758988
O O4 0.608889 0.208617 0.960431
O O5 0.653805 0.548305 0.272818
O O6 0.840712 0.558962 0.485920
O O7 0.825418 0.466306 0.308822
O O8 0.636169 0.489441 0.503105
O O9 0.437119 0.591594 0.127908
O O10 0.190421 0.618219 0.089038
O O11 0.367394 0.697327 0.097347
O O12 0.383068 0.631679 0.866511
O O13 0.474314 0.439724 0.672245
#
# Coordination Sequence:
#
# PCOD9367879 Si02
#       7
#     8   8   8   8   8   4   8
#     4  11  24  46  70  99 133 174 224 282 340 403
#     4  12  23  43  65  95 132 170 215 265 320 387
#     4  11  25  43  66  96 129 171 217 266 326 389
#     4  11  25  43  66  96 129 171 217 266 326 389
#     4  12  23  43  65  95 132 170 215 265 320 387
#     4  12  24  40  64  92 128 172 214 258 316 372
#     4  11  24  46  70  99 133 174 224 282 340 403
#
# _framework density 25.032094000000001
#
# number of rings (size 3 to 8) (size 9 to 14) (size 15 to 20)
#    0.000    0.615    3.077    4.615    0.000    3.692 
#    5.538    0.000    0.000    0.000    0.000    0.000 
#    0.000    0.000    0.000    0.000    0.000    0.000 
#
# Total GULP energy -145353.783754 kJ/mol
# GULP energy per Si atom -5590.530144 kJ/mol
# Density = 2.497512 g / cm^3
# Si number density = 25.032094 Si / 1000 Ang^3
#
#
#
# Elastic Constant Matrix: (Units=GPa)
#
#
# Indices 1 2 3 4 5 6 
#
# 1 24.4739 7.8106 -11.4497 0.0000 0.0000 0.0000
# 2 7.8106 74.1649 -0.9564 0.0000 0.0000 0.0000
# 3 -11.4497 -0.9564 71.3707 0.0000 0.0000 0.0000
# 4 0.0000 0.0000 0.0000 25.0149 0.0000 0.0000
# 5 0.0000 0.0000 0.0000 0.0000 36.1231 0.0000
# 6 0.0000 0.0000 0.0000 0.0000 0.0000 34.1933
#
#
#
# Elastic Compliance Matrix: (Units=1/GPa)
#
#
# Indices 1 2 3 4 5 6 
#
# 1 0.045774 -0.004727 0.007280 0.000000 0.000000 0.000000
# 2 -0.004727 0.013974 -0.000571 0.000000 0.000000 0.000000
# 3 0.007280 -0.000571 0.015172 0.000000 0.000000 0.000000
# 4 0.000000 0.000000 0.000000 0.039976 0.000000 0.000000
# 5 0.000000 0.000000 0.000000 0.000000 0.027683 0.000000
# 6 0.000000 0.000000 0.000000 0.000000 0.000000 0.029245
#
#
# Mechanical properties :
#
#
# Convention : Reuss Voigt Hill
#
# Bulk Modulus (GPa) = 12.67681 17.86872 15.27276
# Shear Modulus (GPa) = 25.75263 30.70659 28.22961
#
# Velocity S-wave (km/s) = 3.21095 3.50621 3.36182
# Velocity P-wave (km/s) = 4.33845 4.85234 4.60257
#
# Compressibility (1/GPa) = 0.07888421
#
# Stress axis : x y z
#
# Youngs Moduli (GPa) = 21.84632 71.56196 65.91261
#
# Poissons Ratio (x) = 0.33826 -0.47985
# Poissons Ratio (y) = 0.10326 0.03764
# Poissons Ratio (z) = -0.15904 0.04087
#
# Static dielectric constant tensor:
#      x y z
#    x 1.963290 0.000000 0.000000 
#    y 0.000000 1.999270 0.000000 
#    z 0.000000 0.000000 2.135710 
# 
# From -- ./inp_files/2138.got.cif
#   From: 2010.05.17/outbox.cif.g08.bks.cpg/sg41_2_cif.got.tgz:2138.got - 2010.06.03 18:54:24.
