data_PCOD9367521
_publ_section_title
;
Structure prediction by ZEFSAII (Michael W. Deem and Ramdas Pophale) SiO2 
 PCOD9367521
Probable space group: A B A 2
;
_chemical_formula_sum "Si O2"
_cell_formula_units_Z 56
_cell_length_a 14.235535
_cell_length_b 15.325801
_cell_length_c 11.694850
_cell_angle_alpha 90.000000
_cell_angle_beta 90.000000
_cell_angle_gamma 90.000000
_cell_volume 2551.476845
_symmetry_space_group_name_H-M "A B A 2"
_symmetry_group_IT_number 41
_symmetry_cell_setting 'orthorhombic'
loop_
_space_group_symop_operation_xyz
x,y,z
-x,-y,z
1/2-x,y,1/2+z
1/2+x,-y,1/2+z
x,1/2+y,1/2+z
-x,1/2-y,1/2+z
1/2-x,1/2+y,z
1/2+x,1/2-y,z
loop_
_atom_site_type_symbol
_atom_site_label
_atom_site_fract_x
_atom_site_fract_y
_atom_site_fract_z
Si Si1 0.096895 0.644857 0.803050
Si Si2 0.396039 0.007237 0.595981
Si Si3 0.103789 0.316292 0.152081
Si Si4 0.293107 0.380173 0.248518
Si Si5 0.081614 0.769933 0.394796
Si Si6 0.050845 0.592041 0.281669
Si Si7 0.763407 0.954977 0.883855
O O1 0.096638 0.573474 0.702335
O O2 0.110302 0.735721 0.738805
O O3 0.181049 0.615933 0.885697
O O4 0.998912 0.658643 0.867631
O O5 0.322315 0.036323 0.499980
O O6 0.500000 0.000000 0.546789
O O7 0.363568 0.916713 0.652769
O O8 0.192869 0.373015 0.187923
O O9 0.005750 0.366949 0.174562
O O10 0.111693 0.281962 0.024298
O O11 0.335204 0.293593 0.306218
O O12 0.280781 0.452288 0.348224
O O13 0.044191 0.672049 0.372612
O O14 0.161706 0.571316 0.284511
O O15 0.000000 0.500000 0.304205
#
# Coordination Sequence:
#
# PCOD9367521 Si02
#       7
#     8   8   8   8   8   8   8
#     4  10  24  44  65 101 138 181 235 298 339 437
#     4  11  22  41  68  98 141 190 232 281 362 419
#     4  11  24  44  69 101 137 180 234 289 363 407
#     4  11  23  43  65 107 140 180 235 297 339 436
#     4  11  24  45  72 101 142 188 231 293 358 412
#     4  11  23  46  67 103 140 180 235 290 337 436
#     4  11  23  40  69  99 139 188 236 288 360 415
#
# _framework density 21.948072
#
# number of rings (size 3 to 8) (size 9 to 14) (size 15 to 20)
#    0.000    1.143    2.857    3.000    0.000    2.286 
#    5.143    5.714    0.000    0.000    0.000    0.000 
#    0.000    0.000    0.000    0.000    0.000    0.000 
#
# Total GULP energy -156409.093709 kJ/mol
# GULP energy per Si atom -5586.039061 kJ/mol
# Density = 2.189812 g / cm^3
# Si number density = 21.948072 Si / 1000 Ang^3
#
#
#
# Elastic Constant Matrix: (Units=GPa)
#
#
# Indices 1 2 3 4 5 6 
#
# 1 77.0784 3.7752 18.3543 0.0000 0.0000 0.0000
# 2 3.7752 88.2334 22.2661 0.0000 0.0000 0.0000
# 3 18.3543 22.2661 85.8111 0.0000 0.0000 0.0000
# 4 0.0000 0.0000 0.0000 16.9467 0.0000 0.0000
# 5 0.0000 0.0000 0.0000 0.0000 33.2987 0.0000
# 6 0.0000 0.0000 0.0000 0.0000 0.0000 29.1178
#
#
#
# Elastic Compliance Matrix: (Units=1/GPa)
#
#
# Indices 1 2 3 4 5 6 
#
# 1 0.013672 0.000164 -0.002967 0.000000 0.000000 0.000000
# 2 0.000164 0.012130 -0.003182 0.000000 0.000000 0.000000
# 3 -0.002967 -0.003182 0.013114 0.000000 0.000000 0.000000
# 4 0.000000 0.000000 0.000000 0.059009 0.000000 0.000000
# 5 0.000000 0.000000 0.000000 0.000000 0.030031 0.000000
# 6 0.000000 0.000000 0.000000 0.000000 0.000000 0.034343
#
#
# Mechanical properties :
#
#
# Convention : Reuss Voigt Hill
#
# Bulk Modulus (GPa) = 37.11307 37.76824 37.44066
# Shear Modulus (GPa) = 27.28491 29.65445 28.46968
#
# Velocity S-wave (km/s) = 3.52967 3.67974 3.60549
# Velocity P-wave (km/s) = 5.79289 5.94133 5.86758
#
# Compressibility (1/GPa) = 0.02694468
#
# Stress axis : x y z
#
# Youngs Moduli (GPa) = 73.14068 82.44250 76.25518
#
# Poissons Ratio (x) = -0.01350 0.22624
# Poissons Ratio (y) = -0.01197 0.24267
# Poissons Ratio (z) = 0.21700 0.26236
#
# Static dielectric constant tensor:
#      x y z
#    x 1.861130 0.000000 0.000000 
#    y 0.000000 1.813220 0.000000 
#    z 0.000000 0.000000 1.763440 
# 
# From -- ./inp_files/5603.got.cif
#   From: 2010.05.17/outbox.cif.g08.bks.cpg/sg41_3_cif.got.tgz:5603.got - 2010.06.03 18:54:24.
