data_PCOD9367632
_publ_section_title
;
Structure prediction by ZEFSAII (Michael W. Deem and Ramdas Pophale) SiO2 
 PCOD9367632
Probable space group: A B A 2
;
_chemical_formula_sum "Si O2"
_cell_formula_units_Z 44
_cell_length_a 30.278116
_cell_length_b 7.347832
_cell_length_c 7.888624
_cell_angle_alpha 90.000000
_cell_angle_beta 90.000000
_cell_angle_gamma 90.000000
_cell_volume 1755.049311
_symmetry_space_group_name_H-M "A B A 2"
_symmetry_group_IT_number 41
_symmetry_cell_setting 'orthorhombic'
loop_
_space_group_symop_operation_xyz
x,y,z
-x,-y,z
1/2-x,y,1/2+z
1/2+x,-y,1/2+z
x,1/2+y,1/2+z
-x,1/2-y,1/2+z
1/2-x,1/2+y,z
1/2+x,1/2-y,z
loop_
_atom_site_type_symbol
_atom_site_label
_atom_site_fract_x
_atom_site_fract_y
_atom_site_fract_z
Si Si1 0.795826 0.037422 0.509140
Si Si2 0.697874 0.129267 0.622367
Si Si3 0.631274 0.797270 0.634241
Si Si4 0.089321 0.658144 0.969642
Si Si5 0.500000 0.000000 0.882880
Si Si6 0.417775 0.282088 0.331103
O O1 0.745081 0.051031 0.564600
O O2 0.798710 0.137285 0.326844
O O3 0.829172 0.150127 0.625748
O O4 0.807919 0.822528 0.525836
O O5 0.659890 0.979704 0.600408
O O6 0.606837 0.538378 0.404795
O O7 0.604599 0.735658 0.803891
O O8 0.590991 0.833985 0.498342
O O9 0.036598 0.620890 0.977541
O O10 0.101837 0.709837 0.158317
O O11 0.467035 0.855767 0.795985
#
# Coordination Sequence:
#
# PCOD9367632 Si02
#       6
#     8   8   8   8   4   8
#     4  12  28  51  76 113 154 209 273 329 409 484
#     4  12  28  51  76 113 154 209 273 329 409 484
#     4  12  28  48  84 114 164 210 266 346 400 490
#     4  10  25  48  75 115 154 202 264 323 403 491
#     4   8  24  48  74 118 156 198 270 328 402 510
#     4  10  25  48  75 115 154 202 264 323 403 491
#
# _framework density 25.070520999999999
#
# number of rings (size 3 to 8) (size 9 to 14) (size 15 to 20)
#    1.091    0.000    1.818    2.182    2.545   10.182 
#    0.000    1.818    0.000    0.000    0.000    0.000 
#    0.000    0.000    0.000    0.000    0.000    0.000 
#
# Total GULP energy -122537.969492 kJ/mol
# GULP energy per Si atom -5569.907704 kJ/mol
# Density = 2.501346 g / cm^3
# Si number density = 25.070521 Si / 1000 Ang^3
#
#
#
# Elastic Constant Matrix: (Units=GPa)
#
#
# Indices 1 2 3 4 5 6 
#
# 1 107.9113 21.2213 27.4575 0.0000 0.0000 0.0000
# 2 21.2213 95.8939 21.2291 0.0000 0.0000 0.0000
# 3 27.4575 21.2291 168.2390 0.0000 0.0000 0.0000
# 4 0.0000 0.0000 0.0000 16.5535 0.0000 0.0000
# 5 0.0000 0.0000 0.0000 0.0000 30.8295 0.0000
# 6 0.0000 0.0000 0.0000 0.0000 0.0000 41.4616
#
#
#
# Elastic Compliance Matrix: (Units=1/GPa)
#
#
# Indices 1 2 3 4 5 6 
#
# 1 0.009995 -0.001904 -0.001391 0.000000 0.000000 0.000000
# 2 -0.001904 0.011091 -0.001089 0.000000 0.000000 0.000000
# 3 -0.001391 -0.001089 0.006308 0.000000 0.000000 0.000000
# 4 0.000000 0.000000 0.000000 0.060410 0.000000 0.000000
# 5 0.000000 0.000000 0.000000 0.000000 0.032437 0.000000
# 6 0.000000 0.000000 0.000000 0.000000 0.000000 0.024119
#
#
# Mechanical properties :
#
#
# Convention : Reuss Voigt Hill
#
# Bulk Modulus (GPa) = 53.68646 56.87332 55.27989
# Shear Modulus (GPa) = 31.38023 37.91134 34.64578
#
# Velocity S-wave (km/s) = 3.54174 3.89290 3.72147
# Velocity P-wave (km/s) = 6.17948 6.55293 6.36894
#
# Compressibility (1/GPa) = 0.01862667
#
# Stress axis : x y z
#
# Youngs Moduli (GPa) = 100.04768 90.16676 158.52068
#
# Poissons Ratio (x) = 0.17168 0.22051
# Poissons Ratio (y) = 0.19049 0.17258
# Poissons Ratio (z) = 0.13917 0.09817
#
# Static dielectric constant tensor:
#      x y z
#    x 2.105940 0.000000 0.000000 
#    y 0.000000 2.761070 0.000000 
#    z 0.000000 0.000000 2.656490 
# 
# From -- ./inp_files/3896.got.cif
#   From: 2010.05.17/outbox.cif.g08.bks.cpg/sg41_2_cif.got.tgz:3896.got - 2010.06.03 18:54:24.
