data_PCOD9367320
_publ_section_title
;
Structure prediction by ZEFSAII (Michael W. Deem and Ramdas Pophale) SiO2 
 PCOD9367320
Probable space group: A B A 2
;
_chemical_formula_sum "Si O2"
_cell_formula_units_Z 56
_cell_length_a 31.947813
_cell_length_b 5.183724
_cell_length_c 15.279124
_cell_angle_alpha 90.000000
_cell_angle_beta 90.000000
_cell_angle_gamma 90.000000
_cell_volume 2530.355022
_symmetry_space_group_name_H-M "A B A 2"
_symmetry_group_IT_number 41
_symmetry_cell_setting 'orthorhombic'
loop_
_space_group_symop_operation_xyz
x,y,z
-x,-y,z
1/2-x,y,1/2+z
1/2+x,-y,1/2+z
x,1/2+y,1/2+z
-x,1/2-y,1/2+z
1/2-x,1/2+y,z
1/2+x,1/2-y,z
loop_
_atom_site_type_symbol
_atom_site_label
_atom_site_fract_x
_atom_site_fract_y
_atom_site_fract_z
Si Si1 0.845342 0.415151 0.247400
Si Si2 0.500000 0.000000 0.995323
Si Si3 0.275658 0.955993 0.745854
Si Si4 0.910712 0.546777 0.705293
Si Si5 0.862014 0.493437 0.434397
Si Si6 0.671581 0.830524 0.609468
Si Si7 0.500000 0.000000 0.614302
Si Si8 0.912125 0.971691 0.405419
O O1 0.820995 0.150479 0.273949
O O2 0.892030 0.334300 0.220455
O O3 0.842899 0.558834 0.339341
O O4 0.825180 0.561663 0.164372
O O5 0.506802 0.249067 0.055219
O O6 0.459287 0.044572 0.937328
O O7 0.245050 0.724136 0.771629
O O8 0.288837 0.006235 0.644745
O O9 0.874767 0.424129 0.643012
O O10 0.957174 0.540828 0.668114
O O11 0.910778 0.420647 0.801452
O O12 0.831001 0.376365 0.506513
O O13 0.885218 0.759341 0.458710
O O14 0.894762 0.259804 0.420541
#
# Coordination Sequence:
#
# PCOD9367320 Si02
#       8
#     8   4   8   8   8   8   4   8
#     4  10  23  44  69  99 132 175 226 270 340 404
#     4  12  25  40  57  92 128 174 222 287 340 393
#     4  11  23  42  70 100 135 175 213 270 335 402
#     4  10  23  41  65  95 128 181 224 276 337 400
#     4  11  25  40  68  98 127 171 224 277 326 403
#     4  11  22  42  72  95 133 172 223 271 331 401
#     4  12  27  40  63  94 134 174 232 277 340 397
#     4  11  23  42  61  91 132 169 227 279 337 395
#
# _framework density 22.13128
#
# number of rings (size 3 to 8) (size 9 to 14) (size 15 to 20)
#    0.000    1.143    2.857    3.000    8.000    0.000 
#    0.000    2.857    0.000    0.000    0.000    0.000 
#    0.000    0.000    0.000    0.000    0.000    0.000 
#
# Total GULP energy -156045.309401 kJ/mol
# GULP energy per Si atom -5573.046764 kJ/mol
# Density = 2.208091 g / cm^3
# Si number density = 22.131280 Si / 1000 Ang^3
#
#
#
# Elastic Constant Matrix: (Units=GPa)
#
#
# Indices 1 2 3 4 5 6 
#
# 1 81.2666 28.0130 -0.9078 0.0000 0.0000 0.0000
# 2 28.0130 124.3231 26.2909 0.0000 0.0000 0.0000
# 3 -0.9078 26.2909 68.8297 0.0000 0.0000 0.0000
# 4 0.0000 0.0000 0.0000 22.5706 0.0000 0.0000
# 5 0.0000 0.0000 0.0000 0.0000 24.9002 0.0000
# 6 0.0000 0.0000 0.0000 0.0000 0.0000 33.4356
#
#
#
# Elastic Compliance Matrix: (Units=1/GPa)
#
#
# Indices 1 2 3 4 5 6 
#
# 1 0.013474 -0.003344 0.001455 0.000000 0.000000 0.000000
# 2 -0.003344 0.009580 -0.003703 0.000000 0.000000 0.000000
# 3 0.001455 -0.003703 0.015962 0.000000 0.000000 0.000000
# 4 0.000000 0.000000 0.000000 0.044305 0.000000 0.000000
# 5 0.000000 0.000000 0.000000 0.000000 0.040160 0.000000
# 6 0.000000 0.000000 0.000000 0.000000 0.000000 0.029908
#
#
# Mechanical properties :
#
#
# Convention : Reuss Voigt Hill
#
# Bulk Modulus (GPa) = 35.92972 42.35685 39.14328
# Shear Modulus (GPa) = 28.76005 30.91618 29.83811
#
# Velocity S-wave (km/s) = 3.60880 3.74163 3.67581
# Velocity P-wave (km/s) = 5.79954 6.15198 5.97835
#
# Compressibility (1/GPa) = 0.02783211
#
# Stress axis : x y z
#
# Youngs Moduli (GPa) = 74.21693 104.38257 62.64722
#
# Poissons Ratio (x) = 0.34902 -0.09115
# Poissons Ratio (y) = 0.24816 0.23201
# Poissons Ratio (z) = -0.10798 0.38657
#
# Static dielectric constant tensor:
#      x y z
#    x 1.825610 0.000000 0.000000 
#    y 0.000000 1.926690 0.000000 
#    z 0.000000 0.000000 1.866260 
# 
# From -- ./inp_files/9312.got.cif
#   From: 2010.05.17/outbox.cif.g08.bks.cpg/sg41_5_cif.got.tgz:9312.got - 2010.06.03 18:54:24.
