data_PCOD9367729
_publ_section_title
;
Structure prediction by ZEFSAII (Michael W. Deem and Ramdas Pophale) SiO2 
 PCOD9367729
Probable space group: A B A 2
;
_chemical_formula_sum "Si O2"
_cell_formula_units_Z 48
_cell_length_a 16.853592
_cell_length_b 9.568087
_cell_length_c 13.264111
_cell_angle_alpha 90.000000
_cell_angle_beta 90.000000
_cell_angle_gamma 90.000000
_cell_volume 2138.925900
_symmetry_space_group_name_H-M "A B A 2"
_symmetry_group_IT_number 41
_symmetry_cell_setting 'orthorhombic'
loop_
_space_group_symop_operation_xyz
x,y,z
-x,-y,z
1/2-x,y,1/2+z
1/2+x,-y,1/2+z
x,1/2+y,1/2+z
-x,1/2-y,1/2+z
1/2-x,1/2+y,z
1/2+x,1/2-y,z
loop_
_atom_site_type_symbol
_atom_site_label
_atom_site_fract_x
_atom_site_fract_y
_atom_site_fract_z
Si Si1 0.935312 0.112921 0.256600
Si Si2 0.175725 0.837591 0.759891
Si Si3 0.632084 0.551997 0.559442
Si Si4 0.517904 0.659361 0.860583
Si Si5 0.790737 0.963949 0.345477
Si Si6 0.467675 0.714502 0.565865
O O1 0.850703 0.042901 0.268775
O O2 0.959297 0.161648 0.145520
O O3 0.943237 0.250048 0.325524
O O4 0.000000 0.000000 0.294388
O O5 0.188766 0.876358 0.642640
O O6 0.080880 0.828638 0.770699
O O7 0.206532 0.964609 0.827782
O O8 0.209881 0.695773 0.808058
O O9 0.675181 0.504090 0.456144
O O10 0.556520 0.655471 0.546747
O O11 0.589758 0.410926 0.600323
O O12 0.500000 0.500000 0.881409
O O13 0.557738 0.730509 0.956784
#
# Coordination Sequence:
#
# PCOD9367729 Si02
#       6
#     8   8   8   8   8   8
#     4  12  22  44  72 102 137 187 246 301 353 430
#     4  12  28  46  71 107 147 191 243 300 371 440
#     4  11  23  46  73 104 143 189 239 298 371 433
#     4  12  24  42  72 110 140 183 251 301 359 431
#     4  12  28  47  72 102 150 193 237 303 369 437
#     4  11  22  40  76 107 138 187 240 307 362 428
#
# _framework density 22.44117
#
# number of rings (size 3 to 8) (size 9 to 14) (size 15 to 20)
#    0.000    0.333    6.667    1.500    4.667    2.667 
#    0.000    0.000    0.000    0.000    0.000    0.000 
#    0.000    0.000    0.000    0.000    0.000    0.000 
#
# Total GULP energy -134110.327770 kJ/mol
# GULP energy per Si atom -5587.930324 kJ/mol
# Density = 2.239009 g / cm^3
# Si number density = 22.441170 Si / 1000 Ang^3
#
#
#
# Elastic Constant Matrix: (Units=GPa)
#
#
# Indices 1 2 3 4 5 6 
#
# 1 24.5798 4.4825 5.5031 0.0000 0.0000 0.0000
# 2 4.4825 114.0204 44.7260 0.0000 0.0000 0.0000
# 3 5.5031 44.7260 136.4219 0.0000 0.0000 0.0000
# 4 0.0000 0.0000 0.0000 38.0691 0.0000 0.0000
# 5 0.0000 0.0000 0.0000 0.0000 21.2973 0.0000
# 6 0.0000 0.0000 0.0000 0.0000 0.0000 23.8672
#
#
#
# Elastic Compliance Matrix: (Units=1/GPa)
#
#
# Indices 1 2 3 4 5 6 
#
# 1 0.041177 -0.001110 -0.001297 0.000000 0.000000 0.000000
# 2 -0.001110 0.010095 -0.003265 0.000000 0.000000 0.000000
# 3 -0.001297 -0.003265 0.008453 0.000000 0.000000 0.000000
# 4 0.000000 0.000000 0.000000 0.026268 0.000000 0.000000
# 5 0.000000 0.000000 0.000000 0.000000 0.046954 0.000000
# 6 0.000000 0.000000 0.000000 0.000000 0.000000 0.041898
#
#
# Mechanical properties :
#
#
# Convention : Reuss Voigt Hill
#
# Bulk Modulus (GPa) = 20.66950 42.71613 31.69282
# Shear Modulus (GPa) = 24.71389 31.33410 28.02399
#
# Velocity S-wave (km/s) = 3.32215 3.74073 3.53764
# Velocity P-wave (km/s) = 4.89347 6.14276 5.55336
#
# Compressibility (1/GPa) = 0.04838046
#
# Stress axis : x y z
#
# Youngs Moduli (GPa) = 24.28564 99.06249 118.30294
#
# Poissons Ratio (x) = 0.10996 0.15345
# Poissons Ratio (y) = 0.02696 0.38623
# Poissons Ratio (z) = 0.03150 0.32341
#
# Static dielectric constant tensor:
#      x y z
#    x 1.883870 0.000000 0.000000 
#    y 0.000000 1.827100 0.000000 
#    z 0.000000 0.000000 1.872240 
# 
# From -- ./inp_files/8700.got.cif
#   From: 2010.05.17/outbox.cif.g08.bks.cpg/sg41_5_cif.got.tgz:8700.got - 2010.06.03 18:54:24.
