data_PCOD9367650
_publ_section_title
;
Structure prediction by ZEFSAII (Michael W. Deem and Ramdas Pophale) SiO2 
 PCOD9367650
Probable space group: A B A 2
;
_chemical_formula_sum "Si O2"
_cell_formula_units_Z 64
_cell_length_a 21.759578
_cell_length_b 15.628968
_cell_length_c 9.194805
_cell_angle_alpha 90.000000
_cell_angle_beta 90.000000
_cell_angle_gamma 90.000000
_cell_volume 3126.966970
_symmetry_space_group_name_H-M "A B A 2"
_symmetry_group_IT_number 41
_symmetry_cell_setting 'orthorhombic'
loop_
_space_group_symop_operation_xyz
x,y,z
-x,-y,z
1/2-x,y,1/2+z
1/2+x,-y,1/2+z
x,1/2+y,1/2+z
-x,1/2-y,1/2+z
1/2-x,1/2+y,z
1/2+x,1/2-y,z
loop_
_atom_site_type_symbol
_atom_site_label
_atom_site_fract_x
_atom_site_fract_y
_atom_site_fract_z
Si Si1 0.478920 0.680154 0.722960
Si Si2 0.448348 0.437306 0.903744
Si Si3 0.559177 0.949262 0.983918
Si Si4 0.737163 0.047180 0.706387
Si Si5 0.381634 0.205423 0.476813
Si Si6 0.322415 0.542106 0.937769
Si Si7 0.338650 0.398461 0.475390
Si Si8 0.976824 0.868951 0.173648
O O1 0.542175 0.640385 0.791139
O O2 0.441695 0.629346 0.597862
O O3 0.433660 0.690231 0.857544
O O4 0.494578 0.775169 0.678111
O O5 0.500000 0.500000 0.844718
O O6 0.385356 0.489160 0.905722
O O7 0.474748 0.415407 0.064991
O O8 0.537911 0.913882 0.825969
O O9 0.500000 0.000000 0.035304
O O10 0.615840 0.017653 0.982199
O O11 0.693394 0.101139 0.815126
O O12 0.786667 0.094065 0.601247
O O13 0.698295 0.990456 0.595264
O O14 0.774817 0.989222 0.817830
O O15 0.325796 0.144760 0.430011
O O16 0.370893 0.306013 0.494993
O O17 0.409677 0.150929 0.609242
#
# Coordination Sequence:
#
# PCOD9367650 Si02
#       8
#     8   8   8   8   8   8   8   8
#     4  11  23  39  59 106 134 170 207 265 336 399
#     4  11  22  39  68  93 133 168 207 257 346 401
#     4  12  24  38  69 100 135 170 214 272 338 394
#     4  10  26  46  70  88 126 180 228 270 330 388
#     4  11  24  40  67  92 135 165 220 275 325 393
#     4  11  23  46  67  94 124 176 221 269 327 398
#     4  11  25  46  66 100 130 175 226 279 328 401
#     4  11  23  39  59 106 134 170 207 265 336 399
#
# _framework density 20.467116999999998
#
# number of rings (size 3 to 8) (size 9 to 14) (size 15 to 20)
#    0.000    1.000    2.500    5.250    7.000    1.000 
#    0.000    0.000    0.000    0.000    0.000    0.000 
#    0.000    0.000    0.000    0.000    0.000    0.000 
#
# Total GULP energy -178345.368768 kJ/mol
# GULP energy per Si atom -5573.292774 kJ/mol
# Density = 2.042053 g / cm^3
# Si number density = 20.467117 Si / 1000 Ang^3
#
#
#
# Elastic Constant Matrix: (Units=GPa)
#
#
# Indices 1 2 3 4 5 6 
#
# 1 70.3062 16.3751 22.4375 0.0000 0.0000 0.0000
# 2 16.3751 89.5770 13.9718 0.0000 0.0000 0.0000
# 3 22.4375 13.9718 87.8538 0.0000 0.0000 0.0000
# 4 0.0000 0.0000 0.0000 30.4897 0.0000 0.0000
# 5 0.0000 0.0000 0.0000 0.0000 -1.9093 0.0000
# 6 0.0000 0.0000 0.0000 0.0000 0.0000 18.4418
#
#
#
# Elastic Compliance Matrix: (Units=1/GPa)
#
#
# Indices 1 2 3 4 5 6 
#
# 1 0.015949 -0.002338 -0.003702 0.000000 0.000000 0.000000
# 2 -0.002338 0.011790 -0.001278 0.000000 0.000000 0.000000
# 3 -0.003702 -0.001278 0.012531 0.000000 0.000000 0.000000
# 4 0.000000 0.000000 0.000000 0.032798 0.000000 0.000000
# 5 0.000000 0.000000 0.000000 0.000000 -0.523760 0.000000
# 6 0.000000 0.000000 0.000000 0.000000 0.000000 0.054225
#
#
# Mechanical properties :
#
#
# Convention : Reuss Voigt Hill
#
# Bulk Modulus (GPa) = 39.00845 39.25620 39.13233
# Shear Modulus (GPa) = -13.39456 22.40127 4.50336
#
# Velocity S-wave (km/s) = -2.56098 3.31191 1.48495
# Velocity P-wave (km/s) = 3.21801 5.81780 4.70119
#
# Compressibility (1/GPa) = 0.02563547
#
# Stress axis : x y z
#
# Youngs Moduli (GPa) = 62.69818 84.81513 79.80116
#
# Poissons Ratio (x) = 0.19832 0.29539
# Poissons Ratio (y) = 0.14661 0.10198
# Poissons Ratio (z) = 0.23208 0.10838
#
# Static dielectric constant tensor:
#      x y z
#    x 1.776010 0.000000 0.000000 
#    y 0.000000 0.819480 0.000000 
#    z 0.000000 0.000000 1.885770 
# 
# From -- ./inp_files/3715.got.cif
#   From: 2010.05.17/outbox.cif.g08.bks.cpg/sg41_2_cif.got.tgz:3715.got - 2010.06.03 18:54:24.
