data_PCOD9367790
_publ_section_title
;
Structure prediction by ZEFSAII (Michael W. Deem and Ramdas Pophale) SiO2 
 PCOD9367790
Probable space group: A B A 2
;
_chemical_formula_sum "Si O2"
_cell_formula_units_Z 48
_cell_length_a 20.529294
_cell_length_b 11.798423
_cell_length_c 7.971961
_cell_angle_alpha 90.000000
_cell_angle_beta 90.000000
_cell_angle_gamma 90.000000
_cell_volume 1930.914937
_symmetry_space_group_name_H-M "A B A 2"
_symmetry_group_IT_number 41
_symmetry_cell_setting 'orthorhombic'
loop_
_space_group_symop_operation_xyz
x,y,z
-x,-y,z
1/2-x,y,1/2+z
1/2+x,-y,1/2+z
x,1/2+y,1/2+z
-x,1/2-y,1/2+z
1/2-x,1/2+y,z
1/2+x,1/2-y,z
loop_
_atom_site_type_symbol
_atom_site_label
_atom_site_fract_x
_atom_site_fract_y
_atom_site_fract_z
Si Si1 0.613274 0.876806 0.675240
Si Si2 0.847096 0.986146 0.656179
Si Si3 0.939283 0.617912 0.733710
Si Si4 0.543530 0.832629 0.006936
Si Si5 0.758181 0.385534 0.865260
Si Si6 0.837668 0.705891 0.952567
O O1 0.570576 0.990761 0.666142
O O2 0.588129 0.812641 0.841925
O O3 0.689952 0.892037 0.713487
O O4 0.612629 0.804434 0.508312
O O5 0.916809 0.923753 0.623460
O O6 0.801539 0.929612 0.515472
O O7 0.806268 0.959040 0.822754
O O8 0.843264 0.116740 0.603521
O O9 0.964395 0.716134 0.610200
O O10 0.865922 0.650329 0.786108
O O11 0.979191 0.622084 0.910210
O O12 0.731170 0.260788 0.907437
#
# Coordination Sequence:
#
# PCOD9367790 Si02
#       6
#     8   8   8   8   8   8
#     4  11  26  44  71 106 147 191 241 303 368 440
#     4  11  25  43  73 106 148 191 247 309 364 450
#     4  12  25  49  75 104 148 192 249 310 366 444
#     4  11  25  48  75 103 144 195 244 312 370 431
#     4  11  23  43  65 109 144 191 239 298 372 437
#     4  12  25  43  73 105 146 198 239 300 370 433
#
# _framework density 24.858682000000002
#
# number of rings (size 3 to 8) (size 9 to 14) (size 15 to 20)
#    0.000    0.667    6.667    1.500    2.333    4.000 
#    0.000    0.000    0.000    0.000    0.000    0.000 
#    0.000    0.000    0.000    0.000    0.000    0.000 
#
# Total GULP energy -134008.266945 kJ/mol
# GULP energy per Si atom -5583.677789 kJ/mol
# Density = 2.480210 g / cm^3
# Si number density = 24.858682 Si / 1000 Ang^3
#
#
#
# Elastic Constant Matrix: (Units=GPa)
#
#
# Indices 1 2 3 4 5 6 
#
# 1 101.5053 58.5930 15.3196 0.0000 0.0000 0.0000
# 2 58.5930 146.7211 32.4429 0.0000 0.0000 0.0000
# 3 15.3196 32.4429 30.4382 0.0000 0.0000 0.0000
# 4 0.0000 0.0000 0.0000 40.7382 0.0000 0.0000
# 5 0.0000 0.0000 0.0000 0.0000 43.9101 0.0000
# 6 0.0000 0.0000 0.0000 0.0000 0.0000 34.6279
#
#
#
# Elastic Compliance Matrix: (Units=1/GPa)
#
#
# Indices 1 2 3 4 5 6 
#
# 1 0.012843 -0.004840 -0.001305 0.000000 0.000000 0.000000
# 2 -0.004840 0.010741 -0.009013 0.000000 0.000000 0.000000
# 3 -0.001305 -0.009013 0.043117 0.000000 0.000000 0.000000
# 4 0.000000 0.000000 0.000000 0.024547 0.000000 0.000000
# 5 0.000000 0.000000 0.000000 0.000000 0.022774 0.000000
# 6 0.000000 0.000000 0.000000 0.000000 0.000000 0.028878
#
#
# Mechanical properties :
#
#
# Convention : Reuss Voigt Hill
#
# Bulk Modulus (GPa) = 27.48378 54.59729 41.04054
# Shear Modulus (GPa) = 26.97690 35.34253 31.15971
#
# Velocity S-wave (km/s) = 3.29783 3.77468 3.54428
# Velocity P-wave (km/s) = 5.05776 6.40378 5.77015
#
# Compressibility (1/GPa) = 0.03638510
#
# Stress axis : x y z
#
# Youngs Moduli (GPa) = 77.86616 93.09691 23.19293
#
# Poissons Ratio (x) = 0.45060 0.03026
# Poissons Ratio (y) = 0.37689 0.20904
# Poissons Ratio (z) = 0.10159 0.83907
#
# Static dielectric constant tensor:
#      x y z
#    x 2.046100 0.000000 0.000000 
#    y 0.000000 2.031470 0.000000 
#    z 0.000000 0.000000 2.077120 
# 
# From -- ./inp_files/3356.got.cif
#   From: 2010.05.17/outbox.cif.g08.bks.cpg/sg41_2_cif.got.tgz:3356.got - 2010.06.03 18:54:24.
