data_PCOD9367518
_publ_section_title
;
Structure prediction by ZEFSAII (Michael W. Deem and Ramdas Pophale) SiO2 
 PCOD9367518
Probable space group: A B A 2
;
_chemical_formula_sum "Si O2"
_cell_formula_units_Z 64
_cell_length_a 11.704930
_cell_length_b 15.027885
_cell_length_c 17.077263
_cell_angle_alpha 90.000000
_cell_angle_beta 90.000000
_cell_angle_gamma 90.000000
_cell_volume 3003.896402
_symmetry_space_group_name_H-M "A B A 2"
_symmetry_group_IT_number 41
_symmetry_cell_setting 'orthorhombic'
loop_
_space_group_symop_operation_xyz
x,y,z
-x,-y,z
1/2-x,y,1/2+z
1/2+x,-y,1/2+z
x,1/2+y,1/2+z
-x,1/2-y,1/2+z
1/2-x,1/2+y,z
1/2+x,1/2-y,z
loop_
_atom_site_type_symbol
_atom_site_label
_atom_site_fract_x
_atom_site_fract_y
_atom_site_fract_z
Si Si1 0.499361 0.900005 0.668610
Si Si2 0.936390 0.084797 0.596203
Si Si3 0.838981 0.315136 0.082421
Si Si4 0.306874 0.712379 0.240849
Si Si5 0.115615 0.907878 0.771278
Si Si6 0.310696 0.371147 0.052685
Si Si7 0.848871 0.433214 0.515077
Si Si8 0.137828 0.592185 0.339053
O O1 0.569143 0.831926 0.722329
O O2 0.372043 0.878633 0.638589
O O3 0.569030 0.905138 0.586165
O O4 0.500000 0.000000 0.702273
O O5 0.891245 0.057385 0.681898
O O6 0.825610 0.121430 0.553856
O O7 0.033235 0.159175 0.605500
O O8 0.000000 0.000000 0.560010
O O9 0.763268 0.293037 0.159007
O O10 0.841524 0.228179 0.027449
O O11 0.774870 0.397114 0.041287
O O12 0.322667 0.813140 0.269358
O O13 0.234044 0.653926 0.301315
O O14 0.985344 0.893556 0.799299
O O15 0.167347 0.988425 0.821469
O O16 0.351895 0.459846 0.009441
O O17 0.876660 0.393741 0.431236
#
# Coordination Sequence:
#
# PCOD9367518 Si02
#       8
#     8   8   8   8   8   8   8   8
#     4   9  22  38  66  96 129 164 212 274 326 375
#     4  12  20  40  66 101 125 160 217 278 328 375
#     4  11  22  38  69  98 128 159 217 273 327 376
#     4  11  22  41  65 100 128 164 215 277 328 380
#     4  11  23  37  69  93 126 170 217 268 322 394
#     4  11  23  38  68  94 130 165 215 272 323 381
#     4  10  24  44  61  95 131 173 212 263 323 390
#     4  11  25  43  64  93 135 176 219 260 324 405
#
# _framework density 21.305661000000001
#
# number of rings (size 3 to 8) (size 9 to 14) (size 15 to 20)
#    0.000    1.250    5.000    0.750   10.500    1.000 
#    0.000    0.000    2.750    0.000    0.000    0.000 
#    0.000    0.000    0.000    0.000    0.000    0.000 
#
# Total GULP energy -178732.108226 kJ/mol
# GULP energy per Si atom -5585.378382 kJ/mol
# Density = 2.125717 g / cm^3
# Si number density = 21.305661 Si / 1000 Ang^3
#
#
#
# Elastic Constant Matrix: (Units=GPa)
#
#
# Indices 1 2 3 4 5 6 
#
# 1 87.9453 33.4042 -7.7445 0.0000 0.0000 0.0000
# 2 33.4042 123.2571 8.8100 0.0000 0.0000 0.0000
# 3 -7.7445 8.8100 43.9036 0.0000 0.0000 0.0000
# 4 0.0000 0.0000 0.0000 11.4680 0.0000 0.0000
# 5 0.0000 0.0000 0.0000 0.0000 8.7992 0.0000
# 6 0.0000 0.0000 0.0000 0.0000 0.0000 40.2673
#
#
#
# Elastic Compliance Matrix: (Units=1/GPa)
#
#
# Indices 1 2 3 4 5 6 
#
# 1 0.013068 -0.003760 0.003060 0.000000 0.000000 0.000000
# 2 -0.003760 0.009313 -0.002532 0.000000 0.000000 0.000000
# 3 0.003060 -0.002532 0.023825 0.000000 0.000000 0.000000
# 4 0.000000 0.000000 0.000000 0.087199 0.000000 0.000000
# 5 0.000000 0.000000 0.000000 0.000000 0.113647 0.000000
# 6 0.000000 0.000000 0.000000 0.000000 0.000000 0.024834
#
#
# Mechanical properties :
#
#
# Convention : Reuss Voigt Hill
#
# Bulk Modulus (GPa) = 25.16277 36.00503 30.58390
# Shear Modulus (GPa) = 17.14681 26.81598 21.98139
#
# Velocity S-wave (km/s) = 2.83998 3.55157 3.21552
# Velocity P-wave (km/s) = 4.75289 5.80983 5.30774
#
# Compressibility (1/GPa) = 0.03974125
#
# Stress axis : x y z
#
# Youngs Moduli (GPa) = 76.52000 107.37413 41.97260
#
# Poissons Ratio (x) = 0.40377 -0.12843
# Poissons Ratio (y) = 0.28775 0.10628
# Poissons Ratio (z) = -0.23414 0.27189
#
# Static dielectric constant tensor:
#      x y z
#    x 1.797340 0.000000 0.000000 
#    y 0.000000 1.832960 0.000000 
#    z 0.000000 0.000000 1.745910 
# 
# From -- ./inp_files/10125.got.cif
#   From: 2010.05.17/outbox.cif.g08.bks.cpg/sg41_6_cif.got.tgz:10125.got - 2010.06.03 18:54:24.
