data_PCOD9367621
_publ_section_title
;
Structure prediction by ZEFSAII (Michael W. Deem and Ramdas Pophale) SiO2 
 PCOD9367621
Probable space group: A B A 2
;
_chemical_formula_sum "Si O2"
_cell_formula_units_Z 56
_cell_length_a 13.528282
_cell_length_b 8.125745
_cell_length_c 18.739347
_cell_angle_alpha 90.000000
_cell_angle_beta 90.000000
_cell_angle_gamma 90.000000
_cell_volume 2059.967128
_symmetry_space_group_name_H-M "A B A 2"
_symmetry_group_IT_number 41
_symmetry_cell_setting 'orthorhombic'
loop_
_space_group_symop_operation_xyz
x,y,z
-x,-y,z
1/2-x,y,1/2+z
1/2+x,-y,1/2+z
x,1/2+y,1/2+z
-x,1/2-y,1/2+z
1/2-x,1/2+y,z
1/2+x,1/2-y,z
loop_
_atom_site_type_symbol
_atom_site_label
_atom_site_fract_x
_atom_site_fract_y
_atom_site_fract_z
Si Si1 0.064387 0.164171 0.250000
Si Si2 0.106623 0.539551 0.393281
Si Si3 0.196165 0.688652 0.889887
Si Si4 0.896788 0.352180 0.177347
Si Si5 0.607914 0.002190 0.022807
Si Si6 0.096325 0.115480 0.053475
Si Si7 0.784657 0.020115 0.162675
O O1 0.123413 0.165131 0.323288
O O2 0.142999 0.124271 0.188941
O O3 0.994485 0.309926 0.220668
O O4 0.000000 0.000000 0.254657
O O5 0.190543 0.662358 0.363199
O O6 0.167887 0.374479 0.407966
O O7 0.078882 0.612879 0.469219
O O8 0.000000 0.500000 0.357931
O O9 0.173743 0.577652 0.959722
O O10 0.908060 0.384637 0.092541
O O11 0.821215 0.495779 0.198069
O O12 0.831084 0.189990 0.183545
O O13 0.620446 0.186280 0.057499
O O14 0.500000 0.000000 0.986478
O O15 0.194760 0.014695 0.078818
O O16 0.000000 0.000000 0.080962
#
# Coordination Sequence:
#
# PCOD9367621 Si02
#       7
#     8   8   8   8   8   8   8
#     4  10  25  46  71 102 147 202 260 325 397 481
#     4  11  26  47  74 112 156 204 266 332 401 485
#     4  12  26  47  76 112 159 212 266 334 411 486
#     4  11  24  43  71 110 148 199 264 329 398 485
#     4  12  23  41  75 112 154 206 267 328 401 483
#     4  11  22  42  72 113 157 200 257 330 400 478
#     4  11  22  42  68  99 145 193 247 320 400 470
#
# _framework density 27.184898
#
# number of rings (size 3 to 8) (size 9 to 14) (size 15 to 20)
#    0.000    0.857    0.000    8.571    0.000    4.571 
#    0.000    2.143    0.000    3.429    0.000    0.000 
#    0.000    0.000    0.000    0.000    0.000    0.000 
#
# Total GULP energy -156359.044876 kJ/mol
# GULP energy per Si atom -5584.251603 kJ/mol
# Density = 2.712302 g / cm^3
# Si number density = 27.184898 Si / 1000 Ang^3
#
#
#
# Elastic Constant Matrix: (Units=GPa)
#
#
# Indices 1 2 3 4 5 6 
#
# 1 200.7379 71.9375 37.3020 0.0000 0.0000 0.0000
# 2 71.9375 159.9724 19.4159 0.0000 0.0000 0.0000
# 3 37.3020 19.4159 105.6930 0.0000 0.0000 0.0000
# 4 0.0000 0.0000 0.0000 23.6777 0.0000 0.0000
# 5 0.0000 0.0000 0.0000 0.0000 22.3497 0.0000
# 6 0.0000 0.0000 0.0000 0.0000 0.0000 56.7212
#
#
#
# Elastic Compliance Matrix: (Units=1/GPa)
#
#
# Indices 1 2 3 4 5 6 
#
# 1 0.006231 -0.002593 -0.001723 0.000000 0.000000 0.000000
# 2 -0.002593 0.007473 -0.000458 0.000000 0.000000 0.000000
# 3 -0.001723 -0.000458 0.010153 0.000000 0.000000 0.000000
# 4 0.000000 0.000000 0.000000 0.042234 0.000000 0.000000
# 5 0.000000 0.000000 0.000000 0.000000 0.044743 0.000000
# 6 0.000000 0.000000 0.000000 0.000000 0.000000 0.017630
#
#
# Mechanical properties :
#
#
# Convention : Reuss Voigt Hill
#
# Bulk Modulus (GPa) = 69.87894 80.41267 75.14581
# Shear Modulus (GPa) = 35.01865 43.06622 39.04244
#
# Velocity S-wave (km/s) = 3.59300 3.98451 3.79381
# Velocity P-wave (km/s) = 6.55543 7.12830 6.84786
#
# Compressibility (1/GPa) = 0.01431046
#
# Stress axis : x y z
#
# Youngs Moduli (GPa) = 160.48911 133.82208 98.48873
#
# Poissons Ratio (x) = 0.34699 0.16967
# Poissons Ratio (y) = 0.41613 0.04507
# Poissons Ratio (z) = 0.27648 0.06124
#
# Static dielectric constant tensor:
#      x y z
#    x 2.284960 0.000000 0.000000 
#    y 0.000000 3.346400 0.000000 
#    z 0.000000 0.000000 2.332030 
# 
# From -- ./inp_files/11550.got.cif
#   From: 2010.05.17/outbox.cif.g08.bks.cpg/sg41_6_cif.got.tgz:11550.got - 2010.06.03 18:54:24.
