data_PCOD9367480
_publ_section_title
;
Structure prediction by ZEFSAII (Michael W. Deem and Ramdas Pophale) SiO2 
 PCOD9367480
Probable space group: A B A 2
;
_chemical_formula_sum "Si O2"
_cell_formula_units_Z 40
_cell_length_a 8.976351
_cell_length_b 11.823748
_cell_length_c 14.989358
_cell_angle_alpha 90.000000
_cell_angle_beta 90.000000
_cell_angle_gamma 90.000000
_cell_volume 1590.882204
_symmetry_space_group_name_H-M "A B A 2"
_symmetry_group_IT_number 41
_symmetry_cell_setting 'orthorhombic'
loop_
_space_group_symop_operation_xyz
x,y,z
-x,-y,z
1/2-x,y,1/2+z
1/2+x,-y,1/2+z
x,1/2+y,1/2+z
-x,1/2-y,1/2+z
1/2-x,1/2+y,z
1/2+x,1/2-y,z
loop_
_atom_site_type_symbol
_atom_site_label
_atom_site_fract_x
_atom_site_fract_y
_atom_site_fract_z
Si Si1 0.836414 0.839054 0.524740
Si Si2 0.065562 0.892384 0.229814
Si Si3 0.000000 0.000000 0.392426
Si Si4 0.496363 0.864517 0.469565
Si Si5 0.000000 0.000000 0.655446
Si Si6 0.138505 0.305750 0.273855
O O1 0.668801 0.830581 0.487767
O O2 0.902404 0.712781 0.539756
O O3 0.940571 0.897016 0.449182
O O4 0.870346 0.934226 0.599705
O O5 0.120839 0.954666 0.322467
O O6 0.198142 0.803991 0.228738
O O7 0.925117 0.816135 0.250506
O O8 0.000000 0.000000 0.175271
O O9 0.415765 0.832364 0.375476
O O10 0.500000 0.000000 0.475856
O O11 0.932831 0.095970 0.715762
#
# Coordination Sequence:
#
# PCOD9367480 Si02
#       6
#     8   8   4   8   4   8
#     4  11  26  48  70 111 153 198 240 319 375 450
#     4  10  24  41  71 111 150 186 258 309 361 441
#     4   9  20  40  70 102 147 180 238 313 348 424
#     4  12  25  44  83 107 142 200 269 292 368 459
#     4  11  30  48  74 104 173 186 248 315 412 426
#     4  12  24  45  76 112 148 202 248 320 372 453
#
# _framework density 25.143281999999999
#
# number of rings (size 3 to 8) (size 9 to 14) (size 15 to 20)
#    0.600    0.400    3.000    2.400    8.400    1.600 
#    0.000    0.000    0.000    0.000    0.000    0.000 
#    0.000    0.000    0.000    0.000    0.000    0.000 
#
# Total GULP energy -111390.254452 kJ/mol
# GULP energy per Si atom -5569.512723 kJ/mol
# Density = 2.508606 g / cm^3
# Si number density = 25.143282 Si / 1000 Ang^3
#
#
#
# Elastic Constant Matrix: (Units=GPa)
#
#
# Indices 1 2 3 4 5 6 
#
# 1 149.8810 52.3028 14.8832 0.0000 0.0000 0.0000
# 2 52.3028 197.8062 14.6700 0.0000 0.0000 0.0000
# 3 14.8832 14.6700 86.9268 0.0000 0.0000 0.0000
# 4 0.0000 0.0000 0.0000 39.8996 0.0000 0.0000
# 5 0.0000 0.0000 0.0000 0.0000 12.9007 0.0000
# 6 0.0000 0.0000 0.0000 0.0000 0.0000 34.3849
#
#
#
# Elastic Compliance Matrix: (Units=1/GPa)
#
#
# Indices 1 2 3 4 5 6 
#
# 1 0.007427 -0.001893 -0.000952 0.000000 0.000000 0.000000
# 2 -0.001893 0.005602 -0.000621 0.000000 0.000000 0.000000
# 3 -0.000952 -0.000621 0.011772 0.000000 0.000000 0.000000
# 4 0.000000 0.000000 0.000000 0.025063 0.000000 0.000000
# 5 0.000000 0.000000 0.000000 0.000000 0.077515 0.000000
# 6 0.000000 0.000000 0.000000 0.000000 0.000000 0.029083
#
#
# Mechanical properties :
#
#
# Convention : Reuss Voigt Hill
#
# Bulk Modulus (GPa) = 55.96660 66.48066 61.22363
# Shear Modulus (GPa) = 29.52444 40.95422 35.23933
#
# Velocity S-wave (km/s) = 3.43045 4.04026 3.74778
# Velocity P-wave (km/s) = 6.16425 6.94716 6.56738
#
# Compressibility (1/GPa) = 0.01786780
#
# Stress axis : x y z
#
# Youngs Moduli (GPa) = 134.64065 178.50359 84.94873
#
# Poissons Ratio (x) = 0.33795 0.08088
# Poissons Ratio (y) = 0.25491 0.05278
# Poissons Ratio (z) = 0.12820 0.11090
#
# Static dielectric constant tensor:
#      x y z
#    x 2.069690 0.000000 0.000000 
#    y 0.000000 1.964290 0.000000 
#    z 0.000000 0.000000 2.150260 
# 
# From -- ./inp_files/9574.got.cif
#   From: 2010.05.17/outbox.cif.g08.bks.cpg/sg41_5_cif.got.tgz:9574.got - 2010.06.03 18:54:24.
