data_PCOD9367040
_publ_section_title
;
Structure prediction by ZEFSAII (Michael W. Deem and Ramdas Pophale) SiO2 
 PCOD9367040
Probable space group: A B A 2
;
_chemical_formula_sum "Si O2"
_cell_formula_units_Z 44
_cell_length_a 8.054788
_cell_length_b 20.535309
_cell_length_c 11.582169
_cell_angle_alpha 90.000000
_cell_angle_beta 90.000000
_cell_angle_gamma 90.000000
_cell_volume 1915.778320
_symmetry_space_group_name_H-M "A B A 2"
_symmetry_group_IT_number 41
_symmetry_cell_setting 'orthorhombic'
loop_
_space_group_symop_operation_xyz
x,y,z
-x,-y,z
1/2-x,y,1/2+z
1/2+x,-y,1/2+z
x,1/2+y,1/2+z
-x,1/2-y,1/2+z
1/2-x,1/2+y,z
1/2+x,1/2-y,z
loop_
_atom_site_type_symbol
_atom_site_label
_atom_site_fract_x
_atom_site_fract_y
_atom_site_fract_z
Si Si1 0.198089 0.811789 0.243050
Si Si2 0.972740 0.729510 0.083386
Si Si3 0.114506 0.075888 0.826220
Si Si4 0.255587 0.450934 0.727870
Si Si5 0.751223 0.798006 0.415343
Si Si6 0.500000 0.500000 0.039850
O O1 0.053865 0.767113 0.190917
O O2 0.325859 0.812909 0.135878
O O3 0.162747 0.886241 0.273360
O O4 0.270761 0.770444 0.348588
O O5 0.095172 0.689856 0.000521
O O6 0.899057 0.785365 0.002307
O O7 0.203973 0.145036 0.827745
O O8 0.953149 0.069577 0.741888
O O9 0.241496 0.017804 0.799287
O O10 0.050751 0.058747 0.954400
O O11 0.156187 0.473606 0.613911
#
# Coordination Sequence:
#
# PCOD9367040 Si02
#       6
#     8   8   8   8   8   4
#     4  11  22  40  62  91 123 158 206 257 305 371
#     4  10  23  36  63  92 119 164 205 249 317 368
#     4  10  24  42  61  91 123 162 207 252 309 375
#     4  10  22  40  63  88 122 162 203 252 309 367
#     4  11  22  41  62  90 127 159 205 262 308 369
#     4  10  22  42  62  84 124 160 200 258 304 368
#
# _framework density 22.967167
#
# number of rings (size 3 to 8) (size 9 to 14) (size 15 to 20)
#    0.000    1.818    0.000    4.364    0.000   13.091 
#    0.000    7.273    0.000    0.000    0.000    0.000 
#    0.000    0.000    0.000    0.000    0.000    0.000 
#
# Total GULP energy -122676.373572 kJ/mol
# GULP energy per Si atom -5576.198799 kJ/mol
# Density = 2.291489 g / cm^3
# Si number density = 22.967167 Si / 1000 Ang^3
#
#
#
# Elastic Constant Matrix: (Units=GPa)
#
#
# Indices 1 2 3 4 5 6 
#
# 1 68.5259 4.8323 27.8806 0.0000 0.0000 0.0000
# 2 4.8323 122.8377 15.2662 0.0000 0.0000 0.0000
# 3 27.8806 15.2662 75.4222 0.0000 0.0000 0.0000
# 4 0.0000 0.0000 0.0000 31.3411 0.0000 0.0000
# 5 0.0000 0.0000 0.0000 0.0000 50.0943 0.0000
# 6 0.0000 0.0000 0.0000 0.0000 0.0000 7.2349
#
#
#
# Elastic Compliance Matrix: (Units=1/GPa)
#
#
# Indices 1 2 3 4 5 6 
#
# 1 0.017178 0.000116 -0.006374 0.000000 0.000000 0.000000
# 2 0.000116 0.008352 -0.001733 0.000000 0.000000 0.000000
# 3 -0.006374 -0.001733 0.015966 0.000000 0.000000 0.000000
# 4 0.000000 0.000000 0.000000 0.031907 0.000000 0.000000
# 5 0.000000 0.000000 0.000000 0.000000 0.019962 0.000000
# 6 0.000000 0.000000 0.000000 0.000000 0.000000 0.138218
#
#
# Mechanical properties :
#
#
# Convention : Reuss Voigt Hill
#
# Bulk Modulus (GPa) = 39.19434 40.30489 39.74962
# Shear Modulus (GPa) = 19.52599 32.32119 25.92359
#
# Velocity S-wave (km/s) = 2.91893 3.75544 3.36329
# Velocity P-wave (km/s) = 5.33504 6.03253 5.69447
#
# Compressibility (1/GPa) = 0.02551389
#
# Stress axis : x y z
#
# Youngs Moduli (GPa) = 58.21405 119.73640 62.63455
#
# Poissons Ratio (x) = -0.01393 0.39921
# Poissons Ratio (y) = -0.00677 0.10857
# Poissons Ratio (z) = 0.37103 0.20756
#
# Static dielectric constant tensor:
#      x y z
#    x 1.961720 0.000000 0.000000 
#    y 0.000000 1.982010 0.000000 
#    z 0.000000 0.000000 1.841520 
# 
# From -- ./inp_files/4460.got.cif
#   From: 2010.05.17/outbox.cif.g08.bks.cpg/sg41_3_cif.got.tgz:4460.got - 2010.06.03 18:54:24.
