data_PCOD9367854
_publ_section_title
;
Structure prediction by ZEFSAII (Michael W. Deem and Ramdas Pophale) SiO2 
 PCOD9367854
Probable space group: A B A 2
;
_chemical_formula_sum "Si O2"
_cell_formula_units_Z 36
_cell_length_a 10.914460
_cell_length_b 14.081117
_cell_length_c 8.908494
_cell_angle_alpha 90.000000
_cell_angle_beta 90.000000
_cell_angle_gamma 90.000000
_cell_volume 1369.126740
_symmetry_space_group_name_H-M "A B A 2"
_symmetry_group_IT_number 41
_symmetry_cell_setting 'orthorhombic'
loop_
_space_group_symop_operation_xyz
x,y,z
-x,-y,z
1/2-x,y,1/2+z
1/2+x,-y,1/2+z
x,1/2+y,1/2+z
-x,1/2-y,1/2+z
1/2-x,1/2+y,z
1/2+x,1/2-y,z
loop_
_atom_site_type_symbol
_atom_site_label
_atom_site_fract_x
_atom_site_fract_y
_atom_site_fract_z
Si Si1 0.812547 0.634036 0.936800
Si Si2 0.500000 0.500000 0.589627
Si Si3 0.157218 0.220208 0.349340
Si Si4 0.468988 0.200251 0.562974
Si Si5 0.160487 0.048221 0.876623
O O1 0.745695 0.691854 0.800347
O O2 0.713100 0.548193 0.948062
O O3 0.856215 0.731200 0.018155
O O4 0.933823 0.574038 0.980451
O O5 0.601082 0.463950 0.711215
O O6 0.227987 0.121891 0.358086
O O7 0.094220 0.258304 0.500504
O O8 0.936474 0.399099 0.484551
O O9 0.458535 0.203101 0.740411
#
# Coordination Sequence:
#
# PCOD9367854 Si02
#       5
#     8   4   8   8   8
#     4  11  24  43  69 100 141 187 236 293 357 427
#     4  12  24  46  72 104 146 192 242 302 368 434
#     4  11  26  45  72 106 144 189 240 297 364 434
#     4  11  24  44  70 103 143 188 239 294 360 435
#     4  11  24  43  69 101 141 189 240 300 361 428
#
# _framework density 26.294134
#
# number of rings (size 3 to 8) (size 9 to 14) (size 15 to 20)
#    0.000    0.889    0.000    6.667    0.000   10.667 
#    0.000    4.444    0.000    0.000    0.000    0.000 
#    0.000    0.000    0.000    0.000    0.000    0.000 
#
# Total GULP energy -100333.842294 kJ/mol
# GULP energy per Si atom -5574.102350 kJ/mol
# Density = 2.623429 g / cm^3
# Si number density = 26.294134 Si / 1000 Ang^3
#
#
#
# Elastic Constant Matrix: (Units=GPa)
#
#
# Indices 1 2 3 4 5 6 
#
# 1 146.1344 63.3606 53.4747 0.0000 0.0000 0.0000
# 2 63.3606 179.4556 39.5577 0.0000 0.0000 0.0000
# 3 53.4747 39.5577 106.3743 0.0000 0.0000 0.0000
# 4 0.0000 0.0000 0.0000 15.2690 0.0000 0.0000
# 5 0.0000 0.0000 0.0000 0.0000 52.5465 0.0000
# 6 0.0000 0.0000 0.0000 0.0000 0.0000 59.9990
#
#
#
# Elastic Compliance Matrix: (Units=1/GPa)
#
#
# Indices 1 2 3 4 5 6 
#
# 1 0.009278 -0.002448 -0.003754 0.000000 0.000000 0.000000
# 2 -0.002448 0.006716 -0.001267 0.000000 0.000000 0.000000
# 3 -0.003754 -0.001267 0.011759 0.000000 0.000000 0.000000
# 4 0.000000 0.000000 0.000000 0.065492 0.000000 0.000000
# 5 0.000000 0.000000 0.000000 0.000000 0.019031 0.000000
# 6 0.000000 0.000000 0.000000 0.000000 0.000000 0.016667
#
#
# Mechanical properties :
#
#
# Convention : Reuss Voigt Hill
#
# Bulk Modulus (GPa) = 78.03063 82.75005 80.39034
# Shear Modulus (GPa) = 33.74902 43.93431 38.84166
#
# Velocity S-wave (km/s) = 3.58651 4.09207 3.84760
# Velocity P-wave (km/s) = 6.84772 7.33934 7.09779
#
# Compressibility (1/GPa) = 0.01281548
#
# Stress axis : x y z
#
# Youngs Moduli (GPa) = 107.77988 148.89590 85.04277
#
# Poissons Ratio (x) = 0.36456 0.31922
# Poissons Ratio (y) = 0.26389 0.10772
# Poissons Ratio (z) = 0.40457 0.18861
#
# Static dielectric constant tensor:
#      x y z
#    x 2.140340 0.000000 0.000000 
#    y 0.000000 2.012090 0.000000 
#    z 0.000000 0.000000 2.135300 
# 
# From -- ./inp_files/7144.got.cif
#   From: 2010.05.17/outbox.cif.g08.bks.cpg/sg41_4_cif.got.tgz:7144.got - 2010.06.03 18:54:24.
