data_PCOD9367713
_publ_section_title
;
Structure prediction by ZEFSAII (Michael W. Deem and Ramdas Pophale) SiO2 
 PCOD9367713
Probable space group: A B A 2
;
_chemical_formula_sum "Si O2"
_cell_formula_units_Z 60
_cell_length_a 10.183334
_cell_length_b 16.723168
_cell_length_c 18.098275
_cell_angle_alpha 90.000000
_cell_angle_beta 90.000000
_cell_angle_gamma 90.000000
_cell_volume 3082.092892
_symmetry_space_group_name_H-M "A B A 2"
_symmetry_group_IT_number 41
_symmetry_cell_setting 'orthorhombic'
loop_
_space_group_symop_operation_xyz
x,y,z
-x,-y,z
1/2-x,y,1/2+z
1/2+x,-y,1/2+z
x,1/2+y,1/2+z
-x,1/2-y,1/2+z
1/2-x,1/2+y,z
1/2+x,1/2-y,z
loop_
_atom_site_type_symbol
_atom_site_label
_atom_site_fract_x
_atom_site_fract_y
_atom_site_fract_z
Si Si1 0.433058 0.584579 0.871690
Si Si2 0.841727 0.095533 0.270376
Si Si3 0.856293 0.967408 0.710120
Si Si4 0.008796 0.710920 0.684526
Si Si5 0.000000 0.500000 0.891576
Si Si6 0.282351 0.181684 0.112929
Si Si7 0.177154 0.139994 0.446191
Si Si8 0.363856 0.783174 0.330914
O O1 0.500000 0.500000 0.886461
O O2 0.372485 0.577479 0.789041
O O3 0.318533 0.602708 0.928220
O O4 0.543156 0.652407 0.870285
O O5 0.769553 0.172205 0.306567
O O6 0.956676 0.126752 0.216982
O O7 0.896263 0.041887 0.336764
O O8 0.737544 0.042671 0.225297
O O9 0.804189 0.904488 0.651246
O O10 0.000000 0.000000 0.689641
O O11 0.131084 0.704500 0.628737
O O12 0.065419 0.756674 0.755765
O O13 0.884211 0.757234 0.651228
O O14 0.070138 0.569799 0.937569
O O15 0.317994 0.176764 0.027211
O O16 0.154942 0.207577 0.383858
#
# Coordination Sequence:
#
# PCOD9367713 Si02
#       8
#     8   8   8   8   4   8   8   8
#     4  11  21  44  70  98 134 174 238 284 340 404
#     4  12  22  40  75 103 128 178 242 299 334 403
#     4  11  21  43  69 101 135 177 230 285 350 408
#     4  12  24  45  68 105 134 181 241 285 347 412
#     4  12  24  42  66 102 136 180 238 292 336 414
#     4  12  28  44  67 100 149 182 224 287 360 427
#     4  12  28  43  66 102 143 185 227 283 359 424
#     4  12  22  42  76 102 133 183 238 292 338 408
#
# _framework density 19.467290999999999
#
# number of rings (size 3 to 8) (size 9 to 14) (size 15 to 20)
#    0.000    0.267    8.000    2.400    2.800    0.000 
#    2.400    1.333    0.000    0.000    0.000    0.000 
#    0.000    0.000    0.000    0.000    0.000    0.000 
#
# Total GULP energy -167827.466631 kJ/mol
# GULP energy per Si atom -5594.248888 kJ/mol
# Density = 1.942298 g / cm^3
# Si number density = 19.467291 Si / 1000 Ang^3
#
#
#
# Elastic Constant Matrix: (Units=GPa)
#
#
# Indices 1 2 3 4 5 6 
#
# 1 89.9928 21.0613 18.9783 0.0000 0.0000 0.0000
# 2 21.0613 72.4054 28.0637 0.0000 0.0000 0.0000
# 3 18.9783 28.0637 55.8493 0.0000 0.0000 0.0000
# 4 0.0000 0.0000 0.0000 15.3891 0.0000 0.0000
# 5 0.0000 0.0000 0.0000 0.0000 16.7797 0.0000
# 6 0.0000 0.0000 0.0000 0.0000 0.0000 17.4940
#
#
#
# Elastic Compliance Matrix: (Units=1/GPa)
#
#
# Indices 1 2 3 4 5 6 
#
# 1 0.012305 -0.002432 -0.002959 0.000000 0.000000 0.000000
# 2 -0.002432 0.017632 -0.008034 0.000000 0.000000 0.000000
# 3 -0.002959 -0.008034 0.022948 0.000000 0.000000 0.000000
# 4 0.000000 0.000000 0.000000 0.064981 0.000000 0.000000
# 5 0.000000 0.000000 0.000000 0.000000 0.059596 0.000000
# 6 0.000000 0.000000 0.000000 0.000000 0.000000 0.057163
#
#
# Mechanical properties :
#
#
# Convention : Reuss Voigt Hill
#
# Bulk Modulus (GPa) = 38.40977 39.38379 38.89678
# Shear Modulus (GPa) = 18.50800 19.94218 19.22509
#
# Velocity S-wave (km/s) = 3.08672 3.20409 3.14595
# Velocity P-wave (km/s) = 5.69887 5.82777 5.76368
#
# Compressibility (1/GPa) = 0.02603504
#
# Stress axis : x y z
#
# Youngs Moduli (GPa) = 81.26558 56.71385 43.57737
#
# Poissons Ratio (x) = 0.13795 0.12896
# Poissons Ratio (y) = 0.19767 0.35008
# Poissons Ratio (z) = 0.24049 0.45561
#
# Static dielectric constant tensor:
#      x y z
#    x 1.691850 0.000000 0.000000 
#    y 0.000000 1.685060 0.000000 
#    z 0.000000 0.000000 1.650090 
# 
# From -- ./inp_files/9773.got.cif
#   From: 2010.05.17/outbox.cif.g08.bks.cpg/sg41_5_cif.got.tgz:9773.got - 2010.06.03 18:54:24.
