data_PCOD9367367
_publ_section_title
;
Structure prediction by ZEFSAII (Michael W. Deem and Ramdas Pophale) SiO2 
 PCOD9367367
Probable space group: A B A 2
;
_chemical_formula_sum "Si O2"
_cell_formula_units_Z 48
_cell_length_a 5.282461
_cell_length_b 18.548286
_cell_length_c 19.808396
_cell_angle_alpha 90.000000
_cell_angle_beta 90.000000
_cell_angle_gamma 90.000000
_cell_volume 1940.838474
_symmetry_space_group_name_H-M "A B A 2"
_symmetry_group_IT_number 41
_symmetry_cell_setting 'orthorhombic'
loop_
_space_group_symop_operation_xyz
x,y,z
-x,-y,z
1/2-x,y,1/2+z
1/2+x,-y,1/2+z
x,1/2+y,1/2+z
-x,1/2-y,1/2+z
1/2-x,1/2+y,z
1/2+x,1/2-y,z
loop_
_atom_site_type_symbol
_atom_site_label
_atom_site_fract_x
_atom_site_fract_y
_atom_site_fract_z
Si Si1 0.656431 0.656429 0.661530
Si Si2 0.881608 0.574855 0.535658
Si Si3 0.356848 0.926814 0.887631
Si Si4 0.144520 0.662200 0.356983
Si Si5 0.639677 0.787623 0.498759
Si Si6 0.335217 0.682559 0.213188
O O1 0.731793 0.617503 0.592991
O O2 0.376504 0.631510 0.680693
O O3 0.630391 0.743943 0.670008
O O4 0.893537 0.643917 0.712191
O O5 0.723656 0.564629 0.466414
O O6 0.000000 0.500000 0.558010
O O7 0.107532 0.629483 0.516807
O O8 0.588594 0.872596 0.878514
O O9 0.094280 0.894265 0.855332
O O10 0.500000 0.000000 0.863954
O O11 0.092488 0.715848 0.418338
O O12 0.209525 0.698565 0.285710
O O13 0.399653 0.743435 0.524909
#
# Coordination Sequence:
#
# PCOD9367367 Si02
#       6
#     8   8   8   8   8   8
#     4  10  24  42  70  95 138 198 239 288 354 415
#     4  11  26  48  73 105 149 193 241 299 363 435
#     4  11  23  44  72 105 144 189 233 296 376 438
#     4  11  23  42  70 108 143 185 235 303 366 432
#     4  11  25  39  69 107 141 174 236 293 367 427
#     4  10  23  43  69 100 142 185 242 297 353 409
#
# _framework density 24.731580999999998
#
# number of rings (size 3 to 8) (size 9 to 14) (size 15 to 20)
#    0.000    1.333    0.000    5.500    9.333    4.000 
#    0.000    5.000    0.000    0.000    0.000    0.000 
#    0.000    0.000    0.000    0.000    0.000    0.000 
#
# Total GULP energy -134073.511969 kJ/mol
# GULP energy per Si atom -5586.396332 kJ/mol
# Density = 2.467529 g / cm^3
# Si number density = 24.731581 Si / 1000 Ang^3
#
#
#
# Elastic Constant Matrix: (Units=GPa)
#
#
# Indices 1 2 3 4 5 6 
#
# 1 150.1433 35.1740 0.4047 0.0000 0.0000 0.0000
# 2 35.1740 107.2503 12.7167 0.0000 0.0000 0.0000
# 3 0.4047 12.7167 78.3917 0.0000 0.0000 0.0000
# 4 0.0000 0.0000 0.0000 17.0603 0.0000 0.0000
# 5 0.0000 0.0000 0.0000 0.0000 42.2759 0.0000
# 6 0.0000 0.0000 0.0000 0.0000 0.0000 24.1491
#
#
#
# Elastic Compliance Matrix: (Units=1/GPa)
#
#
# Indices 1 2 3 4 5 6 
#
# 1 0.007224 -0.002411 0.000354 0.000000 0.000000 0.000000
# 2 -0.002411 0.010312 -0.001660 0.000000 0.000000 0.000000
# 3 0.000354 -0.001660 0.013024 0.000000 0.000000 0.000000
# 4 0.000000 0.000000 0.000000 0.058615 0.000000 0.000000
# 5 0.000000 0.000000 0.000000 0.000000 0.023654 0.000000
# 6 0.000000 0.000000 0.000000 0.000000 0.000000 0.041409
#
#
# Mechanical properties :
#
#
# Convention : Reuss Voigt Hill
#
# Bulk Modulus (GPa) = 43.24422 48.04178 45.64300
# Shear Modulus (GPa) = 29.51903 35.86308 32.69105
#
# Velocity S-wave (km/s) = 3.45857 3.81214 3.63965
# Velocity P-wave (km/s) = 5.78552 6.23249 6.01316
#
# Compressibility (1/GPa) = 0.02312448
#
# Stress axis : x y z
#
# Youngs Moduli (GPa) = 138.42314 96.97778 76.78154
#
# Poissons Ratio (x) = 0.23384 -0.02717
# Poissons Ratio (y) = 0.33377 0.12748
# Poissons Ratio (z) = -0.04898 0.16101
#
# Static dielectric constant tensor:
#      x y z
#    x 2.032500 0.000000 0.000000 
#    y 0.000000 1.968200 0.000000 
#    z 0.000000 0.000000 2.088140 
# 
# From -- ./inp_files/10949.got.cif
#   From: 2010.05.17/outbox.cif.g08.bks.cpg/sg41_6_cif.got.tgz:10949.got - 2010.06.03 18:54:24.
