data_PCOD9367758
_publ_section_title
;
Structure prediction by ZEFSAII (Michael W. Deem and Ramdas Pophale) SiO2 
 PCOD9367758
Probable space group: A B A 2
;
_chemical_formula_sum "Si O2"
_cell_formula_units_Z 44
_cell_length_a 8.537634
_cell_length_b 13.791353
_cell_length_c 15.460468
_cell_angle_alpha 90.000000
_cell_angle_beta 90.000000
_cell_angle_gamma 90.000000
_cell_volume 1820.400910
_symmetry_space_group_name_H-M "A B A 2"
_symmetry_group_IT_number 41
_symmetry_cell_setting 'orthorhombic'
loop_
_space_group_symop_operation_xyz
x,y,z
-x,-y,z
1/2-x,y,1/2+z
1/2+x,-y,1/2+z
x,1/2+y,1/2+z
-x,1/2-y,1/2+z
1/2-x,1/2+y,z
1/2+x,1/2-y,z
loop_
_atom_site_type_symbol
_atom_site_label
_atom_site_fract_x
_atom_site_fract_y
_atom_site_fract_z
Si Si1 0.238958 0.661562 0.261860
Si Si2 0.977276 0.610149 0.522426
Si Si3 0.952858 0.101835 0.345171
Si Si4 0.725768 0.631394 0.184385
Si Si5 0.300766 0.754078 0.950958
Si Si6 0.000000 0.500000 0.193504
O O1 0.417121 0.629428 0.274384
O O2 0.231341 0.752337 0.196236
O O3 0.209450 0.700697 0.358610
O O4 0.116171 0.577087 0.240831
O O5 0.909885 0.602498 0.618717
O O6 0.844092 0.676581 0.475530
O O7 0.000000 0.500000 0.488183
O O8 0.136867 0.672487 0.516071
O O9 0.799515 0.098350 0.284455
O O10 0.938435 0.171059 0.426348
O O11 0.000000 0.000000 0.381256
O O12 0.879172 0.575622 0.149450
#
# Coordination Sequence:
#
# PCOD9367758 Si02
#       6
#     8   8   8   8   8   4
#     4  11  25  46  76 109 143 190 254 304 370 443
#     4  12  30  49  74 108 157 198 247 306 380 446
#     4  11  22  45  73 104 142 187 250 304 362 445
#     4  11  26  47  73 108 143 194 249 306 368 445
#     4  11  27  47  72 107 147 200 241 310 369 443
#     4  12  26  44  84 106 146 194 250 314 376 432
#
# _framework density 24.170501999999999
#
# number of rings (size 3 to 8) (size 9 to 14) (size 15 to 20)
#    0.000    0.727    3.636    2.727   11.455    0.000 
#    1.636    0.000    0.000    0.000    0.000    0.000 
#    0.000    0.000    0.000    0.000    0.000    0.000 
#
# Total GULP energy -122724.812635 kJ/mol
# GULP energy per Si atom -5578.400574 kJ/mol
# Density = 2.411549 g / cm^3
# Si number density = 24.170502 Si / 1000 Ang^3
#
#
#
# Elastic Constant Matrix: (Units=GPa)
#
#
# Indices 1 2 3 4 5 6 
#
# 1 73.2478 72.8535 9.6469 0.0000 0.0000 0.0000
# 2 72.8535 184.0572 32.8128 0.0000 0.0000 0.0000
# 3 9.6469 32.8128 47.4633 0.0000 0.0000 0.0000
# 4 0.0000 0.0000 0.0000 -0.8056 0.0000 0.0000
# 5 0.0000 0.0000 0.0000 0.0000 33.1155 0.0000
# 6 0.0000 0.0000 0.0000 0.0000 0.0000 46.1853
#
#
#
# Elastic Compliance Matrix: (Units=1/GPa)
#
#
# Indices 1 2 3 4 5 6 
#
# 1 0.022654 -0.009291 0.001819 0.000000 0.000000 0.000000
# 2 -0.009291 0.010007 -0.005030 0.000000 0.000000 0.000000
# 3 0.001819 -0.005030 0.024177 0.000000 0.000000 0.000000
# 4 0.000000 0.000000 0.000000 -1.241375 0.000000 0.000000
# 5 0.000000 0.000000 0.000000 0.000000 0.030197 0.000000
# 6 0.000000 0.000000 0.000000 0.000000 0.000000 0.021652
#
#
# Mechanical properties :
#
#
# Convention : Reuss Voigt Hill
#
# Bulk Modulus (GPa) = 31.41360 59.48830 45.45095
# Shear Modulus (GPa) = -4.55758 28.32940 11.88591
#
# Velocity S-wave (km/s) = -1.37466 3.42726 2.21996
# Velocity P-wave (km/s) = 3.24119 6.35034 5.04143
#
# Compressibility (1/GPa) = 0.03183335
#
# Stress axis : x y z
#
# Youngs Moduli (GPa) = 44.14275 99.92595 41.36220
#
# Poissons Ratio (x) = 0.92842 -0.07523
# Poissons Ratio (y) = 0.41013 0.20805
# Poissons Ratio (z) = -0.08029 0.50263
#
# Static dielectric constant tensor:
#      x y z
#    x 2.192150 0.000000 0.000000 
#    y 0.000000 2.019400 0.000000 
#    z 0.000000 0.000000 1.891570 
# 
# From -- ./inp_files/9619.got.cif
#   From: 2010.05.17/outbox.cif.g08.bks.cpg/sg41_5_cif.got.tgz:9619.got - 2010.06.03 18:54:24.
