data_PCOD9367380
_publ_section_title
;
Structure prediction by ZEFSAII (Michael W. Deem and Ramdas Pophale) SiO2 
 PCOD9367380
Probable space group: A B A 2
;
_chemical_formula_sum "Si O2"
_cell_formula_units_Z 64
_cell_length_a 14.013818
_cell_length_b 9.235122
_cell_length_c 23.627308
_cell_angle_alpha 90.000000
_cell_angle_beta 90.000000
_cell_angle_gamma 90.000000
_cell_volume 3057.830109
_symmetry_space_group_name_H-M "A B A 2"
_symmetry_group_IT_number 41
_symmetry_cell_setting 'orthorhombic'
loop_
_space_group_symop_operation_xyz
x,y,z
-x,-y,z
1/2-x,y,1/2+z
1/2+x,-y,1/2+z
x,1/2+y,1/2+z
-x,1/2-y,1/2+z
1/2-x,1/2+y,z
1/2+x,1/2-y,z
loop_
_atom_site_type_symbol
_atom_site_label
_atom_site_fract_x
_atom_site_fract_y
_atom_site_fract_z
Si Si1 0.126527 0.212362 0.745180
Si Si2 0.030433 0.168295 0.561082
Si Si3 0.600011 0.908231 0.851713
Si Si4 0.297151 0.030072 0.733306
Si Si5 0.126108 0.240224 0.976575
Si Si6 0.532715 0.837088 0.359935
Si Si7 0.967892 0.832439 0.174305
Si Si8 0.810171 0.937865 0.477582
O O1 0.188031 0.076386 0.724820
O O2 0.181101 0.359641 0.726527
O O3 0.111140 0.188715 0.811632
O O4 0.020451 0.240303 0.722652
O O5 0.128359 0.148710 0.525135
O O6 0.959806 0.254998 0.520020
O O7 0.011407 0.253222 0.619275
O O8 0.000000 0.000000 0.569201
O O9 0.666358 0.944931 0.798207
O O10 0.563784 0.746065 0.844763
O O11 0.647800 0.918014 0.913743
O O12 0.500000 0.000000 0.848835
O O13 0.358399 0.137538 0.692290
O O14 0.077714 0.232409 0.915637
O O15 0.202101 0.113483 0.981185
O O16 0.180044 0.391318 0.986851
O O17 0.500000 0.000000 0.368866
O O18 0.000000 0.000000 0.173787
#
# Coordination Sequence:
#
# PCOD9367380 Si02
#       8
#     8   8   8   8   8   8   8   8
#     4  11  24  42  63  97 128 168 215 259 323 381
#     4  10  23  44  66  89 123 168 214 268 326 379
#     4  12  19  42  66  85 133 173 200 254 318 378
#     4  11  23  40  66  92 129 170 210 266 318 385
#     4  11  24  42  63  97 128 168 215 259 323 381
#     4  12  25  38  64  97 131 167 213 255 314 382
#     4  10  23  44  66  89 123 168 214 268 326 379
#     4  11  23  40  66  92 129 170 210 266 318 385
#
# _framework density 20.929873000000001
#
# number of rings (size 3 to 8) (size 9 to 14) (size 15 to 20)
#    0.000    1.000    5.000    1.500    3.500    4.000 
#    0.000    5.000    0.000    0.000    0.000    0.000 
#    0.000    0.000    0.000    0.000    0.000    0.000 
#
# Total GULP energy -178398.596348 kJ/mol
# GULP energy per Si atom -5574.956136 kJ/mol
# Density = 2.088224 g / cm^3
# Si number density = 20.929873 Si / 1000 Ang^3
#
#
#
# Elastic Constant Matrix: (Units=GPa)
#
#
# Indices 1 2 3 4 5 6 
#
# 1 23.6174 9.1513 -5.4012 0.0000 0.0000 0.0000
# 2 9.1513 19.9450 -7.6128 0.0000 0.0000 0.0000
# 3 -5.4012 -7.6128 74.3524 0.0000 0.0000 0.0000
# 4 0.0000 0.0000 0.0000 26.8255 0.0000 0.0000
# 5 0.0000 0.0000 0.0000 0.0000 6.0195 0.0000
# 6 0.0000 0.0000 0.0000 0.0000 0.0000 191.8180
#
#
#
# Elastic Compliance Matrix: (Units=1/GPa)
#
#
# Indices 1 2 3 4 5 6 
#
# 1 0.051633 -0.023164 0.001379 0.000000 0.000000 0.000000
# 2 -0.023164 0.062569 0.004724 0.000000 0.000000 0.000000
# 3 0.001379 0.004724 0.014033 0.000000 0.000000 0.000000
# 4 0.000000 0.000000 0.000000 0.037278 0.000000 0.000000
# 5 0.000000 0.000000 0.000000 0.000000 0.166127 0.000000
# 6 0.000000 0.000000 0.000000 0.000000 0.000000 0.005213
#
#
# Mechanical properties :
#
#
# Convention : Reuss Voigt Hill
#
# Bulk Modulus (GPa) = 10.62559 12.24325 11.43442
# Shear Modulus (GPa) = 12.42709 53.05110 32.73909
#
# Velocity S-wave (km/s) = 2.43934 5.04005 3.95932
# Velocity P-wave (km/s) = 3.60855 6.30332 5.13583
#
# Compressibility (1/GPa) = 0.09411243
#
# Stress axis : x y z
#
# Youngs Moduli (GPa) = 19.36758 15.98230 71.25912
#
# Poissons Ratio (x) = 0.37021 -0.09827
# Poissons Ratio (y) = 0.44863 -0.33660
# Poissons Ratio (z) = -0.02671 -0.07549
#
# Static dielectric constant tensor:
#      x y z
#    x 1.753290 0.000000 0.000000 
#    y 0.000000 1.750650 0.000000 
#    z 0.000000 0.000000 1.842640 
# 
# From -- ./inp_files/12242.got.cif
#   From: 2010.05.17/outbox.cif.g08.bks.cpg/sg41_7_cif.got.tgz:12242.got - 2010.06.03 18:54:24.
