data_PCOD9367760
_publ_section_title
;
Structure prediction by ZEFSAII (Michael W. Deem and Ramdas Pophale) SiO2 
 PCOD9367760
Probable space group: A B A 2
;
_chemical_formula_sum "Si O2"
_cell_formula_units_Z 44
_cell_length_a 14.134550
_cell_length_b 8.679843
_cell_length_c 16.827299
_cell_angle_alpha 90.000000
_cell_angle_beta 90.000000
_cell_angle_gamma 90.000000
_cell_volume 2064.468534
_symmetry_space_group_name_H-M "A B A 2"
_symmetry_group_IT_number 41
_symmetry_cell_setting 'orthorhombic'
loop_
_space_group_symop_operation_xyz
x,y,z
-x,-y,z
1/2-x,y,1/2+z
1/2+x,-y,1/2+z
x,1/2+y,1/2+z
-x,1/2-y,1/2+z
1/2-x,1/2+y,z
1/2+x,1/2-y,z
loop_
_atom_site_type_symbol
_atom_site_label
_atom_site_fract_x
_atom_site_fract_y
_atom_site_fract_z
Si Si1 0.839344 0.300511 0.348150
Si Si2 0.658074 0.179799 0.087790
Si Si3 0.812064 0.865246 0.665118
Si Si4 0.055383 0.741299 0.031230
Si Si5 0.818711 0.497201 0.938265
Si Si6 0.500000 0.500000 0.921575
O O1 0.813958 0.320030 0.256381
O O2 0.759395 0.384898 0.401442
O O3 0.935907 0.388603 0.368959
O O4 0.847440 0.122371 0.372600
O O5 0.711722 0.324560 0.124740
O O6 0.554103 0.216753 0.054926
O O7 0.658764 0.042690 0.152363
O O8 0.712575 0.103429 0.012965
O O9 0.885595 0.766594 0.612368
O O10 0.097659 0.605749 0.975815
O O11 0.062259 0.894927 0.979843
#
# Coordination Sequence:
#
# PCOD9367760 Si02
#       6
#     8   8   8   8   8   4
#     4  12  25  42  71 103 142 182 235 303 368 420
#     4  11  23  44  70  97 132 190 228 288 349 437
#     4  11  25  43  68  99 144 176 230 294 363 414
#     4  11  26  45  72  97 137 189 242 290 346 440
#     4  11  22  46  68 100 136 184 234 291 353 430
#     4  12  26  42  68 102 134 188 250 290 352 434
#
# _framework density 21.312991
#
# number of rings (size 3 to 8) (size 9 to 14) (size 15 to 20)
#    0.000    0.727    1.818    7.636    5.091    0.000 
#    0.000    0.000    0.000    0.000    0.000    0.000 
#    0.000    0.000    0.000    0.000    0.000    0.000 
#
# Total GULP energy -123053.825349 kJ/mol
# GULP energy per Si atom -5593.355698 kJ/mol
# Density = 2.126448 g / cm^3
# Si number density = 21.312991 Si / 1000 Ang^3
#
#
#
# Elastic Constant Matrix: (Units=GPa)
#
#
# Indices 1 2 3 4 5 6 
#
# 1 110.0692 12.2814 33.4657 0.0000 0.0000 0.0000
# 2 12.2814 77.2387 19.3613 0.0000 0.0000 0.0000
# 3 33.4657 19.3613 119.3516 0.0000 0.0000 0.0000
# 4 0.0000 0.0000 0.0000 20.7314 0.0000 0.0000
# 5 0.0000 0.0000 0.0000 0.0000 -0.2262 0.0000
# 6 0.0000 0.0000 0.0000 0.0000 0.0000 34.4720
#
#
#
# Elastic Compliance Matrix: (Units=1/GPa)
#
#
# Indices 1 2 3 4 5 6 
#
# 1 0.009995 -0.000924 -0.002653 0.000000 0.000000 0.000000
# 2 -0.000924 0.013581 -0.001944 0.000000 0.000000 0.000000
# 3 -0.002653 -0.001944 0.009438 0.000000 0.000000 0.000000
# 4 0.000000 0.000000 0.000000 0.048236 0.000000 0.000000
# 5 0.000000 0.000000 0.000000 0.000000 -4.419995 0.000000
# 6 0.000000 0.000000 0.000000 0.000000 0.000000 0.029009
#
#
# Mechanical properties :
#
#
# Convention : Reuss Voigt Hill
#
# Bulk Modulus (GPa) = 45.51251 48.54182 47.02716
# Shear Modulus (GPa) = -1.16513 27.09883 12.96685
#
# Velocity S-wave (km/s) = -0.74018 3.56964 2.46926
# Velocity P-wave (km/s) = 4.54645 6.30990 5.49932
#
# Compressibility (1/GPa) = 0.02197198
#
# Stress axis : x y z
#
# Youngs Moduli (GPa) = 100.05183 73.63147 105.95771
#
# Poissons Ratio (x) = 0.06806 0.28106
# Poissons Ratio (y) = 0.09248 0.20598
# Poissons Ratio (z) = 0.26539 0.14314
#
# Static dielectric constant tensor:
#      x y z
#    x 1.796740 0.000000 0.000000 
#    y 0.000000 1.796280 0.000000 
#    z 0.000000 0.000000 1.739970 
# 
# From -- ./inp_files/10274.got.cif
#   From: 2010.05.17/outbox.cif.g08.bks.cpg/sg41_6_cif.got.tgz:10274.got - 2010.06.03 18:54:24.
