data_PCOD9367144
_publ_section_title
;
Structure prediction by ZEFSAII (Michael W. Deem and Ramdas Pophale) SiO2 
 PCOD9367144
Probable space group: A B A 2
;
_chemical_formula_sum "Si O2"
_cell_formula_units_Z 64
_cell_length_a 29.032998
_cell_length_b 10.984485
_cell_length_c 8.677272
_cell_angle_alpha 90.000000
_cell_angle_beta 90.000000
_cell_angle_gamma 90.000000
_cell_volume 2767.290776
_symmetry_space_group_name_H-M "A B A 2"
_symmetry_group_IT_number 41
_symmetry_cell_setting 'orthorhombic'
loop_
_space_group_symop_operation_xyz
x,y,z
-x,-y,z
1/2-x,y,1/2+z
1/2+x,-y,1/2+z
x,1/2+y,1/2+z
-x,1/2-y,1/2+z
1/2-x,1/2+y,z
1/2+x,1/2-y,z
loop_
_atom_site_type_symbol
_atom_site_label
_atom_site_fract_x
_atom_site_fract_y
_atom_site_fract_z
Si Si1 0.026350 0.877549 0.504070
Si Si2 0.650712 0.391042 0.887579
Si Si3 0.120334 0.159971 0.237873
Si Si4 0.778382 0.112565 0.889360
Si Si5 0.118498 0.927418 0.678969
Si Si6 0.192300 0.029140 0.462972
Si Si7 0.777298 0.763747 0.687632
Si Si8 0.014030 0.626584 0.674171
O O1 0.077864 0.900039 0.559938
O O2 0.010179 0.749951 0.577347
O O3 0.019002 0.866249 0.322095
O O4 0.000000 0.000000 0.554391
O O5 0.683734 0.508978 0.878978
O O6 0.611092 0.447599 0.776269
O O7 0.680437 0.285800 0.805393
O O8 0.636647 0.359451 0.060409
O O9 0.121255 0.303748 0.277740
O O10 0.153667 0.092151 0.357123
O O11 0.066793 0.119561 0.236797
O O12 0.769419 0.229488 0.778571
O O13 0.729921 0.043529 0.868613
O O14 0.783815 0.160935 0.061159
O O15 0.164036 0.942295 0.576687
O O16 0.220991 0.117327 0.578138
O O17 0.000000 0.500000 0.591699
#
# Coordination Sequence:
#
# PCOD9367144 Si02
#       8
#     8   8   8   8   8   8   8   8
#     4  10  22  42  67  98 136 176 223 281 342 414
#     4  11  25  42  63  92 128 173 221 273 331 391
#     4  11  24  44  68  99 135 169 220 280 338 406
#     4  12  24  40  61  89 123 167 216 267 321 379
#     4  10  23  42  63  94 134 173 218 273 336 405
#     4  11  23  40  65  92 127 172 217 272 330 389
#     4  11  24  39  59  86 120 162 212 263 317 377
#     4  10  23  43  70 102 138 178 222 279 346 419
#
# _framework density 23.127310999999999
#
# number of rings (size 3 to 8) (size 9 to 14) (size 15 to 20)
#    0.000    1.250    0.000    6.000    0.000    9.500 
#    0.000    6.250    0.000    0.000    0.000    0.000 
#    0.000    0.000    0.000    0.000    0.000    0.000 
#
# Total GULP energy -178828.466413 kJ/mol
# GULP energy per Si atom -5588.389575 kJ/mol
# Density = 2.307467 g / cm^3
# Si number density = 23.127311 Si / 1000 Ang^3
#
#
#
# Elastic Constant Matrix: (Units=GPa)
#
#
# Indices 1 2 3 4 5 6 
#
# 1 -4.2963 4.7024 -20.1750 0.0000 0.0000 0.0000
# 2 4.7024 87.9772 5.0071 0.0000 0.0000 0.0000
# 3 -20.1750 5.0071 84.3420 0.0000 0.0000 0.0000
# 4 0.0000 0.0000 0.0000 35.4815 0.0000 0.0000
# 5 0.0000 0.0000 0.0000 0.0000 29.4352 0.0000
# 6 0.0000 0.0000 0.0000 0.0000 0.0000 439.9058
#
#
#
# Elastic Compliance Matrix: (Units=1/GPa)
#
#
# Indices 1 2 3 4 5 6 
#
# 1 -0.105050 0.007069 -0.025548 0.000000 0.000000 0.000000
# 2 0.007069 0.010929 0.001042 0.000000 0.000000 0.000000
# 3 -0.025548 0.001042 0.005683 0.000000 0.000000 0.000000
# 4 0.000000 0.000000 0.000000 0.028184 0.000000 0.000000
# 5 0.000000 0.000000 0.000000 0.000000 0.033973 0.000000
# 6 0.000000 0.000000 0.000000 0.000000 0.000000 0.002273
#
#
# Mechanical properties :
#
#
# Convention : Reuss Voigt Hill
#
# Bulk Modulus (GPa) = -8.10958 16.34354 4.11698
# Shear Modulus (GPa) = -165.36222 112.86373 -26.24925
#
# Velocity S-wave (km/s) = -8.46499 6.99335 -3.37261
# Velocity P-wave (km/s) = 9.95266 8.50244 3.65815
#
# Compressibility (1/GPa) = -0.12331097
#
# Stress axis : x y z
#
# Youngs Moduli (GPa) = -9.51930 91.49603 175.95027
#
# Poissons Ratio (x) = -0.64678 4.49518
# Poissons Ratio (y) = 0.06729 -0.18335
# Poissons Ratio (z) = -0.24320 -0.09535
#
# Static dielectric constant tensor:
#      x y z
#    x 1.926290 0.000000 0.000000 
#    y 0.000000 1.918440 0.000000 
#    z 0.000000 0.000000 1.882870 
# 
# From -- ./inp_files/3990.got.cif
#   From: 2010.05.17/outbox.cif.g08.bks.cpg/sg41_2_cif.got.tgz:3990.got - 2010.06.03 18:54:24.
