data_PCOD9367212
_publ_section_title
;
Structure prediction by ZEFSAII (Michael W. Deem and Ramdas Pophale) SiO2 
 PCOD9367212
Probable space group: A B A 2
;
_chemical_formula_sum "Si O2"
_cell_formula_units_Z 64
_cell_length_a 24.799469
_cell_length_b 10.462293
_cell_length_c 12.137113
_cell_angle_alpha 90.000000
_cell_angle_beta 90.000000
_cell_angle_gamma 90.000000
_cell_volume 3149.086976
_symmetry_space_group_name_H-M "A B A 2"
_symmetry_group_IT_number 41
_symmetry_cell_setting 'orthorhombic'
loop_
_space_group_symop_operation_xyz
x,y,z
-x,-y,z
1/2-x,y,1/2+z
1/2+x,-y,1/2+z
x,1/2+y,1/2+z
-x,1/2-y,1/2+z
1/2-x,1/2+y,z
1/2+x,1/2-y,z
loop_
_atom_site_type_symbol
_atom_site_label
_atom_site_fract_x
_atom_site_fract_y
_atom_site_fract_z
Si Si1 0.600512 0.551541 0.498330
Si Si2 0.930696 0.742958 0.177892
Si Si3 0.114774 0.837637 0.912459
Si Si4 0.319925 0.089896 0.429479
Si Si5 0.852837 0.454933 0.674715
Si Si6 0.616298 0.203172 0.796298
Si Si7 0.306240 0.114983 0.900731
Si Si8 0.051926 0.202483 0.597748
O O1 0.604314 0.652588 0.596927
O O2 0.581471 0.623308 0.386496
O O3 0.657961 0.491315 0.463385
O O4 0.564017 0.431984 0.536763
O O5 0.918284 0.703961 0.303623
O O6 0.911571 0.889302 0.168437
O O7 0.990403 0.722619 0.131969
O O8 0.166887 0.747883 0.939107
O O9 0.140870 0.975051 0.890992
O O10 0.074950 0.812341 0.015693
O O11 0.325848 0.076376 0.560245
O O12 0.342986 0.215948 0.370924
O O13 0.256375 0.087267 0.408732
O O14 0.856011 0.599915 0.715701
O O15 0.821397 0.386162 0.772470
O O16 0.583702 0.292613 0.713411
#
# Coordination Sequence:
#
# PCOD9367212 Si02
#       8
#     8   8   8   8   8   8   8   8
#     4  10  22  44  66 101 140 172 238 280 341 427
#     4  11  23  43  70  97 139 189 225 291 357 409
#     4  10  24  43  65 104 140 169 247 291 337 443
#     4  12  23  43  73  96 137 186 227 293 357 418
#     4  10  23  45  60 101 139 172 236 291 336 432
#     4  11  24  44  68 102 137 180 237 288 348 432
#     4   9  24  42  67  98 136 183 228 289 361 408
#     4  11  24  44  69 102 138 186 230 293 351 406
#
# _framework density 20.323350999999999
#
# number of rings (size 3 to 8) (size 9 to 14) (size 15 to 20)
#    0.000    1.500    2.500    1.875    5.250    3.500 
#    6.750    1.250    0.000    0.000    0.000    0.000 
#    0.000    0.000    0.000    0.000    0.000    0.000 
#
# Total GULP energy -178459.959050 kJ/mol
# GULP energy per Si atom -5576.873720 kJ/mol
# Density = 2.027709 g / cm^3
# Si number density = 20.323351 Si / 1000 Ang^3
#
#
#
# Elastic Constant Matrix: (Units=GPa)
#
#
# Indices 1 2 3 4 5 6 
#
# 1 100.7522 40.2398 47.1453 0.0000 0.0000 0.0000
# 2 40.2398 91.7125 29.9188 0.0000 0.0000 0.0000
# 3 47.1453 29.9188 126.1749 0.0000 0.0000 0.0000
# 4 0.0000 0.0000 0.0000 34.9636 0.0000 0.0000
# 5 0.0000 0.0000 0.0000 0.0000 -101.6221 0.0000
# 6 0.0000 0.0000 0.0000 0.0000 0.0000 11.0527
#
#
#
# Elastic Compliance Matrix: (Units=1/GPa)
#
#
# Indices 1 2 3 4 5 6 
#
# 1 0.013669 -0.004695 -0.003994 0.000000 0.000000 0.000000
# 2 -0.004695 0.013430 -0.001430 0.000000 0.000000 0.000000
# 3 -0.003994 -0.001430 0.009757 0.000000 0.000000 0.000000
# 4 0.000000 0.000000 0.000000 0.028601 0.000000 0.000000
# 5 0.000000 0.000000 0.000000 0.000000 -0.009840 0.000000
# 6 0.000000 0.000000 0.000000 0.000000 0.000000 0.090476
#
#
# Mechanical properties :
#
#
# Convention : Reuss Voigt Hill
#
# Bulk Modulus (GPa) = 60.17598 61.47192 60.82395
# Shear Modulus (GPa) = 29.09149 2.30120 15.69634
#
# Velocity S-wave (km/s) = 3.78753 1.06525 2.78210
# Velocity P-wave (km/s) = 6.98575 5.64142 6.34927
#
# Compressibility (1/GPa) = 0.01661793
#
# Stress axis : x y z
#
# Youngs Moduli (GPa) = 73.15590 74.45985 102.48826
#
# Poissons Ratio (x) = 0.34955 0.40938
# Poissons Ratio (y) = 0.34343 0.14660
# Poissons Ratio (z) = 0.29222 0.10651
#
# Static dielectric constant tensor:
#      x y z
#    x 3.638810 0.000000 0.000000 
#    y 0.000000 1.799090 0.000000 
#    z 0.000000 0.000000 1.731900 
# 
# From -- ./inp_files/6469.got.cif
#   From: 2010.05.17/outbox.cif.g08.bks.cpg/sg41_4_cif.got.tgz:6469.got - 2010.06.03 18:54:24.
