data_PCOD9367330
_publ_section_title
;
Structure prediction by ZEFSAII (Michael W. Deem and Ramdas Pophale) SiO2 
 PCOD9367330
Probable space group: A B A 2
;
_chemical_formula_sum "Si O2"
_cell_formula_units_Z 60
_cell_length_a 9.047550
_cell_length_b 10.773387
_cell_length_c 26.961614
_cell_angle_alpha 90.000000
_cell_angle_beta 90.000000
_cell_angle_gamma 90.000000
_cell_volume 2628.022865
_symmetry_space_group_name_H-M "A B A 2"
_symmetry_group_IT_number 41
_symmetry_cell_setting 'orthorhombic'
loop_
_space_group_symop_operation_xyz
x,y,z
-x,-y,z
1/2-x,y,1/2+z
1/2+x,-y,1/2+z
x,1/2+y,1/2+z
-x,1/2-y,1/2+z
1/2-x,1/2+y,z
1/2+x,1/2-y,z
loop_
_atom_site_type_symbol
_atom_site_label
_atom_site_fract_x
_atom_site_fract_y
_atom_site_fract_z
Si Si1 0.011169 0.820760 0.019910
Si Si2 0.568825 0.228383 0.407151
Si Si3 0.739613 0.987406 0.030854
Si Si4 0.933650 0.365149 0.775357
Si Si5 0.000000 0.000000 0.444747
Si Si6 0.439600 0.644628 0.160149
Si Si7 0.629876 0.343831 0.604585
Si Si8 0.670997 0.785716 0.339821
O O1 0.052064 0.704771 0.053492
O O2 0.839994 0.862392 0.020757
O O3 0.126995 0.919402 0.040498
O O4 0.064040 0.807691 0.963832
O O5 0.531389 0.377675 0.411303
O O6 0.438719 0.154489 0.379527
O O7 0.717283 0.209088 0.375767
O O8 0.652009 0.983618 0.083010
O O9 0.639031 0.016469 0.982880
O O10 0.905589 0.333381 0.718123
O O11 0.782593 0.361923 0.806193
O O12 0.000000 0.500000 0.775856
O O13 0.056638 0.282003 0.803021
O O14 0.500000 0.500000 0.154940
O O15 0.296994 0.665868 0.125935
O O16 0.546784 0.756868 0.143847
#
# Coordination Sequence:
#
# PCOD9367330 Si02
#       8
#     8   8   8   8   4   8   8   8
#     4  11  24  45  58  96 146 182 223 290 335 408
#     4  11  23  41  65 100 139 176 234 274 343 417
#     4  11  25  40  63  92 139 185 229 274 338 397
#     4  10  23  48  73  98 136 171 225 305 369 421
#     4  12  24  38  68 100 134 192 228 274 344 412
#     4  11  25  46  72 101 134 179 234 298 369 429
#     4  12  23  42  67  98 138 183 233 282 346 423
#     4  10  23  41  71 101 126 176 230 285 352 422
#
# _framework density 22.830850999999999
#
# number of rings (size 3 to 8) (size 9 to 14) (size 15 to 20)
#    0.000    1.067    2.667    3.200    7.467    0.000 
#    4.800    2.000    0.000    8.000    0.000    0.000 
#    0.000    0.000    0.000    0.000    0.000    0.000 
#
# Total GULP energy -167015.268797 kJ/mol
# GULP energy per Si atom -5567.175627 kJ/mol
# Density = 2.277889 g / cm^3
# Si number density = 22.830851 Si / 1000 Ang^3
#
#
#
# Elastic Constant Matrix: (Units=GPa)
#
#
# Indices 1 2 3 4 5 6 
#
# 1 124.7404 10.7029 13.1664 0.0000 0.0000 0.0000
# 2 10.7029 36.4470 10.8475 0.0000 0.0000 0.0000
# 3 13.1664 10.8475 116.4665 0.0000 0.0000 0.0000
# 4 0.0000 0.0000 0.0000 6.5252 0.0000 0.0000
# 5 0.0000 0.0000 0.0000 0.0000 21.1584 0.0000
# 6 0.0000 0.0000 0.0000 0.0000 0.0000 22.5752
#
#
#
# Elastic Compliance Matrix: (Units=1/GPa)
#
#
# Indices 1 2 3 4 5 6 
#
# 1 0.008284 -0.002215 -0.000730 0.000000 0.000000 0.000000
# 2 -0.002215 0.028812 -0.002433 0.000000 0.000000 0.000000
# 3 -0.000730 -0.002433 0.008895 0.000000 0.000000 0.000000
# 4 0.000000 0.000000 0.000000 0.153253 0.000000 0.000000
# 5 0.000000 0.000000 0.000000 0.000000 0.047263 0.000000
# 6 0.000000 0.000000 0.000000 0.000000 0.000000 0.044296
#
#
# Mechanical properties :
#
#
# Convention : Reuss Voigt Hill
#
# Bulk Modulus (GPa) = 28.38174 38.56531 33.47353
# Shear Modulus (GPa) = 15.95892 26.24755 21.10323
#
# Velocity S-wave (km/s) = 2.64674 3.39433 3.04358
# Velocity P-wave (km/s) = 4.66890 5.68246 5.20043
#
# Compressibility (1/GPa) = 0.03523392
#
# Stress axis : x y z
#
# Youngs Moduli (GPa) = 120.71769 34.70800 112.41877
#
# Poissons Ratio (x) = 0.07689 0.08208
# Poissons Ratio (y) = 0.26742 0.27352
# Poissons Ratio (z) = 0.08814 0.08445
#
# Static dielectric constant tensor:
#      x y z
#    x 1.936270 0.000000 0.000000 
#    y 0.000000 2.311880 0.000000 
#    z 0.000000 0.000000 1.873670 
# 
# From -- ./inp_files/12473.got.cif
#   From: 2010.05.17/outbox.cif.g08.bks.cpg/sg41_7_cif.got.tgz:12473.got - 2010.06.03 18:54:24.
