data_PCOD9367924
_publ_section_title
;
Structure prediction by ZEFSAII (Michael W. Deem and Ramdas Pophale) SiO2 
 PCOD9367924
Probable space group: A B A 2
;
_chemical_formula_sum "Si O2"
_cell_formula_units_Z 56
_cell_length_a 11.491957
_cell_length_b 14.270027
_cell_length_c 13.809046
_cell_angle_alpha 90.000000
_cell_angle_beta 90.000000
_cell_angle_gamma 90.000000
_cell_volume 2264.552864
_symmetry_space_group_name_H-M "A B A 2"
_symmetry_group_IT_number 41
_symmetry_cell_setting 'orthorhombic'
loop_
_space_group_symop_operation_xyz
x,y,z
-x,-y,z
1/2-x,y,1/2+z
1/2+x,-y,1/2+z
x,1/2+y,1/2+z
-x,1/2-y,1/2+z
1/2-x,1/2+y,z
1/2+x,1/2-y,z
loop_
_atom_site_type_symbol
_atom_site_label
_atom_site_fract_x
_atom_site_fract_y
_atom_site_fract_z
Si Si1 0.450981 0.811993 0.858010
Si Si2 0.635978 0.026314 0.309793
Si Si3 0.106041 0.591467 0.022088
Si Si4 0.135978 0.973686 0.234382
Si Si5 0.223224 0.434420 0.522088
Si Si6 0.811683 0.772187 0.022087
Si Si7 0.950980 0.688007 0.186165
O O1 0.363484 0.884665 0.807596
O O2 0.500000 0.750000 0.772088
O O3 0.540124 0.870295 0.926528
O O4 0.390201 0.737929 0.928374
O O5 0.750000 0.968309 0.272087
O O6 0.658194 0.040204 0.423372
O O7 0.636516 0.115335 0.236579
O O8 0.500000 0.000000 0.300089
O O9 0.146263 0.482586 0.022088
O O10 0.231627 0.639309 0.022088
O O11 0.040124 0.629705 0.117648
O O12 0.158194 0.959796 0.120803
O O13 0.000000 0.000000 0.244086
O O14 0.236098 0.322585 0.522087
O O15 0.890201 0.762071 0.115801
#
# Coordination Sequence:
#
# PCOD9367924 Si02
#       7
#     8   8   8   8   8   8   8
#     4  11  26  45  75 104 154 205 256 319 396 461
#     4  12  26  47  76 111 152 199 255 316 385 464
#     4  11  27  47  73 112 151 205 266 316 393 475
#     4  12  26  47  76 111 152 199 255 316 385 464
#     4  12  25  47  75 110 154 197 255 326 389 451
#     4  11  25  49  72 104 157 194 259 329 383 464
#     4  11  26  45  75 104 154 205 256 319 396 461
#
# _framework density 24.728943000000001
#
# number of rings (size 3 to 8) (size 9 to 14) (size 15 to 20)
#    0.000    0.571    2.857    3.857    4.000    2.286 
#    0.000    0.000    0.000    0.000    0.000    0.000 
#    0.000    0.000    0.000    0.000    0.000    0.000 
#
# Total GULP energy -156653.222620 kJ/mol
# GULP energy per Si atom -5594.757951 kJ/mol
# Density = 2.467266 g / cm^3
# Si number density = 24.728943 Si / 1000 Ang^3
#
#
#
# Elastic Constant Matrix: (Units=GPa)
#
#
# Indices 1 2 3 4 5 6 
#
# 1 135.0671 10.9235 78.9639 0.0000 0.0000 0.0000
# 2 10.9235 42.0152 21.3743 0.0000 0.0000 0.0000
# 3 78.9639 21.3743 226.9335 0.0000 0.0000 0.0000
# 4 0.0000 0.0000 0.0000 32.9302 0.0000 0.0000
# 5 0.0000 0.0000 0.0000 0.0000 38.0453 0.0000
# 6 0.0000 0.0000 0.0000 0.0000 0.0000 30.6166
#
#
#
# Elastic Compliance Matrix: (Units=1/GPa)
#
#
# Indices 1 2 3 4 5 6 
#
# 1 0.009321 -0.000812 -0.003167 0.000000 0.000000 0.000000
# 2 -0.000812 0.025070 -0.002079 0.000000 0.000000 0.000000
# 3 -0.003167 -0.002079 0.005704 0.000000 0.000000 0.000000
# 4 0.000000 0.000000 0.000000 0.030367 0.000000 0.000000
# 5 0.000000 0.000000 0.000000 0.000000 0.026284 0.000000
# 6 0.000000 0.000000 0.000000 0.000000 0.000000 0.032662
#
#
# Mechanical properties :
#
#
# Convention : Reuss Voigt Hill
#
# Bulk Modulus (GPa) = 35.74068 69.61545 52.67806
# Shear Modulus (GPa) = 33.14549 39.83536 36.49043
#
# Velocity S-wave (km/s) = 3.66505 4.01793 3.84554
# Velocity P-wave (km/s) = 5.69162 7.05249 6.40828
#
# Compressibility (1/GPa) = 0.02797932
#
# Stress axis : x y z
#
# Youngs Moduli (GPa) = 107.28700 39.88905 175.30750
#
# Poissons Ratio (x) = 0.03240 0.55516
# Poissons Ratio (y) = 0.08715 0.36439
# Poissons Ratio (z) = 0.33975 0.08291
#
# Static dielectric constant tensor:
#      x y z
#    x 2.078620 0.000000 0.000000 
#    y 0.000000 1.981910 0.000000 
#    z 0.000000 0.000000 1.899300 
# 
# From -- ./inp_files/7949.got.cif
#   From: 2010.05.17/outbox.cif.g08.bks.cpg/sg41_4_cif.got.tgz:7949.got - 2010.06.03 18:54:24.
