data_PCOD9367379
_publ_section_title
;
Structure prediction by ZEFSAII (Michael W. Deem and Ramdas Pophale) SiO2 
 PCOD9367379
Probable space group: A B A 2
;
_chemical_formula_sum "Si O2"
_cell_formula_units_Z 60
_cell_length_a 11.214598
_cell_length_b 26.605493
_cell_length_c 9.481862
_cell_angle_alpha 90.000000
_cell_angle_beta 90.000000
_cell_angle_gamma 90.000000
_cell_volume 2829.102298
_symmetry_space_group_name_H-M "A B A 2"
_symmetry_group_IT_number 41
_symmetry_cell_setting 'orthorhombic'
loop_
_space_group_symop_operation_xyz
x,y,z
-x,-y,z
1/2-x,y,1/2+z
1/2+x,-y,1/2+z
x,1/2+y,1/2+z
-x,1/2-y,1/2+z
1/2-x,1/2+y,z
1/2+x,1/2-y,z
loop_
_atom_site_type_symbol
_atom_site_label
_atom_site_fract_x
_atom_site_fract_y
_atom_site_fract_z
Si Si1 0.000000 0.500000 0.023041
Si Si2 0.804520 0.219869 0.131130
Si Si3 0.733314 0.287705 0.370373
Si Si4 0.108449 0.087873 0.714042
Si Si5 0.675510 0.884167 0.511767
Si Si6 0.487493 0.651374 0.238999
Si Si7 0.852629 0.127659 0.716719
Si Si8 0.661332 0.082235 0.917544
O O1 0.059222 0.539839 0.129877
O O2 0.099657 0.472475 0.926088
O O3 0.800349 0.267243 0.234192
O O4 0.697898 0.182995 0.182585
O O5 0.923833 0.188867 0.158760
O O6 0.792112 0.241031 0.974192
O O7 0.813358 0.327789 0.452215
O O8 0.615613 0.317183 0.317710
O O9 0.208389 0.107896 0.607745
O O10 0.161678 0.081699 0.872020
O O11 0.994258 0.124274 0.733904
O O12 0.567886 0.885584 0.622171
O O13 0.562496 0.619462 0.350958
O O14 0.782186 0.097948 0.838580
O O15 0.819260 0.096587 0.578219
#
# Coordination Sequence:
#
# PCOD9367379 Si02
#       8
#     4   8   8   8   8   8   8   8
#     4  10  24  48  76 108 130 172 228 292 346 428
#     4  11  25  38  66  96 136 182 240 281 331 396
#     4  12  23  41  60 101 130 186 232 287 318 406
#     4  11  26  45  74  97 139 179 226 291 349 424
#     4  12  25  46  67  97 142 186 228 279 361 403
#     4  11  25  42  66  95 141 186 230 278 357 398
#     4  10  23  44  66 102 139 180 226 286 350 402
#     4  10  23  45  72  97 137 176 220 287 356 419
#
# _framework density 21.20814
#
# number of rings (size 3 to 8) (size 9 to 14) (size 15 to 20)
#    0.000    1.067    2.667    3.200    7.467    4.267 
#    0.000    0.667    0.000    0.000    0.000    0.000 
#    0.000    0.000    0.000    0.000    0.000    0.000 
#
# Total GULP energy -167598.008257 kJ/mol
# GULP energy per Si atom -5586.600275 kJ/mol
# Density = 2.115987 g / cm^3
# Si number density = 21.208140 Si / 1000 Ang^3
#
#
#
# Elastic Constant Matrix: (Units=GPa)
#
#
# Indices 1 2 3 4 5 6 
#
# 1 84.3412 6.2977 32.6738 0.0000 0.0000 0.0000
# 2 6.2977 43.1139 -7.2507 0.0000 0.0000 0.0000
# 3 32.6738 -7.2507 97.1612 0.0000 0.0000 0.0000
# 4 0.0000 0.0000 0.0000 76.5042 0.0000 0.0000
# 5 0.0000 0.0000 0.0000 0.0000 34.9194 0.0000
# 6 0.0000 0.0000 0.0000 0.0000 0.0000 23.7275
#
#
#
# Elastic Compliance Matrix: (Units=1/GPa)
#
#
# Indices 1 2 3 4 5 6 
#
# 1 0.013974 -0.002868 -0.004913 0.000000 0.000000 0.000000
# 2 -0.002868 0.024078 0.002761 0.000000 0.000000 0.000000
# 3 -0.004913 0.002761 0.012150 0.000000 0.000000 0.000000
# 4 0.000000 0.000000 0.000000 0.013071 0.000000 0.000000
# 5 0.000000 0.000000 0.000000 0.000000 0.028637 0.000000
# 6 0.000000 0.000000 0.000000 0.000000 0.000000 0.042145
#
#
# Mechanical properties :
#
#
# Convention : Reuss Voigt Hill
#
# Bulk Modulus (GPa) = 24.89864 32.00642 28.45253
# Shear Modulus (GPa) = 31.74947 39.88992 35.81970
#
# Velocity S-wave (km/s) = 3.87336 4.34161 4.11415
# Velocity P-wave (km/s) = 5.63644 6.34485 6.00111
#
# Compressibility (1/GPa) = 0.04016283
#
# Stress axis : x y z
#
# Youngs Moduli (GPa) = 71.56084 41.53242 82.30129
#
# Poissons Ratio (x) = 0.11909 0.40437
# Poissons Ratio (y) = 0.20520 -0.22724
# Poissons Ratio (z) = 0.35160 -0.11468
#
# Static dielectric constant tensor:
#      x y z
#    x 1.791280 0.000000 0.000000 
#    y 0.000000 1.577060 0.000000 
#    z 0.000000 0.000000 1.770990 
# 
# From -- ./inp_files/2167.got.cif
#   From: 2010.05.17/outbox.cif.g08.bks.cpg/sg41_2_cif.got.tgz:2167.got - 2010.06.03 18:54:24.
