data_PCOD9367309
_publ_section_title
;
Structure prediction by ZEFSAII (Michael W. Deem and Ramdas Pophale) SiO2 
 PCOD9367309
Probable space group: A B A 2
;
_chemical_formula_sum "Si O2"
_cell_formula_units_Z 56
_cell_length_a 10.185718
_cell_length_b 15.072869
_cell_length_c 15.950198
_cell_angle_alpha 90.000000
_cell_angle_beta 90.000000
_cell_angle_gamma 90.000000
_cell_volume 2448.801888
_symmetry_space_group_name_H-M "A B A 2"
_symmetry_group_IT_number 41
_symmetry_cell_setting 'orthorhombic'
loop_
_space_group_symop_operation_xyz
x,y,z
-x,-y,z
1/2-x,y,1/2+z
1/2+x,-y,1/2+z
x,1/2+y,1/2+z
-x,1/2-y,1/2+z
1/2-x,1/2+y,z
1/2+x,1/2-y,z
loop_
_atom_site_type_symbol
_atom_site_label
_atom_site_fract_x
_atom_site_fract_y
_atom_site_fract_z
Si Si1 0.266349 0.220297 0.534680
Si Si2 0.215196 0.535479 0.991314
Si Si3 0.868939 0.648835 0.757907
Si Si4 0.500000 0.000000 0.316413
Si Si5 0.009471 0.710610 0.144370
Si Si6 0.666091 0.137808 0.400580
Si Si7 0.500000 0.500000 0.370537
Si Si8 0.834791 0.043963 0.670829
O O1 0.298579 0.124451 0.495872
O O2 0.398594 0.254600 0.579154
O O3 0.195234 0.286080 0.468784
O O4 0.152258 0.204577 0.602915
O O5 0.274194 0.449871 0.945639
O O6 0.090362 0.555373 0.934004
O O7 0.174938 0.507829 0.084771
O O8 0.747795 0.673123 0.819510
O O9 0.939560 0.573360 0.810726
O O10 0.799217 0.599133 0.680477
O O11 0.964990 0.724132 0.723174
O O12 0.531591 0.091230 0.367040
O O13 0.629925 0.992182 0.256630
O O14 0.951267 0.615526 0.167314
#
# Coordination Sequence:
#
# PCOD9367309 Si02
#       8
#     8   8   8   4   8   8   4   8
#     4  12  27  43  75 103 146 193 256 303 385 447
#     4  11  23  44  70  98 140 197 238 303 386 448
#     4  10  24  43  69 102 146 183 242 315 365 442
#     4  10  23  40  73  96 142 194 232 312 379 422
#     4  12  24  47  68 106 141 199 243 311 365 454
#     4  10  24  47  67 111 147 186 250 324 368 462
#     4  10  23  42  67 100 142 182 238 306 383 438
#     4  11  22  47  70 103 146 193 250 304 370 465
#
# _framework density 22.868324999999999
#
# number of rings (size 3 to 8) (size 9 to 14) (size 15 to 20)
#    0.000    1.143    2.857    2.143    6.000    3.429 
#    2.571    0.000    0.000    0.000    0.000    0.000 
#    0.000    0.000    0.000    0.000    0.000    0.000 
#
# Total GULP energy -156221.294644 kJ/mol
# GULP energy per Si atom -5579.331952 kJ/mol
# Density = 2.281628 g / cm^3
# Si number density = 22.868325 Si / 1000 Ang^3
#
#
#
# Elastic Constant Matrix: (Units=GPa)
#
#
# Indices 1 2 3 4 5 6 
#
# 1 59.7702 15.0679 30.9439 0.0000 0.0000 0.0000
# 2 15.0679 107.3988 47.5066 0.0000 0.0000 0.0000
# 3 30.9439 47.5066 103.6486 0.0000 0.0000 0.0000
# 4 0.0000 0.0000 0.0000 27.3431 0.0000 0.0000
# 5 0.0000 0.0000 0.0000 0.0000 45.7726 0.0000
# 6 0.0000 0.0000 0.0000 0.0000 0.0000 31.3949
#
#
#
# Elastic Compliance Matrix: (Units=1/GPa)
#
#
# Indices 1 2 3 4 5 6 
#
# 1 0.019793 -0.000205 -0.005815 0.000000 0.000000 0.000000
# 2 -0.000205 0.011681 -0.005293 0.000000 0.000000 0.000000
# 3 -0.005815 -0.005293 0.013810 0.000000 0.000000 0.000000
# 4 0.000000 0.000000 0.000000 0.036572 0.000000 0.000000
# 5 0.000000 0.000000 0.000000 0.000000 0.021847 0.000000
# 6 0.000000 0.000000 0.000000 0.000000 0.000000 0.031852
#
#
# Mechanical properties :
#
#
# Convention : Reuss Voigt Hill
#
# Bulk Modulus (GPa) = 44.13343 50.87270 47.50306
# Shear Modulus (GPa) = 30.16880 32.72207 31.44544
#
# Velocity S-wave (km/s) = 3.63607 3.78682 3.71221
# Velocity P-wave (km/s) = 6.08020 6.43538 6.26031
#
# Compressibility (1/GPa) = 0.02265856
#
# Stress axis : x y z
#
# Youngs Moduli (GPa) = 50.52285 85.60898 72.41095
#
# Poissons Ratio (x) = 0.01751 0.42110
# Poissons Ratio (y) = 0.01034 0.38326
# Poissons Ratio (z) = 0.29381 0.45311
#
# Static dielectric constant tensor:
#      x y z
#    x 1.916220 0.000000 0.000000 
#    y 0.000000 2.067330 0.000000 
#    z 0.000000 0.000000 1.906910 
# 
# From -- ./inp_files/7998.got.cif
#   From: 2010.05.17/outbox.cif.g08.bks.cpg/sg41_4_cif.got.tgz:7998.got - 2010.06.03 18:54:24.
