data_PCOD9367129
_publ_section_title
;
Structure prediction by ZEFSAII (Michael W. Deem and Ramdas Pophale) SiO2 
 PCOD9367129
Probable space group: A B A 2
;
_chemical_formula_sum "Si O2"
_cell_formula_units_Z 52
_cell_length_a 10.734541
_cell_length_b 23.775950
_cell_length_c 9.575138
_cell_angle_alpha 90.000000
_cell_angle_beta 90.000000
_cell_angle_gamma 90.000000
_cell_volume 2443.804160
_symmetry_space_group_name_H-M "A B A 2"
_symmetry_group_IT_number 41
_symmetry_cell_setting 'orthorhombic'
loop_
_space_group_symop_operation_xyz
x,y,z
-x,-y,z
1/2-x,y,1/2+z
1/2+x,-y,1/2+z
x,1/2+y,1/2+z
-x,1/2-y,1/2+z
1/2-x,1/2+y,z
1/2+x,1/2-y,z
loop_
_atom_site_type_symbol
_atom_site_label
_atom_site_fract_x
_atom_site_fract_y
_atom_site_fract_z
Si Si1 0.357211 0.668176 0.267180
Si Si2 0.000000 0.000000 0.252079
Si Si3 0.916692 0.882976 0.762380
Si Si4 0.213313 0.853796 0.437918
Si Si5 0.027423 0.900484 0.051593
Si Si6 0.143295 0.798384 0.705686
Si Si7 0.963178 0.414406 0.968046
O O1 0.218189 0.644784 0.251419
O O2 0.447438 0.641206 0.149864
O O3 0.363788 0.734806 0.255405
O O4 0.402246 0.643678 0.415566
O O5 0.943327 0.045550 0.146959
O O6 0.080262 0.037405 0.360896
O O7 0.019781 0.833786 0.742224
O O8 0.935127 0.923754 0.629433
O O9 0.944914 0.910852 0.912185
O O10 0.343574 0.875473 0.497923
O O11 0.166131 0.804875 0.541214
O O12 0.243377 0.829214 0.286554
O O13 0.110069 0.902614 0.444202
#
# Coordination Sequence:
#
# PCOD9367129 Si02
#       7
#     8   4   8   8   8   8   8
#     4  11  23  38  63  94 137 166 207 258 313 380
#     4  10  22  46  68  88 124 166 210 268 332 362
#     4  10  23  39  61  98 131 166 209 267 306 391
#     4  10  22  42  64  92 130 166 210 260 308 388
#     4  10  23  43  64  94 126 165 217 267 316 376
#     4  10  23  35  64  93 131 175 207 245 320 377
#     4  10  23  43  64  94 126 165 217 267 316 376
#
# _framework density 21.278300999999999
#
# number of rings (size 3 to 8) (size 9 to 14) (size 15 to 20)
#    0.000    1.846    0.000    2.769    8.615    3.077 
#   11.077    0.000    0.000    0.000    0.000    0.000 
#    0.000    0.000    0.000    0.000    0.000    0.000 
#
# Total GULP energy -145155.998005 kJ/mol
# GULP energy per Si atom -5582.923000 kJ/mol
# Density = 2.122987 g / cm^3
# Si number density = 21.278301 Si / 1000 Ang^3
#
#
#
# Elastic Constant Matrix: (Units=GPa)
#
#
# Indices 1 2 3 4 5 6 
#
# 1 92.7944 -2.4802 12.9291 0.0000 0.0000 0.0000
# 2 -2.4802 70.0035 22.0876 0.0000 0.0000 0.0000
# 3 12.9291 22.0876 123.3968 0.0000 0.0000 0.0000
# 4 0.0000 0.0000 0.0000 10.4613 0.0000 0.0000
# 5 0.0000 0.0000 0.0000 0.0000 35.2284 0.0000
# 6 0.0000 0.0000 0.0000 0.0000 0.0000 5.2720
#
#
#
# Elastic Compliance Matrix: (Units=1/GPa)
#
#
# Indices 1 2 3 4 5 6 
#
# 1 0.010978 0.000797 -0.001293 0.000000 0.000000 0.000000
# 2 0.000797 0.015198 -0.002804 0.000000 0.000000 0.000000
# 3 -0.001293 -0.002804 0.008741 0.000000 0.000000 0.000000
# 4 0.000000 0.000000 0.000000 0.095590 0.000000 0.000000
# 5 0.000000 0.000000 0.000000 0.000000 0.028386 0.000000
# 6 0.000000 0.000000 0.000000 0.000000 0.000000 0.189683
#
#
# Mechanical properties :
#
#
# Convention : Reuss Voigt Hill
#
# Bulk Modulus (GPa) = 35.31398 39.02975 37.17187
# Shear Modulus (GPa) = 13.71309 27.10289 20.40799
#
# Velocity S-wave (km/s) = 2.54138 3.57281 3.10029
# Velocity P-wave (km/s) = 5.02432 5.94998 5.50664
#
# Compressibility (1/GPa) = 0.02831740
#
# Stress axis : x y z
#
# Youngs Moduli (GPa) = 91.09172 65.79856 114.39966
#
# Poissons Ratio (x) = -0.05243 0.14790
# Poissons Ratio (y) = -0.07259 0.32076
# Poissons Ratio (z) = 0.11777 0.18449
#
# Static dielectric constant tensor:
#      x y z
#    x 1.767970 0.000000 0.000000 
#    y 0.000000 1.763770 0.000000 
#    z 0.000000 0.000000 1.796320 
# 
# From -- ./inp_files/2146.got.cif
#   From: 2010.05.17/outbox.cif.g08.bks.cpg/sg41_2_cif.got.tgz:2146.got - 2010.06.03 18:54:24.
