data_PCOD9367437
_publ_section_title
;
Structure prediction by ZEFSAII (Michael W. Deem and Ramdas Pophale) SiO2 
 PCOD9367437
Probable space group: A B A 2
;
_chemical_formula_sum "Si O2"
_cell_formula_units_Z 32
_cell_length_a 13.928781
_cell_length_b 9.224618
_cell_length_c 10.576394
_cell_angle_alpha 90.000000
_cell_angle_beta 90.000000
_cell_angle_gamma 90.000000
_cell_volume 1358.936369
_symmetry_space_group_name_H-M "A B A 2"
_symmetry_group_IT_number 41
_symmetry_cell_setting 'orthorhombic'
loop_
_space_group_symop_operation_xyz
x,y,z
-x,-y,z
1/2-x,y,1/2+z
1/2+x,-y,1/2+z
x,1/2+y,1/2+z
-x,1/2-y,1/2+z
1/2-x,1/2+y,z
1/2+x,1/2-y,z
loop_
_atom_site_type_symbol
_atom_site_label
_atom_site_fract_x
_atom_site_fract_y
_atom_site_fract_z
Si Si1 0.666970 0.603749 0.245660
Si Si2 0.452549 0.141170 0.348040
Si Si3 0.918495 0.889344 0.426335
Si Si4 0.776630 0.507250 0.478515
O O1 0.599131 0.742236 0.259512
O O2 0.608851 0.458281 0.288009
O O3 0.747297 0.605567 0.356954
O O4 0.708742 0.589012 0.108369
O O5 0.535263 0.232608 0.418090
O O6 0.500000 0.000000 0.287122
O O7 0.370330 0.083950 0.442344
O O8 0.818149 0.908103 0.496480
O O9 0.000000 0.000000 0.475732
#
# Coordination Sequence:
#
# PCOD9367437 Si02
#       4
#     8   8   8   8
#     4   9  23  48  75 106 160 207 259 316 399 469
#     4  11  24  43  78 120 153 204 270 326 394 464
#     4   8  20  45  72 107 155 208 255 316 388 472
#     4  10  23  46  77 108 158 212 255 322 389 471
#
# _framework density 23.547825
#
# number of rings (size 3 to 8) (size 9 to 14) (size 15 to 20)
#    1.500    1.000    0.000    0.000    3.500    5.000 
#    4.500    3.750    5.500    0.000    0.000    1.750 
#    0.000    0.000    0.000    0.000    0.000    0.000 
#
# Total GULP energy -89365.066561 kJ/mol
# GULP energy per Si atom -5585.316660 kJ/mol
# Density = 2.349423 g / cm^3
# Si number density = 23.547825 Si / 1000 Ang^3
#
#
#
# Elastic Constant Matrix: (Units=GPa)
#
#
# Indices 1 2 3 4 5 6 
#
# 1 148.3102 72.2889 72.2057 0.0000 0.0000 0.0000
# 2 72.2889 144.8027 43.3707 0.0000 0.0000 0.0000
# 3 72.2057 43.3707 138.9169 0.0000 0.0000 0.0000
# 4 0.0000 0.0000 0.0000 10.5579 0.0000 0.0000
# 5 0.0000 0.0000 0.0000 0.0000 -3.1292 0.0000
# 6 0.0000 0.0000 0.0000 0.0000 0.0000 29.2632
#
#
#
# Elastic Compliance Matrix: (Units=1/GPa)
#
#
# Indices 1 2 3 4 5 6 
#
# 1 0.010878 -0.004123 -0.004367 0.000000 0.000000 0.000000
# 2 -0.004123 0.009181 -0.000723 0.000000 0.000000 0.000000
# 3 -0.004367 -0.000723 0.009694 0.000000 0.000000 0.000000
# 4 0.000000 0.000000 0.000000 0.094716 0.000000 0.000000
# 5 0.000000 0.000000 0.000000 0.000000 -0.319565 0.000000
# 6 0.000000 0.000000 0.000000 0.000000 0.000000 0.034173
#
#
# Mechanical properties :
#
#
# Convention : Reuss Voigt Hill
#
# Bulk Modulus (GPa) = 88.28536 89.75114 89.01825
# Shear Modulus (GPa) = -36.04352 23.61599 -6.21376
#
# Velocity S-wave (km/s) = -3.91660 3.17029 -1.62620
# Velocity P-wave (km/s) = 4.13767 7.18318 5.86167
#
# Compressibility (1/GPa) = 0.01132691
#
# Stress axis : x y z
#
# Youngs Moduli (GPa) = 91.92660 108.92354 103.15290
#
# Poissons Ratio (x) = 0.44905 0.45048
# Poissons Ratio (y) = 0.37898 0.07462
# Poissons Ratio (z) = 0.40146 0.07880
#
# Static dielectric constant tensor:
#      x y z
#    x 1.928850 0.000000 0.000000 
#    y 0.000000 1.919550 0.000000 
#    z 0.000000 0.000000 1.859500 
# 
# From -- ./inp_files/5271.got.cif
#   From: 2010.05.17/outbox.cif.g08.bks.cpg/sg41_3_cif.got.tgz:5271.got - 2010.06.03 18:54:24.
