data_PCOD9367332
_publ_section_title
;
Structure prediction by ZEFSAII (Michael W. Deem and Ramdas Pophale) SiO2 
 PCOD9367332
Probable space group: A B A 2
;
_chemical_formula_sum "Si O2"
_cell_formula_units_Z 56
_cell_length_a 15.324275
_cell_length_b 8.892300
_cell_length_c 19.610021
_cell_angle_alpha 90.000000
_cell_angle_beta 90.000000
_cell_angle_gamma 90.000000
_cell_volume 2672.219334
_symmetry_space_group_name_H-M "A B A 2"
_symmetry_group_IT_number 41
_symmetry_cell_setting 'orthorhombic'
loop_
_space_group_symop_operation_xyz
x,y,z
-x,-y,z
1/2-x,y,1/2+z
1/2+x,-y,1/2+z
x,1/2+y,1/2+z
-x,1/2-y,1/2+z
1/2-x,1/2+y,z
1/2+x,1/2-y,z
loop_
_atom_site_type_symbol
_atom_site_label
_atom_site_fract_x
_atom_site_fract_y
_atom_site_fract_z
Si Si1 0.772233 0.422297 0.010760
Si Si2 0.679997 0.295323 0.819347
Si Si3 0.266530 0.962650 0.725825
Si Si4 0.512250 0.163999 0.320059
Si Si5 0.325723 0.335247 0.920682
Si Si6 0.163782 0.815352 0.599481
Si Si7 0.937333 0.860500 0.190575
O O1 0.714857 0.324999 0.064366
O O2 0.830493 0.551545 0.044789
O O3 0.709077 0.513401 0.957716
O O4 0.832484 0.297487 0.975690
O O5 0.680868 0.174278 0.758860
O O6 0.709975 0.451188 0.783741
O O7 0.583224 0.298626 0.849209
O O8 0.750501 0.231122 0.871476
O O9 0.210592 0.892047 0.665128
O O10 0.339162 0.078315 0.700524
O O11 0.586269 0.151790 0.377318
O O12 0.537326 0.280256 0.261100
O O13 0.500000 0.000000 0.286979
O O14 0.071931 0.755031 0.627998
O O15 0.000000 0.000000 0.176516
#
# Coordination Sequence:
#
# PCOD9367332 Si02
#       7
#     8   8   8   8   8   8   8
#     4  10  23  41  71  90 127 189 236 267 325 398
#     4  12  23  39  70 100 133 170 215 276 352 412
#     4  12  21  40  71  99 130 173 212 274 350 411
#     4  12  25  41  67 102 138 171 217 280 349 414
#     4  11  23  44  66  97 135 179 231 278 332 402
#     4  11  21  43  70  95 128 180 231 274 329 407
#     4  12  24  41  66 105 140 170 215 282 350 413
#
# _framework density 20.956361999999999
#
# number of rings (size 3 to 8) (size 9 to 14) (size 15 to 20)
#    0.000    0.571    5.714    3.429    0.000    0.000 
#    0.000    3.571    3.143    0.000    0.000    0.000 
#    0.000    0.000    0.000    0.000    0.000    0.000 
#
# Total GULP energy -156397.720423 kJ/mol
# GULP energy per Si atom -5585.632872 kJ/mol
# Density = 2.090866 g / cm^3
# Si number density = 20.956362 Si / 1000 Ang^3
#
#
#
# Elastic Constant Matrix: (Units=GPa)
#
#
# Indices 1 2 3 4 5 6 
#
# 1 103.9202 40.5327 40.0086 0.0000 0.0000 0.0000
# 2 40.5327 131.4420 41.9827 0.0000 0.0000 0.0000
# 3 40.0086 41.9827 79.7128 0.0000 0.0000 0.0000
# 4 0.0000 0.0000 0.0000 51.5339 0.0000 0.0000
# 5 0.0000 0.0000 0.0000 0.0000 1.2698 0.0000
# 6 0.0000 0.0000 0.0000 0.0000 0.0000 29.1257
#
#
#
# Elastic Compliance Matrix: (Units=1/GPa)
#
#
# Indices 1 2 3 4 5 6 
#
# 1 0.012442 -0.002215 -0.005078 0.000000 0.000000 0.000000
# 2 -0.002215 0.009541 -0.003913 0.000000 0.000000 0.000000
# 3 -0.005078 -0.003913 0.017155 0.000000 0.000000 0.000000
# 4 0.000000 0.000000 0.000000 0.019405 0.000000 0.000000
# 5 0.000000 0.000000 0.000000 0.000000 0.787514 0.000000
# 6 0.000000 0.000000 0.000000 0.000000 0.000000 0.034334
#
#
# Mechanical properties :
#
#
# Convention : Reuss Voigt Hill
#
# Bulk Modulus (GPa) = 59.79084 62.23590 61.01337
# Shear Modulus (GPa) = 5.50432 29.22261 17.36347
#
# Velocity S-wave (km/s) = 1.62243 3.73829 2.88158
# Velocity P-wave (km/s) = 5.66593 6.95668 6.34421
#
# Compressibility (1/GPa) = 0.01672497
#
# Stress axis : x y z
#
# Youngs Moduli (GPa) = 80.37532 104.81343 58.29254
#
# Poissons Ratio (x) = 0.23212 0.29602
# Poissons Ratio (y) = 0.17800 0.22812
# Poissons Ratio (z) = 0.40816 0.41017
#
# Static dielectric constant tensor:
#      x y z
#    x 1.730080 0.000000 0.000000 
#    y 0.000000 1.812510 0.000000 
#    z 0.000000 0.000000 1.802970 
# 
# From -- ./inp_files/11541.got.cif
#   From: 2010.05.17/outbox.cif.g08.bks.cpg/sg41_6_cif.got.tgz:11541.got - 2010.06.03 18:54:24.
