data_PCOD9367703
_publ_section_title
;
Structure prediction by ZEFSAII (Michael W. Deem and Ramdas Pophale) SiO2 
 PCOD9367703
Probable space group: A B A 2
;
_chemical_formula_sum "Si O2"
_cell_formula_units_Z 40
_cell_length_a 17.952832
_cell_length_b 5.021010
_cell_length_c 17.543144
_cell_angle_alpha 90.000000
_cell_angle_beta 90.000000
_cell_angle_gamma 90.000000
_cell_volume 1581.362666
_symmetry_space_group_name_H-M "A B A 2"
_symmetry_group_IT_number 41
_symmetry_cell_setting 'orthorhombic'
loop_
_space_group_symop_operation_xyz
x,y,z
-x,-y,z
1/2-x,y,1/2+z
1/2+x,-y,1/2+z
x,1/2+y,1/2+z
-x,1/2-y,1/2+z
1/2-x,1/2+y,z
1/2+x,1/2-y,z
loop_
_atom_site_type_symbol
_atom_site_label
_atom_site_fract_x
_atom_site_fract_y
_atom_site_fract_z
Si Si1 0.880951 0.347836 0.439460
Si Si2 0.804326 0.788178 0.101213
Si Si3 0.045511 0.668541 0.875855
Si Si4 0.200455 0.804766 0.286221
Si Si5 0.915876 0.544410 0.219545
O O1 0.843524 0.281508 0.518578
O O2 0.954473 0.168548 0.416014
O O3 0.826662 0.239305 0.373181
O O4 0.909160 0.654398 0.438908
O O5 0.740656 0.562788 0.107669
O O6 0.869265 0.721360 0.160978
O O7 0.000000 0.500000 0.809859
O O8 0.918762 0.144674 0.807602
O O9 0.233283 0.094749 0.275997
O O10 0.134047 0.720817 0.231206
O O11 0.000000 0.500000 0.193186
#
# Coordination Sequence:
#
# PCOD9367703 Si02
#       5
#     8   8   8   8   8
#     4  11  23  42  72 104 137 183 238 299 358 426
#     4  12  27  49  72 106 149 194 245 306 367 436
#     4  11  23  44  71 104 141 183 236 296 360 429
#     4  11  21  39  67 100 131 175 230 288 348 412
#     4  11  26  46  71 104 146 191 239 293 360 437
#
# _framework density 25.294637000000002
#
# number of rings (size 3 to 8) (size 9 to 14) (size 15 to 20)
#    0.000    0.800    0.000    9.000    0.000    5.600 
#    0.000    4.000    0.000    0.000    0.000    0.000 
#    0.000    0.000    0.000    0.000    0.000    0.000 
#
# Total GULP energy -111399.370550 kJ/mol
# GULP energy per Si atom -5569.968527 kJ/mol
# Density = 2.523707 g / cm^3
# Si number density = 25.294637 Si / 1000 Ang^3
#
#
#
# Elastic Constant Matrix: (Units=GPa)
#
#
# Indices 1 2 3 4 5 6 
#
# 1 181.5506 48.8466 69.6203 0.0000 0.0000 0.0000
# 2 48.8466 116.0959 21.2731 0.0000 0.0000 0.0000
# 3 69.6203 21.2731 136.8037 0.0000 0.0000 0.0000
# 4 0.0000 0.0000 0.0000 30.6317 0.0000 0.0000
# 5 0.0000 0.0000 0.0000 0.0000 105.9250 0.0000
# 6 0.0000 0.0000 0.0000 0.0000 0.0000 31.6414
#
#
#
# Elastic Compliance Matrix: (Units=1/GPa)
#
#
# Indices 1 2 3 4 5 6 
#
# 1 0.007502 -0.002529 -0.003424 0.000000 0.000000 0.000000
# 2 -0.002529 0.009719 -0.000224 0.000000 0.000000 0.000000
# 3 -0.003424 -0.000224 0.009087 0.000000 0.000000 0.000000
# 4 0.000000 0.000000 0.000000 0.032646 0.000000 0.000000
# 5 0.000000 0.000000 0.000000 0.000000 0.009441 0.000000
# 6 0.000000 0.000000 0.000000 0.000000 0.000000 0.031604
#
#
# Mechanical properties :
#
#
# Convention : Reuss Voigt Hill
#
# Bulk Modulus (GPa) = 71.67146 79.32555 75.49851
# Shear Modulus (GPa) = 42.73345 53.28697 48.01021
#
# Velocity S-wave (km/s) = 4.11472 4.59481 4.36138
# Velocity P-wave (km/s) = 7.13938 7.71870 7.43469
#
# Compressibility (1/GPa) = 0.01395255
#
# Stress axis : x y z
#
# Youngs Moduli (GPa) = 133.30373 102.89492 110.04325
#
# Poissons Ratio (x) = 0.26020 0.37683
# Poissons Ratio (y) = 0.33710 0.02469
# Poissons Ratio (z) = 0.45649 0.02308
#
# Static dielectric constant tensor:
#      x y z
#    x 2.112120 0.000000 0.000000 
#    y 0.000000 2.197540 0.000000 
#    z 0.000000 0.000000 1.953530 
# 
# From -- ./inp_files/10493.got.cif
#   From: 2010.05.17/outbox.cif.g08.bks.cpg/sg41_6_cif.got.tgz:10493.got - 2010.06.03 18:54:24.
