data_PCOD9367958
_publ_section_title
;
Structure prediction by ZEFSAII (Michael W. Deem and Ramdas Pophale) SiO2 
 PCOD9367958
Probable space group: A B A 2
;
_chemical_formula_sum "Si O2"
_cell_formula_units_Z 36
_cell_length_a 10.096083
_cell_length_b 8.806409
_cell_length_c 16.719966
_cell_angle_alpha 90.000000
_cell_angle_beta 90.000000
_cell_angle_gamma 90.000000
_cell_volume 1486.576126
_symmetry_space_group_name_H-M "A B A 2"
_symmetry_group_IT_number 41
_symmetry_cell_setting 'orthorhombic'
loop_
_space_group_symop_operation_xyz
x,y,z
-x,-y,z
1/2-x,y,1/2+z
1/2+x,-y,1/2+z
x,1/2+y,1/2+z
-x,1/2-y,1/2+z
1/2-x,1/2+y,z
1/2+x,1/2-y,z
loop_
_atom_site_type_symbol
_atom_site_label
_atom_site_fract_x
_atom_site_fract_y
_atom_site_fract_z
Si Si1 0.000000 0.500000 0.626310
Si Si2 0.459588 0.667363 0.563544
Si Si3 0.840093 0.633812 0.302678
Si Si4 0.749100 0.891794 0.189148
Si Si5 0.946797 0.659837 0.879665
O O1 0.011196 0.663681 0.584228
O O2 0.864832 0.512103 0.674198
O O3 0.500000 0.500000 0.596945
O O4 0.314939 0.661423 0.605347
O O5 0.504802 0.657276 0.471607
O O6 0.817761 0.750401 0.230647
O O7 0.839434 0.472058 0.257773
O O8 0.711160 0.654257 0.361715
O O9 0.970788 0.697783 0.345507
O O10 0.000000 0.500000 0.844321
#
# Coordination Sequence:
#
# PCOD9367958 Si02
#       5
#     4   8   8   8   8
#     4  12  26  48  74 112 156 198 260 324 386 460
#     4  11  28  47  77 110 153 202 259 315 390 466
#     4  12  25  46  78 106 150 201 253 321 393 455
#     4  12  25  45  77 108 147 197 266 314 385 470
#     4  11  27  50  72 111 159 198 256 325 392 474
#
# _framework density 24.216721
#
# number of rings (size 3 to 8) (size 9 to 14) (size 15 to 20)
#    0.000    0.444    4.444    2.667    6.222    3.556 
#    0.000    0.000    0.000    0.000    0.000    0.000 
#    0.000    0.000    0.000    0.000    0.000    0.000 
#
# Total GULP energy -100227.017788 kJ/mol
# GULP energy per Si atom -5568.167655 kJ/mol
# Density = 2.416160 g / cm^3
# Si number density = 24.216721 Si / 1000 Ang^3
#
#
#
# Elastic Constant Matrix: (Units=GPa)
#
#
# Indices 1 2 3 4 5 6 
#
# 1 121.0616 27.3072 62.8092 0.0000 0.0000 0.0000
# 2 27.3072 127.9513 14.4437 0.0000 0.0000 0.0000
# 3 62.8092 14.4437 121.0355 0.0000 0.0000 0.0000
# 4 0.0000 0.0000 0.0000 27.7055 0.0000 0.0000
# 5 0.0000 0.0000 0.0000 0.0000 17.1262 0.0000
# 6 0.0000 0.0000 0.0000 0.0000 0.0000 37.5385
#
#
#
# Elastic Compliance Matrix: (Units=1/GPa)
#
#
# Indices 1 2 3 4 5 6 
#
# 1 0.011715 -0.001839 -0.005860 0.000000 0.000000 0.000000
# 2 -0.001839 0.008211 -0.000026 0.000000 0.000000 0.000000
# 3 -0.005860 -0.000026 0.011306 0.000000 0.000000 0.000000
# 4 0.000000 0.000000 0.000000 0.036094 0.000000 0.000000
# 5 0.000000 0.000000 0.000000 0.000000 0.058390 0.000000
# 6 0.000000 0.000000 0.000000 0.000000 0.000000 0.026639
#
#
# Mechanical properties :
#
#
# Convention : Reuss Voigt Hill
#
# Bulk Modulus (GPa) = 63.35807 64.35208 63.85508
# Shear Modulus (GPa) = 28.89081 34.17324 31.53203
#
# Velocity S-wave (km/s) = 3.45775 3.76059 3.61234
# Velocity P-wave (km/s) = 6.49316 6.74442 6.61998
#
# Compressibility (1/GPa) = 0.01578331
#
# Stress axis : x y z
#
# Youngs Moduli (GPa) = 85.35828 121.79084 88.44811
#
# Poissons Ratio (x) = 0.22394 0.51831
# Poissons Ratio (y) = 0.15695 0.00227
# Poissons Ratio (z) = 0.50020 0.00312
#
# Static dielectric constant tensor:
#      x y z
#    x 2.158040 0.000000 0.000000 
#    y 0.000000 1.989800 0.000000 
#    z 0.000000 0.000000 1.952410 
# 
# From -- ./inp_files/11076.got.cif
#   From: 2010.05.17/outbox.cif.g08.bks.cpg/sg41_6_cif.got.tgz:11076.got - 2010.06.03 18:54:24.
