data_PCOD9367168
_publ_section_title
;
Structure prediction by ZEFSAII (Michael W. Deem and Ramdas Pophale) SiO2 
 PCOD9367168
Probable space group: A B A 2
;
_chemical_formula_sum "Si O2"
_cell_formula_units_Z 56
_cell_length_a 27.427512
_cell_length_b 5.576919
_cell_length_c 13.923714
_cell_angle_alpha 90.000000
_cell_angle_beta 90.000000
_cell_angle_gamma 90.000000
_cell_volume 2129.785395
_symmetry_space_group_name_H-M "A B A 2"
_symmetry_group_IT_number 41
_symmetry_cell_setting 'orthorhombic'
loop_
_space_group_symop_operation_xyz
x,y,z
-x,-y,z
1/2-x,y,1/2+z
1/2+x,-y,1/2+z
x,1/2+y,1/2+z
-x,1/2-y,1/2+z
1/2-x,1/2+y,z
1/2+x,1/2-y,z
loop_
_atom_site_type_symbol
_atom_site_label
_atom_site_fract_x
_atom_site_fract_y
_atom_site_fract_z
Si Si1 0.769183 0.561170 0.342920
Si Si2 0.138072 0.126999 0.337383
Si Si3 0.944678 0.960356 0.619321
Si Si4 0.055323 0.460469 0.347745
Si Si5 0.638067 0.626839 0.129681
Si Si6 0.374534 0.750071 0.983526
Si Si7 0.730816 0.938658 0.124193
O O1 0.757410 0.298319 0.383466
O O2 0.825471 0.645590 0.336821
O O3 0.747685 0.999903 0.233557
O O4 0.082655 0.206903 0.360308
O O5 0.140423 0.000104 0.233527
O O6 0.153222 0.955918 0.424962
O O7 0.917351 0.706769 0.606766
O O8 0.943330 0.999945 0.733533
O O9 0.909936 0.140799 0.564020
O O10 0.000000 0.000000 0.586973
O O11 0.090057 0.640960 0.403039
O O12 0.000000 0.500000 0.380099
O O13 0.653217 0.455799 0.042088
O O14 0.674528 0.854236 0.130266
O O15 0.742586 0.201518 0.083652
#
# Coordination Sequence:
#
# PCOD9367168 Si02
#       7
#     8   8   8   8   8   8   8
#     4  10  22  42  78 116 153 206 264 321 394 469
#     4  12  25  47  76 110 156 201 259 323 392 469
#     4  11  26  49  76 108 150 199 261 319 388 469
#     4  11  26  49  76 108 150 199 261 319 388 469
#     4  12  25  47  76 110 156 201 259 323 392 469
#     4  12  28  46  76 108 152 208 242 326 394 464
#     4  10  22  42  78 116 153 206 264 321 394 469
#
# _framework density 26.293725999999999
#
# number of rings (size 3 to 8) (size 9 to 14) (size 15 to 20)
#    0.000    0.857    2.857    4.286    8.000    0.000 
#    0.000    1.429    0.000    0.000    0.000    0.000 
#    0.000    0.000    0.000    0.000    0.000    0.000 
#
# Total GULP energy -156732.699946 kJ/mol
# GULP energy per Si atom -5597.596427 kJ/mol
# Density = 2.623388 g / cm^3
# Si number density = 26.293726 Si / 1000 Ang^3
#
#
#
# Elastic Constant Matrix: (Units=GPa)
#
#
# Indices 1 2 3 4 5 6 
#
# 1 173.3601 90.4721 12.5329 0.0000 0.0000 0.0000
# 2 90.4721 199.1492 61.8888 0.0000 0.0000 0.0000
# 3 12.5329 61.8888 120.4151 0.0000 0.0000 0.0000
# 4 0.0000 0.0000 0.0000 46.6276 0.0000 0.0000
# 5 0.0000 0.0000 0.0000 0.0000 38.8083 0.0000
# 6 0.0000 0.0000 0.0000 0.0000 0.0000 76.4327
#
#
#
# Elastic Compliance Matrix: (Units=1/GPa)
#
#
# Indices 1 2 3 4 5 6 
#
# 1 0.007701 -0.003867 0.001186 0.000000 0.000000 0.000000
# 2 -0.003867 0.007918 -0.003667 0.000000 0.000000 0.000000
# 3 0.001186 -0.003667 0.010066 0.000000 0.000000 0.000000
# 4 0.000000 0.000000 0.000000 0.021447 0.000000 0.000000
# 5 0.000000 0.000000 0.000000 0.000000 0.025768 0.000000
# 6 0.000000 0.000000 0.000000 0.000000 0.000000 0.013083
#
#
# Mechanical properties :
#
#
# Convention : Reuss Voigt Hill
#
# Bulk Modulus (GPa) = 76.99179 91.41243 84.20211
# Shear Modulus (GPa) = 48.54050 54.24244 51.39147
#
# Velocity S-wave (km/s) = 4.30127 4.54689 4.42579
# Velocity P-wave (km/s) = 7.34935 7.89981 7.62954
#
# Compressibility (1/GPa) = 0.01298840
#
# Stress axis : x y z
#
# Youngs Moduli (GPa) = 129.85939 126.30076 99.34624
#
# Poissons Ratio (x) = 0.48839 -0.11782
# Poissons Ratio (y) = 0.50215 0.36429
# Poissons Ratio (z) = -0.15401 0.46313
#
# Static dielectric constant tensor:
#      x y z
#    x 2.049110 0.000000 0.000000 
#    y 0.000000 2.151140 0.000000 
#    z 0.000000 0.000000 2.050670 
# 
# From -- ./inp_files/9289.got.cif
#   From: 2010.05.17/outbox.cif.g08.bks.cpg/sg41_5_cif.got.tgz:9289.got - 2010.06.03 18:54:24.
