data_PCOD9367442
_publ_section_title
;
Structure prediction by ZEFSAII (Michael W. Deem and Ramdas Pophale) SiO2 
 PCOD9367442
Probable space group: A B A 2
;
_chemical_formula_sum "Si O2"
_cell_formula_units_Z 32
_cell_length_a 12.596857
_cell_length_b 9.627659
_cell_length_c 13.054715
_cell_angle_alpha 90.000000
_cell_angle_beta 90.000000
_cell_angle_gamma 90.000000
_cell_volume 1583.252907
_symmetry_space_group_name_H-M "A B A 2"
_symmetry_group_IT_number 41
_symmetry_cell_setting 'orthorhombic'
loop_
_space_group_symop_operation_xyz
x,y,z
-x,-y,z
1/2-x,y,1/2+z
1/2+x,-y,1/2+z
x,1/2+y,1/2+z
-x,1/2-y,1/2+z
1/2-x,1/2+y,z
1/2+x,1/2-y,z
loop_
_atom_site_type_symbol
_atom_site_label
_atom_site_fract_x
_atom_site_fract_y
_atom_site_fract_z
Si Si1 0.771601 0.975957 0.024920
Si Si2 0.411217 0.894456 0.345638
Si Si3 0.358936 0.784725 0.130962
Si Si4 0.043089 0.642063 0.981380
O O1 0.839488 0.874185 0.097651
O O2 0.728875 0.114545 0.079821
O O3 0.666151 0.887374 0.000655
O O4 0.833529 0.023019 0.922870
O O5 0.356465 0.817602 0.250847
O O6 0.468546 0.775965 0.411711
O O7 0.500000 0.000000 0.305642
O O8 0.471652 0.831737 0.081940
O O9 0.000000 0.500000 0.931983
#
# Coordination Sequence:
#
# PCOD9367442 Si02
#       4
#     8   8   8   8
#     4  11  23  44  67  99 136 179 232 285 337 417
#     4  12  24  44  72 101 136 188 233 284 353 408
#     4  11  25  44  69  98 142 181 231 289 347 407
#     4  10  23  47  65  98 140 172 226 294 336 415
#
# _framework density 20.211555000000001
#
# number of rings (size 3 to 8) (size 9 to 14) (size 15 to 20)
#    0.000    1.000    5.000    2.250    3.500    0.000 
#   13.500    0.000    0.000    0.000    0.000    0.000 
#    0.000    0.000    0.000    0.000    0.000    0.000 
#
# Total GULP energy -89337.132003 kJ/mol
# GULP energy per Si atom -5583.570750 kJ/mol
# Density = 2.016555 g / cm^3
# Si number density = 20.211555 Si / 1000 Ang^3
#
#
#
# Elastic Constant Matrix: (Units=GPa)
#
#
# Indices 1 2 3 4 5 6 
#
# 1 68.3721 27.6232 38.4109 0.0000 0.0000 0.0000
# 2 27.6232 103.0515 42.8601 0.0000 0.0000 0.0000
# 3 38.4109 42.8601 127.0846 0.0000 0.0000 0.0000
# 4 0.0000 0.0000 0.0000 41.0548 0.0000 0.0000
# 5 0.0000 0.0000 0.0000 0.0000 17.4414 0.0000
# 6 0.0000 0.0000 0.0000 0.0000 0.0000 24.0818
#
#
#
# Elastic Compliance Matrix: (Units=1/GPa)
#
#
# Indices 1 2 3 4 5 6 
#
# 1 0.018405 -0.003047 -0.004535 0.000000 0.000000 0.000000
# 2 -0.003047 0.011792 -0.003056 0.000000 0.000000 0.000000
# 3 -0.004535 -0.003056 0.010270 0.000000 0.000000 0.000000
# 4 0.000000 0.000000 0.000000 0.024358 0.000000 0.000000
# 5 0.000000 0.000000 0.000000 0.000000 0.057335 0.000000
# 6 0.000000 0.000000 0.000000 0.000000 0.000000 0.041525
#
#
# Mechanical properties :
#
#
# Convention : Reuss Voigt Hill
#
# Bulk Modulus (GPa) = 52.10983 57.36628 54.73805
# Shear Modulus (GPa) = 26.12916 29.15652 27.64284
#
# Velocity S-wave (km/s) = 3.59943 3.80223 3.70222
# Velocity P-wave (km/s) = 6.56603 6.90800 6.73918
#
# Compressibility (1/GPa) = 0.01919024
#
# Stress axis : x y z
#
# Youngs Moduli (GPa) = 54.33381 84.80578 97.37034
#
# Poissons Ratio (x) = 0.25843 0.44158
# Poissons Ratio (y) = 0.16557 0.29754
# Poissons Ratio (z) = 0.24641 0.25915
#
# Static dielectric constant tensor:
#      x y z
#    x 1.741900 0.000000 0.000000 
#    y 0.000000 1.727700 0.000000 
#    z 0.000000 0.000000 1.694760 
# 
# From -- ./inp_files/4715.got.cif
#   From: 2010.05.17/outbox.cif.g08.bks.cpg/sg41_3_cif.got.tgz:4715.got - 2010.06.03 18:54:24.
