data_PCOD9367197
_publ_section_title
;
Structure prediction by ZEFSAII (Michael W. Deem and Ramdas Pophale) SiO2 
 PCOD9367197
Probable space group: A B A 2
;
_chemical_formula_sum "Si O2"
_cell_formula_units_Z 64
_cell_length_a 14.569969
_cell_length_b 8.902627
_cell_length_c 21.173692
_cell_angle_alpha 90.000000
_cell_angle_beta 90.000000
_cell_angle_gamma 90.000000
_cell_volume 2746.460750
_symmetry_space_group_name_H-M "A B A 2"
_symmetry_group_IT_number 41
_symmetry_cell_setting 'orthorhombic'
loop_
_space_group_symop_operation_xyz
x,y,z
-x,-y,z
1/2-x,y,1/2+z
1/2+x,-y,1/2+z
x,1/2+y,1/2+z
-x,1/2-y,1/2+z
1/2-x,1/2+y,z
1/2+x,1/2-y,z
loop_
_atom_site_type_symbol
_atom_site_label
_atom_site_fract_x
_atom_site_fract_y
_atom_site_fract_z
Si Si1 0.629473 0.819532 0.192960
Si Si2 0.422523 0.617361 0.285253
Si Si3 0.128108 0.855530 0.543586
Si Si4 0.078183 0.705819 0.052353
Si Si5 0.179836 0.328471 0.185490
Si Si6 0.752691 0.454150 0.364525
Si Si7 0.049870 0.656351 0.326394
Si Si8 0.210358 0.287297 0.451806
O O1 0.585623 0.766532 0.127187
O O2 0.716951 0.714764 0.203201
O O3 0.561735 0.820394 0.251365
O O4 0.661465 0.993957 0.190974
O O5 0.500000 0.500000 0.261922
O O6 0.382868 0.729714 0.231975
O O7 0.329264 0.542055 0.313669
O O8 0.478805 0.708875 0.340363
O O9 0.163814 0.795062 0.611342
O O10 0.194921 0.807508 0.488517
O O11 0.026761 0.794483 0.532820
O O12 0.118113 0.035996 0.547590
O O13 0.134459 0.811984 0.005461
O O14 0.844291 0.357434 0.348368
O O15 0.791191 0.611622 0.389166
O O16 0.706562 0.379791 0.425515
O O17 0.000000 0.500000 0.340833
#
# Coordination Sequence:
#
# PCOD9367197 Si02
#       8
#     8   8   8   8   8   8   8   8
#     4  11  23  41  75 102 143 182 226 297 367 445
#     4  12  27  46  71 106 143 190 240 299 368 430
#     4  10  22  44  70 102 137 179 231 292 353 433
#     4  10  22  43  71 101 138 182 229 288 364 418
#     4  11  23  43  72 106 141 181 227 294 376 430
#     4  12  28  45  69  98 144 187 245 296 340 417
#     4  12  25  46  71 101 142 185 237 295 368 430
#     4  12  24  45  69  99 135 189 239 286 345 412
#
# _framework density 23.302719
#
# number of rings (size 3 to 8) (size 9 to 14) (size 15 to 20)
#    0.000    0.750    5.000    2.250    3.500    3.000 
#    0.000    0.000    0.000    0.000    0.000    0.000 
#    0.000    0.000    0.000    0.000    0.000    0.000 
#
# Total GULP energy -178884.115766 kJ/mol
# GULP energy per Si atom -5590.128618 kJ/mol
# Density = 2.324968 g / cm^3
# Si number density = 23.302719 Si / 1000 Ang^3
#
#
#
# Elastic Constant Matrix: (Units=GPa)
#
#
# Indices 1 2 3 4 5 6 
#
# 1 95.8335 14.7178 51.3281 0.0000 0.0000 0.0000
# 2 14.7178 54.5406 6.2121 0.0000 0.0000 0.0000
# 3 51.3281 6.2121 73.7585 0.0000 0.0000 0.0000
# 4 0.0000 0.0000 0.0000 23.8023 0.0000 0.0000
# 5 0.0000 0.0000 0.0000 0.0000 10.1335 0.0000
# 6 0.0000 0.0000 0.0000 0.0000 0.0000 33.5190
#
#
#
# Elastic Compliance Matrix: (Units=1/GPa)
#
#
# Indices 1 2 3 4 5 6 
#
# 1 0.017208 -0.003311 -0.011696 0.000000 0.000000 0.000000
# 2 -0.003311 0.019150 0.000692 0.000000 0.000000 0.000000
# 3 -0.011696 0.000692 0.021639 0.000000 0.000000 0.000000
# 4 0.000000 0.000000 0.000000 0.042013 0.000000 0.000000
# 5 0.000000 0.000000 0.000000 0.000000 0.098683 0.000000
# 6 0.000000 0.000000 0.000000 0.000000 0.000000 0.029834
#
#
# Mechanical properties :
#
#
# Convention : Reuss Voigt Hill
#
# Bulk Modulus (GPa) = 34.05448 40.96094 37.50771
# Shear Modulus (GPa) = 18.73047 23.61593 21.17320
#
# Velocity S-wave (km/s) = 2.83819 3.18691 3.01759
# Velocity P-wave (km/s) = 5.03847 5.58192 5.31714
#
# Compressibility (1/GPa) = 0.02936471
#
# Stress axis : x y z
#
# Youngs Moduli (GPa) = 58.11416 52.21994 46.21391
#
# Poissons Ratio (x) = 0.17292 0.54051
# Poissons Ratio (y) = 0.19244 -0.03196
# Poissons Ratio (z) = 0.67969 -0.03611
#
# Static dielectric constant tensor:
#      x y z
#    x 1.887180 0.000000 0.000000 
#    y 0.000000 1.939640 0.000000 
#    z 0.000000 0.000000 1.898500 
# 
# From -- ./inp_files/12256.got.cif
#   From: 2010.05.17/outbox.cif.g08.bks.cpg/sg41_7_cif.got.tgz:12256.got - 2010.06.03 18:54:24.
