data_PCOD9367391
_publ_section_title
;
Structure prediction by ZEFSAII (Michael W. Deem and Ramdas Pophale) SiO2 
 PCOD9367391
Probable space group: A B A 2
;
_chemical_formula_sum "Si O2"
_cell_formula_units_Z 64
_cell_length_a 8.570564
_cell_length_b 13.337788
_cell_length_c 24.895428
_cell_angle_alpha 90.000000
_cell_angle_beta 90.000000
_cell_angle_gamma 90.000000
_cell_volume 2845.855269
_symmetry_space_group_name_H-M "A B A 2"
_symmetry_group_IT_number 41
_symmetry_cell_setting 'orthorhombic'
loop_
_space_group_symop_operation_xyz
x,y,z
-x,-y,z
1/2-x,y,1/2+z
1/2+x,-y,1/2+z
x,1/2+y,1/2+z
-x,1/2-y,1/2+z
1/2-x,1/2+y,z
1/2+x,1/2-y,z
loop_
_atom_site_type_symbol
_atom_site_label
_atom_site_fract_x
_atom_site_fract_y
_atom_site_fract_z
Si Si1 0.305124 0.176021 0.701200
Si Si2 0.170243 0.884540 0.023051
Si Si3 0.691214 0.355485 0.858395
Si Si4 0.990641 0.377645 0.040007
Si Si5 0.683009 0.496254 0.272419
Si Si6 0.571861 0.712020 0.127397
Si Si7 0.164452 0.614005 0.484291
Si Si8 0.869491 0.690689 0.300705
O O1 0.241096 0.074089 0.726764
O O2 0.177966 0.248361 0.675522
O O3 0.424837 0.157096 0.653206
O O4 0.388357 0.231700 0.751430
O O5 0.347256 0.852311 0.008796
O O6 0.158534 0.861806 0.086482
O O7 0.004087 0.842624 0.001894
O O8 0.163361 0.999328 0.004723
O O9 0.791766 0.440978 0.829271
O O10 0.528326 0.349200 0.826290
O O11 0.777686 0.250922 0.846892
O O12 0.671549 0.377891 0.920438
O O13 0.000000 0.500000 0.048947
O O14 0.981043 0.310758 0.093920
O O15 0.828490 0.350323 0.009821
O O16 0.500000 0.500000 0.260161
O O17 0.764751 0.601892 0.277866
#
# Coordination Sequence:
#
# PCOD9367391 Si02
#       8
#     8   8   8   8   8   8   8   8
#     4  11  24  42  70 105 142 191 245 296 375 436
#     4  10  23  44  68 101 148 187 246 311 355 441
#     4  11  25  47  74 106 145 190 244 304 377 441
#     4  10  23  45  67 101 149 189 249 306 359 444
#     4  11  24  45  71 107 149 187 241 306 362 452
#     4  12  22  43  68 100 145 193 243 302 373 438
#     4  10  24  46  70 105 141 192 247 302 374 439
#     4  11  24  47  71 107 149 183 247 309 363 457
#
# _framework density 22.488845999999999
#
# number of rings (size 3 to 8) (size 9 to 14) (size 15 to 20)
#    0.000    1.250    1.250    4.875    3.500    3.500 
#   13.500    0.000    0.000    0.000    0.000    0.000 
#    0.000    0.000    0.000    0.000    0.000    0.000 
#
# Total GULP energy -178798.591321 kJ/mol
# GULP energy per Si atom -5587.455979 kJ/mol
# Density = 2.243766 g / cm^3
# Si number density = 22.488846 Si / 1000 Ang^3
#
#
#
# Elastic Constant Matrix: (Units=GPa)
#
#
# Indices 1 2 3 4 5 6 
#
# 1 119.7980 22.5128 57.9625 0.0000 0.0000 0.0000
# 2 22.5128 103.6568 41.3648 0.0000 0.0000 0.0000
# 3 57.9625 41.3648 62.6614 0.0000 0.0000 0.0000
# 4 0.0000 0.0000 0.0000 50.6798 0.0000 0.0000
# 5 0.0000 0.0000 0.0000 0.0000 30.5508 0.0000
# 6 0.0000 0.0000 0.0000 0.0000 0.0000 38.3176
#
#
#
# Elastic Compliance Matrix: (Units=1/GPa)
#
#
# Indices 1 2 3 4 5 6 
#
# 1 0.015890 0.003278 -0.016862 0.000000 0.000000 0.000000
# 2 0.003278 0.013774 -0.012125 0.000000 0.000000 0.000000
# 3 -0.016862 -0.012125 0.039560 0.000000 0.000000 0.000000
# 4 0.000000 0.000000 0.000000 0.019732 0.000000 0.000000
# 5 0.000000 0.000000 0.000000 0.000000 0.032732 0.000000
# 6 0.000000 0.000000 0.000000 0.000000 0.000000 0.026098
#
#
# Mechanical properties :
#
#
# Convention : Reuss Voigt Hill
#
# Bulk Modulus (GPa) = 56.16014 58.86627 57.51320
# Shear Modulus (GPa) = 24.37374 34.86138 29.61756
#
# Velocity S-wave (km/s) = 3.29571 3.94148 3.63297
# Velocity P-wave (km/s) = 6.28561 6.85174 6.57477
#
# Compressibility (1/GPa) = 0.01780622
#
# Stress axis : x y z
#
# Youngs Moduli (GPa) = 62.93286 72.60232 25.27784
#
# Poissons Ratio (x) = -0.23798 0.42624
# Poissons Ratio (y) = -0.20629 0.30648
# Poissons Ratio (z) = 1.06119 0.88027
#
# Static dielectric constant tensor:
#      x y z
#    x 1.907130 0.000000 0.000000 
#    y 0.000000 1.889550 0.000000 
#    z 0.000000 0.000000 1.779810 
# 
# From -- ./inp_files/12023.got.cif
#   From: 2010.05.17/outbox.cif.g08.bks.cpg/sg41_7_cif.got.tgz:12023.got - 2010.06.03 18:54:24.
