data_PCOD9367745
_publ_section_title
;
Structure prediction by ZEFSAII (Michael W. Deem and Ramdas Pophale) SiO2 
 PCOD9367745
Probable space group: A B A 2
;
_chemical_formula_sum "Si O2"
_cell_formula_units_Z 64
_cell_length_a 9.611710
_cell_length_b 22.820351
_cell_length_c 14.428320
_cell_angle_alpha 90.000000
_cell_angle_beta 90.000000
_cell_angle_gamma 90.000000
_cell_volume 3164.745163
_symmetry_space_group_name_H-M "A B A 2"
_symmetry_group_IT_number 41
_symmetry_cell_setting 'orthorhombic'
loop_
_space_group_symop_operation_xyz
x,y,z
-x,-y,z
1/2-x,y,1/2+z
1/2+x,-y,1/2+z
x,1/2+y,1/2+z
-x,1/2-y,1/2+z
1/2-x,1/2+y,z
1/2+x,1/2-y,z
loop_
_atom_site_type_symbol
_atom_site_label
_atom_site_fract_x
_atom_site_fract_y
_atom_site_fract_z
Si Si1 0.282071 0.761571 0.672680
Si Si2 0.105819 0.191249 0.492635
Si Si3 0.693340 0.414543 0.950192
Si Si4 0.692173 0.639851 0.543741
Si Si5 0.667043 0.007018 0.299390
Si Si6 0.894806 0.125951 0.887748
Si Si7 0.963646 0.244323 0.800783
Si Si8 0.168598 0.494410 0.086473
O O1 0.336097 0.725937 0.582638
O O2 0.246725 0.825612 0.633122
O O3 0.144968 0.736199 0.721546
O O4 0.390437 0.761384 0.756540
O O5 0.221252 0.145099 0.459012
O O6 0.063710 0.228599 0.401930
O O7 0.966299 0.158321 0.525921
O O8 0.727230 0.454388 0.860377
O O9 0.529530 0.399114 0.942862
O O10 0.745426 0.456332 0.032635
O O11 0.788743 0.656996 0.457382
O O12 0.704717 0.570431 0.552576
O O13 0.686026 0.071813 0.340662
O O14 0.708307 0.002083 0.193755
O O15 0.500000 0.000000 0.301813
O O16 0.950144 0.174053 0.815220
O O17 0.000000 0.500000 0.076525
#
# Coordination Sequence:
#
# PCOD9367745 Si02
#       8
#     8   8   8   8   8   8   8   8
#     4  12  27  45  70 107 137 183 240 287 359 431
#     4  12  27  45  70 103 143 184 231 296 356 426
#     4  11  24  42  70 103 136 181 236 290 347 419
#     4  12  24  45  72  98 140 186 232 291 356 422
#     4   9  21  40  66  98 132 177 231 275 337 414
#     4  11  23  43  74  98 137 184 232 289 355 417
#     4  12  26  46  71 102 142 183 232 293 362 425
#     4  11  22  43  71 100 137 187 230 285 350 415
#
# _framework density 20.222798000000001
#
# number of rings (size 3 to 8) (size 9 to 14) (size 15 to 20)
#    0.000    0.750    5.000    2.250    3.500    2.000 
#    0.000    0.000    2.750    0.000    0.000    0.000 
#    0.000    0.000    0.000    0.000    0.000    0.000 
#
# Total GULP energy -178763.986667 kJ/mol
# GULP energy per Si atom -5586.374583 kJ/mol
# Density = 2.017677 g / cm^3
# Si number density = 20.222798 Si / 1000 Ang^3
#
#
#
# Elastic Constant Matrix: (Units=GPa)
#
#
# Indices 1 2 3 4 5 6 
#
# 1 56.5184 4.8322 6.2324 0.0000 0.0000 0.0000
# 2 4.8322 58.7732 22.6569 0.0000 0.0000 0.0000
# 3 6.2324 22.6569 96.9590 0.0000 0.0000 0.0000
# 4 0.0000 0.0000 0.0000 27.0246 0.0000 0.0000
# 5 0.0000 0.0000 0.0000 0.0000 34.1767 0.0000
# 6 0.0000 0.0000 0.0000 0.0000 0.0000 25.6246
#
#
#
# Elastic Compliance Matrix: (Units=1/GPa)
#
#
# Indices 1 2 3 4 5 6 
#
# 1 0.017888 -0.001129 -0.000886 0.000000 0.000000 0.000000
# 2 -0.001129 0.018770 -0.004314 0.000000 0.000000 0.000000
# 3 -0.000886 -0.004314 0.011379 0.000000 0.000000 0.000000
# 4 0.000000 0.000000 0.000000 0.037003 0.000000 0.000000
# 5 0.000000 0.000000 0.000000 0.000000 0.029260 0.000000
# 6 0.000000 0.000000 0.000000 0.000000 0.000000 0.039025
#
#
# Mechanical properties :
#
#
# Convention : Reuss Voigt Hill
#
# Bulk Modulus (GPa) = 28.26527 31.07706 29.67116
# Shear Modulus (GPa) = 28.12548 29.26712 28.69630
#
# Velocity S-wave (km/s) = 3.73336 3.80838 3.77106
# Velocity P-wave (km/s) = 5.70888 5.89398 5.80217
#
# Compressibility (1/GPa) = 0.03537911
#
# Stress axis : x y z
#
# Youngs Moduli (GPa) = 55.90466 53.27575 87.88463
#
# Poissons Ratio (x) = 0.06016 0.07786
# Poissons Ratio (y) = 0.06313 0.37910
# Poissons Ratio (z) = 0.04953 0.22981
#
# Static dielectric constant tensor:
#      x y z
#    x 1.708520 0.000000 0.000000 
#    y 0.000000 1.732810 0.000000 
#    z 0.000000 0.000000 1.711920 
# 
# From -- ./inp_files/7569.got.cif
#   From: 2010.05.17/outbox.cif.g08.bks.cpg/sg41_4_cif.got.tgz:7569.got - 2010.06.03 18:54:24.
