data_PCOD9367757
_publ_section_title
;
Structure prediction by ZEFSAII (Michael W. Deem and Ramdas Pophale) SiO2 
 PCOD9367757
Probable space group: A B A 2
;
_chemical_formula_sum "Si O2"
_cell_formula_units_Z 48
_cell_length_a 9.395008
_cell_length_b 26.946125
_cell_length_c 8.135602
_cell_angle_alpha 90.000000
_cell_angle_beta 90.000000
_cell_angle_gamma 90.000000
_cell_volume 2059.601354
_symmetry_space_group_name_H-M "A B A 2"
_symmetry_group_IT_number 41
_symmetry_cell_setting 'orthorhombic'
loop_
_space_group_symop_operation_xyz
x,y,z
-x,-y,z
1/2-x,y,1/2+z
1/2+x,-y,1/2+z
x,1/2+y,1/2+z
-x,1/2-y,1/2+z
1/2-x,1/2+y,z
1/2+x,1/2-y,z
loop_
_atom_site_type_symbol
_atom_site_label
_atom_site_fract_x
_atom_site_fract_y
_atom_site_fract_z
Si Si1 0.923413 0.298385 0.599490
Si Si2 0.466740 0.902389 0.047837
Si Si3 0.403618 0.202074 0.991409
Si Si4 0.707746 0.948025 0.850405
Si Si5 0.210703 0.438094 0.747100
Si Si6 0.538935 0.907784 0.541023
O O1 0.762023 0.294310 0.536046
O O2 0.919946 0.302532 0.795890
O O3 0.986542 0.349335 0.526689
O O4 0.013737 0.250664 0.550119
O O5 0.364884 0.919634 0.193798
O O6 0.530082 0.847733 0.069159
O O7 0.597223 0.938627 0.000380
O O8 0.364845 0.904650 0.885664
O O9 0.639194 0.917177 0.701500
O O10 0.709914 0.005517 0.806588
O O11 0.862793 0.928612 0.897258
O O12 0.106058 0.435420 0.588102
#
# Coordination Sequence:
#
# PCOD9367757 Si02
#       6
#     8   8   8   8   8   8
#     4  12  25  49  75 113 146 202 244 315 376 451
#     4  11  24  47  68 107 147 190 242 310 363 446
#     4  12  27  48  78 109 152 194 254 309 381 448
#     4  11  23  45  73 100 145 190 244 295 369 437
#     4  11  25  44  72 105 146 187 246 305 363 444
#     4  11  22  45  72 103 146 188 241 302 363 447
#
# _framework density 23.305481
#
# number of rings (size 3 to 8) (size 9 to 14) (size 15 to 20)
#    0.000    0.667    5.000    4.000    2.333    2.667 
#    3.000    3.333    0.000    0.000    0.000    0.000 
#    0.000    0.000    0.000    0.000    0.000    0.000 
#
# Total GULP energy -134607.486348 kJ/mol
# GULP energy per Si atom -5608.645265 kJ/mol
# Density = 2.325244 g / cm^3
# Si number density = 23.305481 Si / 1000 Ang^3
#
#
#
# Elastic Constant Matrix: (Units=GPa)
#
#
# Indices 1 2 3 4 5 6 
#
# 1 118.8283 53.8019 25.4324 0.0000 0.0000 0.0000
# 2 53.8019 189.3408 17.7522 0.0000 0.0000 0.0000
# 3 25.4324 17.7522 49.6253 0.0000 0.0000 0.0000
# 4 0.0000 0.0000 0.0000 33.8336 0.0000 0.0000
# 5 0.0000 0.0000 0.0000 0.0000 51.7765 0.0000
# 6 0.0000 0.0000 0.0000 0.0000 0.0000 13.6639
#
#
#
# Elastic Compliance Matrix: (Units=1/GPa)
#
#
# Indices 1 2 3 4 5 6 
#
# 1 0.010540 -0.002575 -0.004481 0.000000 0.000000 0.000000
# 2 -0.002575 0.006094 -0.000860 0.000000 0.000000 0.000000
# 3 -0.004481 -0.000860 0.022755 0.000000 0.000000 0.000000
# 4 0.000000 0.000000 0.000000 0.029556 0.000000 0.000000
# 5 0.000000 0.000000 0.000000 0.000000 0.019314 0.000000
# 6 0.000000 0.000000 0.000000 0.000000 0.000000 0.073185
#
#
# Mechanical properties :
#
#
# Convention : Reuss Voigt Hill
#
# Bulk Modulus (GPa) = 42.44954 61.30748 51.87851
# Shear Modulus (GPa) = 27.00816 37.24200 32.12508
#
# Velocity S-wave (km/s) = 3.40792 4.00183 3.71676
# Velocity P-wave (km/s) = 5.80854 6.90767 6.38182
#
# Compressibility (1/GPa) = 0.02355738
#
# Stress axis : x y z
#
# Youngs Moduli (GPa) = 94.87339 164.10042 43.94627
#
# Poissons Ratio (x) = 0.42256 0.19691
# Poissons Ratio (y) = 0.24430 0.03781
# Poissons Ratio (z) = 0.42510 0.14117
#
# Static dielectric constant tensor:
#      x y z
#    x 1.849810 0.000000 0.000000 
#    y 0.000000 1.808360 0.000000 
#    z 0.000000 0.000000 1.976200 
# 
# From -- ./inp_files/1797.got.cif
#   From: 2010.05.17/outbox.cif.g08.bks.cpg/sg41_1_cif.got.tgz:1797.got - 2010.06.03 18:54:24.
