data_PCOD9367750
_publ_section_title
;
Structure prediction by ZEFSAII (Michael W. Deem and Ramdas Pophale) SiO2 
 PCOD9367750
Probable space group: A B A 2
;
_chemical_formula_sum "Si O2"
_cell_formula_units_Z 48
_cell_length_a 8.051861
_cell_length_b 11.500135
_cell_length_c 20.916438
_cell_angle_alpha 90.000000
_cell_angle_beta 90.000000
_cell_angle_gamma 90.000000
_cell_volume 1936.809627
_symmetry_space_group_name_H-M "A B A 2"
_symmetry_group_IT_number 41
_symmetry_cell_setting 'orthorhombic'
loop_
_space_group_symop_operation_xyz
x,y,z
-x,-y,z
1/2-x,y,1/2+z
1/2+x,-y,1/2+z
x,1/2+y,1/2+z
-x,1/2-y,1/2+z
1/2-x,1/2+y,z
1/2+x,1/2-y,z
loop_
_atom_site_type_symbol
_atom_site_label
_atom_site_fract_x
_atom_site_fract_y
_atom_site_fract_z
Si Si1 0.848059 0.806638 0.477030
Si Si2 0.281555 0.180594 0.684797
Si Si3 0.779734 0.653394 0.301583
Si Si4 0.500000 0.000000 0.156229
Si Si5 0.641088 0.165281 0.066879
Si Si6 0.583586 0.331158 0.885457
Si Si7 0.000000 0.000000 0.258567
O O1 0.765999 0.691993 0.509533
O O2 0.976491 0.763212 0.424408
O O3 0.703901 0.881741 0.441801
O O4 0.962875 0.853991 0.533379
O O5 0.283476 0.294957 0.730058
O O6 0.834538 0.276210 0.614128
O O7 0.422126 0.099260 0.714706
O O8 0.107667 0.106286 0.687967
O O9 0.946094 0.615448 0.338089
O O10 0.706330 0.762404 0.339545
O O11 0.647885 0.550302 0.301194
O O12 0.352639 0.942255 0.114301
#
# Coordination Sequence:
#
# PCOD9367750 Si02
#       7
#     8   8   8   4   8   8   4
#     4   9  20  41  71  92 132 184 226 288 354 405
#     4  12  26  42  68 103 144 182 228 294 359 423
#     4  11  22  44  68 100 143 181 232 290 353 419
#     4  12  26  40  69 102 137 184 234 282 364 436
#     4  11  22  44  68 100 140 178 229 294 355 422
#     4   9  20  41  71  91 133 188 225 288 351 405
#     4  12  26  40  69 104 137 180 232 284 358 432
#
# _framework density 24.783024999999999
#
# number of rings (size 3 to 8) (size 9 to 14) (size 15 to 20)
#    0.000    1.333    3.333    2.000    4.667    0.000 
#    0.000    7.500    3.667    0.000    0.000    0.000 
#    0.000    0.000    0.000    0.000    0.000    0.000 
#
# Total GULP energy -133817.671669 kJ/mol
# GULP energy per Si atom -5575.736320 kJ/mol
# Density = 2.472662 g / cm^3
# Si number density = 24.783025 Si / 1000 Ang^3
#
#
#
# Elastic Constant Matrix: (Units=GPa)
#
#
# Indices 1 2 3 4 5 6 
#
# 1 123.4734 28.9233 51.9462 0.0000 0.0000 0.0000
# 2 28.9233 62.4857 16.5534 0.0000 0.0000 0.0000
# 3 51.9462 16.5534 113.7211 0.0000 0.0000 0.0000
# 4 0.0000 0.0000 0.0000 -17.6459 0.0000 0.0000
# 5 0.0000 0.0000 0.0000 0.0000 43.7441 0.0000
# 6 0.0000 0.0000 0.0000 0.0000 0.0000 45.9716
#
#
#
# Elastic Compliance Matrix: (Units=1/GPa)
#
#
# Indices 1 2 3 4 5 6 
#
# 1 0.010852 -0.003859 -0.004395 0.000000 0.000000 0.000000
# 2 -0.003859 0.018018 -0.000860 0.000000 0.000000 0.000000
# 3 -0.004395 -0.000860 0.010926 0.000000 0.000000 0.000000
# 4 0.000000 0.000000 0.000000 -0.056670 0.000000 0.000000
# 5 0.000000 0.000000 0.000000 0.000000 0.022860 0.000000
# 6 0.000000 0.000000 0.000000 0.000000 0.000000 0.021753
#
#
# Mechanical properties :
#
#
# Convention : Reuss Voigt Hill
#
# Bulk Modulus (GPa) = 46.36570 54.94735 50.65653
# Shear Modulus (GPa) = 94.06292 27.89777 60.98034
#
# Velocity S-wave (km/s) = 6.16741 3.35876 4.96579
# Velocity P-wave (km/s) = 8.33458 6.10419 7.30501
#
# Compressibility (1/GPa) = 0.02156767
#
# Stress axis : x y z
#
# Youngs Moduli (GPa) = 92.14914 55.50122 91.52172
#
# Poissons Ratio (x) = 0.21417 0.40227
# Poissons Ratio (y) = 0.35558 0.07871
# Poissons Ratio (z) = 0.40503 0.04773
#
# Static dielectric constant tensor:
#      x y z
#    x 2.011820 0.000000 0.000000 
#    y 0.000000 1.949040 0.000000 
#    z 0.000000 0.000000 2.032070 
# 
# From -- ./inp_files/11146.got.cif
#   From: 2010.05.17/outbox.cif.g08.bks.cpg/sg41_6_cif.got.tgz:11146.got - 2010.06.03 18:54:24.
