data_PCOD9367156
_publ_section_title
;
Structure prediction by ZEFSAII (Michael W. Deem and Ramdas Pophale) SiO2 
 PCOD9367156
Probable space group: A B A 2
;
_chemical_formula_sum "Si O2"
_cell_formula_units_Z 48
_cell_length_a 13.546251
_cell_length_b 13.979074
_cell_length_c 10.449541
_cell_angle_alpha 90.000000
_cell_angle_beta 90.000000
_cell_angle_gamma 90.000000
_cell_volume 1978.767354
_symmetry_space_group_name_H-M "A B A 2"
_symmetry_group_IT_number 41
_symmetry_cell_setting 'orthorhombic'
loop_
_space_group_symop_operation_xyz
x,y,z
-x,-y,z
1/2-x,y,1/2+z
1/2+x,-y,1/2+z
x,1/2+y,1/2+z
-x,1/2-y,1/2+z
1/2-x,1/2+y,z
1/2+x,1/2-y,z
loop_
_atom_site_type_symbol
_atom_site_label
_atom_site_fract_x
_atom_site_fract_y
_atom_site_fract_z
Si Si1 0.349374 0.259172 0.332220
Si Si2 0.500000 0.500000 0.163212
Si Si3 0.779646 0.743968 0.099076
Si Si4 0.554544 0.682410 0.765197
Si Si5 0.332134 0.921391 0.482049
Si Si6 0.651633 0.509763 0.375040
Si Si7 0.500000 0.500000 0.599146
O O1 0.299193 0.221089 0.202205
O O2 0.293038 0.218705 0.456282
O O3 0.462700 0.230991 0.331170
O O4 0.351679 0.375512 0.342726
O O5 0.585935 0.462060 0.261914
O O6 0.428709 0.444511 0.064347
O O7 0.886102 0.745938 0.164293
O O8 0.743495 0.634177 0.075318
O O9 0.631902 0.649806 0.871699
O O10 0.517242 0.590465 0.688446
O O11 0.267731 0.002250 0.408893
O O12 0.592067 0.487303 0.503886
#
# Coordination Sequence:
#
# PCOD9367156 Si02
#       7
#     8   4   8   8   8   8   4
#     4  11  24  43  74  98 134 192 235 283 353 433
#     4  11  21  38  72  98 129 185 242 278 346 446
#     4  11  22  44  71  97 140 190 229 294 359 421
#     4  12  24  41  73 102 140 180 237 289 358 418
#     4  11  21  41  67  97 136 191 228 283 365 423
#     4  10  22  42  70  99 136 189 231 287 359 430
#     4  11  23  44  66 108 141 183 230 294 366 414
#
# _framework density 24.257525999999999
#
# number of rings (size 3 to 8) (size 9 to 14) (size 15 to 20)
#    0.000    1.000    8.333    0.500    2.333    0.000 
#    0.000    5.000    0.000    0.000    0.000    0.000 
#    0.000    0.000    0.000    0.000    0.000    0.000 
#
# Total GULP energy -133970.306280 kJ/mol
# GULP energy per Si atom -5582.096095 kJ/mol
# Density = 2.420231 g / cm^3
# Si number density = 24.257526 Si / 1000 Ang^3
#
#
#
# Elastic Constant Matrix: (Units=GPa)
#
#
# Indices 1 2 3 4 5 6 
#
# 1 139.4236 22.0553 52.0224 0.0000 0.0000 0.0000
# 2 22.0553 52.6143 17.7977 0.0000 0.0000 0.0000
# 3 52.0224 17.7977 142.2671 0.0000 0.0000 0.0000
# 4 0.0000 0.0000 0.0000 -58.5978 0.0000 0.0000
# 5 0.0000 0.0000 0.0000 0.0000 57.4816 0.0000
# 6 0.0000 0.0000 0.0000 0.0000 0.0000 36.1057
#
#
#
# Elastic Compliance Matrix: (Units=1/GPa)
#
#
# Indices 1 2 3 4 5 6 
#
# 1 0.008650 -0.002669 -0.002829 0.000000 0.000000 0.000000
# 2 -0.002669 0.020670 -0.001610 0.000000 0.000000 0.000000
# 3 -0.002829 -0.001610 0.008265 0.000000 0.000000 0.000000
# 4 0.000000 0.000000 0.000000 -0.017066 0.000000 0.000000
# 5 0.000000 0.000000 0.000000 0.000000 0.017397 0.000000
# 6 0.000000 0.000000 0.000000 0.000000 0.000000 0.027696
#
#
# Mechanical properties :
#
#
# Convention : Reuss Voigt Hill
#
# Bulk Modulus (GPa) = 42.79226 57.56175 50.17701
# Shear Modulus (GPa) = 57.06567 23.15988 40.11277
#
# Velocity S-wave (km/s) = 4.85551 3.09326 4.07089
# Velocity P-wave (km/s) = 7.00812 6.04472 6.54417
#
# Compressibility (1/GPa) = 0.02336871
#
# Stress axis : x y z
#
# Youngs Moduli (GPa) = 115.60356 48.38020 120.99254
#
# Poissons Ratio (x) = 0.12913 0.34231
# Poissons Ratio (y) = 0.30855 0.19477
# Poissons Ratio (z) = 0.32707 0.07788
#
# Static dielectric constant tensor:
#      x y z
#    x 1.947960 0.000000 0.000000 
#    y 0.000000 1.973150 0.000000 
#    z 0.000000 0.000000 1.943980 
# 
# From -- ./inp_files/4999.got.cif
#   From: 2010.05.17/outbox.cif.g08.bks.cpg/sg41_3_cif.got.tgz:4999.got - 2010.06.03 18:54:24.
