data_PCOD9367127
_publ_section_title
;
Structure prediction by ZEFSAII (Michael W. Deem and Ramdas Pophale) SiO2 
 PCOD9367127
Probable space group: A B A 2
;
_chemical_formula_sum "Si O2"
_cell_formula_units_Z 48
_cell_length_a 24.999015
_cell_length_b 9.404103
_cell_length_c 9.531458
_cell_angle_alpha 90.000000
_cell_angle_beta 90.000000
_cell_angle_gamma 90.000000
_cell_volume 2240.782029
_symmetry_space_group_name_H-M "A B A 2"
_symmetry_group_IT_number 41
_symmetry_cell_setting 'orthorhombic'
loop_
_space_group_symop_operation_xyz
x,y,z
-x,-y,z
1/2-x,y,1/2+z
1/2+x,-y,1/2+z
x,1/2+y,1/2+z
-x,1/2-y,1/2+z
1/2-x,1/2+y,z
1/2+x,1/2-y,z
loop_
_atom_site_type_symbol
_atom_site_label
_atom_site_fract_x
_atom_site_fract_y
_atom_site_fract_z
Si Si1 0.074588 0.094277 0.266470
Si Si2 0.675440 0.514406 0.366102
Si Si3 0.247497 0.250004 0.269895
Si Si4 0.675441 0.485586 0.673689
Si Si5 0.574590 0.094269 0.273333
Si Si6 0.000000 0.500000 0.519902
Si Si7 0.500000 0.000000 0.019901
O O1 0.124044 0.984475 0.264606
O O2 0.099482 0.250003 0.269902
O O3 0.038336 0.078510 0.406599
O O4 0.038012 0.082322 0.128837
O O5 0.712422 0.653553 0.362248
O O6 0.711538 0.374361 0.337774
O O7 0.651884 0.499996 0.519896
O O8 0.211538 0.374369 0.202016
O O9 0.287578 0.153561 0.177542
O O10 0.624046 0.484468 0.775190
O O11 0.538015 0.082311 0.410967
O O12 0.538338 0.078503 0.133203
#
# Coordination Sequence:
#
# PCOD9367127 Si02
#       7
#     8   8   8   8   8   4   4
#     4  11  22  42  66  93 127 167 213 263 322 381
#     4  11  22  42  67  95 128 170 212 261 321 383
#     4  10  24  42  62  98 130 164 212 268 316 378
#     4  11  22  42  67  95 128 170 212 261 321 383
#     4  11  22  42  66  93 127 167 213 263 322 381
#     4  10  26  42  60  98 128 164 212 270 314 378
#     4  10  22  42  64  90 124 168 216 262 318 382
#
# _framework density 21.421094
#
# number of rings (size 3 to 8) (size 9 to 14) (size 15 to 20)
#    0.000    1.333    3.333    2.000    0.000    2.667 
#   24.000    0.000    0.000    0.000    0.000    0.000 
#    0.000    0.000    0.000    0.000    0.000    0.000 
#
# Total GULP energy -133644.451239 kJ/mol
# GULP energy per Si atom -5568.518802 kJ/mol
# Density = 2.137234 g / cm^3
# Si number density = 21.421094 Si / 1000 Ang^3
#
#
#
# Elastic Constant Matrix: (Units=GPa)
#
#
# Indices 1 2 3 4 5 6 
#
# 1 113.9369 21.4479 33.9180 0.0000 0.0000 0.0000
# 2 21.4479 74.4958 10.7091 0.0000 0.0000 0.0000
# 3 33.9180 10.7091 112.8189 0.0000 0.0000 0.0000
# 4 0.0000 0.0000 0.0000 -1.5283 0.0000 0.0000
# 5 0.0000 0.0000 0.0000 0.0000 16.3059 0.0000
# 6 0.0000 0.0000 0.0000 0.0000 0.0000 20.7044
#
#
#
# Elastic Compliance Matrix: (Units=1/GPa)
#
#
# Indices 1 2 3 4 5 6 
#
# 1 0.010079 -0.002500 -0.002793 0.000000 0.000000 0.000000
# 2 -0.002500 0.014230 -0.000599 0.000000 0.000000 0.000000
# 3 -0.002793 -0.000599 0.009760 0.000000 0.000000 0.000000
# 4 0.000000 0.000000 0.000000 -0.654305 0.000000 0.000000
# 5 0.000000 0.000000 0.000000 0.000000 0.061328 0.000000
# 6 0.000000 0.000000 0.000000 0.000000 0.000000 0.048299
#
#
# Mechanical properties :
#
#
# Convention : Reuss Voigt Hill
#
# Bulk Modulus (GPa) = 44.87434 48.15572 46.51503
# Shear Modulus (GPa) = -10.17507 22.77483 6.29988
#
# Velocity S-wave (km/s) = -2.18182 3.26421 1.71679
# Velocity P-wave (km/s) = 3.82714 6.06103 5.06868
#
# Compressibility (1/GPa) = 0.02228445
#
# Stress axis : x y z
#
# Youngs Moduli (GPa) = 99.21776 70.27633 102.45640
#
# Poissons Ratio (x) = 0.17571 0.28614
# Poissons Ratio (y) = 0.24807 0.06137
# Poissons Ratio (z) = 0.27709 0.04210
#
# Static dielectric constant tensor:
#      x y z
#    x 1.764540 0.000000 0.000000 
#    y 0.000000 1.789810 0.000000 
#    z 0.000000 0.000000 2.274940 
# 
# From -- ./inp_files/3939.got.cif
#   From: 2010.05.17/outbox.cif.g08.bks.cpg/sg41_2_cif.got.tgz:3939.got - 2010.06.03 18:54:24.
