data_PCOD9367408
_publ_section_title
;
Structure prediction by ZEFSAII (Michael W. Deem and Ramdas Pophale) SiO2 
 PCOD9367408
Probable space group: A B A 2
;
_chemical_formula_sum "Si O2"
_cell_formula_units_Z 56
_cell_length_a 13.982518
_cell_length_b 20.298181
_cell_length_c 9.035989
_cell_angle_alpha 90.000000
_cell_angle_beta 90.000000
_cell_angle_gamma 90.000000
_cell_volume 2564.591517
_symmetry_space_group_name_H-M "A B A 2"
_symmetry_group_IT_number 41
_symmetry_cell_setting 'orthorhombic'
loop_
_space_group_symop_operation_xyz
x,y,z
-x,-y,z
1/2-x,y,1/2+z
1/2+x,-y,1/2+z
x,1/2+y,1/2+z
-x,1/2-y,1/2+z
1/2-x,1/2+y,z
1/2+x,1/2-y,z
loop_
_atom_site_type_symbol
_atom_site_label
_atom_site_fract_x
_atom_site_fract_y
_atom_site_fract_z
Si Si1 0.574997 0.325185 0.739080
Si Si2 0.195103 0.060932 0.836986
Si Si3 0.359169 0.784619 0.233987
Si Si4 0.137694 0.153976 0.420849
Si Si5 0.663808 0.701936 0.383088
Si Si6 0.638506 0.978749 0.626055
Si Si7 0.018743 0.903451 0.254384
O O1 0.607474 0.399046 0.770484
O O2 0.463735 0.313358 0.765061
O O3 0.610103 0.309742 0.571785
O O4 0.634081 0.275723 0.840927
O O5 0.264043 0.113756 0.922146
O O6 0.263210 0.035256 0.708980
O O7 0.160565 0.007876 0.955704
O O8 0.362777 0.707710 0.287877
O O9 0.270435 0.812903 0.326899
O O10 0.341886 0.799499 0.060640
O O11 0.053017 0.100888 0.393947
O O12 0.588284 0.657492 0.290294
O O13 0.564627 0.916189 0.630605
O O14 0.587885 0.036238 0.717930
#
# Coordination Sequence:
#
# PCOD9367408 Si02
#       7
#     8   8   8   8   8   8   8
#     4  12  23  41  68 105 140 181 228 290 354 418
#     4  11  23  41  72 101 129 175 240 285 341 424
#     4  12  25  40  63 109 142 187 223 280 362 421
#     4  11  22  43  68 100 138 181 226 283 350 420
#     4  12  26  40  67 101 147 183 229 289 351 427
#     4  10  24  44  73  95 130 189 236 292 342 415
#     4  10  23  45  69  93 136 184 232 289 352 403
#
# _framework density 21.835837000000001
#
# number of rings (size 3 to 8) (size 9 to 14) (size 15 to 20)
#    0.000    0.857    5.714    0.857    4.000    3.429 
#    0.000    1.429    0.000    0.000    0.000    0.000 
#    0.000    0.000    0.000    0.000    0.000    0.000 
#
# Total GULP energy -156123.607038 kJ/mol
# GULP energy per Si atom -5575.843108 kJ/mol
# Density = 2.178614 g / cm^3
# Si number density = 21.835837 Si / 1000 Ang^3
#
#
#
# Elastic Constant Matrix: (Units=GPa)
#
#
# Indices 1 2 3 4 5 6 
#
# 1 83.6272 -0.5126 15.0986 0.0000 0.0000 0.0000
# 2 -0.5126 42.0056 14.3605 0.0000 0.0000 0.0000
# 3 15.0986 14.3605 66.5791 0.0000 0.0000 0.0000
# 4 0.0000 0.0000 0.0000 7.8039 0.0000 0.0000
# 5 0.0000 0.0000 0.0000 0.0000 15.1762 0.0000
# 6 0.0000 0.0000 0.0000 0.0000 0.0000 26.0865
#
#
#
# Elastic Compliance Matrix: (Units=1/GPa)
#
#
# Indices 1 2 3 4 5 6 
#
# 1 0.012525 0.001213 -0.003102 0.000000 0.000000 0.000000
# 2 0.001213 0.025819 -0.005844 0.000000 0.000000 0.000000
# 3 -0.003102 -0.005844 0.016984 0.000000 0.000000 0.000000
# 4 0.000000 0.000000 0.000000 0.128142 0.000000 0.000000
# 5 0.000000 0.000000 0.000000 0.000000 0.065892 0.000000
# 6 0.000000 0.000000 0.000000 0.000000 0.000000 0.038334
#
#
# Mechanical properties :
#
#
# Convention : Reuss Voigt Hill
#
# Bulk Modulus (GPa) = 25.08629 27.78944 26.43787
# Shear Modulus (GPa) = 15.80031 20.69768 18.24900
#
# Velocity S-wave (km/s) = 2.69289 3.08210 2.89405
# Velocity P-wave (km/s) = 4.60244 5.04182 4.82713
#
# Compressibility (1/GPa) = 0.03986241
#
# Stress axis : x y z
#
# Youngs Moduli (GPa) = 79.83808 38.73100 58.87980
#
# Poissons Ratio (x) = -0.04700 0.18266
# Poissons Ratio (y) = -0.09688 0.34410
# Poissons Ratio (z) = 0.24767 0.22635
#
# Static dielectric constant tensor:
#      x y z
#    x 1.804430 0.000000 0.000000 
#    y 0.000000 1.843760 0.000000 
#    z 0.000000 0.000000 1.821590 
# 
# From -- ./inp_files/2701.got.cif
#   From: 2010.05.17/outbox.cif.g08.bks.cpg/sg41_2_cif.got.tgz:2701.got - 2010.06.03 18:54:24.
