data_PCOD9367148
_publ_section_title
;
Structure prediction by ZEFSAII (Michael W. Deem and Ramdas Pophale) SiO2 
 PCOD9367148
Probable space group: A B A 2
;
_chemical_formula_sum "Si O2"
_cell_formula_units_Z 64
_cell_length_a 12.099993
_cell_length_b 17.973540
_cell_length_c 13.231790
_cell_angle_alpha 90.000000
_cell_angle_beta 90.000000
_cell_angle_gamma 90.000000
_cell_volume 2877.645828
_symmetry_space_group_name_H-M "A B A 2"
_symmetry_group_IT_number 41
_symmetry_cell_setting 'orthorhombic'
loop_
_space_group_symop_operation_xyz
x,y,z
-x,-y,z
1/2-x,y,1/2+z
1/2+x,-y,1/2+z
x,1/2+y,1/2+z
-x,1/2-y,1/2+z
1/2-x,1/2+y,z
1/2+x,1/2-y,z
loop_
_atom_site_type_symbol
_atom_site_label
_atom_site_fract_x
_atom_site_fract_y
_atom_site_fract_z
Si Si1 0.670684 0.908202 0.329780
Si Si2 0.752393 0.566029 0.779920
Si Si3 0.858864 0.789779 0.317830
Si Si4 0.119323 0.279847 0.096478
Si Si5 0.995302 0.581450 0.750757
Si Si6 0.978334 0.581893 0.162580
Si Si7 0.318035 0.339564 0.967300
Si Si8 0.948489 0.383205 0.532952
O O1 0.743408 0.834146 0.322346
O O2 0.569644 0.906932 0.250197
O O3 0.621593 0.917600 0.442120
O O4 0.747313 0.978171 0.302606
O O5 0.865579 0.592510 0.729853
O O6 0.642457 0.579503 0.714476
O O7 0.743226 0.610546 0.884268
O O8 0.867249 0.744527 0.213215
O O9 0.864700 0.732231 0.408400
O O10 0.954647 0.851703 0.315248
O O11 0.028498 0.345786 0.092156
O O12 0.231982 0.311076 0.049793
O O13 0.085205 0.203522 0.042114
O O14 0.061835 0.581704 0.644298
O O15 0.000000 0.500000 0.799265
O O16 0.000000 0.500000 0.116514
O O17 0.422868 0.385286 0.005403
#
# Coordination Sequence:
#
# PCOD9367148 Si02
#       8
#     8   8   8   8   8   8   8   8
#     4  11  22  44  68 100 134 182 223 283 345 407
#     4  11  23  43  69  94 135 177 227 276 343 412
#     4  11  24  44  69  97 142 178 224 286 345 409
#     4  11  24  43  64 105 131 181 225 278 345 409
#     4  11  25  44  68 100 134 178 229 283 345 404
#     4  10  22  42  68  95 132 176 222 275 344 403
#     4  12  25  42  67  99 136 178 230 278 340 412
#     4  11  25  40  67  98 135 176 228 281 329 417
#
# _framework density 22.240402
#
# number of rings (size 3 to 8) (size 9 to 14) (size 15 to 20)
#    0.000    1.000    5.000    0.750    5.250    1.000 
#    0.000    1.875    0.000    0.000    0.000    0.000 
#    0.000    0.000    0.000    0.000    0.000    0.000 
#
# Total GULP energy -178991.263794 kJ/mol
# GULP energy per Si atom -5593.476994 kJ/mol
# Density = 2.218978 g / cm^3
# Si number density = 22.240402 Si / 1000 Ang^3
#
#
#
# Elastic Constant Matrix: (Units=GPa)
#
#
# Indices 1 2 3 4 5 6 
#
# 1 87.7271 5.0066 18.2098 0.0000 0.0000 0.0000
# 2 5.0066 88.9970 29.6196 0.0000 0.0000 0.0000
# 3 18.2098 29.6196 54.9272 0.0000 0.0000 0.0000
# 4 0.0000 0.0000 0.0000 17.7015 0.0000 0.0000
# 5 0.0000 0.0000 0.0000 0.0000 31.8153 0.0000
# 6 0.0000 0.0000 0.0000 0.0000 0.0000 31.7396
#
#
#
# Elastic Compliance Matrix: (Units=1/GPa)
#
#
# Indices 1 2 3 4 5 6 
#
# 1 0.012289 0.000810 -0.004511 0.000000 0.000000 0.000000
# 2 0.000810 0.013747 -0.007682 0.000000 0.000000 0.000000
# 3 -0.004511 -0.007682 0.023844 0.000000 0.000000 0.000000
# 4 0.000000 0.000000 0.000000 0.056492 0.000000 0.000000
# 5 0.000000 0.000000 0.000000 0.000000 0.031431 0.000000
# 6 0.000000 0.000000 0.000000 0.000000 0.000000 0.031506
#
#
# Mechanical properties :
#
#
# Convention : Reuss Voigt Hill
#
# Bulk Modulus (GPa) = 36.88029 37.48037 37.18033
# Shear Modulus (GPa) = 24.86147 28.17230 26.51688
#
# Velocity S-wave (km/s) = 3.34706 3.56296 3.45669
# Velocity P-wave (km/s) = 5.61744 5.81508 5.71711
#
# Compressibility (1/GPa) = 0.02711475
#
# Stress axis : x y z
#
# Youngs Moduli (GPa) = 81.37284 72.74093 41.93947
#
# Poissons Ratio (x) = -0.05892 0.18919
# Poissons Ratio (y) = -0.06591 0.32217
# Poissons Ratio (z) = 0.36707 0.55879
#
# Static dielectric constant tensor:
#      x y z
#    x 1.801190 0.000000 0.000000 
#    y 0.000000 1.829420 0.000000 
#    z 0.000000 0.000000 1.793200 
# 
# From -- ./inp_files/8112.got.cif
#   From: 2010.05.17/outbox.cif.g08.bks.cpg/sg41_5_cif.got.tgz:8112.got - 2010.06.03 18:54:24.
