data_PCOD9367597
_publ_section_title
;
Structure prediction by ZEFSAII (Michael W. Deem and Ramdas Pophale) SiO2 
 PCOD9367597
Probable space group: A B A 2
;
_chemical_formula_sum "Si O2"
_cell_formula_units_Z 40
_cell_length_a 14.428406
_cell_length_b 8.624468
_cell_length_c 12.423241
_cell_angle_alpha 90.000000
_cell_angle_beta 90.000000
_cell_angle_gamma 90.000000
_cell_volume 1545.914888
_symmetry_space_group_name_H-M "A B A 2"
_symmetry_group_IT_number 41
_symmetry_cell_setting 'orthorhombic'
loop_
_space_group_symop_operation_xyz
x,y,z
-x,-y,z
1/2-x,y,1/2+z
1/2+x,-y,1/2+z
x,1/2+y,1/2+z
-x,1/2-y,1/2+z
1/2-x,1/2+y,z
1/2+x,1/2-y,z
loop_
_atom_site_type_symbol
_atom_site_label
_atom_site_fract_x
_atom_site_fract_y
_atom_site_fract_z
Si Si1 0.500000 0.500000 0.329911
Si Si2 0.500000 0.500000 0.627403
Si Si3 0.500000 0.734787 0.978657
Si Si4 0.701587 0.250000 0.228657
Si Si5 0.367763 0.562903 0.812754
Si Si6 0.132237 0.437097 0.644559
O O1 0.545661 0.363662 0.399196
O O2 0.425828 0.416228 0.254568
O O3 0.454339 0.363662 0.558117
O O4 0.425828 0.583772 0.702745
O O5 0.570825 0.632341 0.048494
O O6 0.429175 0.632342 0.908819
O O7 0.770147 0.351413 0.303871
O O8 0.649372 0.377834 0.155399
O O9 0.649372 0.122165 0.301915
O O10 0.770147 0.148587 0.153442
#
# Coordination Sequence:
#
# PCOD9367597 Si02
#       6
#     4   4   8   8   8   8
#     4  11  24  47  78 118 156 215 276 325 382 512
#     4  11  24  47  78 118 156 215 276 325 382 512
#     4  11  24  47  82 116 154 224 268 321 399 498
#     4  10  24  48  82 118 168 210 252 364 402 458
#     4  11  24  50  80 114 164 208 271 331 406 473
#     4  11  24  50  80 114 164 208 271 331 406 473
#
# _framework density 25.874645999999998
#
# number of rings (size 3 to 8) (size 9 to 14) (size 15 to 20)
#    0.000    1.200    4.000    0.000    5.600    0.800 
#    0.000   12.000    0.000    0.000    0.000    0.000 
#    0.000    0.000    0.000    0.000    0.000    0.000 
#
# Total GULP energy -111841.083492 kJ/mol
# GULP energy per Si atom -5592.054175 kJ/mol
# Density = 2.581575 g / cm^3
# Si number density = 25.874646 Si / 1000 Ang^3
#
#
#
# Elastic Constant Matrix: (Units=GPa)
#
#
# Indices 1 2 3 4 5 6 
#
# 1 91.1375 87.8728 57.7769 0.0000 0.0000 0.0000
# 2 87.8728 275.5612 113.8839 0.0000 0.0000 0.0000
# 3 57.7769 113.8839 154.8038 0.0000 0.0000 0.0000
# 4 0.0000 0.0000 0.0000 78.2495 0.0000 0.0000
# 5 0.0000 0.0000 0.0000 0.0000 30.0752 0.0000
# 6 0.0000 0.0000 0.0000 0.0000 0.0000 74.3799
#
#
#
# Elastic Compliance Matrix: (Units=1/GPa)
#
#
# Indices 1 2 3 4 5 6 
#
# 1 0.016995 -0.004020 -0.003385 0.000000 0.000000 0.000000
# 2 -0.004020 0.006165 -0.003035 0.000000 0.000000 0.000000
# 3 -0.003385 -0.003035 0.009956 0.000000 0.000000 0.000000
# 4 0.000000 0.000000 0.000000 0.012780 0.000000 0.000000
# 5 0.000000 0.000000 0.000000 0.000000 0.033250 0.000000
# 6 0.000000 0.000000 0.000000 0.000000 0.000000 0.013444
#
#
# Mechanical properties :
#
#
# Convention : Reuss Voigt Hill
#
# Bulk Modulus (GPa) = 81.73428 115.61884 98.67656
# Shear Modulus (GPa) = 42.53498 54.00554 48.27026
#
# Velocity S-wave (km/s) = 4.05889 4.57354 4.32388
# Velocity P-wave (km/s) = 7.32279 8.52473 7.94651
#
# Compressibility (1/GPa) = 0.01223477
#
# Stress axis : x y z
#
# Youngs Moduli (GPa) = 58.84120 162.19653 100.44074
#
# Poissons Ratio (x) = 0.65209 0.34002
# Poissons Ratio (y) = 0.23656 0.30485
# Poissons Ratio (z) = 0.19919 0.49229
#
# Static dielectric constant tensor:
#      x y z
#    x 2.010750 0.000000 0.000000 
#    y 0.000000 2.230590 0.000000 
#    z 0.000000 0.000000 2.164390 
# 
# From -- ./inp_files/5851.got.cif
#   From: 2010.05.17/outbox.cif.g08.bks.cpg/sg41_3_cif.got.tgz:5851.got - 2010.06.03 18:54:24.
