data_PCOD9367787
_publ_section_title
;
Structure prediction by ZEFSAII (Michael W. Deem and Ramdas Pophale) SiO2 
 PCOD9367787
Probable space group: A B A 2
;
_chemical_formula_sum "Si O2"
_cell_formula_units_Z 48
_cell_length_a 5.422766
_cell_length_b 26.523133
_cell_length_c 14.719713
_cell_angle_alpha 90.000000
_cell_angle_beta 90.000000
_cell_angle_gamma 90.000000
_cell_volume 2117.117831
_symmetry_space_group_name_H-M "A B A 2"
_symmetry_group_IT_number 41
_symmetry_cell_setting 'orthorhombic'
loop_
_space_group_symop_operation_xyz
x,y,z
-x,-y,z
1/2-x,y,1/2+z
1/2+x,-y,1/2+z
x,1/2+y,1/2+z
-x,1/2-y,1/2+z
1/2-x,1/2+y,z
1/2+x,1/2-y,z
loop_
_atom_site_type_symbol
_atom_site_label
_atom_site_fract_x
_atom_site_fract_y
_atom_site_fract_z
Si Si1 0.750458 0.166496 0.743110
Si Si2 0.265846 0.276873 0.913147
Si Si3 0.764564 0.630014 0.042567
Si Si4 0.396439 0.049164 0.450342
Si Si5 0.135209 0.546959 0.122561
Si Si6 0.733833 0.391782 0.283783
O O1 0.779815 0.216417 0.803616
O O2 0.716086 0.163159 0.634287
O O3 0.492688 0.145492 0.780547
O O4 0.994978 0.133416 0.769237
O O5 0.543041 0.260409 0.939441
O O6 0.197894 0.329003 0.963781
O O7 0.977126 0.592506 0.078906
O O8 0.565356 0.591390 0.999466
O O9 0.259776 0.023539 0.534576
O O10 0.234968 0.078878 0.377984
O O11 0.500000 0.000000 0.399447
O O12 0.306521 0.571311 0.198288
O O13 0.000000 0.500000 0.168071
#
# Coordination Sequence:
#
# PCOD9367787 Si02
#       6
#     8   8   8   8   8   8
#     4  11  24  46  72  99 137 186 231 290 359 414
#     4  12  28  47  74 104 137 178 239 304 358 423
#     4  11  25  45  71 102 142 188 232 291 357 423
#     4  12  23  41  67 104 142 192 235 280 347 422
#     4  11  23  42  66 106 148 189 232 284 344 426
#     4  11  24  41  71  99 142 189 233 282 340 419
#
# _framework density 22.672331
#
# number of rings (size 3 to 8) (size 9 to 14) (size 15 to 20)
#    0.000    0.667    5.000    2.500    2.333    1.333 
#    0.000    2.500    0.000    0.000    0.000    0.000 
#    0.000    0.000    0.000    0.000    0.000    0.000 
#
# Total GULP energy -133812.085426 kJ/mol
# GULP energy per Si atom -5575.503559 kJ/mol
# Density = 2.262073 g / cm^3
# Si number density = 22.672331 Si / 1000 Ang^3
#
#
#
# Elastic Constant Matrix: (Units=GPa)
#
#
# Indices 1 2 3 4 5 6 
#
# 1 31.1919 0.1421 6.3059 0.0000 0.0000 0.0000
# 2 0.1421 51.2218 7.2997 0.0000 0.0000 0.0000
# 3 6.3059 7.2997 118.2096 0.0000 0.0000 0.0000
# 4 0.0000 0.0000 0.0000 33.5984 0.0000 0.0000
# 5 0.0000 0.0000 0.0000 0.0000 18.5886 0.0000
# 6 0.0000 0.0000 0.0000 0.0000 0.0000 30.9432
#
#
#
# Elastic Compliance Matrix: (Units=1/GPa)
#
#
# Indices 1 2 3 4 5 6 
#
# 1 0.032410 0.000158 -0.001739 0.000000 0.000000 0.000000
# 2 0.000158 0.019697 -0.001225 0.000000 0.000000 0.000000
# 3 -0.001739 -0.001225 0.008628 0.000000 0.000000 0.000000
# 4 0.000000 0.000000 0.000000 0.029763 0.000000 0.000000
# 5 0.000000 0.000000 0.000000 0.000000 0.053797 0.000000
# 6 0.000000 0.000000 0.000000 0.000000 0.000000 0.032317
#
#
# Mechanical properties :
#
#
# Convention : Reuss Voigt Hill
#
# Bulk Modulus (GPa) = 18.14082 25.34650 21.74366
# Shear Modulus (GPa) = 24.92542 29.08441 27.00491
#
# Velocity S-wave (km/s) = 3.31928 3.58553 3.45497
# Velocity P-wave (km/s) = 4.76538 5.32401 5.05242
#
# Compressibility (1/GPa) = 0.05512429
#
# Stress axis : x y z
#
# Youngs Moduli (GPa) = 30.85426 50.76902 115.90271
#
# Poissons Ratio (x) = -0.00801 0.20152
# Poissons Ratio (y) = -0.00487 0.14195
# Poissons Ratio (z) = 0.05365 0.06218
#
# Static dielectric constant tensor:
#      x y z
#    x 2.875840 0.000000 0.000000 
#    y 0.000000 1.798100 0.000000 
#    z 0.000000 0.000000 1.827720 
# 
# From -- ./inp_files/6872.got.cif
#   From: 2010.05.17/outbox.cif.g08.bks.cpg/sg41_4_cif.got.tgz:6872.got - 2010.06.03 18:54:24.
