data_PCOD9367548
_publ_section_title
;
Structure prediction by ZEFSAII (Michael W. Deem and Ramdas Pophale) SiO2 
 PCOD9367548
Probable space group: A B A 2
;
_chemical_formula_sum "Si O2"
_cell_formula_units_Z 52
_cell_length_a 11.444681
_cell_length_b 25.438886
_cell_length_c 9.428814
_cell_angle_alpha 90.000000
_cell_angle_beta 90.000000
_cell_angle_gamma 90.000000
_cell_volume 2745.104298
_symmetry_space_group_name_H-M "A B A 2"
_symmetry_group_IT_number 41
_symmetry_cell_setting 'orthorhombic'
loop_
_space_group_symop_operation_xyz
x,y,z
-x,-y,z
1/2-x,y,1/2+z
1/2+x,-y,1/2+z
x,1/2+y,1/2+z
-x,1/2-y,1/2+z
1/2-x,1/2+y,z
1/2+x,1/2-y,z
loop_
_atom_site_type_symbol
_atom_site_label
_atom_site_fract_x
_atom_site_fract_y
_atom_site_fract_z
Si Si1 0.239182 0.153995 0.872410
Si Si2 0.865560 0.240595 0.982846
Si Si3 0.485923 0.698614 0.718749
Si Si4 0.130441 0.899165 0.240096
Si Si5 0.000000 0.000000 0.194791
Si Si6 0.388200 0.602276 0.136228
Si Si7 0.685934 0.148163 0.043464
O O1 0.320454 0.115157 0.781359
O O2 0.133232 0.172669 0.772639
O O3 0.309850 0.205070 0.925224
O O4 0.182007 0.126539 0.007828
O O5 0.763138 0.201287 0.031613
O O6 0.948295 0.254315 0.115011
O O7 0.939690 0.216497 0.854273
O O8 0.567228 0.660451 0.626358
O O9 0.084196 0.958221 0.272563
O O10 0.237932 0.893464 0.132950
O O11 0.160209 0.870621 0.385190
O O12 0.018290 0.874364 0.159178
O O13 0.915754 0.959476 0.112798
#
# Coordination Sequence:
#
# PCOD9367548 Si02
#       7
#     8   8   8   8   4   8   8
#     4  12  24  43  68  96 140 177 224 268 336 402
#     4  12  26  42  62 102 138 184 214 272 322 410
#     4  12  26  39  64  99 138 183 219 264 324 396
#     4  10  24  45  68  99 131 175 224 285 332 397
#     4   8  24  46  72  96 132 168 226 302 334 386
#     4  10  24  45  68  99 131 175 224 285 332 397
#     4  12  24  43  68  96 140 177 224 268 336 402
#
# _framework density 18.942813999999998
#
# number of rings (size 3 to 8) (size 9 to 14) (size 15 to 20)
#    0.923    0.000    3.077    3.692    6.462    1.231 
#    0.000    0.000    0.000    1.846    0.000    0.000 
#    0.000    0.000    0.000    0.000    0.000    0.000 
#
# Total GULP energy -145104.150373 kJ/mol
# GULP energy per Si atom -5580.928861 kJ/mol
# Density = 1.889970 g / cm^3
# Si number density = 18.942814 Si / 1000 Ang^3
#
#
#
# Elastic Constant Matrix: (Units=GPa)
#
#
# Indices 1 2 3 4 5 6 
#
# 1 30.2807 7.2930 -16.1560 0.0000 0.0000 0.0000
# 2 7.2930 66.7509 -1.2718 0.0000 0.0000 0.0000
# 3 -16.1560 -1.2718 45.4598 0.0000 0.0000 0.0000
# 4 0.0000 0.0000 0.0000 -7.1627 0.0000 0.0000
# 5 0.0000 0.0000 0.0000 0.0000 36.7002 0.0000
# 6 0.0000 0.0000 0.0000 0.0000 0.0000 35.9734
#
#
#
# Elastic Compliance Matrix: (Units=1/GPa)
#
#
# Indices 1 2 3 4 5 6 
#
# 1 0.041951 -0.004302 0.014789 0.000000 0.000000 0.000000
# 2 -0.004302 0.015430 -0.001097 0.000000 0.000000 0.000000
# 3 0.014789 -0.001097 0.027222 0.000000 0.000000 0.000000
# 4 0.000000 0.000000 0.000000 -0.139613 0.000000 0.000000
# 5 0.000000 0.000000 0.000000 0.000000 0.027248 0.000000
# 6 0.000000 0.000000 0.000000 0.000000 0.000000 0.027798
#
#
# Mechanical properties :
#
#
# Convention : Reuss Voigt Hill
#
# Bulk Modulus (GPa) = 9.67277 13.58019 11.62648
# Shear Modulus (GPa) = 318.10467 23.27726 170.69096
#
# Velocity S-wave (km/s) = 12.97280 3.50925 9.50285
# Velocity P-wave (km/s) = 15.14955 4.85844 11.24974
#
# Compressibility (1/GPa) = 0.10338297
#
# Stress axis : x y z
#
# Youngs Moduli (GPa) = 23.83752 64.80813 36.73434
#
# Poissons Ratio (x) = 0.27878 -0.54325
# Poissons Ratio (y) = 0.10254 0.04030
# Poissons Ratio (z) = -0.35252 0.07110
#
# Static dielectric constant tensor:
#      x y z
#    x 1.657600 0.000000 0.000000 
#    y 0.000000 1.667400 0.000000 
#    z 0.000000 0.000000 1.628420 
# 
# From -- ./inp_files/2145.got.cif
#   From: 2010.05.17/outbox.cif.g08.bks.cpg/sg41_2_cif.got.tgz:2145.got - 2010.06.03 18:54:24.
