data_PCOD9367916
_publ_section_title
;
Structure prediction by ZEFSAII (Michael W. Deem and Ramdas Pophale) SiO2 
 PCOD9367916
Probable space group: A B A 2
;
_chemical_formula_sum "Si O2"
_cell_formula_units_Z 60
_cell_length_a 11.199926
_cell_length_b 25.676968
_cell_length_c 9.473526
_cell_angle_alpha 90.000000
_cell_angle_beta 90.000000
_cell_angle_gamma 90.000000
_cell_volume 2724.397948
_symmetry_space_group_name_H-M "A B A 2"
_symmetry_group_IT_number 41
_symmetry_cell_setting 'orthorhombic'
loop_
_space_group_symop_operation_xyz
x,y,z
-x,-y,z
1/2-x,y,1/2+z
1/2+x,-y,1/2+z
x,1/2+y,1/2+z
-x,1/2-y,1/2+z
1/2-x,1/2+y,z
1/2+x,1/2-y,z
loop_
_atom_site_type_symbol
_atom_site_label
_atom_site_fract_x
_atom_site_fract_y
_atom_site_fract_z
Si Si1 0.013561 0.873272 0.627880
Si Si2 0.000000 0.500000 0.351215
Si Si3 0.072834 0.311134 0.848056
Si Si4 0.133161 0.191682 0.854120
Si Si5 0.690761 0.947859 0.143178
Si Si6 0.246311 0.392639 0.783436
Si Si7 0.654636 0.846307 0.676282
Si Si8 0.672010 0.547102 0.041334
O O1 0.046336 0.834390 0.502704
O O2 0.130405 0.898100 0.698419
O O3 0.951875 0.844296 0.759200
O O4 0.915587 0.914489 0.570451
O O5 0.888469 0.478253 0.261560
O O6 0.951294 0.542764 0.458650
O O7 0.079190 0.249334 0.856940
O O8 0.198669 0.334355 0.793679
O O9 0.973632 0.334587 0.743206
O O10 0.256423 0.190181 0.766972
O O11 0.152951 0.169163 0.011051
O O12 0.787846 0.904419 0.191104
O O13 0.760218 0.992124 0.057091
O O14 0.254764 0.415081 0.939131
O O15 0.156976 0.428262 0.693907
#
# Coordination Sequence:
#
# PCOD9367916 Si02
#       8
#     8   4   8   8   8   8   8   8
#     4  11  25  49  71 104 147 191 240 305 367 434
#     4  12  26  46  74 102 154 200 238 312 374 436
#     4  12  28  45  75 105 150 188 251 302 369 450
#     4  11  27  47  76 104 147 189 243 304 375 442
#     4  11  25  46  76 102 150 186 245 303 368 449
#     4  12  27  46  70 107 144 190 244 299 365 441
#     4  11  27  47  75 115 138 196 243 305 375 446
#     4  12  26  47  71 107 141 197 242 296 377 436
#
# _framework density 22.023212999999998
#
# number of rings (size 3 to 8) (size 9 to 14) (size 15 to 20)
#    0.000    0.533    4.000    2.400   13.067    0.000 
#    0.000    0.000    0.000    0.000    0.000    0.000 
#    0.000    0.000    0.000    0.000    0.000    0.000 
#
# Total GULP energy -167637.901203 kJ/mol
# GULP energy per Si atom -5587.930040 kJ/mol
# Density = 2.197309 g / cm^3
# Si number density = 22.023213 Si / 1000 Ang^3
#
#
#
# Elastic Constant Matrix: (Units=GPa)
#
#
# Indices 1 2 3 4 5 6 
#
# 1 70.4189 26.5998 24.6973 0.0000 0.0000 0.0000
# 2 26.5998 81.5687 0.9218 0.0000 0.0000 0.0000
# 3 24.6973 0.9218 83.0056 0.0000 0.0000 0.0000
# 4 0.0000 0.0000 0.0000 21.0847 0.0000 0.0000
# 5 0.0000 0.0000 0.0000 0.0000 30.8092 0.0000
# 6 0.0000 0.0000 0.0000 0.0000 0.0000 34.3276
#
#
#
# Elastic Compliance Matrix: (Units=1/GPa)
#
#
# Indices 1 2 3 4 5 6 
#
# 1 0.018324 -0.005915 -0.005386 0.000000 0.000000 0.000000
# 2 -0.005915 0.014170 0.001602 0.000000 0.000000 0.000000
# 3 -0.005386 0.001602 0.013632 0.000000 0.000000 0.000000
# 4 0.000000 0.000000 0.000000 0.047428 0.000000 0.000000
# 5 0.000000 0.000000 0.000000 0.000000 0.032458 0.000000
# 6 0.000000 0.000000 0.000000 0.000000 0.000000 0.029131
#
#
# Mechanical properties :
#
#
# Convention : Reuss Voigt Hill
#
# Bulk Modulus (GPa) = 37.41204 37.71457 37.56330
# Shear Modulus (GPa) = 27.25534 29.42926 28.34230
#
# Velocity S-wave (km/s) = 3.52173 3.65949 3.59127
# Velocity P-wave (km/s) = 5.79321 5.91759 5.85573
#
# Compressibility (1/GPa) = 0.02672937
#
# Stress axis : x y z
#
# Youngs Moduli (GPa) = 54.57314 70.57026 73.35548
#
# Poissons Ratio (x) = 0.41740 0.39512
# Poissons Ratio (y) = 0.32278 -0.11755
# Poissons Ratio (z) = 0.29395 -0.11309
#
# Static dielectric constant tensor:
#      x y z
#    x 1.894710 0.000000 0.000000 
#    y 0.000000 1.822920 0.000000 
#    z 0.000000 0.000000 1.759060 
# 
# From -- ./inp_files/2166.got.cif
#   From: 2010.05.17/outbox.cif.g08.bks.cpg/sg41_2_cif.got.tgz:2166.got - 2010.06.03 18:54:24.
