data_PCOD9367554
_publ_section_title
;
Structure prediction by ZEFSAII (Michael W. Deem and Ramdas Pophale) SiO2 
 PCOD9367554
Probable space group: A B A 2
;
_chemical_formula_sum "Si O2"
_cell_formula_units_Z 48
_cell_length_a 33.667593
_cell_length_b 7.214402
_cell_length_c 7.521951
_cell_angle_alpha 90.000000
_cell_angle_beta 90.000000
_cell_angle_gamma 90.000000
_cell_volume 1827.018339
_symmetry_space_group_name_H-M "A B A 2"
_symmetry_group_IT_number 41
_symmetry_cell_setting 'orthorhombic'
loop_
_space_group_symop_operation_xyz
x,y,z
-x,-y,z
1/2-x,y,1/2+z
1/2+x,-y,1/2+z
x,1/2+y,1/2+z
-x,1/2-y,1/2+z
1/2-x,1/2+y,z
1/2+x,1/2-y,z
loop_
_atom_site_type_symbol
_atom_site_label
_atom_site_fract_x
_atom_site_fract_y
_atom_site_fract_z
Si Si1 0.123130 0.989921 0.751960
Si Si2 0.374438 0.388626 0.367798
Si Si3 0.706870 0.533697 0.950152
Si Si4 0.541615 0.586134 0.340385
Si Si5 0.042486 0.504746 0.441281
Si Si6 0.790636 0.915455 0.320929
O O1 0.119033 0.214603 0.736536
O O2 0.127280 0.862423 0.580030
O O3 0.164691 0.985360 0.855057
O O4 0.082391 0.937169 0.849154
O O5 0.414954 0.509491 0.352284
O O6 0.331459 0.471573 0.331671
O O7 0.706826 0.757296 0.971489
O O8 0.748017 0.511146 0.844346
O O9 0.709049 0.383989 0.108022
O O10 0.500000 0.500000 0.400868
O O11 0.536735 0.601631 0.126724
O O12 0.547845 0.773312 0.452302
O O13 0.000000 0.500000 0.341140
#
# Coordination Sequence:
#
# PCOD9367554 Si02
#       6
#     8   8   8   8   8   8
#     4  11  24  43  66  96 132 174 225 283 343 408
#     4  11  24  43  66  96 132 174 225 283 343 408
#     4  12  24  41  65  94 131 175 225 283 343 409
#     4  10  24  45  71 102 140 183 232 287 347 412
#     4  10  24  45  71 102 140 183 232 287 347 412
#     4  12  24  41  65  94 131 175 225 283 343 409
#
# _framework density 26.272313
#
# number of rings (size 3 to 8) (size 9 to 14) (size 15 to 20)
#    0.000    1.000    0.000    6.000    0.000   15.333 
#    0.000    0.000    0.000    0.000    0.000    0.000 
#    0.000    0.000    0.000    0.000    0.000    0.000 
#
# Total GULP energy -133800.879269 kJ/mol
# GULP energy per Si atom -5575.036636 kJ/mol
# Density = 2.621252 g / cm^3
# Si number density = 26.272313 Si / 1000 Ang^3
#
#
#
# Elastic Constant Matrix: (Units=GPa)
#
#
# Indices 1 2 3 4 5 6 
#
# 1 266.2489 8.2389 26.0157 0.0000 0.0000 0.0000
# 2 8.2389 79.2634 1.3138 0.0000 0.0000 0.0000
# 3 26.0157 1.3138 70.2901 0.0000 0.0000 0.0000
# 4 0.0000 0.0000 0.0000 21.6124 0.0000 0.0000
# 5 0.0000 0.0000 0.0000 0.0000 21.3955 0.0000
# 6 0.0000 0.0000 0.0000 0.0000 0.0000 47.4339
#
#
#
# Elastic Compliance Matrix: (Units=1/GPa)
#
#
# Indices 1 2 3 4 5 6 
#
# 1 0.003908 -0.000382 -0.001439 0.000000 0.000000 0.000000
# 2 -0.000382 0.012657 -0.000095 0.000000 0.000000 0.000000
# 3 -0.001439 -0.000095 0.014761 0.000000 0.000000 0.000000
# 4 0.000000 0.000000 0.000000 0.046270 0.000000 0.000000
# 5 0.000000 0.000000 0.000000 0.000000 0.046739 0.000000
# 6 0.000000 0.000000 0.000000 0.000000 0.000000 0.021082
#
#
# Mechanical properties :
#
#
# Convention : Reuss Voigt Hill
#
# Bulk Modulus (GPa) = 36.37233 54.10435 45.23834
# Shear Modulus (GPa) = 31.56252 43.43729 37.49990
#
# Velocity S-wave (km/s) = 3.46982 4.07055 3.78213
# Velocity P-wave (km/s) = 5.47059 6.53689 6.02736
#
# Compressibility (1/GPa) = 0.02749342
#
# Stress axis : x y z
#
# Youngs Moduli (GPa) = 255.86149 79.00461 67.74474
#
# Poissons Ratio (x) = 0.03021 0.09751
# Poissons Ratio (y) = 0.09784 0.00644
# Poissons Ratio (z) = 0.36829 0.00751
#
# Static dielectric constant tensor:
#      x y z
#    x 2.115620 0.000000 0.000000 
#    y 0.000000 2.219010 0.000000 
#    z 0.000000 0.000000 2.132690 
# 
# From -- ./inp_files/3927.got.cif
#   From: 2010.05.17/outbox.cif.g08.bks.cpg/sg41_2_cif.got.tgz:3927.got - 2010.06.03 18:54:24.
