data_PCOD9367100
_publ_section_title
;
Structure prediction by ZEFSAII (Michael W. Deem and Ramdas Pophale) SiO2 
 PCOD9367100
Probable space group: A B A 2
;
_chemical_formula_sum "Si O2"
_cell_formula_units_Z 48
_cell_length_a 10.222044
_cell_length_b 10.659666
_cell_length_c 18.629774
_cell_angle_alpha 90.000000
_cell_angle_beta 90.000000
_cell_angle_gamma 90.000000
_cell_volume 2029.966774
_symmetry_space_group_name_H-M "A B A 2"
_symmetry_group_IT_number 41
_symmetry_cell_setting 'orthorhombic'
loop_
_space_group_symop_operation_xyz
x,y,z
-x,-y,z
1/2-x,y,1/2+z
1/2+x,-y,1/2+z
x,1/2+y,1/2+z
-x,1/2-y,1/2+z
1/2-x,1/2+y,z
1/2+x,1/2-y,z
loop_
_atom_site_type_symbol
_atom_site_label
_atom_site_fract_x
_atom_site_fract_y
_atom_site_fract_z
Si Si1 0.500000 0.000000 0.144580
Si Si2 0.000000 0.500000 0.831553
Si Si3 0.603934 0.756831 0.077589
Si Si4 0.352524 0.730240 0.987524
Si Si5 0.758450 0.011596 0.407962
Si Si6 0.379880 0.785097 0.740512
Si Si7 0.620192 0.128721 0.272694
O O1 0.435149 0.100977 0.094106
O O2 0.611957 0.049441 0.198963
O O3 0.888444 0.439152 0.880265
O O4 0.918186 0.590328 0.781548
O O5 0.589485 0.698388 0.156717
O O6 0.500357 0.717379 0.016864
O O7 0.752722 0.747971 0.053407
O O8 0.313686 0.595176 0.954043
O O9 0.318631 0.856652 0.940742
O O10 0.663872 0.056598 0.343553
O O11 0.227542 0.763888 0.756200
O O12 0.474957 0.683386 0.775562
#
# Coordination Sequence:
#
# PCOD9367100 Si02
#       7
#     4   4   8   8   8   8   8
#     4  10  22  43  68  95 130 176 224 286 346 402
#     4  10  22  41  66  93 132 174 222 284 344 402
#     4  11  24  42  65  95 133 174 225 275 341 408
#     4  12  26  43  67  95 137 184 223 277 336 422
#     4  11  25  44  67  98 135 181 231 278 346 415
#     4  10  22  41  66  99 130 172 225 292 350 402
#     4  10  23  41  70  98 132 174 227 292 348 405
#
# _framework density 23.645707999999999
#
# number of rings (size 3 to 8) (size 9 to 14) (size 15 to 20)
#    0.000    1.333    0.000    5.000    0.000   18.000 
#    0.000    0.000    0.000    0.000    0.000    0.000 
#    0.000    0.000    0.000    0.000    0.000    0.000 
#
# Total GULP energy -134046.983225 kJ/mol
# GULP energy per Si atom -5585.290968 kJ/mol
# Density = 2.359189 g / cm^3
# Si number density = 23.645708 Si / 1000 Ang^3
#
#
#
# Elastic Constant Matrix: (Units=GPa)
#
#
# Indices 1 2 3 4 5 6 
#
# 1 89.8464 7.5940 13.7086 0.0000 0.0000 0.0000
# 2 7.5940 53.7903 15.3681 0.0000 0.0000 0.0000
# 3 13.7086 15.3681 63.0680 0.0000 0.0000 0.0000
# 4 0.0000 0.0000 0.0000 49.7366 0.0000 0.0000
# 5 0.0000 0.0000 0.0000 0.0000 30.0720 0.0000
# 6 0.0000 0.0000 0.0000 0.0000 0.0000 27.8000
#
#
#
# Elastic Compliance Matrix: (Units=1/GPa)
#
#
# Indices 1 2 3 4 5 6 
#
# 1 0.011560 -0.000983 -0.002273 0.000000 0.000000 0.000000
# 2 -0.000983 0.020065 -0.004676 0.000000 0.000000 0.000000
# 3 -0.002273 -0.004676 0.017489 0.000000 0.000000 0.000000
# 4 0.000000 0.000000 0.000000 0.020106 0.000000 0.000000
# 5 0.000000 0.000000 0.000000 0.000000 0.033254 0.000000
# 6 0.000000 0.000000 0.000000 0.000000 0.000000 0.035971
#
#
# Mechanical properties :
#
#
# Convention : Reuss Voigt Hill
#
# Bulk Modulus (GPa) = 30.07391 31.11623 30.59507
# Shear Modulus (GPa) = 30.23109 32.85731 31.54420
#
# Velocity S-wave (km/s) = 3.57949 3.73173 3.65641
# Velocity P-wave (km/s) = 5.46167 5.63522 5.54912
#
# Compressibility (1/GPa) = 0.03325142
#
# Stress axis : x y z
#
# Youngs Moduli (GPa) = 86.50514 49.83718 57.17742
#
# Poissons Ratio (x) = 0.04897 0.12998
# Poissons Ratio (y) = 0.08499 0.26735
# Poissons Ratio (z) = 0.19665 0.23303
#
# Static dielectric constant tensor:
#      x y z
#    x 1.903830 0.000000 0.000000 
#    y 0.000000 1.963690 0.000000 
#    z 0.000000 0.000000 1.915030 
# 
# From -- ./inp_files/10005.got.cif
#   From: 2010.05.17/outbox.cif.g08.bks.cpg/sg41_6_cif.got.tgz:10005.got - 2010.06.03 18:54:24.
