data_PCOD9367324
_publ_section_title
;
Structure prediction by ZEFSAII (Michael W. Deem and Ramdas Pophale) SiO2 
 PCOD9367324
Probable space group: A B A 2
;
_chemical_formula_sum "Si O2"
_cell_formula_units_Z 60
_cell_length_a 11.598835
_cell_length_b 8.046235
_cell_length_c 26.560532
_cell_angle_alpha 90.000000
_cell_angle_beta 90.000000
_cell_angle_gamma 90.000000
_cell_volume 2478.813499
_symmetry_space_group_name_H-M "A B A 2"
_symmetry_group_IT_number 41
_symmetry_cell_setting 'orthorhombic'
loop_
_space_group_symop_operation_xyz
x,y,z
-x,-y,z
1/2-x,y,1/2+z
1/2+x,-y,1/2+z
x,1/2+y,1/2+z
-x,1/2-y,1/2+z
1/2-x,1/2+y,z
1/2+x,1/2-y,z
loop_
_atom_site_type_symbol
_atom_site_label
_atom_site_fract_x
_atom_site_fract_y
_atom_site_fract_z
Si Si1 0.289073 0.217713 0.154000
Si Si2 0.112273 0.389244 0.748381
Si Si3 0.745009 0.644752 0.376685
Si Si4 0.913494 0.114789 0.654678
Si Si5 0.443616 0.320354 0.074924
Si Si6 0.500000 0.500000 0.398195
Si Si7 0.818918 0.927779 0.806549
Si Si8 0.425606 0.333405 0.955749
O O1 0.370288 0.319780 0.191974
O O2 0.160484 0.235870 0.175498
O O3 0.318220 0.292844 0.099449
O O4 0.317338 0.025732 0.147470
O O5 0.109762 0.213114 0.778524
O O6 0.222210 0.497546 0.768280
O O7 0.000000 0.500000 0.754269
O O8 0.619443 0.555207 0.371066
O O9 0.719927 0.828736 0.356925
O O10 0.848842 0.594356 0.337049
O O11 0.798206 0.638084 0.432176
O O12 0.978736 0.184949 0.605639
O O13 0.000000 0.000000 0.686316
O O14 0.500000 0.500000 0.085265
O O15 0.432862 0.303246 0.015434
O O16 0.471365 0.665841 0.429781
O O17 0.500000 0.500000 0.945152
#
# Coordination Sequence:
#
# PCOD9367324 Si02
#       8
#     8   8   8   8   8   4   8   8
#     4  11  22  42  70 101 147 191 251 307 371 454
#     4  11  25  45  71 107 148 196 246 318 385 454
#     4  11  23  47  70 109 144 197 257 315 390 466
#     4  10  23  41  69 101 142 194 244 300 378 440
#     4  10  23  44  68 104 144 192 243 304 371 451
#     4  12  26  44  80 102 162 200 258 334 390 458
#     4  10  24  41  71 102 142 188 254 304 387 455
#     4  11  26  45  73 111 152 203 260 308 389 471
#
# _framework density 24.205128999999999
#
# number of rings (size 3 to 8) (size 9 to 14) (size 15 to 20)
#    0.000    1.333    1.333    2.800    6.533    5.333 
#    2.400    3.333    0.000    0.000    0.000    0.000 
#    0.000    0.000    0.000    0.000    0.000    0.000 
#
# Total GULP energy -167055.077994 kJ/mol
# GULP energy per Si atom -5568.502600 kJ/mol
# Density = 2.415004 g / cm^3
# Si number density = 24.205129 Si / 1000 Ang^3
#
#
#
# Elastic Constant Matrix: (Units=GPa)
#
#
# Indices 1 2 3 4 5 6 
#
# 1 76.6778 37.2696 20.1592 0.0000 0.0000 0.0000
# 2 37.2696 99.3454 28.2720 0.0000 0.0000 0.0000
# 3 20.1592 28.2720 96.2457 0.0000 0.0000 0.0000
# 4 0.0000 0.0000 0.0000 47.2374 0.0000 0.0000
# 5 0.0000 0.0000 0.0000 0.0000 31.4468 0.0000
# 6 0.0000 0.0000 0.0000 0.0000 0.0000 49.1463
#
#
#
# Elastic Compliance Matrix: (Units=1/GPa)
#
#
# Indices 1 2 3 4 5 6 
#
# 1 0.016218 -0.005584 -0.001757 0.000000 0.000000 0.000000
# 2 -0.005584 0.012907 -0.002622 0.000000 0.000000 0.000000
# 3 -0.001757 -0.002622 0.011528 0.000000 0.000000 0.000000
# 4 0.000000 0.000000 0.000000 0.021170 0.000000 0.000000
# 5 0.000000 0.000000 0.000000 0.000000 0.031800 0.000000
# 6 0.000000 0.000000 0.000000 0.000000 0.000000 0.020347
#
#
# Mechanical properties :
#
#
# Convention : Reuss Voigt Hill
#
# Bulk Modulus (GPa) = 48.24454 49.29672 48.77063
# Shear Modulus (GPa) = 35.51044 38.00396 36.75720
#
# Velocity S-wave (km/s) = 3.83438 3.96672 3.90111
# Velocity P-wave (km/s) = 6.29111 6.43353 6.36272
#
# Compressibility (1/GPa) = 0.02072773
#
# Stress axis : x y z
#
# Youngs Moduli (GPa) = 61.66133 77.47778 86.74439
#
# Poissons Ratio (x) = 0.43265 0.15237
# Poissons Ratio (y) = 0.34433 0.22742
# Poissons Ratio (z) = 0.10831 0.20313
#
# Static dielectric constant tensor:
#      x y z
#    x 2.334820 0.000000 0.000000 
#    y 0.000000 1.980470 0.000000 
#    z 0.000000 0.000000 1.912790 
# 
# From -- ./inp_files/12522.got.cif
#   From: 2010.05.17/outbox.cif.g08.bks.cpg/sg41_7_cif.got.tgz:12522.got - 2010.06.03 18:54:24.
