data_PCOD9367407
_publ_section_title
;
Structure prediction by ZEFSAII (Michael W. Deem and Ramdas Pophale) SiO2 
 PCOD9367407
Probable space group: A B A 2
;
_chemical_formula_sum "Si O2"
_cell_formula_units_Z 60
_cell_length_a 26.264763
_cell_length_b 13.768159
_cell_length_c 7.449860
_cell_angle_alpha 90.000000
_cell_angle_beta 90.000000
_cell_angle_gamma 90.000000
_cell_volume 2693.999250
_symmetry_space_group_name_H-M "A B A 2"
_symmetry_group_IT_number 41
_symmetry_cell_setting 'orthorhombic'
loop_
_space_group_symop_operation_xyz
x,y,z
-x,-y,z
1/2-x,y,1/2+z
1/2+x,-y,1/2+z
x,1/2+y,1/2+z
-x,1/2-y,1/2+z
1/2-x,1/2+y,z
1/2+x,1/2-y,z
loop_
_atom_site_type_symbol
_atom_site_label
_atom_site_fract_x
_atom_site_fract_y
_atom_site_fract_z
Si Si1 0.075551 0.368557 0.804250
Si Si2 0.809338 0.961541 0.509822
Si Si3 0.500000 0.000000 0.036925
Si Si4 0.831022 0.180076 0.557654
Si Si5 0.878161 0.462507 0.657282
Si Si6 0.297270 0.120502 0.390770
Si Si7 0.473311 0.691126 0.621785
Si Si8 0.422094 0.732307 0.240483
O O1 0.037323 0.440025 0.908230
O O2 0.094568 0.434578 0.638292
O O3 0.049751 0.268801 0.753725
O O4 0.125626 0.340800 0.911728
O O5 0.853525 0.956423 0.358910
O O6 0.758786 0.924132 0.410012
O O7 0.815484 0.893177 0.685112
O O8 0.804711 0.074527 0.577070
O O9 0.468076 0.076514 0.152711
O O10 0.799044 0.270473 0.476185
O O11 0.866198 0.218019 0.723729
O O12 0.834533 0.443035 0.514456
O O13 0.916291 0.372314 0.647324
O O14 0.444551 0.714291 0.436792
O O15 0.533925 0.709210 0.638734
#
# Coordination Sequence:
#
# PCOD9367407 Si02
#       8
#     8   8   4   8   8   8   8   8
#     4  11  22  42  66  94 130 180 222 284 346 402
#     4  11  24  46  69  99 137 178 225 293 358 419
#     4  12  22  42  68  92 144 178 228 294 344 416
#     4  10  25  43  66 101 133 170 240 283 339 441
#     4  10  23  45  68  99 138 175 234 291 344 429
#     4  11  24  45  68 101 136 177 228 289 357 423
#     4  12  23  40  67  94 136 183 228 281 351 414
#     4  11  22  42  65  99 132 179 232 285 347 418
#
# _framework density 22.271719999999998
#
# number of rings (size 3 to 8) (size 9 to 14) (size 15 to 20)
#    0.000    1.067    5.333    0.000    3.733    1.067 
#    0.000    2.000    0.000    0.000    0.000    0.000 
#    0.000    0.000    0.000    0.000    0.000    0.000 
#
# Total GULP energy -167453.020050 kJ/mol
# GULP energy per Si atom -5581.767335 kJ/mol
# Density = 2.222103 g / cm^3
# Si number density = 22.271720 Si / 1000 Ang^3
#
#
#
# Elastic Constant Matrix: (Units=GPa)
#
#
# Indices 1 2 3 4 5 6 
#
# 1 48.6233 23.7448 1.7475 0.0000 0.0000 0.0000
# 2 23.7448 117.1539 15.5493 0.0000 0.0000 0.0000
# 3 1.7475 15.5493 46.1597 0.0000 0.0000 0.0000
# 4 0.0000 0.0000 0.0000 33.6884 0.0000 0.0000
# 5 0.0000 0.0000 0.0000 0.0000 28.9969 0.0000
# 6 0.0000 0.0000 0.0000 0.0000 0.0000 33.1490
#
#
#
# Elastic Compliance Matrix: (Units=1/GPa)
#
#
# Indices 1 2 3 4 5 6 
#
# 1 0.022849 -0.004728 0.000727 0.000000 0.000000 0.000000
# 2 -0.004728 0.009913 -0.003160 0.000000 0.000000 0.000000
# 3 0.000727 -0.003160 0.022701 0.000000 0.000000 0.000000
# 4 0.000000 0.000000 0.000000 0.029684 0.000000 0.000000
# 5 0.000000 0.000000 0.000000 0.000000 0.034486 0.000000
# 6 0.000000 0.000000 0.000000 0.000000 0.000000 0.030167
#
#
# Mechanical properties :
#
#
# Convention : Reuss Voigt Hill
#
# Bulk Modulus (GPa) = 24.30595 32.66891 28.48743
# Shear Modulus (GPa) = 28.11589 30.55988 29.33789
#
# Velocity S-wave (km/s) = 3.55689 3.70826 3.63336
# Velocity P-wave (km/s) = 5.27311 5.74761 5.51547
#
# Compressibility (1/GPa) = 0.04114219
#
# Stress axis : x y z
#
# Youngs Moduli (GPa) = 43.76599 100.87324 44.05095
#
# Poissons Ratio (x) = 0.47688 -0.03205
# Poissons Ratio (y) = 0.20691 0.13922
# Poissons Ratio (z) = -0.03184 0.31880
#
# Static dielectric constant tensor:
#      x y z
#    x 1.833040 0.000000 0.000000 
#    y 0.000000 1.896910 0.000000 
#    z 0.000000 0.000000 1.893400 
# 
# From -- ./inp_files/3849.got.cif
#   From: 2010.05.17/outbox.cif.g08.bks.cpg/sg41_2_cif.got.tgz:3849.got - 2010.06.03 18:54:24.
