data_PCOD9367904
_publ_section_title
;
Structure prediction by ZEFSAII (Michael W. Deem and Ramdas Pophale) SiO2 
 PCOD9367904
Probable space group: A B A 2
;
_chemical_formula_sum "Si O2"
_cell_formula_units_Z 52
_cell_length_a 9.154030
_cell_length_b 26.699030
_cell_length_c 9.075900
_cell_angle_alpha 90.000000
_cell_angle_beta 90.000000
_cell_angle_gamma 90.000000
_cell_volume 2218.183737
_symmetry_space_group_name_H-M "A B A 2"
_symmetry_group_IT_number 41
_symmetry_cell_setting 'orthorhombic'
loop_
_space_group_symop_operation_xyz
x,y,z
-x,-y,z
1/2-x,y,1/2+z
1/2+x,-y,1/2+z
x,1/2+y,1/2+z
-x,1/2-y,1/2+z
1/2-x,1/2+y,z
1/2+x,1/2-y,z
loop_
_atom_site_type_symbol
_atom_site_label
_atom_site_fract_x
_atom_site_fract_y
_atom_site_fract_z
Si Si1 0.009637 0.373058 0.194310
Si Si2 0.507634 0.409752 0.012853
Si Si3 0.874985 0.773937 0.778178
Si Si4 0.500000 0.000000 0.811557
Si Si5 0.249070 0.050738 0.643136
Si Si6 0.928537 0.801249 0.124873
Si Si7 0.198782 0.449439 0.046437
O O1 0.975356 0.314983 0.193363
O O2 0.862248 0.404433 0.162057
O O3 0.048247 0.386668 0.360541
O O4 0.133964 0.396617 0.094561
O O5 0.546439 0.360944 0.110061
O O6 0.662134 0.438437 0.990114
O O7 0.372849 0.445267 0.052368
O O8 0.899206 0.781197 0.955394
O O9 0.710614 0.786988 0.726928
O O10 0.931631 0.722434 0.707657
O O11 0.393843 0.041388 0.738485
O O12 0.615317 0.033799 0.901108
O O13 0.165886 0.998112 0.646825
#
# Coordination Sequence:
#
# PCOD9367904 Si02
#       7
#     8   8   8   4   8   8   8
#     4  11  25  44  68  95 134 180 227 284 345 418
#     4  11  25  44  68  95 136 178 231 283 350 411
#     4  11  25  47  74 103 140 181 234 293 361 427
#     4  12  24  38  66  96 136 182 232 284 340 404
#     4  12  22  43  65  95 134 180 226 277 341 403
#     4  11  25  49  73 107 138 184 233 296 361 428
#     4  12  24  42  63 100 135 179 231 278 342 406
#
# _framework density 23.442602000000001
#
# number of rings (size 3 to 8) (size 9 to 14) (size 15 to 20)
#    0.000    0.615    4.615    2.769    2.154    1.231 
#    2.769    0.000    0.000    0.000    0.000    0.000 
#    0.000    0.000    0.000    0.000    0.000    0.000 
#
# Total GULP energy -145064.442893 kJ/mol
# GULP energy per Si atom -5579.401650 kJ/mol
# Density = 2.338925 g / cm^3
# Si number density = 23.442602 Si / 1000 Ang^3
#
#
#
# Elastic Constant Matrix: (Units=GPa)
#
#
# Indices 1 2 3 4 5 6 
#
# 1 88.5253 8.5320 2.2744 0.0000 0.0000 0.0000
# 2 8.5320 69.6090 -2.7683 0.0000 0.0000 0.0000
# 3 2.2744 -2.7683 36.1971 0.0000 0.0000 0.0000
# 4 0.0000 0.0000 0.0000 23.6009 0.0000 0.0000
# 5 0.0000 0.0000 0.0000 0.0000 33.5635 0.0000
# 6 0.0000 0.0000 0.0000 0.0000 0.0000 42.1742
#
#
#
# Elastic Compliance Matrix: (Units=1/GPa)
#
#
# Indices 1 2 3 4 5 6 
#
# 1 0.011456 -0.001437 -0.000830 0.000000 0.000000 0.000000
# 2 -0.001437 0.014590 0.001206 0.000000 0.000000 0.000000
# 3 -0.000830 0.001206 0.027771 0.000000 0.000000 0.000000
# 4 0.000000 0.000000 0.000000 0.042371 0.000000 0.000000
# 5 0.000000 0.000000 0.000000 0.000000 0.029794 0.000000
# 6 0.000000 0.000000 0.000000 0.000000 0.000000 0.023711
#
#
# Mechanical properties :
#
#
# Convention : Reuss Voigt Hill
#
# Bulk Modulus (GPa) = 19.34405 23.37862 21.36133
# Shear Modulus (GPa) = 29.57756 32.28728 30.93242
#
# Velocity S-wave (km/s) = 3.55590 3.71521 3.63643
# Velocity P-wave (km/s) = 5.01286 5.32899 5.17334
#
# Compressibility (1/GPa) = 0.05169548
#
# Stress axis : x y z
#
# Youngs Moduli (GPa) = 87.29023 68.53970 36.00893
#
# Poissons Ratio (x) = 0.09850 0.02988
# Poissons Ratio (y) = 0.12545 -0.04343
# Poissons Ratio (z) = 0.07243 -0.08267
#
# Static dielectric constant tensor:
#      x y z
#    x 1.875020 0.000000 0.000000 
#    y 0.000000 1.974540 0.000000 
#    z 0.000000 0.000000 2.051100 
# 
# From -- ./inp_files/4554.got.cif
#   From: 2010.05.17/outbox.cif.g08.bks.cpg/sg41_3_cif.got.tgz:4554.got - 2010.06.03 18:54:24.
