data_PCOD9367314
_publ_section_title
;
Structure prediction by ZEFSAII (Michael W. Deem and Ramdas Pophale) SiO2 
 PCOD9367314
Probable space group: A B A 2
;
_chemical_formula_sum "Si O2"
_cell_formula_units_Z 64
_cell_length_a 22.445052
_cell_length_b 8.776732
_cell_length_c 15.478820
_cell_angle_alpha 90.000000
_cell_angle_beta 90.000000
_cell_angle_gamma 90.000000
_cell_volume 3049.237858
_symmetry_space_group_name_H-M "A B A 2"
_symmetry_group_IT_number 41
_symmetry_cell_setting 'orthorhombic'
loop_
_space_group_symop_operation_xyz
x,y,z
-x,-y,z
1/2-x,y,1/2+z
1/2+x,-y,1/2+z
x,1/2+y,1/2+z
-x,1/2-y,1/2+z
1/2-x,1/2+y,z
1/2+x,1/2-y,z
loop_
_atom_site_type_symbol
_atom_site_label
_atom_site_fract_x
_atom_site_fract_y
_atom_site_fract_z
Si Si1 0.669150 0.013631 0.436650
Si Si2 0.363910 0.266196 0.328079
Si Si3 0.640194 0.691406 0.761580
Si Si4 0.565786 0.929446 0.192901
Si Si5 0.396321 0.196113 0.014969
Si Si6 0.242233 0.253760 0.690113
Si Si7 0.715183 0.493396 0.554520
Si Si8 0.062085 0.066626 0.348518
O O1 0.666441 0.096405 0.343073
O O2 0.630381 0.134443 0.494824
O O3 0.732590 0.994013 0.482894
O O4 0.649120 0.841467 0.411340
O O5 0.305794 0.289914 0.265402
O O6 0.391750 0.427604 0.350216
O O7 0.413315 0.172462 0.273385
O O8 0.612275 0.571586 0.694555
O O9 0.695670 0.792758 0.732838
O O10 0.587574 0.801227 0.788819
O O11 0.500000 0.000000 0.200039
O O12 0.574503 0.827530 0.107967
O O13 0.442918 0.147974 0.941485
O O14 0.344218 0.067195 0.007513
O O15 0.266449 0.363331 0.613627
O O16 0.214029 0.125839 0.632842
O O17 0.000000 0.000000 0.318722
#
# Coordination Sequence:
#
# PCOD9367314 Si02
#       8
#     8   8   8   8   8   8   8   8
#     4  10  24  39  61  92 130 165 205 259 327 385
#     4  11  24  41  65  97 125 167 214 267 324 383
#     4  10  23  41  63  93 127 162 216 265 320 381
#     4  11  21  42  67  88 126 172 215 263 320 377
#     4  11  23  41  59  92 127 170 213 260 316 388
#     4  12  23  39  63  94 127 159 209 259 326 386
#     4  12  22  39  59  91 129 164 199 259 323 387
#     4  11  25  42  64  93 127 171 221 267 316 382
#
# _framework density 20.988852000000001
#
# number of rings (size 3 to 8) (size 9 to 14) (size 15 to 20)
#    0.000    1.000    3.750    2.625    7.000    0.000 
#    0.000    0.000    0.000    1.500    0.000    0.000 
#    0.000    0.000    0.000    0.000    0.000    0.000 
#
# Total GULP energy -178238.292286 kJ/mol
# GULP energy per Si atom -5569.946634 kJ/mol
# Density = 2.094108 g / cm^3
# Si number density = 20.988852 Si / 1000 Ang^3
#
#
#
# Elastic Constant Matrix: (Units=GPa)
#
#
# Indices 1 2 3 4 5 6 
#
# 1 75.8234 -0.3670 17.5832 0.0000 0.0000 0.0000
# 2 -0.3670 69.8382 7.3308 0.0000 0.0000 0.0000
# 3 17.5832 7.3308 58.1523 0.0000 0.0000 0.0000
# 4 0.0000 0.0000 0.0000 24.3865 0.0000 0.0000
# 5 0.0000 0.0000 0.0000 0.0000 6.8525 0.0000
# 6 0.0000 0.0000 0.0000 0.0000 0.0000 17.0036
#
#
#
# Elastic Compliance Matrix: (Units=1/GPa)
#
#
# Indices 1 2 3 4 5 6 
#
# 1 0.014203 0.000532 -0.004361 0.000000 0.000000 0.000000
# 2 0.000532 0.014531 -0.001993 0.000000 0.000000 0.000000
# 3 -0.004361 -0.001993 0.018766 0.000000 0.000000 0.000000
# 4 0.000000 0.000000 0.000000 0.041006 0.000000 0.000000
# 5 0.000000 0.000000 0.000000 0.000000 0.145932 0.000000
# 6 0.000000 0.000000 0.000000 0.000000 0.000000 0.058811
#
#
# Mechanical properties :
#
#
# Convention : Reuss Voigt Hill
#
# Bulk Modulus (GPa) = 27.88941 28.10089 27.99515
# Shear Modulus (GPa) = 15.78063 21.59964 18.69013
#
# Velocity S-wave (km/s) = 2.74498 3.21144 2.98733
# Velocity P-wave (km/s) = 4.83354 5.21236 5.02652
#
# Compressibility (1/GPa) = 0.03585590
#
# Stress axis : x y z
#
# Youngs Moduli (GPa) = 70.40993 68.81940 53.28732
#
# Poissons Ratio (x) = -0.03664 0.23241
# Poissons Ratio (y) = -0.03749 0.10619
# Poissons Ratio (z) = 0.30709 0.13714
#
# Static dielectric constant tensor:
#      x y z
#    x 1.881000 0.000000 0.000000 
#    y 0.000000 1.745710 0.000000 
#    z 0.000000 0.000000 1.751610 
# 
# From -- ./inp_files/9173.got.cif
#   From: 2010.05.17/outbox.cif.g08.bks.cpg/sg41_5_cif.got.tgz:9173.got - 2010.06.03 18:54:24.
