data_PCOD9367043
_publ_section_title
;
Structure prediction by ZEFSAII (Michael W. Deem and Ramdas Pophale) SiO2 
 PCOD9367043
Probable space group: A B A 2
;
_chemical_formula_sum "Si O2"
_cell_formula_units_Z 60
_cell_length_a 13.922061
_cell_length_b 12.898636
_cell_length_c 13.804208
_cell_angle_alpha 90.000000
_cell_angle_beta 90.000000
_cell_angle_gamma 90.000000
_cell_volume 2478.898896
_symmetry_space_group_name_H-M "A B A 2"
_symmetry_group_IT_number 41
_symmetry_cell_setting 'orthorhombic'
loop_
_space_group_symop_operation_xyz
x,y,z
-x,-y,z
1/2-x,y,1/2+z
1/2+x,-y,1/2+z
x,1/2+y,1/2+z
-x,1/2-y,1/2+z
1/2-x,1/2+y,z
1/2+x,1/2-y,z
loop_
_atom_site_type_symbol
_atom_site_label
_atom_site_fract_x
_atom_site_fract_y
_atom_site_fract_z
Si Si1 0.189131 0.741191 0.893110
Si Si2 0.913261 0.664804 0.030525
Si Si3 0.629864 0.672210 0.261391
Si Si4 0.500000 0.000000 0.129500
Si Si5 0.661000 0.449784 0.761428
Si Si6 0.256896 0.731224 0.616518
Si Si7 0.989566 0.813685 0.862409
Si Si8 0.657014 0.495895 0.378764
O O1 0.282596 0.776887 0.829792
O O2 0.143195 0.627039 0.873684
O O3 0.102207 0.821045 0.878258
O O4 0.221960 0.722923 0.003022
O O5 0.851589 0.725661 0.110974
O O6 0.006751 0.604747 0.069079
O O7 0.947780 0.748023 0.952178
O O8 0.857233 0.566755 0.976017
O O9 0.676825 0.676344 0.157483
O O10 0.537651 0.744854 0.268443
O O11 0.597737 0.563131 0.302447
O O12 0.595264 0.016753 0.191105
O O13 0.714220 0.366874 0.686033
O O14 0.581150 0.407161 0.837491
O O15 0.738640 0.502619 0.828821
#
# Coordination Sequence:
#
# PCOD9367043 Si02
#       8
#     8   8   8   4   8   8   8   8
#     4  12  22  42  67  91 129 176 207 272 328 385
#     4  11  22  40  64  94 129 169 221 267 329 396
#     4  10  23  42  59  99 128 160 217 269 320 393
#     4  12  26  38  60 108 126 168 234 282 308 408
#     4  11  24  39  63  99 127 169 224 270 330 394
#     4  11  21  42  66  92 130 169 217 265 328 387
#     4  10  22  40  63  91 129 167 211 264 331 383
#     4  11  21  42  66  91 128 171 215 263 332 385
#
# _framework density 24.204293
#
# number of rings (size 3 to 8) (size 9 to 14) (size 15 to 20)
#    0.000    1.067    5.333    3.200    3.733    1.600 
#    0.000    0.000    0.000    3.200    0.000    0.000 
#    0.000    0.000    0.000    0.000    0.000    0.000 
#
# Total GULP energy -167048.256487 kJ/mol
# GULP energy per Si atom -5568.275216 kJ/mol
# Density = 2.414920 g / cm^3
# Si number density = 24.204293 Si / 1000 Ang^3
#
#
#
# Elastic Constant Matrix: (Units=GPa)
#
#
# Indices 1 2 3 4 5 6 
#
# 1 108.1333 8.1866 23.3783 0.0000 0.0000 0.0000
# 2 8.1866 68.9446 19.5101 0.0000 0.0000 0.0000
# 3 23.3783 19.5101 56.1485 0.0000 0.0000 0.0000
# 4 0.0000 0.0000 0.0000 12.1438 0.0000 0.0000
# 5 0.0000 0.0000 0.0000 0.0000 13.3768 0.0000
# 6 0.0000 0.0000 0.0000 0.0000 0.0000 37.1905
#
#
#
# Elastic Compliance Matrix: (Units=1/GPa)
#
#
# Indices 1 2 3 4 5 6 
#
# 1 0.010163 -0.000010 -0.004228 0.000000 0.000000 0.000000
# 2 -0.000010 0.016086 -0.005585 0.000000 0.000000 0.000000
# 3 -0.004228 -0.005585 0.021511 0.000000 0.000000 0.000000
# 4 0.000000 0.000000 0.000000 0.082346 0.000000 0.000000
# 5 0.000000 0.000000 0.000000 0.000000 0.074756 0.000000
# 6 0.000000 0.000000 0.000000 0.000000 0.000000 0.026889
#
#
# Mechanical properties :
#
#
# Convention : Reuss Voigt Hill
#
# Bulk Modulus (GPa) = 35.57064 37.26406 36.41735
# Shear Modulus (GPa) = 19.17408 24.68564 21.92986
#
# Velocity S-wave (km/s) = 2.81762 3.19703 3.01330
# Velocity P-wave (km/s) = 5.03122 5.39046 5.21394
#
# Compressibility (1/GPa) = 0.02811307
#
# Stress axis : x y z
#
# Youngs Moduli (GPa) = 98.39925 62.16526 46.48795
#
# Poissons Ratio (x) = 0.00064 0.19654
# Poissons Ratio (y) = 0.00102 0.25964
# Poissons Ratio (z) = 0.41601 0.34721
#
# Static dielectric constant tensor:
#      x y z
#    x 1.993250 0.000000 0.000000 
#    y 0.000000 2.095700 0.000000 
#    z 0.000000 0.000000 1.984020 
# 
# From -- ./inp_files/8533.got.cif
#   From: 2010.05.17/outbox.cif.g08.bks.cpg/sg41_5_cif.got.tgz:8533.got - 2010.06.03 18:54:24.
