data_PCOD9367581
_publ_section_title
;
Structure prediction by ZEFSAII (Michael W. Deem and Ramdas Pophale) SiO2 
 PCOD9367581
Probable space group: A B A 2
;
_chemical_formula_sum "Si O2"
_cell_formula_units_Z 36
_cell_length_a 10.257728
_cell_length_b 9.420335
_cell_length_c 15.970795
_cell_angle_alpha 90.000000
_cell_angle_beta 90.000000
_cell_angle_gamma 90.000000
_cell_volume 1543.277630
_symmetry_space_group_name_H-M "A B A 2"
_symmetry_group_IT_number 41
_symmetry_cell_setting 'orthorhombic'
loop_
_space_group_symop_operation_xyz
x,y,z
-x,-y,z
1/2-x,y,1/2+z
1/2+x,-y,1/2+z
x,1/2+y,1/2+z
-x,1/2-y,1/2+z
1/2-x,1/2+y,z
1/2+x,1/2-y,z
loop_
_atom_site_type_symbol
_atom_site_label
_atom_site_fract_x
_atom_site_fract_y
_atom_site_fract_z
Si Si1 0.757913 0.874521 0.324070
Si Si2 0.617382 0.257450 0.157709
Si Si3 0.500000 0.500000 0.059504
Si Si4 0.148877 0.739733 0.481404
Si Si5 0.000000 0.000000 0.413347
Si Si6 0.500000 0.500000 0.755733
O O1 0.796955 0.817589 0.232994
O O2 0.738638 0.762513 0.399926
O O3 0.876288 0.969717 0.355591
O O4 0.620289 0.949322 0.311123
O O5 0.507095 0.367973 0.124820
O O6 0.547793 0.123758 0.195916
O O7 0.700914 0.222228 0.073976
O O8 0.395731 0.574956 0.996994
O O9 0.036043 0.857066 0.464916
#
# Coordination Sequence:
#
# PCOD9367581 Si02
#       6
#     8   8   4   8   4   4
#     4  12  26  48  78 122 160 202 256 328 390 468
#     4  10  24  47  75 108 155 201 260 317 383 455
#     4   8  22  46  72 108 154 202 246 326 368 464
#     4  10  24  47  75 108 155 201 260 317 383 455
#     4  12  26  48  79 117 154 214 256 318 391 471
#     4  12  26  48  79 117 154 214 256 318 391 471
#
# _framework density 23.326975000000001
#
# number of rings (size 3 to 8) (size 9 to 14) (size 15 to 20)
#    1.333    0.000    0.000    4.667    0.000    7.111 
#    8.000    0.000    0.000    0.000    0.000    0.000 
#    0.000    0.000    0.000    0.000    0.000    0.000 
#
# Total GULP energy -100235.839739 kJ/mol
# GULP energy per Si atom -5568.657763 kJ/mol
# Density = 2.327388 g / cm^3
# Si number density = 23.326975 Si / 1000 Ang^3
#
#
#
# Elastic Constant Matrix: (Units=GPa)
#
#
# Indices 1 2 3 4 5 6 
#
# 1 108.8835 44.6460 70.7553 0.0000 0.0000 0.0000
# 2 44.6460 73.2086 56.0209 0.0000 0.0000 0.0000
# 3 70.7553 56.0209 218.5966 0.0000 0.0000 0.0000
# 4 0.0000 0.0000 0.0000 10.3335 0.0000 0.0000
# 5 0.0000 0.0000 0.0000 0.0000 25.0167 0.0000
# 6 0.0000 0.0000 0.0000 0.0000 0.0000 -1.5300
#
#
#
# Elastic Compliance Matrix: (Units=1/GPa)
#
#
# Indices 1 2 3 4 5 6 
#
# 1 0.013507 -0.006085 -0.002812 0.000000 0.000000 0.000000
# 2 -0.006085 0.019733 -0.003088 0.000000 0.000000 0.000000
# 3 -0.002812 -0.003088 0.006276 0.000000 0.000000 0.000000
# 4 0.000000 0.000000 0.000000 0.096773 0.000000 0.000000
# 5 0.000000 0.000000 0.000000 0.000000 0.039973 0.000000
# 6 0.000000 0.000000 0.000000 0.000000 0.000000 -0.653591
#
#
# Mechanical properties :
#
#
# Convention : Reuss Voigt Hill
#
# Bulk Modulus (GPa) = 64.32397 82.61479 73.46938
# Shear Modulus (GPa) = -11.15631 22.04846 5.44608
#
# Velocity S-wave (km/s) = -2.18928 3.07773 1.52962
# Velocity P-wave (km/s) = 4.60914 6.93706 5.88927
#
# Compressibility (1/GPa) = 0.01554630
#
# Stress axis : x y z
#
# Youngs Moduli (GPa) = 74.03707 50.67627 159.33120
#
# Poissons Ratio (x) = 0.30836 0.44811
# Poissons Ratio (y) = 0.45051 0.49194
# Poissons Ratio (z) = 0.20823 0.15647
#
# Static dielectric constant tensor:
#      x y z
#    x 1.891880 0.000000 0.000000 
#    y 0.000000 1.924390 0.000000 
#    z 0.000000 0.000000 1.919470 
# 
# From -- ./inp_files/7725.got.cif
#   From: 2010.05.17/outbox.cif.g08.bks.cpg/sg41_4_cif.got.tgz:7725.got - 2010.06.03 18:54:24.
