data_PCOD9367507
_publ_section_title
;
Structure prediction by ZEFSAII (Michael W. Deem and Ramdas Pophale) SiO2 
 PCOD9367507
Probable space group: A B A 2
;
_chemical_formula_sum "Si O2"
_cell_formula_units_Z 52
_cell_length_a 21.784889
_cell_length_b 19.449658
_cell_length_c 5.677970
_cell_angle_alpha 90.000000
_cell_angle_beta 90.000000
_cell_angle_gamma 90.000000
_cell_volume 2405.804950
_symmetry_space_group_name_H-M "A B A 2"
_symmetry_group_IT_number 41
_symmetry_cell_setting 'orthorhombic'
loop_
_space_group_symop_operation_xyz
x,y,z
-x,-y,z
1/2-x,y,1/2+z
1/2+x,-y,1/2+z
x,1/2+y,1/2+z
-x,1/2-y,1/2+z
1/2-x,1/2+y,z
1/2+x,1/2-y,z
loop_
_atom_site_type_symbol
_atom_site_label
_atom_site_fract_x
_atom_site_fract_y
_atom_site_fract_z
Si Si1 0.056850 0.398264 0.756670
Si Si2 0.279745 0.985361 0.221757
Si Si3 0.909254 0.979393 0.602495
Si Si4 0.410245 0.293883 0.923590
Si Si5 0.500000 0.000000 0.480807
Si Si6 0.976139 0.332051 0.114321
Si Si7 0.784740 0.179689 0.706192
O O1 0.104670 0.358489 0.594033
O O2 0.997031 0.432263 0.634258
O O3 0.083316 0.464731 0.893517
O O4 0.028346 0.339267 0.915571
O O5 0.263642 0.999379 0.494937
O O6 0.291808 0.903322 0.203920
O O7 0.339156 0.029144 0.156610
O O8 0.945332 0.907506 0.607993
O O9 0.941626 0.015897 0.823352
O O10 0.478868 0.312670 0.828749
O O11 0.423856 0.223067 0.058028
O O12 0.353553 0.289816 0.743188
O O13 0.746494 0.197337 0.950188
#
# Coordination Sequence:
#
# PCOD9367507 Si02
#       7
#     8   8   8   8   4   8   8
#     4  12  22  38  64  97 135 169 219 281 343 418
#     4  10  24  43  68 100 134 182 232 292 345 408
#     4  12  24  41  66 103 136 172 234 284 353 416
#     4  12  26  42  68  99 141 181 229 282 355 423
#     4  12  20  36  64  98 126 170 214 282 346 394
#     4  12  24  42  64 103 136 181 220 283 360 415
#     4  10  24  44  70  98 132 184 239 286 337 413
#
# _framework density 21.614387000000001
#
# number of rings (size 3 to 8) (size 9 to 14) (size 15 to 20)
#    0.000    0.615    6.154    1.846   10.769    0.000 
#    0.000    1.538    0.000    0.000    0.000    0.000 
#    0.000    0.000    0.000    0.000    0.000    0.000 
#
# Total GULP energy -144775.838871 kJ/mol
# GULP energy per Si atom -5568.301495 kJ/mol
# Density = 2.156519 g / cm^3
# Si number density = 21.614387 Si / 1000 Ang^3
#
#
#
# Elastic Constant Matrix: (Units=GPa)
#
#
# Indices 1 2 3 4 5 6 
#
# 1 86.9540 25.7202 17.3420 0.0000 0.0000 0.0000
# 2 25.7202 76.8575 35.1547 0.0000 0.0000 0.0000
# 3 17.3420 35.1547 77.2285 0.0000 0.0000 0.0000
# 4 0.0000 0.0000 0.0000 19.3101 0.0000 0.0000
# 5 0.0000 0.0000 0.0000 0.0000 10.5109 0.0000
# 6 0.0000 0.0000 0.0000 0.0000 0.0000 20.7653
#
#
#
# Elastic Compliance Matrix: (Units=1/GPa)
#
#
# Indices 1 2 3 4 5 6 
#
# 1 0.012847 -0.003763 -0.001172 0.000000 0.000000 0.000000
# 2 -0.003763 0.017535 -0.007137 0.000000 0.000000 0.000000
# 3 -0.001172 -0.007137 0.016460 0.000000 0.000000 0.000000
# 4 0.000000 0.000000 0.000000 0.051786 0.000000 0.000000
# 5 0.000000 0.000000 0.000000 0.000000 0.095139 0.000000
# 6 0.000000 0.000000 0.000000 0.000000 0.000000 0.048157
#
#
# Mechanical properties :
#
#
# Convention : Reuss Voigt Hill
#
# Bulk Modulus (GPa) = 44.05571 44.16377 44.10974
# Shear Modulus (GPa) = 18.27249 20.97214 19.62232
#
# Velocity S-wave (km/s) = 2.91071 3.11832 3.01630
# Velocity P-wave (km/s) = 5.63233 5.78292 5.70812
#
# Compressibility (1/GPa) = 0.02269853
#
# Stress axis : x y z
#
# Youngs Moduli (GPa) = 77.83800 57.02911 60.75165
#
# Poissons Ratio (x) = 0.21462 0.07119
# Poissons Ratio (y) = 0.29293 0.43358
# Poissons Ratio (z) = 0.09121 0.40701
#
# Static dielectric constant tensor:
#      x y z
#    x 1.778990 0.000000 0.000000 
#    y 0.000000 1.747910 0.000000 
#    z 0.000000 0.000000 1.984640 
# 
# From -- ./inp_files/725.got.cif
#   From: 2010.05.17/outbox.cif.g08.bks.cpg/sg41_1_cif.got.tgz:725.got - 2010.06.03 18:54:24.
