data_PCOD9367933
_publ_section_title
;
Structure prediction by ZEFSAII (Michael W. Deem and Ramdas Pophale) SiO2 
 PCOD9367933
Probable space group: A B A 2
;
_chemical_formula_sum "Si O2"
_cell_formula_units_Z 56
_cell_length_a 28.286774
_cell_length_b 14.607963
_cell_length_c 5.828280
_cell_angle_alpha 90.000000
_cell_angle_beta 90.000000
_cell_angle_gamma 90.000000
_cell_volume 2408.316098
_symmetry_space_group_name_H-M "A B A 2"
_symmetry_group_IT_number 41
_symmetry_cell_setting 'orthorhombic'
loop_
_space_group_symop_operation_xyz
x,y,z
-x,-y,z
1/2-x,y,1/2+z
1/2+x,-y,1/2+z
x,1/2+y,1/2+z
-x,1/2-y,1/2+z
1/2-x,1/2+y,z
1/2+x,1/2-y,z
loop_
_atom_site_type_symbol
_atom_site_label
_atom_site_fract_x
_atom_site_fract_y
_atom_site_fract_z
Si Si1 0.504581 0.383087 0.923980
Si Si2 0.423510 0.587925 0.581641
Si Si3 0.276023 0.664783 0.941275
Si Si4 0.564420 0.258317 0.249235
Si Si5 0.151135 0.324942 0.035533
Si Si6 0.840989 0.996379 0.821507
Si Si7 0.085364 0.935271 0.202889
O O1 0.538671 0.445063 0.768879
O O2 0.469772 0.327889 0.758078
O O3 0.543845 0.320529 0.048019
O O4 0.467008 0.412011 0.116072
O O5 0.437725 0.686502 0.487154
O O6 0.371362 0.579240 0.682883
O O7 0.422356 0.520833 0.367793
O O8 0.250290 0.670286 0.192111
O O9 0.311105 0.752572 0.945305
O O10 0.300440 0.563888 0.936578
O O11 0.618121 0.229010 0.214801
O O12 0.171391 0.417912 0.154698
O O13 0.112874 0.357975 0.846569
O O14 0.878090 0.037192 0.003919
#
# Coordination Sequence:
#
# PCOD9367933 Si02
#       7
#     8   8   8   8   8   8   8
#     4  12  24  40  66 106 147 206 266 311 367 440
#     4  11  26  44  69 102 154 203 261 321 375 456
#     4  12  32  54  88 125 153 197 260 338 422 512
#     4  12  24  43  68 101 151 204 261 315 368 456
#     4  11  27  50  80 110 154 206 257 323 414 480
#     4  11  27  51  79 110 157 205 254 328 406 493
#     4  11  26  47  72 105 151 208 258 322 386 470
#
# _framework density 23.252761
#
# number of rings (size 3 to 8) (size 9 to 14) (size 15 to 20)
#    0.000    0.571    2.857    3.429   10.000    4.571 
#    0.000    0.000    0.000    0.000    0.000    0.000 
#    0.000    0.000    0.000    0.000    0.000    0.000 
#
# Total GULP energy -156544.392396 kJ/mol
# GULP energy per Si atom -5590.871157 kJ/mol
# Density = 2.319984 g / cm^3
# Si number density = 23.252761 Si / 1000 Ang^3
#
#
#
# Elastic Constant Matrix: (Units=GPa)
#
#
# Indices 1 2 3 4 5 6 
#
# 1 95.2028 66.4141 45.0214 0.0000 0.0000 0.0000
# 2 66.4141 77.3980 36.9500 0.0000 0.0000 0.0000
# 3 45.0214 36.9500 96.2093 0.0000 0.0000 0.0000
# 4 0.0000 0.0000 0.0000 36.0075 0.0000 0.0000
# 5 0.0000 0.0000 0.0000 0.0000 41.6724 0.0000
# 6 0.0000 0.0000 0.0000 0.0000 0.0000 43.0057
#
#
#
# Elastic Compliance Matrix: (Units=1/GPa)
#
#
# Indices 1 2 3 4 5 6 
#
# 1 0.027811 -0.021614 -0.004713 0.000000 0.000000 0.000000
# 2 -0.021614 0.032619 -0.002413 0.000000 0.000000 0.000000
# 3 -0.004713 -0.002413 0.013526 0.000000 0.000000 0.000000
# 4 0.000000 0.000000 0.000000 0.027772 0.000000 0.000000
# 5 0.000000 0.000000 0.000000 0.000000 0.023997 0.000000
# 6 0.000000 0.000000 0.000000 0.000000 0.000000 0.023253
#
#
# Mechanical properties :
#
#
# Convention : Reuss Voigt Hill
#
# Bulk Modulus (GPa) = 60.69655 62.84235 61.76945
# Shear Modulus (GPa) = 23.59049 32.16543 27.87796
#
# Velocity S-wave (km/s) = 3.18862 3.72330 3.46628
# Velocity P-wave (km/s) = 6.30206 6.75044 6.53010
#
# Compressibility (1/GPa) = 0.01647540
#
# Stress axis : x y z
#
# Youngs Moduli (GPa) = 35.95735 30.65705 73.92975
#
# Poissons Ratio (x) = 0.66262 0.34844
# Poissons Ratio (y) = 0.77718 0.17841
# Poissons Ratio (z) = 0.16947 0.07398
#
# Static dielectric constant tensor:
#      x y z
#    x 1.833930 0.000000 0.000000 
#    y 0.000000 2.000030 0.000000 
#    z 0.000000 0.000000 1.928050 
# 
# From -- ./inp_files/1356.got.cif
#   From: 2010.05.17/outbox.cif.g08.bks.cpg/sg41_1_cif.got.tgz:1356.got - 2010.06.03 18:54:24.
