data_PCOD9367526
_publ_section_title
;
Structure prediction by ZEFSAII (Michael W. Deem and Ramdas Pophale) SiO2 
 PCOD9367526
Probable space group: A B A 2
;
_chemical_formula_sum "Si O2"
_cell_formula_units_Z 28
_cell_length_a 15.013265
_cell_length_b 13.545371
_cell_length_c 4.912155
_cell_angle_alpha 90.000000
_cell_angle_beta 90.000000
_cell_angle_gamma 90.000000
_cell_volume 998.937041
_symmetry_space_group_name_H-M "A B A 2"
_symmetry_group_IT_number 41
_symmetry_cell_setting 'orthorhombic'
loop_
_space_group_symop_operation_xyz
x,y,z
-x,-y,z
1/2-x,y,1/2+z
1/2+x,-y,1/2+z
x,1/2+y,1/2+z
-x,1/2-y,1/2+z
1/2-x,1/2+y,z
1/2+x,1/2-y,z
loop_
_atom_site_type_symbol
_atom_site_label
_atom_site_fract_x
_atom_site_fract_y
_atom_site_fract_z
Si Si1 0.000000 0.000000 0.906141
Si Si2 0.198025 0.266809 0.588736
Si Si3 0.308247 0.004987 0.652527
Si Si4 0.461211 0.288200 0.695306
O O1 0.089279 0.030510 0.075414
O O2 0.029861 0.905771 0.728879
O O3 0.220361 0.234399 0.892100
O O4 0.193791 0.385837 0.625631
O O5 0.117511 0.246729 0.383449
O O6 0.272161 0.034471 0.947621
O O7 0.460317 0.259352 0.381299
#
# Coordination Sequence:
#
# PCOD9367526 Si02
#       4
#     4   8   8   8
#     4  10  24  44  68  90 132 172 200 268 324 354
#     4   9  17  34  58  82 117 160 198 249 306 358
#     4   9  19  35  59  90 119 159 210 249 305 378
#     4  11  24  41  63  94 124 161 212 253 309 382
#
# _framework density 28.029796000000001
#
# number of rings (size 3 to 8) (size 9 to 14) (size 15 to 20)
#    0.000    2.286    0.000    1.714    0.000   11.429 
#    0.000    8.571    0.000    0.000    0.000    0.000 
#    0.000    0.000    0.000    0.000    0.000    0.000 
#
# Total GULP energy -78267.629396 kJ/mol
# GULP energy per Si atom -5590.544957 kJ/mol
# Density = 2.796600 g / cm^3
# Si number density = 28.029796 Si / 1000 Ang^3
#
#
#
# Elastic Constant Matrix: (Units=GPa)
#
#
# Indices 1 2 3 4 5 6 
#
# 1 118.3674 -19.2601 -15.2152 0.0000 0.0000 0.0000
# 2 -19.2601 117.5064 -18.9787 0.0000 0.0000 0.0000
# 3 -15.2152 -18.9787 174.6828 0.0000 0.0000 0.0000
# 4 0.0000 0.0000 0.0000 20.2929 0.0000 0.0000
# 5 0.0000 0.0000 0.0000 0.0000 20.8937 0.0000
# 6 0.0000 0.0000 0.0000 0.0000 0.0000 29.0468
#
#
#
# Elastic Compliance Matrix: (Units=1/GPa)
#
#
# Indices 1 2 3 4 5 6 
#
# 1 0.008830 0.001600 0.000943 0.000000 0.000000 0.000000
# 2 0.001600 0.008952 0.001112 0.000000 0.000000 0.000000
# 3 0.000943 0.001112 0.005928 0.000000 0.000000 0.000000
# 4 0.000000 0.000000 0.000000 0.049278 0.000000 0.000000
# 5 0.000000 0.000000 0.000000 0.000000 0.047861 0.000000
# 6 0.000000 0.000000 0.000000 0.000000 0.000000 0.034427
#
#
# Mechanical properties :
#
#
# Convention : Reuss Voigt Hill
#
# Bulk Modulus (GPa) = 32.23942 33.73874 32.98908
# Shear Modulus (GPa) = 31.58425 44.98071 38.28248
#
# Velocity S-wave (km/s) = 3.36044 4.01027 3.69965
# Velocity P-wave (km/s) = 5.15592 5.78843 5.48131
#
# Compressibility (1/GPa) = 0.03101793
#
# Stress axis : x y z
#
# Youngs Moduli (GPa) = 113.25359 111.70763 168.70253
#
# Poissons Ratio (x) = -0.17868 -0.15906
# Poissons Ratio (y) = -0.18115 -0.18758
# Poissons Ratio (z) = -0.10678 -0.12421
#
# Static dielectric constant tensor:
#      x y z
#    x 2.753470 0.000000 0.000000 
#    y 0.000000 2.169400 0.000000 
#    z 0.000000 0.000000 2.038200 
# 
# From -- ./inp_files/161.got.cif
#   From: 2010.05.17/outbox.cif.g08.bks.cpg/sg41_1_cif.got.tgz:161.got - 2010.06.03 18:54:24.
