data_PCOD9367399
_publ_section_title
;
Structure prediction by ZEFSAII (Michael W. Deem and Ramdas Pophale) SiO2 
 PCOD9367399
Probable space group: A B A 2
;
_chemical_formula_sum "Si O2"
_cell_formula_units_Z 40
_cell_length_a 4.912515
_cell_length_b 26.734065
_cell_length_c 12.992295
_cell_angle_alpha 90.000000
_cell_angle_beta 90.000000
_cell_angle_gamma 90.000000
_cell_volume 1706.297530
_symmetry_space_group_name_H-M "A B A 2"
_symmetry_group_IT_number 41
_symmetry_cell_setting 'orthorhombic'
loop_
_space_group_symop_operation_xyz
x,y,z
-x,-y,z
1/2-x,y,1/2+z
1/2+x,-y,1/2+z
x,1/2+y,1/2+z
-x,1/2-y,1/2+z
1/2-x,1/2+y,z
1/2+x,1/2-y,z
loop_
_atom_site_type_symbol
_atom_site_label
_atom_site_fract_x
_atom_site_fract_y
_atom_site_fract_z
Si Si1 0.911405 0.596782 0.305050
Si Si2 0.388630 0.782369 0.642065
Si Si3 0.726026 0.467060 0.649060
Si Si4 0.903788 0.344998 0.814266
Si Si5 0.870740 0.372890 0.511898
O O1 0.599900 0.608618 0.282803
O O2 0.058689 0.551203 0.250397
O O3 0.100091 0.644518 0.272657
O O4 0.944554 0.598336 0.427485
O O5 0.087288 0.764103 0.620971
O O6 0.459600 0.798162 0.759940
O O7 0.474797 0.829811 0.573650
O O8 0.500000 0.500000 0.590227
O O9 0.771993 0.416411 0.585906
O O10 0.000000 0.500000 0.664231
O O11 0.856314 0.347467 0.936785
#
# Coordination Sequence:
#
# PCOD9367399 Si02
#       5
#     8   8   8   8   8
#     4  10  23  44  72  91 143 181 225 282 353 407
#     4  12  27  43  71 104 140 181 235 288 350 416
#     4  12  27  43  73 106 138 182 237 289 352 420
#     4  10  23  44  71  95 139 187 222 282 355 404
#     4  10  26  46  71  99 142 182 231 293 344 414
#
# _framework density 23.442571999999998
#
# number of rings (size 3 to 8) (size 9 to 14) (size 15 to 20)
#    1.200    0.000    2.000    2.400    5.600    3.200 
#    0.000    0.000    0.000    0.000    0.000    0.000 
#    0.000    0.000    0.000    0.000    0.000    0.000 
#
# Total GULP energy -111544.409799 kJ/mol
# GULP energy per Si atom -5577.220490 kJ/mol
# Density = 2.338922 g / cm^3
# Si number density = 23.442572 Si / 1000 Ang^3
#
#
#
# Elastic Constant Matrix: (Units=GPa)
#
#
# Indices 1 2 3 4 5 6 
#
# 1 90.3284 8.1528 19.8722 0.0000 0.0000 0.0000
# 2 8.1528 105.7086 52.4032 0.0000 0.0000 0.0000
# 3 19.8722 52.4032 109.5406 0.0000 0.0000 0.0000
# 4 0.0000 0.0000 0.0000 19.2453 0.0000 0.0000
# 5 0.0000 0.0000 0.0000 0.0000 13.7438 0.0000
# 6 0.0000 0.0000 0.0000 0.0000 0.0000 41.7247
#
#
#
# Elastic Compliance Matrix: (Units=1/GPa)
#
#
# Indices 1 2 3 4 5 6 
#
# 1 0.011534 0.000194 -0.002185 0.000000 0.000000 0.000000
# 2 0.000194 0.012404 -0.005969 0.000000 0.000000 0.000000
# 3 -0.002185 -0.005969 0.012381 0.000000 0.000000 0.000000
# 4 0.000000 0.000000 0.000000 0.051961 0.000000 0.000000
# 5 0.000000 0.000000 0.000000 0.000000 0.072760 0.000000
# 6 0.000000 0.000000 0.000000 0.000000 0.000000 0.023967
#
#
# Mechanical properties :
#
#
# Convention : Reuss Voigt Hill
#
# Bulk Modulus (GPa) = 49.02447 51.82600 50.42523
# Shear Modulus (GPa) = 24.07009 29.95273 27.01141
#
# Velocity S-wave (km/s) = 3.20780 3.57838 3.39814
# Velocity P-wave (km/s) = 5.88880 6.26328 6.07892
#
# Compressibility (1/GPa) = 0.02039798
#
# Stress axis : x y z
#
# Youngs Moduli (GPa) = 86.70057 80.61829 80.76880
#
# Poissons Ratio (x) = -0.01561 0.17648
# Poissons Ratio (y) = -0.01679 0.48212
# Poissons Ratio (z) = 0.18945 0.48122
#
# Static dielectric constant tensor:
#      x y z
#    x 1.890720 0.000000 0.000000 
#    y 0.000000 1.887530 0.000000 
#    z 0.000000 0.000000 1.928590 
# 
# From -- ./inp_files/6845.got.cif
#   From: 2010.05.17/outbox.cif.g08.bks.cpg/sg41_4_cif.got.tgz:6845.got - 2010.06.03 18:54:24.
