data_PCOD9367102
_publ_section_title
;
Structure prediction by ZEFSAII (Michael W. Deem and Ramdas Pophale) SiO2 
 PCOD9367102
Probable space group: A B A 2
;
_chemical_formula_sum "Si O2"
_cell_formula_units_Z 48
_cell_length_a 19.948997
_cell_length_b 17.620190
_cell_length_c 5.757468
_cell_angle_alpha 90.000000
_cell_angle_beta 90.000000
_cell_angle_gamma 90.000000
_cell_volume 2023.779466
_symmetry_space_group_name_H-M "A B A 2"
_symmetry_group_IT_number 41
_symmetry_cell_setting 'orthorhombic'
loop_
_space_group_symop_operation_xyz
x,y,z
-x,-y,z
1/2-x,y,1/2+z
1/2+x,-y,1/2+z
x,1/2+y,1/2+z
-x,1/2-y,1/2+z
1/2-x,1/2+y,z
1/2+x,1/2-y,z
loop_
_atom_site_type_symbol
_atom_site_label
_atom_site_fract_x
_atom_site_fract_y
_atom_site_fract_z
Si Si1 0.916492 0.270451 0.349520
Si Si2 0.987185 0.630607 0.037571
Si Si3 0.280007 0.361569 0.839225
Si Si4 0.733774 0.308627 0.768629
Si Si5 0.939872 0.406698 0.640608
Si Si6 0.416130 0.443153 0.918936
O O1 0.935669 0.184399 0.398949
O O2 0.843789 0.283969 0.244001
O O3 0.915820 0.323137 0.578129
O O4 0.976486 0.308455 0.204626
O O5 0.050300 0.592047 0.912476
O O6 0.944853 0.566123 0.161470
O O7 0.263358 0.387039 0.570129
O O8 0.273347 0.270888 0.805917
O O9 0.353367 0.387999 0.917794
O O10 0.755836 0.346945 0.524449
O O11 0.900362 0.472867 0.511074
O O12 0.017752 0.418324 0.562213
#
# Coordination Sequence:
#
# PCOD9367102 Si02
#       6
#     8   8   8   8   8   8
#     4  11  23  39  67 105 136 175 239 287 365 423
#     4  11  22  40  72 101 141 180 228 308 360 428
#     4  10  22  41  66  99 128 181 234 291 343 418
#     4  10  23  38  65  95 132 180 230 289 348 418
#     4  10  24  42  66 102 137 185 221 301 362 420
#     4  10  24  43  68 101 136 180 243 283 365 425
#
# _framework density 23.718001000000001
#
# number of rings (size 3 to 8) (size 9 to 14) (size 15 to 20)
#    0.000    1.667    1.667    2.000    9.333    5.333 
#    0.000    1.667    0.000    0.000    0.000    0.000 
#    0.000    0.000    0.000    0.000    0.000    0.000 
#
# Total GULP energy -133732.867017 kJ/mol
# GULP energy per Si atom -5572.202792 kJ/mol
# Density = 2.366402 g / cm^3
# Si number density = 23.718001 Si / 1000 Ang^3
#
#
#
# Elastic Constant Matrix: (Units=GPa)
#
#
# Indices 1 2 3 4 5 6 
#
# 1 53.3103 -8.8257 -17.7214 0.0000 0.0000 0.0000
# 2 -8.8257 74.7876 7.8647 0.0000 0.0000 0.0000
# 3 -17.7214 7.8647 70.2296 0.0000 0.0000 0.0000
# 4 0.0000 0.0000 0.0000 16.6193 0.0000 0.0000
# 5 0.0000 0.0000 0.0000 0.0000 19.6658 0.0000
# 6 0.0000 0.0000 0.0000 0.0000 0.0000 22.2014
#
#
#
# Elastic Compliance Matrix: (Units=1/GPa)
#
#
# Indices 1 2 3 4 5 6 
#
# 1 0.020745 0.001920 0.005020 0.000000 0.000000 0.000000
# 2 0.001920 0.013708 -0.001051 0.000000 0.000000 0.000000
# 3 0.005020 -0.001051 0.015623 0.000000 0.000000 0.000000
# 4 0.000000 0.000000 0.000000 0.060171 0.000000 0.000000
# 5 0.000000 0.000000 0.000000 0.000000 0.050850 0.000000
# 6 0.000000 0.000000 0.000000 0.000000 0.000000 0.045042
#
#
# Mechanical properties :
#
#
# Convention : Reuss Voigt Hill
#
# Bulk Modulus (GPa) = 16.16697 17.88474 17.02585
# Shear Modulus (GPa) = 23.25808 26.16461 24.71135
#
# Velocity S-wave (km/s) = 3.13486 3.32498 3.23132
# Velocity P-wave (km/s) = 4.46478 4.72203 4.59521
#
# Compressibility (1/GPa) = 0.06185452
#
# Stress axis : x y z
#
# Youngs Moduli (GPa) = 48.20531 72.94854 64.00709
#
# Poissons Ratio (x) = -0.14008 -0.32129
# Poissons Ratio (y) = -0.09257 0.06725
# Poissons Ratio (z) = -0.24197 0.07664
#
# Static dielectric constant tensor:
#      x y z
#    x 1.907990 0.000000 0.000000 
#    y 0.000000 1.865190 0.000000 
#    z 0.000000 0.000000 2.187850 
# 
# From -- ./inp_files/705.got.cif
#   From: 2010.05.17/outbox.cif.g08.bks.cpg/sg41_1_cif.got.tgz:705.got - 2010.06.03 18:54:24.
