data_PCOD9367830
_publ_section_title
;
Structure prediction by ZEFSAII (Michael W. Deem and Ramdas Pophale) SiO2 
 PCOD9367830
Probable space group: A B A 2
;
_chemical_formula_sum "Si O2"
_cell_formula_units_Z 48
_cell_length_a 9.090440
_cell_length_b 14.875017
_cell_length_c 16.052689
_cell_angle_alpha 90.000000
_cell_angle_beta 90.000000
_cell_angle_gamma 90.000000
_cell_volume 2170.651823
_symmetry_space_group_name_H-M "A B A 2"
_symmetry_group_IT_number 41
_symmetry_cell_setting 'orthorhombic'
loop_
_space_group_symop_operation_xyz
x,y,z
-x,-y,z
1/2-x,y,1/2+z
1/2+x,-y,1/2+z
x,1/2+y,1/2+z
-x,1/2-y,1/2+z
1/2-x,1/2+y,z
1/2+x,1/2-y,z
loop_
_atom_site_type_symbol
_atom_site_label
_atom_site_fract_x
_atom_site_fract_y
_atom_site_fract_z
Si Si1 0.375550 0.063442 0.568400
Si Si2 0.595488 0.912132 0.752344
Si Si3 0.904320 0.745326 0.364572
Si Si4 0.608845 0.570602 0.575090
Si Si5 0.650099 0.753474 0.478646
Si Si6 0.548612 0.905826 0.252466
O O1 0.440637 0.103481 0.654679
O O2 0.314004 0.149561 0.518940
O O3 0.500000 0.000000 0.526438
O O4 0.249450 0.991985 0.592313
O O5 0.555518 0.836228 0.817708
O O6 0.774481 0.908496 0.753815
O O7 0.500000 0.000000 0.774074
O O8 0.734689 0.742463 0.390914
O O9 0.979451 0.738846 0.454574
O O10 0.966336 0.668594 0.305762
O O11 0.500000 0.500000 0.527359
O O12 0.660422 0.662270 0.531546
O O13 0.519266 0.596953 0.658885
O O14 0.500000 0.000000 0.290247
#
# Coordination Sequence:
#
# PCOD9367830 Si02
#       6
#     8   8   8   8   8   8
#     4  11  24  46  71 102 136 188 244 297 353 419
#     4  11  25  47  74 103 139 185 241 290 349 420
#     4  12  27  45  68 104 148 185 225 289 363 429
#     4  11  23  46  74  99 138 186 242 299 351 415
#     4  12  27  45  68 106 147 187 234 292 364 427
#     4  11  24  47  72 103 137 186 239 294 346 416
#
# _framework density 22.113171999999999
#
# number of rings (size 3 to 8) (size 9 to 14) (size 15 to 20)
#    0.000    0.667    5.000    3.000    2.333    4.000 
#    9.000    0.000    0.000    0.000    0.000    0.000 
#    0.000    0.000    0.000    0.000    0.000    0.000 
#
# Total GULP energy -133851.814741 kJ/mol
# GULP energy per Si atom -5577.158948 kJ/mol
# Density = 2.206284 g / cm^3
# Si number density = 22.113172 Si / 1000 Ang^3
#
#
#
# Elastic Constant Matrix: (Units=GPa)
#
#
# Indices 1 2 3 4 5 6 
#
# 1 80.5284 44.8550 27.8783 0.0000 0.0000 0.0000
# 2 44.8550 177.2108 78.0043 0.0000 0.0000 0.0000
# 3 27.8783 78.0043 69.7341 0.0000 0.0000 0.0000
# 4 0.0000 0.0000 0.0000 56.3375 0.0000 0.0000
# 5 0.0000 0.0000 0.0000 0.0000 49.7805 0.0000
# 6 0.0000 0.0000 0.0000 0.0000 0.0000 20.5880
#
#
#
# Elastic Compliance Matrix: (Units=1/GPa)
#
#
# Indices 1 2 3 4 5 6 
#
# 1 0.014858 -0.002258 -0.003414 0.000000 0.000000 0.000000
# 2 -0.002258 0.011460 -0.011916 0.000000 0.000000 0.000000
# 3 -0.003414 -0.011916 0.029034 0.000000 0.000000 0.000000
# 4 0.000000 0.000000 0.000000 0.017750 0.000000 0.000000
# 5 0.000000 0.000000 0.000000 0.000000 0.020088 0.000000
# 6 0.000000 0.000000 0.000000 0.000000 0.000000 0.048572
#
#
# Mechanical properties :
#
#
# Convention : Reuss Voigt Hill
#
# Bulk Modulus (GPa) = 49.56511 69.88318 59.72414
# Shear Modulus (GPa) = 27.22368 37.12358 32.17363
#
# Velocity S-wave (km/s) = 3.51252 4.10176 3.81852
# Velocity P-wave (km/s) = 6.23806 7.35552 6.81972
#
# Compressibility (1/GPa) = 0.02017548
#
# Stress axis : x y z
#
# Youngs Moduli (GPa) = 67.30572 87.26198 34.44182
#
# Poissons Ratio (x) = 0.19703 0.11759
# Poissons Ratio (y) = 0.15197 0.41041
# Poissons Ratio (z) = 0.22979 1.03983
#
# Static dielectric constant tensor:
#      x y z
#    x 1.777650 0.000000 0.000000 
#    y 0.000000 1.793790 0.000000 
#    z 0.000000 0.000000 1.827570 
# 
# From -- ./inp_files/9664.got.cif
#   From: 2010.05.17/outbox.cif.g08.bks.cpg/sg41_5_cif.got.tgz:9664.got - 2010.06.03 18:54:24.
