data_PCOD9367057
_publ_section_title
;
Structure prediction by ZEFSAII (Michael W. Deem and Ramdas Pophale) SiO2 
 PCOD9367057
Probable space group: A B A 2
;
_chemical_formula_sum "Si O2"
_cell_formula_units_Z 56
_cell_length_a 28.836627
_cell_length_b 14.621660
_cell_length_c 5.561231
_cell_angle_alpha 90.000000
_cell_angle_beta 90.000000
_cell_angle_gamma 90.000000
_cell_volume 2344.833855
_symmetry_space_group_name_H-M "A B A 2"
_symmetry_group_IT_number 41
_symmetry_cell_setting 'orthorhombic'
loop_
_space_group_symop_operation_xyz
x,y,z
-x,-y,z
1/2-x,y,1/2+z
1/2+x,-y,1/2+z
x,1/2+y,1/2+z
-x,1/2-y,1/2+z
1/2-x,1/2+y,z
1/2+x,1/2-y,z
loop_
_atom_site_type_symbol
_atom_site_label
_atom_site_fract_x
_atom_site_fract_y
_atom_site_fract_z
Si Si1 0.627979 0.732372 0.305130
Si Si2 0.461094 0.664342 0.027391
Si Si3 0.061074 0.777948 0.917016
Si Si4 0.125294 0.978267 0.362356
Si Si5 0.769947 0.970041 0.352044
Si Si6 0.427092 0.484742 0.844148
Si Si7 0.233014 0.735853 0.359609
O O1 0.581256 0.780813 0.401662
O O2 0.632061 0.630191 0.403922
O O3 0.677417 0.776941 0.350048
O O4 0.612248 0.722390 0.029812
O O5 0.443485 0.678307 0.297808
O O6 0.511465 0.711480 0.050585
O O7 0.463029 0.566305 0.904278
O O8 0.059458 0.878921 0.791605
O O9 0.175209 0.022428 0.336337
O O10 0.100613 0.013628 0.604760
O O11 0.099367 0.985028 0.104133
O O12 0.752249 0.008850 0.606958
O O13 0.756224 0.863699 0.359549
O O14 0.249726 0.780524 0.609778
#
# Coordination Sequence:
#
# PCOD9367057 Si02
#       7
#     8   8   8   8   8   8   8
#     4  11  26  45  74 104 151 198 249 310 390 445
#     4  12  25  44  79 105 152 204 246 320 379 456
#     4  11  25  50  69 117 151 196 257 318 377 469
#     4  11  25  46  68 107 146 193 244 315 369 459
#     4  10  22  40  65  94 139 179 240 302 367 434
#     4  11  27  44  76 107 149 197 251 300 388 453
#     4  10  25  41  66 102 138 183 251 302 366 452
#
# _framework density 23.882289
#
# number of rings (size 3 to 8) (size 9 to 14) (size 15 to 20)
#    0.000    1.143    2.857    1.286   12.000    1.143 
#    0.000    1.429    0.000    0.000    0.000    0.000 
#    0.000    0.000    0.000    0.000    0.000    0.000 
#
# Total GULP energy -155940.055228 kJ/mol
# GULP energy per Si atom -5569.287687 kJ/mol
# Density = 2.382793 g / cm^3
# Si number density = 23.882289 Si / 1000 Ang^3
#
#
#
# Elastic Constant Matrix: (Units=GPa)
#
#
# Indices 1 2 3 4 5 6 
#
# 1 138.6181 26.8185 37.6150 0.0000 0.0000 0.0000
# 2 26.8185 100.4881 18.3285 0.0000 0.0000 0.0000
# 3 37.6150 18.3285 131.6850 0.0000 0.0000 0.0000
# 4 0.0000 0.0000 0.0000 17.6393 0.0000 0.0000
# 5 0.0000 0.0000 0.0000 0.0000 -165.3080 0.0000
# 6 0.0000 0.0000 0.0000 0.0000 0.0000 102.0458
#
#
#
# Elastic Compliance Matrix: (Units=1/GPa)
#
#
# Indices 1 2 3 4 5 6 
#
# 1 0.008122 -0.001790 -0.002071 0.000000 0.000000 0.000000
# 2 -0.001790 0.010605 -0.000965 0.000000 0.000000 0.000000
# 3 -0.002071 -0.000965 0.008320 0.000000 0.000000 0.000000
# 4 0.000000 0.000000 0.000000 0.056692 0.000000 0.000000
# 5 0.000000 0.000000 0.000000 0.000000 -0.006049 0.000000
# 6 0.000000 0.000000 0.000000 0.000000 0.000000 0.009800
#
#
# Mechanical properties :
#
#
# Convention : Reuss Voigt Hill
#
# Bulk Modulus (GPa) = 57.48529 59.59058 58.53794
# Shear Modulus (GPa) = 48.57251 10.07736 29.32494
#
# Velocity S-wave (km/s) = 4.51469 2.05639 3.50793
# Velocity P-wave (km/s) = 7.16234 5.53573 6.40091
#
# Compressibility (1/GPa) = 0.01739575
#
# Stress axis : x y z
#
# Youngs Moduli (GPa) = 123.11720 94.29417 120.19637
#
# Poissons Ratio (x) = 0.16878 0.24892
# Poissons Ratio (y) = 0.22038 0.11596
# Poissons Ratio (z) = 0.25497 0.09097
#
# Static dielectric constant tensor:
#      x y z
#    x 1.961230 0.000000 0.000000 
#    y 0.000000 1.887710 0.000000 
#    z 0.000000 0.000000 2.275800 
# 
# From -- ./inp_files/1328.got.cif
#   From: 2010.05.17/outbox.cif.g08.bks.cpg/sg41_1_cif.got.tgz:1328.got - 2010.06.03 18:54:24.
