data_PCOD9367624
_publ_section_title
;
Structure prediction by ZEFSAII (Michael W. Deem and Ramdas Pophale) SiO2 
 PCOD9367624
Probable space group: A B A 2
;
_chemical_formula_sum "Si O2"
_cell_formula_units_Z 40
_cell_length_a 18.890494
_cell_length_b 5.201705
_cell_length_c 15.246689
_cell_angle_alpha 90.000000
_cell_angle_beta 90.000000
_cell_angle_gamma 90.000000
_cell_volume 1498.182003
_symmetry_space_group_name_H-M "A B A 2"
_symmetry_group_IT_number 41
_symmetry_cell_setting 'orthorhombic'
loop_
_space_group_symop_operation_xyz
x,y,z
-x,-y,z
1/2-x,y,1/2+z
1/2+x,-y,1/2+z
x,1/2+y,1/2+z
-x,1/2-y,1/2+z
1/2-x,1/2+y,z
1/2+x,1/2-y,z
loop_
_atom_site_type_symbol
_atom_site_label
_atom_site_fract_x
_atom_site_fract_y
_atom_site_fract_z
Si Si1 0.500000 0.000000 0.014390
Si Si2 0.773892 0.028077 0.071962
Si Si3 0.579278 0.611945 0.108326
Si Si4 0.000000 0.500000 0.387767
Si Si5 0.420917 0.113455 0.793514
Si Si6 0.786986 0.586590 0.880136
O O1 0.436815 0.092050 0.080275
O O2 0.510019 0.250992 0.951568
O O3 0.740710 0.791792 0.122390
O O4 0.856561 0.022134 0.046854
O O5 0.728141 0.084030 0.984427
O O6 0.500000 0.500000 0.104551
O O7 0.606283 0.493474 0.200401
O O8 0.063431 0.408640 0.322531
O O9 0.366053 0.000315 0.862265
O O10 0.500000 0.000000 0.794801
O O11 0.764292 0.862177 0.845248
#
# Coordination Sequence:
#
# PCOD9367624 Si02
#       6
#     4   8   8   4   8   8
#     4  12  28  49  83 124 168 222 284 354 427 514
#     4  10  25  46  75 112 160 215 279 344 419 509
#     4  11  28  52  83 123 173 220 285 358 442 508
#     4  12  28  49  83 124 168 222 284 354 427 514
#     4  11  28  52  83 123 173 220 285 358 442 508
#     4  10  25  46  75 112 160 215 279 344 419 509
#
# _framework density 26.699026
#
# number of rings (size 3 to 8) (size 9 to 14) (size 15 to 20)
#    0.000    1.200    2.000    0.000   11.200    8.000 
#    0.000    0.000    0.000    0.000    0.000    0.000 
#    0.000    0.000    0.000    0.000    0.000    0.000 
#
# Total GULP energy -111522.521819 kJ/mol
# GULP energy per Si atom -5576.126091 kJ/mol
# Density = 2.663826 g / cm^3
# Si number density = 26.699026 Si / 1000 Ang^3
#
#
#
# Elastic Constant Matrix: (Units=GPa)
#
#
# Indices 1 2 3 4 5 6 
#
# 1 153.4399 14.0377 7.3301 0.0000 0.0000 0.0000
# 2 14.0377 148.6682 33.2336 0.0000 0.0000 0.0000
# 3 7.3301 33.2336 136.2660 0.0000 0.0000 0.0000
# 4 0.0000 0.0000 0.0000 11.6291 0.0000 0.0000
# 5 0.0000 0.0000 0.0000 0.0000 26.2687 0.0000
# 6 0.0000 0.0000 0.0000 0.0000 0.0000 48.5987
#
#
#
# Elastic Compliance Matrix: (Units=1/GPa)
#
#
# Indices 1 2 3 4 5 6 
#
# 1 0.006580 -0.000573 -0.000214 0.000000 0.000000 0.000000
# 2 -0.000573 0.007164 -0.001716 0.000000 0.000000 0.000000
# 3 -0.000214 -0.001716 0.007769 0.000000 0.000000 0.000000
# 4 0.000000 0.000000 0.000000 0.085991 0.000000 0.000000
# 5 0.000000 0.000000 0.000000 0.000000 0.038068 0.000000
# 6 0.000000 0.000000 0.000000 0.000000 0.000000 0.020577
#
#
# Mechanical properties :
#
#
# Convention : Reuss Voigt Hill
#
# Bulk Modulus (GPa) = 60.58790 60.84186 60.71488
# Shear Modulus (GPa) = 28.30319 42.88414 35.59366
#
# Velocity S-wave (km/s) = 3.25942 4.01210 3.65519
# Velocity P-wave (km/s) = 6.07514 6.65583 6.37210
#
# Compressibility (1/GPa) = 0.01650495
#
# Stress axis : x y z
#
# Youngs Moduli (GPa) = 151.97799 139.58243 128.72143
#
# Poissons Ratio (x) = 0.08004 0.02756
# Poissons Ratio (y) = 0.08715 0.22094
# Poissons Ratio (z) = 0.03254 0.23958
#
# Static dielectric constant tensor:
#      x y z
#    x 2.126420 0.000000 0.000000 
#    y 0.000000 2.527090 0.000000 
#    z 0.000000 0.000000 2.253800 
# 
# From -- ./inp_files/10509.got.cif
#   From: 2010.05.17/outbox.cif.g08.bks.cpg/sg41_6_cif.got.tgz:10509.got - 2010.06.03 18:54:24.
