data_PCOD9367383
_publ_section_title
;
Structure prediction by ZEFSAII (Michael W. Deem and Ramdas Pophale) SiO2 
 PCOD9367383
Probable space group: A B A 2
;
_chemical_formula_sum "Si O2"
_cell_formula_units_Z 56
_cell_length_a 19.924054
_cell_length_b 13.916959
_cell_length_c 8.362100
_cell_angle_alpha 90.000000
_cell_angle_beta 90.000000
_cell_angle_gamma 90.000000
_cell_volume 2318.661841
_symmetry_space_group_name_H-M "A B A 2"
_symmetry_group_IT_number 41
_symmetry_cell_setting 'orthorhombic'
loop_
_space_group_symop_operation_xyz
x,y,z
-x,-y,z
1/2-x,y,1/2+z
1/2+x,-y,1/2+z
x,1/2+y,1/2+z
-x,1/2-y,1/2+z
1/2-x,1/2+y,z
1/2+x,1/2-y,z
loop_
_atom_site_type_symbol
_atom_site_label
_atom_site_fract_x
_atom_site_fract_y
_atom_site_fract_z
Si Si1 0.146104 0.616911 0.065390
Si Si2 0.140741 0.409202 0.561923
Si Si3 0.359259 0.909202 0.200057
Si Si4 0.353896 0.616912 0.196590
Si Si5 0.750000 0.243927 0.130990
Si Si6 0.496938 0.616193 0.698557
Si Si7 0.996938 0.883807 0.063424
O O1 0.156416 0.503591 0.097716
O O2 0.067928 0.639628 0.094866
O O3 0.335899 0.639227 0.380990
O O4 0.193233 0.678747 0.182793
O O5 0.126237 0.443482 0.380990
O O6 0.156416 0.503591 0.664264
O O7 0.200017 0.333075 0.551699
O O8 0.071853 0.359355 0.621793
O O9 0.428147 0.859355 0.140188
O O10 0.299983 0.833075 0.210281
O O11 0.306767 0.678747 0.079186
O O12 0.432073 0.639628 0.167114
O O13 0.500000 0.500000 0.699877
O O14 0.487862 0.650527 0.880990
O O15 0.000000 0.000000 0.062104
#
# Coordination Sequence:
#
# PCOD9367383 Si02
#       7
#     8   8   8   8   8   8   8
#     4  11  24  41  64  96 129 162 207 262 319 377
#     4  10  23  44  67  91 123 167 216 261 310 372
#     4  10  23  44  67  91 123 167 216 261 310 372
#     4  11  24  41  64  96 129 162 207 262 319 377
#     4  12  26  40  60  90 130 170 210 254 308 374
#     4   8  17  38  66  91 120 162 209 258 311 368
#     4   8  17  38  66  91 120 162 209 258 311 368
#
# _framework density 24.151862000000001
#
# number of rings (size 3 to 8) (size 9 to 14) (size 15 to 20)
#    0.000    2.000    0.000    4.286    0.000   15.429 
#    0.000    0.000    0.000    0.000    0.000    0.000 
#    0.000    0.000    0.000    0.000    0.000    0.000 
#
# Total GULP energy -156035.918847 kJ/mol
# GULP energy per Si atom -5572.711387 kJ/mol
# Density = 2.409689 g / cm^3
# Si number density = 24.151862 Si / 1000 Ang^3
#
#
#
# Elastic Constant Matrix: (Units=GPa)
#
#
# Indices 1 2 3 4 5 6 
#
# 1 188.4173 49.1768 45.4285 0.0000 0.0000 0.0000
# 2 49.1768 138.8228 31.0782 0.0000 0.0000 0.0000
# 3 45.4285 31.0782 55.2135 0.0000 0.0000 0.0000
# 4 0.0000 0.0000 0.0000 -4.3045 0.0000 0.0000
# 5 0.0000 0.0000 0.0000 0.0000 -32.7403 0.0000
# 6 0.0000 0.0000 0.0000 0.0000 0.0000 521.9189
#
#
#
# Elastic Compliance Matrix: (Units=1/GPa)
#
#
# Indices 1 2 3 4 5 6 
#
# 1 0.006828 -0.001329 -0.004870 0.000000 0.000000 0.000000
# 2 -0.001329 0.008500 -0.003692 0.000000 0.000000 0.000000
# 3 -0.004870 -0.003692 0.024197 0.000000 0.000000 0.000000
# 4 0.000000 0.000000 0.000000 -0.232316 0.000000 0.000000
# 5 0.000000 0.000000 0.000000 0.000000 -0.030543 0.000000
# 6 0.000000 0.000000 0.000000 0.000000 0.000000 0.001916
#
#
# Mechanical properties :
#
#
# Convention : Reuss Voigt Hill
#
# Bulk Modulus (GPa) = 50.64726 70.42451 60.53589
# Shear Modulus (GPa) = -25.63385 114.09282 44.22948
#
# Velocity S-wave (km/s) = -3.26139 6.88058 4.28402
# Velocity P-wave (km/s) = 2.61413 9.60965 7.04198
#
# Compressibility (1/GPa) = 0.01974440
#
# Stress axis : x y z
#
# Youngs Moduli (GPa) = 146.44675 117.64026 41.32793
#
# Poissons Ratio (x) = 0.15629 0.20129
# Poissons Ratio (y) = 0.19456 0.15257
# Poissons Ratio (z) = 0.71326 0.43428
#
# Static dielectric constant tensor:
#      x y z
#    x 1.964700 0.000000 0.000000 
#    y 0.000000 1.913070 0.000000 
#    z 0.000000 0.000000 1.905260 
# 
# From -- ./inp_files/8858.got.cif
#   From: 2010.05.17/outbox.cif.g08.bks.cpg/sg41_5_cif.got.tgz:8858.got - 2010.06.03 18:54:24.
