data_PCOD9367503
_publ_section_title
;
Structure prediction by ZEFSAII (Michael W. Deem and Ramdas Pophale) SiO2 
 PCOD9367503
Probable space group: A B A 2
;
_chemical_formula_sum "Si O2"
_cell_formula_units_Z 40
_cell_length_a 9.013929
_cell_length_b 21.497523
_cell_length_c 8.693644
_cell_angle_alpha 90.000000
_cell_angle_beta 90.000000
_cell_angle_gamma 90.000000
_cell_volume 1684.629523
_symmetry_space_group_name_H-M "A B A 2"
_symmetry_group_IT_number 41
_symmetry_cell_setting 'orthorhombic'
loop_
_space_group_symop_operation_xyz
x,y,z
-x,-y,z
1/2-x,y,1/2+z
1/2+x,-y,1/2+z
x,1/2+y,1/2+z
-x,1/2-y,1/2+z
1/2-x,1/2+y,z
1/2+x,1/2-y,z
loop_
_atom_site_type_symbol
_atom_site_label
_atom_site_fract_x
_atom_site_fract_y
_atom_site_fract_z
Si Si1 0.361106 0.038285 0.420650
Si Si2 0.100173 0.103822 0.601760
Si Si3 0.608353 0.553590 0.335556
Si Si4 0.941868 0.725614 0.034625
Si Si5 0.136925 0.813902 0.193979
O O1 0.255039 0.078011 0.532962
O O2 0.406896 0.081458 0.276602
O O3 0.500000 0.000000 0.480061
O O4 0.259828 0.981843 0.359468
O O5 0.967481 0.075601 0.496344
O O6 0.073642 0.177006 0.577768
O O7 0.500000 0.500000 0.280810
O O8 0.626743 0.613018 0.228187
O O9 0.797591 0.705871 0.131954
O O10 0.009300 0.792043 0.077235
O O11 0.899356 0.718601 0.856933
#
# Coordination Sequence:
#
# PCOD9367503 Si02
#       5
#     8   8   8   8   8
#     4  11  21  39  68  99 134 176 226 283 342 407
#     4  10  24  43  64  97 140 178 225 279 342 413
#     4   9  21  42  66  96 137 180 223 279 346 412
#     4  11  25  47  71 102 139 184 235 288 346 413
#     4  11  24  45  73 100 137 182 232 289 347 413
#
# _framework density 23.744094
#
# number of rings (size 3 to 8) (size 9 to 14) (size 15 to 20)
#    0.000    1.600    0.000    4.200    0.000   12.000 
#    0.000   16.000    0.000    0.000    0.000    0.000 
#    0.000    0.000    0.000    0.000    0.000    0.000 
#
# Total GULP energy -112005.182410 kJ/mol
# GULP energy per Si atom -5600.259120 kJ/mol
# Density = 2.369005 g / cm^3
# Si number density = 23.744094 Si / 1000 Ang^3
#
#
#
# Elastic Constant Matrix: (Units=GPa)
#
#
# Indices 1 2 3 4 5 6 
#
# 1 99.7101 36.7381 4.1730 0.0000 0.0000 0.0000
# 2 36.7381 78.7543 8.1475 0.0000 0.0000 0.0000
# 3 4.1730 8.1475 89.0444 0.0000 0.0000 0.0000
# 4 0.0000 0.0000 0.0000 15.0080 0.0000 0.0000
# 5 0.0000 0.0000 0.0000 0.0000 19.6931 0.0000
# 6 0.0000 0.0000 0.0000 0.0000 0.0000 16.9222
#
#
#
# Elastic Compliance Matrix: (Units=1/GPa)
#
#
# Indices 1 2 3 4 5 6 
#
# 1 0.012111 -0.005644 -0.000051 0.000000 0.000000 0.000000
# 2 -0.005644 0.015450 -0.001149 0.000000 0.000000 0.000000
# 3 -0.000051 -0.001149 0.011338 0.000000 0.000000 0.000000
# 4 0.000000 0.000000 0.000000 0.066631 0.000000 0.000000
# 5 0.000000 0.000000 0.000000 0.000000 0.050779 0.000000
# 6 0.000000 0.000000 0.000000 0.000000 0.000000 0.059094
#
#
# Mechanical properties :
#
#
# Convention : Reuss Voigt Hill
#
# Bulk Modulus (GPa) = 39.66793 40.62512 40.14653
# Shear Modulus (GPa) = 21.05311 24.88802 22.97057
#
# Velocity S-wave (km/s) = 2.98093 3.24107 3.11372
# Velocity P-wave (km/s) = 5.34702 5.58147 5.46550
#
# Compressibility (1/GPa) = 0.02520928
#
# Stress axis : x y z
#
# Youngs Moduli (GPa) = 82.57056 64.72652 88.19986
#
# Poissons Ratio (x) = 0.36534 0.00451
# Poissons Ratio (y) = 0.46605 0.10135
# Poissons Ratio (z) = 0.00422 0.07438
#
# Static dielectric constant tensor:
#      x y z
#    x 1.766430 0.000000 0.000000 
#    y 0.000000 1.896520 0.000000 
#    z 0.000000 0.000000 1.903190 
# 
# From -- ./inp_files/1694.got.cif
#   From: 2010.05.17/outbox.cif.g08.bks.cpg/sg41_1_cif.got.tgz:1694.got - 2010.06.03 18:54:24.
