data_PCOD9367417
_publ_section_title
;
Structure prediction by ZEFSAII (Michael W. Deem and Ramdas Pophale) SiO2 
 PCOD9367417
Probable space group: A B A 2
;
_chemical_formula_sum "Si O2"
_cell_formula_units_Z 40
_cell_length_a 8.350263
_cell_length_b 20.049487
_cell_length_c 10.045507
_cell_angle_alpha 90.000000
_cell_angle_beta 90.000000
_cell_angle_gamma 90.000000
_cell_volume 1681.803608
_symmetry_space_group_name_H-M "A B A 2"
_symmetry_group_IT_number 41
_symmetry_cell_setting 'orthorhombic'
loop_
_space_group_symop_operation_xyz
x,y,z
-x,-y,z
1/2-x,y,1/2+z
1/2+x,-y,1/2+z
x,1/2+y,1/2+z
-x,1/2-y,1/2+z
1/2-x,1/2+y,z
1/2+x,1/2-y,z
loop_
_atom_site_type_symbol
_atom_site_label
_atom_site_fract_x
_atom_site_fract_y
_atom_site_fract_z
Si Si1 0.662266 0.655819 0.462880
Si Si2 0.933040 0.930393 0.586610
Si Si3 0.841894 0.223491 0.193823
Si Si4 0.836641 0.347287 0.592161
Si Si5 0.467062 0.923290 0.385198
O O1 0.489186 0.622730 0.475550
O O2 0.713452 0.683324 0.605840
O O3 0.679173 0.712878 0.351207
O O4 0.790869 0.599396 0.427475
O O5 0.747709 0.918451 0.623215
O O6 0.021044 0.921839 0.727010
O O7 0.000000 0.000000 0.534848
O O8 0.806639 0.296855 0.136792
O O9 0.011526 0.188082 0.162149
O O10 0.912862 0.368056 0.449095
O O11 0.500000 0.000000 0.426543
#
# Coordination Sequence:
#
# PCOD9367417 Si02
#       5
#     8   8   8   8   8
#     4  11  23  46  67 108 140 196 236 308 364 444
#     4  11  24  44  72 104 147 194 246 303 371 436
#     4  11  26  42  73 100 149 183 249 293 383 433
#     4  11  26  45  71 106 142 196 241 310 363 444
#     4  10  23  45  72 104 147 191 254 304 365 439
#
# _framework density 23.783989999999999
#
# number of rings (size 3 to 8) (size 9 to 14) (size 15 to 20)
#    0.000    1.200    2.000    2.400    5.600    1.600 
#    0.000    1.000    0.000    0.000    0.000    0.000 
#    0.000    0.000    0.000    0.000    0.000    0.000 
#
# Total GULP energy -111402.177091 kJ/mol
# GULP energy per Si atom -5570.108855 kJ/mol
# Density = 2.372986 g / cm^3
# Si number density = 23.783990 Si / 1000 Ang^3
#
#
#
# Elastic Constant Matrix: (Units=GPa)
#
#
# Indices 1 2 3 4 5 6 
#
# 1 81.6429 52.4058 3.0520 0.0000 0.0000 0.0000
# 2 52.4058 114.8856 37.7822 0.0000 0.0000 0.0000
# 3 3.0520 37.7822 70.4082 0.0000 0.0000 0.0000
# 4 0.0000 0.0000 0.0000 40.7169 0.0000 0.0000
# 5 0.0000 0.0000 0.0000 0.0000 5.9589 0.0000
# 6 0.0000 0.0000 0.0000 0.0000 0.0000 32.1574
#
#
#
# Elastic Compliance Matrix: (Units=1/GPa)
#
#
# Indices 1 2 3 4 5 6 
#
# 1 0.018427 -0.009888 0.004507 0.000000 0.000000 0.000000
# 2 -0.009888 0.015875 -0.008090 0.000000 0.000000 0.000000
# 3 0.004507 -0.008090 0.018349 0.000000 0.000000 0.000000
# 4 0.000000 0.000000 0.000000 0.024560 0.000000 0.000000
# 5 0.000000 0.000000 0.000000 0.000000 0.167815 0.000000
# 6 0.000000 0.000000 0.000000 0.000000 0.000000 0.031097
#
#
# Mechanical properties :
#
#
# Convention : Reuss Voigt Hill
#
# Bulk Modulus (GPa) = 38.89657 50.37964 44.63811
# Shear Modulus (GPa) = 16.04443 27.34644 21.69544
#
# Velocity S-wave (km/s) = 2.60010 3.39452 3.02352
# Velocity P-wave (km/s) = 5.04020 6.04912 5.56756
#
# Compressibility (1/GPa) = 0.02570921
#
# Stress axis : x y z
#
# Youngs Moduli (GPa) = 54.26863 62.99074 54.49906
#
# Poissons Ratio (x) = 0.62284 -0.24564
# Poissons Ratio (y) = 0.53660 0.44092
# Poissons Ratio (z) = -0.24460 0.50962
#
# Static dielectric constant tensor:
#      x y z
#    x 1.984140 0.000000 0.000000 
#    y 0.000000 2.025190 0.000000 
#    z 0.000000 0.000000 1.851830 
# 
# From -- ./inp_files/1703.got.cif
#   From: 2010.05.17/outbox.cif.g08.bks.cpg/sg41_1_cif.got.tgz:1703.got - 2010.06.03 18:54:24.
