data_PCOD9367186
_publ_section_title
;
Structure prediction by ZEFSAII (Michael W. Deem and Ramdas Pophale) SiO2 
 PCOD9367186
Probable space group: A B A 2
;
_chemical_formula_sum "Si O2"
_cell_formula_units_Z 64
_cell_length_a 13.935619
_cell_length_b 22.078138
_cell_length_c 9.419723
_cell_angle_alpha 90.000000
_cell_angle_beta 90.000000
_cell_angle_gamma 90.000000
_cell_volume 2898.189907
_symmetry_space_group_name_H-M "A B A 2"
_symmetry_group_IT_number 41
_symmetry_cell_setting 'orthorhombic'
loop_
_space_group_symop_operation_xyz
x,y,z
-x,-y,z
1/2-x,y,1/2+z
1/2+x,-y,1/2+z
x,1/2+y,1/2+z
-x,1/2-y,1/2+z
1/2-x,1/2+y,z
1/2+x,1/2-y,z
loop_
_atom_site_type_symbol
_atom_site_label
_atom_site_fract_x
_atom_site_fract_y
_atom_site_fract_z
Si Si1 0.580182 0.447131 0.859360
Si Si2 0.237725 0.782146 0.686301
Si Si3 0.107755 0.026606 0.561352
Si Si4 0.034683 0.868757 0.065997
Si Si5 0.704483 0.041581 0.513839
Si Si6 0.127441 0.743094 0.963791
Si Si7 0.326464 0.861447 0.919775
Si Si8 0.539099 0.378299 0.372318
O O1 0.500000 0.500000 0.848545
O O2 0.613063 0.432132 0.701745
O O3 0.530080 0.392545 0.937952
O O4 0.660774 0.480331 0.951813
O O5 0.166064 0.756471 0.804641
O O6 0.287914 0.734873 0.579798
O O7 0.315764 0.814584 0.789892
O O8 0.192738 0.829255 0.571802
O O9 0.109865 0.068447 0.421486
O O10 0.194268 0.978978 0.581272
O O11 0.000000 0.000000 0.558595
O O12 0.120049 0.919356 0.088706
O O13 0.969028 0.868136 0.205002
O O14 0.076101 0.803934 0.020240
O O15 0.741805 0.089976 0.397740
O O16 0.064550 0.683740 0.951244
O O17 0.429516 0.891811 0.916410
#
# Coordination Sequence:
#
# PCOD9367186 Si02
#       8
#     8   8   8   8   8   8   8   8
#     4   9  24  42  66  99 137 176 226 290 351 407
#     4  10  22  43  68 103 132 183 235 282 343 440
#     4  11  25  42  67 104 140 179 236 292 346 417
#     4  11  24  47  71 105 138 188 237 290 354 435
#     4  11  22  43  74  99 137 188 240 291 343 424
#     4  11  25  45  72 101 139 182 236 291 358 427
#     4  11  21  38  73 100 132 179 237 282 341 422
#     4  12  27  43  65 109 141 178 232 299 362 412
#
# _framework density 22.082747999999999
#
# number of rings (size 3 to 8) (size 9 to 14) (size 15 to 20)
#    0.000    1.250    5.000    0.000    7.000    2.500 
#    4.500    0.000    0.000    0.000    0.000    0.000 
#    0.000    0.000    0.000    0.000    0.000    0.000 
#
# Total GULP energy -178498.577899 kJ/mol
# GULP energy per Si atom -5578.080559 kJ/mol
# Density = 2.203249 g / cm^3
# Si number density = 22.082748 Si / 1000 Ang^3
#
#
#
# Elastic Constant Matrix: (Units=GPa)
#
#
# Indices 1 2 3 4 5 6 
#
# 1 41.5444 14.4489 9.4381 0.0000 0.0000 0.0000
# 2 14.4489 54.2422 21.4717 0.0000 0.0000 0.0000
# 3 9.4381 21.4717 119.7625 0.0000 0.0000 0.0000
# 4 0.0000 0.0000 0.0000 21.6924 0.0000 0.0000
# 5 0.0000 0.0000 0.0000 0.0000 23.4487 0.0000
# 6 0.0000 0.0000 0.0000 0.0000 0.0000 16.0104
#
#
#
# Elastic Compliance Matrix: (Units=1/GPa)
#
#
# Indices 1 2 3 4 5 6 
#
# 1 0.026616 -0.006738 -0.000890 0.000000 0.000000 0.000000
# 2 -0.006738 0.021550 -0.003333 0.000000 0.000000 0.000000
# 3 -0.000890 -0.003333 0.009017 0.000000 0.000000 0.000000
# 4 0.000000 0.000000 0.000000 0.046099 0.000000 0.000000
# 5 0.000000 0.000000 0.000000 0.000000 0.042646 0.000000
# 6 0.000000 0.000000 0.000000 0.000000 0.000000 0.062459
#
#
# Mechanical properties :
#
#
# Convention : Reuss Voigt Hill
#
# Bulk Modulus (GPa) = 28.35792 34.02960 31.19376
# Shear Modulus (GPa) = 20.65581 23.57631 22.11606
#
# Velocity S-wave (km/s) = 3.06172 3.27101 3.16810
# Velocity P-wave (km/s) = 5.03670 5.45064 5.24776
#
# Compressibility (1/GPa) = 0.03526351
#
# Stress axis : x y z
#
# Youngs Moduli (GPa) = 37.57126 46.40412 110.89612
#
# Poissons Ratio (x) = 0.31266 0.09865
# Poissons Ratio (y) = 0.25315 0.36957
# Poissons Ratio (z) = 0.03342 0.15465
#
# Static dielectric constant tensor:
#      x y z
#    x 1.870620 0.000000 0.000000 
#    y 0.000000 1.798720 0.000000 
#    z 0.000000 0.000000 1.834510 
# 
# From -- ./inp_files/2786.got.cif
#   From: 2010.05.17/outbox.cif.g08.bks.cpg/sg41_2_cif.got.tgz:2786.got - 2010.06.03 18:54:24.
