data_PCOD9367461
_publ_section_title
;
Structure prediction by ZEFSAII (Michael W. Deem and Ramdas Pophale) SiO2 
 PCOD9367461
Probable space group: A B A 2
;
_chemical_formula_sum "Si O2"
_cell_formula_units_Z 44
_cell_length_a 16.611878
_cell_length_b 10.939181
_cell_length_c 9.621359
_cell_angle_alpha 90.000000
_cell_angle_beta 90.000000
_cell_angle_gamma 90.000000
_cell_volume 1748.396631
_symmetry_space_group_name_H-M "A B A 2"
_symmetry_group_IT_number 41
_symmetry_cell_setting 'orthorhombic'
loop_
_space_group_symop_operation_xyz
x,y,z
-x,-y,z
1/2-x,y,1/2+z
1/2+x,-y,1/2+z
x,1/2+y,1/2+z
-x,1/2-y,1/2+z
1/2-x,1/2+y,z
1/2+x,1/2-y,z
loop_
_atom_site_type_symbol
_atom_site_label
_atom_site_fract_x
_atom_site_fract_y
_atom_site_fract_z
Si Si1 0.352838 0.587374 0.629510
Si Si2 0.654233 0.667381 0.744408
Si Si3 0.000000 0.000000 0.316045
Si Si4 0.467909 0.239582 0.975760
Si Si5 0.608411 0.397909 0.086258
Si Si6 0.760497 0.477649 0.381440
O O1 0.384326 0.453894 0.674658
O O2 0.419727 0.689798 0.610371
O O3 0.311736 0.565739 0.478390
O O4 0.288051 0.608253 0.753094
O O5 0.596680 0.713518 0.865390
O O6 0.736565 0.611225 0.809454
O O7 0.655153 0.775183 0.633347
O O8 0.009461 0.879218 0.407980
O O9 0.076642 0.025884 0.217324
O O10 0.529790 0.345335 0.011131
O O11 0.664637 0.475855 0.987774
#
# Coordination Sequence:
#
# PCOD9367461 Si02
#       6
#     8   8   4   8   8   8
#     4  10  25  47  65  96 142 180 232 289 333 406
#     4   9  24  40  68  94 132 181 220 276 346 400
#     4  10  24  36  70  94 140 158 222 278 336 418
#     4  11  23  43  69 105 131 181 223 281 351 409
#     4  11  23  43  69 105 131 181 223 281 351 409
#     4  10  25  47  65  96 142 180 232 289 333 406
#
# _framework density 25.165914999999998
#
# number of rings (size 3 to 8) (size 9 to 14) (size 15 to 20)
#    1.091    0.727    0.000    2.182   10.182    2.909 
#    0.000    0.000    0.000    0.000    0.000    0.000 
#    0.000    0.000    0.000    0.000    0.000    0.000 
#
# Total GULP energy -123020.685586 kJ/mol
# GULP energy per Si atom -5591.849345 kJ/mol
# Density = 2.510864 g / cm^3
# Si number density = 25.165915 Si / 1000 Ang^3
#
#
#
# Elastic Constant Matrix: (Units=GPa)
#
#
# Indices 1 2 3 4 5 6 
#
# 1 21.5325 15.1148 9.0082 0.0000 0.0000 0.0000
# 2 15.1148 71.8620 9.2051 0.0000 0.0000 0.0000
# 3 9.0082 9.2051 95.6546 0.0000 0.0000 0.0000
# 4 0.0000 0.0000 0.0000 31.0597 0.0000 0.0000
# 5 0.0000 0.0000 0.0000 0.0000 23.0160 0.0000
# 6 0.0000 0.0000 0.0000 0.0000 0.0000 32.9236
#
#
#
# Elastic Compliance Matrix: (Units=1/GPa)
#
#
# Indices 1 2 3 4 5 6 
#
# 1 0.056104 -0.011263 -0.004200 0.000000 0.000000 0.000000
# 2 -0.011263 0.016350 -0.000513 0.000000 0.000000 0.000000
# 3 -0.004200 -0.000513 0.010899 0.000000 0.000000 0.000000
# 4 0.000000 0.000000 0.000000 0.032196 0.000000 0.000000
# 5 0.000000 0.000000 0.000000 0.000000 0.043448 0.000000
# 6 0.000000 0.000000 0.000000 0.000000 0.000000 0.030373
#
#
# Mechanical properties :
#
#
# Convention : Reuss Voigt Hill
#
# Bulk Modulus (GPa) = 19.45395 28.41170 23.93283
# Shear Modulus (GPa) = 20.96826 27.78125 24.37476
#
# Velocity S-wave (km/s) = 2.88965 3.32614 3.11555
# Velocity P-wave (km/s) = 4.34517 5.10541 4.74055
#
# Compressibility (1/GPa) = 0.05140343
#
# Stress axis : x y z
#
# Youngs Moduli (GPa) = 17.82395 61.16170 91.75043
#
# Poissons Ratio (x) = 0.68883 0.38533
# Poissons Ratio (y) = 0.20074 0.04705
# Poissons Ratio (z) = 0.07486 0.03136
#
# Static dielectric constant tensor:
#      x y z
#    x 2.050580 0.000000 0.000000 
#    y 0.000000 1.983040 0.000000 
#    z 0.000000 0.000000 1.983310 
# 
# From -- ./inp_files/6379.got.cif
#   From: 2010.05.17/outbox.cif.g08.bks.cpg/sg41_4_cif.got.tgz:6379.got - 2010.06.03 18:54:24.
