data_PCOD9367463
_publ_section_title
;
Structure prediction by ZEFSAII (Michael W. Deem and Ramdas Pophale) SiO2 
 PCOD9367463
Probable space group: A B A 2
;
_chemical_formula_sum "Si O2"
_cell_formula_units_Z 64
_cell_length_a 9.999364
_cell_length_b 22.121453
_cell_length_c 13.871995
_cell_angle_alpha 90.000000
_cell_angle_beta 90.000000
_cell_angle_gamma 90.000000
_cell_volume 3068.491686
_symmetry_space_group_name_H-M "A B A 2"
_symmetry_group_IT_number 41
_symmetry_cell_setting 'orthorhombic'
loop_
_space_group_symop_operation_xyz
x,y,z
-x,-y,z
1/2-x,y,1/2+z
1/2+x,-y,1/2+z
x,1/2+y,1/2+z
-x,1/2-y,1/2+z
1/2-x,1/2+y,z
1/2+x,1/2-y,z
loop_
_atom_site_type_symbol
_atom_site_label
_atom_site_fract_x
_atom_site_fract_y
_atom_site_fract_z
Si Si1 0.060940 0.433364 0.930340
Si Si2 0.293864 0.157106 0.701793
Si Si3 0.617279 0.182317 0.351328
Si Si4 0.301390 0.879649 0.536154
Si Si5 0.833629 0.277975 0.377581
Si Si6 0.961548 0.069715 0.217221
Si Si7 0.389825 0.789577 0.137842
Si Si8 0.365745 0.161839 0.024581
O O1 0.180959 0.423139 0.004444
O O2 0.111536 0.424250 0.820535
O O3 0.000000 0.500000 0.936284
O O4 0.948347 0.384181 0.958468
O O5 0.201566 0.176749 0.790361
O O6 0.406674 0.110188 0.729286
O O7 0.360557 0.220825 0.668127
O O8 0.207306 0.130604 0.614665
O O9 0.617408 0.134008 0.437686
O O10 0.761006 0.214985 0.356856
O O11 0.493160 0.226267 0.380167
O O12 0.598915 0.171575 0.237207
O O13 0.385062 0.906112 0.623971
O O14 0.229842 0.818745 0.575940
O O15 0.752782 0.305389 0.467065
O O16 0.000000 0.000000 0.203868
O O17 0.524720 0.795013 0.075856
#
# Coordination Sequence:
#
# PCOD9367463 Si02
#       8
#     8   8   8   8   8   8   8   8
#     4  10  24  45  68  93 128 175 226 282 332 402
#     4  11  23  40  65  93 132 170 219 273 332 409
#     4  11  24  42  61  99 139 171 219 268 339 409
#     4  11  24  41  70  96 133 173 224 279 340 404
#     4  11  24  38  63  97 135 176 212 274 332 405
#     4  11  25  45  66  95 130 179 228 273 336 397
#     4  10  24  39  65  99 133 172 208 276 343 411
#     4  11  22  40  64  93 129 167 223 261 347 392
#
# _framework density 20.857153
#
# number of rings (size 3 to 8) (size 9 to 14) (size 15 to 20)
#    0.000    1.250    2.500    2.250   10.500    1.000 
#    0.000    0.000    0.000    1.500    0.000    0.000 
#    0.000    0.000    0.000    0.000    0.000    0.000 
#
# Total GULP energy -178801.716069 kJ/mol
# GULP energy per Si atom -5587.553627 kJ/mol
# Density = 2.080968 g / cm^3
# Si number density = 20.857153 Si / 1000 Ang^3
#
#
#
# Elastic Constant Matrix: (Units=GPa)
#
#
# Indices 1 2 3 4 5 6 
#
# 1 58.4379 13.5847 15.8534 0.0000 0.0000 0.0000
# 2 13.5847 64.8546 21.0735 0.0000 0.0000 0.0000
# 3 15.8534 21.0735 143.8563 0.0000 0.0000 0.0000
# 4 0.0000 0.0000 0.0000 26.8702 0.0000 0.0000
# 5 0.0000 0.0000 0.0000 0.0000 37.0801 0.0000
# 6 0.0000 0.0000 0.0000 0.0000 0.0000 15.5256
#
#
#
# Elastic Compliance Matrix: (Units=1/GPa)
#
#
# Indices 1 2 3 4 5 6 
#
# 1 0.018303 -0.003337 -0.001528 0.000000 0.000000 0.000000
# 2 -0.003337 0.016798 -0.002093 0.000000 0.000000 0.000000
# 3 -0.001528 -0.002093 0.007426 0.000000 0.000000 0.000000
# 4 0.000000 0.000000 0.000000 0.037216 0.000000 0.000000
# 5 0.000000 0.000000 0.000000 0.000000 0.026969 0.000000
# 6 0.000000 0.000000 0.000000 0.000000 0.000000 0.064410
#
#
# Mechanical properties :
#
#
# Convention : Reuss Voigt Hill
#
# Bulk Modulus (GPa) = 34.95219 40.90800 37.93009
# Shear Modulus (GPa) = 25.69703 30.33765 28.01734
#
# Velocity S-wave (km/s) = 3.51386 3.81799 3.66908
# Velocity P-wave (km/s) = 5.76691 6.25236 6.01454
#
# Compressibility (1/GPa) = 0.02861051
#
# Stress axis : x y z
#
# Youngs Moduli (GPa) = 54.63728 59.53019 134.65496
#
# Poissons Ratio (x) = 0.19866 0.20577
# Poissons Ratio (y) = 0.18233 0.28183
# Poissons Ratio (z) = 0.08349 0.12460
#
# Static dielectric constant tensor:
#      x y z
#    x 1.746390 0.000000 0.000000 
#    y 0.000000 1.721470 0.000000 
#    z 0.000000 0.000000 1.800710 
# 
# From -- ./inp_files/7589.got.cif
#   From: 2010.05.17/outbox.cif.g08.bks.cpg/sg41_4_cif.got.tgz:7589.got - 2010.06.03 18:54:24.
