data_PCOD9367845
_publ_section_title
;
Structure prediction by ZEFSAII (Michael W. Deem and Ramdas Pophale) SiO2 
 PCOD9367845
Probable space group: A B A 2
;
_chemical_formula_sum "Si O2"
_cell_formula_units_Z 48
_cell_length_a 26.702093
_cell_length_b 9.238508
_cell_length_c 10.092454
_cell_angle_alpha 90.000000
_cell_angle_beta 90.000000
_cell_angle_gamma 90.000000
_cell_volume 2489.682244
_symmetry_space_group_name_H-M "A B A 2"
_symmetry_group_IT_number 41
_symmetry_cell_setting 'orthorhombic'
loop_
_space_group_symop_operation_xyz
x,y,z
-x,-y,z
1/2-x,y,1/2+z
1/2+x,-y,1/2+z
x,1/2+y,1/2+z
-x,1/2-y,1/2+z
1/2-x,1/2+y,z
1/2+x,1/2-y,z
loop_
_atom_site_type_symbol
_atom_site_label
_atom_site_fract_x
_atom_site_fract_y
_atom_site_fract_z
Si Si1 0.025523 0.843298 0.939780
Si Si2 0.705911 0.548069 0.089979
Si Si3 0.361532 0.786791 0.373787
Si Si4 0.811214 0.707710 0.087025
Si Si5 0.640792 0.054709 0.847209
Si Si6 0.966690 0.643761 0.739247
O O1 0.081605 0.843270 0.881540
O O2 0.990389 0.744899 0.850032
O O3 0.030356 0.790458 0.091814
O O4 0.000000 0.000000 0.942138
O O5 0.761590 0.610103 0.080177
O O6 0.703118 0.375791 0.066506
O O7 0.684258 0.571453 0.237640
O O8 0.671193 0.632364 0.984805
O O9 0.337251 0.810207 0.229563
O O10 0.361889 0.612733 0.392388
O O11 0.848002 0.655566 0.971676
O O12 0.589463 0.099229 0.775998
O O13 0.000000 0.500000 0.737330
#
# Coordination Sequence:
#
# PCOD9367845 Si02
#       6
#     8   8   8   8   8   8
#     4  11  26  42  67  98 134 171 217 270 318 388
#     4  11  24  46  63  97 131 170 215 275 319 388
#     4  11  24  44  66  99 132 169 222 266 323 389
#     4  11  26  41  71  94 131 170 221 266 333 385
#     4  11  24  42  69  96 130 174 212 271 324 384
#     4  11  24  44  66  94 136 171 213 266 325 381
#
# _framework density 19.279568999999999
#
# number of rings (size 3 to 8) (size 9 to 14) (size 15 to 20)
#    0.000    1.000    3.333    2.000    4.667    7.333 
#    0.000    0.000    0.000    0.000    0.000    0.000 
#    0.000    0.000    0.000    0.000    0.000    0.000 
#
# Total GULP energy -134217.596176 kJ/mol
# GULP energy per Si atom -5592.399841 kJ/mol
# Density = 1.923569 g / cm^3
# Si number density = 19.279569 Si / 1000 Ang^3
#
#
#
# Elastic Constant Matrix: (Units=GPa)
#
#
# Indices 1 2 3 4 5 6 
#
# 1 68.0644 17.4965 23.4464 0.0000 0.0000 0.0000
# 2 17.4965 80.5440 71.9671 0.0000 0.0000 0.0000
# 3 23.4464 71.9671 105.7156 0.0000 0.0000 0.0000
# 4 0.0000 0.0000 0.0000 37.2818 0.0000 0.0000
# 5 0.0000 0.0000 0.0000 0.0000 34.0505 0.0000
# 6 0.0000 0.0000 0.0000 0.0000 0.0000 33.3887
#
#
#
# Elastic Compliance Matrix: (Units=1/GPa)
#
#
# Indices 1 2 3 4 5 6 
#
# 1 0.015926 -0.000775 -0.003005 0.000000 0.000000 0.000000
# 2 -0.000775 0.031732 -0.021430 0.000000 0.000000 0.000000
# 3 -0.003005 -0.021430 0.024714 0.000000 0.000000 0.000000
# 4 0.000000 0.000000 0.000000 0.026823 0.000000 0.000000
# 5 0.000000 0.000000 0.000000 0.000000 0.029368 0.000000
# 6 0.000000 0.000000 0.000000 0.000000 0.000000 0.029950
#
#
# Mechanical properties :
#
#
# Convention : Reuss Voigt Hill
#
# Bulk Modulus (GPa) = 45.55107 53.34932 49.45020
# Shear Modulus (GPa) = 23.12134 30.37180 26.74657
#
# Velocity S-wave (km/s) = 3.46680 3.97336 3.72869
# Velocity P-wave (km/s) = 6.30102 6.98438 6.65148
#
# Compressibility (1/GPa) = 0.02195338
#
# Stress axis : x y z
#
# Youngs Moduli (GPa) = 62.78956 31.51412 40.46222
#
# Poissons Ratio (x) = 0.02442 0.12158
# Poissons Ratio (y) = 0.04865 0.86710
# Poissons Ratio (z) = 0.18867 0.67535
#
# Static dielectric constant tensor:
#      x y z
#    x 1.637820 0.000000 0.000000 
#    y 0.000000 1.643080 0.000000 
#    z 0.000000 0.000000 1.656280 
# 
# From -- ./inp_files/3915.got.cif
#   From: 2010.05.17/outbox.cif.g08.bks.cpg/sg41_2_cif.got.tgz:3915.got - 2010.06.03 18:54:24.
