data_PCOD9367877
_publ_section_title
;
Structure prediction by ZEFSAII (Michael W. Deem and Ramdas Pophale) SiO2 
 PCOD9367877
Probable space group: A B A 2
;
_chemical_formula_sum "Si O2"
_cell_formula_units_Z 32
_cell_length_a 9.073540
_cell_length_b 9.190945
_cell_length_c 16.871228
_cell_angle_alpha 90.000000
_cell_angle_beta 90.000000
_cell_angle_gamma 90.000000
_cell_volume 1406.966056
_symmetry_space_group_name_H-M "A B A 2"
_symmetry_group_IT_number 41
_symmetry_cell_setting 'orthorhombic'
loop_
_space_group_symop_operation_xyz
x,y,z
-x,-y,z
1/2-x,y,1/2+z
1/2+x,-y,1/2+z
x,1/2+y,1/2+z
-x,1/2-y,1/2+z
1/2-x,1/2+y,z
1/2+x,1/2-y,z
loop_
_atom_site_type_symbol
_atom_site_label
_atom_site_fract_x
_atom_site_fract_y
_atom_site_fract_z
Si Si1 0.376264 0.885420 0.251830
Si Si2 0.151886 0.076569 0.170638
Si Si3 0.074077 0.799793 0.933902
Si Si4 0.267572 0.070945 0.497123
O O1 0.373205 0.738050 0.202181
O O2 0.410586 0.839749 0.341753
O O3 0.500000 0.000000 0.226356
O O4 0.226216 0.974531 0.237172
O O5 0.248481 0.085477 0.091235
O O6 0.000000 0.000000 0.146596
O O7 0.127786 0.638118 0.952836
O O8 0.912953 0.841835 0.965778
O O9 0.190524 0.905755 0.977728
#
# Coordination Sequence:
#
# PCOD9367877 Si02
#       4
#     8   8   8   8
#     4  12  26  45  71 101 139 181 229 284 343 406
#     4  12  26  45  71 101 139 181 229 284 343 406
#     4  11  24  46  68  97 136 175 228 279 335 407
#     4  11  24  46  68  97 136 175 228 279 335 407
#
# _framework density 22.743974999999999
#
# number of rings (size 3 to 8) (size 9 to 14) (size 15 to 20)
#    0.000    0.500    5.000    4.500    7.000    1.000 
#    0.000    0.000    0.000    0.000    0.000    0.000 
#    0.000    0.000    0.000    0.000    0.000    0.000 
#
# Total GULP energy -89579.865436 kJ/mol
# GULP energy per Si atom -5598.741590 kJ/mol
# Density = 2.269221 g / cm^3
# Si number density = 22.743975 Si / 1000 Ang^3
#
#
#
# Elastic Constant Matrix: (Units=GPa)
#
#
# Indices 1 2 3 4 5 6 
#
# 1 39.1008 21.7057 2.5358 0.0000 0.0000 0.0000
# 2 21.7057 123.3604 28.2617 0.0000 0.0000 0.0000
# 3 2.5358 28.2617 98.2749 0.0000 0.0000 0.0000
# 4 0.0000 0.0000 0.0000 -25.6691 0.0000 0.0000
# 5 0.0000 0.0000 0.0000 0.0000 8.3490 0.0000
# 6 0.0000 0.0000 0.0000 0.0000 0.0000 23.9757
#
#
#
# Elastic Compliance Matrix: (Units=1/GPa)
#
#
# Indices 1 2 3 4 5 6 
#
# 1 0.028395 -0.005169 0.000754 0.000000 0.000000 0.000000
# 2 -0.005169 0.009619 -0.002633 0.000000 0.000000 0.000000
# 3 0.000754 -0.002633 0.010913 0.000000 0.000000 0.000000
# 4 0.000000 0.000000 0.000000 -0.038957 0.000000 0.000000
# 5 0.000000 0.000000 0.000000 0.000000 0.119774 0.000000
# 6 0.000000 0.000000 0.000000 0.000000 0.000000 0.041709
#
#
# Mechanical properties :
#
#
# Convention : Reuss Voigt Hill
#
# Bulk Modulus (GPa) = 28.70951 40.63806 34.67379
# Shear Modulus (GPa) = 25.36009 15.21333 20.28671
#
# Velocity S-wave (km/s) = 3.34282 2.58911 2.98981
# Velocity P-wave (km/s) = 5.24877 5.18115 5.21507
#
# Compressibility (1/GPa) = 0.03483166
#
# Stress axis : x y z
#
# Youngs Moduli (GPa) = 35.21689 103.96082 91.63185
#
# Poissons Ratio (x) = 0.53737 -0.06907
# Poissons Ratio (y) = 0.18204 0.24125
# Poissons Ratio (z) = -0.02655 0.27371
#
# Static dielectric constant tensor:
#      x y z
#    x 1.855590 0.000000 0.000000 
#    y 0.000000 1.803450 0.000000 
#    z 0.000000 0.000000 1.796410 
# 
# From -- ./inp_files/1894.got.cif
#   From: 2010.05.17/outbox.cif.g08.bks.cpg/sg41_1_cif.got.tgz:1894.got - 2010.06.03 18:54:24.
