data_PCOD9367928
_publ_section_title
;
Structure prediction by ZEFSAII (Michael W. Deem and Ramdas Pophale) SiO2 
 PCOD9367928
Probable space group: A B A 2
;
_chemical_formula_sum "Si O2"
_cell_formula_units_Z 32
_cell_length_a 9.877485
_cell_length_b 12.302114
_cell_length_c 9.900483
_cell_angle_alpha 90.000000
_cell_angle_beta 90.000000
_cell_angle_gamma 90.000000
_cell_volume 1203.046762
_symmetry_space_group_name_H-M "A B A 2"
_symmetry_group_IT_number 41
_symmetry_cell_setting 'orthorhombic'
loop_
_space_group_symop_operation_xyz
x,y,z
-x,-y,z
1/2-x,y,1/2+z
1/2+x,-y,1/2+z
x,1/2+y,1/2+z
-x,1/2-y,1/2+z
1/2-x,1/2+y,z
1/2+x,1/2-y,z
loop_
_atom_site_type_symbol
_atom_site_label
_atom_site_fract_x
_atom_site_fract_y
_atom_site_fract_z
Si Si1 0.500000 0.500000 0.446510
Si Si2 0.772534 0.000000 0.232365
Si Si3 0.080689 0.184890 0.611465
Si Si4 0.419311 0.315110 0.853265
Si Si5 0.000000 0.500000 0.518219
O O1 0.627843 0.472530 0.355392
O O2 0.526715 0.602936 0.540980
O O3 0.688095 0.103690 0.284880
O O4 0.688094 0.896310 0.179850
O O5 0.872157 0.027470 0.109337
O O6 0.135199 0.250000 0.482365
O O7 1.000000 0.245451 0.732365
O O8 0.526715 0.397064 0.923749
#
# Coordination Sequence:
#
# PCOD9367928 Si02
#       5
#     4   8   8   8   4
#     4  11  25  50  78 114 154 208 258 314 394 458
#     4  11  25  50  80 108 163 205 250 330 384 451
#     4  12  27  49  79 115 157 204 260 317 389 461
#     4  12  27  49  79 115 157 204 260 317 389 461
#     4  11  25  50  78 114 154 208 258 314 394 458
#
# _framework density 26.599132999999998
#
# number of rings (size 3 to 8) (size 9 to 14) (size 15 to 20)
#    0.000    0.500    5.000    1.500    7.000    4.000 
#    0.000    0.000    0.000    0.000    0.000    0.000 
#    0.000    0.000    0.000    0.000    0.000    0.000 
#
# Total GULP energy -89584.256061 kJ/mol
# GULP energy per Si atom -5599.016004 kJ/mol
# Density = 2.653859 g / cm^3
# Si number density = 26.599133 Si / 1000 Ang^3
#
#
#
# Elastic Constant Matrix: (Units=GPa)
#
#
# Indices 1 2 3 4 5 6 
#
# 1 117.9201 50.2864 102.3709 0.0000 0.0000 0.0000
# 2 50.2864 80.4391 57.7977 0.0000 0.0000 0.0000
# 3 102.3709 57.7977 216.3548 0.0000 0.0000 0.0000
# 4 0.0000 0.0000 0.0000 72.3663 0.0000 0.0000
# 5 0.0000 0.0000 0.0000 0.0000 44.7662 0.0000
# 6 0.0000 0.0000 0.0000 0.0000 0.0000 24.6876
#
#
#
# Elastic Compliance Matrix: (Units=1/GPa)
#
#
# Indices 1 2 3 4 5 6 
#
# 1 0.016290 -0.005749 -0.006172 0.000000 0.000000 0.000000
# 2 -0.005749 0.017414 -0.001932 0.000000 0.000000 0.000000
# 3 -0.006172 -0.001932 0.008059 0.000000 0.000000 0.000000
# 4 0.000000 0.000000 0.000000 0.013819 0.000000 0.000000
# 5 0.000000 0.000000 0.000000 0.000000 0.022338 0.000000
# 6 0.000000 0.000000 0.000000 0.000000 0.000000 0.040506
#
#
# Mechanical properties :
#
#
# Convention : Reuss Voigt Hill
#
# Bulk Modulus (GPa) = 71.14010 92.84710 81.99360
# Shear Modulus (GPa) = 33.15283 41.98129 37.56706
#
# Velocity S-wave (km/s) = 3.53425 3.97709 3.76219
# Velocity P-wave (km/s) = 6.59226 7.48809 7.05441
#
# Compressibility (1/GPa) = 0.01405677
#
# Stress axis : x y z
#
# Youngs Moduli (GPa) = 61.38675 57.42586 124.09254
#
# Poissons Ratio (x) = 0.33014 0.76591
# Poissons Ratio (y) = 0.35291 0.23972
# Poissons Ratio (z) = 0.37889 0.11093
#
# Static dielectric constant tensor:
#      x y z
#    x 2.065040 0.000000 0.000000 
#    y 0.000000 2.177200 0.000000 
#    z 0.000000 0.000000 2.110860 
# 
# From -- ./inp_files/1958.got.cif
#   From: 2010.05.17/outbox.cif.g08.bks.cpg/sg41_1_cif.got.tgz:1958.got - 2010.06.03 18:54:24.
