data_PCOD9367488
_publ_section_title
;
Structure prediction by ZEFSAII (Michael W. Deem and Ramdas Pophale) SiO2 
 PCOD9367488
Probable space group: A B A 2
;
_chemical_formula_sum "Si O2"
_cell_formula_units_Z 40
_cell_length_a 27.120491
_cell_length_b 5.203644
_cell_length_c 13.198741
_cell_angle_alpha 90.000000
_cell_angle_beta 90.000000
_cell_angle_gamma 90.000000
_cell_volume 1862.677343
_symmetry_space_group_name_H-M "A B A 2"
_symmetry_group_IT_number 41
_symmetry_cell_setting 'orthorhombic'
loop_
_space_group_symop_operation_xyz
x,y,z
-x,-y,z
1/2-x,y,1/2+z
1/2+x,-y,1/2+z
x,1/2+y,1/2+z
-x,1/2-y,1/2+z
1/2-x,1/2+y,z
1/2+x,1/2-y,z
loop_
_atom_site_type_symbol
_atom_site_label
_atom_site_fract_x
_atom_site_fract_y
_atom_site_fract_z
Si Si1 0.078572 0.996151 0.969870
Si Si2 0.176979 0.711085 0.514380
Si Si3 0.500000 0.000000 0.291656
Si Si4 0.500000 0.500000 0.148330
Si Si5 0.674040 0.790873 0.925958
Si Si6 0.782338 0.972059 0.222347
O O1 0.045586 0.035757 0.870134
O O2 0.116838 0.765685 0.948694
O O3 0.118560 0.217947 0.991517
O O4 0.045405 0.962327 0.069642
O O5 0.197039 0.494551 0.436337
O O6 0.186939 0.586909 0.621918
O O7 0.195384 0.999885 0.503957
O O8 0.494270 0.749976 0.220024
O O9 0.683609 0.914551 0.818311
O O10 0.739374 0.757037 0.224054
#
# Coordination Sequence:
#
# PCOD9367488 Si02
#       6
#     8   8   4   4   8   8
#     4   9  26  42  66  96 126 168 216 248 330 377
#     4  10  24  42  67  90 129 167 212 261 313 381
#     4  11  26  41  68  94 132 163 208 267 312 384
#     4  11  26  41  68  94 132 163 208 267 312 384
#     4  10  24  42  67  90 129 167 212 261 313 381
#     4  12  26  42  64  98 128 168 220 262 322 374
#
# _framework density 21.474464000000001
#
# number of rings (size 3 to 8) (size 9 to 14) (size 15 to 20)
#    1.200    0.400    0.000    2.400    8.400    6.400 
#    0.000    0.000    0.000    0.000    0.000    0.000 
#    0.000    0.000    0.000    0.000    0.000    0.000 
#
# Total GULP energy -111546.021521 kJ/mol
# GULP energy per Si atom -5577.301076 kJ/mol
# Density = 2.142559 g / cm^3
# Si number density = 21.474464 Si / 1000 Ang^3
#
#
#
# Elastic Constant Matrix: (Units=GPa)
#
#
# Indices 1 2 3 4 5 6 
#
# 1 103.5242 19.5135 32.4108 0.0000 0.0000 0.0000
# 2 19.5135 102.1160 38.6214 0.0000 0.0000 0.0000
# 3 32.4108 38.6214 129.1814 0.0000 0.0000 0.0000
# 4 0.0000 0.0000 0.0000 28.7556 0.0000 0.0000
# 5 0.0000 0.0000 0.0000 0.0000 29.2332 0.0000
# 6 0.0000 0.0000 0.0000 0.0000 0.0000 24.9324
#
#
#
# Elastic Compliance Matrix: (Units=1/GPa)
#
#
# Indices 1 2 3 4 5 6 
#
# 1 0.010601 -0.001150 -0.002316 0.000000 0.000000 0.000000
# 2 -0.001150 0.011166 -0.003050 0.000000 0.000000 0.000000
# 3 -0.002316 -0.003050 0.009234 0.000000 0.000000 0.000000
# 4 0.000000 0.000000 0.000000 0.034776 0.000000 0.000000
# 5 0.000000 0.000000 0.000000 0.000000 0.034208 0.000000
# 6 0.000000 0.000000 0.000000 0.000000 0.000000 0.040108
#
#
# Mechanical properties :
#
#
# Convention : Reuss Voigt Hill
#
# Bulk Modulus (GPa) = 55.64867 57.32364 56.48616
# Shear Modulus (GPa) = 31.42387 32.86930 32.14659
#
# Velocity S-wave (km/s) = 3.82948 3.91656 3.87326
# Velocity P-wave (km/s) = 6.74710 6.87055 6.80910
#
# Compressibility (1/GPa) = 0.01796988
#
# Stress axis : x y z
#
# Youngs Moduli (GPa) = 94.32702 89.55766 108.29625
#
# Poissons Ratio (x) = 0.10298 0.25082
# Poissons Ratio (y) = 0.10847 0.33028
# Poissons Ratio (z) = 0.21847 0.27313
#
# Static dielectric constant tensor:
#      x y z
#    x 1.822870 0.000000 0.000000 
#    y 0.000000 1.801060 0.000000 
#    z 0.000000 0.000000 1.784140 
# 
# From -- ./inp_files/6512.got.cif
#   From: 2010.05.17/outbox.cif.g08.bks.cpg/sg41_4_cif.got.tgz:6512.got - 2010.06.03 18:54:24.
