data_PCOD9367702
_publ_section_title
;
Structure prediction by ZEFSAII (Michael W. Deem and Ramdas Pophale) SiO2 
 PCOD9367702
Probable space group: A B A 2
;
_chemical_formula_sum "Si O2"
_cell_formula_units_Z 64
_cell_length_a 9.312034
_cell_length_b 17.434348
_cell_length_c 19.490590
_cell_angle_alpha 90.000000
_cell_angle_beta 90.000000
_cell_angle_gamma 90.000000
_cell_volume 3164.282500
_symmetry_space_group_name_H-M "A B A 2"
_symmetry_group_IT_number 41
_symmetry_cell_setting 'orthorhombic'
loop_
_space_group_symop_operation_xyz
x,y,z
-x,-y,z
1/2-x,y,1/2+z
1/2+x,-y,1/2+z
x,1/2+y,1/2+z
-x,1/2-y,1/2+z
1/2-x,1/2+y,z
1/2+x,1/2-y,z
loop_
_atom_site_type_symbol
_atom_site_label
_atom_site_fract_x
_atom_site_fract_y
_atom_site_fract_z
Si Si1 0.418867 0.833495 0.050910
Si Si2 0.553239 0.412380 0.801586
Si Si3 0.884864 0.429901 0.549598
Si Si4 0.747867 0.344904 0.414577
Si Si5 0.184319 0.330308 0.380487
Si Si6 0.903517 0.686546 0.530712
Si Si7 0.390955 0.071113 0.146172
Si Si8 0.552602 0.584382 0.416308
O O1 0.512130 0.764866 0.020073
O O2 0.255816 0.806065 0.061028
O O3 0.515993 0.860977 0.112842
O O4 0.406744 0.902770 0.996260
O O5 0.500000 0.500000 0.811524
O O6 0.670832 0.391723 0.857028
O O7 0.427150 0.350066 0.819978
O O8 0.622155 0.409221 0.726183
O O9 0.804087 0.384848 0.485863
O O10 0.755956 0.445660 0.603731
O O11 0.000000 0.500000 0.533811
O O12 0.995829 0.366115 0.577025
O O13 0.755996 0.253181 0.398238
O O14 0.581006 0.361034 0.405361
O O15 0.109179 0.348621 0.453933
O O16 0.313738 0.389462 0.372210
O O17 0.500000 0.000000 0.141401
O O18 0.500000 0.500000 0.403838
#
# Coordination Sequence:
#
# PCOD9367702 Si02
#       8
#     8   8   8   8   8   8   8   8
#     4  11  21  39  62  93 134 175 220 289 354 416
#     4  11  25  45  69  94 139 190 231 284 362 433
#     4  12  24  40  70 103 137 181 242 302 360 427
#     4  12  22  41  67 101 134 175 230 291 354 424
#     4  11  22  41  63  98 136 177 223 288 355 417
#     4  11  22  37  65  99 131 170 225 293 354 414
#     4  11  24  46  66  95 138 187 232 292 360 428
#     4  11  22  33  62  97 128 159 217 283 339 404
#
# _framework density 20.225753999999998
#
# number of rings (size 3 to 8) (size 9 to 14) (size 15 to 20)
#    0.000    0.750    3.750    5.250    3.500    0.000 
#    4.500    4.375    0.000    0.000    0.000    0.000 
#    0.000    0.000    0.000    0.000    0.000    0.000 
#
# Total GULP energy -178290.175894 kJ/mol
# GULP energy per Si atom -5571.567997 kJ/mol
# Density = 2.017972 g / cm^3
# Si number density = 20.225754 Si / 1000 Ang^3
#
#
#
# Elastic Constant Matrix: (Units=GPa)
#
#
# Indices 1 2 3 4 5 6 
#
# 1 122.0243 22.1009 47.7443 0.0000 0.0000 0.0000
# 2 22.1009 83.7533 27.6309 0.0000 0.0000 0.0000
# 3 47.7443 27.6309 88.7455 0.0000 0.0000 0.0000
# 4 0.0000 0.0000 0.0000 20.7072 0.0000 0.0000
# 5 0.0000 0.0000 0.0000 0.0000 26.8198 0.0000
# 6 0.0000 0.0000 0.0000 0.0000 0.0000 37.0615
#
#
#
# Elastic Compliance Matrix: (Units=1/GPa)
#
#
# Indices 1 2 3 4 5 6 
#
# 1 0.010456 -0.001007 -0.005312 0.000000 0.000000 0.000000
# 2 -0.001007 0.013404 -0.003632 0.000000 0.000000 0.000000
# 3 -0.005312 -0.003632 0.015256 0.000000 0.000000 0.000000
# 4 0.000000 0.000000 0.000000 0.048292 0.000000 0.000000
# 5 0.000000 0.000000 0.000000 0.000000 0.037286 0.000000
# 6 0.000000 0.000000 0.000000 0.000000 0.000000 0.026982
#
#
# Mechanical properties :
#
#
# Convention : Reuss Voigt Hill
#
# Bulk Modulus (GPa) = 52.04032 54.38615 53.21323
# Shear Modulus (GPa) = 28.09282 30.05416 29.07349
#
# Velocity S-wave (km/s) = 3.73092 3.85897 3.79548
# Velocity P-wave (km/s) = 6.65923 6.84130 6.75088
#
# Compressibility (1/GPa) = 0.01921587
#
# Stress axis : x y z
#
# Youngs Moduli (GPa) = 95.64159 74.60699 65.54594
#
# Poissons Ratio (x) = 0.07511 0.34816
# Poissons Ratio (y) = 0.09628 0.23804
# Poissons Ratio (z) = 0.50801 0.27094
#
# Static dielectric constant tensor:
#      x y z
#    x 1.742170 0.000000 0.000000 
#    y 0.000000 1.860970 0.000000 
#    z 0.000000 0.000000 1.713810 
# 
# From -- ./inp_files/11291.got.cif
#   From: 2010.05.17/outbox.cif.g08.bks.cpg/sg41_6_cif.got.tgz:11291.got - 2010.06.03 18:54:24.
