data_PCOD9367079
_publ_section_title
;
Structure prediction by ZEFSAII (Michael W. Deem and Ramdas Pophale) SiO2 
 PCOD9367079
Probable space group: A B A 2
;
_chemical_formula_sum "Si O2"
_cell_formula_units_Z 52
_cell_length_a 8.303850
_cell_length_b 17.697639
_cell_length_c 16.428999
_cell_angle_alpha 90.000000
_cell_angle_beta 90.000000
_cell_angle_gamma 90.000000
_cell_volume 2414.381700
_symmetry_space_group_name_H-M "A B A 2"
_symmetry_group_IT_number 41
_symmetry_cell_setting 'orthorhombic'
loop_
_space_group_symop_operation_xyz
x,y,z
-x,-y,z
1/2-x,y,1/2+z
1/2+x,-y,1/2+z
x,1/2+y,1/2+z
-x,1/2-y,1/2+z
1/2-x,1/2+y,z
1/2+x,1/2-y,z
loop_
_atom_site_type_symbol
_atom_site_label
_atom_site_fract_x
_atom_site_fract_y
_atom_site_fract_z
Si Si1 0.258960 0.709155 0.356350
Si Si2 0.441996 0.618258 0.225195
Si Si3 0.731257 0.525282 0.717211
Si Si4 0.362042 0.746194 0.118563
Si Si5 0.913700 0.660492 0.285353
Si Si6 0.407156 0.165599 0.025660
Si Si7 0.000000 0.000000 0.572039
O O1 0.397886 0.672154 0.299736
O O2 0.284588 0.798484 0.343577
O O3 0.304650 0.684061 0.446214
O O4 0.088302 0.682002 0.320870
O O5 0.604617 0.571718 0.228977
O O6 0.291205 0.560563 0.224372
O O7 0.459961 0.672183 0.147117
O O8 0.610984 0.570818 0.776558
O O9 0.644661 0.527801 0.630235
O O10 0.374469 0.803734 0.195376
O O11 0.425658 0.789895 0.039238
O O12 0.192796 0.704752 0.099851
O O13 0.438184 0.075907 0.028425
#
# Coordination Sequence:
#
# PCOD9367079 Si02
#       7
#     8   8   8   8   8   8   4
#     4  11  24  42  62 101 136 183 227 286 350 425
#     4  10  22  40  68  96 128 172 239 282 348 414
#     4  11  21  39  69  96 127 172 234 295 337 411
#     4  11  21  40  67 100 123 183 231 289 328 424
#     4  11  21  40  69  98 131 180 240 283 338 414
#     4  12  25  42  68  97 151 180 232 286 369 418
#     4  12  24  42  64 108 138 186 222 304 360 420
#
# _framework density 21.537604000000002
#
# number of rings (size 3 to 8) (size 9 to 14) (size 15 to 20)
#    0.000    0.923    3.077    6.462    0.000    1.231 
#    0.000    0.000    6.769    0.000    0.000    0.000 
#    0.000    0.000    0.000    0.000    0.000    0.000 
#
# Total GULP energy -144970.667055 kJ/mol
# GULP energy per Si atom -5575.794887 kJ/mol
# Density = 2.148858 g / cm^3
# Si number density = 21.537604 Si / 1000 Ang^3
#
#
#
# Elastic Constant Matrix: (Units=GPa)
#
#
# Indices 1 2 3 4 5 6 
#
# 1 94.7365 43.0909 33.4028 0.0000 0.0000 0.0000
# 2 43.0909 164.0179 48.9113 0.0000 0.0000 0.0000
# 3 33.4028 48.9113 73.7555 0.0000 0.0000 0.0000
# 4 0.0000 0.0000 0.0000 18.0626 0.0000 0.0000
# 5 0.0000 0.0000 0.0000 0.0000 13.2726 0.0000
# 6 0.0000 0.0000 0.0000 0.0000 0.0000 44.9493
#
#
#
# Elastic Compliance Matrix: (Units=1/GPa)
#
#
# Indices 1 2 3 4 5 6 
#
# 1 0.013110 -0.002086 -0.004554 0.000000 0.000000 0.000000
# 2 -0.002086 0.007932 -0.004315 0.000000 0.000000 0.000000
# 3 -0.004554 -0.004315 0.018482 0.000000 0.000000 0.000000
# 4 0.000000 0.000000 0.000000 0.055363 0.000000 0.000000
# 5 0.000000 0.000000 0.000000 0.000000 0.075343 0.000000
# 6 0.000000 0.000000 0.000000 0.000000 0.000000 0.022247
#
#
# Mechanical properties :
#
#
# Convention : Reuss Voigt Hill
#
# Bulk Modulus (GPa) = 56.77418 64.81329 60.79374
# Shear Modulus (GPa) = 22.70052 29.06392 25.88222
#
# Velocity S-wave (km/s) = 3.25005 3.67747 3.47035
# Velocity P-wave (km/s) = 6.36408 6.94191 6.65927
#
# Compressibility (1/GPa) = 0.01761364
#
# Stress axis : x y z
#
# Youngs Moduli (GPa) = 76.27656 126.07433 54.10582
#
# Poissons Ratio (x) = 0.26303 0.24639
# Poissons Ratio (y) = 0.15914 0.23348
# Poissons Ratio (z) = 0.34735 0.54403
#
# Static dielectric constant tensor:
#      x y z
#    x 1.916530 0.000000 0.000000 
#    y 0.000000 1.923430 0.000000 
#    z 0.000000 0.000000 1.795840 
# 
# From -- ./inp_files/9720.got.cif
#   From: 2010.05.17/outbox.cif.g08.bks.cpg/sg41_5_cif.got.tgz:9720.got - 2010.06.03 18:54:24.
