data_PCOD9367492
_publ_section_title
;
Structure prediction by ZEFSAII (Michael W. Deem and Ramdas Pophale) SiO2 
 PCOD9367492
Probable space group: A B A 2
;
_chemical_formula_sum "Si O2"
_cell_formula_units_Z 32
_cell_length_a 13.140206
_cell_length_b 9.559923
_cell_length_c 10.920424
_cell_angle_alpha 90.000000
_cell_angle_beta 90.000000
_cell_angle_gamma 90.000000
_cell_volume 1371.816647
_symmetry_space_group_name_H-M "A B A 2"
_symmetry_group_IT_number 41
_symmetry_cell_setting 'orthorhombic'
loop_
_space_group_symop_operation_xyz
x,y,z
-x,-y,z
1/2-x,y,1/2+z
1/2+x,-y,1/2+z
x,1/2+y,1/2+z
-x,1/2-y,1/2+z
1/2-x,1/2+y,z
1/2+x,1/2-y,z
loop_
_atom_site_type_symbol
_atom_site_label
_atom_site_fract_x
_atom_site_fract_y
_atom_site_fract_z
Si Si1 0.500000 0.000000 0.552570
Si Si2 0.141446 0.570089 0.343019
Si Si3 0.000000 0.000000 0.416598
Si Si4 0.558732 0.783325 0.124704
Si Si5 0.193276 0.855279 0.285662
O O1 0.404413 0.999237 0.461650
O O2 0.488211 0.146847 0.620883
O O3 0.054421 0.627681 0.250030
O O4 0.203110 0.714494 0.367073
O O5 0.213126 0.457936 0.279613
O O6 0.904729 0.060594 0.339326
O O7 0.040562 0.122538 0.507209
O O8 0.667650 0.710094 0.152357
#
# Coordination Sequence:
#
# PCOD9367492 Si02
#       5
#     4   8   4   8   8
#     4  12  22  48  72  98 134 190 228 280 344 412
#     4  10  25  46  66 101 142 176 228 288 339 409
#     4  12  22  48  72  98 134 190 228 280 344 412
#     4  10  24  42  70 100 134 180 228 280 342 406
#     4  10  25  46  66 101 142 176 228 288 339 409
#
# _framework density 23.326733999999998
#
# number of rings (size 3 to 8) (size 9 to 14) (size 15 to 20)
#    1.500    0.000    2.500    1.500    3.500    2.000 
#    4.500    0.000    0.000    0.000    0.000    0.000 
#    0.000    0.000    0.000    0.000    0.000    0.000 
#
# Total GULP energy -89079.601722 kJ/mol
# GULP energy per Si atom -5567.475108 kJ/mol
# Density = 2.327364 g / cm^3
# Si number density = 23.326734 Si / 1000 Ang^3
#
#
#
# Elastic Constant Matrix: (Units=GPa)
#
#
# Indices 1 2 3 4 5 6 
#
# 1 35.4124 40.0537 21.4462 0.0000 0.0000 0.0000
# 2 40.0537 163.5930 39.7406 0.0000 0.0000 0.0000
# 3 21.4462 39.7406 76.8753 0.0000 0.0000 0.0000
# 4 0.0000 0.0000 0.0000 35.7392 0.0000 0.0000
# 5 0.0000 0.0000 0.0000 0.0000 14.4978 0.0000
# 6 0.0000 0.0000 0.0000 0.0000 0.0000 39.3180
#
#
#
# Elastic Compliance Matrix: (Units=1/GPa)
#
#
# Indices 1 2 3 4 5 6 
#
# 1 0.042438 -0.008594 -0.007397 0.000000 0.000000 0.000000
# 2 -0.008594 0.008731 -0.002116 0.000000 0.000000 0.000000
# 3 -0.007397 -0.002116 0.016165 0.000000 0.000000 0.000000
# 4 0.000000 0.000000 0.000000 0.027980 0.000000 0.000000
# 5 0.000000 0.000000 0.000000 0.000000 0.068976 0.000000
# 6 0.000000 0.000000 0.000000 0.000000 0.000000 0.025434
#
#
# Mechanical properties :
#
#
# Convention : Reuss Voigt Hill
#
# Bulk Modulus (GPa) = 32.13183 53.15128 42.64155
# Shear Modulus (GPa) = 21.15858 29.55370 25.35614
#
# Velocity S-wave (km/s) = 3.01500 3.56328 3.30054
# Velocity P-wave (km/s) = 5.09165 6.30589 5.73102
#
# Compressibility (1/GPa) = 0.03112179
#
# Stress axis : x y z
#
# Youngs Moduli (GPa) = 23.56377 114.53728 61.86055
#
# Poissons Ratio (x) = 0.98429 0.45756
# Poissons Ratio (y) = 0.20250 0.13090
# Poissons Ratio (z) = 0.17429 0.24236
#
# Static dielectric constant tensor:
#      x y z
#    x 1.929650 0.000000 0.000000 
#    y 0.000000 1.924290 0.000000 
#    z 0.000000 0.000000 1.914580 
# 
# From -- ./inp_files/2325.got.cif
#   From: 2010.05.17/outbox.cif.g08.bks.cpg/sg41_2_cif.got.tgz:2325.got - 2010.06.03 18:54:24.
