data_PCOD9367797
_publ_section_title
;
Structure prediction by ZEFSAII (Michael W. Deem and Ramdas Pophale) SiO2 
 PCOD9367797
Probable space group: A B A 2
;
_chemical_formula_sum "Si O2"
_cell_formula_units_Z 60
_cell_length_a 10.138953
_cell_length_b 20.403137
_cell_length_c 11.916205
_cell_angle_alpha 90.000000
_cell_angle_beta 90.000000
_cell_angle_gamma 90.000000
_cell_volume 2465.062991
_symmetry_space_group_name_H-M "A B A 2"
_symmetry_group_IT_number 41
_symmetry_cell_setting 'orthorhombic'
loop_
_space_group_symop_operation_xyz
x,y,z
-x,-y,z
1/2-x,y,1/2+z
1/2+x,-y,1/2+z
x,1/2+y,1/2+z
-x,1/2-y,1/2+z
1/2-x,1/2+y,z
1/2+x,1/2-y,z
loop_
_atom_site_type_symbol
_atom_site_label
_atom_site_fract_x
_atom_site_fract_y
_atom_site_fract_z
Si Si1 0.975590 0.105651 0.665600
Si Si2 0.135718 0.091501 0.873218
Si Si3 0.958543 0.128527 0.068777
Si Si4 0.681594 0.144742 0.984798
Si Si5 0.000000 0.500000 0.704104
Si Si6 0.234338 0.961489 0.817134
Si Si7 0.499158 0.251244 0.229827
Si Si8 0.745505 0.775680 0.871986
O O1 0.950080 0.109694 0.532749
O O2 0.873290 0.056343 0.723526
O O3 0.945932 0.182003 0.689017
O O4 0.106868 0.093065 0.738810
O O5 0.237879 0.148344 0.904101
O O6 0.170883 0.016559 0.899204
O O7 0.008780 0.118771 0.941085
O O8 0.003462 0.193537 0.134208
O O9 0.800995 0.127357 0.068687
O O10 0.011213 0.065553 0.132133
O O11 0.719417 0.106276 0.872167
O O12 0.704260 0.221847 0.961400
O O13 0.133569 0.494455 0.773202
O O14 0.349403 0.239053 0.270975
O O15 0.595084 0.267991 0.333515
#
# Coordination Sequence:
#
# PCOD9367797 Si02
#       8
#     8   8   8   8   4   8   8   8
#     4  11  23  43  70 100 135 187 232 295 357 436
#     4  11  25  42  68 100 144 178 231 301 360 429
#     4  12  23  42  71 105 137 189 246 290 373 439
#     4  12  23  44  75 101 138 196 241 296 375 438
#     4  12  26  44  68 100 136 190 236 308 358 444
#     4  12  24  47  67  99 143 186 242 295 367 438
#     4  11  23  44  71 105 141 187 241 301 359 439
#     4  11  23  45  69 104 144 187 234 306 361 426
#
# _framework density 24.340147999999999
#
# number of rings (size 3 to 8) (size 9 to 14) (size 15 to 20)
#    0.000    0.533    4.000    5.200    0.000    0.000 
#    2.400    4.000    0.000    0.000    0.000    0.000 
#    0.000    0.000    0.000    0.000    0.000    0.000 
#
# Total GULP energy -167564.651551 kJ/mol
# GULP energy per Si atom -5585.488385 kJ/mol
# Density = 2.428475 g / cm^3
# Si number density = 24.340148 Si / 1000 Ang^3
#
#
#
# Elastic Constant Matrix: (Units=GPa)
#
#
# Indices 1 2 3 4 5 6 
#
# 1 60.7611 3.7159 1.3697 0.0000 0.0000 0.0000
# 2 3.7159 142.2119 7.8349 0.0000 0.0000 0.0000
# 3 1.3697 7.8349 36.2086 0.0000 0.0000 0.0000
# 4 0.0000 0.0000 0.0000 31.5669 0.0000 0.0000
# 5 0.0000 0.0000 0.0000 0.0000 28.1067 0.0000
# 6 0.0000 0.0000 0.0000 0.0000 0.0000 32.9287
#
#
#
# Elastic Compliance Matrix: (Units=1/GPa)
#
#
# Indices 1 2 3 4 5 6 
#
# 1 0.016495 -0.000401 -0.000537 0.000000 0.000000 0.000000
# 2 -0.000401 0.007126 -0.001527 0.000000 0.000000 0.000000
# 3 -0.000537 -0.001527 0.027968 0.000000 0.000000 0.000000
# 4 0.000000 0.000000 0.000000 0.031679 0.000000 0.000000
# 5 0.000000 0.000000 0.000000 0.000000 0.035579 0.000000
# 6 0.000000 0.000000 0.000000 0.000000 0.000000 0.030369
#
#
# Mechanical properties :
#
#
# Convention : Reuss Voigt Hill
#
# Bulk Modulus (GPa) = 21.43224 29.44696 25.43960
# Shear Modulus (GPa) = 29.46394 33.60455 31.53425
#
# Velocity S-wave (km/s) = 3.48301 3.71970 3.60330
# Velocity P-wave (km/s) = 4.99996 5.52925 5.27125
#
# Compressibility (1/GPa) = 0.04665867
#
# Stress axis : x y z
#
# Youngs Moduli (GPa) = 60.62607 140.32395 35.75456
#
# Poissons Ratio (x) = 0.05633 0.01920
# Poissons Ratio (y) = 0.02434 0.05459
# Poissons Ratio (z) = 0.03256 0.21425
#
# Static dielectric constant tensor:
#      x y z
#    x 1.951490 0.000000 0.000000 
#    y 0.000000 1.927340 0.000000 
#    z 0.000000 0.000000 2.076230 
# 
# From -- ./inp_files/5120.got.cif
#   From: 2010.05.17/outbox.cif.g08.bks.cpg/sg41_3_cif.got.tgz:5120.got - 2010.06.03 18:54:24.
