data_PCOD9367819
_publ_section_title
;
Structure prediction by ZEFSAII (Michael W. Deem and Ramdas Pophale) SiO2 
 PCOD9367819
Probable space group: A B A 2
;
_chemical_formula_sum "Si O2"
_cell_formula_units_Z 36
_cell_length_a 8.940315
_cell_length_b 14.239342
_cell_length_c 12.261111
_cell_angle_alpha 90.000000
_cell_angle_beta 90.000000
_cell_angle_gamma 90.000000
_cell_volume 1560.890962
_symmetry_space_group_name_H-M "A B A 2"
_symmetry_group_IT_number 41
_symmetry_cell_setting 'orthorhombic'
loop_
_space_group_symop_operation_xyz
x,y,z
-x,-y,z
1/2-x,y,1/2+z
1/2+x,-y,1/2+z
x,1/2+y,1/2+z
-x,1/2-y,1/2+z
1/2-x,1/2+y,z
1/2+x,1/2-y,z
loop_
_atom_site_type_symbol
_atom_site_label
_atom_site_fract_x
_atom_site_fract_y
_atom_site_fract_z
Si Si1 0.497172 0.161303 0.978790
Si Si2 0.500000 0.500000 0.853795
Si Si3 0.848546 0.637485 0.188423
Si Si4 0.502828 0.161303 0.728800
Si Si5 0.151453 0.137485 0.019167
O O1 0.500001 0.129088 0.853795
O O2 0.597908 0.107854 0.067644
O O3 0.326433 0.158437 0.017200
O O4 0.563278 0.267111 0.985921
O O5 0.604375 0.561999 0.776724
O O6 0.395627 0.561999 0.930866
O O7 0.936722 0.732888 0.221670
O O8 0.673567 0.658438 0.190389
O O9 0.402092 0.107854 0.639946
#
# Coordination Sequence:
#
# PCOD9367819 Si02
#       5
#     8   4   8   8   8
#     4  11  23  45  77 100 134 191 242 271 335 438
#     4  12  28  44  68 104 156 170 226 310 352 392
#     4  11  25  44  74 105 139 183 236 289 349 403
#     4  11  23  45  77 100 134 191 242 271 335 438
#     4  11  25  44  74 105 139 183 236 289 349 403
#
# _framework density 23.063752000000001
#
# number of rings (size 3 to 8) (size 9 to 14) (size 15 to 20)
#    0.000    0.889    2.222    6.667    6.222    1.778 
#    0.000    0.000    0.000    0.000    0.000    0.000 
#    0.000    0.000    0.000    0.000    0.000    0.000 
#
# Total GULP energy -100857.711027 kJ/mol
# GULP energy per Si atom -5603.206168 kJ/mol
# Density = 2.301126 g / cm^3
# Si number density = 23.063752 Si / 1000 Ang^3
#
#
#
# Elastic Constant Matrix: (Units=GPa)
#
#
# Indices 1 2 3 4 5 6 
#
# 1 229.4794 21.6763 80.6108 0.0000 0.0000 0.0000
# 2 21.6763 50.0896 26.8284 0.0000 0.0000 0.0000
# 3 80.6108 26.8284 236.2997 0.0000 0.0000 0.0000
# 4 0.0000 0.0000 0.0000 46.0203 0.0000 0.0000
# 5 0.0000 0.0000 0.0000 0.0000 30.8778 0.0000
# 6 0.0000 0.0000 0.0000 0.0000 0.0000 -25.0534
#
#
#
# Elastic Compliance Matrix: (Units=1/GPa)
#
#
# Indices 1 2 3 4 5 6 
#
# 1 0.005034 -0.001340 -0.001565 0.000000 0.000000 0.000000
# 2 -0.001340 0.021614 -0.001997 0.000000 0.000000 0.000000
# 3 -0.001565 -0.001997 0.004993 0.000000 0.000000 0.000000
# 4 0.000000 0.000000 0.000000 0.021730 0.000000 0.000000
# 5 0.000000 0.000000 0.000000 0.000000 0.032386 0.000000
# 6 0.000000 0.000000 0.000000 0.000000 0.000000 -0.039915
#
#
# Mechanical properties :
#
#
# Convention : Reuss Voigt Hill
#
# Bulk Modulus (GPa) = 45.79562 86.01106 65.90334
# Shear Modulus (GPa) = 79.46140 36.15250 57.80695
#
# Velocity S-wave (km/s) = 5.87603 3.96347 5.01183
# Velocity P-wave (km/s) = 8.12011 7.63670 7.88211
#
# Compressibility (1/GPa) = 0.02183615
#
# Stress axis : x y z
#
# Youngs Moduli (GPa) = 198.64581 46.26704 200.29855
#
# Poissons Ratio (x) = 0.06201 0.31350
# Poissons Ratio (y) = 0.26622 0.39994
# Poissons Ratio (z) = 0.31091 0.09238
#
# Static dielectric constant tensor:
#      x y z
#    x 1.781010 0.000000 0.000000 
#    y 0.000000 1.891910 0.000000 
#    z 0.000000 0.000000 1.895350 
# 
# From -- ./inp_files/4347.got.cif
#   From: 2010.05.17/outbox.cif.g08.bks.cpg/sg41_3_cif.got.tgz:4347.got - 2010.06.03 18:54:24.
