data_PCOD9367538
_publ_section_title
;
Structure prediction by ZEFSAII (Michael W. Deem and Ramdas Pophale) SiO2 
 PCOD9367538
Probable space group: A B A 2
;
_chemical_formula_sum "Si O2"
_cell_formula_units_Z 52
_cell_length_a 19.362009
_cell_length_b 10.113463
_cell_length_c 12.407248
_cell_angle_alpha 90.000000
_cell_angle_beta 90.000000
_cell_angle_gamma 90.000000
_cell_volume 2429.549606
_symmetry_space_group_name_H-M "A B A 2"
_symmetry_group_IT_number 41
_symmetry_cell_setting 'orthorhombic'
loop_
_space_group_symop_operation_xyz
x,y,z
-x,-y,z
1/2-x,y,1/2+z
1/2+x,-y,1/2+z
x,1/2+y,1/2+z
-x,1/2-y,1/2+z
1/2-x,1/2+y,z
1/2+x,1/2-y,z
loop_
_atom_site_type_symbol
_atom_site_label
_atom_site_fract_x
_atom_site_fract_y
_atom_site_fract_z
Si Si1 0.759825 0.517750 0.691470
Si Si2 0.000000 0.500000 0.117455
Si Si3 0.500000 0.500000 0.944555
Si Si4 0.500000 0.500000 0.308958
Si Si5 0.691673 0.260638 0.073887
Si Si6 0.868029 0.145237 0.352224
Si Si7 0.884506 0.439741 0.281444
Si Si8 0.034582 0.208379 0.122088
O O1 0.775173 0.403887 0.602309
O O2 0.737588 0.651011 0.631535
O O3 0.822601 0.557977 0.769876
O O4 0.695422 0.472735 0.766127
O O5 0.073350 0.507927 0.180209
O O6 0.002795 0.347567 0.086682
O O7 0.570238 0.507886 0.875536
O O8 0.487637 0.620336 0.022281
O O9 0.565798 0.551299 0.377481
O O10 0.484675 0.624766 0.229397
O O11 0.616497 0.274481 0.126424
O O12 0.674914 0.203799 0.954046
O O13 0.891779 0.281947 0.295477
#
# Coordination Sequence:
#
# PCOD9367538 Si02
#       8
#     8   4   4   4   8   8   8   8
#     4  12  27  49  72 105 154 191 243 318 371 451
#     4  11  22  40  70 103 140 190 235 299 379 423
#     4  10  24  44  73 101 142 196 248 302 369 455
#     4  11  24  46  75 100 144 196 241 323 376 432
#     4  12  27  46  73 110 145 194 252 300 377 454
#     4  12  26  47  76 108 143 196 255 308 380 448
#     4  11  23  45  69 102 144 188 237 305 373 432
#     4  11  22  43  70 106 145 185 247 310 371 439
#
# _framework density 21.403144999999999
#
# number of rings (size 3 to 8) (size 9 to 14) (size 15 to 20)
#    0.000    0.615    7.692    0.000    2.154    0.615 
#    2.769    0.000    0.000    0.000    0.000    0.000 
#    0.000    0.000    0.000    0.000    0.000    0.000 
#
# Total GULP energy -144869.982960 kJ/mol
# GULP energy per Si atom -5571.922422 kJ/mol
# Density = 2.135443 g / cm^3
# Si number density = 21.403145 Si / 1000 Ang^3
#
#
#
# Elastic Constant Matrix: (Units=GPa)
#
#
# Indices 1 2 3 4 5 6 
#
# 1 91.3107 61.3438 26.5668 0.0000 0.0000 0.0000
# 2 61.3438 350.5444 91.4343 0.0000 0.0000 0.0000
# 3 26.5668 91.4343 75.0667 0.0000 0.0000 0.0000
# 4 0.0000 0.0000 0.0000 -3.8289 0.0000 0.0000
# 5 0.0000 0.0000 0.0000 0.0000 57.4303 0.0000
# 6 0.0000 0.0000 0.0000 0.0000 0.0000 49.0649
#
#
#
# Elastic Compliance Matrix: (Units=1/GPa)
#
#
# Indices 1 2 3 4 5 6 
#
# 1 0.012756 -0.001546 -0.002632 0.000000 0.000000 0.000000
# 2 -0.001546 0.004368 -0.004774 0.000000 0.000000 0.000000
# 3 -0.002632 -0.004774 0.020067 0.000000 0.000000 0.000000
# 4 0.000000 0.000000 0.000000 -0.261174 0.000000 0.000000
# 5 0.000000 0.000000 0.000000 0.000000 0.017412 0.000000
# 6 0.000000 0.000000 0.000000 0.000000 0.000000 0.020381
#
#
# Mechanical properties :
#
#
# Convention : Reuss Voigt Hill
#
# Bulk Modulus (GPa) = 51.84202 97.29018 74.56610
# Shear Modulus (GPa) = -30.89143 43.03840 6.07349
#
# Velocity S-wave (km/s) = -3.80322 4.48911 1.68636
# Velocity P-wave (km/s) = 2.23345 8.51024 6.22143
#
# Compressibility (1/GPa) = 0.01928937
#
# Stress axis : x y z
#
# Youngs Moduli (GPa) = 78.39605 228.91717 49.83188
#
# Poissons Ratio (x) = 0.35386 0.13113
# Poissons Ratio (y) = 0.12119 0.23789
# Poissons Ratio (z) = 0.20630 1.09281
#
# Static dielectric constant tensor:
#      x y z
#    x 1.737180 0.000000 0.000000 
#    y 0.000000 1.798540 0.000000 
#    z 0.000000 0.000000 1.844220 
# 
# From -- ./inp_files/8992.got.cif
#   From: 2010.05.17/outbox.cif.g08.bks.cpg/sg41_5_cif.got.tgz:8992.got - 2010.06.03 18:54:24.
