data_PCOD9367637
_publ_section_title
;
Structure prediction by ZEFSAII (Michael W. Deem and Ramdas Pophale) SiO2 
 PCOD9367637
Probable space group: A B A 2
;
_chemical_formula_sum "Si O2"
_cell_formula_units_Z 40
_cell_length_a 13.704864
_cell_length_b 12.041873
_cell_length_c 8.457964
_cell_angle_alpha 90.000000
_cell_angle_beta 90.000000
_cell_angle_gamma 90.000000
_cell_volume 1395.836675
_symmetry_space_group_name_H-M "A B A 2"
_symmetry_group_IT_number 41
_symmetry_cell_setting 'orthorhombic'
loop_
_space_group_symop_operation_xyz
x,y,z
-x,-y,z
1/2-x,y,1/2+z
1/2+x,-y,1/2+z
x,1/2+y,1/2+z
-x,1/2-y,1/2+z
1/2-x,1/2+y,z
1/2+x,1/2-y,z
loop_
_atom_site_type_symbol
_atom_site_label
_atom_site_fract_x
_atom_site_fract_y
_atom_site_fract_z
Si Si1 0.101208 0.040368 0.754060
Si Si2 0.791933 0.842412 0.273485
Si Si3 0.561821 0.764301 0.501922
Si Si4 0.602624 0.052989 0.789936
Si Si5 0.651177 0.162577 0.482305
O O1 0.196680 0.105621 0.691573
O O2 0.071540 0.130715 0.886230
O O3 0.134223 0.931087 0.850131
O O4 0.000000 0.000000 0.669965
O O5 0.773776 0.748160 0.404204
O O6 0.872225 0.789723 0.154876
O O7 0.841433 0.947773 0.356886
O O8 0.583553 0.649852 0.413311
O O9 0.445801 0.768231 0.531805
O O10 0.667992 0.098479 0.645104
O O11 0.500000 0.000000 0.728814
#
# Coordination Sequence:
#
# PCOD9367637 Si02
#       5
#     8   8   8   8   8
#     4  10  25  50  78 115 170 225 285 357 424 513
#     4  12  26  48  81 119 159 221 284 339 433 520
#     4  11  23  48  80 116 165 210 271 357 426 514
#     4  12  23  48  81 120 171 212 265 351 432 519
#     4  11  22  49  83 114 161 217 272 350 433 511
#
# _framework density 28.656651
#
# number of rings (size 3 to 8) (size 9 to 14) (size 15 to 20)
#    0.000    0.800    6.000    0.600    2.800    1.600 
#    7.200    2.000    0.000    0.000    0.000    1.400 
#    0.000    0.000    0.000    0.000    0.000    0.000 
#
# Total GULP energy -112139.386474 kJ/mol
# GULP energy per Si atom -5606.969324 kJ/mol
# Density = 2.859143 g / cm^3
# Si number density = 28.656651 Si / 1000 Ang^3
#
#
#
# Elastic Constant Matrix: (Units=GPa)
#
#
# Indices 1 2 3 4 5 6 
#
# 1 153.1899 70.1042 62.2538 0.0000 0.0000 0.0000
# 2 70.1042 224.9682 77.2147 0.0000 0.0000 0.0000
# 3 62.2538 77.2147 96.9232 0.0000 0.0000 0.0000
# 4 0.0000 0.0000 0.0000 54.8284 0.0000 0.0000
# 5 0.0000 0.0000 0.0000 0.0000 43.1028 0.0000
# 6 0.0000 0.0000 0.0000 0.0000 0.0000 62.9474
#
#
#
# Elastic Compliance Matrix: (Units=1/GPa)
#
#
# Indices 1 2 3 4 5 6 
#
# 1 0.009039 -0.001134 -0.004902 0.000000 0.000000 0.000000
# 2 -0.001134 0.006260 -0.004259 0.000000 0.000000 0.000000
# 3 -0.004902 -0.004259 0.016859 0.000000 0.000000 0.000000
# 4 0.000000 0.000000 0.000000 0.018239 0.000000 0.000000
# 5 0.000000 0.000000 0.000000 0.000000 0.023200 0.000000
# 6 0.000000 0.000000 0.000000 0.000000 0.000000 0.015886
#
#
# Mechanical properties :
#
#
# Convention : Reuss Voigt Hill
#
# Bulk Modulus (GPa) = 86.44649 99.35852 92.90251
# Shear Modulus (GPa) = 43.88660 49.87628 46.88144
#
# Velocity S-wave (km/s) = 3.91764 4.17643 4.04910
# Velocity P-wave (km/s) = 7.12009 7.61604 7.37224
#
# Compressibility (1/GPa) = 0.01156785
#
# Stress axis : x y z
#
# Youngs Moduli (GPa) = 110.63087 159.73881 59.31558
#
# Poissons Ratio (x) = 0.18117 0.29078
# Poissons Ratio (y) = 0.12547 0.25261
# Poissons Ratio (z) = 0.54234 0.68029
#
# Static dielectric constant tensor:
#      x y z
#    x 2.344960 0.000000 0.000000 
#    y 0.000000 2.116900 0.000000 
#    z 0.000000 0.000000 2.148690 
# 
# From -- ./inp_files/2409.got.cif
#   From: 2010.05.17/outbox.cif.g08.bks.cpg/sg41_2_cif.got.tgz:2409.got - 2010.06.03 18:54:24.
