data_PCOD9367273
_publ_section_title
;
Structure prediction by ZEFSAII (Michael W. Deem and Ramdas Pophale) SiO2 
 PCOD9367273
Probable space group: A B A 2
;
_chemical_formula_sum "Si O2"
_cell_formula_units_Z 32
_cell_length_a 15.005649
_cell_length_b 9.318787
_cell_length_c 9.618979
_cell_angle_alpha 90.000000
_cell_angle_beta 90.000000
_cell_angle_gamma 90.000000
_cell_volume 1345.064608
_symmetry_space_group_name_H-M "A B A 2"
_symmetry_group_IT_number 41
_symmetry_cell_setting 'orthorhombic'
loop_
_space_group_symop_operation_xyz
x,y,z
-x,-y,z
1/2-x,y,1/2+z
1/2+x,-y,1/2+z
x,1/2+y,1/2+z
-x,1/2-y,1/2+z
1/2-x,1/2+y,z
1/2+x,1/2-y,z
loop_
_atom_site_type_symbol
_atom_site_label
_atom_site_fract_x
_atom_site_fract_y
_atom_site_fract_z
Si Si1 0.690508 0.368181 0.723030
Si Si2 0.642882 0.845807 0.530406
Si Si3 0.911646 0.088574 0.849985
Si Si4 0.970148 0.837847 0.512232
O O1 0.781823 0.346108 0.644901
O O2 0.669219 0.537268 0.753971
O O3 0.609751 0.325776 0.622153
O O4 0.681746 0.300977 0.877242
O O5 0.558061 0.747686 0.559628
O O6 0.610810 0.008268 0.496230
O O7 0.000000 0.000000 0.801954
O O8 0.934946 0.251060 0.878036
O O9 0.000000 0.000000 0.483499
#
# Coordination Sequence:
#
# PCOD9367273 Si02
#       4
#     8   8   8   8
#     4  10  22  46  77 107 158 197 268 319 385 469
#     4   9  23  46  76 111 150 212 254 329 383 469
#     4   8  19  45  72 101 147 194 254 310 380 463
#     4  11  23  43  77 113 153 205 251 327 397 461
#
# _framework density 23.790680999999999
#
# number of rings (size 3 to 8) (size 9 to 14) (size 15 to 20)
#    1.500    1.000    0.000    0.750    0.000    4.000 
#    4.500    3.750    0.000    4.500    0.000    0.000 
#    0.000    0.000    0.000    0.000    0.000    0.000 
#
# Total GULP energy -89329.283316 kJ/mol
# GULP energy per Si atom -5583.080207 kJ/mol
# Density = 2.373653 g / cm^3
# Si number density = 23.790681 Si / 1000 Ang^3
#
#
#
# Elastic Constant Matrix: (Units=GPa)
#
#
# Indices 1 2 3 4 5 6 
#
# 1 167.4212 58.2339 58.1019 0.0000 0.0000 0.0000
# 2 58.2339 138.4358 47.7779 0.0000 0.0000 0.0000
# 3 58.1019 47.7779 86.1682 0.0000 0.0000 0.0000
# 4 0.0000 0.0000 0.0000 12.4018 0.0000 0.0000
# 5 0.0000 0.0000 0.0000 0.0000 31.9295 0.0000
# 6 0.0000 0.0000 0.0000 0.0000 0.0000 28.6173
#
#
#
# Elastic Compliance Matrix: (Units=1/GPa)
#
#
# Indices 1 2 3 4 5 6 
#
# 1 0.008184 -0.001902 -0.004463 0.000000 0.000000 0.000000
# 2 -0.001902 0.009375 -0.003916 0.000000 0.000000 0.000000
# 3 -0.004463 -0.003916 0.016786 0.000000 0.000000 0.000000
# 4 0.000000 0.000000 0.000000 0.080633 0.000000 0.000000
# 5 0.000000 0.000000 0.000000 0.000000 0.031319 0.000000
# 6 0.000000 0.000000 0.000000 0.000000 0.000000 0.034944
#
#
# Mechanical properties :
#
#
# Convention : Reuss Voigt Hill
#
# Bulk Modulus (GPa) = 72.55690 80.02806 76.29248
# Shear Modulus (GPa) = 24.22516 29.78384 27.00450
#
# Velocity S-wave (km/s) = 3.19448 3.54208 3.37276
# Velocity P-wave (km/s) = 6.64609 7.10210 6.87788
#
# Compressibility (1/GPa) = 0.01378229
#
# Stress axis : x y z
#
# Youngs Moduli (GPa) = 122.19687 106.66575 59.57354
#
# Poissons Ratio (x) = 0.20288 0.26590
# Poissons Ratio (y) = 0.23242 0.23327
# Poissons Ratio (z) = 0.54541 0.41767
#
# Static dielectric constant tensor:
#      x y z
#    x 1.891060 0.000000 0.000000 
#    y 0.000000 1.951410 0.000000 
#    z 0.000000 0.000000 1.980850 
# 
# From -- ./inp_files/5273.got.cif
#   From: 2010.05.17/outbox.cif.g08.bks.cpg/sg41_3_cif.got.tgz:5273.got - 2010.06.03 18:54:24.
