data_PCOD9367305
_publ_section_title
;
Structure prediction by ZEFSAII (Michael W. Deem and Ramdas Pophale) SiO2 
 PCOD9367305
Probable space group: A B A 2
;
_chemical_formula_sum "Si O2"
_cell_formula_units_Z 48
_cell_length_a 9.956027
_cell_length_b 21.449399
_cell_length_c 11.011837
_cell_angle_alpha 90.000000
_cell_angle_beta 90.000000
_cell_angle_gamma 90.000000
_cell_volume 2351.586552
_symmetry_space_group_name_H-M "A B A 2"
_symmetry_group_IT_number 41
_symmetry_cell_setting 'orthorhombic'
loop_
_space_group_symop_operation_xyz
x,y,z
-x,-y,z
1/2-x,y,1/2+z
1/2+x,-y,1/2+z
x,1/2+y,1/2+z
-x,1/2-y,1/2+z
1/2-x,1/2+y,z
1/2+x,1/2-y,z
loop_
_atom_site_type_symbol
_atom_site_label
_atom_site_fract_x
_atom_site_fract_y
_atom_site_fract_z
Si Si1 0.101598 0.270889 0.909430
Si Si2 0.677373 0.308804 0.294179
Si Si3 0.747178 0.130537 0.553836
Si Si4 0.838488 0.567340 0.299831
Si Si5 0.946290 0.347113 0.557103
Si Si6 0.144206 0.073813 0.865970
O O1 0.230024 0.250730 0.827424
O O2 0.971706 0.302506 0.849946
O O3 0.155043 0.312028 0.021962
O O4 0.049259 0.203434 0.950690
O O5 0.655680 0.318680 0.152522
O O6 0.749380 0.372431 0.336940
O O7 0.796763 0.087978 0.664914
O O8 0.726320 0.101083 0.418253
O O9 0.598666 0.148862 0.598921
O O10 0.811037 0.494605 0.327442
O O11 0.998019 0.581005 0.304926
O O12 0.893383 0.413288 0.507260
#
# Coordination Sequence:
#
# PCOD9367305 Si02
#       6
#     8   8   8   8   8   8
#     4  11  24  41  62 105 137 174 231 282 351 409
#     4  11  24  41  69  98 138 178 230 284 342 419
#     4  11  23  43  68 101 135 182 224 287 342 409
#     4  10  23  44  70  94 141 177 230 280 343 402
#     4  10  23  40  68  93 138 179 228 282 345 409
#     4   9  23  45  63  98 131 186 222 281 340 410
#
# _framework density 20.411750999999999
#
# number of rings (size 3 to 8) (size 9 to 14) (size 15 to 20)
#    0.000    1.667    1.667    1.000    7.000    2.667 
#    3.000    1.667    0.000    0.000    0.000    0.000 
#    0.000    0.000    0.000    0.000    0.000    0.000 
#
# Total GULP energy -133714.082727 kJ/mol
# GULP energy per Si atom -5571.420114 kJ/mol
# Density = 2.036529 g / cm^3
# Si number density = 20.411751 Si / 1000 Ang^3
#
#
#
# Elastic Constant Matrix: (Units=GPa)
#
#
# Indices 1 2 3 4 5 6 
#
# 1 98.5836 50.2123 38.0356 0.0000 0.0000 0.0000
# 2 50.2123 117.4072 42.3443 0.0000 0.0000 0.0000
# 3 38.0356 42.3443 74.2356 0.0000 0.0000 0.0000
# 4 0.0000 0.0000 0.0000 35.3762 0.0000 0.0000
# 5 0.0000 0.0000 0.0000 0.0000 12.4645 0.0000
# 6 0.0000 0.0000 0.0000 0.0000 0.0000 27.8622
#
#
#
# Elastic Compliance Matrix: (Units=1/GPa)
#
#
# Indices 1 2 3 4 5 6 
#
# 1 0.014210 -0.004345 -0.004802 0.000000 0.000000 0.000000
# 2 -0.004345 0.012052 -0.004648 0.000000 0.000000 0.000000
# 3 -0.004802 -0.004648 0.018582 0.000000 0.000000 0.000000
# 4 0.000000 0.000000 0.000000 0.028268 0.000000 0.000000
# 5 0.000000 0.000000 0.000000 0.000000 0.080228 0.000000
# 6 0.000000 0.000000 0.000000 0.000000 0.000000 0.035891
#
#
# Mechanical properties :
#
#
# Convention : Reuss Voigt Hill
#
# Bulk Modulus (GPa) = 57.96016 61.26786 59.61401
# Shear Modulus (GPa) = 22.46463 25.78286 24.12374
#
# Velocity S-wave (km/s) = 3.32109 3.55792 3.44154
# Velocity P-wave (km/s) = 6.56988 6.85270 6.71278
#
# Compressibility (1/GPa) = 0.01725323
#
# Stress axis : x y z
#
# Youngs Moduli (GPa) = 70.37533 82.97255 53.81453
#
# Poissons Ratio (x) = 0.36053 0.25841
# Poissons Ratio (y) = 0.30580 0.25015
# Poissons Ratio (z) = 0.33794 0.38568
#
# Static dielectric constant tensor:
#      x y z
#    x 1.742400 0.000000 0.000000 
#    y 0.000000 1.742880 0.000000 
#    z 0.000000 0.000000 1.803730 
# 
# From -- ./inp_files/4511.got.cif
#   From: 2010.05.17/outbox.cif.g08.bks.cpg/sg41_3_cif.got.tgz:4511.got - 2010.06.03 18:54:24.
