data_PCOD9367412
_publ_section_title
;
Structure prediction by ZEFSAII (Michael W. Deem and Ramdas Pophale) SiO2 
 PCOD9367412
Probable space group: A B A 2
;
_chemical_formula_sum "Si O2"
_cell_formula_units_Z 60
_cell_length_a 8.999528
_cell_length_b 13.505615
_cell_length_c 25.155666
_cell_angle_alpha 90.000000
_cell_angle_beta 90.000000
_cell_angle_gamma 90.000000
_cell_volume 3057.524302
_symmetry_space_group_name_H-M "A B A 2"
_symmetry_group_IT_number 41
_symmetry_cell_setting 'orthorhombic'
loop_
_space_group_symop_operation_xyz
x,y,z
-x,-y,z
1/2-x,y,1/2+z
1/2+x,-y,1/2+z
x,1/2+y,1/2+z
-x,1/2-y,1/2+z
1/2-x,1/2+y,z
1/2+x,1/2-y,z
loop_
_atom_site_type_symbol
_atom_site_label
_atom_site_fract_x
_atom_site_fract_y
_atom_site_fract_z
Si Si1 0.517330 0.881595 0.790720
Si Si2 0.448439 0.819029 0.033935
Si Si3 0.500000 0.000000 0.964759
Si Si4 0.527446 0.380215 0.166494
Si Si5 0.262694 0.074862 0.880140
Si Si6 0.023499 0.223795 0.925281
Si Si7 0.737495 0.649391 0.364527
Si Si8 0.203185 0.232116 0.609321
O O1 0.541274 0.858700 0.729458
O O2 0.657886 0.869184 0.830492
O O3 0.362279 0.833004 0.811365
O O4 0.500000 0.000000 0.795234
O O5 0.579888 0.828180 0.076650
O O6 0.303824 0.786164 0.065422
O O7 0.425766 0.920926 0.003708
O O8 0.493292 0.738238 0.988302
O O9 0.621838 0.949031 0.927147
O O10 0.500000 0.500000 0.159157
O O11 0.390546 0.313915 0.143187
O O12 0.680163 0.338539 0.140365
O O13 0.131999 0.136444 0.906565
O O14 0.216272 0.965260 0.861373
O O15 0.108566 0.322327 0.906058
O O16 0.875825 0.204575 0.891516
#
# Coordination Sequence:
#
# PCOD9367412 Si02
#       8
#     8   8   4   8   8   8   8   8
#     4   9  19  40  66  91 127 167 210 263 333 381
#     4  11  23  39  61  89 128 165 215 267 317 382
#     4  12  20  36  64  84 128 170 194 248 342 368
#     4  10  23  45  70  92 128 171 215 287 339 374
#     4  11  21  38  60  92 127 166 207 255 310 402
#     4  12  23  37  59  87 130 168 210 254 314 391
#     4  11  21  37  55  90 124 163 208 254 307 396
#     4  10  24  44  62  96 125 159 236 275 310 397
#
# _framework density 19.623719999999999
#
# number of rings (size 3 to 8) (size 9 to 14) (size 15 to 20)
#    0.000    1.333    3.333    3.600    1.867    2.133 
#    0.000    1.333    0.000    6.400    0.000    0.000 
#    0.000    0.000    0.000    0.000    0.000    0.000 
#
# Total GULP energy -167064.723073 kJ/mol
# GULP energy per Si atom -5568.824102 kJ/mol
# Density = 1.957906 g / cm^3
# Si number density = 19.623720 Si / 1000 Ang^3
#
#
#
# Elastic Constant Matrix: (Units=GPa)
#
#
# Indices 1 2 3 4 5 6 
#
# 1 122.0648 41.1838 51.2495 0.0000 0.0000 0.0000
# 2 41.1838 73.0443 46.2459 0.0000 0.0000 0.0000
# 3 51.2495 46.2459 125.7039 0.0000 0.0000 0.0000
# 4 0.0000 0.0000 0.0000 56.2897 0.0000 0.0000
# 5 0.0000 0.0000 0.0000 0.0000 11.7828 0.0000
# 6 0.0000 0.0000 0.0000 0.0000 0.0000 34.5814
#
#
#
# Elastic Compliance Matrix: (Units=1/GPa)
#
#
# Indices 1 2 3 4 5 6 
#
# 1 0.010838 -0.004319 -0.002830 0.000000 0.000000 0.000000
# 2 -0.004319 0.019569 -0.005438 0.000000 0.000000 0.000000
# 3 -0.002830 -0.005438 0.011110 0.000000 0.000000 0.000000
# 4 0.000000 0.000000 0.000000 0.017765 0.000000 0.000000
# 5 0.000000 0.000000 0.000000 0.000000 0.084869 0.000000
# 6 0.000000 0.000000 0.000000 0.000000 0.000000 0.028917
#
#
# Mechanical properties :
#
#
# Convention : Reuss Voigt Hill
#
# Bulk Modulus (GPa) = 61.19219 66.46350 63.82784
# Shear Modulus (GPa) = 24.54727 32.67303 28.61015
#
# Velocity S-wave (km/s) = 3.54064 4.08484 3.82244
# Velocity P-wave (km/s) = 6.92570 7.49602 7.21650
#
# Compressibility (1/GPa) = 0.01634195
#
# Stress axis : x y z
#
# Youngs Moduli (GPa) = 92.27166 51.10228 90.01263
#
# Poissons Ratio (x) = 0.22071 0.25469
# Poissons Ratio (y) = 0.39852 0.48952
# Poissons Ratio (z) = 0.26109 0.27791
#
# Static dielectric constant tensor:
#      x y z
#    x 1.796460 0.000000 0.000000 
#    y 0.000000 1.750170 0.000000 
#    z 0.000000 0.000000 1.708750 
# 
# From -- ./inp_files/11998.got.cif
#   From: 2010.05.17/outbox.cif.g08.bks.cpg/sg41_6_cif.got.tgz:11998.got - 2010.06.03 18:54:24.
