data_PCOD9367253
_publ_section_title
;
Structure prediction by ZEFSAII (Michael W. Deem and Ramdas Pophale) SiO2 
 PCOD9367253
Probable space group: A B A 2
;
_chemical_formula_sum "Si O2"
_cell_formula_units_Z 36
_cell_length_a 12.444602
_cell_length_b 12.310866
_cell_length_c 9.632903
_cell_angle_alpha 90.000000
_cell_angle_beta 90.000000
_cell_angle_gamma 90.000000
_cell_volume 1475.797611
_symmetry_space_group_name_H-M "A B A 2"
_symmetry_group_IT_number 41
_symmetry_cell_setting 'orthorhombic'
loop_
_space_group_symop_operation_xyz
x,y,z
-x,-y,z
1/2-x,y,1/2+z
1/2+x,-y,1/2+z
x,1/2+y,1/2+z
-x,1/2-y,1/2+z
1/2-x,1/2+y,z
1/2+x,1/2-y,z
loop_
_atom_site_type_symbol
_atom_site_label
_atom_site_fract_x
_atom_site_fract_y
_atom_site_fract_z
Si Si1 0.040270 0.145210 0.195040
Si Si2 0.820812 0.627779 0.378163
Si Si3 0.553165 0.319338 0.508889
Si Si4 0.182065 0.961848 0.145845
Si Si5 0.000000 0.000000 0.711752
O O1 0.009227 0.151248 0.357149
O O2 0.034128 0.252311 0.100602
O O3 0.938424 0.083716 0.130905
O O4 0.154763 0.084569 0.189417
O O5 0.848943 0.740585 0.456406
O O6 0.770791 0.548354 0.493389
O O7 0.740870 0.619087 0.249782
O O8 0.927965 0.574263 0.312358
O O9 0.570665 0.422956 0.609211
#
# Coordination Sequence:
#
# PCOD9367253 Si02
#       5
#     8   8   8   8   4
#     4  10  22  45  70 101 143 198 240 306 381 454
#     4  11  25  47  69 111 144 196 253 321 374 463
#     4  11  23  44  75 101 145 197 252 310 376 451
#     4  10  24  44  71 101 147 189 254 307 382 453
#     4  12  24  46  76 104 150 204 256 304 386 448
#
# _framework density 24.393588999999999
#
# number of rings (size 3 to 8) (size 9 to 14) (size 15 to 20)
#    0.000    1.333    2.222    4.000    6.222    0.000 
#   12.000    0.000    0.000    0.000    0.000    0.000 
#    0.000    0.000    0.000    0.000    0.000    0.000 
#
# Total GULP energy -100241.154800 kJ/mol
# GULP energy per Si atom -5568.953044 kJ/mol
# Density = 2.433807 g / cm^3
# Si number density = 24.393589 Si / 1000 Ang^3
#
#
#
# Elastic Constant Matrix: (Units=GPa)
#
#
# Indices 1 2 3 4 5 6 
#
# 1 55.8460 17.8210 10.6504 0.0000 0.0000 0.0000
# 2 17.8210 71.0815 42.3441 0.0000 0.0000 0.0000
# 3 10.6504 42.3441 184.9282 0.0000 0.0000 0.0000
# 4 0.0000 0.0000 0.0000 61.0304 0.0000 0.0000
# 5 0.0000 0.0000 0.0000 0.0000 31.4958 0.0000
# 6 0.0000 0.0000 0.0000 0.0000 0.0000 24.1161
#
#
#
# Elastic Compliance Matrix: (Units=1/GPa)
#
#
# Indices 1 2 3 4 5 6 
#
# 1 0.019464 -0.004877 -0.000004 0.000000 0.000000 0.000000
# 2 -0.004877 0.017513 -0.003729 0.000000 0.000000 0.000000
# 3 -0.000004 -0.003729 0.006262 0.000000 0.000000 0.000000
# 4 0.000000 0.000000 0.000000 0.016385 0.000000 0.000000
# 5 0.000000 0.000000 0.000000 0.000000 0.031750 0.000000
# 6 0.000000 0.000000 0.000000 0.000000 0.000000 0.041466
#
#
# Mechanical properties :
#
#
# Convention : Reuss Voigt Hill
#
# Bulk Modulus (GPa) = 38.43675 50.38740 44.41208
# Shear Modulus (GPa) = 31.49950 39.39780 35.44865
#
# Velocity S-wave (km/s) = 3.59737 4.02318 3.81622
# Velocity P-wave (km/s) = 5.74855 6.50247 6.13710
#
# Compressibility (1/GPa) = 0.02601677
#
# Stress axis : x y z
#
# Youngs Moduli (GPa) = 51.37804 57.10176 159.70325
#
# Poissons Ratio (x) = 0.27850 0.00067
# Poissons Ratio (y) = 0.25058 0.59554
# Poissons Ratio (z) = 0.00021 0.21294
#
# Static dielectric constant tensor:
#      x y z
#    x 1.994430 0.000000 0.000000 
#    y 0.000000 2.329470 0.000000 
#    z 0.000000 0.000000 1.895920 
# 
# From -- ./inp_files/2375.got.cif
#   From: 2010.05.17/outbox.cif.g08.bks.cpg/sg41_2_cif.got.tgz:2375.got - 2010.06.03 18:54:24.
