data_PCOD9367307
_publ_section_title
;
Structure prediction by ZEFSAII (Michael W. Deem and Ramdas Pophale) SiO2 
 PCOD9367307
Probable space group: A B A 2
;
_chemical_formula_sum "Si O2"
_cell_formula_units_Z 64
_cell_length_a 13.522798
_cell_length_b 17.338203
_cell_length_c 12.567697
_cell_angle_alpha 90.000000
_cell_angle_beta 90.000000
_cell_angle_gamma 90.000000
_cell_volume 2946.635018
_symmetry_space_group_name_H-M "A B A 2"
_symmetry_group_IT_number 41
_symmetry_cell_setting 'orthorhombic'
loop_
_space_group_symop_operation_xyz
x,y,z
-x,-y,z
1/2-x,y,1/2+z
1/2+x,-y,1/2+z
x,1/2+y,1/2+z
-x,1/2-y,1/2+z
1/2-x,1/2+y,z
1/2+x,1/2-y,z
loop_
_atom_site_type_symbol
_atom_site_label
_atom_site_fract_x
_atom_site_fract_y
_atom_site_fract_z
Si Si1 0.074446 0.427152 0.870980
Si Si2 0.386717 0.163979 0.626705
Si Si3 0.049644 0.337754 0.455494
Si Si4 0.212245 0.523577 0.726608
Si Si5 0.680251 0.084429 0.096266
Si Si6 0.534762 0.239756 0.772081
Si Si7 0.698243 0.741693 0.097302
Si Si8 0.106989 0.465911 0.316166
O O1 0.153356 0.455255 0.783590
O O2 0.040000 0.343428 0.830754
O O3 0.000000 0.500000 0.876755
O O4 0.121541 0.417218 0.987220
O O5 0.470391 0.135978 0.544072
O O6 0.354222 0.096783 0.706574
O O7 0.442729 0.231268 0.691151
O O8 0.284543 0.196423 0.578842
O O9 0.117990 0.270474 0.504421
O O10 0.120018 0.405018 0.410799
O O11 0.987442 0.304238 0.358108
O O12 0.251455 0.491299 0.613814
O O13 0.190977 0.530833 0.301187
O O14 0.746405 0.160034 0.105366
O O15 0.612668 0.077685 0.202176
O O16 0.633795 0.255010 0.703865
O O17 0.000000 0.500000 0.331930
#
# Coordination Sequence:
#
# PCOD9367307 Si02
#       8
#     8   8   8   8   8   8   8   8
#     4  12  22  42  70  99 136 179 224 281 345 412
#     4  11  25  44  68 101 136 177 238 287 337 420
#     4  11  26  43  71 103 133 187 229 286 352 403
#     4  10  24  44  66 102 131 180 223 278 348 402
#     4  10  23  40  70  95 135 181 222 271 349 414
#     4  11  24  43  70  97 135 181 228 287 345 408
#     4  11  24  46  65  95 141 178 229 286 338 413
#     4  10  23  45  66  98 137 174 223 283 338 406
#
# _framework density 21.71969
#
# number of rings (size 3 to 8) (size 9 to 14) (size 15 to 20)
#    0.750    0.500    2.500    2.625    1.750    7.000 
#    0.000    0.000    0.000    0.000    0.000    0.000 
#    0.000    0.000    0.000    0.000    0.000    0.000 
#
# Total GULP energy -178628.619633 kJ/mol
# GULP energy per Si atom -5582.144364 kJ/mol
# Density = 2.167026 g / cm^3
# Si number density = 21.719690 Si / 1000 Ang^3
#
#
#
# Elastic Constant Matrix: (Units=GPa)
#
#
# Indices 1 2 3 4 5 6 
#
# 1 70.3405 5.1631 28.5122 0.0000 0.0000 0.0000
# 2 5.1631 19.9333 -5.6107 0.0000 0.0000 0.0000
# 3 28.5122 -5.6107 82.1763 0.0000 0.0000 0.0000
# 4 0.0000 0.0000 0.0000 28.8129 0.0000 0.0000
# 5 0.0000 0.0000 0.0000 0.0000 30.5616 0.0000
# 6 0.0000 0.0000 0.0000 0.0000 0.0000 38.2126
#
#
#
# Elastic Compliance Matrix: (Units=1/GPa)
#
#
# Indices 1 2 3 4 5 6 
#
# 1 0.017282 -0.006285 -0.006425 0.000000 0.000000 0.000000
# 2 -0.006285 0.053436 0.005829 0.000000 0.000000 0.000000
# 3 -0.006425 0.005829 0.014796 0.000000 0.000000 0.000000
# 4 0.000000 0.000000 0.000000 0.034707 0.000000 0.000000
# 5 0.000000 0.000000 0.000000 0.000000 0.032721 0.000000
# 6 0.000000 0.000000 0.000000 0.000000 0.000000 0.026169
#
#
# Mechanical properties :
#
#
# Convention : Reuss Voigt Hill
#
# Bulk Modulus (GPa) = 13.93695 25.39771 19.66733
# Shear Modulus (GPa) = 23.06360 29.14311 26.10335
#
# Velocity S-wave (km/s) = 3.26218 3.66701 3.47050
# Velocity P-wave (km/s) = 4.54090 5.44500 5.01337
#
# Compressibility (1/GPa) = 0.07175172
#
# Stress axis : x y z
#
# Youngs Moduli (GPa) = 57.86222 18.71400 67.58419
#
# Poissons Ratio (x) = 0.11762 0.43426
# Poissons Ratio (y) = 0.36367 -0.39395
# Poissons Ratio (z) = 0.37179 -0.10909
#
# Static dielectric constant tensor:
#      x y z
#    x 1.826520 0.000000 0.000000 
#    y 0.000000 1.783930 0.000000 
#    z 0.000000 0.000000 1.765210 
# 
# From -- ./inp_files/5712.got.cif
#   From: 2010.05.17/outbox.cif.g08.bks.cpg/sg41_3_cif.got.tgz:5712.got - 2010.06.03 18:54:24.
