data_PCOD9367977
_publ_section_title
;
Structure prediction by ZEFSAII (Michael W. Deem and Ramdas Pophale) SiO2 
 PCOD9367977
Probable space group: A B A 2
;
_chemical_formula_sum "Si O2"
_cell_formula_units_Z 56
_cell_length_a 21.334029
_cell_length_b 12.114609
_cell_length_c 7.105585
_cell_angle_alpha 90.000000
_cell_angle_beta 90.000000
_cell_angle_gamma 90.000000
_cell_volume 1836.462742
_symmetry_space_group_name_H-M "A B A 2"
_symmetry_group_IT_number 41
_symmetry_cell_setting 'orthorhombic'
loop_
_space_group_symop_operation_xyz
x,y,z
-x,-y,z
1/2-x,y,1/2+z
1/2+x,-y,1/2+z
x,1/2+y,1/2+z
-x,1/2-y,1/2+z
1/2-x,1/2+y,z
1/2+x,1/2-y,z
loop_
_atom_site_type_symbol
_atom_site_label
_atom_site_fract_x
_atom_site_fract_y
_atom_site_fract_z
Si Si1 0.696438 0.053340 0.211390
Si Si2 0.299469 0.200841 0.467310
Si Si3 0.929854 0.844189 0.081090
Si Si4 0.333245 0.905264 0.849537
Si Si5 0.026229 0.701223 0.966871
Si Si6 0.162334 0.149663 0.614076
Si Si7 0.589608 0.573163 0.993211
O O1 0.770267 0.056051 0.244487
O O2 0.690191 0.914800 0.306330
O O3 0.649963 0.102406 0.368064
O O4 0.661096 0.990340 0.025086
O O5 0.354794 0.161911 0.609268
O O6 0.304770 0.339274 0.546576
O O7 0.225355 0.184198 0.498330
O O8 0.331401 0.262791 0.276596
O O9 0.967170 0.861267 0.273063
O O10 0.934609 0.951064 0.949709
O O11 0.953920 0.720189 0.023801
O O12 0.391260 0.931397 0.711755
O O13 0.041350 0.831434 0.944676
O O14 0.087458 0.666432 0.082983
#
# Coordination Sequence:
#
# PCOD9367977 Si02
#       7
#     8   8   8   8   8   8   8
#     4  12  23  41  70 108 153 196 255 322 385 461
#     4  12  23  43  70 106 148 195 248 311 386 451
#     4  12  27  50  77 107 153 204 258 324 393 466
#     4  12  23  41  70 108 153 196 255 322 385 461
#     4  12  27  50  77 107 153 204 258 324 393 466
#     4  12  23  43  70 106 148 195 248 311 386 451
#     4  12  25  48  74 112 148 204 265 318 389 470
#
# _framework density 30.493404000000002
#
# number of rings (size 3 to 8) (size 9 to 14) (size 15 to 20)
#    0.000    0.000    4.286    7.286    0.000    0.000 
#    0.000    0.000    0.000    0.000    0.000    0.000 
#    0.000    0.000    0.000    0.000    0.000    0.000 
#
# Total GULP energy -156406.138249 kJ/mol
# GULP energy per Si atom -5585.933509 kJ/mol
# Density = 3.042400 g / cm^3
# Si number density = 30.493404 Si / 1000 Ang^3
#
#
#
# Elastic Constant Matrix: (Units=GPa)
#
#
# Indices 1 2 3 4 5 6 
#
# 1 126.3812 9.2428 45.2277 0.0000 0.0000 0.0000
# 2 9.2428 182.7957 0.8494 0.0000 0.0000 0.0000
# 3 45.2277 0.8494 176.8655 0.0000 0.0000 0.0000
# 4 0.0000 0.0000 0.0000 57.0177 0.0000 0.0000
# 5 0.0000 0.0000 0.0000 0.0000 53.5881 0.0000
# 6 0.0000 0.0000 0.0000 0.0000 0.0000 58.8130
#
#
#
# Elastic Compliance Matrix: (Units=1/GPa)
#
#
# Indices 1 2 3 4 5 6 
#
# 1 0.008744 -0.000432 -0.002234 0.000000 0.000000 0.000000
# 2 -0.000432 0.005492 0.000084 0.000000 0.000000 0.000000
# 3 -0.002234 0.000084 0.006225 0.000000 0.000000 0.000000
# 4 0.000000 0.000000 0.000000 0.017538 0.000000 0.000000
# 5 0.000000 0.000000 0.000000 0.000000 0.018661 0.000000
# 6 0.000000 0.000000 0.000000 0.000000 0.000000 0.017003
#
#
# Mechanical properties :
#
#
# Convention : Reuss Voigt Hill
#
# Bulk Modulus (GPa) = 65.37062 66.29802 65.83432
# Shear Modulus (GPa) = 59.57709 62.59859 61.08784
#
# Velocity S-wave (km/s) = 4.42494 4.53576 4.48069
# Velocity P-wave (km/s) = 6.89862 7.01568 6.95740
#
# Compressibility (1/GPa) = 0.01529739
#
# Stress axis : x y z
#
# Youngs Moduli (GPa) = 114.37006 182.08211 160.64685
#
# Poissons Ratio (x) = 0.07861 0.35885
# Poissons Ratio (y) = 0.04938 -0.01350
# Poissons Ratio (z) = 0.25548 -0.01530
#
# Static dielectric constant tensor:
#      x y z
#    x 2.216350 0.000000 0.000000 
#    y 0.000000 2.972660 0.000000 
#    z 0.000000 0.000000 2.549240 
# 
# From -- ./inp_files/3437.got.cif
#   From: 2010.05.17/outbox.cif.g08.bks.cpg/sg41_2_cif.got.tgz:3437.got - 2010.06.03 18:54:24.
