data_PCOD9367020
_publ_section_title
;
Structure prediction by ZEFSAII (Michael W. Deem and Ramdas Pophale) SiO2 
 PCOD9367020
Probable space group: A B A 2
;
_chemical_formula_sum "Si O2"
_cell_formula_units_Z 64
_cell_length_a 9.014717
_cell_length_b 17.599340
_cell_length_c 21.575389
_cell_angle_alpha 90.000000
_cell_angle_beta 90.000000
_cell_angle_gamma 90.000000
_cell_volume 3423.001690
_symmetry_space_group_name_H-M "A B A 2"
_symmetry_group_IT_number 41
_symmetry_cell_setting 'orthorhombic'
loop_
_space_group_symop_operation_xyz
x,y,z
-x,-y,z
1/2-x,y,1/2+z
1/2+x,-y,1/2+z
x,1/2+y,1/2+z
-x,1/2-y,1/2+z
1/2-x,1/2+y,z
1/2+x,1/2-y,z
loop_
_atom_site_type_symbol
_atom_site_label
_atom_site_fract_x
_atom_site_fract_y
_atom_site_fract_z
Si Si1 0.809499 0.802512 0.177340
Si Si2 0.273539 0.303614 0.291589
Si Si3 0.334319 0.321384 0.566913
Si Si4 0.846651 0.538440 0.583559
Si Si5 0.061872 0.923540 0.219825
Si Si6 0.352881 0.101926 0.074711
Si Si7 0.482030 0.768936 0.379000
Si Si8 0.226339 0.700024 0.464408
O O1 0.743418 0.760512 0.237762
O O2 0.843179 0.735561 0.126486
O O3 0.943930 0.857321 0.200056
O O4 0.703466 0.858133 0.138099
O O5 0.316574 0.381584 0.259836
O O6 0.403802 0.282222 0.339623
O O7 0.121847 0.309338 0.329224
O O8 0.189586 0.375359 0.564596
O O9 0.476149 0.375884 0.569260
O O10 0.329223 0.271795 0.504903
O O11 0.867409 0.545336 0.657019
O O12 0.708144 0.483112 0.572843
O O13 0.000000 0.500000 0.559739
O O14 0.000000 0.000000 0.251450
O O15 0.273209 0.140661 0.016027
O O16 0.367522 0.722654 0.422436
O O17 0.588433 0.821030 0.420807
#
# Coordination Sequence:
#
# PCOD9367020 Si02
#       8
#     8   8   8   8   8   8   8   8
#     4  11  21  35  63  98 122 162 211 260 323 384
#     4  11  21  38  66  91 121 166 217 269 310 381
#     4  11  23  36  63  95 126 160 217 263 324 382
#     4  11  23  38  59  92 135 166 195 251 339 391
#     4  11  21  39  59  95 133 165 195 261 329 395
#     4  11  22  37  62  91 129 169 202 265 327 382
#     4  10  22  39  63  91 122 163 230 269 305 356
#     4  10  22  40  64  91 123 164 219 275 307 367
#
# _framework density 18.697040000000001
#
# number of rings (size 3 to 8) (size 9 to 14) (size 15 to 20)
#    0.000    1.250    6.250    1.125    3.500    0.000 
#    0.000    0.000    5.500    1.500    0.000    0.000 
#    0.000    0.000    0.000    0.000    0.000    0.000 
#
# Total GULP energy -178399.143299 kJ/mol
# GULP energy per Si atom -5574.973228 kJ/mol
# Density = 1.865448 g / cm^3
# Si number density = 18.697040 Si / 1000 Ang^3
#
#
#
# Elastic Constant Matrix: (Units=GPa)
#
#
# Indices 1 2 3 4 5 6 
#
# 1 89.8753 29.8305 31.3874 0.0000 0.0000 0.0000
# 2 29.8305 91.0385 17.4224 0.0000 0.0000 0.0000
# 3 31.3874 17.4224 82.3161 0.0000 0.0000 0.0000
# 4 0.0000 0.0000 0.0000 13.5955 0.0000 0.0000
# 5 0.0000 0.0000 0.0000 0.0000 35.9617 0.0000
# 6 0.0000 0.0000 0.0000 0.0000 0.0000 27.0365
#
#
#
# Elastic Compliance Matrix: (Units=1/GPa)
#
#
# Indices 1 2 3 4 5 6 
#
# 1 0.013937 -0.003700 -0.004531 0.000000 0.000000 0.000000
# 2 -0.003700 0.012430 -0.001220 0.000000 0.000000 0.000000
# 3 -0.004531 -0.001220 0.014134 0.000000 0.000000 0.000000
# 4 0.000000 0.000000 0.000000 0.073554 0.000000 0.000000
# 5 0.000000 0.000000 0.000000 0.000000 0.027807 0.000000
# 6 0.000000 0.000000 0.000000 0.000000 0.000000 0.036987
#
#
# Mechanical properties :
#
#
# Convention : Reuss Voigt Hill
#
# Bulk Modulus (GPa) = 46.29747 46.72339 46.51043
# Shear Modulus (GPa) = 24.39605 27.62470 26.01037
#
# Velocity S-wave (km/s) = 3.61613 3.84798 3.73386
# Velocity P-wave (km/s) = 6.50007 6.69228 6.59687
#
# Compressibility (1/GPa) = 0.02159945
#
# Stress axis : x y z
#
# Youngs Moduli (GPa) = 71.75212 80.44984 70.74986
#
# Poissons Ratio (x) = 0.29763 0.32058
# Poissons Ratio (y) = 0.26545 0.08633
# Poissons Ratio (z) = 0.32512 0.09817
#
# Static dielectric constant tensor:
#      x y z
#    x 1.689250 0.000000 0.000000 
#    y 0.000000 1.693440 0.000000 
#    z 0.000000 0.000000 1.644660 
# 
# From -- ./inp_files/11273.got.cif
#   From: 2010.05.17/outbox.cif.g08.bks.cpg/sg41_6_cif.got.tgz:11273.got - 2010.06.03 18:54:24.
