data_PCOD9367537
_publ_section_title
;
Structure prediction by ZEFSAII (Michael W. Deem and Ramdas Pophale) SiO2 
 PCOD9367537
Probable space group: A B A 2
;
_chemical_formula_sum "Si O2"
_cell_formula_units_Z 60
_cell_length_a 18.137692
_cell_length_b 18.528359
_cell_length_c 7.775636
_cell_angle_alpha 90.000000
_cell_angle_beta 90.000000
_cell_angle_gamma 90.000000
_cell_volume 2613.093210
_symmetry_space_group_name_H-M "A B A 2"
_symmetry_group_IT_number 41
_symmetry_cell_setting 'orthorhombic'
loop_
_space_group_symop_operation_xyz
x,y,z
-x,-y,z
1/2-x,y,1/2+z
1/2+x,-y,1/2+z
x,1/2+y,1/2+z
-x,1/2-y,1/2+z
1/2-x,1/2+y,z
1/2+x,1/2-y,z
loop_
_atom_site_type_symbol
_atom_site_label
_atom_site_fract_x
_atom_site_fract_y
_atom_site_fract_z
Si Si1 0.747981 0.431892 0.391090
Si Si2 0.098958 0.217289 0.165418
Si Si3 0.036477 0.212759 0.786364
Si Si4 0.595395 0.387782 0.489400
Si Si5 0.000000 0.500000 0.812586
Si Si6 0.652955 0.019088 0.615582
Si Si7 0.262894 0.734633 0.940642
Si Si8 0.152678 0.813602 0.153522
O O1 0.675729 0.423668 0.518198
O O2 0.709727 0.482790 0.250435
O O3 0.821944 0.472114 0.452457
O O4 0.766137 0.346767 0.365988
O O5 0.102141 0.155262 0.307637
O O6 0.050062 0.280211 0.251076
O O7 0.058512 0.199223 0.983168
O O8 0.180926 0.234494 0.102597
O O9 0.072547 0.157111 0.655364
O O10 0.072810 0.289217 0.724129
O O11 0.527191 0.438552 0.442220
O O12 0.070871 0.488339 0.691055
O O13 0.662448 0.104656 0.596384
O O14 0.296057 0.794498 0.815742
O O15 0.183650 0.759682 0.007869
#
# Coordination Sequence:
#
# PCOD9367537 Si02
#       8
#     8   8   8   8   4   8   8   8
#     4  11  23  43  68  97 140 193 238 290 369 449
#     4  11  23  39  67 103 137 176 235 298 360 428
#     4  11  23  40  68 103 140 181 237 298 369 432
#     4  11  22  45  69  98 138 193 239 296 359 448
#     4  10  24  44  72  92 150 194 234 298 384 438
#     4  11  24  43  69  98 141 189 238 299 372 436
#     4  11  22  38  64  98 131 176 230 289 345 425
#     4  11  23  39  64  96 133 169 234 292 349 416
#
# _framework density 22.961292
#
# number of rings (size 3 to 8) (size 9 to 14) (size 15 to 20)
#    0.000    1.067    2.667    4.800    3.733    0.000 
#    0.000    0.667    0.000    0.000    0.000    0.000 
#    0.000    0.000    0.000    0.000    0.000    0.000 
#
# Total GULP energy -167504.554380 kJ/mol
# GULP energy per Si atom -5583.485146 kJ/mol
# Density = 2.290903 g / cm^3
# Si number density = 22.961292 Si / 1000 Ang^3
#
#
#
# Elastic Constant Matrix: (Units=GPa)
#
#
# Indices 1 2 3 4 5 6 
#
# 1 126.7689 32.7588 36.3119 0.0000 0.0000 0.0000
# 2 32.7588 116.8535 37.6424 0.0000 0.0000 0.0000
# 3 36.3119 37.6424 85.5035 0.0000 0.0000 0.0000
# 4 0.0000 0.0000 0.0000 26.2534 0.0000 0.0000
# 5 0.0000 0.0000 0.0000 0.0000 38.4152 0.0000
# 6 0.0000 0.0000 0.0000 0.0000 0.0000 32.6770
#
#
#
# Elastic Compliance Matrix: (Units=1/GPa)
#
#
# Indices 1 2 3 4 5 6 
#
# 1 0.009213 -0.001541 -0.003234 0.000000 0.000000 0.000000
# 2 -0.001541 0.010230 -0.003849 0.000000 0.000000 0.000000
# 3 -0.003234 -0.003849 0.014764 0.000000 0.000000 0.000000
# 4 0.000000 0.000000 0.000000 0.038090 0.000000 0.000000
# 5 0.000000 0.000000 0.000000 0.000000 0.026031 0.000000
# 6 0.000000 0.000000 0.000000 0.000000 0.000000 0.030603
#
#
# Mechanical properties :
#
#
# Convention : Reuss Voigt Hill
#
# Bulk Modulus (GPa) = 58.97069 60.28357 59.62713
# Shear Modulus (GPa) = 32.93125 34.29663 33.61394
#
# Velocity S-wave (km/s) = 3.79120 3.86900 3.83030
# Velocity P-wave (km/s) = 6.70095 6.80223 6.75178
#
# Compressibility (1/GPa) = 0.01695758
#
# Stress axis : x y z
#
# Youngs Moduli (GPa) = 108.54249 97.75514 67.73458
#
# Poissons Ratio (x) = 0.15063 0.21907
# Poissons Ratio (y) = 0.16726 0.26072
# Poissons Ratio (z) = 0.35105 0.37627
#
# Static dielectric constant tensor:
#      x y z
#    x 1.914870 0.000000 0.000000 
#    y 0.000000 1.844940 0.000000 
#    z 0.000000 0.000000 1.938990 
# 
# From -- ./inp_files/3147.got.cif
#   From: 2010.05.17/outbox.cif.g08.bks.cpg/sg41_2_cif.got.tgz:3147.got - 2010.06.03 18:54:24.
