data_PCOD9367443
_publ_section_title
;
Structure prediction by ZEFSAII (Michael W. Deem and Ramdas Pophale) SiO2 
 PCOD9367443
Probable space group: A B A 2
;
_chemical_formula_sum "Si O2"
_cell_formula_units_Z 64
_cell_length_a 8.240222
_cell_length_b 14.890605
_cell_length_c 23.435798
_cell_angle_alpha 90.000000
_cell_angle_beta 90.000000
_cell_angle_gamma 90.000000
_cell_volume 2875.616730
_symmetry_space_group_name_H-M "A B A 2"
_symmetry_group_IT_number 41
_symmetry_cell_setting 'orthorhombic'
loop_
_space_group_symop_operation_xyz
x,y,z
-x,-y,z
1/2-x,y,1/2+z
1/2+x,-y,1/2+z
x,1/2+y,1/2+z
-x,1/2-y,1/2+z
1/2-x,1/2+y,z
1/2+x,1/2-y,z
loop_
_atom_site_type_symbol
_atom_site_label
_atom_site_fract_x
_atom_site_fract_y
_atom_site_fract_z
Si Si1 0.716512 0.333972 0.008420
Si Si2 0.019381 0.695484 0.233904
Si Si3 0.192063 0.016659 0.419284
Si Si4 0.171533 0.866222 0.002948
Si Si5 0.317955 0.039111 0.292863
Si Si6 0.896015 0.906624 0.621003
Si Si7 0.339556 0.955550 0.617069
Si Si8 0.663633 0.123117 0.735814
O O1 0.747384 0.230221 0.995336
O O2 0.522496 0.351944 0.011042
O O3 0.821402 0.360624 0.064880
O O4 0.785076 0.397718 0.959549
O O5 0.156131 0.637442 0.266610
O O6 0.036522 0.663842 0.166877
O O7 0.038821 0.799078 0.250666
O O8 0.839034 0.665501 0.248696
O O9 0.279241 0.933898 0.452456
O O10 0.277694 0.035987 0.359403
O O11 0.000000 0.000000 0.411876
O O12 0.238509 0.908449 0.062270
O O13 0.500000 0.000000 0.282205
O O14 0.182797 0.974134 0.264489
O O15 0.743157 0.958888 0.647105
O O16 0.000000 0.000000 0.611802
O O17 0.359293 0.887098 0.667925
O O18 0.500000 0.000000 0.592788
#
# Coordination Sequence:
#
# PCOD9367443 Si02
#       8
#     8   8   8   8   8   8   8   8
#     4  12  26  43  68 100 136 177 220 276 330 400
#     4  11  24  42  65  99 133 177 217 274 331 391
#     4  12  26  46  71  97 128 174 224 281 339 398
#     4  12  26  44  67 101 136 176 223 272 335 395
#     4  10  23  47  68  90 129 176 222 278 336 395
#     4  12  22  41  69  95 136 176 217 266 329 392
#     4  12  23  40  67  98 133 177 215 264 328 393
#     4  11  25  41  67  98 136 173 221 269 331 393
#
# _framework density 22.256094000000001
#
# number of rings (size 3 to 8) (size 9 to 14) (size 15 to 20)
#    0.000    0.500    5.000    3.375    3.500    4.500 
#    0.000    2.500    0.000    0.000    0.000    0.000 
#    0.000    0.000    0.000    0.000    0.000    0.000 
#
# Total GULP energy -178570.275883 kJ/mol
# GULP energy per Si atom -5580.321121 kJ/mol
# Density = 2.220544 g / cm^3
# Si number density = 22.256094 Si / 1000 Ang^3
#
#
#
# Elastic Constant Matrix: (Units=GPa)
#
#
# Indices 1 2 3 4 5 6 
#
# 1 58.6566 -5.1012 -8.4429 0.0000 0.0000 0.0000
# 2 -5.1012 67.0501 18.7120 0.0000 0.0000 0.0000
# 3 -8.4429 18.7120 87.4828 0.0000 0.0000 0.0000
# 4 0.0000 0.0000 0.0000 3.3709 0.0000 0.0000
# 5 0.0000 0.0000 0.0000 0.0000 15.6399 0.0000
# 6 0.0000 0.0000 0.0000 0.0000 0.0000 45.2213
#
#
#
# Elastic Compliance Matrix: (Units=1/GPa)
#
#
# Indices 1 2 3 4 5 6 
#
# 1 0.017340 0.000906 0.001480 0.000000 0.000000 0.000000
# 2 0.000906 0.015908 -0.003315 0.000000 0.000000 0.000000
# 3 0.001480 -0.003315 0.012283 0.000000 0.000000 0.000000
# 4 0.000000 0.000000 0.000000 0.296654 0.000000 0.000000
# 5 0.000000 0.000000 0.000000 0.000000 0.063939 0.000000
# 6 0.000000 0.000000 0.000000 0.000000 0.000000 0.022113
#
#
# Mechanical properties :
#
#
# Convention : Reuss Voigt Hill
#
# Bulk Modulus (GPa) = 22.89760 24.83615 23.86688
# Shear Modulus (GPa) = 11.24471 26.71454 18.97962
#
# Velocity S-wave (km/s) = 2.25020 3.46833 2.92341
# Velocity P-wave (km/s) = 4.13059 5.21752 4.70555
#
# Compressibility (1/GPa) = 0.04367270
#
# Stress axis : x y z
#
# Youngs Moduli (GPa) = 57.66951 62.85996 81.41514
#
# Poissons Ratio (x) = -0.05697 -0.12046
# Poissons Ratio (y) = -0.05227 0.26991
# Poissons Ratio (z) = -0.08533 0.20840
#
# Static dielectric constant tensor:
#      x y z
#    x -4.953780 0.000000 0.000000 
#    y 0.000000 1.821350 0.000000 
#    z 0.000000 0.000000 1.818050 
# 
# From -- ./inp_files/12027.got.cif
#   From: 2010.05.17/outbox.cif.g08.bks.cpg/sg41_7_cif.got.tgz:12027.got - 2010.06.03 18:54:24.
