data_PCOD9367580
_publ_section_title
;
Structure prediction by ZEFSAII (Michael W. Deem and Ramdas Pophale) SiO2 
 PCOD9367580
Probable space group: A B A 2
;
_chemical_formula_sum "Si O2"
_cell_formula_units_Z 60
_cell_length_a 24.933001
_cell_length_b 11.459130
_cell_length_c 8.951966
_cell_angle_alpha 90.000000
_cell_angle_beta 90.000000
_cell_angle_gamma 90.000000
_cell_volume 2557.670680
_symmetry_space_group_name_H-M "A B A 2"
_symmetry_group_IT_number 41
_symmetry_cell_setting 'orthorhombic'
loop_
_space_group_symop_operation_xyz
x,y,z
-x,-y,z
1/2-x,y,1/2+z
1/2+x,-y,1/2+z
x,1/2+y,1/2+z
-x,1/2-y,1/2+z
1/2-x,1/2+y,z
1/2+x,1/2-y,z
loop_
_atom_site_type_symbol
_atom_site_label
_atom_site_fract_x
_atom_site_fract_y
_atom_site_fract_z
Si Si1 0.110190 0.081640 0.733100
Si Si2 0.740022 0.244069 0.919835
Si Si3 0.000000 0.500000 0.683774
Si Si4 0.174935 0.286571 0.644320
Si Si5 0.929912 0.163181 0.670367
Si Si6 0.673516 0.828102 0.689424
Si Si7 0.610986 0.016550 0.552120
Si Si8 0.521061 0.740915 0.357124
O O1 0.158894 0.149507 0.652576
O O2 0.068124 0.181636 0.782550
O O3 0.082080 0.974339 0.647921
O O4 0.128315 0.021536 0.887860
O O5 0.698068 0.184768 0.807852
O O6 0.782844 0.311293 0.817199
O O7 0.778563 0.173350 0.030712
O O8 0.705506 0.318159 0.034641
O O9 0.949566 0.480368 0.577824
O O10 0.987501 0.613876 0.782311
O O11 0.122695 0.350339 0.584917
O O12 0.873195 0.230071 0.689461
O O13 0.961890 0.215062 0.527798
O O14 0.966735 0.188314 0.815873
O O15 0.643604 0.949916 0.681422
#
# Coordination Sequence:
#
# PCOD9367580 Si02
#       8
#     8   8   4   8   8   8   8   8
#     4  12  26  48  75 109 152 201 249 312 381 461
#     4  10  24  47  74 107 149 188 263 318 367 461
#     4  12  26  44  78 110 152 202 248 308 390 456
#     4  11  24  49  73 109 147 194 253 311 386 443
#     4  12  28  47  77 108 156 201 256 313 387 456
#     4  11  23  49  71 110 148 197 253 314 385 450
#     4  12  25  47  78 105 159 202 240 324 380 459
#     4  12  26  49  73 111 152 201 259 312 377 466
#
# _framework density 23.458843999999999
#
# number of rings (size 3 to 8) (size 9 to 14) (size 15 to 20)
#    0.000    0.533    5.333    1.200    5.600    3.200 
#    9.600    0.000    0.000    0.000    0.000    0.000 
#    0.000    0.000    0.000    0.000    0.000    0.000 
#
# Total GULP energy -167683.058127 kJ/mol
# GULP energy per Si atom -5589.435271 kJ/mol
# Density = 2.340545 g / cm^3
# Si number density = 23.458844 Si / 1000 Ang^3
#
#
#
# Elastic Constant Matrix: (Units=GPa)
#
#
# Indices 1 2 3 4 5 6 
#
# 1 100.0410 14.2322 45.0272 0.0000 0.0000 0.0000
# 2 14.2322 100.9641 33.2261 0.0000 0.0000 0.0000
# 3 45.0272 33.2261 93.0000 0.0000 0.0000 0.0000
# 4 0.0000 0.0000 0.0000 23.9665 0.0000 0.0000
# 5 0.0000 0.0000 0.0000 0.0000 43.6482 0.0000
# 6 0.0000 0.0000 0.0000 0.0000 0.0000 19.3321
#
#
#
# Elastic Compliance Matrix: (Units=1/GPa)
#
#
# Indices 1 2 3 4 5 6 
#
# 1 0.012787 0.000266 -0.006286 0.000000 0.000000 0.000000
# 2 0.000266 0.011230 -0.004141 0.000000 0.000000 0.000000
# 3 -0.006286 -0.004141 0.015276 0.000000 0.000000 0.000000
# 4 0.000000 0.000000 0.000000 0.041725 0.000000 0.000000
# 5 0.000000 0.000000 0.000000 0.000000 0.022910 0.000000
# 6 0.000000 0.000000 0.000000 0.000000 0.000000 0.051727
#
#
# Mechanical properties :
#
#
# Convention : Reuss Voigt Hill
#
# Bulk Modulus (GPa) = 52.71260 53.21955 52.96607
# Shear Modulus (GPa) = 27.42713 30.82401 29.12557
#
# Velocity S-wave (km/s) = 3.42301 3.62879 3.52740
# Velocity P-wave (km/s) = 6.17589 6.34769 6.26238
#
# Compressibility (1/GPa) = 0.01897079
#
# Stress axis : x y z
#
# Youngs Moduli (GPa) = 78.20189 89.04942 65.46337
#
# Poissons Ratio (x) = -0.02370 0.41152
# Poissons Ratio (y) = -0.02082 0.27108
# Poissons Ratio (z) = 0.49160 0.36875
#
# Static dielectric constant tensor:
#      x y z
#    x 1.965410 0.000000 0.000000 
#    y 0.000000 1.900800 0.000000 
#    z 0.000000 0.000000 1.906700 
# 
# From -- ./inp_files/3800.got.cif
#   From: 2010.05.17/outbox.cif.g08.bks.cpg/sg41_2_cif.got.tgz:3800.got - 2010.06.03 18:54:24.
