data_PCOD9367107
_publ_section_title
;
Structure prediction by ZEFSAII (Michael W. Deem and Ramdas Pophale) SiO2 
 PCOD9367107
Probable space group: A B A 2
;
_chemical_formula_sum "Si O2"
_cell_formula_units_Z 64
_cell_length_a 8.398582
_cell_length_b 23.238499
_cell_length_c 14.804834
_cell_angle_alpha 90.000000
_cell_angle_beta 90.000000
_cell_angle_gamma 90.000000
_cell_volume 2889.465957
_symmetry_space_group_name_H-M "A B A 2"
_symmetry_group_IT_number 41
_symmetry_cell_setting 'orthorhombic'
loop_
_space_group_symop_operation_xyz
x,y,z
-x,-y,z
1/2-x,y,1/2+z
1/2+x,-y,1/2+z
x,1/2+y,1/2+z
-x,1/2-y,1/2+z
1/2-x,1/2+y,z
1/2+x,1/2-y,z
loop_
_atom_site_type_symbol
_atom_site_label
_atom_site_fract_x
_atom_site_fract_y
_atom_site_fract_z
Si Si1 0.078385 0.727339 0.823730
Si Si2 0.902777 0.944674 0.067040
Si Si3 0.622914 0.297514 0.936463
Si Si4 0.440070 0.406533 0.899175
Si Si5 0.630469 0.869266 0.047621
Si Si6 0.929881 0.063483 0.401223
Si Si7 0.568403 0.124910 0.714468
Si Si8 0.928199 0.150777 0.720322
O O1 0.250262 0.703176 0.853134
O O2 0.089397 0.788341 0.772036
O O3 0.970023 0.738273 0.914237
O O4 0.995523 0.683767 0.756261
O O5 0.718955 0.929107 0.076985
O O6 0.982056 0.894337 0.124957
O O7 0.000000 0.000000 0.099515
O O8 0.936823 0.941427 0.959840
O O9 0.476213 0.342255 0.935691
O O10 0.739158 0.321820 0.014519
O O11 0.261194 0.428567 0.914233
O O12 0.480276 0.397471 0.794115
O O13 0.538286 0.845802 0.133769
O O14 0.518926 0.890609 0.965562
O O15 0.957516 0.080090 0.296522
O O16 0.000000 0.000000 0.418368
O O17 0.752944 0.131314 0.692713
#
# Coordination Sequence:
#
# PCOD9367107 Si02
#       8
#     8   8   8   8   8   8   8   8
#     4  11  21  43  66  94 136 178 225 277 351 418
#     4  11  24  42  65  98 134 180 235 291 349 412
#     4  10  22  41  67  98 133 182 222 285 347 421
#     4   9  22  43  66  92 138 172 229 285 343 415
#     4  11  24  42  68 102 140 179 234 293 349 427
#     4  11  22  42  71  99 132 183 229 287 355 413
#     4  11  23  41  66  94 138 179 225 295 340 424
#     4  10  23  42  65 101 133 183 225 284 352 421
#
# _framework density 22.149421
#
# number of rings (size 3 to 8) (size 9 to 14) (size 15 to 20)
#    0.000    1.500    2.500    1.875    3.500    0.000 
#    9.000    3.125    0.000    0.000    0.000    0.000 
#    0.000    0.000    0.000    0.000    0.000    0.000 
#
# Total GULP energy -178309.497114 kJ/mol
# GULP energy per Si atom -5572.171785 kJ/mol
# Density = 2.209901 g / cm^3
# Si number density = 22.149421 Si / 1000 Ang^3
#
#
#
# Elastic Constant Matrix: (Units=GPa)
#
#
# Indices 1 2 3 4 5 6 
#
# 1 87.9943 26.7663 47.5157 0.0000 0.0000 0.0000
# 2 26.7663 86.0865 28.8918 0.0000 0.0000 0.0000
# 3 47.5157 28.8918 84.2640 0.0000 0.0000 0.0000
# 4 0.0000 0.0000 0.0000 14.0822 0.0000 0.0000
# 5 0.0000 0.0000 0.0000 0.0000 23.9388 0.0000
# 6 0.0000 0.0000 0.0000 0.0000 0.0000 34.5688
#
#
#
# Elastic Compliance Matrix: (Units=1/GPa)
#
#
# Indices 1 2 3 4 5 6 
#
# 1 0.016733 -0.002301 -0.008647 0.000000 0.000000 0.000000
# 2 -0.002301 0.013443 -0.003312 0.000000 0.000000 0.000000
# 3 -0.008647 -0.003312 0.017879 0.000000 0.000000 0.000000
# 4 0.000000 0.000000 0.000000 0.071011 0.000000 0.000000
# 5 0.000000 0.000000 0.000000 0.000000 0.041773 0.000000
# 6 0.000000 0.000000 0.000000 0.000000 0.000000 0.028928
#
#
# Mechanical properties :
#
#
# Convention : Reuss Voigt Hill
#
# Bulk Modulus (GPa) = 51.18683 51.63246 51.40965
# Shear Modulus (GPa) = 22.24204 24.86269 23.55237
#
# Velocity S-wave (km/s) = 3.17232 3.35401 3.26443
# Velocity P-wave (km/s) = 6.04798 6.19360 6.12123
#
# Compressibility (1/GPa) = 0.01953627
#
# Stress axis : x y z
#
# Youngs Moduli (GPa) = 59.76042 74.38760 55.93164
#
# Poissons Ratio (x) = 0.17115 0.48364
# Poissons Ratio (y) = 0.13750 0.18524
# Poissons Ratio (z) = 0.51675 0.24636
#
# Static dielectric constant tensor:
#      x y z
#    x 1.861680 0.000000 0.000000 
#    y 0.000000 1.899340 0.000000 
#    z 0.000000 0.000000 1.810410 
# 
# From -- ./inp_files/7574.got.cif
#   From: 2010.05.17/outbox.cif.g08.bks.cpg/sg41_4_cif.got.tgz:7574.got - 2010.06.03 18:54:24.
