data_PCOD9367714
_publ_section_title
;
Structure prediction by ZEFSAII (Michael W. Deem and Ramdas Pophale) SiO2 
 PCOD9367714
Probable space group: A B A 2
;
_chemical_formula_sum "Si O2"
_cell_formula_units_Z 48
_cell_length_a 12.052202
_cell_length_b 17.027112
_cell_length_c 11.158406
_cell_angle_alpha 90.000000
_cell_angle_beta 90.000000
_cell_angle_gamma 90.000000
_cell_volume 2289.863286
_symmetry_space_group_name_H-M "A B A 2"
_symmetry_group_IT_number 41
_symmetry_cell_setting 'orthorhombic'
loop_
_space_group_symop_operation_xyz
x,y,z
-x,-y,z
1/2-x,y,1/2+z
1/2+x,-y,1/2+z
x,1/2+y,1/2+z
-x,1/2-y,1/2+z
1/2-x,1/2+y,z
1/2+x,1/2-y,z
loop_
_atom_site_type_symbol
_atom_site_label
_atom_site_fract_x
_atom_site_fract_y
_atom_site_fract_z
Si Si1 0.389975 0.340684 0.727930
Si Si2 0.340995 0.898104 0.788529
Si Si3 0.385767 0.970149 0.029653
Si Si4 0.454260 0.585923 0.916739
Si Si5 0.933675 0.334268 0.671961
Si Si6 0.762891 0.438515 0.217947
O O1 0.257760 0.340868 0.747547
O O2 0.414140 0.413688 0.640329
O O3 0.452275 0.363530 0.849204
O O4 0.434024 0.259490 0.676553
O O5 0.459088 0.867564 0.742525
O O6 0.311638 0.983487 0.734781
O O7 0.329909 0.915899 0.930037
O O8 0.500000 0.000000 0.973214
O O9 0.319672 0.042864 0.088766
O O10 0.500000 0.500000 0.948637
O O11 0.355154 0.570767 0.821395
O O12 0.428117 0.631456 0.038039
O O13 0.819316 0.365795 0.727891
#
# Coordination Sequence:
#
# PCOD9367714 Si02
#       6
#     8   8   8   8   8   8
#     4  11  27  44  66 107 141 190 229 306 359 417
#     4  11  25  44  68 103 142 182 243 285 354 425
#     4  11  21  43  72 100 137 188 241 288 350 433
#     4  12  23  51  76 101 145 196 243 290 356 436
#     4  12  29  42  73 107 146 184 241 297 367 424
#     4  11  22  45  71 108 137 185 243 290 352 426
#
# _framework density 20.961949000000001
#
# number of rings (size 3 to 8) (size 9 to 14) (size 15 to 20)
#    0.000    0.667    5.000    3.500    9.333    0.000 
#    0.000    0.000    0.000    0.000    0.000    0.000 
#    0.000    0.000    0.000    0.000    0.000    0.000 
#
# Total GULP energy -134111.326859 kJ/mol
# GULP energy per Si atom -5587.971952 kJ/mol
# Density = 2.091424 g / cm^3
# Si number density = 20.961949 Si / 1000 Ang^3
#
#
#
# Elastic Constant Matrix: (Units=GPa)
#
#
# Indices 1 2 3 4 5 6 
#
# 1 86.6425 30.0820 14.5718 0.0000 0.0000 0.0000
# 2 30.0820 86.1077 4.3137 0.0000 0.0000 0.0000
# 3 14.5718 4.3137 69.5236 0.0000 0.0000 0.0000
# 4 0.0000 0.0000 0.0000 15.9960 0.0000 0.0000
# 5 0.0000 0.0000 0.0000 0.0000 14.6549 0.0000
# 6 0.0000 0.0000 0.0000 0.0000 0.0000 18.4052
#
#
#
# Elastic Compliance Matrix: (Units=1/GPa)
#
#
# Indices 1 2 3 4 5 6 
#
# 1 0.013574 -0.004614 -0.002559 0.000000 0.000000 0.000000
# 2 -0.004614 0.013218 0.000147 0.000000 0.000000 0.000000
# 3 -0.002559 0.000147 0.014911 0.000000 0.000000 0.000000
# 4 0.000000 0.000000 0.000000 0.062516 0.000000 0.000000
# 5 0.000000 0.000000 0.000000 0.000000 0.068237 0.000000
# 6 0.000000 0.000000 0.000000 0.000000 0.000000 0.054333
#
#
# Mechanical properties :
#
#
# Convention : Reuss Voigt Hill
#
# Bulk Modulus (GPa) = 36.16488 37.80099 36.98294
# Shear Modulus (GPa) = 19.99553 22.69830 21.34692
#
# Velocity S-wave (km/s) = 3.09187 3.29421 3.19465
# Velocity P-wave (km/s) = 5.48054 5.70451 5.59365
#
# Compressibility (1/GPa) = 0.02765114
#
# Stress axis : x y z
#
# Youngs Moduli (GPa) = 73.67050 75.65501 67.06551
#
# Poissons Ratio (x) = 0.34907 0.17160
# Poissons Ratio (y) = 0.33991 -0.00985
# Poissons Ratio (z) = 0.18851 -0.01112
#
# Static dielectric constant tensor:
#      x y z
#    x 1.803680 0.000000 0.000000 
#    y 0.000000 1.697350 0.000000 
#    z 0.000000 0.000000 1.787710 
# 
# From -- ./inp_files/4948.got.cif
#   From: 2010.05.17/outbox.cif.g08.bks.cpg/sg41_3_cif.got.tgz:4948.got - 2010.06.03 18:54:24.
