data_PCOD9367001
_publ_section_title
;
Structure prediction by ZEFSAII (Michael W. Deem and Ramdas Pophale) SiO2 
 PCOD9367001
Probable space group: A B A 2
;
_chemical_formula_sum "Si O2"
_cell_formula_units_Z 60
_cell_length_a 24.662030
_cell_length_b 9.536562
_cell_length_c 11.204245
_cell_angle_alpha 90.000000
_cell_angle_beta 90.000000
_cell_angle_gamma 90.000000
_cell_volume 2635.137341
_symmetry_space_group_name_H-M "A B A 2"
_symmetry_group_IT_number 41
_symmetry_cell_setting 'orthorhombic'
loop_
_space_group_symop_operation_xyz
x,y,z
-x,-y,z
1/2-x,y,1/2+z
1/2+x,-y,1/2+z
x,1/2+y,1/2+z
-x,1/2-y,1/2+z
1/2-x,1/2+y,z
1/2+x,1/2-y,z
loop_
_atom_site_type_symbol
_atom_site_label
_atom_site_fract_x
_atom_site_fract_y
_atom_site_fract_z
Si Si1 0.912037 0.061556 0.417140
Si Si2 0.119209 0.680336 0.770408
Si Si3 0.531678 0.253697 0.086145
Si Si4 0.356035 0.473933 0.832165
Si Si5 0.805397 0.555868 0.077626
Si Si6 0.500000 0.500000 0.938652
Si Si7 0.947933 0.814779 0.771381
Si Si8 0.195967 0.612520 0.564103
O O1 0.958984 0.122272 0.500092
O O2 0.857773 0.031038 0.493387
O O3 0.910722 0.192013 0.324920
O O4 0.919799 0.924145 0.340130
O O5 0.083774 0.754988 0.669839
O O6 0.139108 0.806828 0.854354
O O7 0.165341 0.597991 0.693386
O O8 0.473955 0.235265 0.148820
O O9 0.536785 0.411053 0.031533
O O10 0.317700 0.478778 0.716187
O O11 0.410799 0.548448 0.784748
O O12 0.338624 0.555380 0.951573
O O13 0.752546 0.466772 0.049647
O O14 0.794562 0.720837 0.059568
O O15 0.499084 0.366086 0.848124
#
# Coordination Sequence:
#
# PCOD9367001 Si02
#       8
#     8   8   8   8   8   4   8   8
#     4  11  24  48  70 106 151 184 251 307 358 453
#     4  11  25  47  68 108 147 189 240 308 363 438
#     4  11  22  47  68 105 150 191 245 297 364 440
#     4  11  24  48  69 103 152 184 247 310 367 447
#     4  11  26  46  71 106 143 190 246 311 371 443
#     4  10  22  38  66  98 140 188 232 286 356 426
#     4  11  23  45  73 100 144 197 235 306 369 431
#     4  11  25  47  75 101 148 193 244 311 375 436
#
# _framework density 22.769210999999999
#
# number of rings (size 3 to 8) (size 9 to 14) (size 15 to 20)
#    0.000    1.067    4.000    2.400    3.733    2.133 
#    9.600    0.000    0.000    0.000    0.000    0.000 
#    0.000    0.000    0.000    0.000    0.000    0.000 
#
# Total GULP energy -167083.525189 kJ/mol
# GULP energy per Si atom -5569.450840 kJ/mol
# Density = 2.271739 g / cm^3
# Si number density = 22.769211 Si / 1000 Ang^3
#
#
#
# Elastic Constant Matrix: (Units=GPa)
#
#
# Indices 1 2 3 4 5 6 
#
# 1 79.9468 35.9264 29.1802 0.0000 0.0000 0.0000
# 2 35.9264 97.7047 44.7716 0.0000 0.0000 0.0000
# 3 29.1802 44.7716 69.3012 0.0000 0.0000 0.0000
# 4 0.0000 0.0000 0.0000 15.6372 0.0000 0.0000
# 5 0.0000 0.0000 0.0000 0.0000 15.4370 0.0000
# 6 0.0000 0.0000 0.0000 0.0000 0.0000 51.1581
#
#
#
# Elastic Compliance Matrix: (Units=1/GPa)
#
#
# Indices 1 2 3 4 5 6 
#
# 1 0.015768 -0.003914 -0.004110 0.000000 0.000000 0.000000
# 2 -0.003914 0.015511 -0.008372 0.000000 0.000000 0.000000
# 3 -0.004110 -0.008372 0.021569 0.000000 0.000000 0.000000
# 4 0.000000 0.000000 0.000000 0.063950 0.000000 0.000000
# 5 0.000000 0.000000 0.000000 0.000000 0.064779 0.000000
# 6 0.000000 0.000000 0.000000 0.000000 0.000000 0.019547
#
#
# Mechanical properties :
#
#
# Convention : Reuss Voigt Hill
#
# Bulk Modulus (GPa) = 49.86639 51.85656 50.86147
# Shear Modulus (GPa) = 20.78109 25.58476 23.18292
#
# Velocity S-wave (km/s) = 3.02434 3.35573 3.19434
# Velocity P-wave (km/s) = 5.84328 6.15133 5.99928
#
# Compressibility (1/GPa) = 0.02005359
#
# Stress axis : x y z
#
# Youngs Moduli (GPa) = 63.42125 64.47129 46.36179
#
# Poissons Ratio (x) = 0.25236 0.19056
# Poissons Ratio (y) = 0.24825 0.38816
# Poissons Ratio (z) = 0.26068 0.53978
#
# Static dielectric constant tensor:
#      x y z
#    x 1.936140 0.000000 0.000000 
#    y 0.000000 1.828920 0.000000 
#    z 0.000000 0.000000 1.995040 
# 
# From -- ./inp_files/6579.got.cif
#   From: 2010.05.17/outbox.cif.g08.bks.cpg/sg41_4_cif.got.tgz:6579.got - 2010.06.03 18:54:24.
