data_PCOD9367484
_publ_section_title
;
Structure prediction by ZEFSAII (Michael W. Deem and Ramdas Pophale) SiO2 
 PCOD9367484
Probable space group: A B A 2
;
_chemical_formula_sum "Si O2"
_cell_formula_units_Z 56
_cell_length_a 17.824340
_cell_length_b 8.581480
_cell_length_c 18.314268
_cell_angle_alpha 90.000000
_cell_angle_beta 90.000000
_cell_angle_gamma 90.000000
_cell_volume 2801.336097
_symmetry_space_group_name_H-M "A B A 2"
_symmetry_group_IT_number 41
_symmetry_cell_setting 'orthorhombic'
loop_
_space_group_symop_operation_xyz
x,y,z
-x,-y,z
1/2-x,y,1/2+z
1/2+x,-y,1/2+z
x,1/2+y,1/2+z
-x,1/2-y,1/2+z
1/2-x,1/2+y,z
1/2+x,1/2-y,z
loop_
_atom_site_type_symbol
_atom_site_label
_atom_site_fract_x
_atom_site_fract_y
_atom_site_fract_z
Si Si1 0.200686 0.569716 0.851250
Si Si2 0.481051 0.245285 0.507019
Si Si3 0.873422 0.459752 0.007019
Si Si4 0.151674 0.913696 0.802576
Si Si5 0.000000 0.000000 0.132695
Si Si6 0.500000 0.000000 0.381344
Si Si7 0.799314 0.930283 0.662789
Si Si8 0.348326 0.913696 0.711463
O O1 0.178639 0.740924 0.823064
O O2 0.288033 0.530808 0.839506
O O3 0.158224 0.448681 0.797526
O O4 0.175672 0.552780 0.934266
O O5 0.563271 0.324936 0.507020
O O6 0.419232 0.379338 0.507019
O O7 0.475024 0.138446 0.578561
O O8 0.475025 0.138446 0.435478
O O9 0.824328 0.447220 0.079773
O O10 0.069355 0.944802 0.832624
O O11 0.158225 0.948681 0.716513
O O12 0.930645 0.055199 0.181415
O O13 0.821361 0.759076 0.690975
O O14 0.711967 0.969192 0.674533
#
# Coordination Sequence:
#
# PCOD9367484 Si02
#       8
#     8   8   8   8   4   4   8   8
#     4  11  25  45  70 101 136 179 232 276 339 407
#     4  10  24  42  64 105 143 169 224 291 327 416
#     4  11  24  44  70  98 137 180 225 276 346 396
#     4  11  25  45  70 101 137 178 230 279 335 410
#     4  11  24  44  70  99 142 180 222 283 348 390
#     4  11  24  44  70  99 142 180 222 283 348 390
#     4  11  25  45  70 101 136 179 232 276 339 407
#     4  11  25  45  70 101 137 178 230 279 335 410
#
# _framework density 19.990461
#
# number of rings (size 3 to 8) (size 9 to 14) (size 15 to 20)
#    0.000    1.143    2.857    3.429    8.000    6.857 
#    0.000    0.000    0.000    0.000    0.000    0.000 
#    0.000    0.000    0.000    0.000    0.000    0.000 
#
# Total GULP energy -156630.817082 kJ/mol
# GULP energy per Si atom -5593.957753 kJ/mol
# Density = 1.994496 g / cm^3
# Si number density = 19.990461 Si / 1000 Ang^3
#
#
#
# Elastic Constant Matrix: (Units=GPa)
#
#
# Indices 1 2 3 4 5 6 
#
# 1 65.2605 19.8588 42.8700 0.0000 0.0000 0.0000
# 2 19.8588 88.4594 46.6649 0.0000 0.0000 0.0000
# 3 42.8700 46.6649 166.3770 0.0000 0.0000 0.0000
# 4 0.0000 0.0000 0.0000 5.1287 0.0000 0.0000
# 5 0.0000 0.0000 0.0000 0.0000 28.3267 0.0000
# 6 0.0000 0.0000 0.0000 0.0000 0.0000 16.1688
#
#
#
# Elastic Compliance Matrix: (Units=1/GPa)
#
#
# Indices 1 2 3 4 5 6 
#
# 1 0.018727 -0.001947 -0.004279 0.000000 0.000000 0.000000
# 2 -0.001947 0.013470 -0.003276 0.000000 0.000000 0.000000
# 3 -0.004279 -0.003276 0.008032 0.000000 0.000000 0.000000
# 4 0.000000 0.000000 0.000000 0.194981 0.000000 0.000000
# 5 0.000000 0.000000 0.000000 0.000000 0.035302 0.000000
# 6 0.000000 0.000000 0.000000 0.000000 0.000000 0.061847
#
#
# Mechanical properties :
#
#
# Convention : Reuss Voigt Hill
#
# Bulk Modulus (GPa) = 47.11639 59.87606 53.49622
# Shear Modulus (GPa) = 13.94938 23.97172 18.96055
#
# Velocity S-wave (km/s) = 2.64446 3.46664 3.08308
# Velocity P-wave (km/s) = 5.73976 6.78534 6.28433
#
# Compressibility (1/GPa) = 0.02122404
#
# Stress axis : x y z
#
# Youngs Moduli (GPa) = 53.39983 74.23877 124.50120
#
# Poissons Ratio (x) = 0.14451 0.53278
# Poissons Ratio (y) = 0.10395 0.40792
# Poissons Ratio (z) = 0.22851 0.24324
#
# Static dielectric constant tensor:
#      x y z
#    x 1.673270 0.000000 0.000000 
#    y 0.000000 1.712020 0.000000 
#    z 0.000000 0.000000 1.680050 
# 
# From -- ./inp_files/11642.got.cif
#   From: 2010.05.17/outbox.cif.g08.bks.cpg/sg41_6_cif.got.tgz:11642.got - 2010.06.03 18:54:24.
