data_PCOD9367196
_publ_section_title
;
Structure prediction by ZEFSAII (Michael W. Deem and Ramdas Pophale) SiO2 
 PCOD9367196
Probable space group: A B A 2
;
_chemical_formula_sum "Si O2"
_cell_formula_units_Z 64
_cell_length_a 9.596211
_cell_length_b 14.730730
_cell_length_c 21.290051
_cell_angle_alpha 90.000000
_cell_angle_beta 90.000000
_cell_angle_gamma 90.000000
_cell_volume 3009.544434
_symmetry_space_group_name_H-M "A B A 2"
_symmetry_group_IT_number 41
_symmetry_cell_setting 'orthorhombic'
loop_
_space_group_symop_operation_xyz
x,y,z
-x,-y,z
1/2-x,y,1/2+z
1/2+x,-y,1/2+z
x,1/2+y,1/2+z
-x,1/2-y,1/2+z
1/2-x,1/2+y,z
1/2+x,1/2-y,z
loop_
_atom_site_type_symbol
_atom_site_label
_atom_site_fract_x
_atom_site_fract_y
_atom_site_fract_z
Si Si1 0.125374 0.432698 0.550460
Si Si2 0.124913 0.784177 0.712753
Si Si3 0.599588 0.345319 0.436129
Si Si4 0.715103 0.077057 0.790989
Si Si5 0.862740 0.440634 0.061420
Si Si6 0.374616 0.752957 0.628148
Si Si7 0.271962 0.841645 0.932013
Si Si8 0.890308 0.387512 0.792421
O O1 0.236128 0.497768 0.585738
O O2 0.080766 0.342858 0.589415
O O3 0.201685 0.398572 0.487651
O O4 0.000000 0.500000 0.535407
O O5 0.170781 0.874672 0.748015
O O6 0.219604 0.773950 0.651310
O O7 0.160583 0.704500 0.761593
O O8 0.969997 0.768331 0.688317
O O9 0.651788 0.416702 0.487562
O O10 0.690595 0.254030 0.433666
O O11 0.435384 0.326533 0.447631
O O12 0.607917 0.386637 0.367300
O O13 0.736986 0.109689 0.863487
O O14 0.553695 0.102083 0.774220
O O15 0.710638 0.970426 0.777126
O O16 0.874451 0.340386 0.089952
O O17 0.000000 0.500000 0.071180
#
# Coordination Sequence:
#
# PCOD9367196 Si02
#       8
#     8   8   8   8   8   8   8   8
#     4  12  27  46  71 104 139 187 236 293 359 418
#     4  12  24  45  69  99 135 188 234 282 339 405
#     4  11  23  41  75 102 142 179 223 289 362 425
#     4  10  22  44  70 102 137 179 227 282 352 417
#     4  12  25  46  71  99 140 181 231 295 361 418
#     4  12  28  45  69  98 142 184 245 291 338 413
#     4  11  23  43  72 106 140 181 224 288 365 422
#     4  10  22  43  71 101 138 180 225 284 347 419
#
# _framework density 21.265675999999999
#
# number of rings (size 3 to 8) (size 9 to 14) (size 15 to 20)
#    0.000    0.750    5.000    2.250    3.500    3.000 
#    0.000    0.000    0.000    0.000    0.000    0.000 
#    0.000    0.000    0.000    0.000    0.000    0.000 
#
# Total GULP energy -178809.251182 kJ/mol
# GULP energy per Si atom -5587.789099 kJ/mol
# Density = 2.121727 g / cm^3
# Si number density = 21.265676 Si / 1000 Ang^3
#
#
#
# Elastic Constant Matrix: (Units=GPa)
#
#
# Indices 1 2 3 4 5 6 
#
# 1 61.0000 52.6867 7.2479 0.0000 0.0000 0.0000
# 2 52.6867 97.3850 15.6213 0.0000 0.0000 0.0000
# 3 7.2479 15.6213 46.4915 0.0000 0.0000 0.0000
# 4 0.0000 0.0000 0.0000 2.4739 0.0000 0.0000
# 5 0.0000 0.0000 0.0000 0.0000 27.6931 0.0000
# 6 0.0000 0.0000 0.0000 0.0000 0.0000 21.6782
#
#
#
# Elastic Compliance Matrix: (Units=1/GPa)
#
#
# Indices 1 2 3 4 5 6 
#
# 1 0.030804 -0.016801 0.000843 0.000000 0.000000 0.000000
# 2 -0.016801 0.020017 -0.004107 0.000000 0.000000 0.000000
# 3 0.000843 -0.004107 0.022758 0.000000 0.000000 0.000000
# 4 0.000000 0.000000 0.000000 0.404214 0.000000 0.000000
# 5 0.000000 0.000000 0.000000 0.000000 0.036110 0.000000
# 6 0.000000 0.000000 0.000000 0.000000 0.000000 0.046129
#
#
# Mechanical properties :
#
#
# Convention : Reuss Voigt Hill
#
# Bulk Modulus (GPa) = 29.89549 39.55425 34.72487
# Shear Modulus (GPa) = 8.17914 18.99043 13.58478
#
# Velocity S-wave (km/s) = 1.96329 2.99157 2.53022
# Velocity P-wave (km/s) = 4.38497 5.52929 4.99004
#
# Compressibility (1/GPa) = 0.03344986
#
# Stress axis : x y z
#
# Youngs Moduli (GPa) = 32.46286 49.95818 43.94117
#
# Poissons Ratio (x) = 0.83934 -0.03704
# Poissons Ratio (y) = 0.54540 0.18044
# Poissons Ratio (z) = -0.02736 0.20515
#
# Static dielectric constant tensor:
#      x y z
#    x 1.765290 0.000000 0.000000 
#    y 0.000000 1.787520 0.000000 
#    z 0.000000 0.000000 1.782790 
# 
# From -- ./inp_files/12048.got.cif
#   From: 2010.05.17/outbox.cif.g08.bks.cpg/sg41_7_cif.got.tgz:12048.got - 2010.06.03 18:54:24.
