data_PCOD9367136
_publ_section_title
;
Structure prediction by ZEFSAII (Michael W. Deem and Ramdas Pophale) SiO2 
 PCOD9367136
Probable space group: A B A 2
;
_chemical_formula_sum "Si O2"
_cell_formula_units_Z 40
_cell_length_a 15.153323
_cell_length_b 11.262211
_cell_length_c 9.917912
_cell_angle_alpha 90.000000
_cell_angle_beta 90.000000
_cell_angle_gamma 90.000000
_cell_volume 1692.590078
_symmetry_space_group_name_H-M "A B A 2"
_symmetry_group_IT_number 41
_symmetry_cell_setting 'orthorhombic'
loop_
_space_group_symop_operation_xyz
x,y,z
-x,-y,z
1/2-x,y,1/2+z
1/2+x,-y,1/2+z
x,1/2+y,1/2+z
-x,1/2-y,1/2+z
1/2-x,1/2+y,z
1/2+x,1/2-y,z
loop_
_atom_site_type_symbol
_atom_site_label
_atom_site_fract_x
_atom_site_fract_y
_atom_site_fract_z
Si Si1 0.339035 0.625354 0.743060
Si Si2 0.069566 0.126262 0.474352
Si Si3 0.190827 0.830609 0.048451
Si Si4 0.883073 0.245447 0.502528
Si Si5 0.647490 0.947218 0.710306
O O1 0.396174 0.576036 0.618385
O O2 0.308638 0.753095 0.685323
O O3 0.384888 0.658384 0.881089
O O4 0.249596 0.552511 0.758555
O O5 0.129615 0.246398 0.455889
O O6 0.090403 0.046692 0.345158
O O7 0.970192 0.167994 0.492524
O O8 0.146100 0.951900 0.095272
O O9 0.291096 0.828074 0.996657
O O10 0.879174 0.325088 0.636868
#
# Coordination Sequence:
#
# PCOD9367136 Si02
#       5
#     8   8   8   8   8
#     4   9  20  41  60  92 134 175 216 285 334 398
#     4  10  22  42  66  95 137 171 228 284 339 402
#     4   9  23  40  67  92 133 182 224 265 355 407
#     4  11  21  41  67  95 135 173 226 291 334 406
#     4  11  20  42  70  92 135 184 221 280 344 409
#
# _framework density 23.632421000000001
#
# number of rings (size 3 to 8) (size 9 to 14) (size 15 to 20)
#    1.200    0.800    2.000    1.200    0.000    4.000 
#    0.000    3.000    4.400    0.000    0.000    0.000 
#    0.000    0.000    0.000    0.000    0.000    0.000 
#
# Total GULP energy -111611.753159 kJ/mol
# GULP energy per Si atom -5580.587658 kJ/mol
# Density = 2.357863 g / cm^3
# Si number density = 23.632421 Si / 1000 Ang^3
#
#
#
# Elastic Constant Matrix: (Units=GPa)
#
#
# Indices 1 2 3 4 5 6 
#
# 1 166.4944 45.0378 46.8675 0.0000 0.0000 0.0000
# 2 45.0378 72.0625 16.1426 0.0000 0.0000 0.0000
# 3 46.8675 16.1426 131.3969 0.0000 0.0000 0.0000
# 4 0.0000 0.0000 0.0000 18.3711 0.0000 0.0000
# 5 0.0000 0.0000 0.0000 0.0000 23.8600 0.0000
# 6 0.0000 0.0000 0.0000 0.0000 0.0000 18.7982
#
#
#
# Elastic Compliance Matrix: (Units=1/GPa)
#
#
# Indices 1 2 3 4 5 6 
#
# 1 0.007827 -0.004387 -0.002253 0.000000 0.000000 0.000000
# 2 -0.004387 0.016729 -0.000490 0.000000 0.000000 0.000000
# 3 -0.002253 -0.000490 0.008474 0.000000 0.000000 0.000000
# 4 0.000000 0.000000 0.000000 0.054433 0.000000 0.000000
# 5 0.000000 0.000000 0.000000 0.000000 0.041911 0.000000
# 6 0.000000 0.000000 0.000000 0.000000 0.000000 0.053196
#
#
# Mechanical properties :
#
#
# Convention : Reuss Voigt Hill
#
# Bulk Modulus (GPa) = 53.27832 65.11662 59.19747
# Shear Modulus (GPa) = 24.61986 29.66626 27.14306
#
# Velocity S-wave (km/s) = 3.23117 3.54689 3.39271
# Velocity P-wave (km/s) = 6.04269 6.66241 6.36010
#
# Compressibility (1/GPa) = 0.01876936
#
# Stress axis : x y z
#
# Youngs Moduli (GPa) = 127.76068 59.77789 118.00338
#
# Poissons Ratio (x) = 0.26226 0.26584
# Poissons Ratio (y) = 0.56051 0.05786
# Poissons Ratio (z) = 0.28783 0.02931
#
# Static dielectric constant tensor:
#      x y z
#    x 1.872490 0.000000 0.000000 
#    y 0.000000 2.003740 0.000000 
#    z 0.000000 0.000000 1.862300 
# 
# From -- ./inp_files/5366.got.cif
#   From: 2010.05.17/outbox.cif.g08.bks.cpg/sg41_3_cif.got.tgz:5366.got - 2010.06.03 18:54:24.
