data_PCOD9367319
_publ_section_title
;
Structure prediction by ZEFSAII (Michael W. Deem and Ramdas Pophale) SiO2 
 PCOD9367319
Probable space group: A B A 2
;
_chemical_formula_sum "Si O2"
_cell_formula_units_Z 56
_cell_length_a 5.161142
_cell_length_b 31.261088
_cell_length_c 15.356063
_cell_angle_alpha 90.000000
_cell_angle_beta 90.000000
_cell_angle_gamma 90.000000
_cell_volume 2477.591956
_symmetry_space_group_name_H-M "A B A 2"
_symmetry_group_IT_number 41
_symmetry_cell_setting 'orthorhombic'
loop_
_space_group_symop_operation_xyz
x,y,z
-x,-y,z
1/2-x,y,1/2+z
1/2+x,-y,1/2+z
x,1/2+y,1/2+z
-x,1/2-y,1/2+z
1/2-x,1/2+y,z
1/2+x,1/2-y,z
loop_
_atom_site_type_symbol
_atom_site_label
_atom_site_fract_x
_atom_site_fract_y
_atom_site_fract_z
Si Si1 0.810441 0.223268 0.889260
Si Si2 0.500000 0.500000 0.627212
Si Si3 0.836284 0.584325 0.222018
Si Si4 0.452690 0.651996 0.381892
Si Si5 0.325757 0.913171 0.425565
Si Si6 0.000000 0.500000 0.517226
Si Si7 0.552893 0.829296 0.520264
Si Si8 0.813202 0.864288 0.196835
O O1 0.574852 0.253951 0.864307
O O2 0.715412 0.177103 0.854858
O O3 0.864778 0.208805 0.989618
O O4 0.618118 0.537550 0.685149
O O5 0.252186 0.515572 0.571283
O O6 0.907523 0.585092 0.324321
O O7 0.546349 0.601180 0.206173
O O8 0.040998 0.614543 0.172946
O O9 0.530651 0.604630 0.414419
O O10 0.310530 0.675341 0.461062
O O11 0.290238 0.653641 0.294193
O O12 0.449049 0.875843 0.486169
O O13 0.386000 0.959244 0.465161
O O14 0.606336 0.831935 0.621534
#
# Coordination Sequence:
#
# PCOD9367319 Si02
#       8
#     8   4   8   8   8   4   8   8
#     4  11  23  42  71  98 134 174 212 272 332 398
#     4  12  25  40  57  92 128 174 222 287 346 395
#     4  11  23  42  61  91 131 171 228 281 337 399
#     4  10  23  44  69 101 132 179 227 272 339 407
#     4  10  23  41  65  95 127 181 225 278 336 401
#     4  12  27  40  63  94 134 174 230 281 344 399
#     4  11  22  42  71  98 135 175 229 271 338 400
#     4  11  25  40  68  97 132 173 225 281 327 402
#
# _framework density 22.602592000000001
#
# number of rings (size 3 to 8) (size 9 to 14) (size 15 to 20)
#    0.000    1.143    2.857    3.000    8.000    0.000 
#    0.000    2.857    0.000    0.000    0.000    0.000 
#    0.000    0.000    0.000    0.000    0.000    0.000 
#
# Total GULP energy -156181.359791 kJ/mol
# GULP energy per Si atom -5577.905707 kJ/mol
# Density = 2.255115 g / cm^3
# Si number density = 22.602592 Si / 1000 Ang^3
#
#
#
# Elastic Constant Matrix: (Units=GPa)
#
#
# Indices 1 2 3 4 5 6 
#
# 1 92.3968 21.4273 26.9333 0.0000 0.0000 0.0000
# 2 21.4273 73.9269 1.1054 0.0000 0.0000 0.0000
# 3 26.9333 1.1054 74.3048 0.0000 0.0000 0.0000
# 4 0.0000 0.0000 0.0000 22.3276 0.0000 0.0000
# 5 0.0000 0.0000 0.0000 0.0000 -193.7483 0.0000
# 6 0.0000 0.0000 0.0000 0.0000 0.0000 34.0471
#
#
#
# Elastic Compliance Matrix: (Units=1/GPa)
#
#
# Indices 1 2 3 4 5 6 
#
# 1 0.013046 -0.003711 -0.004674 0.000000 0.000000 0.000000
# 2 -0.003711 0.014586 0.001128 0.000000 0.000000 0.000000
# 3 -0.004674 0.001128 0.015135 0.000000 0.000000 0.000000
# 4 0.000000 0.000000 0.000000 0.044788 0.000000 0.000000
# 5 0.000000 0.000000 0.000000 0.000000 -0.005161 0.000000
# 6 0.000000 0.000000 0.000000 0.000000 0.000000 0.029371
#
#
# Mechanical properties :
#
#
# Convention : Reuss Voigt Hill
#
# Bulk Modulus (GPa) = 35.39368 37.72895 36.56132
# Shear Modulus (GPa) = 36.84718 -14.73056 11.05831
#
# Velocity S-wave (km/s) = 4.04198 -2.55565 2.21430
# Velocity P-wave (km/s) = 6.12181 2.83198 4.76952
#
# Compressibility (1/GPa) = 0.02825363
#
# Stress axis : x y z
#
# Youngs Moduli (GPa) = 76.65242 68.56015 66.07067
#
# Poissons Ratio (x) = 0.25445 0.30878
# Poissons Ratio (y) = 0.28449 -0.07455
# Poissons Ratio (z) = 0.35824 -0.07736
#
# Static dielectric constant tensor:
#      x y z
#    x 1.939560 0.000000 0.000000 
#    y 0.000000 1.874530 0.000000 
#    z 0.000000 0.000000 1.846290 
# 
# From -- ./inp_files/6991.got.cif
#   From: 2010.05.17/outbox.cif.g08.bks.cpg/sg41_4_cif.got.tgz:6991.got - 2010.06.03 18:54:24.
