data_PCOD9367691
_publ_section_title
;
Structure prediction by ZEFSAII (Michael W. Deem and Ramdas Pophale) SiO2 
 PCOD9367691
Probable space group: A B A 2
;
_chemical_formula_sum "Si O2"
_cell_formula_units_Z 64
_cell_length_a 9.248846
_cell_length_b 24.462638
_cell_length_c 13.640440
_cell_angle_alpha 90.000000
_cell_angle_beta 90.000000
_cell_angle_gamma 90.000000
_cell_volume 3086.165531
_symmetry_space_group_name_H-M "A B A 2"
_symmetry_group_IT_number 41
_symmetry_cell_setting 'orthorhombic'
loop_
_space_group_symop_operation_xyz
x,y,z
-x,-y,z
1/2-x,y,1/2+z
1/2+x,-y,1/2+z
x,1/2+y,1/2+z
-x,1/2-y,1/2+z
1/2-x,1/2+y,z
1/2+x,1/2-y,z
loop_
_atom_site_type_symbol
_atom_site_label
_atom_site_fract_x
_atom_site_fract_y
_atom_site_fract_z
Si Si1 0.246741 0.834562 0.860930
Si Si2 0.910334 0.944334 0.162860
Si Si3 0.121146 0.858857 0.647333
Si Si4 0.288857 0.217319 0.801157
Si Si5 0.433667 0.113206 0.873567
Si Si6 0.592235 0.445217 0.581704
Si Si7 0.037644 0.745687 0.158944
Si Si8 0.592881 0.142417 0.546071
O O1 0.195207 0.846605 0.750895
O O2 0.254925 0.768736 0.868158
O O3 0.402501 0.862235 0.878502
O O4 0.116745 0.854117 0.930695
O O5 0.747570 0.954665 0.128875
O O6 0.922608 0.922752 0.274585
O O7 0.974183 0.896745 0.092552
O O8 0.000000 0.000000 0.152575
O O9 0.251363 0.879558 0.581266
O O10 0.994665 0.902268 0.648757
O O11 0.055268 0.801804 0.608129
O O12 0.318356 0.162273 0.859674
O O13 0.439533 0.230421 0.746516
O O14 0.172460 0.216876 0.712950
O O15 0.401168 0.080634 0.972803
O O16 0.500000 0.500000 0.576301
O O17 0.077079 0.796469 0.090483
#
# Coordination Sequence:
#
# PCOD9367691 Si02
#       8
#     8   8   8   8   8   8   8   8
#     4  11  24  40  73 105 142 193 227 293 347 432
#     4  12  27  50  75  99 140 188 234 308 363 422
#     4  11  23  44  68 102 142 183 237 297 346 425
#     4  11  20  41  65 101 145 184 231 274 358 425
#     4  12  24  48  74 104 143 190 239 293 362 428
#     4  12  29  49  75 107 134 184 249 306 360 436
#     4  11  21  39  66 100 147 187 228 283 350 428
#     4  12  23  43  68 103 143 190 238 285 358 423
#
# _framework density 20.737708999999999
#
# number of rings (size 3 to 8) (size 9 to 14) (size 15 to 20)
#    0.000    0.500    7.500    1.875    1.750    3.000 
#    0.000    1.250    0.000    0.000    0.000    0.000 
#    0.000    0.000    0.000    0.000    0.000    0.000 
#
# Total GULP energy -178913.851316 kJ/mol
# GULP energy per Si atom -5591.057854 kJ/mol
# Density = 2.069051 g / cm^3
# Si number density = 20.737709 Si / 1000 Ang^3
#
#
#
# Elastic Constant Matrix: (Units=GPa)
#
#
# Indices 1 2 3 4 5 6 
#
# 1 112.6883 38.8570 16.3797 0.0000 0.0000 0.0000
# 2 38.8570 106.4323 21.5922 0.0000 0.0000 0.0000
# 3 16.3797 21.5922 60.3754 0.0000 0.0000 0.0000
# 4 0.0000 0.0000 0.0000 22.9795 0.0000 0.0000
# 5 0.0000 0.0000 0.0000 0.0000 20.6110 0.0000
# 6 0.0000 0.0000 0.0000 0.0000 0.0000 41.9201
#
#
#
# Elastic Compliance Matrix: (Units=1/GPa)
#
#
# Indices 1 2 3 4 5 6 
#
# 1 0.010287 -0.003439 -0.001561 0.000000 0.000000 0.000000
# 2 -0.003439 0.011280 -0.003101 0.000000 0.000000 0.000000
# 3 -0.001561 -0.003101 0.018096 0.000000 0.000000 0.000000
# 4 0.000000 0.000000 0.000000 0.043517 0.000000 0.000000
# 5 0.000000 0.000000 0.000000 0.000000 0.048518 0.000000
# 6 0.000000 0.000000 0.000000 0.000000 0.000000 0.023855
#
#
# Mechanical properties :
#
#
# Convention : Reuss Voigt Hill
#
# Bulk Modulus (GPa) = 42.62473 48.12822 45.37647
# Shear Modulus (GPa) = 27.84357 30.61324 29.22841
#
# Velocity S-wave (km/s) = 3.66820 3.84632 3.75831
# Velocity P-wave (km/s) = 6.20804 6.55622 6.38450
#
# Compressibility (1/GPa) = 0.02346056
#
# Stress axis : x y z
#
# Youngs Moduli (GPa) = 97.21278 88.65017 55.26200
#
# Poissons Ratio (x) = 0.30486 0.08626
# Poissons Ratio (y) = 0.33430 0.17138
# Poissons Ratio (z) = 0.15174 0.27493
#
# Static dielectric constant tensor:
#      x y z
#    x 1.748200 0.000000 0.000000 
#    y 0.000000 1.756730 0.000000 
#    z 0.000000 0.000000 1.734640 
# 
# From -- ./inp_files/7567.got.cif
#   From: 2010.05.17/outbox.cif.g08.bks.cpg/sg41_4_cif.got.tgz:7567.got - 2010.06.03 18:54:24.
