data_PCOD9367810
_publ_section_title
;
Structure prediction by ZEFSAII (Michael W. Deem and Ramdas Pophale) SiO2 
 PCOD9367810
Probable space group: A B A 2
;
_chemical_formula_sum "Si O2"
_cell_formula_units_Z 48
_cell_length_a 26.566293
_cell_length_b 8.905985
_cell_length_c 7.683277
_cell_angle_alpha 90.000000
_cell_angle_beta 90.000000
_cell_angle_gamma 90.000000
_cell_volume 1817.855708
_symmetry_space_group_name_H-M "A B A 2"
_symmetry_group_IT_number 41
_symmetry_cell_setting 'orthorhombic'
loop_
_space_group_symop_operation_xyz
x,y,z
-x,-y,z
1/2-x,y,1/2+z
1/2+x,-y,1/2+z
x,1/2+y,1/2+z
-x,1/2-y,1/2+z
1/2-x,1/2+y,z
1/2+x,1/2-y,z
loop_
_atom_site_type_symbol
_atom_site_label
_atom_site_fract_x
_atom_site_fract_y
_atom_site_fract_z
Si Si1 0.456699 0.841698 0.517680
Si Si2 0.132918 0.039363 0.860577
Si Si3 0.219353 0.341996 0.478695
Si Si4 0.441840 0.757151 0.922757
Si Si5 0.088563 0.045766 0.491709
Si Si6 0.308248 0.998559 0.846907
O O1 0.450813 0.815802 0.725658
O O2 0.515719 0.861918 0.474025
O O3 0.447021 0.677007 0.434420
O O4 0.408727 0.926988 0.439492
O O5 0.114409 0.191387 0.954043
O O6 0.120214 0.081900 0.663222
O O7 0.186406 0.960291 0.865346
O O8 0.209991 0.171240 0.404455
O O9 0.277845 0.386394 0.472538
O O10 0.202505 0.407252 0.667127
O O11 0.444457 0.902844 0.040799
O O12 0.131850 0.010278 0.355205
#
# Coordination Sequence:
#
# PCOD9367810 Si02
#       6
#     8   8   8   8   8   8
#     4  11  23  45  62 102 136 183 239 291 362 422
#     4  11  25  43  68 100 139 182 236 292 361 426
#     4  12  27  47  75 106 146 187 236 301 363 440
#     4  11  25  39  70  95 139 184 236 297 355 435
#     4  11  25  43  68  99 140 181 237 294 355 433
#     4  12  27  47  75 106 146 185 240 295 366 438
#
# _framework density 26.404737000000001
#
# number of rings (size 3 to 8) (size 9 to 14) (size 15 to 20)
#    0.000    0.667    1.667    5.000    7.000    8.000 
#    0.000    0.000    0.000    0.000    0.000    0.000 
#    0.000    0.000    0.000    0.000    0.000    0.000 
#
# Total GULP energy -133795.258610 kJ/mol
# GULP energy per Si atom -5574.802442 kJ/mol
# Density = 2.634464 g / cm^3
# Si number density = 26.404737 Si / 1000 Ang^3
#
#
#
# Elastic Constant Matrix: (Units=GPa)
#
#
# Indices 1 2 3 4 5 6 
#
# 1 97.5550 -4.9319 2.5096 0.0000 0.0000 0.0000
# 2 -4.9319 81.7755 -18.4417 0.0000 0.0000 0.0000
# 3 2.5096 -18.4417 83.6388 0.0000 0.0000 0.0000
# 4 0.0000 0.0000 0.0000 25.5896 0.0000 0.0000
# 5 0.0000 0.0000 0.0000 0.0000 37.6172 0.0000
# 6 0.0000 0.0000 0.0000 0.0000 0.0000 48.5403
#
#
#
# Elastic Compliance Matrix: (Units=1/GPa)
#
#
# Indices 1 2 3 4 5 6 
#
# 1 0.010285 0.000579 -0.000181 0.000000 0.000000 0.000000
# 2 0.000579 0.012901 0.002827 0.000000 0.000000 0.000000
# 3 -0.000181 0.002827 0.012585 0.000000 0.000000 0.000000
# 4 0.000000 0.000000 0.000000 0.039078 0.000000 0.000000
# 5 0.000000 0.000000 0.000000 0.000000 0.026584 0.000000
# 6 0.000000 0.000000 0.000000 0.000000 0.000000 0.020601
#
#
# Mechanical properties :
#
#
# Convention : Reuss Voigt Hill
#
# Bulk Modulus (GPa) = 23.68408 24.58236 24.13322
# Shear Modulus (GPa) = 38.56344 41.27163 39.91754
#
# Velocity S-wave (km/s) = 3.82576 3.95782 3.89235
# Velocity P-wave (km/s) = 5.33895 5.49689 5.41850
#
# Compressibility (1/GPa) = 0.04222245
#
# Stress axis : x y z
#
# Youngs Moduli (GPa) = 97.23297 77.51260 79.45982
#
# Poissons Ratio (x) = -0.04492 0.01437
# Poissons Ratio (y) = -0.05635 -0.22465
# Poissons Ratio (z) = 0.01758 -0.21914
#
# Static dielectric constant tensor:
#      x y z
#    x 2.201080 0.000000 0.000000 
#    y 0.000000 2.196240 0.000000 
#    z 0.000000 0.000000 2.184270 
# 
# From -- ./inp_files/3917.got.cif
#   From: 2010.05.17/outbox.cif.g08.bks.cpg/sg41_2_cif.got.tgz:3917.got - 2010.06.03 18:54:24.
