data_PCOD9367688
_publ_section_title
;
Structure prediction by ZEFSAII (Michael W. Deem and Ramdas Pophale) SiO2 
 PCOD9367688
Probable space group: A B A 2
;
_chemical_formula_sum "Si O2"
_cell_formula_units_Z 36
_cell_length_a 10.018612
_cell_length_b 13.366041
_cell_length_c 9.145214
_cell_angle_alpha 90.000000
_cell_angle_beta 90.000000
_cell_angle_gamma 90.000000
_cell_volume 1224.628096
_symmetry_space_group_name_H-M "A B A 2"
_symmetry_group_IT_number 41
_symmetry_cell_setting 'orthorhombic'
loop_
_space_group_symop_operation_xyz
x,y,z
-x,-y,z
1/2-x,y,1/2+z
1/2+x,-y,1/2+z
x,1/2+y,1/2+z
-x,1/2-y,1/2+z
1/2-x,1/2+y,z
1/2+x,1/2-y,z
loop_
_atom_site_type_symbol
_atom_site_label
_atom_site_fract_x
_atom_site_fract_y
_atom_site_fract_z
Si Si1 0.781018 0.009639 0.384180
Si Si2 0.585818 0.161595 0.358109
Si Si3 0.268541 0.679103 0.191397
Si Si4 0.000000 0.000000 0.617700
Si Si5 0.068060 0.819130 0.214999
O O1 0.657682 0.073925 0.451231
O O2 0.876493 0.971736 0.512228
O O3 0.871882 0.080102 0.281321
O O4 0.731922 0.917676 0.286509
O O5 0.706360 0.231049 0.305590
O O6 0.548483 0.091602 0.216582
O O7 0.471921 0.245585 0.350786
O O8 0.153566 0.743832 0.109158
O O9 0.421678 0.659599 0.138170
#
# Coordination Sequence:
#
# PCOD9367688 Si02
#       5
#     8   8   8   4   8
#     4  11  20  39  68  93 129 184 220 271 347 400
#     4   9  22  35  59  98 129 165 222 273 325 397
#     4   9  18  35  60  91 128 170 216 266 337 387
#     4  12  20  40  70  96 130 184 222 270 352 400
#     4   9  18  37  59  93 129 173 214 276 331 390
#
# _framework density 29.396681000000001
#
# number of rings (size 3 to 8) (size 9 to 14) (size 15 to 20)
#    1.333    0.889    2.222    1.333    0.000    0.000 
#    0.000   20.000    0.000    4.000    0.000    0.000 
#    0.000    0.000    0.000    0.000    0.000    0.000 
#
# Total GULP energy -100302.858473 kJ/mol
# GULP energy per Si atom -5572.381026 kJ/mol
# Density = 2.932977 g / cm^3
# Si number density = 29.396681 Si / 1000 Ang^3
#
#
#
# Elastic Constant Matrix: (Units=GPa)
#
#
# Indices 1 2 3 4 5 6 
#
# 1 108.5993 23.1585 -36.6988 0.0000 0.0000 0.0000
# 2 23.1585 180.9928 -6.1017 0.0000 0.0000 0.0000
# 3 -36.6988 -6.1017 81.4790 0.0000 0.0000 0.0000
# 4 0.0000 0.0000 0.0000 6.8530 0.0000 0.0000
# 5 0.0000 0.0000 0.0000 0.0000 10.6711 0.0000
# 6 0.0000 0.0000 0.0000 0.0000 0.0000 87.7795
#
#
#
# Elastic Compliance Matrix: (Units=1/GPa)
#
#
# Indices 1 2 3 4 5 6 
#
# 1 0.011141 -0.001259 0.004923 0.000000 0.000000 0.000000
# 2 -0.001259 0.005681 -0.000142 0.000000 0.000000 0.000000
# 3 0.004923 -0.000142 0.014480 0.000000 0.000000 0.000000
# 4 0.000000 0.000000 0.000000 0.145922 0.000000 0.000000
# 5 0.000000 0.000000 0.000000 0.000000 0.093711 0.000000
# 6 0.000000 0.000000 0.000000 0.000000 0.000000 0.011392
#
#
# Mechanical properties :
#
#
# Convention : Reuss Voigt Hill
#
# Bulk Modulus (GPa) = 26.07811 36.86524 31.47168
# Shear Modulus (GPa) = 17.35721 47.10825 32.23273
#
# Velocity S-wave (km/s) = 2.43255 4.00747 3.31490
# Velocity P-wave (km/s) = 4.09635 5.82932 5.03791
#
# Compressibility (1/GPa) = 0.03834634
#
# Stress axis : x y z
#
# Youngs Moduli (GPa) = 89.76251 176.01131 69.06057
#
# Poissons Ratio (x) = 0.22168 -0.34002
# Poissons Ratio (y) = 0.11305 0.00979
# Poissons Ratio (z) = -0.44194 0.02496
#
# Static dielectric constant tensor:
#      x y z
#    x 2.694990 0.000000 0.000000 
#    y 0.000000 2.245910 0.000000 
#    z 0.000000 0.000000 2.374770 
# 
# From -- ./inp_files/4817.got.cif
#   From: 2010.05.17/outbox.cif.g08.bks.cpg/sg41_3_cif.got.tgz:4817.got - 2010.06.03 18:54:24.
