data_PCOD9367388
_publ_section_title
;
Structure prediction by ZEFSAII (Michael W. Deem and Ramdas Pophale) SiO2 
 PCOD9367388
Probable space group: A B A 2
;
_chemical_formula_sum "Si O2"
_cell_formula_units_Z 48
_cell_length_a 15.588731
_cell_length_b 8.667855
_cell_length_c 14.077896
_cell_angle_alpha 90.000000
_cell_angle_beta 90.000000
_cell_angle_gamma 90.000000
_cell_volume 1902.217414
_symmetry_space_group_name_H-M "A B A 2"
_symmetry_group_IT_number 41
_symmetry_cell_setting 'orthorhombic'
loop_
_space_group_symop_operation_xyz
x,y,z
-x,-y,z
1/2-x,y,1/2+z
1/2+x,-y,1/2+z
x,1/2+y,1/2+z
-x,1/2-y,1/2+z
1/2-x,1/2+y,z
1/2+x,1/2-y,z
loop_
_atom_site_type_symbol
_atom_site_label
_atom_site_fract_x
_atom_site_fract_y
_atom_site_fract_z
Si Si1 0.931834 0.863069 0.410150
Si Si2 0.543389 0.788417 0.551852
Si Si3 0.826456 0.004203 0.130721
Si Si4 0.440892 0.866787 0.243139
Si Si5 0.758784 0.211114 0.753472
Si Si6 0.296673 0.891380 0.958811
O O1 0.938451 0.782968 0.309106
O O2 0.843097 0.949135 0.428968
O O3 0.962888 0.731457 0.482963
O O4 0.000000 0.000000 0.417818
O O5 0.583108 0.944855 0.593009
O O6 0.524417 0.677972 0.640697
O O7 0.628165 0.718006 0.499377
O O8 0.786974 0.862685 0.194161
O O9 0.826328 0.146008 0.203477
O O10 0.769386 0.062008 0.041739
O O11 0.340021 0.904073 0.234287
O O12 0.500000 0.000000 0.284988
O O13 0.742565 0.191427 0.865778
#
# Coordination Sequence:
#
# PCOD9367388 Si02
#       6
#     8   8   8   8   8   8
#     4  10  24  44  67  96 130 183 220 281 347 416
#     4  10  23  44  67  97 132 177 226 277 352 411
#     4  11  23  42  64 104 132 180 224 292 343 422
#     4  11  23  43  65  97 136 175 227 288 345 413
#     4  11  26  40  70 100 135 181 237 285 356 420
#     4  11  22  43  70  94 139 175 228 284 350 414
#
# _framework density 25.233708
#
# number of rings (size 3 to 8) (size 9 to 14) (size 15 to 20)
#    0.000    1.333    3.333    3.500    7.000    1.333 
#    0.000    0.833    0.000    0.000    0.000    0.000 
#    0.000    0.000    0.000    0.000    0.000    0.000 
#
# Total GULP energy -134242.470141 kJ/mol
# GULP energy per Si atom -5593.436256 kJ/mol
# Density = 2.517628 g / cm^3
# Si number density = 25.233708 Si / 1000 Ang^3
#
#
#
# Elastic Constant Matrix: (Units=GPa)
#
#
# Indices 1 2 3 4 5 6 
#
# 1 77.7841 34.6351 30.2067 0.0000 0.0000 0.0000
# 2 34.6351 64.7389 34.7266 0.0000 0.0000 0.0000
# 3 30.2067 34.7266 165.5073 0.0000 0.0000 0.0000
# 4 0.0000 0.0000 0.0000 30.5216 0.0000 0.0000
# 5 0.0000 0.0000 0.0000 0.0000 44.0561 0.0000
# 6 0.0000 0.0000 0.0000 0.0000 0.0000 36.9268
#
#
#
# Elastic Compliance Matrix: (Units=1/GPa)
#
#
# Indices 1 2 3 4 5 6 
#
# 1 0.017143 -0.008443 -0.001357 0.000000 0.000000 0.000000
# 2 -0.008443 0.021564 -0.002984 0.000000 0.000000 0.000000
# 3 -0.001357 -0.002984 0.006916 0.000000 0.000000 0.000000
# 4 0.000000 0.000000 0.000000 0.032764 0.000000 0.000000
# 5 0.000000 0.000000 0.000000 0.000000 0.022698 0.000000
# 6 0.000000 0.000000 0.000000 0.000000 0.000000 0.027081
#
#
# Mechanical properties :
#
#
# Convention : Reuss Voigt Hill
#
# Bulk Modulus (GPa) = 49.86393 56.35191 53.10792
# Shear Modulus (GPa) = 31.16850 36.19835 33.68343
#
# Velocity S-wave (km/s) = 3.51834 3.79162 3.65754
# Velocity P-wave (km/s) = 6.02567 6.44585 6.23930
#
# Compressibility (1/GPa) = 0.02005457
#
# Stress axis : x y z
#
# Youngs Moduli (GPa) = 58.33381 46.37302 144.59770
#
# Poissons Ratio (x) = 0.39154 0.19624
# Poissons Ratio (y) = 0.49253 0.43142
# Poissons Ratio (z) = 0.07917 0.13836
#
# Static dielectric constant tensor:
#      x y z
#    x 2.040190 0.000000 0.000000 
#    y 0.000000 2.038210 0.000000 
#    z 0.000000 0.000000 1.972220 
# 
# From -- ./inp_files/8712.got.cif
#   From: 2010.05.17/outbox.cif.g08.bks.cpg/sg41_5_cif.got.tgz:8712.got - 2010.06.03 18:54:24.
