data_PCOD9367586
_publ_section_title
;
Structure prediction by ZEFSAII (Michael W. Deem and Ramdas Pophale) SiO2 
 PCOD9367586
Probable space group: A B A 2
;
_chemical_formula_sum "Si O2"
_cell_formula_units_Z 64
_cell_length_a 13.847547
_cell_length_b 23.311703
_cell_length_c 9.574335
_cell_angle_alpha 90.000000
_cell_angle_beta 90.000000
_cell_angle_gamma 90.000000
_cell_volume 3090.690152
_symmetry_space_group_name_H-M "A B A 2"
_symmetry_group_IT_number 41
_symmetry_cell_setting 'orthorhombic'
loop_
_space_group_symop_operation_xyz
x,y,z
-x,-y,z
1/2-x,y,1/2+z
1/2+x,-y,1/2+z
x,1/2+y,1/2+z
-x,1/2-y,1/2+z
1/2-x,1/2+y,z
1/2+x,1/2-y,z
loop_
_atom_site_type_symbol
_atom_site_label
_atom_site_fract_x
_atom_site_fract_y
_atom_site_fract_z
Si Si1 0.194336 0.608252 0.375000
Si Si2 0.464464 0.436830 0.434022
Si Si3 0.472722 0.190549 0.487297
Si Si4 0.474022 0.788529 0.185469
Si Si5 0.834940 0.101412 0.670730
Si Si6 0.889653 0.015033 0.914941
Si Si7 0.111568 0.393299 0.647351
Si Si8 0.133930 0.634664 0.068067
O O1 0.105368 0.644233 0.437858
O O2 0.175037 0.542010 0.414014
O O3 0.188558 0.614471 0.208121
O O4 0.290487 0.634382 0.442219
O O5 0.500000 0.500000 0.396098
O O6 0.370596 0.433318 0.533714
O O7 0.440895 0.401037 0.295436
O O8 0.550842 0.409751 0.524113
O O9 0.504303 0.223387 0.346963
O O10 0.433823 0.235067 0.600610
O O11 0.559456 0.155211 0.556780
O O12 0.402285 0.842621 0.181393
O O13 0.574078 0.808438 0.110292
O O14 0.724189 0.119328 0.664510
O O15 0.851060 0.060552 0.802960
O O16 0.000000 0.000000 0.874224
O O17 0.893818 0.046782 0.063212
#
# Coordination Sequence:
#
# PCOD9367586 Si02
#       8
#     8   8   8   8   8   8   8   8
#     4  11  25  42  70 103 139 184 236 282 361 428
#     4  11  25  41  63 102 142 181 230 282 342 413
#     4  11  25  47  69  98 134 185 236 296 354 418
#     4  10  24  48  71  95 138 184 238 293 358 408
#     4  11  24  45  68 101 140 190 232 289 357 425
#     4  12  22  43  68  96 144 186 223 289 352 430
#     4  12  26  41  68 105 138 180 241 288 357 431
#     4  10  25  44  66 102 138 181 230 289 348 422
#
# _framework density 20.707349000000001
#
# number of rings (size 3 to 8) (size 9 to 14) (size 15 to 20)
#    0.000    1.000    2.500    3.750   10.500    1.000 
#    0.000    2.500    0.000    0.000    0.000    0.000 
#    0.000    0.000    0.000    0.000    0.000    0.000 
#
# Total GULP energy -178971.534538 kJ/mol
# GULP energy per Si atom -5592.860454 kJ/mol
# Density = 2.066022 g / cm^3
# Si number density = 20.707349 Si / 1000 Ang^3
#
#
#
# Elastic Constant Matrix: (Units=GPa)
#
#
# Indices 1 2 3 4 5 6 
#
# 1 87.1500 -3.8270 34.2404 0.0000 0.0000 0.0000
# 2 -3.8270 49.6643 38.2512 0.0000 0.0000 0.0000
# 3 34.2404 38.2512 110.0945 0.0000 0.0000 0.0000
# 4 0.0000 0.0000 0.0000 25.0749 0.0000 0.0000
# 5 0.0000 0.0000 0.0000 0.0000 17.2466 0.0000
# 6 0.0000 0.0000 0.0000 0.0000 0.0000 -1.9824
#
#
#
# Elastic Compliance Matrix: (Units=1/GPa)
#
#
# Indices 1 2 3 4 5 6 
#
# 1 0.014346 0.006201 -0.006616 0.000000 0.000000 0.000000
# 2 0.006201 0.030173 -0.012412 0.000000 0.000000 0.000000
# 3 -0.006616 -0.012412 0.015453 0.000000 0.000000 0.000000
# 4 0.000000 0.000000 0.000000 0.039881 0.000000 0.000000
# 5 0.000000 0.000000 0.000000 0.000000 0.057983 0.000000
# 6 0.000000 0.000000 0.000000 0.000000 0.000000 -0.504430
#
#
# Mechanical properties :
#
#
# Convention : Reuss Voigt Hill
#
# Bulk Modulus (GPa) = 29.13882 42.69312 35.91597
# Shear Modulus (GPa) = -16.15505 19.95074 1.89785
#
# Velocity S-wave (km/s) = -2.79616 3.10734 0.95838
# Velocity P-wave (km/s) = 1.91770 5.79104 4.31357
#
# Compressibility (1/GPa) = 0.03431847
#
# Stress axis : x y z
#
# Youngs Moduli (GPa) = 69.70413 33.14257 64.71113
#
# Poissons Ratio (x) = -0.20553 0.42816
# Poissons Ratio (y) = -0.43227 0.80319
# Poissons Ratio (z) = 0.46120 0.41136
#
# Static dielectric constant tensor:
#      x y z
#    x 1.736350 0.000000 0.000000 
#    y 0.000000 1.721420 0.000000 
#    z 0.000000 0.000000 1.751550 
# 
# From -- ./inp_files/2818.got.cif
#   From: 2010.05.17/outbox.cif.g08.bks.cpg/sg41_2_cif.got.tgz:2818.got - 2010.06.03 18:54:24.
