data_PCOD9367240
_publ_section_title
;
Structure prediction by ZEFSAII (Michael W. Deem and Ramdas Pophale) SiO2 
 PCOD9367240
Probable space group: A B A 2
;
_chemical_formula_sum "Si O2"
_cell_formula_units_Z 48
_cell_length_a 11.768213
_cell_length_b 17.528041
_cell_length_c 10.151638
_cell_angle_alpha 90.000000
_cell_angle_beta 90.000000
_cell_angle_gamma 90.000000
_cell_volume 2094.016134
_symmetry_space_group_name_H-M "A B A 2"
_symmetry_group_IT_number 41
_symmetry_cell_setting 'orthorhombic'
loop_
_space_group_symop_operation_xyz
x,y,z
-x,-y,z
1/2-x,y,1/2+z
1/2+x,-y,1/2+z
x,1/2+y,1/2+z
-x,1/2-y,1/2+z
1/2-x,1/2+y,z
1/2+x,1/2-y,z
loop_
_atom_site_type_symbol
_atom_site_label
_atom_site_fract_x
_atom_site_fract_y
_atom_site_fract_z
Si Si1 0.205771 0.157368 0.481360
Si Si2 0.675759 0.747442 0.716343
Si Si3 0.386331 0.039079 0.533860
Si Si4 0.471427 0.332857 0.165311
Si Si5 0.754895 0.603928 0.607848
Si Si6 0.467966 0.412839 0.434203
O O1 0.251965 0.206510 0.604970
O O2 0.196777 0.210503 0.353149
O O3 0.295001 0.087996 0.451780
O O4 0.081534 0.120732 0.502175
O O5 0.544457 0.756756 0.670753
O O6 0.705845 0.658363 0.721517
O O7 0.439653 0.101798 0.628180
O O8 0.500000 0.000000 0.470458
O O9 0.317072 0.977079 0.619111
O O10 0.365350 0.344134 0.068706
O O11 0.439518 0.357384 0.312137
O O12 0.646805 0.588971 0.517933
O O13 0.500000 0.500000 0.396531
#
# Coordination Sequence:
#
# PCOD9367240 Si02
#       6
#     8   8   8   8   8   8
#     4  10  22  45  64  96 142 178 218 284 354 403
#     4  10  24  42  66  94 138 182 217 278 350 417
#     4   9  18  41  69  95 132 180 234 281 345 411
#     4   9  22  43  64  88 136 187 216 283 364 410
#     4  11  22  37  65  99 122 174 238 273 330 425
#     4  11  21  39  67  96 129 172 232 290 342 404
#
# _framework density 22.922459
#
# number of rings (size 3 to 8) (size 9 to 14) (size 15 to 20)
#    0.000    2.000    1.667    1.500    4.667    0.000 
#    0.000    5.833    0.000    0.000    0.000    0.000 
#    0.000    0.000    0.000    0.000    0.000    0.000 
#
# Total GULP energy -133680.533154 kJ/mol
# GULP energy per Si atom -5570.022215 kJ/mol
# Density = 2.287029 g / cm^3
# Si number density = 22.922459 Si / 1000 Ang^3
#
#
#
# Elastic Constant Matrix: (Units=GPa)
#
#
# Indices 1 2 3 4 5 6 
#
# 1 160.7549 47.1353 24.8955 0.0000 0.0000 0.0000
# 2 47.1353 97.8537 6.8669 0.0000 0.0000 0.0000
# 3 24.8955 6.8669 35.6800 0.0000 0.0000 0.0000
# 4 0.0000 0.0000 0.0000 21.2439 0.0000 0.0000
# 5 0.0000 0.0000 0.0000 0.0000 14.6150 0.0000
# 6 0.0000 0.0000 0.0000 0.0000 0.0000 46.4502
#
#
#
# Elastic Compliance Matrix: (Units=1/GPa)
#
#
# Indices 1 2 3 4 5 6 
#
# 1 0.008012 -0.003515 -0.004914 0.000000 0.000000 0.000000
# 2 -0.003515 0.011901 0.000162 0.000000 0.000000 0.000000
# 3 -0.004914 0.000162 0.031424 0.000000 0.000000 0.000000
# 4 0.000000 0.000000 0.000000 0.047072 0.000000 0.000000
# 5 0.000000 0.000000 0.000000 0.000000 0.068423 0.000000
# 6 0.000000 0.000000 0.000000 0.000000 0.000000 0.021528
#
#
# Mechanical properties :
#
#
# Convention : Reuss Voigt Hill
#
# Bulk Modulus (GPa) = 28.73230 50.23156 39.48193
# Shear Modulus (GPa) = 23.09510 30.82122 26.95816
#
# Velocity S-wave (km/s) = 3.17761 3.67084 3.43309
# Velocity P-wave (km/s) = 5.10144 6.31886 5.74250
#
# Compressibility (1/GPa) = 0.03480403
#
# Stress axis : x y z
#
# Youngs Moduli (GPa) = 124.81006 84.02717 31.82236
#
# Poissons Ratio (x) = 0.29532 0.15638
# Poissons Ratio (y) = 0.43865 -0.00515
# Poissons Ratio (z) = 0.61332 -0.01360
#
# Static dielectric constant tensor:
#      x y z
#    x 1.951840 0.000000 0.000000 
#    y 0.000000 1.900110 0.000000 
#    z 0.000000 0.000000 1.855870 
# 
# From -- ./inp_files/4991.got.cif
#   From: 2010.05.17/outbox.cif.g08.bks.cpg/sg41_3_cif.got.tgz:4991.got - 2010.06.03 18:54:24.
