data_PCOD9367556
_publ_section_title
;
Structure prediction by ZEFSAII (Michael W. Deem and Ramdas Pophale) SiO2 
 PCOD9367556
Probable space group: A B A 2
;
_chemical_formula_sum "Si O2"
_cell_formula_units_Z 36
_cell_length_a 18.267250
_cell_length_b 13.988780
_cell_length_c 5.465252
_cell_angle_alpha 90.000000
_cell_angle_beta 90.000000
_cell_angle_gamma 90.000000
_cell_volume 1396.571594
_symmetry_space_group_name_H-M "A B A 2"
_symmetry_group_IT_number 41
_symmetry_cell_setting 'orthorhombic'
loop_
_space_group_symop_operation_xyz
x,y,z
-x,-y,z
1/2-x,y,1/2+z
1/2+x,-y,1/2+z
x,1/2+y,1/2+z
-x,1/2-y,1/2+z
1/2-x,1/2+y,z
1/2+x,1/2-y,z
loop_
_atom_site_type_symbol
_atom_site_label
_atom_site_fract_x
_atom_site_fract_y
_atom_site_fract_z
Si Si1 0.431544 0.147112 0.318440
Si Si2 0.000000 0.000000 0.453695
Si Si3 0.776704 0.623815 0.531941
Si Si4 0.568321 0.637675 0.148834
Si Si5 0.226458 0.591486 0.175863
O O1 0.473842 0.090366 0.107376
O O2 0.425740 0.259624 0.272871
O O3 0.486300 0.132435 0.543018
O O4 0.351423 0.102199 0.310853
O O5 0.930101 0.043351 0.313769
O O6 0.733175 0.668033 0.304053
O O7 0.748264 0.517403 0.603566
O O8 0.721847 0.867924 0.896261
O O9 0.637221 0.628484 0.968691
#
# Coordination Sequence:
#
# PCOD9367556 Si02
#       5
#     8   4   8   8   8
#     4  12  28  48  79 117 159 211 273 333 404 483
#     4  12  26  48  76 108 160 208 264 332 402 470
#     4  10  24  45  73 110 152 207 263 321 403 473
#     4  12  28  48  79 117 159 211 273 333 404 483
#     4  10  24  45  73 110 152 207 263 321 403 473
#
# _framework density 25.777408999999999
#
# number of rings (size 3 to 8) (size 9 to 14) (size 15 to 20)
#    0.000    0.889    2.222    3.333   18.667    1.778 
#    0.000    0.000    0.000    0.000    0.000    0.000 
#    0.000    0.000    0.000    0.000    0.000    0.000 
#
# Total GULP energy -100489.407525 kJ/mol
# GULP energy per Si atom -5582.744863 kJ/mol
# Density = 2.571874 g / cm^3
# Si number density = 25.777409 Si / 1000 Ang^3
#
#
#
# Elastic Constant Matrix: (Units=GPa)
#
#
# Indices 1 2 3 4 5 6 
#
# 1 101.6063 8.6673 -1.9930 0.0000 0.0000 0.0000
# 2 8.6673 128.3364 6.5499 0.0000 0.0000 0.0000
# 3 -1.9930 6.5499 125.4978 0.0000 0.0000 0.0000
# 4 0.0000 0.0000 0.0000 22.6110 0.0000 0.0000
# 5 0.0000 0.0000 0.0000 0.0000 41.5003 0.0000
# 6 0.0000 0.0000 0.0000 0.0000 0.0000 37.3111
#
#
#
# Elastic Compliance Matrix: (Units=1/GPa)
#
#
# Indices 1 2 3 4 5 6 
#
# 1 0.009904 -0.000679 0.000193 0.000000 0.000000 0.000000
# 2 -0.000679 0.007859 -0.000421 0.000000 0.000000 0.000000
# 3 0.000193 -0.000421 0.007993 0.000000 0.000000 0.000000
# 4 0.000000 0.000000 0.000000 0.044226 0.000000 0.000000
# 5 0.000000 0.000000 0.000000 0.000000 0.024096 0.000000
# 6 0.000000 0.000000 0.000000 0.000000 0.000000 0.026802
#
#
# Mechanical properties :
#
#
# Convention : Reuss Voigt Hill
#
# Bulk Modulus (GPa) = 41.76704 42.43210 42.09957
# Shear Modulus (GPa) = 38.26285 43.09890 40.68087
#
# Velocity S-wave (km/s) = 3.85691 4.09340 3.97692
# Velocity P-wave (km/s) = 6.00604 6.23201 6.12007
#
# Compressibility (1/GPa) = 0.02394232
#
# Stress axis : x y z
#
# Youngs Moduli (GPa) = 100.97354 127.23709 125.10480
#
# Poissons Ratio (x) = 0.08635 -0.02411
# Poissons Ratio (y) = 0.06853 0.05266
# Poissons Ratio (z) = -0.01946 0.05356
#
# Static dielectric constant tensor:
#      x y z
#    x 2.053020 0.000000 0.000000 
#    y 0.000000 2.067440 0.000000 
#    z 0.000000 0.000000 2.276190 
# 
# From -- ./inp_files/1077.got.cif
#   From: 2010.05.17/outbox.cif.g08.bks.cpg/sg41_1_cif.got.tgz:1077.got - 2010.06.03 18:54:24.
