data_PCOD9367568
_publ_section_title
;
Structure prediction by ZEFSAII (Michael W. Deem and Ramdas Pophale) SiO2 
 PCOD9367568
Probable space group: A B A 2
;
_chemical_formula_sum "Si O2"
_cell_formula_units_Z 60
_cell_length_a 10.495729
_cell_length_b 8.025420
_cell_length_c 26.658430
_cell_angle_alpha 90.000000
_cell_angle_beta 90.000000
_cell_angle_gamma 90.000000
_cell_volume 2245.509762
_symmetry_space_group_name_H-M "A B A 2"
_symmetry_group_IT_number 41
_symmetry_cell_setting 'orthorhombic'
loop_
_space_group_symop_operation_xyz
x,y,z
-x,-y,z
1/2-x,y,1/2+z
1/2+x,-y,1/2+z
x,1/2+y,1/2+z
-x,1/2-y,1/2+z
1/2-x,1/2+y,z
1/2+x,1/2-y,z
loop_
_atom_site_type_symbol
_atom_site_label
_atom_site_fract_x
_atom_site_fract_y
_atom_site_fract_z
Si Si1 0.823519 0.723549 0.946520
Si Si2 0.847802 0.911474 0.783295
Si Si3 0.500000 0.500000 0.381809
Si Si4 0.826683 0.224048 0.848941
Si Si5 0.250381 0.526203 0.520066
Si Si6 0.688885 0.125310 0.714360
Si Si7 0.887440 0.724388 0.585052
Si Si8 0.138944 0.683567 0.649326
O O1 0.707852 0.695150 0.907104
O O2 0.938125 0.639797 0.917337
O O3 0.820159 0.636198 0.000412
O O4 0.816094 0.908533 0.968802
O O5 0.889981 0.078778 0.815142
O O6 0.724782 0.994428 0.757016
O O7 0.807612 0.779391 0.825074
O O8 0.889043 0.783628 0.737335
O O9 0.594994 0.393707 0.348727
O O10 0.150486 0.456088 0.561260
O O11 0.361615 0.646780 0.539766
O O12 0.827552 0.191299 0.695247
O O13 0.632040 0.003965 0.671560
O O14 0.020901 0.734497 0.614217
O O15 0.773591 0.788231 0.621085
#
# Coordination Sequence:
#
# PCOD9367568 Si02
#       8
#     8   8   4   8   8   8   8   8
#     4  11  22  46  68 107 152 206 255 328 386 472
#     4   9  19  41  76 107 159 187 250 326 389 484
#     4  12  24  38  76 110 142 224 256 320 398 466
#     4  11  20  42  74 107 160 199 259 323 388 486
#     4  10  24  46  71 109 152 204 269 330 404 468
#     4   9  21  42  76 109 147 202 243 329 408 494
#     4  11  26  46  74 110 152 208 267 337 395 492
#     4  11  24  47  73 109 153 203 264 329 420 480
#
# _framework density 26.719989999999999
#
# number of rings (size 3 to 8) (size 9 to 14) (size 15 to 20)
#    0.000    1.600    2.667    0.800    0.000    6.400 
#    2.400   10.000    8.800    0.000    0.000    0.000 
#    0.000    0.000    0.000    0.000    0.000    0.000 
#
# Total GULP energy -167134.317280 kJ/mol
# GULP energy per Si atom -5571.143909 kJ/mol
# Density = 2.665917 g / cm^3
# Si number density = 26.719990 Si / 1000 Ang^3
#
#
#
# Elastic Constant Matrix: (Units=GPa)
#
#
# Indices 1 2 3 4 5 6 
#
# 1 107.0454 31.7412 49.6050 0.0000 0.0000 0.0000
# 2 31.7412 122.2686 60.7341 0.0000 0.0000 0.0000
# 3 49.6050 60.7341 142.0497 0.0000 0.0000 0.0000
# 4 0.0000 0.0000 0.0000 71.9304 0.0000 0.0000
# 5 0.0000 0.0000 0.0000 0.0000 -21.4579 0.0000
# 6 0.0000 0.0000 0.0000 0.0000 0.0000 32.2522
#
#
#
# Elastic Compliance Matrix: (Units=1/GPa)
#
#
# Indices 1 2 3 4 5 6 
#
# 1 0.011290 -0.001235 -0.003415 0.000000 0.000000 0.000000
# 2 -0.001235 0.010519 -0.004066 0.000000 0.000000 0.000000
# 3 -0.003415 -0.004066 0.009971 0.000000 0.000000 0.000000
# 4 0.000000 0.000000 0.000000 0.013902 0.000000 0.000000
# 5 0.000000 0.000000 0.000000 0.000000 -0.046603 0.000000
# 6 0.000000 0.000000 0.000000 0.000000 0.000000 0.031006
#
#
# Mechanical properties :
#
#
# Convention : Reuss Voigt Hill
#
# Bulk Modulus (GPa) = 69.69321 72.83603 71.26462
# Shear Modulus (GPa) = 95.60241 31.83052 63.71646
#
# Velocity S-wave (km/s) = 5.98807 3.45521 4.88853
# Velocity P-wave (km/s) = 8.59935 6.57542 7.65457
#
# Compressibility (1/GPa) = 0.01434860
#
# Stress axis : x y z
#
# Youngs Moduli (GPa) = 88.57102 95.06503 100.29266
#
# Poissons Ratio (x) = 0.11739 0.34247
# Poissons Ratio (y) = 0.10937 0.40782
# Poissons Ratio (z) = 0.30245 0.38656
#
# Static dielectric constant tensor:
#      x y z
#    x 2.180960 0.000000 0.000000 
#    y 0.000000 2.475350 0.000000 
#    z 0.000000 0.000000 2.228070 
# 
# From -- ./inp_files/2849.got.cif
#   From: 2010.05.17/outbox.cif.g08.bks.cpg/sg41_2_cif.got.tgz:2849.got - 2010.06.03 18:54:24.
