data_PCOD9367823
_publ_section_title
;
Structure prediction by ZEFSAII (Michael W. Deem and Ramdas Pophale) SiO2 
 PCOD9367823
Probable space group: A B A 2
;
_chemical_formula_sum "Si O2"
_cell_formula_units_Z 56
_cell_length_a 13.989771
_cell_length_b 12.989655
_cell_length_c 11.706527
_cell_angle_alpha 90.000000
_cell_angle_beta 90.000000
_cell_angle_gamma 90.000000
_cell_volume 2127.336998
_symmetry_space_group_name_H-M "A B A 2"
_symmetry_group_IT_number 41
_symmetry_cell_setting 'orthorhombic'
loop_
_space_group_symop_operation_xyz
x,y,z
-x,-y,z
1/2-x,y,1/2+z
1/2+x,-y,1/2+z
x,1/2+y,1/2+z
-x,1/2-y,1/2+z
1/2-x,1/2+y,z
1/2+x,1/2-y,z
loop_
_atom_site_type_symbol
_atom_site_label
_atom_site_fract_x
_atom_site_fract_y
_atom_site_fract_z
Si Si1 0.500000 0.500000 0.864560
Si Si2 0.293027 0.165620 0.908248
Si Si3 0.000000 0.000000 0.226108
Si Si4 0.125189 0.975347 0.660930
Si Si5 0.571186 0.788948 0.097313
Si Si6 0.271460 0.317502 0.243583
Si Si7 0.869798 0.063843 0.411562
Si Si8 0.401464 0.641458 0.049916
O O1 0.426225 0.446905 0.778237
O O2 0.450775 0.586203 0.940938
O O3 0.282375 0.212883 0.780864
O O4 0.317296 0.044927 0.897005
O O5 0.384511 0.213449 0.970759
O O6 0.204071 0.166711 0.000804
O O7 0.078882 0.055449 0.147681
O O8 0.951285 0.075144 0.317588
O O9 0.101781 0.097415 0.646653
O O10 0.223774 0.913726 0.678783
O O11 0.091058 0.933864 0.538442
O O12 0.637004 0.714352 0.172243
O O13 0.465934 0.738206 0.090998
O O14 0.294162 0.352331 0.373639
#
# Coordination Sequence:
#
# PCOD9367823 Si02
#       8
#     4   8   4   8   8   8   8   8
#     4  11  23  46  70 100 145 207 252 326 384 477
#     4  11  27  45  76 110 154 201 269 326 401 487
#     4  11  25  46  78 110 159 209 268 336 402 485
#     4  11  26  44  71 106 157 195 266 323 404 476
#     4  11  25  46  71 109 151 199 258 326 391 483
#     4  12  23  44  71 108 145 206 253 330 395 479
#     4  11  25  46  72 110 155 203 262 328 401 481
#     4  11  25  47  77 109 153 207 268 328 406 480
#
# _framework density 26.323990999999999
#
# number of rings (size 3 to 8) (size 9 to 14) (size 15 to 20)
#    0.000    0.857    1.429    4.714    6.000    5.714 
#    5.143    0.000    0.000    0.000    0.000    0.000 
#    0.000    0.000    0.000    0.000    0.000    0.000 
#
# Total GULP energy -156421.642826 kJ/mol
# GULP energy per Si atom -5586.487244 kJ/mol
# Density = 2.626408 g / cm^3
# Si number density = 26.323991 Si / 1000 Ang^3
#
#
#
# Elastic Constant Matrix: (Units=GPa)
#
#
# Indices 1 2 3 4 5 6 
#
# 1 86.7121 33.9232 20.9093 0.0000 0.0000 0.0000
# 2 33.9232 94.2687 33.4948 0.0000 0.0000 0.0000
# 3 20.9093 33.4948 139.7776 0.0000 0.0000 0.0000
# 4 0.0000 0.0000 0.0000 39.4201 0.0000 0.0000
# 5 0.0000 0.0000 0.0000 0.0000 -404.4965 0.0000
# 6 0.0000 0.0000 0.0000 0.0000 0.0000 41.1205
#
#
#
# Elastic Compliance Matrix: (Units=1/GPa)
#
#
# Indices 1 2 3 4 5 6 
#
# 1 0.013533 -0.004537 -0.000937 0.000000 0.000000 0.000000
# 2 -0.004537 0.013116 -0.002464 0.000000 0.000000 0.000000
# 3 -0.000937 -0.002464 0.007885 0.000000 0.000000 0.000000
# 4 0.000000 0.000000 0.000000 0.025368 0.000000 0.000000
# 5 0.000000 0.000000 0.000000 0.000000 -0.002472 0.000000
# 6 0.000000 0.000000 0.000000 0.000000 0.000000 0.024319
#
#
# Mechanical properties :
#
#
# Convention : Reuss Voigt Hill
#
# Bulk Modulus (GPa) = 53.59829 55.26812 54.43321
# Shear Modulus (GPa) = 48.14851 -49.29577 -0.57363
#
# Velocity S-wave (km/s) = 4.28141 -4.33211 -0.46732
# Velocity P-wave (km/s) = 6.69670 1.99550 4.52016
#
# Compressibility (1/GPa) = 0.01865731
#
# Stress axis : x y z
#
# Youngs Moduli (GPa) = 73.89132 76.24111 126.82386
#
# Poissons Ratio (x) = 0.34591 0.11887
# Poissons Ratio (y) = 0.33525 0.31254
# Poissons Ratio (z) = 0.06925 0.18788
#
# Static dielectric constant tensor:
#      x y z
#    x 3.674790 0.000000 0.000000 
#    y 0.000000 2.118830 0.000000 
#    z 0.000000 0.000000 2.004380 
# 
# From -- ./inp_files/5620.got.cif
#   From: 2010.05.17/outbox.cif.g08.bks.cpg/sg41_3_cif.got.tgz:5620.got - 2010.06.03 18:54:24.
