data_PCOD9367671
_publ_section_title
;
Structure prediction by ZEFSAII (Michael W. Deem and Ramdas Pophale) SiO2 
 PCOD9367671
Probable space group: A B A 2
;
_chemical_formula_sum "Si O2"
_cell_formula_units_Z 24
_cell_length_a 9.451294
_cell_length_b 11.447834
_cell_length_c 8.517707
_cell_angle_alpha 90.000000
_cell_angle_beta 90.000000
_cell_angle_gamma 90.000000
_cell_volume 921.589022
_symmetry_space_group_name_H-M "A B A 2"
_symmetry_group_IT_number 41
_symmetry_cell_setting 'orthorhombic'
loop_
_space_group_symop_operation_xyz
x,y,z
-x,-y,z
1/2-x,y,1/2+z
1/2+x,-y,1/2+z
x,1/2+y,1/2+z
-x,1/2-y,1/2+z
1/2-x,1/2+y,z
1/2+x,1/2-y,z
loop_
_atom_site_type_symbol
_atom_site_label
_atom_site_fract_x
_atom_site_fract_y
_atom_site_fract_z
Si Si1 0.149944 0.042767 0.977100
Si Si2 0.408042 0.885838 0.045721
Si Si3 0.133236 0.684272 0.790143
O O1 0.224968 0.148439 0.883472
O O2 0.125323 0.086276 0.154666
O O3 0.000000 0.000000 0.918124
O O4 0.262110 0.937236 0.978996
O O5 0.374712 0.802408 0.191027
O O6 0.500000 0.000000 0.087953
O O7 0.506793 0.824497 0.915251
#
# Coordination Sequence:
#
# PCOD9367671 Si02
#       3
#     8   8   8
#     4  11  26  49  79 119 164 210 265 335 407 482
#     4  10  26  54  82 117 159 212 273 335 400 479
#     4  11  27  51  83 116 160 218 273 330 402 479
#
# _framework density 26.041979000000001
#
# number of rings (size 3 to 8) (size 9 to 14) (size 15 to 20)
#    0.000    1.333    0.000    3.000    0.000   25.333 
#    0.000   11.667    0.000    0.000    0.000    0.000 
#    0.000    0.000    0.000    0.000    0.000    0.000 
#
# Total GULP energy -67376.103898 kJ/mol
# GULP energy per Si atom -5614.675325 kJ/mol
# Density = 2.598271 g / cm^3
# Si number density = 26.041979 Si / 1000 Ang^3
#
#
#
# Elastic Constant Matrix: (Units=GPa)
#
#
# Indices 1 2 3 4 5 6 
#
# 1 277.7926 121.9939 96.4989 0.0000 0.0000 0.0000
# 2 121.9939 150.3873 84.7905 0.0000 0.0000 0.0000
# 3 96.4989 84.7905 188.5611 0.0000 0.0000 0.0000
# 4 0.0000 0.0000 0.0000 99.7422 0.0000 0.0000
# 5 0.0000 0.0000 0.0000 0.0000 -2.3893 0.0000
# 6 0.0000 0.0000 0.0000 0.0000 0.0000 36.3345
#
#
#
# Elastic Compliance Matrix: (Units=1/GPa)
#
#
# Indices 1 2 3 4 5 6 
#
# 1 0.005768 -0.004039 -0.001136 0.000000 0.000000 0.000000
# 2 -0.004039 0.011736 -0.003210 0.000000 0.000000 0.000000
# 3 -0.001136 -0.003210 0.007328 0.000000 0.000000 0.000000
# 4 0.000000 0.000000 0.000000 0.010026 0.000000 0.000000
# 5 0.000000 0.000000 0.000000 0.000000 -0.418533 0.000000
# 6 0.000000 0.000000 0.000000 0.000000 0.000000 0.027522
#
#
# Mechanical properties :
#
#
# Convention : Reuss Voigt Hill
#
# Bulk Modulus (GPa) = 124.03440 135.92305 129.97872
# Shear Modulus (GPa) = -14.85018 47.63466 16.39224
#
# Velocity S-wave (km/s) = -2.39056 4.28150 2.51162
# Velocity P-wave (km/s) = 6.33343 8.76064 7.64399
#
# Compressibility (1/GPa) = 0.00806228
#
# Stress axis : x y z
#
# Youngs Moduli (GPa) = 173.37349 85.21080 136.45915
#
# Poissons Ratio (x) = 0.34413 0.15499
# Poissons Ratio (y) = 0.70017 0.43809
# Poissons Ratio (z) = 0.19692 0.27356
#
# Static dielectric constant tensor:
#      x y z
#    x 2.004960 0.000000 0.000000 
#    y 0.000000 2.065890 0.000000 
#    z 0.000000 0.000000 2.036650 
# 
# From -- ./inp_files/1585.got.cif
#   From: 2010.05.17/outbox.cif.g08.bks.cpg/sg41_1_cif.got.tgz:1585.got - 2010.06.03 18:54:24.
