data_PCOD9367194
_publ_section_title
;
Structure prediction by ZEFSAII (Michael W. Deem and Ramdas Pophale) SiO2 
 PCOD9367194
Probable space group: A B A 2
;
_chemical_formula_sum "Si O2"
_cell_formula_units_Z 60
_cell_length_a 25.218072
_cell_length_b 7.148455
_cell_length_c 12.736979
_cell_angle_alpha 90.000000
_cell_angle_beta 90.000000
_cell_angle_gamma 90.000000
_cell_volume 2296.098425
_symmetry_space_group_name_H-M "A B A 2"
_symmetry_group_IT_number 41
_symmetry_cell_setting 'orthorhombic'
loop_
_space_group_symop_operation_xyz
x,y,z
-x,-y,z
1/2-x,y,1/2+z
1/2+x,-y,1/2+z
x,1/2+y,1/2+z
-x,1/2-y,1/2+z
1/2-x,1/2+y,z
1/2+x,1/2-y,z
loop_
_atom_site_type_symbol
_atom_site_label
_atom_site_fract_x
_atom_site_fract_y
_atom_site_fract_z
Si Si1 0.426791 0.397641 0.212050
Si Si2 0.675902 0.237141 0.610068
Si Si3 0.822188 0.302848 0.538979
Si Si4 0.221043 0.107836 0.412871
Si Si5 0.278365 0.333183 0.743246
Si Si6 0.460184 0.289726 0.666217
Si Si7 0.500000 0.000000 0.353597
Si Si8 0.069740 0.319529 0.947387
O O1 0.377664 0.270302 0.177057
O O2 0.423742 0.604730 0.163434
O O3 0.480529 0.297254 0.173875
O O4 0.430736 0.428215 0.337602
O O5 0.681328 0.380135 0.512592
O O6 0.725953 0.258995 0.687915
O O7 0.680705 0.022452 0.568653
O O8 0.769505 0.278541 0.468542
O O9 0.815855 0.171245 0.641437
O O10 0.871612 0.258169 0.466376
O O11 0.187384 0.212505 0.324354
O O12 0.252675 0.975201 0.328792
O O13 0.457561 0.408111 0.772931
O O14 0.447840 0.401010 0.559674
O O15 0.471310 0.151983 0.424183
#
# Coordination Sequence:
#
# PCOD9367194 Si02
#       8
#     8   8   8   8   8   8   4   8
#     4  10  22  44  69 100 138 181 231 290 348 421
#     4  11  22  41  66  99 131 179 235 289 352 428
#     4  11  23  39  68  97 137 175 238 286 357 425
#     4  11  23  42  65  92 134 185 229 288 361 407
#     4  11  23  42  64  94 133 182 228 294 345 427
#     4  10  22  43  70  99 141 179 230 286 346 433
#     4  10  24  42  70 102 140 182 228 290 356 420
#     4  11  23  44  69 102 138 186 225 292 357 416
#
# _framework density 26.131283
#
# number of rings (size 3 to 8) (size 9 to 14) (size 15 to 20)
#    0.000    1.333    4.000    1.600    0.000    3.200 
#    2.400    6.667    0.000    0.000    0.000    0.000 
#    0.000    0.000    0.000    0.000    0.000    0.000 
#
# Total GULP energy -167243.679804 kJ/mol
# GULP energy per Si atom -5574.789327 kJ/mol
# Density = 2.607181 g / cm^3
# Si number density = 26.131283 Si / 1000 Ang^3
#
#
#
# Elastic Constant Matrix: (Units=GPa)
#
#
# Indices 1 2 3 4 5 6 
#
# 1 82.0866 -6.1272 23.1759 0.0000 0.0000 0.0000
# 2 -6.1272 61.7821 52.7986 0.0000 0.0000 0.0000
# 3 23.1759 52.7986 212.1220 0.0000 0.0000 0.0000
# 4 0.0000 0.0000 0.0000 45.0739 0.0000 0.0000
# 5 0.0000 0.0000 0.0000 0.0000 50.2522 0.0000
# 6 0.0000 0.0000 0.0000 0.0000 0.0000 29.2214
#
#
#
# Elastic Compliance Matrix: (Units=1/GPa)
#
#
# Indices 1 2 3 4 5 6 
#
# 1 0.013047 0.003191 -0.002220 0.000000 0.000000 0.000000
# 2 0.003191 0.021340 -0.005660 0.000000 0.000000 0.000000
# 3 -0.002220 -0.005660 0.006366 0.000000 0.000000 0.000000
# 4 0.000000 0.000000 0.000000 0.022186 0.000000 0.000000
# 5 0.000000 0.000000 0.000000 0.000000 0.019900 0.000000
# 6 0.000000 0.000000 0.000000 0.000000 0.000000 0.034222
#
#
# Mechanical properties :
#
#
# Convention : Reuss Voigt Hill
#
# Bulk Modulus (GPa) = 31.87324 55.07615 43.47470
# Shear Modulus (GPa) = 36.52424 43.98572 40.25498
#
# Velocity S-wave (km/s) = 3.74267 4.10720 3.92917
# Velocity P-wave (km/s) = 5.55883 6.60414 6.10390
#
# Compressibility (1/GPa) = 0.03137428
#
# Stress axis : x y z
#
# Youngs Moduli (GPa) = 76.64518 46.86140 157.09321
#
# Poissons Ratio (x) = -0.14953 0.34870
# Poissons Ratio (y) = -0.24457 0.88918
# Poissons Ratio (z) = 0.17013 0.26524
#
# Static dielectric constant tensor:
#      x y z
#    x 1.997900 0.000000 0.000000 
#    y 0.000000 2.278980 0.000000 
#    z 0.000000 0.000000 1.980860 
# 
# From -- ./inp_files/6566.got.cif
#   From: 2010.05.17/outbox.cif.g08.bks.cpg/sg41_4_cif.got.tgz:6566.got - 2010.06.03 18:54:24.
