data_PCOD9367969
_publ_section_title
;
Structure prediction by ZEFSAII (Michael W. Deem and Ramdas Pophale) SiO2 
 PCOD9367969
Probable space group: A B A 2
;
_chemical_formula_sum "Si O2"
_cell_formula_units_Z 52
_cell_length_a 19.050834
_cell_length_b 8.795982
_cell_length_c 14.316068
_cell_angle_alpha 90.000000
_cell_angle_beta 90.000000
_cell_angle_gamma 90.000000
_cell_volume 2398.954867
_symmetry_space_group_name_H-M "A B A 2"
_symmetry_group_IT_number 41
_symmetry_cell_setting 'orthorhombic'
loop_
_space_group_symop_operation_xyz
x,y,z
-x,-y,z
1/2-x,y,1/2+z
1/2+x,-y,1/2+z
x,1/2+y,1/2+z
-x,1/2-y,1/2+z
1/2-x,1/2+y,z
1/2+x,1/2-y,z
loop_
_atom_site_type_symbol
_atom_site_label
_atom_site_fract_x
_atom_site_fract_y
_atom_site_fract_z
Si Si1 0.790277 0.114132 0.947330
Si Si2 0.709644 0.826274 0.330667
Si Si3 0.500000 0.500000 0.380353
Si Si4 0.696821 0.557028 0.610059
Si Si5 0.090155 0.349389 0.718943
Si Si6 0.589118 0.825949 0.035163
Si Si7 0.189582 0.619601 0.697502
O O1 0.720086 0.200687 0.912385
O O2 0.814210 0.984291 0.875891
O O3 0.757754 0.025870 0.035505
O O4 0.850659 0.219913 0.989725
O O5 0.654878 0.750593 0.258877
O O6 0.793724 0.822502 0.301994
O O7 0.457470 0.392300 0.307617
O O8 0.541249 0.388377 0.451581
O O9 0.627246 0.473130 0.579594
O O10 0.736468 0.473546 0.694982
O O11 0.687947 0.732518 0.634006
O O12 0.059670 0.266099 0.626372
O O13 0.124999 0.509009 0.687870
#
# Coordination Sequence:
#
# PCOD9367969 Si02
#       7
#     8   8   4   8   8   8   8
#     4  12  21  36  67 111 149 178 222 299 385 448
#     4  12  21  36  67 111 149 178 222 299 385 448
#     4  12  32  56  70  98 156 208 266 310 352 430
#     4  12  20  38  70 110 145 174 227 302 382 446
#     4  12  26  50  75 102 147 203 252 305 372 452
#     4  12  26  50  75 102 147 203 252 305 372 452
#     4  12  20  38  70 110 145 174 227 302 382 446
#
# _framework density 21.676106000000001
#
# number of rings (size 3 to 8) (size 9 to 14) (size 15 to 20)
#    0.000    0.000    9.231    1.846    0.000    1.231 
#    5.538    0.000    0.000    0.000    0.000    0.000 
#    0.000    0.000    0.000    0.000    0.000    0.000 
#
# Total GULP energy -144915.547337 kJ/mol
# GULP energy per Si atom -5573.674898 kJ/mol
# Density = 2.162677 g / cm^3
# Si number density = 21.676106 Si / 1000 Ang^3
#
#
#
# Elastic Constant Matrix: (Units=GPa)
#
#
# Indices 1 2 3 4 5 6 
#
# 1 48.3195 28.8091 39.9104 0.0000 0.0000 0.0000
# 2 28.8091 139.2453 40.9527 0.0000 0.0000 0.0000
# 3 39.9104 40.9527 114.2482 0.0000 0.0000 0.0000
# 4 0.0000 0.0000 0.0000 25.1038 0.0000 0.0000
# 5 0.0000 0.0000 0.0000 0.0000 50.9096 0.0000
# 6 0.0000 0.0000 0.0000 0.0000 0.0000 11.8688
#
#
#
# Elastic Compliance Matrix: (Units=1/GPa)
#
#
# Indices 1 2 3 4 5 6 
#
# 1 0.030591 -0.003562 -0.009410 0.000000 0.000000 0.000000
# 2 -0.003562 0.008443 -0.001782 0.000000 0.000000 0.000000
# 3 -0.009410 -0.001782 0.012679 0.000000 0.000000 0.000000
# 4 0.000000 0.000000 0.000000 0.039835 0.000000 0.000000
# 5 0.000000 0.000000 0.000000 0.000000 0.019643 0.000000
# 6 0.000000 0.000000 0.000000 0.000000 0.000000 0.084254
#
#
# Mechanical properties :
#
#
# Convention : Reuss Voigt Hill
#
# Bulk Modulus (GPa) = 45.03373 57.90638 51.47005
# Shear Modulus (GPa) = 21.51896 30.38582 25.95239
#
# Velocity S-wave (km/s) = 3.15421 3.74814 3.46393
# Velocity P-wave (km/s) = 5.83834 6.74565 6.30833
#
# Compressibility (1/GPa) = 0.02220558
#
# Stress axis : x y z
#
# Youngs Moduli (GPa) = 32.68905 118.44710 78.87195
#
# Poissons Ratio (x) = 0.42187 0.74217
# Poissons Ratio (y) = 0.11643 0.14056
# Poissons Ratio (z) = 0.30760 0.21108
#
# Static dielectric constant tensor:
#      x y z
#    x 1.773250 0.000000 0.000000 
#    y 0.000000 1.784860 0.000000 
#    z 0.000000 0.000000 1.876140 
# 
# From -- ./inp_files/8971.got.cif
#   From: 2010.05.17/outbox.cif.g08.bks.cpg/sg41_5_cif.got.tgz:8971.got - 2010.06.03 18:54:24.
