data_PCOD9367646
_publ_section_title
;
Structure prediction by ZEFSAII (Michael W. Deem and Ramdas Pophale) SiO2 
 PCOD9367646
Probable space group: A B A 2
;
_chemical_formula_sum "Si O2"
_cell_formula_units_Z 40
_cell_length_a 4.986634
_cell_length_b 29.088912
_cell_length_c 10.722590
_cell_angle_alpha 90.000000
_cell_angle_beta 90.000000
_cell_angle_gamma 90.000000
_cell_volume 1555.373416
_symmetry_space_group_name_H-M "A B A 2"
_symmetry_group_IT_number 41
_symmetry_cell_setting 'orthorhombic'
loop_
_space_group_symop_operation_xyz
x,y,z
-x,-y,z
1/2-x,y,1/2+z
1/2+x,-y,1/2+z
x,1/2+y,1/2+z
-x,1/2-y,1/2+z
1/2-x,1/2+y,z
1/2+x,1/2-y,z
loop_
_atom_site_type_symbol
_atom_site_label
_atom_site_fract_x
_atom_site_fract_y
_atom_site_fract_z
Si Si1 0.500000 0.000000 0.845520
Si Si2 0.769508 0.571829 0.665930
Si Si3 0.719479 0.718397 0.944060
Si Si4 0.930661 0.349719 0.071355
Si Si5 0.500000 0.000000 0.475426
Si Si6 0.438085 0.657595 0.287907
O O1 0.705314 0.031875 0.768015
O O2 0.268839 0.024607 0.921890
O O3 0.509405 0.600113 0.623862
O O4 0.872952 0.543179 0.548821
O O5 0.948373 0.611067 0.729392
O O6 0.926389 0.761054 0.953499
O O7 0.820686 0.692668 0.819355
O O8 0.800538 0.680086 0.045238
O O9 0.763649 0.325768 0.181220
O O10 0.817619 0.351968 0.928260
#
# Coordination Sequence:
#
# PCOD9367646 Si02
#       6
#     4   8   8   8   4   8
#     4  11  28  49  76 114 158 211 261 330 396 493
#     4  11  26  46  77 110 159 204 266 326 403 476
#     4  10  26  49  75 115 157 209 269 332 402 478
#     4  10  26  46  77 113 155 211 266 325 405 474
#     4  11  28  47  76 112 162 205 267 322 404 485
#     4  10  26  44  79 109 156 209 265 325 400 480
#
# _framework density 25.717298
#
# number of rings (size 3 to 8) (size 9 to 14) (size 15 to 20)
#    1.200    0.400    0.000    1.200   14.000    4.800 
#    0.000    0.000    0.000    0.000    0.000    0.000 
#    0.000    0.000    0.000    0.000    0.000    0.000 
#
# Total GULP energy -111476.914158 kJ/mol
# GULP energy per Si atom -5573.845708 kJ/mol
# Density = 2.565876 g / cm^3
# Si number density = 25.717298 Si / 1000 Ang^3
#
#
#
# Elastic Constant Matrix: (Units=GPa)
#
#
# Indices 1 2 3 4 5 6 
#
# 1 90.0172 12.7827 47.1319 0.0000 0.0000 0.0000
# 2 12.7827 102.1215 10.8787 0.0000 0.0000 0.0000
# 3 47.1319 10.8787 139.6332 0.0000 0.0000 0.0000
# 4 0.0000 0.0000 0.0000 -47.5392 0.0000 0.0000
# 5 0.0000 0.0000 0.0000 0.0000 23.1674 0.0000
# 6 0.0000 0.0000 0.0000 0.0000 0.0000 47.6453
#
#
#
# Elastic Compliance Matrix: (Units=1/GPa)
#
#
# Indices 1 2 3 4 5 6 
#
# 1 0.013645 -0.001227 -0.004510 0.000000 0.000000 0.000000
# 2 -0.001227 0.009985 -0.000364 0.000000 0.000000 0.000000
# 3 -0.004510 -0.000364 0.008712 0.000000 0.000000 0.000000
# 4 0.000000 0.000000 0.000000 -0.021035 0.000000 0.000000
# 5 0.000000 0.000000 0.000000 0.000000 0.043164 0.000000
# 6 0.000000 0.000000 0.000000 0.000000 0.000000 0.020988
#
#
# Mechanical properties :
#
#
# Convention : Reuss Voigt Hill
#
# Bulk Modulus (GPa) = 49.65377 52.59538 51.12458
# Shear Modulus (GPa) = 52.98068 22.05327 37.51697
#
# Velocity S-wave (km/s) = 4.54378 2.93153 3.82360
# Velocity P-wave (km/s) = 6.84670 5.65281 6.27820
#
# Compressibility (1/GPa) = 0.02013946
#
# Stress axis : x y z
#
# Youngs Moduli (GPa) = 73.28863 100.15386 114.78088
#
# Poissons Ratio (x) = 0.12294 0.51766
# Poissons Ratio (y) = 0.08996 0.04173
# Poissons Ratio (z) = 0.33053 0.03641
#
# Static dielectric constant tensor:
#      x y z
#    x 2.104250 0.000000 0.000000 
#    y 0.000000 2.009300 0.000000 
#    z 0.000000 0.000000 2.200660 
# 
# From -- ./inp_files/4183.got.cif
#   From: 2010.05.17/outbox.cif.g08.bks.cpg/sg41_3_cif.got.tgz:4183.got - 2010.06.03 18:54:24.
