data_PCOD9367648
_publ_section_title
;
Structure prediction by ZEFSAII (Michael W. Deem and Ramdas Pophale) SiO2 
 PCOD9367648
Probable space group: A B A 2
;
_chemical_formula_sum "Si O2"
_cell_formula_units_Z 48
_cell_length_a 11.580047
_cell_length_b 14.269022
_cell_length_c 13.318887
_cell_angle_alpha 90.000000
_cell_angle_beta 90.000000
_cell_angle_gamma 90.000000
_cell_volume 2200.758885
_symmetry_space_group_name_H-M "A B A 2"
_symmetry_group_IT_number 41
_symmetry_cell_setting 'orthorhombic'
loop_
_space_group_symop_operation_xyz
x,y,z
-x,-y,z
1/2-x,y,1/2+z
1/2+x,-y,1/2+z
x,1/2+y,1/2+z
-x,1/2-y,1/2+z
1/2-x,1/2+y,z
1/2+x,1/2-y,z
loop_
_atom_site_type_symbol
_atom_site_label
_atom_site_fract_x
_atom_site_fract_y
_atom_site_fract_z
Si Si1 0.912719 0.650407 0.535560
Si Si2 0.500000 0.000000 0.384241
Si Si3 0.781992 0.932976 0.796301
Si Si4 0.604872 0.308374 0.200206
Si Si5 0.700504 0.601987 0.677709
Si Si6 0.903901 0.343805 0.919805
Si Si7 0.500000 0.500000 0.560924
O O1 0.928646 0.567115 0.456833
O O2 0.805460 0.626977 0.605871
O O3 0.891652 0.745223 0.474040
O O4 0.025463 0.663948 0.606749
O O5 0.582463 0.934307 0.317627
O O6 0.724201 0.868649 0.709519
O O7 0.718541 0.892784 0.894592
O O8 0.753312 0.041003 0.771300
O O9 0.637209 0.199192 0.201583
O O10 0.544508 0.331588 0.307362
O O11 0.609795 0.531313 0.625958
O O12 0.973786 0.412128 0.990409
#
# Coordination Sequence:
#
# PCOD9367648 Si02
#       7
#     8   4   8   8   8   8   4
#     4  12  26  47  78 111 153 204 255 317 391 458
#     4  12  25  47  76 112 156 202 260 316 388 466
#     4  10  26  46  74 107 152 194 256 316 378 457
#     4  10  26  47  74 110 152 199 256 323 379 460
#     4  12  26  45  76 108 149 204 251 315 389 451
#     4  10  26  45  73 107 149 195 258 314 378 451
#     4  12  25  45  70 106 148 200 256 314 372 462
#
# _framework density 21.810658
#
# number of rings (size 3 to 8) (size 9 to 14) (size 15 to 20)
#    1.000    0.000    1.667    3.500    7.000    2.667 
#    0.000    0.000    0.000    0.000    0.000    0.000 
#    0.000    0.000    0.000    0.000    0.000    0.000 
#
# Total GULP energy -134069.313751 kJ/mol
# GULP energy per Si atom -5586.221406 kJ/mol
# Density = 2.176102 g / cm^3
# Si number density = 21.810658 Si / 1000 Ang^3
#
#
#
# Elastic Constant Matrix: (Units=GPa)
#
#
# Indices 1 2 3 4 5 6 
#
# 1 75.8007 31.5349 50.2957 0.0000 0.0000 0.0000
# 2 31.5349 118.9649 40.0169 0.0000 0.0000 0.0000
# 3 50.2957 40.0169 83.3763 0.0000 0.0000 0.0000
# 4 0.0000 0.0000 0.0000 76.2960 0.0000 0.0000
# 5 0.0000 0.0000 0.0000 0.0000 52.8524 0.0000
# 6 0.0000 0.0000 0.0000 0.0000 0.0000 25.6770
#
#
#
# Elastic Compliance Matrix: (Units=1/GPa)
#
#
# Indices 1 2 3 4 5 6 
#
# 1 0.022266 -0.001651 -0.012639 0.000000 0.000000 0.000000
# 2 -0.001651 0.010147 -0.003874 0.000000 0.000000 0.000000
# 3 -0.012639 -0.003874 0.021478 0.000000 0.000000 0.000000
# 4 0.000000 0.000000 0.000000 0.013107 0.000000 0.000000
# 5 0.000000 0.000000 0.000000 0.000000 0.018921 0.000000
# 6 0.000000 0.000000 0.000000 0.000000 0.000000 0.038945
#
#
# Mechanical properties :
#
#
# Convention : Reuss Voigt Hill
#
# Bulk Modulus (GPa) = 56.94161 57.98187 57.46174
# Shear Modulus (GPa) = 29.93210 41.38471 35.65841
#
# Velocity S-wave (km/s) = 3.70856 4.36070 4.04779
# Velocity P-wave (km/s) = 6.67097 7.21084 6.94615
#
# Compressibility (1/GPa) = 0.01756185
#
# Stress axis : x y z
#
# Youngs Moduli (GPa) = 44.91229 98.55561 46.55986
#
# Poissons Ratio (x) = 0.16267 0.58848
# Poissons Ratio (y) = 0.07413 0.18038
# Poissons Ratio (z) = 0.56766 0.38182
#
# Static dielectric constant tensor:
#      x y z
#    x 1.795890 0.000000 0.000000 
#    y 0.000000 1.204300 0.000000 
#    z 0.000000 0.000000 1.813700 
# 
# From -- ./inp_files/7934.got.cif
#   From: 2010.05.17/outbox.cif.g08.bks.cpg/sg41_4_cif.got.tgz:7934.got - 2010.06.03 18:54:24.
