data_PCOD9367967
_publ_section_title
;
Structure prediction by ZEFSAII (Michael W. Deem and Ramdas Pophale) SiO2 
 PCOD9367967
Probable space group: A B A 2
;
_chemical_formula_sum "Si O2"
_cell_formula_units_Z 32
_cell_length_a 7.991391
_cell_length_b 9.191351
_cell_length_c 16.470156
_cell_angle_alpha 90.000000
_cell_angle_beta 90.000000
_cell_angle_gamma 90.000000
_cell_volume 1209.760622
_symmetry_space_group_name_H-M "A B A 2"
_symmetry_group_IT_number 41
_symmetry_cell_setting 'orthorhombic'
loop_
_space_group_symop_operation_xyz
x,y,z
-x,-y,z
1/2-x,y,1/2+z
1/2+x,-y,1/2+z
x,1/2+y,1/2+z
-x,1/2-y,1/2+z
1/2-x,1/2+y,z
1/2+x,1/2-y,z
loop_
_atom_site_type_symbol
_atom_site_label
_atom_site_fract_x
_atom_site_fract_y
_atom_site_fract_z
Si Si1 0.357095 0.613300 0.623650
Si Si2 0.268582 0.578954 0.955497
Si Si3 0.391067 0.813920 0.384325
Si Si4 0.845729 0.603990 0.734149
O O1 0.500000 0.500000 0.592280
O O2 0.235147 0.637036 0.546796
O O3 0.262876 0.509709 0.684915
O O4 0.399440 0.760645 0.674578
O O5 0.111300 0.648540 0.911812
O O6 0.292202 0.407773 0.952155
O O7 0.419846 0.632674 0.896163
O O8 0.285179 0.839986 0.302926
O O9 0.000000 0.500000 0.760362
#
# Coordination Sequence:
#
# PCOD9367967 Si02
#       4
#     8   8   8   8
#     4  12  29  50  84 120 165 216 280 348 422 499
#     4  11  28  49  78 114 160 208 272 338 411 492
#     4  11  28  49  78 114 160 208 272 338 411 492
#     4  12  29  50  84 120 165 216 280 348 422 499
#
# _framework density 26.451515000000001
#
# number of rings (size 3 to 8) (size 9 to 14) (size 15 to 20)
#    0.000    0.500    0.000    4.500   28.000    0.000 
#    0.000    0.000    0.000    0.000    0.000    0.000 
#    0.000    0.000    0.000    0.000    0.000    0.000 
#
# Total GULP energy -89351.653810 kJ/mol
# GULP energy per Si atom -5584.478363 kJ/mol
# Density = 2.639131 g / cm^3
# Si number density = 26.451515 Si / 1000 Ang^3
#
#
#
# Elastic Constant Matrix: (Units=GPa)
#
#
# Indices 1 2 3 4 5 6 
#
# 1 63.2253 26.6635 22.5313 0.0000 0.0000 0.0000
# 2 26.6635 166.5477 53.1918 0.0000 0.0000 0.0000
# 3 22.5313 53.1918 156.6345 0.0000 0.0000 0.0000
# 4 0.0000 0.0000 0.0000 47.1445 0.0000 0.0000
# 5 0.0000 0.0000 0.0000 0.0000 43.0435 0.0000
# 6 0.0000 0.0000 0.0000 0.0000 0.0000 48.5675
#
#
#
# Elastic Compliance Matrix: (Units=1/GPa)
#
#
# Indices 1 2 3 4 5 6 
#
# 1 0.017376 -0.002225 -0.001744 0.000000 0.000000 0.000000
# 2 -0.002225 0.007020 -0.002064 0.000000 0.000000 0.000000
# 3 -0.001744 -0.002064 0.007336 0.000000 0.000000 0.000000
# 4 0.000000 0.000000 0.000000 0.021211 0.000000 0.000000
# 5 0.000000 0.000000 0.000000 0.000000 0.023232 0.000000
# 6 0.000000 0.000000 0.000000 0.000000 0.000000 0.020590
#
#
# Mechanical properties :
#
#
# Convention : Reuss Voigt Hill
#
# Bulk Modulus (GPa) = 50.84756 65.68673 58.26715
# Shear Modulus (GPa) = 43.33276 46.68581 45.00929
#
# Velocity S-wave (km/s) = 4.05185 4.20570 4.12949
# Velocity P-wave (km/s) = 6.41519 6.96209 6.69423
#
# Compressibility (1/GPa) = 0.01966663
#
# Stress axis : x y z
#
# Youngs Moduli (GPa) = 57.54995 142.45828 136.31429
#
# Poissons Ratio (x) = 0.31695 0.23773
# Poissons Ratio (y) = 0.12804 0.28132
# Poissons Ratio (z) = 0.10036 0.29400
#
# Static dielectric constant tensor:
#      x y z
#    x 2.158290 0.000000 0.000000 
#    y 0.000000 2.099630 0.000000 
#    z 0.000000 0.000000 2.093370 
# 
# From -- ./inp_files/4288.got.cif
#   From: 2010.05.17/outbox.cif.g08.bks.cpg/sg41_3_cif.got.tgz:4288.got - 2010.06.03 18:54:24.
