data_PCOD9367429
_publ_section_title
;
Structure prediction by ZEFSAII (Michael W. Deem and Ramdas Pophale) SiO2 
 PCOD9367429
Probable space group: A B A 2
;
_chemical_formula_sum "Si O2"
_cell_formula_units_Z 48
_cell_length_a 8.837058
_cell_length_b 18.656424
_cell_length_c 13.208087
_cell_angle_alpha 90.000000
_cell_angle_beta 90.000000
_cell_angle_gamma 90.000000
_cell_volume 2177.589579
_symmetry_space_group_name_H-M "A B A 2"
_symmetry_group_IT_number 41
_symmetry_cell_setting 'orthorhombic'
loop_
_space_group_symop_operation_xyz
x,y,z
-x,-y,z
1/2-x,y,1/2+z
1/2+x,-y,1/2+z
x,1/2+y,1/2+z
-x,1/2-y,1/2+z
1/2-x,1/2+y,z
1/2+x,1/2-y,z
loop_
_atom_site_type_symbol
_atom_site_label
_atom_site_fract_x
_atom_site_fract_y
_atom_site_fract_z
Si Si1 0.160035 0.590142 0.131930
Si Si2 0.140985 0.723728 0.670253
Si Si3 0.158568 0.470180 0.522810
Si Si4 0.126689 0.348546 0.020243
Si Si5 0.327854 0.987066 0.283514
Si Si6 0.845282 0.660728 0.778951
O O1 0.241562 0.665962 0.128860
O O2 0.225994 0.562986 0.242352
O O3 0.995706 0.605833 0.084073
O O4 0.220396 0.525229 0.064977
O O5 0.109899 0.772286 0.572375
O O6 0.219000 0.778606 0.751499
O O7 0.993660 0.685615 0.717421
O O8 0.212096 0.388657 0.538237
O O9 0.158233 0.480504 0.402436
O O10 0.000000 0.500000 0.563696
O O11 0.112242 0.343747 0.898596
O O12 0.230457 0.917351 0.253113
O O13 0.500000 0.000000 0.241829
#
# Coordination Sequence:
#
# PCOD9367429 Si02
#       6
#     8   8   8   8   8   8
#     4  12  25  42  73  99 139 188 238 298 358 431
#     4  12  27  45  70 108 143 198 240 297 373 438
#     4  10  24  43  71 105 136 182 237 301 358 430
#     4  11  26  50  71 103 149 194 242 303 370 439
#     4  10  23  46  72 100 138 183 235 297 363 424
#     4  11  27  47  74 105 150 192 247 305 363 444
#
# _framework density 22.042722000000001
#
# number of rings (size 3 to 8) (size 9 to 14) (size 15 to 20)
#    0.000    1.000    1.667    3.500    9.333    0.000 
#    3.000    0.000    0.000    0.000    0.000    0.000 
#    0.000    0.000    0.000    0.000    0.000    0.000 
#
# Total GULP energy -133649.511412 kJ/mol
# GULP energy per Si atom -5568.729642 kJ/mol
# Density = 2.199255 g / cm^3
# Si number density = 22.042722 Si / 1000 Ang^3
#
#
#
# Elastic Constant Matrix: (Units=GPa)
#
#
# Indices 1 2 3 4 5 6 
#
# 1 104.5155 40.5495 20.7641 0.0000 0.0000 0.0000
# 2 40.5495 95.0100 10.3934 0.0000 0.0000 0.0000
# 3 20.7641 10.3934 101.4216 0.0000 0.0000 0.0000
# 4 0.0000 0.0000 0.0000 28.4127 0.0000 0.0000
# 5 0.0000 0.0000 0.0000 0.0000 26.9187 0.0000
# 6 0.0000 0.0000 0.0000 0.0000 0.0000 96.4537
#
#
#
# Elastic Compliance Matrix: (Units=1/GPa)
#
#
# Indices 1 2 3 4 5 6 
#
# 1 0.011827 -0.004837 -0.001926 0.000000 0.000000 0.000000
# 2 -0.004837 0.012623 -0.000303 0.000000 0.000000 0.000000
# 3 -0.001926 -0.000303 0.010285 0.000000 0.000000 0.000000
# 4 0.000000 0.000000 0.000000 0.035196 0.000000 0.000000
# 5 0.000000 0.000000 0.000000 0.000000 0.037149 0.000000
# 6 0.000000 0.000000 0.000000 0.000000 0.000000 0.010368
#
#
# Mechanical properties :
#
#
# Convention : Reuss Voigt Hill
#
# Bulk Modulus (GPa) = 48.53640 49.37346 48.95493
# Shear Modulus (GPa) = 36.11488 45.63969 40.87728
#
# Velocity S-wave (km/s) = 4.05211 4.55522 4.31101
# Velocity P-wave (km/s) = 6.63022 7.07915 6.85836
#
# Compressibility (1/GPa) = 0.02060309
#
# Stress axis : x y z
#
# Youngs Moduli (GPa) = 84.55073 79.22156 97.22746
#
# Poissons Ratio (x) = 0.38320 0.18723
# Poissons Ratio (y) = 0.40898 0.02948
# Poissons Ratio (z) = 0.16282 0.02402
#
# Static dielectric constant tensor:
#      x y z
#    x 0.011570 0.000000 0.000000 
#    y 0.000000 1.466390 0.000000 
#    z 0.000000 0.000000 1.877540 
# 
# From -- ./inp_files/7320.got.cif
#   From: 2010.05.17/outbox.cif.g08.bks.cpg/sg41_4_cif.got.tgz:7320.got - 2010.06.03 18:54:24.
