data_PCOD9367527
_publ_section_title
;
Structure prediction by ZEFSAII (Michael W. Deem and Ramdas Pophale) SiO2 
 PCOD9367527
Probable space group: A B A 2
;
_chemical_formula_sum "Si O2"
_cell_formula_units_Z 60
_cell_length_a 12.622718
_cell_length_b 7.946185
_cell_length_c 26.846047
_cell_angle_alpha 90.000000
_cell_angle_beta 90.000000
_cell_angle_gamma 90.000000
_cell_volume 2692.724352
_symmetry_space_group_name_H-M "A B A 2"
_symmetry_group_IT_number 41
_symmetry_cell_setting 'orthorhombic'
loop_
_space_group_symop_operation_xyz
x,y,z
-x,-y,z
1/2-x,y,1/2+z
1/2+x,-y,1/2+z
x,1/2+y,1/2+z
-x,1/2-y,1/2+z
1/2-x,1/2+y,z
1/2+x,1/2-y,z
loop_
_atom_site_type_symbol
_atom_site_label
_atom_site_fract_x
_atom_site_fract_y
_atom_site_fract_z
Si Si1 0.885186 0.969878 0.479040
Si Si2 0.117252 0.951387 0.116956
Si Si3 0.114103 0.437692 0.233191
Si Si4 0.243691 0.191601 0.174383
Si Si5 0.843569 0.088740 0.003207
Si Si6 0.652393 0.478350 0.844981
Si Si7 0.500000 0.000000 0.429712
Si Si8 0.610254 0.583201 0.364895
O O1 0.867294 0.768593 0.477412
O O2 0.780273 0.045949 0.503613
O O3 0.892146 0.056221 0.424622
O O4 0.000000 0.000000 0.503706
O O5 0.167583 0.817038 0.154210
O O6 0.194643 0.109005 0.125179
O O7 0.117740 0.898897 0.059649
O O8 0.000000 0.000000 0.131966
O O9 0.147983 0.268807 0.206015
O O10 0.199957 0.566192 0.211877
O O11 0.120140 0.441822 0.292563
O O12 0.000000 0.500000 0.217232
O O13 0.909930 0.949902 0.971116
O O14 0.585286 0.569847 0.888739
O O15 0.779070 0.496659 0.849336
O O16 0.621643 0.280421 0.850582
O O17 0.500000 0.500000 0.345819
#
# Coordination Sequence:
#
# PCOD9367527 Si02
#       8
#     8   8   8   8   8   8   4   8
#     4  11  25  42  63  93 137 185 235 280 330 402
#     4  11  23  44  69  99 132 175 221 281 347 406
#     4  11  23  44  69  99 132 175 221 281 347 406
#     4  10  24  44  68  98 132 168 228 288 336 404
#     4  12  25  42  68  99 137 185 229 277 347 412
#     4  12  25  42  68  99 137 185 229 277 347 412
#     4  12  24  40  68  96 144 180 222 286 324 414
#     4  11  25  42  63  93 137 185 235 280 330 402
#
# _framework density 22.282266
#
# number of rings (size 3 to 8) (size 9 to 14) (size 15 to 20)
#    0.000    0.800    2.667    4.800    3.733    2.133 
#    0.000    6.667    0.000    0.000    0.000    0.000 
#    0.000    0.000    0.000    0.000    0.000    0.000 
#
# Total GULP energy -167395.450565 kJ/mol
# GULP energy per Si atom -5579.848352 kJ/mol
# Density = 2.223155 g / cm^3
# Si number density = 22.282266 Si / 1000 Ang^3
#
#
#
# Elastic Constant Matrix: (Units=GPa)
#
#
# Indices 1 2 3 4 5 6 
#
# 1 129.0980 5.8153 -17.8788 0.0000 0.0000 0.0000
# 2 5.8153 62.1916 0.1768 0.0000 0.0000 0.0000
# 3 -17.8788 0.1768 91.8883 0.0000 0.0000 0.0000
# 4 0.0000 0.0000 0.0000 15.2206 0.0000 0.0000
# 5 0.0000 0.0000 0.0000 0.0000 23.2791 0.0000
# 6 0.0000 0.0000 0.0000 0.0000 0.0000 19.5612
#
#
#
# Elastic Compliance Matrix: (Units=1/GPa)
#
#
# Indices 1 2 3 4 5 6 
#
# 1 0.007996 -0.000752 0.001557 0.000000 0.000000 0.000000
# 2 -0.000752 0.016150 -0.000177 0.000000 0.000000 0.000000
# 3 0.001557 -0.000177 0.011186 0.000000 0.000000 0.000000
# 4 0.000000 0.000000 0.000000 0.065701 0.000000 0.000000
# 5 0.000000 0.000000 0.000000 0.000000 0.042957 0.000000
# 6 0.000000 0.000000 0.000000 0.000000 0.000000 0.051122
#
#
# Mechanical properties :
#
#
# Convention : Reuss Voigt Hill
#
# Bulk Modulus (GPa) = 27.33196 28.82273 28.07734
# Shear Modulus (GPa) = 24.26579 31.28315 27.77447
#
# Velocity S-wave (km/s) = 3.30361 3.75099 3.53439
# Velocity P-wave (km/s) = 5.18118 5.63234 5.41147
#
# Compressibility (1/GPa) = 0.03658721
#
# Stress axis : x y z
#
# Youngs Moduli (GPa) = 125.06908 61.91884 89.39664
#
# Poissons Ratio (x) = 0.04657 -0.13920
# Poissons Ratio (y) = 0.09406 0.01586
# Poissons Ratio (z) = -0.19475 0.01099
#
# Static dielectric constant tensor:
#      x y z
#    x 1.823270 0.000000 0.000000 
#    y 0.000000 1.915600 0.000000 
#    z 0.000000 0.000000 1.781750 
# 
# From -- ./inp_files/2169.got.cif
#   From: 2010.05.17/outbox.cif.g08.bks.cpg/sg41_2_cif.got.tgz:2169.got - 2010.06.03 18:54:24.
