data_PCOD9367606
_publ_section_title
;
Structure prediction by ZEFSAII (Michael W. Deem and Ramdas Pophale) SiO2 
 PCOD9367606
Probable space group: A B A 2
;
_chemical_formula_sum "Si O2"
_cell_formula_units_Z 32
_cell_length_a 8.442528
_cell_length_b 11.482884
_cell_length_c 12.070139
_cell_angle_alpha 90.000000
_cell_angle_beta 90.000000
_cell_angle_gamma 90.000000
_cell_volume 1170.134431
_symmetry_space_group_name_H-M "A B A 2"
_symmetry_group_IT_number 41
_symmetry_cell_setting 'orthorhombic'
loop_
_space_group_symop_operation_xyz
x,y,z
-x,-y,z
1/2-x,y,1/2+z
1/2+x,-y,1/2+z
x,1/2+y,1/2+z
-x,1/2-y,1/2+z
1/2-x,1/2+y,z
1/2+x,1/2-y,z
loop_
_atom_site_type_symbol
_atom_site_label
_atom_site_fract_x
_atom_site_fract_y
_atom_site_fract_z
Si Si1 0.542533 0.653478 0.633310
Si Si2 0.259529 0.670767 0.490757
Si Si3 0.985468 0.327002 0.808843
Si Si4 0.740705 0.507583 0.811383
O O1 0.396721 0.606040 0.561154
O O2 0.656551 0.737800 0.559909
O O3 0.453167 0.740509 0.718014
O O4 0.636370 0.571611 0.719739
O O5 0.377933 0.733545 0.401940
O O6 0.174778 0.571699 0.413495
O O7 0.860275 0.415365 0.753215
O O8 0.130182 0.400366 0.856476
#
# Coordination Sequence:
#
# PCOD9367606 Si02
#       4
#     8   8   8   8
#     4  12  22  46  80 107 152 213 241 329 401 444
#     4  10  25  41  78 106 151 208 251 315 406 448
#     4   9  22  42  69 108 147 189 261 309 363 482
#     4   9  22  45  68 108 155 186 265 315 361 497
#
# _framework density 27.347286
#
# number of rings (size 3 to 8) (size 9 to 14) (size 15 to 20)
#    1.500    0.500    2.500    0.000    3.500    4.000 
#    0.000    0.000    5.500    0.000    0.000    0.000 
#    0.000    0.000    0.000    0.000    0.000    0.000 
#
# Total GULP energy -89238.770740 kJ/mol
# GULP energy per Si atom -5577.423171 kJ/mol
# Density = 2.728504 g / cm^3
# Si number density = 27.347286 Si / 1000 Ang^3
#
#
#
# Elastic Constant Matrix: (Units=GPa)
#
#
# Indices 1 2 3 4 5 6 
#
# 1 129.1624 79.9223 70.0225 0.0000 0.0000 0.0000
# 2 79.9223 100.0832 89.4884 0.0000 0.0000 0.0000
# 3 70.0225 89.4884 148.8559 0.0000 0.0000 0.0000
# 4 0.0000 0.0000 0.0000 87.9725 0.0000 0.0000
# 5 0.0000 0.0000 0.0000 0.0000 57.0103 0.0000
# 6 0.0000 0.0000 0.0000 0.0000 0.0000 47.1798
#
#
#
# Elastic Compliance Matrix: (Units=1/GPa)
#
#
# Indices 1 2 3 4 5 6 
#
# 1 0.015312 -0.012513 0.000320 0.000000 0.000000 0.000000
# 2 -0.012513 0.031832 -0.013250 0.000000 0.000000 0.000000
# 3 0.000320 -0.013250 0.014533 0.000000 0.000000 0.000000
# 4 0.000000 0.000000 0.000000 0.011367 0.000000 0.000000
# 5 0.000000 0.000000 0.000000 0.000000 0.017541 0.000000
# 6 0.000000 0.000000 0.000000 0.000000 0.000000 0.021196
#
#
# Mechanical properties :
#
#
# Convention : Reuss Voigt Hill
#
# Bulk Modulus (GPa) = 92.68244 95.21863 93.95054
# Shear Modulus (GPa) = 30.07277 47.67707 38.87492
#
# Velocity S-wave (km/s) = 3.31971 4.17993 3.77441
# Velocity P-wave (km/s) = 6.97556 7.62821 7.30917
#
# Compressibility (1/GPa) = 0.01078953
#
# Stress axis : x y z
#
# Youngs Moduli (GPa) = 65.30968 31.41505 68.80909
#
# Poissons Ratio (x) = 0.39311 -0.02203
# Poissons Ratio (y) = 0.81725 0.91173
# Poissons Ratio (z) = -0.02091 0.41625
#
# Static dielectric constant tensor:
#      x y z
#    x 2.069290 0.000000 0.000000 
#    y 0.000000 2.254820 0.000000 
#    z 0.000000 0.000000 2.208240 
# 
# From -- ./inp_files/4297.got.cif
#   From: 2010.05.17/outbox.cif.g08.bks.cpg/sg41_3_cif.got.tgz:4297.got - 2010.06.03 18:54:24.
