data_PCOD9367640
_publ_section_title
;
Structure prediction by ZEFSAII (Michael W. Deem and Ramdas Pophale) SiO2 
 PCOD9367640
Probable space group: A B A 2
;
_chemical_formula_sum "Si O2"
_cell_formula_units_Z 32
_cell_length_a 5.114547
_cell_length_b 9.598032
_cell_length_c 22.601298
_cell_angle_alpha 90.000000
_cell_angle_beta 90.000000
_cell_angle_gamma 90.000000
_cell_volume 1109.488357
_symmetry_space_group_name_H-M "A B A 2"
_symmetry_group_IT_number 41
_symmetry_cell_setting 'orthorhombic'
loop_
_space_group_symop_operation_xyz
x,y,z
-x,-y,z
1/2-x,y,1/2+z
1/2+x,-y,1/2+z
x,1/2+y,1/2+z
-x,1/2-y,1/2+z
1/2-x,1/2+y,z
1/2+x,1/2-y,z
loop_
_atom_site_type_symbol
_atom_site_label
_atom_site_fract_x
_atom_site_fract_y
_atom_site_fract_z
Si Si1 0.000000 0.500000 0.479391
Si Si2 0.500000 0.000000 0.773166
Si Si3 0.235800 0.348147 0.876915
Si Si4 0.851543 0.763029 0.546694
Si Si5 0.260088 0.090009 0.663365
O O1 0.214985 0.450528 0.431379
O O2 0.095986 0.635756 0.517221
O O3 0.287564 0.933183 0.816457
O O4 0.624556 0.884845 0.729145
O O5 0.972183 0.259949 0.880966
O O6 0.618211 0.645453 0.536783
O O7 0.806243 0.791578 0.617117
O O8 0.500000 0.000000 0.636506
O O9 0.000000 0.000000 0.672092
#
# Coordination Sequence:
#
# PCOD9367640 Si02
#       5
#     4   4   8   8   8
#     4  12  30  55  84 126 178 239 300 384 446 558
#     4  10  28  51  92 124 184 231 306 396 462 566
#     4  12  28  51  84 130 171 242 304 373 467 542
#     4  12  29  50  83 122 175 237 296 373 457 547
#     4  10  25  50  82 129 175 233 296 380 465 552
#
# _framework density 28.842122
#
# number of rings (size 3 to 8) (size 9 to 14) (size 15 to 20)
#    0.750    0.000    0.000    4.500   10.500    6.000 
#    0.000    0.000    0.000    0.000    0.000    0.000 
#    0.000    0.000    0.000    0.000    0.000    0.000 
#
# Total GULP energy -89291.427602 kJ/mol
# GULP energy per Si atom -5580.714225 kJ/mol
# Density = 2.877648 g / cm^3
# Si number density = 28.842122 Si / 1000 Ang^3
#
#
#
# Elastic Constant Matrix: (Units=GPa)
#
#
# Indices 1 2 3 4 5 6 
#
# 1 300.5321 22.3287 44.3199 0.0000 0.0000 0.0000
# 2 22.3287 127.5887 85.6041 0.0000 0.0000 0.0000
# 3 44.3199 85.6041 264.5598 0.0000 0.0000 0.0000
# 4 0.0000 0.0000 0.0000 46.0099 0.0000 0.0000
# 5 0.0000 0.0000 0.0000 0.0000 42.1142 0.0000
# 6 0.0000 0.0000 0.0000 0.0000 0.0000 61.0336
#
#
#
# Elastic Compliance Matrix: (Units=1/GPa)
#
#
# Indices 1 2 3 4 5 6 
#
# 1 0.003419 -0.000273 -0.000484 0.000000 0.000000 0.000000
# 2 -0.000273 0.010033 -0.003201 0.000000 0.000000 0.000000
# 3 -0.000484 -0.003201 0.004897 0.000000 0.000000 0.000000
# 4 0.000000 0.000000 0.000000 0.021734 0.000000 0.000000
# 5 0.000000 0.000000 0.000000 0.000000 0.023745 0.000000
# 6 0.000000 0.000000 0.000000 0.000000 0.000000 0.016384
#
#
# Mechanical properties :
#
#
# Convention : Reuss Voigt Hill
#
# Bulk Modulus (GPa) = 95.85815 110.79843 103.32829
# Shear Modulus (GPa) = 54.58128 65.86007 60.22068
#
# Velocity S-wave (km/s) = 4.35491 4.78375 4.57436
# Velocity P-wave (km/s) = 7.65471 8.30730 7.98767
#
# Compressibility (1/GPa) = 0.01043208
#
# Stress axis : x y z
#
# Youngs Moduli (GPa) = 292.46873 99.67198 204.22295
#
# Poissons Ratio (x) = 0.02725 0.09891
# Poissons Ratio (y) = 0.07997 0.65363
# Poissons Ratio (z) = 0.14165 0.31901
#
# Static dielectric constant tensor:
#      x y z
#    x 2.857000 0.000000 0.000000 
#    y 0.000000 2.526700 0.000000 
#    z 0.000000 0.000000 2.171850 
# 
# From -- ./inp_files/10874.got.cif
#   From: 2010.05.17/outbox.cif.g08.bks.cpg/sg41_6_cif.got.tgz:10874.got - 2010.06.03 18:54:24.
