data_PCOD9367395
_publ_section_title
;
Structure prediction by ZEFSAII (Michael W. Deem and Ramdas Pophale) SiO2 
 PCOD9367395
Probable space group: A B A 2
;
_chemical_formula_sum "Si O2"
_cell_formula_units_Z 60
_cell_length_a 27.719505
_cell_length_b 12.372466
_cell_length_c 7.523076
_cell_angle_alpha 90.000000
_cell_angle_beta 90.000000
_cell_angle_gamma 90.000000
_cell_volume 2580.103862
_symmetry_space_group_name_H-M "A B A 2"
_symmetry_group_IT_number 41
_symmetry_cell_setting 'orthorhombic'
loop_
_space_group_symop_operation_xyz
x,y,z
-x,-y,z
1/2-x,y,1/2+z
1/2+x,-y,1/2+z
x,1/2+y,1/2+z
-x,1/2-y,1/2+z
1/2-x,1/2+y,z
1/2+x,1/2-y,z
loop_
_atom_site_type_symbol
_atom_site_label
_atom_site_fract_x
_atom_site_fract_y
_atom_site_fract_z
Si Si1 0.141019 0.221644 0.257130
Si Si2 0.585446 0.618632 0.211389
Si Si3 0.077029 0.640477 0.084165
Si Si4 0.191191 0.378516 0.814502
Si Si5 0.376804 0.955732 0.325563
Si Si6 0.231926 0.752446 0.999633
Si Si7 0.803435 0.936159 0.042638
Si Si8 0.500000 0.500000 0.412668
O O1 0.109061 0.161465 0.406243
O O2 0.120077 0.340616 0.227053
O O3 0.193479 0.245124 0.342583
O O4 0.152344 0.145670 0.091054
O O5 0.633832 0.613276 0.331409
O O6 0.541760 0.554227 0.296141
O O7 0.573456 0.743985 0.179062
O O8 0.599106 0.568316 0.018381
O O9 0.025648 0.592249 0.028424
O O10 0.101182 0.551160 0.210305
O O11 0.201489 0.282213 0.673231
O O12 0.226860 0.344064 0.970951
O O13 0.204723 0.487953 0.712632
O O14 0.322515 0.990930 0.381203
O O15 0.258158 0.638418 0.009209
#
# Coordination Sequence:
#
# PCOD9367395 Si02
#       8
#     8   8   8   8   8   8   8   4
#     4  11  24  42  63 100 137 175 227 278 330 414
#     4  10  24  50  69  97 143 177 233 289 344 413
#     4  11  24  44  73  98 133 172 229 286 344 404
#     4  11  24  44  64 100 137 183 229 280 335 411
#     4  10  23  44  69  96 131 178 225 279 340 407
#     4  12  23  40  64 100 137 178 228 269 334 411
#     4  11  24  39  64  93 140 187 219 272 343 392
#     4  12  28  46  72 106 132 182 232 292 350 408
#
# _framework density 23.254877
#
# number of rings (size 3 to 8) (size 9 to 14) (size 15 to 20)
#    0.000    1.067    5.333    2.400    1.867    8.000 
#    0.000    0.000    0.000    0.000    0.000    0.000 
#    0.000    0.000    0.000    0.000    0.000    0.000 
#
# Total GULP energy -168002.308326 kJ/mol
# GULP energy per Si atom -5600.076944 kJ/mol
# Density = 2.320195 g / cm^3
# Si number density = 23.254877 Si / 1000 Ang^3
#
#
#
# Elastic Constant Matrix: (Units=GPa)
#
#
# Indices 1 2 3 4 5 6 
#
# 1 132.2533 48.7884 25.4236 0.0000 0.0000 0.0000
# 2 48.7884 153.7510 22.4014 0.0000 0.0000 0.0000
# 3 25.4236 22.4014 63.0561 0.0000 0.0000 0.0000
# 4 0.0000 0.0000 0.0000 31.6772 0.0000 0.0000
# 5 0.0000 0.0000 0.0000 0.0000 24.8578 0.0000
# 6 0.0000 0.0000 0.0000 0.0000 0.0000 39.7133
#
#
#
# Elastic Compliance Matrix: (Units=1/GPa)
#
#
# Indices 1 2 3 4 5 6 
#
# 1 0.008996 -0.002453 -0.002756 0.000000 0.000000 0.000000
# 2 -0.002453 0.007528 -0.001685 0.000000 0.000000 0.000000
# 3 -0.002756 -0.001685 0.017569 0.000000 0.000000 0.000000
# 4 0.000000 0.000000 0.000000 0.031568 0.000000 0.000000
# 5 0.000000 0.000000 0.000000 0.000000 0.040229 0.000000
# 6 0.000000 0.000000 0.000000 0.000000 0.000000 0.025181
#
#
# Mechanical properties :
#
#
# Convention : Reuss Voigt Hill
#
# Bulk Modulus (GPa) = 49.25009 60.25412 54.75211
# Shear Modulus (GPa) = 32.97574 36.07944 34.52759
#
# Velocity S-wave (km/s) = 3.76974 3.94315 3.85742
# Velocity P-wave (km/s) = 6.33816 6.83358 6.59053
#
# Compressibility (1/GPa) = 0.02030453
#
# Stress axis : x y z
#
# Youngs Moduli (GPa) = 111.16154 132.83749 56.91958
#
# Poissons Ratio (x) = 0.32586 0.15685
# Poissons Ratio (y) = 0.27269 0.09593
# Poissons Ratio (z) = 0.30631 0.22388
#
# Static dielectric constant tensor:
#      x y z
#    x 1.864550 0.000000 0.000000 
#    y 0.000000 1.896030 0.000000 
#    z 0.000000 0.000000 1.929800 
# 
# From -- ./inp_files/3816.got.cif
#   From: 2010.05.17/outbox.cif.g08.bks.cpg/sg41_2_cif.got.tgz:3816.got - 2010.06.03 18:54:24.
