data_PCOD9367885
_publ_section_title
;
Structure prediction by ZEFSAII (Michael W. Deem and Ramdas Pophale) SiO2 
 PCOD9367885
Probable space group: A B A 2
;
_chemical_formula_sum "Si O2"
_cell_formula_units_Z 40
_cell_length_a 8.926169
_cell_length_b 9.717950
_cell_length_c 19.557478
_cell_angle_alpha 90.000000
_cell_angle_beta 90.000000
_cell_angle_gamma 90.000000
_cell_volume 1696.495124
_symmetry_space_group_name_H-M "A B A 2"
_symmetry_group_IT_number 41
_symmetry_cell_setting 'orthorhombic'
loop_
_space_group_symop_operation_xyz
x,y,z
-x,-y,z
1/2-x,y,1/2+z
1/2+x,-y,1/2+z
x,1/2+y,1/2+z
-x,1/2-y,1/2+z
1/2-x,1/2+y,z
1/2+x,1/2-y,z
loop_
_atom_site_type_symbol
_atom_site_label
_atom_site_fract_x
_atom_site_fract_y
_atom_site_fract_z
Si Si1 0.775165 0.272744 0.413710
Si Si2 0.674693 0.027882 0.323288
Si Si3 0.021824 0.663408 0.006132
Si Si4 0.126338 0.604152 0.703118
Si Si5 0.047986 0.658304 0.157358
O O1 0.793928 0.425198 0.385973
O O2 0.683132 0.283467 0.483673
O O3 0.928745 0.210874 0.440417
O O4 0.708715 0.178381 0.353287
O O5 0.792454 0.978951 0.265113
O O6 0.500000 0.000000 0.305943
O O7 0.000000 0.500000 0.009526
O O8 0.994920 0.713315 0.083258
O O9 0.272462 0.654515 0.661758
O O10 0.000000 0.500000 0.673832
O O11 0.029993 0.743941 0.713607
O O12 0.000000 0.500000 0.162353
#
# Coordination Sequence:
#
# PCOD9367885 Si02
#       5
#     8   8   8   8   8
#     4  12  25  46  73 110 147 196 243 314 380 446
#     4  12  29  46  75 110 155 199 254 311 378 450
#     4  11  24  46  75 109 150 190 252 309 378 456
#     4  12  29  49  76 111 150 200 258 312 378 446
#     4  11  26  50  76 111 150 203 253 316 378 451
#
# _framework density 23.578022000000001
#
# number of rings (size 3 to 8) (size 9 to 14) (size 15 to 20)
#    0.000    0.400    4.000    3.000   11.200    1.600 
#    3.600    0.000    0.000    0.000    0.000    0.000 
#    0.000    0.000    0.000    0.000    0.000    0.000 
#
# Total GULP energy -111690.877223 kJ/mol
# GULP energy per Si atom -5584.543861 kJ/mol
# Density = 2.352436 g / cm^3
# Si number density = 23.578022 Si / 1000 Ang^3
#
#
#
# Elastic Constant Matrix: (Units=GPa)
#
#
# Indices 1 2 3 4 5 6 
#
# 1 123.0150 29.9918 16.6949 0.0000 0.0000 0.0000
# 2 29.9918 84.3436 -6.7426 0.0000 0.0000 0.0000
# 3 16.6949 -6.7426 87.1484 0.0000 0.0000 0.0000
# 4 0.0000 0.0000 0.0000 120.5248 0.0000 0.0000
# 5 0.0000 0.0000 0.0000 0.0000 11.7896 0.0000
# 6 0.0000 0.0000 0.0000 0.0000 0.0000 29.7526
#
#
#
# Elastic Compliance Matrix: (Units=1/GPa)
#
#
# Indices 1 2 3 4 5 6 
#
# 1 0.009247 -0.003451 -0.002038 0.000000 0.000000 0.000000
# 2 -0.003451 0.013218 0.001684 0.000000 0.000000 0.000000
# 3 -0.002038 0.001684 0.011995 0.000000 0.000000 0.000000
# 4 0.000000 0.000000 0.000000 0.008297 0.000000 0.000000
# 5 0.000000 0.000000 0.000000 0.000000 0.084820 0.000000
# 6 0.000000 0.000000 0.000000 0.000000 0.000000 0.033611
#
#
# Mechanical properties :
#
#
# Convention : Reuss Voigt Hill
#
# Bulk Modulus (GPa) = 37.24530 41.59947 39.42239
# Shear Modulus (GPa) = 28.12942 49.38426 38.75684
#
# Velocity S-wave (km/s) = 3.45778 4.58154 4.05874
# Velocity P-wave (km/s) = 5.63672 6.75788 6.22260
#
# Compressibility (1/GPa) = 0.02684903
#
# Stress axis : x y z
#
# Youngs Moduli (GPa) = 108.14135 75.65396 83.36480
#
# Poissons Ratio (x) = 0.26109 0.16994
# Poissons Ratio (y) = 0.37321 -0.14037
# Poissons Ratio (z) = 0.22044 -0.12739
#
# Static dielectric constant tensor:
#      x y z
#    x 2.190550 0.000000 0.000000 
#    y 0.000000 1.860360 0.000000 
#    z 0.000000 0.000000 1.866550 
# 
# From -- ./inp_files/11914.got.cif
#   From: 2010.05.17/outbox.cif.g08.bks.cpg/sg41_6_cif.got.tgz:11914.got - 2010.06.03 18:54:24.
