data_PCOD9367829
_publ_section_title
;
Structure prediction by ZEFSAII (Michael W. Deem and Ramdas Pophale) SiO2 
 PCOD9367829
Probable space group: A B A 2
;
_chemical_formula_sum "Si O2"
_cell_formula_units_Z 64
_cell_length_a 28.721210
_cell_length_b 9.283483
_cell_length_c 11.333274
_cell_angle_alpha 90.000000
_cell_angle_beta 90.000000
_cell_angle_gamma 90.000000
_cell_volume 3021.823314
_symmetry_space_group_name_H-M "A B A 2"
_symmetry_group_IT_number 41
_symmetry_cell_setting 'orthorhombic'
loop_
_space_group_symop_operation_xyz
x,y,z
-x,-y,z
1/2-x,y,1/2+z
1/2+x,-y,1/2+z
x,1/2+y,1/2+z
-x,1/2-y,1/2+z
1/2-x,1/2+y,z
1/2+x,1/2-y,z
loop_
_atom_site_type_symbol
_atom_site_label
_atom_site_fract_x
_atom_site_fract_y
_atom_site_fract_z
Si Si1 0.532200 0.635574 0.795450
Si Si2 0.585677 0.216784 0.511097
Si Si3 0.193879 0.895935 0.795722
Si Si4 0.656110 0.491665 0.040891
Si Si5 0.613799 0.693998 0.612824
Si Si6 0.968070 0.629639 0.722408
Si Si7 0.288668 0.066598 0.760334
Si Si8 0.885460 0.008027 0.380196
O O1 0.500000 0.500000 0.770764
O O2 0.567702 0.670876 0.689781
O O3 0.499078 0.774533 0.810053
O O4 0.561887 0.612985 0.914288
O O5 0.630188 0.140835 0.569789
O O6 0.549448 0.233171 0.617321
O O7 0.601239 0.352847 0.434695
O O8 0.155994 0.872737 0.691591
O O9 0.239939 0.988677 0.775768
O O10 0.211124 0.729975 0.809678
O O11 0.169555 0.976549 0.905826
O O12 0.622411 0.360306 0.077962
O O13 0.700211 0.451459 0.121001
O O14 0.613056 0.612889 0.490349
O O15 0.924611 0.558753 0.788891
O O16 0.000000 0.500000 0.675089
O O17 0.334201 0.997556 0.823016
#
# Coordination Sequence:
#
# PCOD9367829 Si02
#       8
#     8   8   8   8   8   8   8   8
#     4  12  26  45  69 104 142 185 246 295 352 428
#     4  12  23  46  70  97 140 189 232 287 359 420
#     4  11  26  47  73 103 143 180 237 290 355 432
#     4  11  23  46  74  96 141 188 225 288 355 425
#     4  11  27  46  70 105 142 185 237 295 355 428
#     4  12  26  44  72 103 141 192 237 294 356 424
#     4  11  26  46  70 107 138 183 234 289 355 433
#     4  12  26  45  69 105 145 179 235 298 349 425
#
# _framework density 21.179268
#
# number of rings (size 3 to 8) (size 9 to 14) (size 15 to 20)
#    0.000    0.500    5.000    2.625    7.000    3.500 
#    0.000    0.000    0.000    0.000    0.000    0.000 
#    0.000    0.000    0.000    0.000    0.000    0.000 
#
# Total GULP energy -178710.123796 kJ/mol
# GULP energy per Si atom -5584.691369 kJ/mol
# Density = 2.113106 g / cm^3
# Si number density = 21.179268 Si / 1000 Ang^3
#
#
#
# Elastic Constant Matrix: (Units=GPa)
#
#
# Indices 1 2 3 4 5 6 
#
# 1 81.8502 32.5898 8.5073 0.0000 0.0000 0.0000
# 2 32.5898 63.8416 19.8835 0.0000 0.0000 0.0000
# 3 8.5073 19.8835 85.3824 0.0000 0.0000 0.0000
# 4 0.0000 0.0000 0.0000 39.2228 0.0000 0.0000
# 5 0.0000 0.0000 0.0000 0.0000 17.9224 0.0000
# 6 0.0000 0.0000 0.0000 0.0000 0.0000 38.8742
#
#
#
# Elastic Compliance Matrix: (Units=1/GPa)
#
#
# Indices 1 2 3 4 5 6 
#
# 1 0.015342 -0.007931 0.000318 0.000000 0.000000 0.000000
# 2 -0.007931 0.020989 -0.004097 0.000000 0.000000 0.000000
# 3 0.000318 -0.004097 0.012635 0.000000 0.000000 0.000000
# 4 0.000000 0.000000 0.000000 0.025495 0.000000 0.000000
# 5 0.000000 0.000000 0.000000 0.000000 0.055796 0.000000
# 6 0.000000 0.000000 0.000000 0.000000 0.000000 0.025724
#
#
# Mechanical properties :
#
#
# Convention : Reuss Voigt Hill
#
# Bulk Modulus (GPa) = 39.14689 39.22615 39.18652
# Shear Modulus (GPa) = 26.60761 30.54345 28.57553
#
# Velocity S-wave (km/s) = 3.54828 3.80167 3.67716
# Velocity P-wave (km/s) = 5.94229 6.15073 6.04741
#
# Compressibility (1/GPa) = 0.02554482
#
# Stress axis : x y z
#
# Youngs Moduli (GPa) = 65.17967 47.64503 79.14827
#
# Poissons Ratio (x) = 0.37787 -0.02519
# Poissons Ratio (y) = 0.51694 0.32431
# Poissons Ratio (z) = -0.02075 0.19523
#
# Static dielectric constant tensor:
#      x y z
#    x 1.773250 0.000000 0.000000 
#    y 0.000000 1.795230 0.000000 
#    z 0.000000 0.000000 1.765330 
# 
# From -- ./inp_files/6687.got.cif
#   From: 2010.05.17/outbox.cif.g08.bks.cpg/sg41_4_cif.got.tgz:6687.got - 2010.06.03 18:54:24.
