data_PCOD9367634
_publ_section_title
;
Structure prediction by ZEFSAII (Michael W. Deem and Ramdas Pophale) SiO2 
 PCOD9367634
Probable space group: A B A 2
;
_chemical_formula_sum "Si O2"
_cell_formula_units_Z 52
_cell_length_a 19.752669
_cell_length_b 5.022140
_cell_length_c 21.053411
_cell_angle_alpha 90.000000
_cell_angle_beta 90.000000
_cell_angle_gamma 90.000000
_cell_volume 2088.512458
_symmetry_space_group_name_H-M "A B A 2"
_symmetry_group_IT_number 41
_symmetry_cell_setting 'orthorhombic'
loop_
_space_group_symop_operation_xyz
x,y,z
-x,-y,z
1/2-x,y,1/2+z
1/2+x,-y,1/2+z
x,1/2+y,1/2+z
-x,1/2-y,1/2+z
1/2-x,1/2+y,z
1/2+x,1/2-y,z
loop_
_atom_site_type_symbol
_atom_site_label
_atom_site_fract_x
_atom_site_fract_y
_atom_site_fract_z
Si Si1 0.500000 0.000000 0.509990
Si Si2 0.597088 0.732149 0.187044
Si Si3 0.297985 0.554585 0.099997
Si Si4 0.630740 0.465917 0.383301
Si Si5 0.287704 0.314156 0.272553
Si Si6 0.500000 0.000000 0.793482
Si Si7 0.000000 0.500000 0.093638
Si Si8 0.138471 0.522713 0.460238
O O1 0.479608 0.245867 0.553339
O O2 0.563561 0.097488 0.470765
O O3 0.636780 0.507706 0.144748
O O4 0.657491 0.831582 0.229875
O O5 0.540177 0.675347 0.240859
O O6 0.562891 0.919358 0.136558
O O7 0.260528 0.833354 0.111155
O O8 0.320912 0.523442 0.026187
O O9 0.680985 0.652210 0.341819
O O10 0.562514 0.415311 0.340556
O O11 0.664379 0.191902 0.408208
O O12 0.621914 0.674296 0.440649
O O13 0.275590 0.625876 0.260842
#
# Coordination Sequence:
#
# PCOD9367634 Si02
#       8
#     4   8   8   8   8   4   4   8
#     4  12  25  44  71 104 149 183 242 292 378 438
#     4  11  26  46  75 106 150 190 246 304 376 440
#     4  12  28  46  71 106 150 196 247 297 365 445
#     4  11  25  45  75 104 144 189 247 302 366 431
#     4  11  25  46  72 103 142 194 248 300 356 427
#     4  10  25  49  72 112 141 189 244 310 370 438
#     4  12  26  43  73 106 144 190 232 302 370 454
#     4  12  25  46  74 105 147 192 237 307 366 439
#
# _framework density 24.898104
#
# number of rings (size 3 to 8) (size 9 to 14) (size 15 to 20)
#    0.000    0.615    1.538    5.077    2.154    9.846 
#    0.000    0.000    0.000    0.000    0.000    0.000 
#    0.000    0.000    0.000    0.000    0.000    0.000 
#
# Total GULP energy -145104.528393 kJ/mol
# GULP energy per Si atom -5580.943400 kJ/mol
# Density = 2.484143 g / cm^3
# Si number density = 24.898104 Si / 1000 Ang^3
#
#
#
# Elastic Constant Matrix: (Units=GPa)
#
#
# Indices 1 2 3 4 5 6 
#
# 1 70.2750 29.8711 18.4615 0.0000 0.0000 0.0000
# 2 29.8711 116.9426 41.1652 0.0000 0.0000 0.0000
# 3 18.4615 41.1652 74.2765 0.0000 0.0000 0.0000
# 4 0.0000 0.0000 0.0000 -15.5104 0.0000 0.0000
# 5 0.0000 0.0000 0.0000 0.0000 548.1641 0.0000
# 6 0.0000 0.0000 0.0000 0.0000 0.0000 33.1522
#
#
#
# Elastic Compliance Matrix: (Units=1/GPa)
#
#
# Indices 1 2 3 4 5 6 
#
# 1 0.016237 -0.003388 -0.002158 0.000000 0.000000 0.000000
# 2 -0.003388 0.011331 -0.005438 0.000000 0.000000 0.000000
# 3 -0.002158 -0.005438 0.017013 0.000000 0.000000 0.000000
# 4 0.000000 0.000000 0.000000 -0.064473 0.000000 0.000000
# 5 0.000000 0.000000 0.000000 0.000000 0.001824 0.000000
# 6 0.000000 0.000000 0.000000 0.000000 0.000000 0.030164
#
#
# Mechanical properties :
#
#
# Convention : Reuss Voigt Hill
#
# Bulk Modulus (GPa) = 44.22097 48.94329 46.58213
# Shear Modulus (GPa) = 120.19030 124.62761 122.40895
#
# Velocity S-wave (km/s) = 6.95541 7.08264 7.01931
# Velocity P-wave (km/s) = 9.07209 9.30511 9.18934
#
# Compressibility (1/GPa) = 0.02261371
#
# Stress axis : x y z
#
# Youngs Moduli (GPa) = 61.58869 88.25616 58.77783
#
# Poissons Ratio (x) = 0.29899 0.12685
# Poissons Ratio (y) = 0.20865 0.31961
# Poissons Ratio (z) = 0.13292 0.47990
#
# Static dielectric constant tensor:
#      x y z
#    x -0.939830 0.000000 0.000000 
#    y 0.000000 2.060150 0.000000 
#    z 0.000000 0.000000 2.066430 
# 
# From -- ./inp_files/11704.got.cif
#   From: 2010.05.17/outbox.cif.g08.bks.cpg/sg41_6_cif.got.tgz:11704.got - 2010.06.03 18:54:24.
