data_PCOD9367506
_publ_section_title
;
Structure prediction by ZEFSAII (Michael W. Deem and Ramdas Pophale) SiO2 
 PCOD9367506
Probable space group: A B A 2
;
_chemical_formula_sum "Si O2"
_cell_formula_units_Z 32
_cell_length_a 11.229832
_cell_length_b 12.357537
_cell_length_c 8.988452
_cell_angle_alpha 90.000000
_cell_angle_beta 90.000000
_cell_angle_gamma 90.000000
_cell_volume 1247.355029
_symmetry_space_group_name_H-M "A B A 2"
_symmetry_group_IT_number 41
_symmetry_cell_setting 'orthorhombic'
loop_
_space_group_symop_operation_xyz
x,y,z
-x,-y,z
1/2-x,y,1/2+z
1/2+x,-y,1/2+z
x,1/2+y,1/2+z
-x,1/2-y,1/2+z
1/2-x,1/2+y,z
1/2+x,1/2-y,z
loop_
_atom_site_type_symbol
_atom_site_label
_atom_site_fract_x
_atom_site_fract_y
_atom_site_fract_z
Si Si1 0.026117 0.210810 0.258490
Si Si2 0.851015 0.313490 0.465282
Si Si3 0.664312 0.486221 0.390862
Si Si4 0.712517 0.631212 0.658467
O O1 0.904300 0.257119 0.320732
O O2 0.929831 0.393126 0.850943
O O3 0.241244 0.265774 0.051958
O O4 0.042868 0.177771 0.086095
O O5 0.787377 0.422446 0.421819
O O6 0.119031 0.311374 0.269020
O O7 0.645185 0.552626 0.541688
O O8 0.691824 0.561070 0.247759
#
# Coordination Sequence:
#
# PCOD9367506 Si02
#       4
#     8   8   8   8
#     4  10  25  44  68 101 140 177 227 288 340 408
#     4  10  25  44  68 101 140 177 227 288 340 408
#     4  12  22  46  72  98 136 190 226 282 344 402
#     4  10  24  43  68 100 134 179 232 278 338 413
#
# _framework density 25.654283
#
# number of rings (size 3 to 8) (size 9 to 14) (size 15 to 20)
#    1.500    0.000    2.500    1.500    3.500    4.000 
#    4.500    2.500    0.000    0.000    0.000    0.000 
#    0.000    0.000    0.000    0.000    0.000    0.000 
#
# Total GULP energy -89432.756226 kJ/mol
# GULP energy per Si atom -5589.547264 kJ/mol
# Density = 2.559589 g / cm^3
# Si number density = 25.654283 Si / 1000 Ang^3
#
#
#
# Elastic Constant Matrix: (Units=GPa)
#
#
# Indices 1 2 3 4 5 6 
#
# 1 60.0055 18.4132 36.6900 0.0000 0.0000 0.0000
# 2 18.4132 124.5184 40.1174 0.0000 0.0000 0.0000
# 3 36.6900 40.1174 117.8894 0.0000 0.0000 0.0000
# 4 0.0000 0.0000 0.0000 38.2955 0.0000 0.0000
# 5 0.0000 0.0000 0.0000 0.0000 42.4635 0.0000
# 6 0.0000 0.0000 0.0000 0.0000 0.0000 26.6197
#
#
#
# Elastic Compliance Matrix: (Units=1/GPa)
#
#
# Indices 1 2 3 4 5 6 
#
# 1 0.020717 -0.001108 -0.006071 0.000000 0.000000 0.000000
# 2 -0.001108 0.009079 -0.002745 0.000000 0.000000 0.000000
# 3 -0.006071 -0.002745 0.011306 0.000000 0.000000 0.000000
# 4 0.000000 0.000000 0.000000 0.026113 0.000000 0.000000
# 5 0.000000 0.000000 0.000000 0.000000 0.023550 0.000000
# 6 0.000000 0.000000 0.000000 0.000000 0.000000 0.037566
#
#
# Mechanical properties :
#
#
# Convention : Reuss Voigt Hill
#
# Bulk Modulus (GPa) = 47.04656 54.76163 50.90410
# Shear Modulus (GPa) = 32.20364 35.28859 33.74611
#
# Velocity S-wave (km/s) = 3.54685 3.71286 3.63080
# Velocity P-wave (km/s) = 5.92892 6.30656 6.12065
#
# Compressibility (1/GPa) = 0.02125554
#
# Stress axis : x y z
#
# Youngs Moduli (GPa) = 48.26976 110.14340 88.44921
#
# Poissons Ratio (x) = 0.12200 0.53695
# Poissons Ratio (y) = 0.05347 0.24278
# Poissons Ratio (z) = 0.29303 0.30233
#
# Static dielectric constant tensor:
#      x y z
#    x 2.071210 0.000000 0.000000 
#    y 0.000000 1.987060 0.000000 
#    z 0.000000 0.000000 1.959410 
# 
# From -- ./inp_files/2348.got.cif
#   From: 2010.05.17/outbox.cif.g08.bks.cpg/sg41_2_cif.got.tgz:2348.got - 2010.06.03 18:54:24.
