data_PCOD9367469
_publ_section_title
;
Structure prediction by ZEFSAII (Michael W. Deem and Ramdas Pophale) SiO2 
 PCOD9367469
Probable space group: A B A 2
;
_chemical_formula_sum "Si O2"
_cell_formula_units_Z 60
_cell_length_a 28.843294
_cell_length_b 11.704835
_cell_length_c 8.583250
_cell_angle_alpha 90.000000
_cell_angle_beta 90.000000
_cell_angle_gamma 90.000000
_cell_volume 2897.756675
_symmetry_space_group_name_H-M "A B A 2"
_symmetry_group_IT_number 41
_symmetry_cell_setting 'orthorhombic'
loop_
_space_group_symop_operation_xyz
x,y,z
-x,-y,z
1/2-x,y,1/2+z
1/2+x,-y,1/2+z
x,1/2+y,1/2+z
-x,1/2-y,1/2+z
1/2-x,1/2+y,z
1/2+x,1/2-y,z
loop_
_atom_site_type_symbol
_atom_site_label
_atom_site_fract_x
_atom_site_fract_y
_atom_site_fract_z
Si Si1 0.746271 0.004030 0.787830
Si Si2 0.314662 0.111105 0.054656
Si Si3 0.500000 0.000000 0.935928
Si Si4 0.812567 0.120194 0.020120
Si Si5 0.956338 0.813651 0.204288
Si Si6 0.457992 0.300980 0.007197
Si Si7 0.406456 0.023225 0.503585
Si Si8 0.082927 0.570976 0.141292
O O1 0.780501 0.916870 0.698719
O O2 0.715089 0.073294 0.668000
O O3 0.712655 0.939052 0.907020
O O4 0.779082 0.093240 0.876346
O O5 0.322565 0.246145 0.035688
O O6 0.364616 0.052384 0.081980
O O7 0.514858 0.897335 0.820821
O O8 0.544905 0.006253 0.050322
O O9 0.857980 0.042288 0.003980
O O10 0.947117 0.711241 0.323480
O O11 0.912052 0.876022 0.129916
O O12 0.989120 0.784879 0.059439
O O13 0.443283 0.427268 0.054193
O O14 0.430648 0.200911 0.095125
O O15 0.417872 0.060716 0.327649
#
# Coordination Sequence:
#
# PCOD9367469 Si02
#       8
#     8   8   4   8   8   8   8   8
#     4  10  24  42  70  96 131 167 212 276 327 400
#     4  11  22  45  66  98 133 166 218 269 329 396
#     4  10  24  40  66  94 130 176 224 272 326 388
#     4  11  23  42  68  96 129 172 213 264 340 389
#     4  11  24  42  65  94 127 172 229 269 326 384
#     4  11  24  42  64  91 127 175 217 273 322 382
#     4  12  24  42  64  92 133 170 216 272 328 387
#     4  11  25  42  65  95 135 173 221 271 324 393
#
# _framework density 20.705673000000001
#
# number of rings (size 3 to 8) (size 9 to 14) (size 15 to 20)
#    0.000    1.067    4.000    1.600    9.333    0.000 
#    0.000    0.000    0.000    0.000    0.000    0.000 
#    0.000    0.000    0.000    0.000    0.000    0.000 
#
# Total GULP energy -167573.684855 kJ/mol
# GULP energy per Si atom -5585.789495 kJ/mol
# Density = 2.065855 g / cm^3
# Si number density = 20.705673 Si / 1000 Ang^3
#
#
#
# Elastic Constant Matrix: (Units=GPa)
#
#
# Indices 1 2 3 4 5 6 
#
# 1 108.0726 16.2004 41.8818 0.0000 0.0000 0.0000
# 2 16.2004 41.0215 22.5326 0.0000 0.0000 0.0000
# 3 41.8818 22.5326 110.1536 0.0000 0.0000 0.0000
# 4 0.0000 0.0000 0.0000 22.8084 0.0000 0.0000
# 5 0.0000 0.0000 0.0000 0.0000 43.3656 0.0000
# 6 0.0000 0.0000 0.0000 0.0000 0.0000 35.6647
#
#
#
# Elastic Compliance Matrix: (Units=1/GPa)
#
#
# Indices 1 2 3 4 5 6 
#
# 1 0.011044 -0.002315 -0.003725 0.000000 0.000000 0.000000
# 2 -0.002315 0.027949 -0.004837 0.000000 0.000000 0.000000
# 3 -0.003725 -0.004837 0.011484 0.000000 0.000000 0.000000
# 4 0.000000 0.000000 0.000000 0.043843 0.000000 0.000000
# 5 0.000000 0.000000 0.000000 0.000000 0.023060 0.000000
# 6 0.000000 0.000000 0.000000 0.000000 0.000000 0.028039
#
#
# Mechanical properties :
#
#
# Convention : Reuss Voigt Hill
#
# Bulk Modulus (GPa) = 34.81686 46.71970 40.76828
# Shear Modulus (GPa) = 28.28900 32.27662 30.28281
#
# Velocity S-wave (km/s) = 3.70028 3.95249 3.82846
# Velocity P-wave (km/s) = 5.92518 6.59107 6.26698
#
# Compressibility (1/GPa) = 0.02872172
#
# Stress axis : x y z
#
# Youngs Moduli (GPa) = 90.54846 35.78005 87.07698
#
# Poissons Ratio (x) = 0.08284 0.32440
# Poissons Ratio (y) = 0.20963 0.42117
# Poissons Ratio (z) = 0.33733 0.17306
#
# Static dielectric constant tensor:
#      x y z
#    x 1.741070 0.000000 0.000000 
#    y 0.000000 1.747940 0.000000 
#    z 0.000000 0.000000 1.750410 
# 
# From -- ./inp_files/3814.got.cif
#   From: 2010.05.17/outbox.cif.g08.bks.cpg/sg41_2_cif.got.tgz:3814.got - 2010.06.03 18:54:24.
