data_PCOD9367685
_publ_section_title
;
Structure prediction by ZEFSAII (Michael W. Deem and Ramdas Pophale) SiO2 
 PCOD9367685
Probable space group: A B A 2
;
_chemical_formula_sum "Si O2"
_cell_formula_units_Z 56
_cell_length_a 14.318787
_cell_length_b 14.376025
_cell_length_c 11.889244
_cell_angle_alpha 90.000000
_cell_angle_beta 90.000000
_cell_angle_gamma 90.000000
_cell_volume 2447.368062
_symmetry_space_group_name_H-M "A B A 2"
_symmetry_group_IT_number 41
_symmetry_cell_setting 'orthorhombic'
loop_
_space_group_symop_operation_xyz
x,y,z
-x,-y,z
1/2-x,y,1/2+z
1/2+x,-y,1/2+z
x,1/2+y,1/2+z
-x,1/2-y,1/2+z
1/2-x,1/2+y,z
1/2+x,1/2-y,z
loop_
_atom_site_type_symbol
_atom_site_label
_atom_site_fract_x
_atom_site_fract_y
_atom_site_fract_z
Si Si1 0.921667 0.440496 0.724590
Si Si2 0.356631 0.764086 0.544790
Si Si3 0.447252 0.758969 0.113630
Si Si4 0.310591 0.739485 0.902971
Si Si5 0.597598 0.539029 0.987240
Si Si6 0.778978 0.943649 0.812592
Si Si7 0.720273 0.636413 0.722312
O O1 0.953380 0.342808 0.671774
O O2 0.900222 0.505037 0.616067
O O3 0.830249 0.426072 0.796787
O O4 0.000000 0.500000 0.788222
O O5 0.446091 0.710986 0.592924
O O6 0.280442 0.707442 0.474894
O O7 0.400886 0.850314 0.475141
O O8 0.290900 0.821010 0.630875
O O9 0.379346 0.817074 0.194945
O O10 0.392962 0.753519 0.992925
O O11 0.327841 0.657137 0.813551
O O12 0.273348 0.829715 0.836275
O O13 0.500000 0.500000 0.939720
O O14 0.683323 0.491071 0.925501
O O15 0.796576 0.026111 0.723085
#
# Coordination Sequence:
#
# PCOD9367685 Si02
#       7
#     8   8   8   8   8   8   8
#     4  11  20  38  66  90 118 169 211 257 317 385
#     4  11  22  42  62  90 126 164 214 259 316 385
#     4  11  22  42  62  90 126 164 214 259 316 385
#     4  11  24  39  64  94 123 167 208 263 318 369
#     4  11  20  38  66  90 118 169 211 257 317 385
#     4  12  22  40  64  92 128 158 212 266 308 382
#     4  11  24  39  64  94 123 167 208 263 318 369
#
# _framework density 22.881723000000001
#
# number of rings (size 3 to 8) (size 9 to 14) (size 15 to 20)
#    0.000    0.857    8.571    0.000    0.000    1.143 
#    5.143    0.000    0.000    1.714    0.000    0.000 
#    0.000    0.000    0.000    0.000    0.000    0.000 
#
# Total GULP energy -156202.929793 kJ/mol
# GULP energy per Si atom -5578.676064 kJ/mol
# Density = 2.282964 g / cm^3
# Si number density = 22.881723 Si / 1000 Ang^3
#
#
#
# Elastic Constant Matrix: (Units=GPa)
#
#
# Indices 1 2 3 4 5 6 
#
# 1 94.5324 -10.5793 42.3524 0.0000 0.0000 0.0000
# 2 -10.5793 55.9625 5.7122 0.0000 0.0000 0.0000
# 3 42.3524 5.7122 52.1165 0.0000 0.0000 0.0000
# 4 0.0000 0.0000 0.0000 19.1735 0.0000 0.0000
# 5 0.0000 0.0000 0.0000 0.0000 31.9577 0.0000
# 6 0.0000 0.0000 0.0000 0.0000 0.0000 25.0369
#
#
#
# Elastic Compliance Matrix: (Units=1/GPa)
#
#
# Indices 1 2 3 4 5 6 
#
# 1 0.017880 0.004918 -0.015069 0.000000 0.000000 0.000000
# 2 0.004918 0.019424 -0.006126 0.000000 0.000000 0.000000
# 3 -0.015069 -0.006126 0.032105 0.000000 0.000000 0.000000
# 4 0.000000 0.000000 0.000000 0.052155 0.000000 0.000000
# 5 0.000000 0.000000 0.000000 0.000000 0.031291 0.000000
# 6 0.000000 0.000000 0.000000 0.000000 0.000000 0.039941
#
#
# Mechanical properties :
#
#
# Convention : Reuss Voigt Hill
#
# Bulk Modulus (GPa) = 27.13275 30.84243 28.98759
# Shear Modulus (GPa) = 21.04054 26.24203 23.64129
#
# Velocity S-wave (km/s) = 3.03567 3.39020 3.21782
# Velocity P-wave (km/s) = 4.91637 5.36963 5.14799
#
# Compressibility (1/GPa) = 0.03685583
#
# Stress axis : x y z
#
# Youngs Moduli (GPa) = 55.92789 51.48229 31.14751
#
# Poissons Ratio (x) = -0.25321 0.46937
# Poissons Ratio (y) = -0.27507 0.19080
# Poissons Ratio (z) = 0.84280 0.31537
#
# Static dielectric constant tensor:
#      x y z
#    x 1.910890 0.000000 0.000000 
#    y 0.000000 1.877650 0.000000 
#    z 0.000000 0.000000 1.906320 
# 
# From -- ./inp_files/5597.got.cif
#   From: 2010.05.17/outbox.cif.g08.bks.cpg/sg41_3_cif.got.tgz:5597.got - 2010.06.03 18:54:24.
