data_PCOD9367900
_publ_section_title
;
Structure prediction by ZEFSAII (Michael W. Deem and Ramdas Pophale) SiO2 
 PCOD9367900
Probable space group: A B A 2
;
_chemical_formula_sum "Si O2"
_cell_formula_units_Z 48
_cell_length_a 4.939268
_cell_length_b 27.084944
_cell_length_c 13.908478
_cell_angle_alpha 90.000000
_cell_angle_beta 90.000000
_cell_angle_gamma 90.000000
_cell_volume 1860.673366
_symmetry_space_group_name_H-M "A B A 2"
_symmetry_group_IT_number 41
_symmetry_cell_setting 'orthorhombic'
loop_
_space_group_symop_operation_xyz
x,y,z
-x,-y,z
1/2-x,y,1/2+z
1/2+x,-y,1/2+z
x,1/2+y,1/2+z
-x,1/2-y,1/2+z
1/2-x,1/2+y,z
1/2+x,1/2-y,z
loop_
_atom_site_type_symbol
_atom_site_label
_atom_site_fract_x
_atom_site_fract_y
_atom_site_fract_z
Si Si1 0.409248 0.891867 0.845610
Si Si2 0.748364 0.221991 0.136494
Si Si3 0.757678 0.967680 0.625900
Si Si4 0.059684 0.070217 0.951155
Si Si5 0.296978 0.887591 0.129951
Si Si6 0.735126 0.218474 0.367731
O O1 0.706885 0.901419 0.889535
O O2 0.370958 0.889933 0.730269
O O3 0.306198 0.838553 0.886002
O O4 0.193126 0.932850 0.879963
O O5 0.551109 0.265889 0.107680
O O6 0.651321 0.169031 0.103914
O O7 0.734450 0.220250 0.251807
O O8 0.728083 0.970692 0.509335
O O9 0.500000 0.000000 0.663261
O O10 0.086839 0.085350 0.638881
O O11 0.000000 0.000000 0.665289
O O12 0.900042 0.090769 0.047429
O O13 0.451956 0.240810 0.399783
#
# Coordination Sequence:
#
# PCOD9367900 Si02
#       6
#     8   8   8   8   8   8
#     4  11  25  42  73 105 141 198 248 298 371 447
#     4   9  20  35  63 100 142 198 250 293 368 441
#     4  12  25  48  78 103 142 198 241 310 392 449
#     4  12  25  46  72 105 143 188 249 296 383 446
#     4  11  26  46  78 105 158 196 250 319 375 437
#     4   9  17  35  58  92 138 188 240 300 357 423
#
# _framework density 25.797114000000001
#
# number of rings (size 3 to 8) (size 9 to 14) (size 15 to 20)
#    0.000    1.333    3.333    1.000    4.667    2.667 
#    0.000    8.333    3.667    0.000    0.000    0.000 
#    0.000    0.000    0.000    0.000    0.000    0.000 
#
# Total GULP energy -133761.823770 kJ/mol
# GULP energy per Si atom -5573.409324 kJ/mol
# Density = 2.573840 g / cm^3
# Si number density = 25.797114 Si / 1000 Ang^3
#
#
#
# Elastic Constant Matrix: (Units=GPa)
#
#
# Indices 1 2 3 4 5 6 
#
# 1 196.4611 19.7159 29.0570 0.0000 0.0000 0.0000
# 2 19.7159 154.9454 -22.1516 0.0000 0.0000 0.0000
# 3 29.0570 -22.1516 172.2396 0.0000 0.0000 0.0000
# 4 0.0000 0.0000 0.0000 55.8687 0.0000 0.0000
# 5 0.0000 0.0000 0.0000 0.0000 21.8261 0.0000
# 6 0.0000 0.0000 0.0000 0.0000 0.0000 26.8073
#
#
#
# Elastic Compliance Matrix: (Units=1/GPa)
#
#
# Indices 1 2 3 4 5 6 
#
# 1 0.005321 -0.000820 -0.001003 0.000000 0.000000 0.000000
# 2 -0.000820 0.006701 0.001000 0.000000 0.000000 0.000000
# 3 -0.001003 0.001000 0.006104 0.000000 0.000000 0.000000
# 4 0.000000 0.000000 0.000000 0.017899 0.000000 0.000000
# 5 0.000000 0.000000 0.000000 0.000000 0.045817 0.000000
# 6 0.000000 0.000000 0.000000 0.000000 0.000000 0.037303
#
#
# Mechanical properties :
#
#
# Convention : Reuss Voigt Hill
#
# Bulk Modulus (GPa) = 60.68280 64.09875 62.39077
# Shear Modulus (GPa) = 39.59315 54.03543 46.81429
#
# Velocity S-wave (km/s) = 3.92189 4.58168 4.26456
# Velocity P-wave (km/s) = 6.63946 7.27257 6.96321
#
# Compressibility (1/GPa) = 0.01647913
#
# Stress axis : x y z
#
# Youngs Moduli (GPa) = 187.94281 149.22516 163.83403
#
# Poissons Ratio (x) = 0.12243 0.16435
# Poissons Ratio (y) = 0.15420 -0.16388
# Poissons Ratio (z) = 0.18853 -0.14926
#
# Static dielectric constant tensor:
#      x y z
#    x 2.375140 0.000000 0.000000 
#    y 0.000000 2.307480 0.000000 
#    z 0.000000 0.000000 2.043010 
# 
# From -- ./inp_files/6894.got.cif
#   From: 2010.05.17/outbox.cif.g08.bks.cpg/sg41_4_cif.got.tgz:6894.got - 2010.06.03 18:54:24.
