data_PCOD9367871
_publ_section_title
;
Structure prediction by ZEFSAII (Michael W. Deem and Ramdas Pophale) SiO2 
 PCOD9367871
Probable space group: A B A 2
;
_chemical_formula_sum "Si O2"
_cell_formula_units_Z 48
_cell_length_a 13.619615
_cell_length_b 8.996810
_cell_length_c 16.317418
_cell_angle_alpha 90.000000
_cell_angle_beta 90.000000
_cell_angle_gamma 90.000000
_cell_volume 1999.423623
_symmetry_space_group_name_H-M "A B A 2"
_symmetry_group_IT_number 41
_symmetry_cell_setting 'orthorhombic'
loop_
_space_group_symop_operation_xyz
x,y,z
-x,-y,z
1/2-x,y,1/2+z
1/2+x,-y,1/2+z
x,1/2+y,1/2+z
-x,1/2-y,1/2+z
1/2-x,1/2+y,z
1/2+x,1/2-y,z
loop_
_atom_site_type_symbol
_atom_site_label
_atom_site_fract_x
_atom_site_fract_y
_atom_site_fract_z
Si Si1 0.079542 0.872719 0.571740
Si Si2 0.834941 0.421673 0.578284
Si Si3 0.183909 0.675437 0.825955
Si Si4 0.744515 0.076244 0.935970
Si Si5 0.524718 0.153975 0.242308
Si Si6 0.820539 0.229837 0.174129
O O1 0.073234 0.692078 0.575846
O O2 0.159843 0.897683 0.502249
O O3 0.099172 0.896681 0.669058
O O4 0.000000 0.000000 0.553206
O O5 0.822819 0.482651 0.487144
O O6 0.739391 0.322270 0.604596
O O7 0.833750 0.560677 0.641290
O O8 0.206814 0.774484 0.904914
O O9 0.203435 0.510242 0.856707
O O10 0.076305 0.719444 0.794613
O O11 0.257275 0.729725 0.754829
O O12 0.428468 0.212564 0.196895
O O13 0.500000 0.000000 0.288492
#
# Coordination Sequence:
#
# PCOD9367871 Si02
#       6
#     8   8   8   8   8   8
#     4  11  24  45  74 104 146 192 253 311 362 451
#     4  12  22  48  76 106 140 199 254 305 379 448
#     4  12  25  45  71 106 149 190 242 301 383 449
#     4  12  24  44  73 101 147 201 231 301 383 449
#     4  11  24  46  74 107 144 191 253 315 362 447
#     4  12  25  46  81 104 144 195 253 316 374 449
#
# _framework density 24.006917999999999
#
# number of rings (size 3 to 8) (size 9 to 14) (size 15 to 20)
#    0.000    0.333    5.000    5.000    0.000    2.000 
#    3.000    0.000    0.000    0.000    0.000    0.000 
#    0.000    0.000    0.000    0.000    0.000    0.000 
#
# Total GULP energy -134007.774699 kJ/mol
# GULP energy per Si atom -5583.657279 kJ/mol
# Density = 2.395228 g / cm^3
# Si number density = 24.006918 Si / 1000 Ang^3
#
#
#
# Elastic Constant Matrix: (Units=GPa)
#
#
# Indices 1 2 3 4 5 6 
#
# 1 73.3189 18.6101 15.2821 0.0000 0.0000 0.0000
# 2 18.6101 124.9126 4.8792 0.0000 0.0000 0.0000
# 3 15.2821 4.8792 76.6073 0.0000 0.0000 0.0000
# 4 0.0000 0.0000 0.0000 47.3336 0.0000 0.0000
# 5 0.0000 0.0000 0.0000 0.0000 21.9375 0.0000
# 6 0.0000 0.0000 0.0000 0.0000 0.0000 30.9252
#
#
#
# Elastic Compliance Matrix: (Units=1/GPa)
#
#
# Indices 1 2 3 4 5 6 
#
# 1 0.014755 -0.002088 -0.002810 0.000000 0.000000 0.000000
# 2 -0.002088 0.008321 -0.000113 0.000000 0.000000 0.000000
# 3 -0.002810 -0.000113 0.013621 0.000000 0.000000 0.000000
# 4 0.000000 0.000000 0.000000 0.021127 0.000000 0.000000
# 5 0.000000 0.000000 0.000000 0.000000 0.045584 0.000000
# 6 0.000000 0.000000 0.000000 0.000000 0.000000 0.032336
#
#
# Mechanical properties :
#
#
# Convention : Reuss Voigt Hill
#
# Bulk Modulus (GPa) = 37.49099 39.15352 38.32225
# Shear Modulus (GPa) = 32.32900 35.77706 34.05303
#
# Velocity S-wave (km/s) = 3.67366 3.86460 3.77034
# Velocity P-wave (km/s) = 5.80043 6.02148 5.91199
#
# Compressibility (1/GPa) = 0.02667308
#
# Stress axis : x y z
#
# Youngs Moduli (GPa) = 67.77385 120.17522 73.41362
#
# Poissons Ratio (x) = 0.25099 0.20632
# Poissons Ratio (y) = 0.14155 0.00832
# Poissons Ratio (z) = 0.19047 0.01362
#
# Static dielectric constant tensor:
#      x y z
#    x 2.003270 0.000000 0.000000 
#    y 0.000000 2.026200 0.000000 
#    z 0.000000 0.000000 1.905020 
# 
# From -- ./inp_files/10311.got.cif
#   From: 2010.05.17/outbox.cif.g08.bks.cpg/sg41_6_cif.got.tgz:10311.got - 2010.06.03 18:54:24.
