data_PCOD9367446
_publ_section_title
;
Structure prediction by ZEFSAII (Michael W. Deem and Ramdas Pophale) SiO2 
 PCOD9367446
Probable space group: A B A 2
;
_chemical_formula_sum "Si O2"
_cell_formula_units_Z 40
_cell_length_a 17.349061
_cell_length_b 8.493329
_cell_length_c 10.994762
_cell_angle_alpha 90.000000
_cell_angle_beta 90.000000
_cell_angle_gamma 90.000000
_cell_volume 1620.092286
_symmetry_space_group_name_H-M "A B A 2"
_symmetry_group_IT_number 41
_symmetry_cell_setting 'orthorhombic'
loop_
_space_group_symop_operation_xyz
x,y,z
-x,-y,z
1/2-x,y,1/2+z
1/2+x,-y,1/2+z
x,1/2+y,1/2+z
-x,1/2-y,1/2+z
1/2-x,1/2+y,z
1/2+x,1/2-y,z
loop_
_atom_site_type_symbol
_atom_site_label
_atom_site_fract_x
_atom_site_fract_y
_atom_site_fract_z
Si Si1 0.365101 0.039077 0.710550
Si Si2 0.121696 0.377711 0.955948
Si Si3 0.500000 0.000000 0.533522
Si Si4 0.384415 0.538711 0.837076
Si Si5 0.727503 0.145979 0.173684
Si Si6 0.000000 0.000000 0.626018
O O1 0.439926 0.072401 0.630916
O O2 0.304409 0.178831 0.690288
O O3 0.384911 0.005612 0.849896
O O4 0.317993 0.883324 0.670350
O O5 0.132924 0.204411 0.900341
O O6 0.190857 0.414187 0.047980
O O7 0.044856 0.383182 0.037289
O O8 0.436748 0.938886 0.433137
O O9 0.310528 0.446995 0.787463
O O10 0.436913 0.570257 0.717883
#
# Coordination Sequence:
#
# PCOD9367446 Si02
#       6
#     8   8   4   8   8   4
#     4  12  27  48  79 113 151 204 256 317 388 458
#     4  11  24  45  74 105 154 196 252 309 381 450
#     4  11  25  44  80 112 149 195 256 312 382 443
#     4  10  23  47  73 109 153 196 252 318 375 456
#     4  11  27  51  71 112 151 202 259 310 387 465
#     4   9  23  40  70 112 147 191 246 314 378 451
#
# _framework density 24.689951000000001
#
# number of rings (size 3 to 8) (size 9 to 14) (size 15 to 20)
#    0.000    1.200    2.000    1.800    5.600    8.000 
#    3.600    0.000    0.000    0.000    0.000    0.000 
#    0.000    0.000    0.000    0.000    0.000    0.000 
#
# Total GULP energy -111733.730112 kJ/mol
# GULP energy per Si atom -5586.686506 kJ/mol
# Density = 2.463376 g / cm^3
# Si number density = 24.689951 Si / 1000 Ang^3
#
#
#
# Elastic Constant Matrix: (Units=GPa)
#
#
# Indices 1 2 3 4 5 6 
#
# 1 80.4378 26.9710 33.7427 0.0000 0.0000 0.0000
# 2 26.9710 70.7364 43.8064 0.0000 0.0000 0.0000
# 3 33.7427 43.8064 165.4045 0.0000 0.0000 0.0000
# 4 0.0000 0.0000 0.0000 27.8243 0.0000 0.0000
# 5 0.0000 0.0000 0.0000 0.0000 42.8906 0.0000
# 6 0.0000 0.0000 0.0000 0.0000 0.0000 23.1799
#
#
#
# Elastic Compliance Matrix: (Units=1/GPa)
#
#
# Indices 1 2 3 4 5 6 
#
# 1 0.014694 -0.004481 -0.001811 0.000000 0.000000 0.000000
# 2 -0.004481 0.018277 -0.003926 0.000000 0.000000 0.000000
# 3 -0.001811 -0.003926 0.007455 0.000000 0.000000 0.000000
# 4 0.000000 0.000000 0.000000 0.035940 0.000000 0.000000
# 5 0.000000 0.000000 0.000000 0.000000 0.023315 0.000000
# 6 0.000000 0.000000 0.000000 0.000000 0.000000 0.043141
#
#
# Mechanical properties :
#
#
# Convention : Reuss Voigt Hill
#
# Bulk Modulus (GPa) = 50.02639 58.40211 54.21425
# Shear Modulus (GPa) = 29.42518 32.91621 31.17069
#
# Velocity S-wave (km/s) = 3.45597 3.65524 3.55700
# Velocity P-wave (km/s) = 6.01920 6.44359 6.23501
#
# Compressibility (1/GPa) = 0.01998945
#
# Stress axis : x y z
#
# Youngs Moduli (GPa) = 68.05420 54.71270 134.13684
#
# Poissons Ratio (x) = 0.24519 0.24289
# Poissons Ratio (y) = 0.30497 0.52668
# Poissons Ratio (z) = 0.12323 0.21483
#
# Static dielectric constant tensor:
#      x y z
#    x 1.929050 0.000000 0.000000 
#    y 0.000000 2.060600 0.000000 
#    z 0.000000 0.000000 1.950010 
# 
# From -- ./inp_files/5859.got.cif
#   From: 2010.05.17/outbox.cif.g08.bks.cpg/sg41_3_cif.got.tgz:5859.got - 2010.06.03 18:54:24.
