data_PCOD9367060
_publ_section_title
;
Structure prediction by ZEFSAII (Michael W. Deem and Ramdas Pophale) SiO2 
 PCOD9367060
Probable space group: A B A 2
;
_chemical_formula_sum "Si O2"
_cell_formula_units_Z 28
_cell_length_a 9.979784
_cell_length_b 13.753752
_cell_length_c 8.631281
_cell_angle_alpha 90.000000
_cell_angle_beta 90.000000
_cell_angle_gamma 90.000000
_cell_volume 1184.725091
_symmetry_space_group_name_H-M "A B A 2"
_symmetry_group_IT_number 41
_symmetry_cell_setting 'orthorhombic'
loop_
_space_group_symop_operation_xyz
x,y,z
-x,-y,z
1/2-x,y,1/2+z
1/2+x,-y,1/2+z
x,1/2+y,1/2+z
-x,1/2-y,1/2+z
1/2-x,1/2+y,z
1/2+x,1/2-y,z
loop_
_atom_site_type_symbol
_atom_site_label
_atom_site_fract_x
_atom_site_fract_y
_atom_site_fract_z
Si Si1 0.186661 0.039700 0.886920
Si Si2 0.463104 0.150419 0.898467
Si Si3 0.444174 0.352161 0.742452
Si Si4 0.000000 0.000000 0.166613
O O1 0.334931 0.079039 0.911572
O O2 0.094162 0.116626 0.795348
O O3 0.152639 0.938460 0.800054
O O4 0.120562 0.030480 0.055689
O O5 0.414827 0.253074 0.832509
O O6 0.542846 0.093480 0.765492
O O7 0.545297 0.158740 0.057331
#
# Coordination Sequence:
#
# PCOD9367060 Si02
#       4
#     8   8   8   4
#     4  10  23  45  68  99 139 175 219 283 343 398
#     4  12  23  43  73 101 138 181 222 284 339 395
#     4  10  23  43  70 103 134 176 233 273 334 417
#     4  10  22  40  66 100 134 172 224 268 328 410
#
# _framework density 23.634174999999999
#
# number of rings (size 3 to 8) (size 9 to 14) (size 15 to 20)
#    0.000    1.714    0.000    6.857    0.000    2.286 
#    0.000   22.857    0.000    0.000    0.000    0.000 
#    0.000    0.000    0.000    0.000    0.000    0.000 
#
# Total GULP energy -78356.140261 kJ/mol
# GULP energy per Si atom -5596.867162 kJ/mol
# Density = 2.358038 g / cm^3
# Si number density = 23.634175 Si / 1000 Ang^3
#
#
#
# Elastic Constant Matrix: (Units=GPa)
#
#
# Indices 1 2 3 4 5 6 
#
# 1 65.9775 6.2569 3.4058 0.0000 0.0000 0.0000
# 2 6.2569 146.4152 53.5671 0.0000 0.0000 0.0000
# 3 3.4058 53.5671 172.7469 0.0000 0.0000 0.0000
# 4 0.0000 0.0000 0.0000 36.7542 0.0000 0.0000
# 5 0.0000 0.0000 0.0000 0.0000 16.7905 0.0000
# 6 0.0000 0.0000 0.0000 0.0000 0.0000 17.3850
#
#
#
# Elastic Compliance Matrix: (Units=1/GPa)
#
#
# Indices 1 2 3 4 5 6 
#
# 1 0.015220 -0.000610 -0.000111 0.000000 0.000000 0.000000
# 2 -0.000610 0.007728 -0.002384 0.000000 0.000000 0.000000
# 3 -0.000111 -0.002384 0.006530 0.000000 0.000000 0.000000
# 4 0.000000 0.000000 0.000000 0.027208 0.000000 0.000000
# 5 0.000000 0.000000 0.000000 0.000000 0.059557 0.000000
# 6 0.000000 0.000000 0.000000 0.000000 0.000000 0.057521
#
#
# Mechanical properties :
#
#
# Convention : Reuss Voigt Hill
#
# Bulk Modulus (GPa) = 42.97662 56.84436 49.91049
# Shear Modulus (GPa) = 26.63375 35.64659 31.14017
#
# Velocity S-wave (km/s) = 3.36060 3.88785 3.63380
# Velocity P-wave (km/s) = 5.76903 6.65266 6.22654
#
# Compressibility (1/GPa) = 0.02326846
#
# Stress axis : x y z
#
# Youngs Moduli (GPa) = 65.70195 129.39417 153.12998
#
# Poissons Ratio (x) = 0.07891 0.01699
# Poissons Ratio (y) = 0.04007 0.36513
# Poissons Ratio (z) = 0.00729 0.30853
#
# Static dielectric constant tensor:
#      x y z
#    x 1.940080 0.000000 0.000000 
#    y 0.000000 1.891160 0.000000 
#    z 0.000000 0.000000 1.928080 
# 
# From -- ./inp_files/1886.got.cif
#   From: 2010.05.17/outbox.cif.g08.bks.cpg/sg41_1_cif.got.tgz:1886.got - 2010.06.03 18:54:24.
