data_PCOD9367209
_publ_section_title
;
Structure prediction by ZEFSAII (Michael W. Deem and Ramdas Pophale) SiO2 
 PCOD9367209
Probable space group: A B A 2
;
_chemical_formula_sum "Si O2"
_cell_formula_units_Z 48
_cell_length_a 9.265651
_cell_length_b 15.214204
_cell_length_c 14.305421
_cell_angle_alpha 90.000000
_cell_angle_beta 90.000000
_cell_angle_gamma 90.000000
_cell_volume 2016.628110
_symmetry_space_group_name_H-M "A B A 2"
_symmetry_group_IT_number 41
_symmetry_cell_setting 'orthorhombic'
loop_
_space_group_symop_operation_xyz
x,y,z
-x,-y,z
1/2-x,y,1/2+z
1/2+x,-y,1/2+z
x,1/2+y,1/2+z
-x,1/2-y,1/2+z
1/2-x,1/2+y,z
1/2+x,1/2-y,z
loop_
_atom_site_type_symbol
_atom_site_label
_atom_site_fract_x
_atom_site_fract_y
_atom_site_fract_z
Si Si1 0.765355 0.398839 0.176990
Si Si2 0.000000 0.500000 0.101742
Si Si3 0.302703 0.645756 0.964721
Si Si4 0.968858 0.268015 0.876565
Si Si5 0.232452 0.289194 0.756650
Si Si6 0.500000 0.500000 0.962452
Si Si7 0.213988 0.926867 0.103970
O O1 0.710376 0.369707 0.074863
O O2 0.752266 0.316417 0.243421
O O3 0.695526 0.496258 0.183788
O O4 0.933488 0.423345 0.165322
O O5 0.138617 0.458865 0.052540
O O6 0.376991 0.560015 0.916671
O O7 0.142874 0.669110 0.929299
O O8 0.413426 0.724102 0.944016
O O9 0.865692 0.194600 0.826792
O O10 0.075620 0.309594 0.799446
O O11 0.237779 0.337193 0.657754
O O12 0.413303 0.433205 0.030689
#
# Coordination Sequence:
#
# PCOD9367209 Si02
#       7
#     8   4   8   8   8   4   8
#     4   9  21  40  73  94 131 170 236 286 326 385
#     4   8  18  40  59 107 124 152 226 292 324 388
#     4  10  23  47  64  96 136 178 225 278 336 415
#     4  10  25  42  62 100 139 177 223 258 366 418
#     4  11  22  42  67  97 133 182 219 287 340 407
#     4  10  22  44  65  99 130 172 230 296 334 386
#     4   9  21  38  65 101 124 162 235 284 330 394
#
# _framework density 23.802105999999998
#
# number of rings (size 3 to 8) (size 9 to 14) (size 15 to 20)
#    1.000    1.333    0.000    1.000    7.000    1.333 
#    9.000    0.000    0.000    0.000    0.000    0.000 
#    0.000    0.000    0.000    0.000    0.000    0.000 
#
# Total GULP energy -133707.875004 kJ/mol
# GULP energy per Si atom -5571.161459 kJ/mol
# Density = 2.374793 g / cm^3
# Si number density = 23.802106 Si / 1000 Ang^3
#
#
#
# Elastic Constant Matrix: (Units=GPa)
#
#
# Indices 1 2 3 4 5 6 
#
# 1 152.6474 10.6036 18.4012 0.0000 0.0000 0.0000
# 2 10.6036 63.4957 0.0093 0.0000 0.0000 0.0000
# 3 18.4012 0.0093 14.3369 0.0000 0.0000 0.0000
# 4 0.0000 0.0000 0.0000 10.6610 0.0000 0.0000
# 5 0.0000 0.0000 0.0000 0.0000 22.6826 0.0000
# 6 0.0000 0.0000 0.0000 0.0000 0.0000 29.3834
#
#
#
# Elastic Compliance Matrix: (Units=1/GPa)
#
#
# Indices 1 2 3 4 5 6 
#
# 1 0.007858 -0.001311 -0.010085 0.000000 0.000000 0.000000
# 2 -0.001311 0.015968 0.001672 0.000000 0.000000 0.000000
# 3 -0.010085 0.001672 0.082692 0.000000 0.000000 0.000000
# 4 0.000000 0.000000 0.000000 0.093800 0.000000 0.000000
# 5 0.000000 0.000000 0.000000 0.000000 0.044087 0.000000
# 6 0.000000 0.000000 0.000000 0.000000 0.000000 0.034033
#
#
# Mechanical properties :
#
#
# Convention : Reuss Voigt Hill
#
# Bulk Modulus (GPa) = 11.48482 32.05646 21.77064
# Shear Modulus (GPa) = 15.29485 25.97645 20.63565
#
# Velocity S-wave (km/s) = 2.53767 3.30714 2.94763
# Velocity P-wave (km/s) = 3.66360 5.29906 4.55533
#
# Compressibility (1/GPa) = 0.08707142
#
# Stress axis : x y z
#
# Youngs Moduli (GPa) = 127.26278 62.62622 12.09300
#
# Poissons Ratio (x) = 0.08209 0.12195
# Poissons Ratio (y) = 0.16681 -0.02022
# Poissons Ratio (z) = 1.28338 -0.10471
#
# Static dielectric constant tensor:
#      x y z
#    x 1.925790 0.000000 0.000000 
#    y 0.000000 2.017200 0.000000 
#    z 0.000000 0.000000 1.884000 
# 
# From -- ./inp_files/7356.got.cif
#   From: 2010.05.17/outbox.cif.g08.bks.cpg/sg41_4_cif.got.tgz:7356.got - 2010.06.03 18:54:24.
