data_PCOD9367794
_publ_section_title
;
Structure prediction by ZEFSAII (Michael W. Deem and Ramdas Pophale) SiO2 
 PCOD9367794
Probable space group: A B A 2
;
_chemical_formula_sum "Si O2"
_cell_formula_units_Z 64
_cell_length_a 9.805887
_cell_length_b 26.624723
_cell_length_c 12.185007
_cell_angle_alpha 90.000000
_cell_angle_beta 90.000000
_cell_angle_gamma 90.000000
_cell_volume 3181.249749
_symmetry_space_group_name_H-M "A B A 2"
_symmetry_group_IT_number 41
_symmetry_cell_setting 'orthorhombic'
loop_
_space_group_symop_operation_xyz
x,y,z
-x,-y,z
1/2-x,y,1/2+z
1/2+x,-y,1/2+z
x,1/2+y,1/2+z
-x,1/2-y,1/2+z
1/2-x,1/2+y,z
1/2+x,1/2-y,z
loop_
_atom_site_type_symbol
_atom_site_label
_atom_site_fract_x
_atom_site_fract_y
_atom_site_fract_z
Si Si1 0.596467 0.878836 0.068170
Si Si2 0.124715 0.389558 0.255839
Si Si3 0.291475 0.801930 0.415991
Si Si4 0.378462 0.127783 0.697146
Si Si5 0.618768 0.459268 0.380013
Si Si6 0.129098 0.971554 0.927298
Si Si7 0.530141 0.297162 0.383547
Si Si8 0.656398 0.116617 0.587679
O O1 0.476955 0.881600 0.156418
O O2 0.735499 0.869381 0.134586
O O3 0.601167 0.928804 0.993726
O O4 0.565357 0.835053 0.981993
O O5 0.137472 0.342274 0.335629
O O6 0.082339 0.438227 0.324061
O O7 0.274516 0.394431 0.203815
O O8 0.385352 0.753042 0.408833
O O9 0.291995 0.831714 0.532289
O O10 0.134500 0.790901 0.382348
O O11 0.378868 0.080825 0.781232
O O12 0.417693 0.176219 0.771417
O O13 0.495811 0.120494 0.606785
O O14 0.500000 0.500000 0.365027
O O15 0.759595 0.489057 0.388963
O O16 0.190470 0.930276 0.009681
O O17 0.000000 0.000000 0.977529
#
# Coordination Sequence:
#
# PCOD9367794 Si02
#       8
#     8   8   8   8   8   8   8   8
#     4  11  25  43  66  97 135 170 215 268 323 383
#     4  11  23  43  67  92 131 174 214 263 323 385
#     4  11  26  44  69  98 128 167 217 268 327 388
#     4  11  25  43  66  97 135 170 215 268 323 383
#     4  11  24  41  65  96 134 172 218 268 319 375
#     4  11  24  39  63  96 130 170 220 265 312 379
#     4  11  26  46  67  97 132 165 213 272 326 386
#     4  11  23  43  67  92 131 174 214 263 323 385
#
# _framework density 20.11788
#
# number of rings (size 3 to 8) (size 9 to 14) (size 15 to 20)
#    0.000    1.000    2.500    3.000    7.000   10.000 
#    0.000    0.000    0.000    0.000    0.000    0.000 
#    0.000    0.000    0.000    0.000    0.000    0.000 
#
# Total GULP energy -178910.938727 kJ/mol
# GULP energy per Si atom -5590.966835 kJ/mol
# Density = 2.007209 g / cm^3
# Si number density = 20.117880 Si / 1000 Ang^3
#
#
#
# Elastic Constant Matrix: (Units=GPa)
#
#
# Indices 1 2 3 4 5 6 
#
# 1 96.0033 27.2703 -6.0218 0.0000 0.0000 0.0000
# 2 27.2703 106.2193 13.4858 0.0000 0.0000 0.0000
# 3 -6.0218 13.4858 56.0443 0.0000 0.0000 0.0000
# 4 0.0000 0.0000 0.0000 6.5693 0.0000 0.0000
# 5 0.0000 0.0000 0.0000 0.0000 34.6212 0.0000
# 6 0.0000 0.0000 0.0000 0.0000 0.0000 29.5833
#
#
#
# Elastic Compliance Matrix: (Units=1/GPa)
#
#
# Indices 1 2 3 4 5 6 
#
# 1 0.011449 -0.003193 0.001998 0.000000 0.000000 0.000000
# 2 -0.003193 0.010602 -0.002894 0.000000 0.000000 0.000000
# 3 0.001998 -0.002894 0.018754 0.000000 0.000000 0.000000
# 4 0.000000 0.000000 0.000000 0.152223 0.000000 0.000000
# 5 0.000000 0.000000 0.000000 0.000000 0.028884 0.000000
# 6 0.000000 0.000000 0.000000 0.000000 0.000000 0.033803
#
#
# Mechanical properties :
#
#
# Convention : Reuss Voigt Hill
#
# Bulk Modulus (GPa) = 30.64937 36.41506 33.53222
# Shear Modulus (GPa) = 18.19721 29.05693 23.62707
#
# Velocity S-wave (km/s) = 3.01080 3.80456 3.43072
# Velocity P-wave (km/s) = 5.23016 6.11880 5.69185
#
# Compressibility (1/GPa) = 0.03262710
#
# Stress axis : x y z
#
# Youngs Moduli (GPa) = 87.34647 94.32456 53.32155
#
# Poissons Ratio (x) = 0.30118 -0.10656
# Poissons Ratio (y) = 0.27890 0.15432
# Poissons Ratio (z) = -0.17456 0.27299
#
# Static dielectric constant tensor:
#      x y z
#    x 1.696080 0.000000 0.000000 
#    y 0.000000 1.694680 0.000000 
#    z 0.000000 0.000000 1.709080 
# 
# From -- ./inp_files/4643.got.cif
#   From: 2010.05.17/outbox.cif.g08.bks.cpg/sg41_3_cif.got.tgz:4643.got - 2010.06.03 18:54:24.
