data_PCOD9367295
_publ_section_title
;
Structure prediction by ZEFSAII (Michael W. Deem and Ramdas Pophale) SiO2 
 PCOD9367295
Probable space group: A B A 2
;
_chemical_formula_sum "Si O2"
_cell_formula_units_Z 64
_cell_length_a 15.932012
_cell_length_b 12.051857
_cell_length_c 14.212918
_cell_angle_alpha 90.000000
_cell_angle_beta 90.000000
_cell_angle_gamma 90.000000
_cell_volume 2729.027080
_symmetry_space_group_name_H-M "A B A 2"
_symmetry_group_IT_number 41
_symmetry_cell_setting 'orthorhombic'
loop_
_space_group_symop_operation_xyz
x,y,z
-x,-y,z
1/2-x,y,1/2+z
1/2+x,-y,1/2+z
x,1/2+y,1/2+z
-x,1/2-y,1/2+z
1/2-x,1/2+y,z
1/2+x,1/2-y,z
loop_
_atom_site_type_symbol
_atom_site_label
_atom_site_fract_x
_atom_site_fract_y
_atom_site_fract_z
Si Si1 0.401913 0.471102 0.373850
Si Si2 0.710768 0.332088 0.033317
Si Si3 0.046668 0.730189 0.077586
Si Si4 0.462783 0.623263 0.922245
Si Si5 0.878688 0.688070 0.186975
Si Si6 0.358318 0.508805 0.569018
Si Si7 0.371795 0.749938 0.763195
Si Si8 0.698936 0.801389 0.850228
O O1 0.500000 0.500000 0.365411
O O2 0.376695 0.431298 0.479013
O O3 0.377244 0.372516 0.305578
O O4 0.348126 0.581284 0.354398
O O5 0.625815 0.372076 0.980289
O O6 0.686047 0.253788 0.119226
O O7 0.766911 0.436795 0.064783
O O8 0.769939 0.273061 0.955021
O O9 0.073125 0.605199 0.053774
O O10 0.117962 0.763198 0.151830
O O11 0.025269 0.801240 0.986078
O O12 0.966192 0.730426 0.145651
O O13 0.500000 0.500000 0.914365
O O14 0.440789 0.678148 0.821485
O O15 0.871938 0.558724 0.163454
O O16 0.859414 0.716430 0.294112
O O17 0.284330 0.693832 0.790630
#
# Coordination Sequence:
#
# PCOD9367295 Si02
#       8
#     8   8   8   8   8   8   8   8
#     4  11  22  43  69  93 129 179 225 269 329 409
#     4   9  22  42  61  91 129 169 216 263 326 397
#     4  11  24  41  64  96 129 167 217 268 330 395
#     4  10  23  44  67  94 133 172 216 274 332 393
#     4  11  22  40  63  92 128 168 217 271 323 392
#     4  11  22  40  66  93 127 170 215 272 329 385
#     4  11  24  44  64  96 135 171 220 276 331 400
#     4  10  23  40  63  93 127 170 216 267 326 383
#
# _framework density 23.45158
#
# number of rings (size 3 to 8) (size 9 to 14) (size 15 to 20)
#    0.000    1.500    0.000    5.625    0.000    8.500 
#    0.000   12.500    0.000    0.000    0.000    0.000 
#    0.000    0.000    0.000    0.000    0.000    0.000 
#
# Total GULP energy -179075.583709 kJ/mol
# GULP energy per Si atom -5596.111991 kJ/mol
# Density = 2.339820 g / cm^3
# Si number density = 23.451580 Si / 1000 Ang^3
#
#
#
# Elastic Constant Matrix: (Units=GPa)
#
#
# Indices 1 2 3 4 5 6 
#
# 1 118.4816 29.5529 25.2043 0.0000 0.0000 0.0000
# 2 29.5529 85.9599 30.5803 0.0000 0.0000 0.0000
# 3 25.2043 30.5803 97.7492 0.0000 0.0000 0.0000
# 4 0.0000 0.0000 0.0000 25.7122 0.0000 0.0000
# 5 0.0000 0.0000 0.0000 0.0000 24.0744 0.0000
# 6 0.0000 0.0000 0.0000 0.0000 0.0000 28.7208
#
#
#
# Elastic Compliance Matrix: (Units=1/GPa)
#
#
# Indices 1 2 3 4 5 6 
#
# 1 0.009449 -0.002680 -0.001598 0.000000 0.000000 0.000000
# 2 -0.002680 0.013850 -0.003642 0.000000 0.000000 0.000000
# 3 -0.001598 -0.003642 0.011782 0.000000 0.000000 0.000000
# 4 0.000000 0.000000 0.000000 0.038892 0.000000 0.000000
# 5 0.000000 0.000000 0.000000 0.000000 0.041538 0.000000
# 6 0.000000 0.000000 0.000000 0.000000 0.000000 0.034818
#
#
# Mechanical properties :
#
#
# Convention : Reuss Voigt Hill
#
# Bulk Modulus (GPa) = 51.97263 52.54063 52.25663
# Shear Modulus (GPa) = 28.97181 30.15836 29.56508
#
# Velocity S-wave (km/s) = 3.51862 3.58995 3.55447
# Velocity P-wave (km/s) = 6.22233 6.29573 6.25914
#
# Compressibility (1/GPa) = 0.01924090
#
# Stress axis : x y z
#
# Youngs Moduli (GPa) = 105.83690 72.20050 84.87783
#
# Poissons Ratio (x) = 0.19349 0.13562
# Poissons Ratio (y) = 0.28364 0.30912
# Poissons Ratio (z) = 0.16911 0.26295
#
# Static dielectric constant tensor:
#      x y z
#    x 1.954180 0.000000 0.000000 
#    y 0.000000 1.846450 0.000000 
#    z 0.000000 0.000000 1.910980 
# 
# From -- ./inp_files/8826.got.cif
#   From: 2010.05.17/outbox.cif.g08.bks.cpg/sg41_5_cif.got.tgz:8826.got - 2010.06.03 18:54:24.
