data_PCOD9367427
_publ_section_title
;
Structure prediction by ZEFSAII (Michael W. Deem and Ramdas Pophale) SiO2 
 PCOD9367427
Probable space group: A B A 2
;
_chemical_formula_sum "Si O2"
_cell_formula_units_Z 64
_cell_length_a 30.705172
_cell_length_b 15.965009
_cell_length_c 5.025339
_cell_angle_alpha 90.000000
_cell_angle_beta 90.000000
_cell_angle_gamma 90.000000
_cell_volume 2463.463126
_symmetry_space_group_name_H-M "A B A 2"
_symmetry_group_IT_number 41
_symmetry_cell_setting 'orthorhombic'
loop_
_space_group_symop_operation_xyz
x,y,z
-x,-y,z
1/2-x,y,1/2+z
1/2+x,-y,1/2+z
x,1/2+y,1/2+z
-x,1/2-y,1/2+z
1/2-x,1/2+y,z
1/2+x,1/2-y,z
loop_
_atom_site_type_symbol
_atom_site_label
_atom_site_fract_x
_atom_site_fract_y
_atom_site_fract_z
Si Si1 0.929312 0.946073 0.195460
Si Si2 0.426678 0.412145 0.669447
Si Si3 0.361252 0.658370 0.499288
Si Si4 0.640756 0.004330 0.322805
Si Si5 0.498566 0.355518 0.482177
Si Si6 0.568126 0.220730 0.650868
Si Si7 0.277031 0.447571 0.127313
Si Si8 0.225029 0.746889 0.057633
O O1 0.892180 0.876874 0.265377
O O2 0.974355 0.896668 0.245091
O O3 0.929785 0.014863 0.424332
O O4 0.910454 0.991849 0.930145
O O5 0.370730 0.416642 0.644263
O O6 0.482102 0.414729 0.711442
O O7 0.422238 0.341884 0.916778
O O8 0.347433 0.577022 0.662085
O O9 0.392656 0.715657 0.681245
O O10 0.319025 0.710698 0.437042
O O11 0.675814 0.018610 0.547615
O O12 0.526048 0.277767 0.584577
O O13 0.447274 0.330164 0.413093
O O14 0.240386 0.474167 0.913000
O O15 0.278668 0.347315 0.084851
O O16 0.263118 0.719946 0.855665
#
# Coordination Sequence:
#
# PCOD9367427 Si02
#       8
#     8   8   8   8   8   8   8   8
#     4  10  25  42  62  98 136 180 236 287 356 432
#     4  11  23  41  63  93 134 178 231 286 353 433
#     4  10  25  42  64 102 133 179 232 293 356 429
#     4  11  25  44  68 100 142 189 233 300 368 438
#     4  11  23  40  65  96 128 179 239 290 355 420
#     4  11  23  41  66  96 133 181 232 297 354 421
#     4  10  24  46  75 107 145 189 242 301 369 459
#     4  10  23  46  71 105 140 181 235 296 363 440
#
# _framework density 25.979686999999998
#
# number of rings (size 3 to 8) (size 9 to 14) (size 15 to 20)
#    0.000    1.500    1.250    1.875    7.000    3.000 
#    6.750    0.000    0.000    0.000    0.000    0.000 
#    0.000    0.000    0.000    0.000    0.000    0.000 
#
# Total GULP energy -178321.285362 kJ/mol
# GULP energy per Si atom -5572.540168 kJ/mol
# Density = 2.592056 g / cm^3
# Si number density = 25.979687 Si / 1000 Ang^3
#
#
#
# Elastic Constant Matrix: (Units=GPa)
#
#
# Indices 1 2 3 4 5 6 
#
# 1 100.9520 28.9505 5.7359 0.0000 0.0000 0.0000
# 2 28.9505 66.9174 23.0883 0.0000 0.0000 0.0000
# 3 5.7359 23.0883 86.0332 0.0000 0.0000 0.0000
# 4 0.0000 0.0000 0.0000 16.5813 0.0000 0.0000
# 5 0.0000 0.0000 0.0000 0.0000 33.8507 0.0000
# 6 0.0000 0.0000 0.0000 0.0000 0.0000 49.3569
#
#
#
# Elastic Compliance Matrix: (Units=1/GPa)
#
#
# Indices 1 2 3 4 5 6 
#
# 1 0.011338 -0.005118 0.000618 0.000000 0.000000 0.000000
# 2 -0.005118 0.018779 -0.004698 0.000000 0.000000 0.000000
# 3 0.000618 -0.004698 0.012843 0.000000 0.000000 0.000000
# 4 0.000000 0.000000 0.000000 0.060309 0.000000 0.000000
# 5 0.000000 0.000000 0.000000 0.000000 0.029541 0.000000
# 6 0.000000 0.000000 0.000000 0.000000 0.000000 0.020261
#
#
# Mechanical properties :
#
#
# Convention : Reuss Voigt Hill
#
# Bulk Modulus (GPa) = 40.71269 41.05025 40.88147
# Shear Modulus (GPa) = 27.83068 33.03297 30.43182
#
# Velocity S-wave (km/s) = 3.27654 3.56967 3.42624
# Velocity P-wave (km/s) = 5.47899 5.72933 5.60556
#
# Compressibility (1/GPa) = 0.02456237
#
# Stress axis : x y z
#
# Youngs Moduli (GPa) = 88.19542 53.25010 77.86255
#
# Poissons Ratio (x) = 0.27256 -0.04809
# Poissons Ratio (y) = 0.45143 0.36583
# Poissons Ratio (z) = -0.05448 0.25019
#
# Static dielectric constant tensor:
#      x y z
#    x 2.161320 0.000000 0.000000 
#    y 0.000000 2.833320 0.000000 
#    z 0.000000 0.000000 2.425660 
# 
# From -- ./inp_files/1408.got.cif
#   From: 2010.05.17/outbox.cif.g08.bks.cpg/sg41_1_cif.got.tgz:1408.got - 2010.06.03 18:54:24.
