data_PCOD9367215
_publ_section_title
;
Structure prediction by ZEFSAII (Michael W. Deem and Ramdas Pophale) SiO2 
 PCOD9367215
Probable space group: A B A 2
;
_chemical_formula_sum "Si O2"
_cell_formula_units_Z 60
_cell_length_a 9.195707
_cell_length_b 10.608812
_cell_length_c 27.247695
_cell_angle_alpha 90.000000
_cell_angle_beta 90.000000
_cell_angle_gamma 90.000000
_cell_volume 2658.163239
_symmetry_space_group_name_H-M "A B A 2"
_symmetry_group_IT_number 41
_symmetry_cell_setting 'orthorhombic'
loop_
_space_group_symop_operation_xyz
x,y,z
-x,-y,z
1/2-x,y,1/2+z
1/2+x,-y,1/2+z
x,1/2+y,1/2+z
-x,1/2-y,1/2+z
1/2-x,1/2+y,z
1/2+x,1/2-y,z
loop_
_atom_site_type_symbol
_atom_site_label
_atom_site_fract_x
_atom_site_fract_y
_atom_site_fract_z
Si Si1 0.463245 0.862378 0.131210
Si Si2 0.329182 0.696151 0.869057
Si Si3 0.816092 0.198956 0.182849
Si Si4 0.082508 0.627376 0.020664
Si Si5 0.500000 0.500000 0.801654
Si Si6 0.962414 0.877029 0.337591
Si Si7 0.589143 0.367721 0.979977
Si Si8 0.221516 0.547302 0.742481
O O1 0.293476 0.835031 0.138088
O O2 0.536006 0.751604 0.161547
O O3 0.500000 0.000000 0.153255
O O4 0.538558 0.866056 0.078182
O O5 0.414096 0.589646 0.838996
O O6 0.384114 0.812129 0.836405
O O7 0.156344 0.701233 0.866288
O O8 0.371735 0.676452 0.924893
O O9 0.759840 0.320020 0.215246
O O10 0.840513 0.067027 0.210392
O O11 0.255512 0.620693 0.008938
O O12 0.000000 0.500000 0.002035
O O13 0.012608 0.755344 0.999772
O O14 0.365807 0.478056 0.764662
O O15 0.884537 0.913088 0.287164
O O16 0.000000 0.000000 0.368187
O O17 0.500000 0.500000 0.980561
#
# Coordination Sequence:
#
# PCOD9367215 Si02
#       8
#     8   8   8   8   4   8   8   8
#     4  11  25  49  70 104 144 184 232 298 378 432
#     4  11  25  45  70  99 149 192 238 293 365 428
#     4  12  24  45  73 103 141 191 237 301 348 439
#     4  11  26  48  76 106 147 191 239 311 381 459
#     4  10  22  44  66  96 142 196 220 298 340 424
#     4  11  28  43  67 102 142 194 247 296 354 430
#     4  12  25  46  76 113 144 189 248 303 374 451
#     4  11  25  41  73 103 146 188 254 286 365 417
#
# _framework density 22.571975999999999
#
# number of rings (size 3 to 8) (size 9 to 14) (size 15 to 20)
#    0.000    0.800    2.000    4.000    9.333    4.267 
#    2.400    0.000    0.000    0.000    0.000    0.000 
#    0.000    0.000    0.000    0.000    0.000    0.000 
#
# Total GULP energy -167301.544172 kJ/mol
# GULP energy per Si atom -5576.718139 kJ/mol
# Density = 2.252060 g / cm^3
# Si number density = 22.571976 Si / 1000 Ang^3
#
#
#
# Elastic Constant Matrix: (Units=GPa)
#
#
# Indices 1 2 3 4 5 6 
#
# 1 118.3215 16.2709 28.8683 0.0000 0.0000 0.0000
# 2 16.2709 82.6069 21.8038 0.0000 0.0000 0.0000
# 3 28.8683 21.8038 99.1068 0.0000 0.0000 0.0000
# 4 0.0000 0.0000 0.0000 22.9151 0.0000 0.0000
# 5 0.0000 0.0000 0.0000 0.0000 -4.0790 0.0000
# 6 0.0000 0.0000 0.0000 0.0000 0.0000 39.4865
#
#
#
# Elastic Compliance Matrix: (Units=1/GPa)
#
#
# Indices 1 2 3 4 5 6 
#
# 1 0.009204 -0.001173 -0.002423 0.000000 0.000000 0.000000
# 2 -0.001173 0.013001 -0.002519 0.000000 0.000000 0.000000
# 3 -0.002423 -0.002519 0.011350 0.000000 0.000000 0.000000
# 4 0.000000 0.000000 0.000000 0.043639 0.000000 0.000000
# 5 0.000000 0.000000 0.000000 0.000000 -0.245157 0.000000
# 6 0.000000 0.000000 0.000000 0.000000 0.000000 0.025325
#
#
# Mechanical properties :
#
#
# Convention : Reuss Voigt Hill
#
# Bulk Modulus (GPa) = 46.89155 48.21347 47.55251
# Shear Modulus (GPa) = -40.55178 27.20399 -6.67389
#
# Velocity S-wave (km/s) = -4.24318 3.47538 -1.72138
# Velocity P-wave (km/s) = 1.78514 6.12459 4.14270
#
# Compressibility (1/GPa) = 0.02132580
#
# Stress axis : x y z
#
# Youngs Moduli (GPa) = 108.64796 76.91470 88.10608
#
# Poissons Ratio (x) = 0.09025 0.21347
# Poissons Ratio (y) = 0.12749 0.22190
# Poissons Ratio (z) = 0.26324 0.19371
#
# Static dielectric constant tensor:
#      x y z
#    x 1.894480 0.000000 0.000000 
#    y 0.000000 1.889910 0.000000 
#    z 0.000000 0.000000 1.858300 
# 
# From -- ./inp_files/12468.got.cif
#   From: 2010.05.17/outbox.cif.g08.bks.cpg/sg41_7_cif.got.tgz:12468.got - 2010.06.03 18:54:24.
