data_PCOD9367370
_publ_section_title
;
Structure prediction by ZEFSAII (Michael W. Deem and Ramdas Pophale) SiO2 
 PCOD9367370
Probable space group: A B A 2
;
_chemical_formula_sum "Si O2"
_cell_formula_units_Z 64
_cell_length_a 14.490119
_cell_length_b 21.119406
_cell_length_c 8.958338
_cell_angle_alpha 90.000000
_cell_angle_beta 90.000000
_cell_angle_gamma 90.000000
_cell_volume 2741.454837
_symmetry_space_group_name_H-M "A B A 2"
_symmetry_group_IT_number 41
_symmetry_cell_setting 'orthorhombic'
loop_
_space_group_symop_operation_xyz
x,y,z
-x,-y,z
1/2-x,y,1/2+z
1/2+x,-y,1/2+z
x,1/2+y,1/2+z
-x,1/2-y,1/2+z
1/2-x,1/2+y,z
1/2+x,1/2-y,z
loop_
_atom_site_type_symbol
_atom_site_label
_atom_site_fract_x
_atom_site_fract_y
_atom_site_fract_z
Si Si1 0.790390 0.211087 0.467180
Si Si2 0.400764 0.474939 0.226059
Si Si3 0.767741 0.620114 0.231088
Si Si4 0.092665 0.473983 0.386544
Si Si5 0.857850 0.386069 0.436061
Si Si6 0.675163 0.387268 0.275899
Si Si7 0.112658 0.712285 0.994282
Si Si8 0.536335 0.783217 0.324105
O O1 0.793345 0.147511 0.568615
O O2 0.744483 0.184752 0.318374
O O3 0.714598 0.260723 0.526284
O O4 0.885995 0.243590 0.417652
O O5 0.500000 0.500000 0.290879
O O6 0.328990 0.417737 0.256622
O O7 0.339824 0.537539 0.260446
O O8 0.429146 0.453909 0.056715
O O9 0.847492 0.575186 0.295269
O O10 0.147556 0.538646 0.422935
O O11 0.000000 0.500000 0.309917
O O12 0.777737 0.365969 0.321784
O O13 0.847610 0.365985 0.607924
O O14 0.951304 0.355423 0.376909
O O15 0.617308 0.355719 0.410927
O O16 0.057413 0.717433 0.148893
O O17 0.060241 0.755423 0.873301
#
# Coordination Sequence:
#
# PCOD9367370 Si02
#       8
#     8   8   8   8   8   8   8   8
#     4  12  28  45  72 101 147 186 238 295 360 429
#     4  10  23  43  70 102 141 187 233 288 356 422
#     4  12  24  46  71 103 141 189 235 292 358 425
#     4  10  23  43  70 104 138 186 235 290 354 422
#     4  11  23  41  70  98 139 182 235 287 349 421
#     4  11  23  42  69  99 138 183 235 288 348 423
#     4  12  28  47  72 105 142 187 241 297 365 431
#     4  12  28  47  72 106 140 188 238 299 364 433
#
# _framework density 23.345268999999998
#
# number of rings (size 3 to 8) (size 9 to 14) (size 15 to 20)
#    0.000    0.750    5.000    1.500    7.000    1.000 
#    2.250    0.625    0.000    0.000    0.000    0.000 
#    0.000    0.000    0.000    0.000    0.000    0.000 
#
# Total GULP energy -178422.752137 kJ/mol
# GULP energy per Si atom -5575.711004 kJ/mol
# Density = 2.329213 g / cm^3
# Si number density = 23.345269 Si / 1000 Ang^3
#
#
#
# Elastic Constant Matrix: (Units=GPa)
#
#
# Indices 1 2 3 4 5 6 
#
# 1 93.9646 22.1588 22.8978 0.0000 0.0000 0.0000
# 2 22.1588 82.8477 33.1893 0.0000 0.0000 0.0000
# 3 22.8978 33.1893 101.9311 0.0000 0.0000 0.0000
# 4 0.0000 0.0000 0.0000 33.4500 0.0000 0.0000
# 5 0.0000 0.0000 0.0000 0.0000 33.3686 0.0000
# 6 0.0000 0.0000 0.0000 0.0000 0.0000 31.2072
#
#
#
# Elastic Compliance Matrix: (Units=1/GPa)
#
#
# Indices 1 2 3 4 5 6 
#
# 1 0.011652 -0.002378 -0.001843 0.000000 0.000000 0.000000
# 2 -0.002378 0.014366 -0.004144 0.000000 0.000000 0.000000
# 3 -0.001843 -0.004144 0.011574 0.000000 0.000000 0.000000
# 4 0.000000 0.000000 0.000000 0.029895 0.000000 0.000000
# 5 0.000000 0.000000 0.000000 0.000000 0.029968 0.000000
# 6 0.000000 0.000000 0.000000 0.000000 0.000000 0.032044
#
#
# Mechanical properties :
#
#
# Convention : Reuss Voigt Hill
#
# Bulk Modulus (GPa) = 47.93274 48.35946 48.14610
# Shear Modulus (GPa) = 32.64050 32.97167 32.80609
#
# Velocity S-wave (km/s) = 3.74326 3.76220 3.75274
# Velocity P-wave (km/s) = 6.26573 6.29540 6.28058
#
# Compressibility (1/GPa) = 0.02086257
#
# Stress axis : x y z
#
# Youngs Moduli (GPa) = 85.82005 69.60711 86.40228
#
# Poissons Ratio (x) = 0.16554 0.15926
# Poissons Ratio (y) = 0.20409 0.35801
# Poissons Ratio (z) = 0.15819 0.28842
#
# Static dielectric constant tensor:
#      x y z
#    x 1.935250 0.000000 0.000000 
#    y 0.000000 1.903730 0.000000 
#    z 0.000000 0.000000 1.871980 
# 
# From -- ./inp_files/2822.got.cif
#   From: 2010.05.17/outbox.cif.g08.bks.cpg/sg41_2_cif.got.tgz:2822.got - 2010.06.03 18:54:24.
