data_PCOD9367254
_publ_section_title
;
Structure prediction by ZEFSAII (Michael W. Deem and Ramdas Pophale) SiO2 
 PCOD9367254
Probable space group: A B A 2
;
_chemical_formula_sum "Si O2"
_cell_formula_units_Z 56
_cell_length_a 14.774723
_cell_length_b 12.052547
_cell_length_c 14.728304
_cell_angle_alpha 90.000000
_cell_angle_beta 90.000000
_cell_angle_gamma 90.000000
_cell_volume 2622.713917
_symmetry_space_group_name_H-M "A B A 2"
_symmetry_group_IT_number 41
_symmetry_cell_setting 'orthorhombic'
loop_
_space_group_symop_operation_xyz
x,y,z
-x,-y,z
1/2-x,y,1/2+z
1/2+x,-y,1/2+z
x,1/2+y,1/2+z
-x,1/2-y,1/2+z
1/2-x,1/2+y,z
1/2+x,1/2-y,z
loop_
_atom_site_type_symbol
_atom_site_label
_atom_site_fract_x
_atom_site_fract_y
_atom_site_fract_z
Si Si1 0.511022 0.816954 0.625000
Si Si2 0.135958 0.739390 0.782588
Si Si3 0.291446 0.940597 0.394240
Si Si4 0.351636 0.484047 0.100581
Si Si5 0.711133 0.399655 0.730316
Si Si6 0.435710 0.104309 0.085481
Si Si7 0.106804 0.024042 0.402951
O O1 0.554239 0.754509 0.711880
O O2 0.420011 0.889286 0.637837
O O3 0.488589 0.715689 0.558407
O O4 0.586814 0.904644 0.594334
O O5 0.152826 0.840724 0.849281
O O6 0.230615 0.712915 0.732934
O O7 0.120437 0.623134 0.833219
O O8 0.319082 0.953944 0.499214
O O9 0.308235 0.047605 0.329107
O O10 0.181464 0.929118 0.387369
O O11 0.271037 0.512456 0.170766
O O12 0.621168 0.376836 0.675073
O O13 0.500000 0.000000 0.100076
O O14 0.371561 0.071967 0.002356
O O15 0.000000 0.000000 0.401158
#
# Coordination Sequence:
#
# PCOD9367254 Si02
#       7
#     8   8   8   8   8   8   8
#     4  10  23  42  70  94 134 179 230 291 355 421
#     4  10  23  40  66 103 125 179 232 284 359 412
#     4  11  22  44  66 102 137 179 237 294 342 430
#     4  10  22  45  70  95 135 184 232 289 361 425
#     4  10  23  40  64  96 133 174 230 284 349 419
#     4  11  22  43  59  98 131 177 222 283 348 413
#     4  10  23  41  64  93 139 175 229 280 352 420
#
# _framework density 21.351927
#
# number of rings (size 3 to 8) (size 9 to 14) (size 15 to 20)
#    0.000    1.714    1.429    1.714    8.000    0.000 
#   20.571    0.000    0.000    0.000    0.000    0.000 
#    0.000    0.000    0.000    0.000    0.000    0.000 
#
# Total GULP energy -156198.618829 kJ/mol
# GULP energy per Si atom -5578.522101 kJ/mol
# Density = 2.130333 g / cm^3
# Si number density = 21.351927 Si / 1000 Ang^3
#
#
#
# Elastic Constant Matrix: (Units=GPa)
#
#
# Indices 1 2 3 4 5 6 
#
# 1 81.3151 24.4961 22.7718 0.0000 0.0000 0.0000
# 2 24.4961 76.6613 -1.5456 0.0000 0.0000 0.0000
# 3 22.7718 -1.5456 79.1256 0.0000 0.0000 0.0000
# 4 0.0000 0.0000 0.0000 25.4975 0.0000 0.0000
# 5 0.0000 0.0000 0.0000 0.0000 61.8804 0.0000
# 6 0.0000 0.0000 0.0000 0.0000 0.0000 18.2585
#
#
#
# Elastic Compliance Matrix: (Units=1/GPa)
#
#
# Indices 1 2 3 4 5 6 
#
# 1 0.015005 -0.004884 -0.004414 0.000000 0.000000 0.000000
# 2 -0.004884 0.014639 0.001691 0.000000 0.000000 0.000000
# 3 -0.004414 0.001691 0.013941 0.000000 0.000000 0.000000
# 4 0.000000 0.000000 0.000000 0.039220 0.000000 0.000000
# 5 0.000000 0.000000 0.000000 0.000000 0.016160 0.000000
# 6 0.000000 0.000000 0.000000 0.000000 0.000000 0.054769
#
#
# Mechanical properties :
#
#
# Convention : Reuss Voigt Hill
#
# Bulk Modulus (GPa) = 35.24411 36.50519 35.87465
# Shear Modulus (GPa) = 28.02629 33.88595 30.95612
#
# Velocity S-wave (km/s) = 3.62690 3.98806 3.81176
# Velocity P-wave (km/s) = 5.83792 6.19195 6.01754
#
# Compressibility (1/GPa) = 0.02837353
#
# Stress axis : x y z
#
# Youngs Moduli (GPa) = 66.64416 68.31070 71.72877
#
# Poissons Ratio (x) = 0.33361 0.31659
# Poissons Ratio (y) = 0.32547 -0.12132
# Poissons Ratio (z) = 0.29415 -0.11554
#
# Static dielectric constant tensor:
#      x y z
#    x 1.538610 0.000000 0.000000 
#    y 0.000000 1.799240 0.000000 
#    z 0.000000 0.000000 1.813500 
# 
# From -- ./inp_files/8376.got.cif
#   From: 2010.05.17/outbox.cif.g08.bks.cpg/sg41_5_cif.got.tgz:8376.got - 2010.06.03 18:54:24.
