data_PCOD9367895
_publ_section_title
;
Structure prediction by ZEFSAII (Michael W. Deem and Ramdas Pophale) SiO2 
 PCOD9367895
Probable space group: A B A 2
;
_chemical_formula_sum "Si O2"
_cell_formula_units_Z 40
_cell_length_a 14.524750
_cell_length_b 11.238424
_cell_length_c 9.906199
_cell_angle_alpha 90.000000
_cell_angle_beta 90.000000
_cell_angle_gamma 90.000000
_cell_volume 1617.041356
_symmetry_space_group_name_H-M "A B A 2"
_symmetry_group_IT_number 41
_symmetry_cell_setting 'orthorhombic'
loop_
_space_group_symop_operation_xyz
x,y,z
-x,-y,z
1/2-x,y,1/2+z
1/2+x,-y,1/2+z
x,1/2+y,1/2+z
-x,1/2-y,1/2+z
1/2-x,1/2+y,z
1/2+x,1/2-y,z
loop_
_atom_site_type_symbol
_atom_site_label
_atom_site_fract_x
_atom_site_fract_y
_atom_site_fract_z
Si Si1 0.605559 0.768617 0.527050
Si Si2 0.197680 0.611984 0.027050
Si Si3 0.397697 0.444919 0.734407
Si Si4 0.405184 0.362020 0.027050
Si Si5 0.102303 0.444918 0.819692
O O1 0.699204 0.841090 0.527049
O O2 0.602495 0.681035 0.656221
O O3 0.515800 0.850753 0.527052
O O4 0.602493 0.681036 0.397878
O O5 0.169650 0.532922 0.898490
O O6 0.169651 0.532925 0.155612
O O7 0.133750 0.728663 0.027049
O O8 0.500000 0.500000 0.723444
O O9 0.374283 0.423360 0.889477
O O10 0.374281 0.423358 0.164623
O O11 0.000000 0.500000 0.830654
#
# Coordination Sequence:
#
# PCOD9367895 Si02
#       5
#     8   8   8   8   8
#     4  11  24  50  84 117 159 214 266 325 397 472
#     4  11  26  52  77 115 166 204 265 334 381 476
#     4  11  24  53  81 112 158 211 267 325 398 468
#     4  12  25  51  81 116 157 215 256 324 410 466
#     4  11  24  53  81 112 158 211 267 325 398 468
#
# _framework density 24.736535
#
# number of rings (size 3 to 8) (size 9 to 14) (size 15 to 20)
#    0.000    0.800    4.000    3.000    0.000    1.600 
#   21.600    2.000    0.000    0.000    0.000    0.000 
#    0.000    0.000    0.000    0.000    0.000    0.000 
#
# Total GULP energy -112458.479382 kJ/mol
# GULP energy per Si atom -5622.923969 kJ/mol
# Density = 2.468023 g / cm^3
# Si number density = 24.736535 Si / 1000 Ang^3
#
#
#
# Elastic Constant Matrix: (Units=GPa)
#
#
# Indices 1 2 3 4 5 6 
#
# 1 135.3205 69.9592 74.7862 0.0000 0.0000 0.0000
# 2 69.9592 136.4762 111.9038 0.0000 0.0000 0.0000
# 3 74.7862 111.9038 273.9815 0.0000 0.0000 0.0000
# 4 0.0000 0.0000 0.0000 -306.5695 0.0000 0.0000
# 5 0.0000 0.0000 0.0000 0.0000 12.3766 0.0000
# 6 0.0000 0.0000 0.0000 0.0000 0.0000 60.4651
#
#
#
# Elastic Compliance Matrix: (Units=1/GPa)
#
#
# Indices 1 2 3 4 5 6 
#
# 1 0.010226 -0.004440 -0.000978 0.000000 0.000000 0.000000
# 2 -0.004440 0.012945 -0.004075 0.000000 0.000000 0.000000
# 3 -0.000978 -0.004075 0.005581 0.000000 0.000000 0.000000
# 4 0.000000 0.000000 0.000000 -0.003262 0.000000 0.000000
# 5 0.000000 0.000000 0.000000 0.000000 0.080798 0.000000
# 6 0.000000 0.000000 0.000000 0.000000 0.000000 0.016538
#
#
# Mechanical properties :
#
#
# Convention : Reuss Voigt Hill
#
# Bulk Modulus (GPa) = 102.39905 117.67519 110.03712
# Shear Modulus (GPa) = 34.46684 -27.47029 3.49827
#
# Velocity S-wave (km/s) = 3.73682 -3.33605 1.19050
# Velocity P-wave (km/s) = 7.75269 5.73024 6.81689
#
# Compressibility (1/GPa) = 0.00976572
#
# Stress axis : x y z
#
# Youngs Moduli (GPa) = 97.79279 77.25146 179.17367
#
# Poissons Ratio (x) = 0.34301 0.17518
# Poissons Ratio (y) = 0.43421 0.73015
# Poissons Ratio (z) = 0.09561 0.31481
#
# Static dielectric constant tensor:
#      x y z
#    x 1.927030 0.000000 0.000000 
#    y 0.000000 1.921800 0.000000 
#    z 0.000000 0.000000 1.931780 
# 
# From -- ./inp_files/2916.got.cif
#   From: 2010.05.17/outbox.cif.g08.bks.cpg/sg41_2_cif.got.tgz:2916.got - 2010.06.03 18:54:24.
