data_PCOD9367786
_publ_section_title
;
Structure prediction by ZEFSAII (Michael W. Deem and Ramdas Pophale) SiO2 
 PCOD9367786
Probable space group: A B A 2
;
_chemical_formula_sum "Si O2"
_cell_formula_units_Z 60
_cell_length_a 21.169835
_cell_length_b 10.387514
_cell_length_c 11.996701
_cell_angle_alpha 90.000000
_cell_angle_beta 90.000000
_cell_angle_gamma 90.000000
_cell_volume 2638.098033
_symmetry_space_group_name_H-M "A B A 2"
_symmetry_group_IT_number 41
_symmetry_cell_setting 'orthorhombic'
loop_
_space_group_symop_operation_xyz
x,y,z
-x,-y,z
1/2-x,y,1/2+z
1/2+x,-y,1/2+z
x,1/2+y,1/2+z
-x,1/2-y,1/2+z
1/2-x,1/2+y,z
1/2+x,1/2-y,z
loop_
_atom_site_type_symbol
_atom_site_label
_atom_site_fract_x
_atom_site_fract_y
_atom_site_fract_z
Si Si1 0.000000 0.000000 0.727911
Si Si2 0.769589 0.307651 0.340415
Si Si3 0.037657 0.130953 0.079513
Si Si4 0.116584 0.514504 0.385741
Si Si5 0.696360 0.539462 0.230317
Si Si6 0.432244 0.565325 0.304142
Si Si7 0.569240 0.324802 0.545383
Si Si8 0.308683 0.813059 0.519412
O O1 0.942692 0.030832 0.812704
O O2 0.962269 0.908768 0.641824
O O3 0.835281 0.383835 0.333297
O O4 0.723074 0.402702 0.272600
O O5 0.777550 0.163107 0.295936
O O6 0.741845 0.282772 0.464984
O O7 0.059879 0.170039 0.203890
O O8 0.987398 0.224517 0.023467
O O9 0.091769 0.090348 0.995083
O O10 0.000000 0.000000 0.100367
O O11 0.155592 0.389437 0.421534
O O12 0.621389 0.528197 0.254379
O O13 0.714201 0.576539 0.103887
O O14 0.500000 0.500000 0.322925
O O15 0.413875 0.610484 0.427362
O O16 0.634878 0.261156 0.582603
#
# Coordination Sequence:
#
# PCOD9367786 Si02
#       8
#     4   8   8   8   8   8   8   8
#     4  12  28  46  74 110 154 200 266 336 398 470
#     4  12  29  48  79 111 157 206 266 329 404 491
#     4  11  23  41  73 102 139 198 239 316 389 467
#     4  12  25  50  72 111 149 203 262 328 398 477
#     4  12  27  50  78 111 154 209 261 332 400 495
#     4  11  24  45  71 109 151 195 259 322 404 470
#     4  12  25  44  73 109 153 200 258 332 395 485
#     4  12  25  51  76 107 155 205 266 328 405 486
#
# _framework density 22.743659000000001
#
# number of rings (size 3 to 8) (size 9 to 14) (size 15 to 20)
#    0.000    0.267    6.667    1.600    7.467    0.000 
#    4.800    0.000    0.000    0.000    0.000    0.000 
#    0.000    0.000    0.000    0.000    0.000    0.000 
#
# Total GULP energy -167473.671641 kJ/mol
# GULP energy per Si atom -5582.455721 kJ/mol
# Density = 2.269189 g / cm^3
# Si number density = 22.743659 Si / 1000 Ang^3
#
#
#
# Elastic Constant Matrix: (Units=GPa)
#
#
# Indices 1 2 3 4 5 6 
#
# 1 89.6742 24.3524 27.2695 0.0000 0.0000 0.0000
# 2 24.3524 68.0278 27.4882 0.0000 0.0000 0.0000
# 3 27.2695 27.4882 112.0329 0.0000 0.0000 0.0000
# 4 0.0000 0.0000 0.0000 44.0635 0.0000 0.0000
# 5 0.0000 0.0000 0.0000 0.0000 17.9633 0.0000
# 6 0.0000 0.0000 0.0000 0.0000 0.0000 25.0139
#
#
#
# Elastic Compliance Matrix: (Units=1/GPa)
#
#
# Indices 1 2 3 4 5 6 
#
# 1 0.012829 -0.003697 -0.002216 0.000000 0.000000 0.000000
# 2 -0.003697 0.017383 -0.003365 0.000000 0.000000 0.000000
# 3 -0.002216 -0.003365 0.010291 0.000000 0.000000 0.000000
# 4 0.000000 0.000000 0.000000 0.022695 0.000000 0.000000
# 5 0.000000 0.000000 0.000000 0.000000 0.055669 0.000000
# 6 0.000000 0.000000 0.000000 0.000000 0.000000 0.039978
#
#
# Mechanical properties :
#
#
# Convention : Reuss Voigt Hill
#
# Bulk Modulus (GPa) = 45.56372 47.55056 46.55714
# Shear Modulus (GPa) = 27.06850 30.11647 28.59248
#
# Velocity S-wave (km/s) = 3.45361 3.64286 3.54950
# Velocity P-wave (km/s) = 5.99836 6.21663 6.10847
#
# Compressibility (1/GPa) = 0.02194728
#
# Stress axis : x y z
#
# Youngs Moduli (GPa) = 77.94667 57.52678 97.17326
#
# Poissons Ratio (x) = 0.21270 0.21529
# Poissons Ratio (y) = 0.28820 0.32700
# Poissons Ratio (z) = 0.17270 0.19359
#
# Static dielectric constant tensor:
#      x y z
#    x 1.808330 0.000000 0.000000 
#    y 0.000000 1.845480 0.000000 
#    z 0.000000 0.000000 1.955170 
# 
# From -- ./inp_files/6274.got.cif
#   From: 2010.05.17/outbox.cif.g08.bks.cpg/sg41_4_cif.got.tgz:6274.got - 2010.06.03 18:54:24.
