data_PCOD9367310
_publ_section_title
;
Structure prediction by ZEFSAII (Michael W. Deem and Ramdas Pophale) SiO2 
 PCOD9367310
Probable space group: A B A 2
;
_chemical_formula_sum "Si O2"
_cell_formula_units_Z 36
_cell_length_a 5.695388
_cell_length_b 18.162434
_cell_length_c 13.607669
_cell_angle_alpha 90.000000
_cell_angle_beta 90.000000
_cell_angle_gamma 90.000000
_cell_volume 1407.605975
_symmetry_space_group_name_H-M "A B A 2"
_symmetry_group_IT_number 41
_symmetry_cell_setting 'orthorhombic'
loop_
_space_group_symop_operation_xyz
x,y,z
-x,-y,z
1/2-x,y,1/2+z
1/2+x,-y,1/2+z
x,1/2+y,1/2+z
-x,1/2-y,1/2+z
1/2-x,1/2+y,z
1/2+x,1/2-y,z
loop_
_atom_site_type_symbol
_atom_site_label
_atom_site_fract_x
_atom_site_fract_y
_atom_site_fract_z
Si Si1 0.500000 0.500000 0.775851
Si Si2 0.907178 0.229518 0.178847
Si Si3 0.681667 0.726415 0.960288
Si Si4 0.608137 0.920440 0.723267
Si Si5 0.880280 0.570675 0.921015
O O1 0.617415 0.435630 0.711931
O O2 0.685933 0.536702 0.848208
O O3 0.645663 0.235485 0.224336
O O4 0.982584 0.144743 0.169225
O O5 0.860703 0.260152 0.069366
O O6 0.417281 0.734958 0.917095
O O7 0.763304 0.641192 0.969265
O O8 0.569114 0.902361 0.839283
O O9 0.500000 0.000000 0.697694
O O10 0.000000 0.500000 0.974252
#
# Coordination Sequence:
#
# PCOD9367310 Si02
#       5
#     4   8   8   8   8
#     4   8  18  36  58  84 120 148 198 264 300 352
#     4  10  23  41  59  85 125 160 198 248 301 359
#     4  10  23  41  59  85 124 161 198 248 301 360
#     4   9  20  37  60  89 118 156 199 256 302 361
#     4   9  20  37  61  88 119 155 202 253 303 358
#
# _framework density 25.575336
#
# number of rings (size 3 to 8) (size 9 to 14) (size 15 to 20)
#    0.000    3.111    0.000    0.000   12.444    1.778 
#    2.000    0.000    0.000    0.000    0.000    0.000 
#    0.000    0.000    0.000    0.000    0.000    0.000 
#
# Total GULP energy -100235.603986 kJ/mol
# GULP energy per Si atom -5568.644666 kJ/mol
# Density = 2.551713 g / cm^3
# Si number density = 25.575336 Si / 1000 Ang^3
#
#
#
# Elastic Constant Matrix: (Units=GPa)
#
#
# Indices 1 2 3 4 5 6 
#
# 1 234.6263 88.1224 40.0963 0.0000 0.0000 0.0000
# 2 88.1224 160.4519 4.3336 0.0000 0.0000 0.0000
# 3 40.0963 4.3336 47.2506 0.0000 0.0000 0.0000
# 4 0.0000 0.0000 0.0000 25.2082 0.0000 0.0000
# 5 0.0000 0.0000 0.0000 0.0000 33.0255 0.0000
# 6 0.0000 0.0000 0.0000 0.0000 0.0000 54.4277
#
#
#
# Elastic Compliance Matrix: (Units=1/GPa)
#
#
# Indices 1 2 3 4 5 6 
#
# 1 0.006408 -0.003381 -0.005128 0.000000 0.000000 0.000000
# 2 -0.003381 0.008032 0.002132 0.000000 0.000000 0.000000
# 3 -0.005128 0.002132 0.025320 0.000000 0.000000 0.000000
# 4 0.000000 0.000000 0.000000 0.039670 0.000000 0.000000
# 5 0.000000 0.000000 0.000000 0.000000 0.030280 0.000000
# 6 0.000000 0.000000 0.000000 0.000000 0.000000 0.018373
#
#
# Mechanical properties :
#
#
# Convention : Reuss Voigt Hill
#
# Bulk Modulus (GPa) = 37.02787 78.60371 57.81579
# Shear Modulus (GPa) = 33.36960 43.18406 38.27683
#
# Velocity S-wave (km/s) = 3.61606 4.11360 3.87283
# Velocity P-wave (km/s) = 5.65189 7.30501 6.53097
#
# Compressibility (1/GPa) = 0.02700669
#
# Stress axis : x y z
#
# Youngs Moduli (GPa) = 156.04791 124.50657 39.49507
#
# Poissons Ratio (x) = 0.42096 0.20253
# Poissons Ratio (y) = 0.52760 -0.08422
# Poissons Ratio (z) = 0.80020 -0.26550
#
# Static dielectric constant tensor:
#      x y z
#    x 2.247890 0.000000 0.000000 
#    y 0.000000 2.047350 0.000000 
#    z 0.000000 0.000000 2.041720 
# 
# From -- ./inp_files/6781.got.cif
#   From: 2010.05.17/outbox.cif.g08.bks.cpg/sg41_4_cif.got.tgz:6781.got - 2010.06.03 18:54:24.
