data_PCOD9367348
_publ_section_title
;
Structure prediction by ZEFSAII (Michael W. Deem and Ramdas Pophale) SiO2 
 PCOD9367348
Probable space group: A B A 2
;
_chemical_formula_sum "Si O2"
_cell_formula_units_Z 32
_cell_length_a 14.677434
_cell_length_b 9.046121
_cell_length_c 10.406230
_cell_angle_alpha 90.000000
_cell_angle_beta 90.000000
_cell_angle_gamma 90.000000
_cell_volume 1381.675158
_symmetry_space_group_name_H-M "A B A 2"
_symmetry_group_IT_number 41
_symmetry_cell_setting 'orthorhombic'
loop_
_space_group_symop_operation_xyz
x,y,z
-x,-y,z
1/2-x,y,1/2+z
1/2+x,-y,1/2+z
x,1/2+y,1/2+z
-x,1/2-y,1/2+z
1/2-x,1/2+y,z
1/2+x,1/2-y,z
loop_
_atom_site_type_symbol
_atom_site_label
_atom_site_fract_x
_atom_site_fract_y
_atom_site_fract_z
Si Si1 0.500000 0.000000 0.829700
Si Si2 0.638181 0.986776 0.270826
Si Si3 0.671458 0.824967 0.802805
Si Si4 0.442158 0.191550 0.041000
Si Si5 0.000000 0.000000 0.002253
O O1 0.406488 0.055027 0.766798
O O2 0.514922 0.132276 0.934846
O O3 0.731789 0.896306 0.277652
O O4 0.578026 0.909449 0.161468
O O5 0.655761 0.161580 0.244756
O O6 0.584378 0.975145 0.404928
O O7 0.649940 0.803570 0.955069
O O8 0.474678 0.352863 0.078299
#
# Coordination Sequence:
#
# PCOD9367348 Si02
#       5
#     4   8   8   8   4
#     4   8  19  46  63  96 136 196 223 309 352 414
#     4  11  22  41  69 107 141 196 241 293 377 428
#     4   9  23  39  70 101 144 188 234 310 351 434
#     4   9  21  43  68  97 146 188 240 299 355 432
#     4  10  23  42  69 106 144 194 241 295 352 432
#
# _framework density 23.16029
#
# number of rings (size 3 to 8) (size 9 to 14) (size 15 to 20)
#    1.500    1.000    0.000    0.750    3.500    4.000 
#    0.000   13.750    0.000    0.000    0.000    0.000 
#    0.000    0.000    0.000    0.000    0.000    0.000 
#
# Total GULP energy -89235.141249 kJ/mol
# GULP energy per Si atom -5577.196328 kJ/mol
# Density = 2.310758 g / cm^3
# Si number density = 23.160290 Si / 1000 Ang^3
#
#
#
# Elastic Constant Matrix: (Units=GPa)
#
#
# Indices 1 2 3 4 5 6 
#
# 1 165.1162 105.3030 45.6910 0.0000 0.0000 0.0000
# 2 105.3030 201.7028 36.4492 0.0000 0.0000 0.0000
# 3 45.6910 36.4492 59.8179 0.0000 0.0000 0.0000
# 4 0.0000 0.0000 0.0000 42.9923 0.0000 0.0000
# 5 0.0000 0.0000 0.0000 0.0000 8.8330 0.0000
# 6 0.0000 0.0000 0.0000 0.0000 0.0000 48.4786
#
#
#
# Elastic Compliance Matrix: (Units=1/GPa)
#
#
# Indices 1 2 3 4 5 6 
#
# 1 0.010332 -0.004459 -0.005175 0.000000 0.000000 0.000000
# 2 -0.004459 0.007496 -0.001161 0.000000 0.000000 0.000000
# 3 -0.005175 -0.001161 0.021378 0.000000 0.000000 0.000000
# 4 0.000000 0.000000 0.000000 0.023260 0.000000 0.000000
# 5 0.000000 0.000000 0.000000 0.000000 0.113212 0.000000
# 6 0.000000 0.000000 0.000000 0.000000 0.000000 0.020628
#
#
# Mechanical properties :
#
#
# Convention : Reuss Voigt Hill
#
# Bulk Modulus (GPa) = 56.77027 89.05814 72.91421
# Shear Modulus (GPa) = 22.34463 36.00701 29.17582
#
# Velocity S-wave (km/s) = 3.10946 3.94723 3.55312
# Velocity P-wave (km/s) = 6.12020 7.70134 6.95584
#
# Compressibility (1/GPa) = 0.01761485
#
# Stress axis : x y z
#
# Youngs Moduli (GPa) = 96.78642 133.41305 46.77710
#
# Poissons Ratio (x) = 0.59487 0.24207
# Poissons Ratio (y) = 0.43156 0.05433
# Poissons Ratio (z) = 0.50087 0.15495
#
# Static dielectric constant tensor:
#      x y z
#    x 1.852900 0.000000 0.000000 
#    y 0.000000 1.921740 0.000000 
#    z 0.000000 0.000000 1.931340 
# 
# From -- ./inp_files/5292.got.cif
#   From: 2010.05.17/outbox.cif.g08.bks.cpg/sg41_3_cif.got.tgz:5292.got - 2010.06.03 18:54:24.
