data_PCOD9367828
_publ_section_title
;
Structure prediction by ZEFSAII (Michael W. Deem and Ramdas Pophale) SiO2 
 PCOD9367828
Probable space group: A B A 2
;
_chemical_formula_sum "Si O2"
_cell_formula_units_Z 40
_cell_length_a 7.434936
_cell_length_b 21.435916
_cell_length_c 9.812623
_cell_angle_alpha 90.000000
_cell_angle_beta 90.000000
_cell_angle_gamma 90.000000
_cell_volume 1563.883489
_symmetry_space_group_name_H-M "A B A 2"
_symmetry_group_IT_number 41
_symmetry_cell_setting 'orthorhombic'
loop_
_space_group_symop_operation_xyz
x,y,z
-x,-y,z
1/2-x,y,1/2+z
1/2+x,-y,1/2+z
x,1/2+y,1/2+z
-x,1/2-y,1/2+z
1/2-x,1/2+y,z
1/2+x,1/2-y,z
loop_
_atom_site_type_symbol
_atom_site_label
_atom_site_fract_x
_atom_site_fract_y
_atom_site_fract_z
Si Si1 0.341312 0.547589 0.246750
Si Si2 0.790022 0.005111 0.991702
Si Si3 0.323121 0.357980 0.878527
Si Si4 0.364227 0.670115 0.083447
Si Si5 0.441157 0.808881 0.094220
O O1 0.500000 0.500000 0.283388
O O2 0.245853 0.551290 0.390057
O O3 0.211435 0.512649 0.138067
O O4 0.401781 0.612759 0.185548
O O5 0.766144 0.072081 0.924227
O O6 0.000000 0.000000 0.023089
O O7 0.512131 0.340347 0.950754
O O8 0.572822 0.263016 0.140058
O O9 0.173995 0.316218 0.955700
O O10 0.148245 0.673280 0.069032
O O11 0.851090 0.651273 0.217331
#
# Coordination Sequence:
#
# PCOD9367828 Si02
#       5
#     8   8   8   8   8
#     4  11  25  45  72 105 148 196 244 315 380 457
#     4  11  23  46  72 104 146 189 246 314 379 453
#     4  12  27  52  76 117 156 198 270 320 392 474
#     4  12  27  49  74 112 156 201 258 317 387 465
#     4  12  30  46  84 110 155 210 254 329 391 464
#
# _framework density 25.577352999999999
#
# number of rings (size 3 to 8) (size 9 to 14) (size 15 to 20)
#    0.000    0.400    6.000    2.400    2.800    4.000 
#    0.000    0.000    0.000    0.000    0.000    0.000 
#    0.000    0.000    0.000    0.000    0.000    0.000 
#
# Total GULP energy -111948.738071 kJ/mol
# GULP energy per Si atom -5597.436904 kJ/mol
# Density = 2.551914 g / cm^3
# Si number density = 25.577353 Si / 1000 Ang^3
#
#
#
# Elastic Constant Matrix: (Units=GPa)
#
#
# Indices 1 2 3 4 5 6 
#
# 1 141.5845 22.9984 31.2277 0.0000 0.0000 0.0000
# 2 22.9984 145.7537 -6.0864 0.0000 0.0000 0.0000
# 3 31.2277 -6.0864 95.0020 0.0000 0.0000 0.0000
# 4 0.0000 0.0000 0.0000 41.4652 0.0000 0.0000
# 5 0.0000 0.0000 0.0000 0.0000 24.7735 0.0000
# 6 0.0000 0.0000 0.0000 0.0000 0.0000 29.1031
#
#
#
# Elastic Compliance Matrix: (Units=1/GPa)
#
#
# Indices 1 2 3 4 5 6 
#
# 1 0.007873 -0.001354 -0.002675 0.000000 0.000000 0.000000
# 2 -0.001354 0.007112 0.000901 0.000000 0.000000 0.000000
# 3 -0.002675 0.000901 0.011463 0.000000 0.000000 0.000000
# 4 0.000000 0.000000 0.000000 0.024117 0.000000 0.000000
# 5 0.000000 0.000000 0.000000 0.000000 0.040366 0.000000
# 6 0.000000 0.000000 0.000000 0.000000 0.000000 0.034361
#
#
# Mechanical properties :
#
#
# Convention : Reuss Voigt Hill
#
# Bulk Modulus (GPa) = 49.52397 53.17995 51.35196
# Shear Modulus (GPa) = 36.15931 41.34841 38.75386
#
# Velocity S-wave (km/s) = 3.76403 4.02506 3.89673
# Velocity P-wave (km/s) = 6.18830 6.51448 6.35348
#
# Compressibility (1/GPa) = 0.02019224
#
# Stress axis : x y z
#
# Youngs Moduli (GPa) = 127.02060 140.60474 87.23771
#
# Poissons Ratio (x) = 0.19037 0.23332
# Poissons Ratio (y) = 0.17198 -0.07857
# Poissons Ratio (z) = 0.33972 -0.12664
#
# Static dielectric constant tensor:
#      x y z
#    x 2.039350 0.000000 0.000000 
#    y 0.000000 2.075640 0.000000 
#    z 0.000000 0.000000 2.058210 
# 
# From -- ./inp_files/1700.got.cif
#   From: 2010.05.17/outbox.cif.g08.bks.cpg/sg41_1_cif.got.tgz:1700.got - 2010.06.03 18:54:24.
