data_PCOD9367119
_publ_section_title
;
Structure prediction by ZEFSAII (Michael W. Deem and Ramdas Pophale) SiO2 
 PCOD9367119
Probable space group: A B A 2
;
_chemical_formula_sum "Si O2"
_cell_formula_units_Z 56
_cell_length_a 12.766928
_cell_length_b 7.935224
_cell_length_c 22.386533
_cell_angle_alpha 90.000000
_cell_angle_beta 90.000000
_cell_angle_gamma 90.000000
_cell_volume 2267.944589
_symmetry_space_group_name_H-M "A B A 2"
_symmetry_group_IT_number 41
_symmetry_cell_setting 'orthorhombic'
loop_
_space_group_symop_operation_xyz
x,y,z
-x,-y,z
1/2-x,y,1/2+z
1/2+x,-y,1/2+z
x,1/2+y,1/2+z
-x,1/2-y,1/2+z
1/2-x,1/2+y,z
1/2+x,1/2-y,z
loop_
_atom_site_type_symbol
_atom_site_label
_atom_site_fract_x
_atom_site_fract_y
_atom_site_fract_z
Si Si1 0.844637 0.386275 0.226150
Si Si2 0.657406 0.267361 0.993533
Si Si3 0.500000 0.000000 0.037679
Si Si4 0.172523 0.227429 0.595222
Si Si5 0.320595 0.162622 0.824423
Si Si6 0.000000 0.000000 0.116114
Si Si7 0.694143 0.557257 0.910106
Si Si8 0.426290 0.245828 0.716377
O O1 0.801602 0.306205 0.164557
O O2 0.786318 0.325528 0.285648
O O3 0.851405 0.589097 0.218816
O O4 0.961280 0.321174 0.229513
O O5 0.722679 0.285637 0.055445
O O6 0.556246 0.150050 0.001667
O O7 0.631742 0.428488 0.952128
O O8 0.747553 0.178213 0.955446
O O9 0.593658 0.922466 0.076420
O O10 0.096122 0.392552 0.586446
O O11 0.359269 0.329803 0.858971
O O12 0.289929 0.032332 0.875042
O O13 0.396622 0.121448 0.770296
O O14 0.941674 0.860869 0.156693
#
# Coordination Sequence:
#
# PCOD9367119 Si02
#       8
#     8   8   4   8   8   4   8   8
#     4  10  23  43  66 105 142 183 226 292 382 440
#     4  11  25  51  69 106 139 196 249 319 364 456
#     4  12  26  48  75 108 143 204 248 310 406 450
#     4  11  25  43  72 103 146 182 240 313 373 456
#     4  11  22  44  71 100 137 188 225 300 363 439
#     4  10  24  40  69 110 139 186 244 292 384 466
#     4  10  24  47  69  98 145 182 253 294 371 439
#     4  10  22  42  63 103 144 176 236 287 356 454
#
# _framework density 24.691960000000002
#
# number of rings (size 3 to 8) (size 9 to 14) (size 15 to 20)
#    0.000    1.429    2.857    1.714    6.000    4.571 
#    5.143    1.429    0.000    0.000    0.000    0.000 
#    0.000    0.000    0.000    0.000    0.000    0.000 
#
# Total GULP energy -156385.532233 kJ/mol
# GULP energy per Si atom -5585.197580 kJ/mol
# Density = 2.463576 g / cm^3
# Si number density = 24.691960 Si / 1000 Ang^3
#
#
#
# Elastic Constant Matrix: (Units=GPa)
#
#
# Indices 1 2 3 4 5 6 
#
# 1 63.8792 18.9389 22.2362 0.0000 0.0000 0.0000
# 2 18.9389 65.0779 18.6265 0.0000 0.0000 0.0000
# 3 22.2362 18.6265 114.4354 0.0000 0.0000 0.0000
# 4 0.0000 0.0000 0.0000 21.8776 0.0000 0.0000
# 5 0.0000 0.0000 0.0000 0.0000 -79.3470 0.0000
# 6 0.0000 0.0000 0.0000 0.0000 0.0000 46.0861
#
#
#
# Elastic Compliance Matrix: (Units=1/GPa)
#
#
# Indices 1 2 3 4 5 6 
#
# 1 0.017929 -0.004427 -0.002763 0.000000 0.000000 0.000000
# 2 -0.004427 0.017210 -0.001941 0.000000 0.000000 0.000000
# 3 -0.002763 -0.001941 0.009591 0.000000 0.000000 0.000000
# 4 0.000000 0.000000 0.000000 0.045709 0.000000 0.000000
# 5 0.000000 0.000000 0.000000 0.000000 -0.012603 0.000000
# 6 0.000000 0.000000 0.000000 0.000000 0.000000 0.021699
#
#
# Mechanical properties :
#
#
# Convention : Reuss Voigt Hill
#
# Bulk Modulus (GPa) = 37.78121 40.33283 39.05702
# Shear Modulus (GPa) = 39.48830 9.96272 24.72551
#
# Velocity S-wave (km/s) = 4.00338 2.01086 3.16786
# Velocity P-wave (km/s) = 6.05836 4.66490 5.40671
#
# Compressibility (1/GPa) = 0.02646818
#
# Stress axis : x y z
#
# Youngs Moduli (GPa) = 55.77601 58.10560 104.25963
#
# Poissons Ratio (x) = 0.25722 0.28810
# Poissons Ratio (y) = 0.24691 0.20238
# Poissons Ratio (z) = 0.15412 0.11279
#
# Static dielectric constant tensor:
#      x y z
#    x 1.961000 0.000000 0.000000 
#    y 0.000000 1.958640 0.000000 
#    z 0.000000 0.000000 1.972220 
# 
# From -- ./inp_files/11573.got.cif
#   From: 2010.05.17/outbox.cif.g08.bks.cpg/sg41_6_cif.got.tgz:11573.got - 2010.06.03 18:54:24.
