data_PCOD9367874
_publ_section_title
;
Structure prediction by ZEFSAII (Michael W. Deem and Ramdas Pophale) SiO2 
 PCOD9367874
Probable space group: A B A 2
;
_chemical_formula_sum "Si O2"
_cell_formula_units_Z 56
_cell_length_a 13.682889
_cell_length_b 14.476660
_cell_length_c 12.028624
_cell_angle_alpha 90.000000
_cell_angle_beta 90.000000
_cell_angle_gamma 90.000000
_cell_volume 2382.660297
_symmetry_space_group_name_H-M "A B A 2"
_symmetry_group_IT_number 41
_symmetry_cell_setting 'orthorhombic'
loop_
_space_group_symop_operation_xyz
x,y,z
-x,-y,z
1/2-x,y,1/2+z
1/2+x,-y,1/2+z
x,1/2+y,1/2+z
-x,1/2-y,1/2+z
1/2-x,1/2+y,z
1/2+x,1/2-y,z
loop_
_atom_site_type_symbol
_atom_site_label
_atom_site_fract_x
_atom_site_fract_y
_atom_site_fract_z
Si Si1 0.134187 0.141593 0.013410
Si Si2 0.254185 0.303248 0.921301
Si Si3 0.500000 0.000000 0.936641
Si Si4 0.542214 0.232931 0.160855
Si Si5 0.829705 0.574099 0.252680
Si Si6 0.000000 0.000000 0.907549
Si Si7 0.465338 0.707900 0.403158
Si Si8 0.786196 0.013170 0.542100
O O1 0.113133 0.179894 0.136406
O O2 0.220017 0.068343 0.996109
O O3 0.167830 0.232660 0.946223
O O4 0.036976 0.088031 0.975877
O O5 0.247240 0.365588 0.811618
O O6 0.353863 0.245987 0.906623
O O7 0.257669 0.385795 0.012382
O O8 0.397347 0.993508 0.002246
O O9 0.512860 0.899977 0.880417
O O10 0.606911 0.142129 0.176398
O O11 0.496041 0.245495 0.284841
O O12 0.490642 0.221832 0.038285
O O13 0.783819 0.498885 0.173951
O O14 0.908011 0.531238 0.335340
#
# Coordination Sequence:
#
# PCOD9367874 Si02
#       8
#     8   8   4   8   8   4   8   8
#     4  12  25  48  75 107 155 197 256 326 381 461
#     4  11  24  48  71 108 153 198 252 317 383 457
#     4  12  23  47  78 110 150 198 258 316 384 456
#     4  11  25  47  72 111 152 202 257 313 389 458
#     4  11  24  45  75 107 150 201 260 310 384 470
#     4  12  27  47  76 116 152 202 260 316 394 464
#     4  11  25  49  76 110 153 204 254 316 385 459
#     4  12  25  47  73 110 150 196 262 313 393 451
#
# _framework density 23.503142
#
# number of rings (size 3 to 8) (size 9 to 14) (size 15 to 20)
#    0.000    0.571    5.714    2.143    0.000    4.000 
#    7.714    0.000    0.000    0.000    0.000    0.000 
#    0.000    0.000    0.000    0.000    0.000    0.000 
#
# Total GULP energy -155959.036883 kJ/mol
# GULP energy per Si atom -5569.965603 kJ/mol
# Density = 2.344965 g / cm^3
# Si number density = 23.503142 Si / 1000 Ang^3
#
#
#
# Elastic Constant Matrix: (Units=GPa)
#
#
# Indices 1 2 3 4 5 6 
#
# 1 64.7219 13.9557 30.9057 0.0000 0.0000 0.0000
# 2 13.9557 103.0819 21.6404 0.0000 0.0000 0.0000
# 3 30.9057 21.6404 108.5194 0.0000 0.0000 0.0000
# 4 0.0000 0.0000 0.0000 8.8341 0.0000 0.0000
# 5 0.0000 0.0000 0.0000 0.0000 9.9714 0.0000
# 6 0.0000 0.0000 0.0000 0.0000 0.0000 22.3852
#
#
#
# Elastic Compliance Matrix: (Units=1/GPa)
#
#
# Indices 1 2 3 4 5 6 
#
# 1 0.018081 -0.001427 -0.004865 0.000000 0.000000 0.000000
# 2 -0.001427 0.010237 -0.001635 0.000000 0.000000 0.000000
# 3 -0.004865 -0.001635 0.010927 0.000000 0.000000 0.000000
# 4 0.000000 0.000000 0.000000 0.113198 0.000000 0.000000
# 5 0.000000 0.000000 0.000000 0.000000 0.100287 0.000000
# 6 0.000000 0.000000 0.000000 0.000000 0.000000 0.044672
#
#
# Mechanical properties :
#
#
# Convention : Reuss Voigt Hill
#
# Bulk Modulus (GPa) = 42.75005 45.48077 44.11541
# Shear Modulus (GPa) = 15.57375 22.22624 18.89999
#
# Velocity S-wave (km/s) = 2.57694 3.07851 2.83883
# Velocity P-wave (km/s) = 5.20411 5.65944 5.43654
#
# Compressibility (1/GPa) = 0.02339178
#
# Stress axis : x y z
#
# Youngs Moduli (GPa) = 55.30533 97.68051 91.52024
#
# Poissons Ratio (x) = 0.13935 0.44525
# Poissons Ratio (y) = 0.07890 0.14966
# Poissons Ratio (z) = 0.26906 0.15973
#
# Static dielectric constant tensor:
#      x y z
#    x 1.937220 0.000000 0.000000 
#    y 0.000000 1.950250 0.000000 
#    z 0.000000 0.000000 1.972060 
# 
# From -- ./inp_files/5626.got.cif
#   From: 2010.05.17/outbox.cif.g08.bks.cpg/sg41_3_cif.got.tgz:5626.got - 2010.06.03 18:54:24.
