data_PCOD9367578
_publ_section_title
;
Structure prediction by ZEFSAII (Michael W. Deem and Ramdas Pophale) SiO2 
 PCOD9367578
Probable space group: A B A 2
;
_chemical_formula_sum "Si O2"
_cell_formula_units_Z 48
_cell_length_a 17.288245
_cell_length_b 13.077122
_cell_length_c 9.671096
_cell_angle_alpha 90.000000
_cell_angle_beta 90.000000
_cell_angle_gamma 90.000000
_cell_volume 2186.446113
_symmetry_space_group_name_H-M "A B A 2"
_symmetry_group_IT_number 41
_symmetry_cell_setting 'orthorhombic'
loop_
_space_group_symop_operation_xyz
x,y,z
-x,-y,z
1/2-x,y,1/2+z
1/2+x,-y,1/2+z
x,1/2+y,1/2+z
-x,1/2-y,1/2+z
1/2-x,1/2+y,z
1/2+x,1/2-y,z
loop_
_atom_site_type_symbol
_atom_site_label
_atom_site_fract_x
_atom_site_fract_y
_atom_site_fract_z
Si Si1 0.000000 0.000000 0.026721
Si Si2 0.500000 0.000000 0.064183
Si Si3 0.666411 0.466682 0.452934
Si Si4 0.766259 0.288811 0.109787
Si Si5 0.730007 0.652613 0.857465
Si Si6 0.111561 0.143675 0.193990
Si Si7 0.439244 0.354475 0.788300
O O1 0.064364 0.054301 0.121076
O O2 0.968910 0.091344 0.927801
O O3 0.511555 0.096239 0.165291
O O4 0.422721 0.006868 0.976413
O O5 0.695911 0.398763 0.581512
O O6 0.719081 0.563195 0.420591
O O7 0.666656 0.400867 0.312877
O O8 0.775670 0.226559 0.251833
O O9 0.673337 0.303689 0.090938
O O10 0.798257 0.217964 0.988015
O O11 0.652100 0.616001 0.779840
O O12 0.060316 0.232266 0.265836
#
# Coordination Sequence:
#
# PCOD9367578 Si02
#       7
#     4   4   8   8   8   8   8
#     4  11  25  44  72  96 149 191 224 306 364 430
#     4  11  27  46  68 104 147 185 232 302 362 438
#     4  12  25  44  71 103 140 185 242 290 367 427
#     4  11  24  45  68 104 137 188 237 305 351 435
#     4  11  25  44  75 101 141 183 242 298 357 432
#     4  11  25  43  68 105 136 183 245 285 364 432
#     4  10  24  47  68 103 141 188 235 295 368 430
#
# _framework density 21.953434000000001
#
# number of rings (size 3 to 8) (size 9 to 14) (size 15 to 20)
#    0.000    1.000    3.333    3.500    9.333    2.667 
#    6.000    0.000    0.000    0.000    0.000    0.000 
#    0.000    0.000    0.000    0.000    0.000    0.000 
#
# Total GULP energy -134047.483703 kJ/mol
# GULP energy per Si atom -5585.311821 kJ/mol
# Density = 2.190347 g / cm^3
# Si number density = 21.953434 Si / 1000 Ang^3
#
#
#
# Elastic Constant Matrix: (Units=GPa)
#
#
# Indices 1 2 3 4 5 6 
#
# 1 50.8326 2.7139 -3.0748 0.0000 0.0000 0.0000
# 2 2.7139 80.2049 8.5881 0.0000 0.0000 0.0000
# 3 -3.0748 8.5881 55.0034 0.0000 0.0000 0.0000
# 4 0.0000 0.0000 0.0000 21.9402 0.0000 0.0000
# 5 0.0000 0.0000 0.0000 0.0000 8.2291 0.0000
# 6 0.0000 0.0000 0.0000 0.0000 0.0000 33.1969
#
#
#
# Elastic Compliance Matrix: (Units=1/GPa)
#
#
# Indices 1 2 3 4 5 6 
#
# 1 0.019790 -0.000801 0.001231 0.000000 0.000000 0.000000
# 2 -0.000801 0.012713 -0.002030 0.000000 0.000000 0.000000
# 3 0.001231 -0.002030 0.018566 0.000000 0.000000 0.000000
# 4 0.000000 0.000000 0.000000 0.045578 0.000000 0.000000
# 5 0.000000 0.000000 0.000000 0.000000 0.121520 0.000000
# 6 0.000000 0.000000 0.000000 0.000000 0.000000 0.030123
#
#
# Mechanical properties :
#
#
# Convention : Reuss Voigt Hill
#
# Bulk Modulus (GPa) = 20.89029 22.49948 21.69488
# Shear Modulus (GPa) = 18.69534 24.52749 21.61142
#
# Velocity S-wave (km/s) = 2.92137 3.34616 3.14095
# Velocity P-wave (km/s) = 4.57336 5.01996 4.80185
#
# Compressibility (1/GPa) = 0.04786912
#
# Stress axis : x y z
#
# Youngs Moduli (GPa) = 50.53139 78.66262 53.86062
#
# Poissons Ratio (x) = 0.06305 -0.06632
# Poissons Ratio (y) = 0.04050 0.10932
# Poissons Ratio (z) = -0.06223 0.15966
#
# Static dielectric constant tensor:
#      x y z
#    x 1.804340 0.000000 0.000000 
#    y 0.000000 1.853120 0.000000 
#    z 0.000000 0.000000 1.832010 
# 
# From -- ./inp_files/3055.got.cif
#   From: 2010.05.17/outbox.cif.g08.bks.cpg/sg41_2_cif.got.tgz:3055.got - 2010.06.03 18:54:24.
