data_PCOD9367762
_publ_section_title
;
Structure prediction by ZEFSAII (Michael W. Deem and Ramdas Pophale) SiO2 
 PCOD9367762
Probable space group: A B A 2
;
_chemical_formula_sum "Si O2"
_cell_formula_units_Z 40
_cell_length_a 18.212054
_cell_length_b 13.242137
_cell_length_c 7.820309
_cell_angle_alpha 90.000000
_cell_angle_beta 90.000000
_cell_angle_gamma 90.000000
_cell_volume 1885.996661
_symmetry_space_group_name_H-M "A B A 2"
_symmetry_group_IT_number 41
_symmetry_cell_setting 'orthorhombic'
loop_
_space_group_symop_operation_xyz
x,y,z
-x,-y,z
1/2-x,y,1/2+z
1/2+x,-y,1/2+z
x,1/2+y,1/2+z
-x,1/2-y,1/2+z
1/2-x,1/2+y,z
1/2+x,1/2-y,z
loop_
_atom_site_type_symbol
_atom_site_label
_atom_site_fract_x
_atom_site_fract_y
_atom_site_fract_z
Si Si1 0.083312 0.956467 0.844780
Si Si2 0.576574 0.744187 0.019638
Si Si3 0.009292 0.120580 0.286278
Si Si4 0.156452 0.556041 0.671734
Si Si5 0.177609 0.571879 0.058901
O O1 0.129912 0.005925 0.691907
O O2 0.080944 0.835713 0.864277
O O3 0.000000 0.000000 0.845977
O O4 0.124843 0.987653 0.020110
O O5 0.551033 0.679327 0.180134
O O6 0.646595 0.813785 0.052311
O O7 0.516172 0.828439 0.969914
O O8 0.088963 0.134524 0.194807
O O9 0.000000 0.000000 0.294746
O O10 0.237919 0.582065 0.611317
O O11 0.167628 0.523189 0.869966
#
# Coordination Sequence:
#
# PCOD9367762 Si02
#       5
#     8   8   8   8   8
#     4  12  23  48  74 103 148 188 238 307 357 428
#     4  11  24  42  70 106 131 192 239 278 378 421
#     4  11  23  43  69 100 141 178 239 298 348 434
#     4  11  22  46  69 100 149 186 233 312 349 422
#     4  11  26  43  71 105 146 186 246 297 364 423
#
# _framework density 21.208946000000001
#
# number of rings (size 3 to 8) (size 9 to 14) (size 15 to 20)
#    0.000    0.800    6.000    1.200    0.000    7.200 
#    7.200    2.000    0.000    0.000    0.000    0.000 
#    0.000    0.000    0.000    0.000    0.000    0.000 
#
# Total GULP energy -111491.765752 kJ/mol
# GULP energy per Si atom -5574.588288 kJ/mol
# Density = 2.116067 g / cm^3
# Si number density = 21.208946 Si / 1000 Ang^3
#
#
#
# Elastic Constant Matrix: (Units=GPa)
#
#
# Indices 1 2 3 4 5 6 
#
# 1 135.0080 38.5934 35.3459 0.0000 0.0000 0.0000
# 2 38.5934 121.2077 36.1744 0.0000 0.0000 0.0000
# 3 35.3459 36.1744 118.6197 0.0000 0.0000 0.0000
# 4 0.0000 0.0000 0.0000 25.1045 0.0000 0.0000
# 5 0.0000 0.0000 0.0000 0.0000 47.4103 0.0000
# 6 0.0000 0.0000 0.0000 0.0000 0.0000 16.8374
#
#
#
# Elastic Compliance Matrix: (Units=1/GPa)
#
#
# Indices 1 2 3 4 5 6 
#
# 1 0.008514 -0.002149 -0.001881 0.000000 0.000000 0.000000
# 2 -0.002149 0.009619 -0.002293 0.000000 0.000000 0.000000
# 3 -0.001881 -0.002293 0.009690 0.000000 0.000000 0.000000
# 4 0.000000 0.000000 0.000000 0.039834 0.000000 0.000000
# 5 0.000000 0.000000 0.000000 0.000000 0.021092 0.000000
# 6 0.000000 0.000000 0.000000 0.000000 0.000000 0.059392
#
#
# Mechanical properties :
#
#
# Convention : Reuss Voigt Hill
#
# Bulk Modulus (GPa) = 65.89554 66.11809 66.00682
# Shear Modulus (GPa) = 30.14826 35.51854 32.83340
#
# Velocity S-wave (km/s) = 3.77435 4.09674 3.93885
# Velocity P-wave (km/s) = 7.08036 7.32257 7.20248
#
# Compressibility (1/GPa) = 0.01517553
#
# Stress axis : x y z
#
# Youngs Moduli (GPa) = 117.45399 103.96074 103.19700
#
# Poissons Ratio (x) = 0.22345 0.19416
# Poissons Ratio (y) = 0.25245 0.23663
# Poissons Ratio (z) = 0.22099 0.23838
#
# Static dielectric constant tensor:
#      x y z
#    x 1.786350 0.000000 0.000000 
#    y 0.000000 1.790350 0.000000 
#    z 0.000000 0.000000 1.829860 
# 
# From -- ./inp_files/2910.got.cif
#   From: 2010.05.17/outbox.cif.g08.bks.cpg/sg41_2_cif.got.tgz:2910.got - 2010.06.03 18:54:24.
