data_PCOD9367109
_publ_section_title
;
Structure prediction by ZEFSAII (Michael W. Deem and Ramdas Pophale) SiO2 
 PCOD9367109
Probable space group: A B A 2
;
_chemical_formula_sum "Si O2"
_cell_formula_units_Z 56
_cell_length_a 5.081135
_cell_length_b 32.084566
_cell_length_c 15.116860
_cell_angle_alpha 90.000000
_cell_angle_beta 90.000000
_cell_angle_gamma 90.000000
_cell_volume 2464.441389
_symmetry_space_group_name_H-M "A B A 2"
_symmetry_group_IT_number 41
_symmetry_cell_setting 'orthorhombic'
loop_
_space_group_symop_operation_xyz
x,y,z
-x,-y,z
1/2-x,y,1/2+z
1/2+x,-y,1/2+z
x,1/2+y,1/2+z
-x,1/2-y,1/2+z
1/2-x,1/2+y,z
1/2+x,1/2-y,z
loop_
_atom_site_type_symbol
_atom_site_label
_atom_site_fract_x
_atom_site_fract_y
_atom_site_fract_z
Si Si1 0.442500 0.601460 0.803310
Si Si2 0.261696 0.472928 0.292257
Si Si3 0.320821 0.329586 0.523869
Si Si4 0.977562 0.776927 0.359055
Si Si5 0.805928 0.383811 0.490874
Si Si6 0.548791 0.422572 0.157778
Si Si7 0.282681 0.334739 0.212699
O O1 0.683254 0.571737 0.833824
O O2 0.300932 0.578295 0.722172
O O3 0.542497 0.645689 0.768081
O O4 0.262373 0.606106 0.888663
O O5 0.500000 0.500000 0.331854
O O6 0.361710 0.458371 0.195110
O O7 0.000000 0.500000 0.294082
O O8 0.440447 0.299322 0.450286
O O9 0.540917 0.365468 0.532242
O O10 0.289728 0.311112 0.622306
O O11 0.043983 0.349848 0.493628
O O12 0.178041 0.737920 0.354329
O O13 0.046387 0.807334 0.278252
O O14 0.890327 0.421674 0.554465
O O15 0.425558 0.376912 0.178657
#
# Coordination Sequence:
#
# PCOD9367109 Si02
#       7
#     8   8   8   8   8   8   8
#     4  11  21  41  70  96 126 171 223 268 322 382
#     4  11  23  41  65  92 137 181 207 262 328 389
#     4  11  23  42  64  93 131 164 218 278 327 379
#     4  12  27  42  63  94 134 175 214 266 338 395
#     4  11  23  38  69  99 124 160 223 281 315 378
#     4  10  22  41  69 100 124 171 225 265 327 384
#     4  10  23  41  68  95 126 175 222 274 319 391
#
# _framework density 22.723201
#
# number of rings (size 3 to 8) (size 9 to 14) (size 15 to 20)
#    0.000    1.143    4.286    1.714    4.000    1.143 
#    0.000    1.429    0.000    0.000    0.000    0.000 
#    0.000    0.000    0.000    0.000    0.000    0.000 
#
# Total GULP energy -156461.137300 kJ/mol
# GULP energy per Si atom -5587.897761 kJ/mol
# Density = 2.267148 g / cm^3
# Si number density = 22.723201 Si / 1000 Ang^3
#
#
#
# Elastic Constant Matrix: (Units=GPa)
#
#
# Indices 1 2 3 4 5 6 
#
# 1 92.9041 8.1459 -6.3832 0.0000 0.0000 0.0000
# 2 8.1459 39.0118 5.1508 0.0000 0.0000 0.0000
# 3 -6.3832 5.1508 92.7194 0.0000 0.0000 0.0000
# 4 0.0000 0.0000 0.0000 15.8056 0.0000 0.0000
# 5 0.0000 0.0000 0.0000 0.0000 24.4926 0.0000
# 6 0.0000 0.0000 0.0000 0.0000 0.0000 40.1238
#
#
#
# Elastic Compliance Matrix: (Units=1/GPa)
#
#
# Indices 1 2 3 4 5 6 
#
# 1 0.011038 -0.002423 0.000894 0.000000 0.000000 0.000000
# 2 -0.002423 0.026354 -0.001631 0.000000 0.000000 0.000000
# 3 0.000894 -0.001631 0.010937 0.000000 0.000000 0.000000
# 4 0.000000 0.000000 0.000000 0.063269 0.000000 0.000000
# 5 0.000000 0.000000 0.000000 0.000000 0.040829 0.000000
# 6 0.000000 0.000000 0.000000 0.000000 0.000000 0.024923
#
#
# Mechanical properties :
#
#
# Convention : Reuss Voigt Hill
#
# Bulk Modulus (GPa) = 23.80319 26.49580 25.14949
# Shear Modulus (GPa) = 25.29442 30.59918 27.94680
#
# Velocity S-wave (km/s) = 3.34002 3.67359 3.51077
# Velocity P-wave (km/s) = 5.03709 5.44787 5.24650
#
# Compressibility (1/GPa) = 0.04201118
#
# Stress axis : x y z
#
# Youngs Moduli (GPa) = 90.59873 37.94420 91.42941
#
# Poissons Ratio (x) = 0.09193 -0.08178
# Poissons Ratio (y) = 0.21950 0.14911
# Poissons Ratio (z) = -0.08104 0.06188
#
# Static dielectric constant tensor:
#      x y z
#    x 1.893100 0.000000 0.000000 
#    y 0.000000 1.889360 0.000000 
#    z 0.000000 0.000000 1.855650 
# 
# From -- ./inp_files/6957.got.cif
#   From: 2010.05.17/outbox.cif.g08.bks.cpg/sg41_4_cif.got.tgz:6957.got - 2010.06.03 18:54:24.
