data_PCOD9367151
_publ_section_title
;
Structure prediction by ZEFSAII (Michael W. Deem and Ramdas Pophale) SiO2 
 PCOD9367151
Probable space group: A B A 2
;
_chemical_formula_sum "Si O2"
_cell_formula_units_Z 64
_cell_length_a 17.323431
_cell_length_b 16.149210
_cell_length_c 10.008457
_cell_angle_alpha 90.000000
_cell_angle_beta 90.000000
_cell_angle_gamma 90.000000
_cell_volume 2799.963179
_symmetry_space_group_name_H-M "A B A 2"
_symmetry_group_IT_number 41
_symmetry_cell_setting 'orthorhombic'
loop_
_space_group_symop_operation_xyz
x,y,z
-x,-y,z
1/2-x,y,1/2+z
1/2+x,-y,1/2+z
x,1/2+y,1/2+z
-x,1/2-y,1/2+z
1/2-x,1/2+y,z
1/2+x,1/2-y,z
loop_
_atom_site_type_symbol
_atom_site_label
_atom_site_fract_x
_atom_site_fract_y
_atom_site_fract_z
Si Si1 0.308473 0.729937 0.514210
Si Si2 0.437690 0.750049 0.739029
Si Si3 0.720329 0.056253 0.243192
Si Si4 0.588568 0.514833 0.387480
Si Si5 0.235210 0.553717 0.984414
Si Si6 0.593164 0.166303 0.334955
Si Si7 0.445516 0.424735 0.108794
Si Si8 0.824522 0.670099 0.923665
O O1 0.375912 0.724089 0.624788
O O2 0.254382 0.649093 0.515514
O O3 0.354375 0.754298 0.377770
O O4 0.242697 0.801810 0.522916
O O5 0.510850 0.694039 0.776320
O O6 0.469974 0.841010 0.691593
O O7 0.381688 0.760496 0.867218
O O8 0.639630 0.104148 0.241332
O O9 0.778401 0.126519 0.300477
O O10 0.719733 0.986574 0.360923
O O11 0.741953 0.007968 0.109178
O O12 0.500000 0.500000 0.411533
O O13 0.645334 0.445407 0.438965
O O14 0.599180 0.527530 0.228038
O O15 0.617533 0.597098 0.460176
O O16 0.587649 0.116070 0.475535
O O17 0.500000 0.500000 0.062761
#
# Coordination Sequence:
#
# PCOD9367151 Si02
#       8
#     8   8   8   8   8   8   8   8
#     4  10  24  42  67 103 148 187 239 305 369 453
#     4  10  22  42  69 100 143 185 244 299 369 433
#     4  10  25  45  69 100 140 200 237 306 370 444
#     4   9  20  38  69 100 133 179 237 300 363 434
#     4  11  25  42  71 102 141 187 251 301 368 449
#     4  10  23  45  70 103 147 191 244 310 369 433
#     4   9  20  40  66  98 139 182 231 298 366 434
#     4   9  21  42  68  95 141 186 236 291 374 432
#
# _framework density 22.857443
#
# number of rings (size 3 to 8) (size 9 to 14) (size 15 to 20)
#    0.000    2.250    0.000    0.000   17.500    2.000 
#    9.000    0.000    0.000    0.000    0.000    0.000 
#    0.000    0.000    0.000    0.000    0.000    0.000 
#
# Total GULP energy -178233.080867 kJ/mol
# GULP energy per Si atom -5569.783777 kJ/mol
# Density = 2.280542 g / cm^3
# Si number density = 22.857443 Si / 1000 Ang^3
#
#
#
# Elastic Constant Matrix: (Units=GPa)
#
#
# Indices 1 2 3 4 5 6 
#
# 1 132.9685 48.4000 23.9148 0.0000 0.0000 0.0000
# 2 48.4000 76.6944 20.3813 0.0000 0.0000 0.0000
# 3 23.9148 20.3813 97.4264 0.0000 0.0000 0.0000
# 4 0.0000 0.0000 0.0000 12.4354 0.0000 0.0000
# 5 0.0000 0.0000 0.0000 0.0000 24.9270 0.0000
# 6 0.0000 0.0000 0.0000 0.0000 0.0000 44.3103
#
#
#
# Elastic Compliance Matrix: (Units=1/GPa)
#
#
# Indices 1 2 3 4 5 6 
#
# 1 0.009892 -0.005927 -0.001188 0.000000 0.000000 0.000000
# 2 -0.005927 0.017357 -0.002176 0.000000 0.000000 0.000000
# 3 -0.001188 -0.002176 0.011011 0.000000 0.000000 0.000000
# 4 0.000000 0.000000 0.000000 0.080416 0.000000 0.000000
# 5 0.000000 0.000000 0.000000 0.000000 0.040117 0.000000
# 6 0.000000 0.000000 0.000000 0.000000 0.000000 0.022568
#
#
# Mechanical properties :
#
#
# Convention : Reuss Voigt Hill
#
# Bulk Modulus (GPa) = 50.81895 54.72018 52.76957
# Shear Modulus (GPa) = 24.21282 30.62741 27.42012
#
# Velocity S-wave (km/s) = 3.25822 3.66448 3.46730
# Velocity P-wave (km/s) = 6.03621 6.47273 6.25828
#
# Compressibility (1/GPa) = 0.01967770
#
# Stress axis : x y z
#
# Youngs Moduli (GPa) = 101.09671 57.61291 90.81746
#
# Poissons Ratio (x) = 0.34145 0.10791
# Poissons Ratio (y) = 0.59915 0.19765
# Poissons Ratio (z) = 0.12012 0.12538
#
# Static dielectric constant tensor:
#      x y z
#    x 1.900400 0.000000 0.000000 
#    y 0.000000 1.916800 0.000000 
#    z 0.000000 0.000000 1.899830 
# 
# From -- ./inp_files/6043.got.cif
#   From: 2010.05.17/outbox.cif.g08.bks.cpg/sg41_4_cif.got.tgz:6043.got - 2010.06.03 18:54:24.
