data_PCOD9367041
_publ_section_title
;
Structure prediction by ZEFSAII (Michael W. Deem and Ramdas Pophale) SiO2 
 PCOD9367041
Probable space group: A B A 2
;
_chemical_formula_sum "Si O2"
_cell_formula_units_Z 64
_cell_length_a 13.410923
_cell_length_b 17.572794
_cell_length_c 14.155701
_cell_angle_alpha 90.000000
_cell_angle_beta 90.000000
_cell_angle_gamma 90.000000
_cell_volume 3336.037069
_symmetry_space_group_name_H-M "A B A 2"
_symmetry_group_IT_number 41
_symmetry_cell_setting 'orthorhombic'
loop_
_space_group_symop_operation_xyz
x,y,z
-x,-y,z
1/2-x,y,1/2+z
1/2+x,-y,1/2+z
x,1/2+y,1/2+z
-x,1/2-y,1/2+z
1/2-x,1/2+y,z
1/2+x,1/2-y,z
loop_
_atom_site_type_symbol
_atom_site_label
_atom_site_fract_x
_atom_site_fract_y
_atom_site_fract_z
Si Si1 0.270303 0.085946 0.092710
Si Si2 0.268677 0.562025 0.374704
Si Si3 0.390927 0.812013 0.187612
Si Si4 0.614692 0.513149 0.742990
Si Si5 0.226603 0.765009 0.054594
Si Si6 0.928117 0.710634 0.706792
Si Si7 0.253640 0.240788 0.340161
Si Si8 0.426832 0.568009 0.218216
O O1 0.286820 0.176288 0.082597
O O2 0.162640 0.076141 0.142663
O O3 0.348879 0.043131 0.159473
O O4 0.274834 0.053789 0.986741
O O5 0.187549 0.506218 0.329457
O O6 0.237630 0.649606 0.351140
O O7 0.371723 0.551463 0.317776
O O8 0.375743 0.900009 0.210427
O O9 0.334312 0.791525 0.091264
O O10 0.504437 0.784820 0.187507
O O11 0.332409 0.763268 0.266890
O O12 0.500000 0.500000 0.767611
O O13 0.142153 0.806611 0.116386
O O14 0.224438 0.772467 0.942581
O O15 0.854540 0.725947 0.794605
O O16 0.005378 0.642840 0.723385
O O17 0.500000 0.500000 0.192401
#
# Coordination Sequence:
#
# PCOD9367041 Si02
#       8
#     8   8   8   8   8   8   8   8
#     4  10  22  44  63  87 129 162 199 253 305 361
#     4  10  22  44  63  87 129 162 199 253 305 361
#     4  11  21  39  61  90 122 157 205 252 301 363
#     4  11  23  39  60  89 121 163 203 245 307 360
#     4  10  22  40  63  90 119 160 202 254 307 356
#     4  11  21  41  63  88 125 159 206 253 304 369
#     4  10  22  40  63  90 119 160 202 254 307 356
#     4  11  23  41  62  92 124 168 206 244 308 367
#
# _framework density 19.184439000000001
#
# number of rings (size 3 to 8) (size 9 to 14) (size 15 to 20)
#    0.000    1.500    2.500    3.750    7.000    3.000 
#    4.500    0.000    0.000    0.000    0.000    0.000 
#    0.000    0.000    0.000    0.000    0.000    0.000 
#
# Total GULP energy -178759.593583 kJ/mol
# GULP energy per Si atom -5586.237299 kJ/mol
# Density = 1.914077 g / cm^3
# Si number density = 19.184439 Si / 1000 Ang^3
#
#
#
# Elastic Constant Matrix: (Units=GPa)
#
#
# Indices 1 2 3 4 5 6 
#
# 1 106.8383 3.3201 16.9833 0.0000 0.0000 0.0000
# 2 3.3201 39.8615 -24.4939 0.0000 0.0000 0.0000
# 3 16.9833 -24.4939 57.6211 0.0000 0.0000 0.0000
# 4 0.0000 0.0000 0.0000 17.7198 0.0000 0.0000
# 5 0.0000 0.0000 0.0000 0.0000 7.0059 0.0000
# 6 0.0000 0.0000 0.0000 0.0000 0.0000 32.9190
#
#
#
# Elastic Compliance Matrix: (Units=1/GPa)
#
#
# Indices 1 2 3 4 5 6 
#
# 1 0.010198 -0.003650 -0.004557 0.000000 0.000000 0.000000
# 2 -0.003650 0.035263 0.016065 0.000000 0.000000 0.000000
# 3 -0.004557 0.016065 0.025527 0.000000 0.000000 0.000000
# 4 0.000000 0.000000 0.000000 0.056434 0.000000 0.000000
# 5 0.000000 0.000000 0.000000 0.000000 0.142736 0.000000
# 6 0.000000 0.000000 0.000000 0.000000 0.000000 0.030378
#
#
# Mechanical properties :
#
#
# Convention : Reuss Voigt Hill
#
# Bulk Modulus (GPa) = 11.53341 21.77109 16.65225
# Shear Modulus (GPa) = 15.93781 25.42973 20.68377
#
# Velocity S-wave (km/s) = 2.88543 3.64475 3.28709
# Velocity P-wave (km/s) = 4.13834 5.39307 4.80682
#
# Compressibility (1/GPa) = 0.08670466
#
# Stress axis : x y z
#
# Youngs Moduli (GPa) = 98.06079 28.35868 39.17412
#
# Poissons Ratio (x) = 0.10350 0.17852
# Poissons Ratio (y) = 0.35788 -0.62934
# Poissons Ratio (z) = 0.44687 -0.45559
#
# Static dielectric constant tensor:
#      x y z
#    x 1.647800 0.000000 0.000000 
#    y 0.000000 1.719760 0.000000 
#    z 0.000000 0.000000 1.649360 
# 
# From -- ./inp_files/8119.got.cif
#   From: 2010.05.17/outbox.cif.g08.bks.cpg/sg41_5_cif.got.tgz:8119.got - 2010.06.03 18:54:24.
