data_PCOD9367675
_publ_section_title
;
Structure prediction by ZEFSAII (Michael W. Deem and Ramdas Pophale) SiO2 
 PCOD9367675
Probable space group: A B A 2
;
_chemical_formula_sum "Si O2"
_cell_formula_units_Z 64
_cell_length_a 13.446030
_cell_length_b 15.124780
_cell_length_c 14.756329
_cell_angle_alpha 90.000000
_cell_angle_beta 90.000000
_cell_angle_gamma 90.000000
_cell_volume 3000.968741
_symmetry_space_group_name_H-M "A B A 2"
_symmetry_group_IT_number 41
_symmetry_cell_setting 'orthorhombic'
loop_
_space_group_symop_operation_xyz
x,y,z
-x,-y,z
1/2-x,y,1/2+z
1/2+x,-y,1/2+z
x,1/2+y,1/2+z
-x,1/2-y,1/2+z
1/2-x,1/2+y,z
1/2+x,1/2-y,z
loop_
_atom_site_type_symbol
_atom_site_label
_atom_site_fract_x
_atom_site_fract_y
_atom_site_fract_z
Si Si1 0.737687 0.814808 0.785700
Si Si2 0.112518 0.975829 0.650034
Si Si3 0.421122 0.234354 0.636286
Si Si4 0.609030 0.323106 0.641711
Si Si5 0.747581 0.532052 0.492539
Si Si6 0.421439 0.422316 0.127807
Si Si7 0.226277 0.970396 0.286257
Si Si8 0.242884 0.682869 0.492275
O O1 0.646895 0.779596 0.724403
O O2 0.837291 0.785763 0.731125
O O3 0.723679 0.921930 0.789628
O O4 0.746630 0.785705 0.889410
O O5 0.151357 0.077693 0.643838
O O6 0.151371 0.942665 0.553105
O O7 0.175151 0.937786 0.733079
O O8 0.000000 0.000000 0.668005
O O9 0.489409 0.321686 0.640587
O O10 0.511677 0.164577 0.632864
O O11 0.350126 0.219846 0.550076
O O12 0.659816 0.289069 0.549784
O O13 0.840020 0.572978 0.547783
O O14 0.730557 0.560661 0.389532
O O15 0.765715 0.424985 0.489319
O O16 0.500000 0.500000 0.112447
O O17 0.363667 0.439536 0.222153
#
# Coordination Sequence:
#
# PCOD9367675 Si02
#       8
#     8   8   8   8   8   8   8   8
#     4   9  18  36  57  75 103 144 178 213 264 324
#     4   9  18  36  55  74 105 142 177 213 270 324
#     4  11  20  35  57  80 106 142 178 225 265 317
#     4   9  20  36  53  78 106 140 179 216 269 320
#     4   9  18  34  54  78 108 136 175 224 261 313
#     4  11  18  33  55  81 105 136 183 220 263 314
#     4   9  18  34  54  78 108 136 175 224 261 313
#     4   9  18  36  57  75 103 144 178 213 264 324
#
# _framework density 21.326447000000002
#
# number of rings (size 3 to 8) (size 9 to 14) (size 15 to 20)
#    0.000    2.500    2.500    1.500    0.000    2.000 
#   13.500    1.250    0.000    0.000    0.000    0.000 
#    0.000    0.000    0.000    0.000    0.000    0.000 
#
# Total GULP energy -178346.805517 kJ/mol
# GULP energy per Si atom -5573.337672 kJ/mol
# Density = 2.127791 g / cm^3
# Si number density = 21.326447 Si / 1000 Ang^3
#
#
#
# Elastic Constant Matrix: (Units=GPa)
#
#
# Indices 1 2 3 4 5 6 
#
# 1 102.3845 -20.9642 58.2472 0.0000 0.0000 0.0000
# 2 -20.9642 45.7629 -8.3152 0.0000 0.0000 0.0000
# 3 58.2472 -8.3152 199.1632 0.0000 0.0000 0.0000
# 4 0.0000 0.0000 0.0000 3.1386 0.0000 0.0000
# 5 0.0000 0.0000 0.0000 0.0000 10.8151 0.0000
# 6 0.0000 0.0000 0.0000 0.0000 0.0000 36.2712
#
#
#
# Elastic Compliance Matrix: (Units=1/GPa)
#
#
# Indices 1 2 3 4 5 6 
#
# 1 0.012856 0.005246 -0.003541 0.000000 0.000000 0.000000
# 2 0.005246 0.024159 -0.000526 0.000000 0.000000 0.000000
# 3 -0.003541 -0.000526 0.006035 0.000000 0.000000 0.000000
# 4 0.000000 0.000000 0.000000 0.318614 0.000000 0.000000
# 5 0.000000 0.000000 0.000000 0.000000 0.092463 0.000000
# 6 0.000000 0.000000 0.000000 0.000000 0.000000 0.027570
#
#
# Mechanical properties :
#
#
# Convention : Reuss Voigt Hill
#
# Bulk Modulus (GPa) = 22.02220 45.02737 33.52478
# Shear Modulus (GPa) = 10.11177 31.26785 20.68981
#
# Velocity S-wave (km/s) = 2.17984 3.83319 3.11810
# Velocity P-wave (km/s) = 4.08464 6.38360 5.35886
#
# Compressibility (1/GPa) = 0.04540873
#
# Stress axis : x y z
#
# Youngs Moduli (GPa) = 77.78728 41.39177 165.71147
#
# Poissons Ratio (x) = -0.21713 0.58674
# Poissons Ratio (y) = -0.40806 0.08708
# Poissons Ratio (z) = 0.27542 0.02175
#
# Static dielectric constant tensor:
#      x y z
#    x 1.724700 0.000000 0.000000 
#    y 0.000000 3.306490 0.000000 
#    z 0.000000 0.000000 1.768700 
# 
# From -- ./inp_files/8104.got.cif
#   From: 2010.05.17/outbox.cif.g08.bks.cpg/sg41_5_cif.got.tgz:8104.got - 2010.06.03 18:54:24.
