data_PCOD9367510
_publ_section_title
;
Structure prediction by ZEFSAII (Michael W. Deem and Ramdas Pophale) SiO2 
 PCOD9367510
Probable space group: A B A 2
;
_chemical_formula_sum "Si O2"
_cell_formula_units_Z 28
_cell_length_a 24.789801
_cell_length_b 5.081245
_cell_length_c 7.736248
_cell_angle_alpha 90.000000
_cell_angle_beta 90.000000
_cell_angle_gamma 90.000000
_cell_volume 974.481412
_symmetry_space_group_name_H-M "A B A 2"
_symmetry_group_IT_number 41
_symmetry_cell_setting 'orthorhombic'
loop_
_space_group_symop_operation_xyz
x,y,z
-x,-y,z
1/2-x,y,1/2+z
1/2+x,-y,1/2+z
x,1/2+y,1/2+z
-x,1/2-y,1/2+z
1/2-x,1/2+y,z
1/2+x,1/2-y,z
loop_
_atom_site_type_symbol
_atom_site_label
_atom_site_fract_x
_atom_site_fract_y
_atom_site_fract_z
Si Si1 0.859748 0.648182 0.352240
Si Si2 0.712759 0.509977 0.161057
Si Si3 0.500000 0.500000 0.264110
Si Si4 0.074461 0.774568 0.533665
O O1 0.812805 0.519022 0.469352
O O2 0.833211 0.934161 0.302663
O O3 0.907741 0.515257 0.466029
O O4 0.881003 0.585716 0.156083
O O5 0.743115 0.783260 0.177473
O O6 0.479094 0.731838 0.145233
O O7 0.446554 0.434955 0.371540
#
# Coordination Sequence:
#
# PCOD9367510 Si02
#       4
#     8   8   4   8
#     4  10  24  43  69 104 144 192 247 303 370 440
#     4  11  24  44  71 106 148 196 247 306 370 441
#     4  12  24  44  70 100 144 188 246 302 376 444
#     4  11  24  42  67 102 138 190 243 308 372 449
#
# _framework density 28.733229000000001
#
# number of rings (size 3 to 8) (size 9 to 14) (size 15 to 20)
#    0.000    1.143    0.000    5.143    0.000    9.143 
#    0.000    0.000    0.000    0.000    0.000    0.000 
#    0.000    0.000    0.000    0.000    0.000    0.000 
#
# Total GULP energy -78187.241202 kJ/mol
# GULP energy per Si atom -5584.802943 kJ/mol
# Density = 2.866783 g / cm^3
# Si number density = 28.733229 Si / 1000 Ang^3
#
#
#
# Elastic Constant Matrix: (Units=GPa)
#
#
# Indices 1 2 3 4 5 6 
#
# 1 129.9728 33.1566 81.0351 0.0000 0.0000 0.0000
# 2 33.1566 117.7961 74.4780 0.0000 0.0000 0.0000
# 3 81.0351 74.4780 178.2146 0.0000 0.0000 0.0000
# 4 0.0000 0.0000 0.0000 14.9047 0.0000 0.0000
# 5 0.0000 0.0000 0.0000 0.0000 58.8463 0.0000
# 6 0.0000 0.0000 0.0000 0.0000 0.0000 34.0821
#
#
#
# Elastic Compliance Matrix: (Units=1/GPa)
#
#
# Indices 1 2 3 4 5 6 
#
# 1 0.010739 0.000088 -0.004920 0.000000 0.000000 0.000000
# 2 0.000088 0.011539 -0.004862 0.000000 0.000000 0.000000
# 3 -0.004920 -0.004862 0.009880 0.000000 0.000000 0.000000
# 4 0.000000 0.000000 0.000000 0.067093 0.000000 0.000000
# 5 0.000000 0.000000 0.000000 0.000000 0.016993 0.000000
# 6 0.000000 0.000000 0.000000 0.000000 0.000000 0.029341
#
#
# Mechanical properties :
#
#
# Convention : Reuss Voigt Hill
#
# Bulk Modulus (GPa) = 78.31019 89.25807 83.78413
# Shear Modulus (GPa) = 29.54568 37.38753 33.46660
#
# Velocity S-wave (km/s) = 3.21015 3.61112 3.41652
# Velocity P-wave (km/s) = 6.40730 6.96554 6.69224
#
# Compressibility (1/GPa) = 0.01276973
#
# Stress axis : x y z
#
# Youngs Moduli (GPa) = 93.11992 86.66543 101.21305
#
# Poissons Ratio (x) = -0.00761 0.49794
# Poissons Ratio (y) = -0.00818 0.49211
# Poissons Ratio (z) = 0.45812 0.42137
#
# Static dielectric constant tensor:
#      x y z
#    x 2.294300 0.000000 0.000000 
#    y 0.000000 2.350440 0.000000 
#    z 0.000000 0.000000 2.160820 
# 
# From -- ./inp_files/855.got.cif
#   From: 2010.05.17/outbox.cif.g08.bks.cpg/sg41_1_cif.got.tgz:855.got - 2010.06.03 18:54:24.
