data_PCOD9367835
_publ_section_title
;
Structure prediction by ZEFSAII (Michael W. Deem and Ramdas Pophale) SiO2 
 PCOD9367835
Probable space group: A B A 2
;
_chemical_formula_sum "Si O2"
_cell_formula_units_Z 48
_cell_length_a 8.485034
_cell_length_b 18.751236
_cell_length_c 13.555638
_cell_angle_alpha 90.000000
_cell_angle_beta 90.000000
_cell_angle_gamma 90.000000
_cell_volume 2156.768090
_symmetry_space_group_name_H-M "A B A 2"
_symmetry_group_IT_number 41
_symmetry_cell_setting 'orthorhombic'
loop_
_space_group_symop_operation_xyz
x,y,z
-x,-y,z
1/2-x,y,1/2+z
1/2+x,-y,1/2+z
x,1/2+y,1/2+z
-x,1/2-y,1/2+z
1/2-x,1/2+y,z
1/2+x,1/2-y,z
loop_
_atom_site_type_symbol
_atom_site_label
_atom_site_fract_x
_atom_site_fract_y
_atom_site_fract_z
Si Si1 0.170882 0.588520 0.117560
Si Si2 0.154263 0.729782 0.676726
Si Si3 0.176626 0.489864 0.465395
Si Si4 0.136027 0.357524 0.018180
Si Si5 0.181252 0.987465 0.263389
Si Si6 0.854806 0.672120 0.789554
O O1 0.229147 0.666920 0.145216
O O2 0.192100 0.537376 0.211026
O O3 0.002464 0.595093 0.066311
O O4 0.292386 0.550940 0.043977
O O5 0.148826 0.788183 0.588623
O O6 0.221290 0.769586 0.773050
O O7 0.992976 0.694462 0.714375
O O8 0.214170 0.411103 0.509014
O O9 0.301823 0.502037 0.379001
O O10 0.000000 0.500000 0.428109
O O11 0.098433 0.335320 0.904523
O O12 0.212722 0.903759 0.254092
O O13 0.000000 0.000000 0.231681
#
# Coordination Sequence:
#
# PCOD9367835 Si02
#       6
#     8   8   8   8   8   8
#     4  12  25  43  75 102 143 189 242 305 369 441
#     4  12  26  45  71 105 143 198 243 296 385 443
#     4  11  26  44  71 105 142 191 242 309 373 439
#     4  11  27  49  73 106 152 193 248 314 374 449
#     4  11  23  47  75 103 142 188 246 307 374 445
#     4  11  26  47  71 104 148 192 245 313 368 453
#
# _framework density 22.255520000000001
#
# number of rings (size 3 to 8) (size 9 to 14) (size 15 to 20)
#    0.000    0.667    3.333    4.000    4.667    4.000 
#    3.000    0.000    0.000    0.000    0.000    0.000 
#    0.000    0.000    0.000    0.000    0.000    0.000 
#
# Total GULP energy -134173.397876 kJ/mol
# GULP energy per Si atom -5590.558245 kJ/mol
# Density = 2.220487 g / cm^3
# Si number density = 22.255520 Si / 1000 Ang^3
#
#
#
# Elastic Constant Matrix: (Units=GPa)
#
#
# Indices 1 2 3 4 5 6 
#
# 1 64.9955 35.0890 23.6862 0.0000 0.0000 0.0000
# 2 35.0890 139.3719 59.6149 0.0000 0.0000 0.0000
# 3 23.6862 59.6149 122.3803 0.0000 0.0000 0.0000
# 4 0.0000 0.0000 0.0000 38.6937 0.0000 0.0000
# 5 0.0000 0.0000 0.0000 0.0000 57.4084 0.0000
# 6 0.0000 0.0000 0.0000 0.0000 0.0000 8.4517
#
#
#
# Elastic Compliance Matrix: (Units=1/GPa)
#
#
# Indices 1 2 3 4 5 6 
#
# 1 0.018056 -0.003854 -0.001617 0.000000 0.000000 0.000000
# 2 -0.003854 0.009886 -0.004070 0.000000 0.000000 0.000000
# 3 -0.001617 -0.004070 0.010467 0.000000 0.000000 0.000000
# 4 0.000000 0.000000 0.000000 0.025844 0.000000 0.000000
# 5 0.000000 0.000000 0.000000 0.000000 0.017419 0.000000
# 6 0.000000 0.000000 0.000000 0.000000 0.000000 0.118320
#
#
# Mechanical properties :
#
#
# Convention : Reuss Voigt Hill
#
# Bulk Modulus (GPa) = 51.74266 62.61425 57.17846
# Shear Modulus (GPa) = 22.17134 34.80125 28.48630
#
# Velocity S-wave (km/s) = 3.15972 3.95867 3.58154
# Velocity P-wave (km/s) = 6.05075 7.00643 6.54606
#
# Compressibility (1/GPa) = 0.01932641
#
# Stress axis : x y z
#
# Youngs Moduli (GPa) = 55.38410 101.15070 95.53997
#
# Poissons Ratio (x) = 0.38984 0.15451
# Poissons Ratio (y) = 0.21345 0.38884
# Poissons Ratio (z) = 0.08957 0.41168
#
# Static dielectric constant tensor:
#      x y z
#    x 1.805520 0.000000 0.000000 
#    y 0.000000 1.799160 0.000000 
#    z 0.000000 0.000000 1.829590 
# 
# From -- ./inp_files/7319.got.cif
#   From: 2010.05.17/outbox.cif.g08.bks.cpg/sg41_4_cif.got.tgz:7319.got - 2010.06.03 18:54:24.
