data_PCOD9367838
_publ_section_title
;
Structure prediction by ZEFSAII (Michael W. Deem and Ramdas Pophale) SiO2 
 PCOD9367838
Probable space group: A B A 2
;
_chemical_formula_sum "Si O2"
_cell_formula_units_Z 48
_cell_length_a 22.133470
_cell_length_b 11.635083
_cell_length_c 8.067182
_cell_angle_alpha 90.000000
_cell_angle_beta 90.000000
_cell_angle_gamma 90.000000
_cell_volume 2077.499113
_symmetry_space_group_name_H-M "A B A 2"
_symmetry_group_IT_number 41
_symmetry_cell_setting 'orthorhombic'
loop_
_space_group_symop_operation_xyz
x,y,z
-x,-y,z
1/2-x,y,1/2+z
1/2+x,-y,1/2+z
x,1/2+y,1/2+z
-x,1/2-y,1/2+z
1/2-x,1/2+y,z
1/2+x,1/2-y,z
loop_
_atom_site_type_symbol
_atom_site_label
_atom_site_fract_x
_atom_site_fract_y
_atom_site_fract_z
Si Si1 0.147738 0.470877 0.425830
Si Si2 0.928133 0.220928 0.059721
Si Si3 0.151212 0.854589 0.566859
Si Si4 0.442489 0.684205 0.925980
Si Si5 0.157039 0.599725 0.936718
Si Si6 0.270505 0.647012 0.101170
O O1 0.124458 0.373330 0.549860
O O2 0.156214 0.407723 0.250587
O O3 0.095359 0.566972 0.418811
O O4 0.205350 0.540218 0.491696
O O5 0.940498 0.262090 0.243982
O O6 0.904437 0.329634 0.952951
O O7 0.989240 0.170186 0.984027
O O8 0.092921 0.773405 0.545256
O O9 0.207012 0.769227 0.530952
O O10 0.147581 0.964117 0.447574
O O11 0.195413 0.634608 0.775811
O O12 0.198718 0.637176 0.093955
#
# Coordination Sequence:
#
# PCOD9367838 Si02
#       6
#     8   8   8   8   8   8
#     4  11  23  48  70 102 139 187 234 290 356 415
#     4  12  25  45  73 103 142 185 238 292 355 422
#     4  11  24  47  73 100 141 186 230 294 354 419
#     4  11  26  45  70 102 144 185 237 292 356 420
#     4  12  26  45  72 103 137 186 232 287 358 415
#     4  11  27  44  71 102 141 182 237 287 352 421
#
# _framework density 23.104702
#
# number of rings (size 3 to 8) (size 9 to 14) (size 15 to 20)
#    0.000    0.667    3.333    3.500    7.000    2.000 
#    3.000    0.000    0.000    0.000    0.000    0.000 
#    0.000    0.000    0.000    0.000    0.000    0.000 
#
# Total GULP energy -134450.190016 kJ/mol
# GULP energy per Si atom -5602.091251 kJ/mol
# Density = 2.305211 g / cm^3
# Si number density = 23.104702 Si / 1000 Ang^3
#
#
#
# Elastic Constant Matrix: (Units=GPa)
#
#
# Indices 1 2 3 4 5 6 
#
# 1 69.6003 15.9913 -15.8068 0.0000 0.0000 0.0000
# 2 15.9913 137.6572 -0.5994 0.0000 0.0000 0.0000
# 3 -15.8068 -0.5994 76.3557 0.0000 0.0000 0.0000
# 4 0.0000 0.0000 0.0000 37.5091 0.0000 0.0000
# 5 0.0000 0.0000 0.0000 0.0000 26.0910 0.0000
# 6 0.0000 0.0000 0.0000 0.0000 0.0000 24.9989
#
#
#
# Elastic Compliance Matrix: (Units=1/GPa)
#
#
# Indices 1 2 3 4 5 6 
#
# 1 0.015504 -0.001787 0.003196 0.000000 0.000000 0.000000
# 2 -0.001787 0.007471 -0.000311 0.000000 0.000000 0.000000
# 3 0.003196 -0.000311 0.013756 0.000000 0.000000 0.000000
# 4 0.000000 0.000000 0.000000 0.026660 0.000000 0.000000
# 5 0.000000 0.000000 0.000000 0.000000 0.038327 0.000000
# 6 0.000000 0.000000 0.000000 0.000000 0.000000 0.040002
#
#
# Mechanical properties :
#
#
# Convention : Reuss Voigt Hill
#
# Bulk Modulus (GPa) = 25.69066 31.42036 28.55551
# Shear Modulus (GPa) = 32.78676 36.65500 34.72088
#
# Velocity S-wave (km/s) = 3.77112 3.98738 3.88075
# Velocity P-wave (km/s) = 5.48681 5.90149 5.69792
#
# Compressibility (1/GPa) = 0.03892466
#
# Stress axis : x y z
#
# Youngs Moduli (GPa) = 64.49901 133.85669 72.69718
#
# Poissons Ratio (x) = 0.23922 -0.23231
# Poissons Ratio (y) = 0.11527 0.02263
# Poissons Ratio (z) = -0.20611 0.04167
#
# Static dielectric constant tensor:
#      x y z
#    x 1.821430 0.000000 0.000000 
#    y 0.000000 1.833140 0.000000 
#    z 0.000000 0.000000 1.903420 
# 
# From -- ./inp_files/3594.got.cif
#   From: 2010.05.17/outbox.cif.g08.bks.cpg/sg41_2_cif.got.tgz:3594.got - 2010.06.03 18:54:24.
