data_PCOD9367386
_publ_section_title
;
Structure prediction by ZEFSAII (Michael W. Deem and Ramdas Pophale) SiO2 
 PCOD9367386
Probable space group: A B A 2
;
_chemical_formula_sum "Si O2"
_cell_formula_units_Z 60
_cell_length_a 24.373401
_cell_length_b 8.869351
_cell_length_c 11.528282
_cell_angle_alpha 90.000000
_cell_angle_beta 90.000000
_cell_angle_gamma 90.000000
_cell_volume 2492.140755
_symmetry_space_group_name_H-M "A B A 2"
_symmetry_group_IT_number 41
_symmetry_cell_setting 'orthorhombic'
loop_
_space_group_symop_operation_xyz
x,y,z
-x,-y,z
1/2-x,y,1/2+z
1/2+x,-y,1/2+z
x,1/2+y,1/2+z
-x,1/2-y,1/2+z
1/2-x,1/2+y,z
1/2+x,1/2-y,z
loop_
_atom_site_type_symbol
_atom_site_label
_atom_site_fract_x
_atom_site_fract_y
_atom_site_fract_z
Si Si1 0.128638 0.948598 0.845020
Si Si2 0.173934 0.206572 0.529809
Si Si3 0.948518 0.793103 0.256387
Si Si4 0.036385 0.695509 0.404885
Si Si5 0.595011 0.513466 0.439841
Si Si6 0.241144 0.632937 0.347165
Si Si7 0.000000 0.500000 0.580790
Si Si8 0.812345 0.093122 0.256850
O O1 0.149032 0.824884 0.937814
O O2 0.096745 0.838959 0.752742
O O3 0.084522 0.072996 0.888044
O O4 0.183844 0.046993 0.824397
O O5 0.227899 0.129067 0.471610
O O6 0.181027 0.307929 0.642869
O O7 0.130640 0.069253 0.537426
O O8 0.009111 0.725726 0.279741
O O9 0.953384 0.921991 0.158476
O O10 0.940147 0.889055 0.373656
O O11 0.060016 0.841566 0.468682
O O12 0.988905 0.632148 0.489289
O O13 0.634708 0.572410 0.336047
O O14 0.229709 0.808562 0.332029
O O15 0.284266 0.570320 0.252012
#
# Coordination Sequence:
#
# PCOD9367386 Si02
#       8
#     8   8   8   8   8   8   4   8
#     4  11  23  44  69  94 142 176 225 291 338 407
#     4  10  25  43  68 102 139 180 232 282 350 417
#     4  11  24  46  67  99 140 177 228 293 346 415
#     4  12  23  45  70 103 135 176 237 291 342 418
#     4  10  23  44  67  94 143 177 225 297 339 414
#     4  11  23  44  62 100 139 177 227 290 332 409
#     4  12  26  42  76  98 136 188 226 282 370 402
#     4  11  24  41  68  96 136 185 226 277 356 412
#
# _framework density 24.075686000000001
#
# number of rings (size 3 to 8) (size 9 to 14) (size 15 to 20)
#    0.000    1.067    5.333    0.000    3.733    1.067 
#    2.400    1.333    0.000    0.000    0.000    0.000 
#    0.000    0.000    0.000    0.000    0.000    0.000 
#
# Total GULP energy -167287.047528 kJ/mol
# GULP energy per Si atom -5576.234918 kJ/mol
# Density = 2.402089 g / cm^3
# Si number density = 24.075686 Si / 1000 Ang^3
#
#
#
# Elastic Constant Matrix: (Units=GPa)
#
#
# Indices 1 2 3 4 5 6 
#
# 1 83.8783 41.3526 26.9205 0.0000 0.0000 0.0000
# 2 41.3526 115.6175 24.0327 0.0000 0.0000 0.0000
# 3 26.9205 24.0327 61.2866 0.0000 0.0000 0.0000
# 4 0.0000 0.0000 0.0000 40.3332 0.0000 0.0000
# 5 0.0000 0.0000 0.0000 0.0000 6.9140 0.0000
# 6 0.0000 0.0000 0.0000 0.0000 0.0000 66.2115
#
#
#
# Elastic Compliance Matrix: (Units=1/GPa)
#
#
# Indices 1 2 3 4 5 6 
#
# 1 0.015842 -0.004594 -0.005157 0.000000 0.000000 0.000000
# 2 -0.004594 0.010749 -0.002197 0.000000 0.000000 0.000000
# 3 -0.005157 -0.002197 0.019444 0.000000 0.000000 0.000000
# 4 0.000000 0.000000 0.000000 0.024793 0.000000 0.000000
# 5 0.000000 0.000000 0.000000 0.000000 0.144634 0.000000
# 6 0.000000 0.000000 0.000000 0.000000 0.000000 0.015103
#
#
# Mechanical properties :
#
#
# Convention : Reuss Voigt Hill
#
# Bulk Modulus (GPa) = 45.17132 49.48823 47.32978
# Shear Modulus (GPa) = 19.09551 33.92352 26.50951
#
# Velocity S-wave (km/s) = 2.81934 3.75779 3.32187
# Velocity P-wave (km/s) = 5.42228 6.27916 5.86639
#
# Compressibility (1/GPa) = 0.02213794
#
# Stress axis : x y z
#
# Youngs Moduli (GPa) = 63.12249 93.03092 51.43066
#
# Poissons Ratio (x) = 0.42741 0.26524
# Poissons Ratio (y) = 0.29000 0.11300
# Poissons Ratio (z) = 0.32554 0.20440
#
# Static dielectric constant tensor:
#      x y z
#    x 1.972900 0.000000 0.000000 
#    y 0.000000 1.919570 0.000000 
#    z 0.000000 0.000000 1.950580 
# 
# From -- ./inp_files/6576.got.cif
#   From: 2010.05.17/outbox.cif.g08.bks.cpg/sg41_4_cif.got.tgz:6576.got - 2010.06.03 18:54:24.
