data_PCOD9367424
_publ_section_title
;
Structure prediction by ZEFSAII (Michael W. Deem and Ramdas Pophale) SiO2 
 PCOD9367424
Probable space group: A B A 2
;
_chemical_formula_sum "Si O2"
_cell_formula_units_Z 64
_cell_length_a 10.737483
_cell_length_b 24.469441
_cell_length_c 10.916197
_cell_angle_alpha 90.000000
_cell_angle_beta 90.000000
_cell_angle_gamma 90.000000
_cell_volume 2868.123857
_symmetry_space_group_name_H-M "A B A 2"
_symmetry_group_IT_number 41
_symmetry_cell_setting 'orthorhombic'
loop_
_space_group_symop_operation_xyz
x,y,z
-x,-y,z
1/2-x,y,1/2+z
1/2+x,-y,1/2+z
x,1/2+y,1/2+z
-x,1/2-y,1/2+z
1/2-x,1/2+y,z
1/2+x,1/2-y,z
loop_
_atom_site_type_symbol
_atom_site_label
_atom_site_fract_x
_atom_site_fract_y
_atom_site_fract_z
Si Si1 0.135857 0.686280 0.175920
Si Si2 0.782435 0.607624 0.101547
Si Si3 0.939028 0.909720 0.838713
Si Si4 0.712166 0.053343 0.354359
Si Si5 0.894718 0.375159 0.615036
Si Si6 0.672097 0.446818 0.319906
Si Si7 0.008732 0.139232 0.463140
Si Si8 0.621068 0.688888 0.226204
O O1 0.056289 0.646929 0.264552
O O2 0.271407 0.658132 0.157528
O O3 0.134670 0.746503 0.230354
O O4 0.075361 0.686213 0.040826
O O5 0.746538 0.570565 0.217212
O O6 0.743593 0.665816 0.158563
O O7 0.716997 0.592040 0.974439
O O8 0.924772 0.606482 0.059652
O O9 0.817969 0.940088 0.786604
O O10 0.062553 0.945816 0.837416
O O11 0.899651 0.893547 0.976034
O O12 0.813857 0.005751 0.382024
O O13 0.900453 0.430995 0.696026
O O14 0.008956 0.335097 0.643929
O O15 0.612643 0.401272 0.408666
O O16 0.917983 0.163414 0.358213
#
# Coordination Sequence:
#
# PCOD9367424 Si02
#       8
#     8   8   8   8   8   8   8   8
#     4  11  25  41  74 102 144 196 239 302 380 434
#     4  12  26  47  68 105 147 182 247 305 357 449
#     4  11  22  44  69 106 138 178 244 303 345 451
#     4  12  26  45  75 102 142 195 237 305 368 440
#     4  10  23  46  67 101 147 178 243 307 354 449
#     4  10  25  46  70 101 141 188 234 298 384 421
#     4  11  24  49  68 101 154 187 245 310 365 448
#     4  11  26  44  69 104 143 197 241 307 370 437
#
# _framework density 22.314236999999999
#
# number of rings (size 3 to 8) (size 9 to 14) (size 15 to 20)
#    0.000    1.000    5.000    0.375    5.250    0.500 
#    2.250    0.000    0.000    0.000    0.000    0.000 
#    0.000    0.000    0.000    0.000    0.000    0.000 
#
# Total GULP energy -178274.517781 kJ/mol
# GULP energy per Si atom -5571.078681 kJ/mol
# Density = 2.226345 g / cm^3
# Si number density = 22.314237 Si / 1000 Ang^3
#
#
#
# Elastic Constant Matrix: (Units=GPa)
#
#
# Indices 1 2 3 4 5 6 
#
# 1 73.7547 15.0955 12.5344 0.0000 0.0000 0.0000
# 2 15.0955 91.6963 35.1876 0.0000 0.0000 0.0000
# 3 12.5344 35.1876 99.8478 0.0000 0.0000 0.0000
# 4 0.0000 0.0000 0.0000 -6.8438 0.0000 0.0000
# 5 0.0000 0.0000 0.0000 0.0000 31.0836 0.0000
# 6 0.0000 0.0000 0.0000 0.0000 0.0000 22.7816
#
#
#
# Elastic Compliance Matrix: (Units=1/GPa)
#
#
# Indices 1 2 3 4 5 6 
#
# 1 0.014136 -0.001904 -0.001104 0.000000 0.000000 0.000000
# 2 -0.001904 0.012867 -0.004296 0.000000 0.000000 0.000000
# 3 -0.001104 -0.004296 0.011668 0.000000 0.000000 0.000000
# 4 0.000000 0.000000 0.000000 -0.146118 0.000000 0.000000
# 5 0.000000 0.000000 0.000000 0.000000 0.032171 0.000000
# 6 0.000000 0.000000 0.000000 0.000000 0.000000 0.043895
#
#
# Mechanical properties :
#
#
# Convention : Reuss Voigt Hill
#
# Bulk Modulus (GPa) = 41.55437 43.43708 42.49573
# Shear Modulus (GPa) = -571.17139 22.90304 -274.13417
#
# Velocity S-wave (km/s) = -16.01633 3.20720 -11.09587
# Velocity P-wave (km/s) = 17.98243 5.76396 12.04460
#
# Compressibility (1/GPa) = 0.02406486
#
# Stress axis : x y z
#
# Youngs Moduli (GPa) = 70.74320 77.71606 85.70720
#
# Poissons Ratio (x) = 0.14794 0.09459
# Poissons Ratio (y) = 0.13466 0.36817
# Poissons Ratio (z) = 0.07808 0.33384
#
# Static dielectric constant tensor:
#      x y z
#    x 1.879600 0.000000 0.000000 
#    y 0.000000 1.926070 0.000000 
#    z 0.000000 0.000000 1.825830 
# 
# From -- ./inp_files/5204.got.cif
#   From: 2010.05.17/outbox.cif.g08.bks.cpg/sg41_3_cif.got.tgz:5204.got - 2010.06.03 18:54:24.
