data_PCOD9367441
_publ_section_title
;
Structure prediction by ZEFSAII (Michael W. Deem and Ramdas Pophale) SiO2 
 PCOD9367441
Probable space group: A B A 2
;
_chemical_formula_sum "Si O2"
_cell_formula_units_Z 40
_cell_length_a 10.105580
_cell_length_b 8.216176
_cell_length_c 21.431707
_cell_angle_alpha 90.000000
_cell_angle_beta 90.000000
_cell_angle_gamma 90.000000
_cell_volume 1779.457998
_symmetry_space_group_name_H-M "A B A 2"
_symmetry_group_IT_number 41
_symmetry_cell_setting 'orthorhombic'
loop_
_space_group_symop_operation_xyz
x,y,z
-x,-y,z
1/2-x,y,1/2+z
1/2+x,-y,1/2+z
x,1/2+y,1/2+z
-x,1/2-y,1/2+z
1/2-x,1/2+y,z
1/2+x,1/2-y,z
loop_
_atom_site_type_symbol
_atom_site_label
_atom_site_fract_x
_atom_site_fract_y
_atom_site_fract_z
Si Si1 0.575823 0.340347 0.193830
Si Si2 0.500000 0.000000 0.812278
Si Si3 0.425072 0.337881 0.433056
Si Si4 0.500000 0.500000 0.650627
Si Si5 0.360208 0.871358 0.495685
Si Si6 0.265310 0.108669 0.085075
O O1 0.500000 0.500000 0.167469
O O2 0.593706 0.397913 0.265399
O O3 0.499652 0.168574 0.189371
O O4 0.701427 0.334245 0.149497
O O5 0.429073 0.873985 0.858907
O O6 0.500000 0.500000 0.458891
O O7 0.516419 0.185203 0.453026
O O8 0.275020 0.343099 0.456452
O O9 0.373595 0.478525 0.606139
O O10 0.352330 0.745117 0.552364
O O11 0.337512 0.038929 0.534183
#
# Coordination Sequence:
#
# PCOD9367441 Si02
#       6
#     8   4   8   4   8   8
#     4  10  24  43  69 101 138 186 228 289 344 413
#     4   8  22  51  64  92 149 178 242 292 322 422
#     4  10  23  47  65  97 139 187 227 291 341 406
#     4  12  24  45  66 108 145 184 216 288 376 408
#     4  12  23  41  73 100 141 180 227 291 358 421
#     4  12  23  39  67 106 139 170 232 288 360 427
#
# _framework density 22.478755
#
# number of rings (size 3 to 8) (size 9 to 14) (size 15 to 20)
#    1.200    0.000    4.000    2.400    2.800    0.000 
#    7.200    2.000    0.000    0.000    0.000    0.000 
#    0.000    0.000    0.000    0.000    0.000    0.000 
#
# Total GULP energy -111369.651567 kJ/mol
# GULP energy per Si atom -5568.482578 kJ/mol
# Density = 2.242759 g / cm^3
# Si number density = 22.478755 Si / 1000 Ang^3
#
#
#
# Elastic Constant Matrix: (Units=GPa)
#
#
# Indices 1 2 3 4 5 6 
#
# 1 95.3535 16.0843 55.3305 0.0000 0.0000 0.0000
# 2 16.0843 96.9122 26.6399 0.0000 0.0000 0.0000
# 3 55.3305 26.6399 158.6983 0.0000 0.0000 0.0000
# 4 0.0000 0.0000 0.0000 40.0537 0.0000 0.0000
# 5 0.0000 0.0000 0.0000 0.0000 18.5984 0.0000
# 6 0.0000 0.0000 0.0000 0.0000 0.0000 24.8624
#
#
#
# Elastic Compliance Matrix: (Units=1/GPa)
#
#
# Indices 1 2 3 4 5 6 
#
# 1 0.013234 -0.000973 -0.004451 0.000000 0.000000 0.000000
# 2 -0.000973 0.010889 -0.001489 0.000000 0.000000 0.000000
# 3 -0.004451 -0.001489 0.008103 0.000000 0.000000 0.000000
# 4 0.000000 0.000000 0.000000 0.024966 0.000000 0.000000
# 5 0.000000 0.000000 0.000000 0.000000 0.053768 0.000000
# 6 0.000000 0.000000 0.000000 0.000000 0.000000 0.040221
#
#
# Mechanical properties :
#
#
# Convention : Reuss Voigt Hill
#
# Bulk Modulus (GPa) = 54.34358 60.78593 57.56476
# Shear Modulus (GPa) = 29.21570 33.56352 31.38961
#
# Velocity S-wave (km/s) = 3.60905 3.86829 3.74091
# Velocity P-wave (km/s) = 6.44942 6.85943 6.65758
#
# Compressibility (1/GPa) = 0.01840144
#
# Stress axis : x y z
#
# Youngs Moduli (GPa) = 75.56273 91.83302 123.41214
#
# Poissons Ratio (x) = 0.08935 0.54928
# Poissons Ratio (y) = 0.07352 0.18373
# Poissons Ratio (z) = 0.33631 0.13671
#
# Static dielectric constant tensor:
#      x y z
#    x 1.942310 0.000000 0.000000 
#    y 0.000000 1.957930 0.000000 
#    z 0.000000 0.000000 1.816130 
# 
# From -- ./inp_files/11941.got.cif
#   From: 2010.05.17/outbox.cif.g08.bks.cpg/sg41_6_cif.got.tgz:11941.got - 2010.06.03 18:54:24.
