data_PCOD9367146
_publ_section_title
;
Structure prediction by ZEFSAII (Michael W. Deem and Ramdas Pophale) SiO2 
 PCOD9367146
Probable space group: A B A 2
;
_chemical_formula_sum "Si O2"
_cell_formula_units_Z 48
_cell_length_a 18.095171
_cell_length_b 5.309590
_cell_length_c 22.048327
_cell_angle_alpha 90.000000
_cell_angle_beta 90.000000
_cell_angle_gamma 90.000000
_cell_volume 2118.357816
_symmetry_space_group_name_H-M "A B A 2"
_symmetry_group_IT_number 41
_symmetry_cell_setting 'orthorhombic'
loop_
_space_group_symop_operation_xyz
x,y,z
-x,-y,z
1/2-x,y,1/2+z
1/2+x,-y,1/2+z
x,1/2+y,1/2+z
-x,1/2-y,1/2+z
1/2-x,1/2+y,z
1/2+x,1/2-y,z
loop_
_atom_site_type_symbol
_atom_site_label
_atom_site_fract_x
_atom_site_fract_y
_atom_site_fract_z
Si Si1 0.720132 0.908044 0.133960
Si Si2 0.000000 0.000000 0.744511
Si Si3 0.448451 0.753146 0.954299
Si Si4 0.922449 0.157650 0.322010
Si Si5 0.422474 0.842169 0.086677
Si Si6 0.500000 0.000000 0.664231
Si Si7 0.280651 0.593860 0.272982
O O1 0.766436 0.136763 0.105611
O O2 0.636839 0.001726 0.125346
O O3 0.751232 0.881054 0.203211
O O4 0.000003 0.750045 0.704352
O O5 0.933883 0.926704 0.789341
O O6 0.500000 0.500000 0.954229
O O7 0.403845 0.780731 0.891594
O O8 0.500000 0.000000 0.954321
O O9 0.404008 0.780375 0.017080
O O10 0.863528 0.001254 0.283025
O O11 0.000000 0.000000 0.322378
O O12 0.433858 0.573210 0.119402
O O13 0.500000 0.000000 0.086427
O O14 0.266590 0.865852 0.300766
#
# Coordination Sequence:
#
# PCOD9367146 Si02
#       7
#     8   4   8   8   8   4   8
#     4  10  25  42  62  91 139 182 222 274 348 412
#     4  12  26  35  64 103 134 164 226 274 352 400
#     4  10  22  42  68 104 132 172 229 295 340 396
#     4  11  25  45  72 101 139 181 236 291 345 408
#     4  11  25  45  72 101 139 181 236 291 345 408
#     4  12  26  35  64 103 134 164 226 274 352 400
#     4  10  25  42  62  91 139 182 222 274 348 412
#
# _framework density 22.65906
#
# number of rings (size 3 to 8) (size 9 to 14) (size 15 to 20)
#    0.000    1.333    3.333    0.000   14.000    0.000 
#    0.000    1.667    0.000    0.000    0.000    0.000 
#    0.000    0.000    0.000    0.000    0.000    0.000 
#
# Total GULP energy -133813.299071 kJ/mol
# GULP energy per Si atom -5575.554128 kJ/mol
# Density = 2.260749 g / cm^3
# Si number density = 22.659060 Si / 1000 Ang^3
#
#
#
# Elastic Constant Matrix: (Units=GPa)
#
#
# Indices 1 2 3 4 5 6 
#
# 1 103.0346 6.8021 20.3468 0.0000 0.0000 0.0000
# 2 6.8021 140.0178 18.4691 0.0000 0.0000 0.0000
# 3 20.3468 18.4691 156.3092 0.0000 0.0000 0.0000
# 4 0.0000 0.0000 0.0000 34.7153 0.0000 0.0000
# 5 0.0000 0.0000 0.0000 0.0000 21.8663 0.0000
# 6 0.0000 0.0000 0.0000 0.0000 0.0000 41.7999
#
#
#
# Elastic Compliance Matrix: (Units=1/GPa)
#
#
# Indices 1 2 3 4 5 6 
#
# 1 0.009975 -0.000318 -0.001261 0.000000 0.000000 0.000000
# 2 -0.000318 0.007265 -0.000817 0.000000 0.000000 0.000000
# 3 -0.001261 -0.000817 0.006658 0.000000 0.000000 0.000000
# 4 0.000000 0.000000 0.000000 0.028806 0.000000 0.000000
# 5 0.000000 0.000000 0.000000 0.000000 0.045733 0.000000
# 6 0.000000 0.000000 0.000000 0.000000 0.000000 0.023924
#
#
# Mechanical properties :
#
#
# Convention : Reuss Voigt Hill
#
# Bulk Modulus (GPa) = 52.33818 54.51085 53.42451
# Shear Modulus (GPa) = 37.44703 43.25920 40.35312
#
# Velocity S-wave (km/s) = 4.06967 4.37411 4.22463
# Velocity P-wave (km/s) = 6.72541 7.04412 6.88661
#
# Compressibility (1/GPa) = 0.01910651
#
# Stress axis : x y z
#
# Youngs Moduli (GPa) = 100.24572 137.64284 150.18980
#
# Poissons Ratio (x) = 0.04381 0.18937
# Poissons Ratio (y) = 0.03191 0.12271
# Poissons Ratio (z) = 0.12640 0.11245
#
# Static dielectric constant tensor:
#      x y z
#    x 2.027300 0.000000 0.000000 
#    y 0.000000 1.908800 0.000000 
#    z 0.000000 0.000000 6.571030 
# 
# From -- ./inp_files/12276.got.cif
#   From: 2010.05.17/outbox.cif.g08.bks.cpg/sg41_7_cif.got.tgz:12276.got - 2010.06.03 18:54:24.
