data_PCOD9367218
_publ_section_title
;
Structure prediction by ZEFSAII (Michael W. Deem and Ramdas Pophale) SiO2 
 PCOD9367218
Probable space group: A B A 2
;
_chemical_formula_sum "Si O2"
_cell_formula_units_Z 40
_cell_length_a 8.983295
_cell_length_b 14.372581
_cell_length_c 13.413665
_cell_angle_alpha 90.000000
_cell_angle_beta 90.000000
_cell_angle_gamma 90.000000
_cell_volume 1731.880340
_symmetry_space_group_name_H-M "A B A 2"
_symmetry_group_IT_number 41
_symmetry_cell_setting 'orthorhombic'
loop_
_space_group_symop_operation_xyz
x,y,z
-x,-y,z
1/2-x,y,1/2+z
1/2+x,-y,1/2+z
x,1/2+y,1/2+z
-x,1/2-y,1/2+z
1/2-x,1/2+y,z
1/2+x,1/2-y,z
loop_
_atom_site_type_symbol
_atom_site_label
_atom_site_fract_x
_atom_site_fract_y
_atom_site_fract_z
Si Si1 0.975378 0.898682 0.575960
Si Si2 0.330588 0.032017 0.879538
Si Si3 0.206210 0.363158 0.475637
Si Si4 0.354995 0.719706 0.306455
Si Si5 0.376579 0.290296 0.173596
O O1 0.860220 0.925945 0.489090
O O2 0.911148 0.812862 0.634970
O O3 0.124854 0.864236 0.518615
O O4 0.000000 0.000000 0.627609
O O5 0.276693 0.119169 0.815300
O O6 0.500000 0.000000 0.848232
O O7 0.213940 0.949948 0.899529
O O8 0.159044 0.275120 0.409372
O O9 0.112315 0.359056 0.578948
O O10 0.518415 0.694288 0.268312
O O11 0.286102 0.784560 0.221033
#
# Coordination Sequence:
#
# PCOD9367218 Si02
#       5
#     8   8   8   8   8
#     4   9  19  41  68  91 132 188 219 279 351 403
#     4   9  20  43  67  92 136 183 219 282 352 403
#     4  10  22  44  67  92 142 177 223 282 354 404
#     4  12  25  40  71 100 134 177 235 285 342 414
#     4  12  23  40  70 103 133 181 232 283 347 418
#
# _framework density 23.096283
#
# number of rings (size 3 to 8) (size 9 to 14) (size 15 to 20)
#    0.000    2.000    4.000    2.400    0.000    1.600 
#    7.200    0.000    4.400    0.000    0.000    0.000 
#    0.000    0.000    0.000    0.000    0.000    0.000 
#
# Total GULP energy -111430.173093 kJ/mol
# GULP energy per Si atom -5571.508655 kJ/mol
# Density = 2.304371 g / cm^3
# Si number density = 23.096283 Si / 1000 Ang^3
#
#
#
# Elastic Constant Matrix: (Units=GPa)
#
#
# Indices 1 2 3 4 5 6 
#
# 1 41.0800 6.0046 18.3480 0.0000 0.0000 0.0000
# 2 6.0046 97.8912 36.8784 0.0000 0.0000 0.0000
# 3 18.3480 36.8784 72.0231 0.0000 0.0000 0.0000
# 4 0.0000 0.0000 0.0000 42.5597 0.0000 0.0000
# 5 0.0000 0.0000 0.0000 0.0000 23.5725 0.0000
# 6 0.0000 0.0000 0.0000 0.0000 0.0000 13.5815
#
#
#
# Elastic Compliance Matrix: (Units=1/GPa)
#
#
# Indices 1 2 3 4 5 6 
#
# 1 0.027578 0.001183 -0.007632 0.000000 0.000000 0.000000
# 2 0.001183 0.012708 -0.006808 0.000000 0.000000 0.000000
# 3 -0.007632 -0.006808 0.019315 0.000000 0.000000 0.000000
# 4 0.000000 0.000000 0.000000 0.023496 0.000000 0.000000
# 5 0.000000 0.000000 0.000000 0.000000 0.042422 0.000000
# 6 0.000000 0.000000 0.000000 0.000000 0.000000 0.073630
#
#
# Mechanical properties :
#
#
# Convention : Reuss Voigt Hill
#
# Bulk Modulus (GPa) = 30.22262 37.05071 33.63667
# Shear Modulus (GPa) = 21.12457 25.92696 23.52576
#
# Velocity S-wave (km/s) = 3.02757 3.35410 3.19501
# Velocity P-wave (km/s) = 5.03343 5.57464 5.31094
#
# Compressibility (1/GPa) = 0.03308780
#
# Stress axis : x y z
#
# Youngs Moduli (GPa) = 36.26040 78.69238 51.77412
#
# Poissons Ratio (x) = -0.09312 0.39512
# Poissons Ratio (y) = -0.04291 0.35249
# Poissons Ratio (z) = 0.27672 0.53576
#
# Static dielectric constant tensor:
#      x y z
#    x 1.884630 0.000000 0.000000 
#    y 0.000000 1.935770 0.000000 
#    z 0.000000 0.000000 1.872170 
# 
# From -- ./inp_files/7173.got.cif
#   From: 2010.05.17/outbox.cif.g08.bks.cpg/sg41_4_cif.got.tgz:7173.got - 2010.06.03 18:54:24.
