data_PCOD9367772
_publ_section_title
;
Structure prediction by ZEFSAII (Michael W. Deem and Ramdas Pophale) SiO2 
 PCOD9367772
Probable space group: A B A 2
;
_chemical_formula_sum "Si O2"
_cell_formula_units_Z 44
_cell_length_a 16.369681
_cell_length_b 23.756354
_cell_length_c 5.212929
_cell_angle_alpha 90.000000
_cell_angle_beta 90.000000
_cell_angle_gamma 90.000000
_cell_volume 2027.224351
_symmetry_space_group_name_H-M "A B A 2"
_symmetry_group_IT_number 41
_symmetry_cell_setting 'orthorhombic'
loop_
_space_group_symop_operation_xyz
x,y,z
-x,-y,z
1/2-x,y,1/2+z
1/2+x,-y,1/2+z
x,1/2+y,1/2+z
-x,1/2-y,1/2+z
1/2-x,1/2+y,z
1/2+x,1/2-y,z
loop_
_atom_site_type_symbol
_atom_site_label
_atom_site_fract_x
_atom_site_fract_y
_atom_site_fract_z
Si Si1 0.972615 0.778757 0.896580
Si Si2 0.000000 0.500000 0.883466
Si Si3 0.801175 0.825896 0.687341
Si Si4 0.966492 0.602321 0.507312
Si Si5 0.196728 0.455408 0.488111
Si Si6 0.617244 0.444926 0.732095
O O1 0.882432 0.793882 0.787349
O O2 0.023440 0.764949 0.635324
O O3 0.011027 0.833220 0.039662
O O4 0.988288 0.557472 0.726458
O O5 0.913722 0.490544 0.028041
O O6 0.767805 0.813682 0.402610
O O7 0.824111 0.892685 0.678247
O O8 0.872950 0.591012 0.449148
O O9 0.029490 0.582439 0.290675
O O10 0.238984 0.450463 0.760098
O O11 0.155356 0.517113 0.455745
#
# Coordination Sequence:
#
# PCOD9367772 Si02
#       6
#     8   4   8   8   8   8
#     4  11  27  49  77 102 137 195 254 298 358 439
#     4  12  20  40  72 102 142 188 238 282 360 434
#     4  11  25  44  72 109 143 179 240 315 368 407
#     4  11  25  42  69  98 139 187 241 291 351 438
#     4  12  24  39  59  98 142 179 220 275 352 429
#     4  11  23  38  66  99 144 190 230 282 356 440
#
# _framework density 21.704553000000001
#
# number of rings (size 3 to 8) (size 9 to 14) (size 15 to 20)
#    0.000    0.727    3.636    3.273   10.182    0.000 
#    0.000    5.455    0.000    0.000    0.000    0.000 
#    0.000    0.000    0.000    0.000    0.000    0.000 
#
# Total GULP energy -122766.872894 kJ/mol
# GULP energy per Si atom -5580.312404 kJ/mol
# Density = 2.165515 g / cm^3
# Si number density = 21.704553 Si / 1000 Ang^3
#
#
#
# Elastic Constant Matrix: (Units=GPa)
#
#
# Indices 1 2 3 4 5 6 
#
# 1 89.6498 22.0414 12.4107 0.0000 0.0000 0.0000
# 2 22.0414 51.7363 9.5716 0.0000 0.0000 0.0000
# 3 12.4107 9.5716 85.5964 0.0000 0.0000 0.0000
# 4 0.0000 0.0000 0.0000 -38.9659 0.0000 0.0000
# 5 0.0000 0.0000 0.0000 0.0000 33.4789 0.0000
# 6 0.0000 0.0000 0.0000 0.0000 0.0000 26.9946
#
#
#
# Elastic Compliance Matrix: (Units=1/GPa)
#
#
# Indices 1 2 3 4 5 6 
#
# 1 0.012590 -0.005132 -0.001251 0.000000 0.000000 0.000000
# 2 -0.005132 0.021829 -0.001697 0.000000 0.000000 0.000000
# 3 -0.001251 -0.001697 0.012054 0.000000 0.000000 0.000000
# 4 0.000000 0.000000 0.000000 -0.025663 0.000000 0.000000
# 5 0.000000 0.000000 0.000000 0.000000 0.029870 0.000000
# 6 0.000000 0.000000 0.000000 0.000000 0.000000 0.037044
#
#
# Mechanical properties :
#
#
# Convention : Reuss Voigt Hill
#
# Bulk Modulus (GPa) = 32.99045 35.00331 33.99688
# Shear Modulus (GPa) = 43.86434 16.49879 30.18156
#
# Velocity S-wave (km/s) = 4.50040 2.76008 3.73307
# Velocity P-wave (km/s) = 6.49905 5.13026 5.85479
#
# Compressibility (1/GPa) = 0.03031181
#
# Stress axis : x y z
#
# Youngs Moduli (GPa) = 79.43108 45.81034 82.96039
#
# Poissons Ratio (x) = 0.23510 0.10382
# Poissons Ratio (y) = 0.40764 0.14077
# Poissons Ratio (z) = 0.09941 0.07773
#
# Static dielectric constant tensor:
#      x y z
#    x 1.827680 0.000000 0.000000 
#    y 0.000000 1.912840 0.000000 
#    z 0.000000 0.000000 1.900280 
# 
# From -- ./inp_files/279.got.cif
#   From: 2010.05.17/outbox.cif.g08.bks.cpg/sg41_1_cif.got.tgz:279.got - 2010.06.03 18:54:24.
