data_PCOD9367767
_publ_section_title
;
Structure prediction by ZEFSAII (Michael W. Deem and Ramdas Pophale) SiO2 
 PCOD9367767
Probable space group: A B A 2
;
_chemical_formula_sum "Si O2"
_cell_formula_units_Z 64
_cell_length_a 11.399925
_cell_length_b 18.562782
_cell_length_c 14.401323
_cell_angle_alpha 90.000000
_cell_angle_beta 90.000000
_cell_angle_gamma 90.000000
_cell_volume 3047.526211
_symmetry_space_group_name_H-M "A B A 2"
_symmetry_group_IT_number 41
_symmetry_cell_setting 'orthorhombic'
loop_
_space_group_symop_operation_xyz
x,y,z
-x,-y,z
1/2-x,y,1/2+z
1/2+x,-y,1/2+z
x,1/2+y,1/2+z
-x,1/2-y,1/2+z
1/2-x,1/2+y,z
1/2+x,1/2-y,z
loop_
_atom_site_type_symbol
_atom_site_label
_atom_site_fract_x
_atom_site_fract_y
_atom_site_fract_z
Si Si1 0.191196 0.948032 0.671690
Si Si2 0.891224 0.649038 0.758667
Si Si3 0.507256 0.162328 0.085258
Si Si4 0.600601 0.813764 0.624641
Si Si5 0.327155 0.695053 0.750656
Si Si6 0.875375 0.968482 0.045687
Si Si7 0.187339 0.549672 0.342781
Si Si8 0.050497 0.574360 0.911209
O O1 0.278664 0.892401 0.721848
O O2 0.090860 0.901399 0.622954
O O3 0.268861 0.992868 0.598382
O O4 0.154899 0.003132 0.752743
O O5 0.853916 0.727598 0.793792
O O6 0.979525 0.663564 0.673831
O O7 0.959902 0.603577 0.834933
O O8 0.580991 0.236878 0.074745
O O9 0.412328 0.180013 0.163845
O O10 0.444801 0.133460 0.992470
O O11 0.697167 0.805707 0.706192
O O12 0.633762 0.882871 0.563200
O O13 0.348733 0.631355 0.822450
O O14 0.865330 0.982102 0.936388
O O15 0.000000 0.000000 0.080402
O O16 0.327194 0.555916 0.361348
O O17 0.000000 0.500000 0.951112
#
# Coordination Sequence:
#
# PCOD9367767 Si02
#       8
#     8   8   8   8   8   8   8   8
#     4  12  24  46  70 100 140 182 226 290 342 417
#     4  11  23  43  70  99 129 186 231 276 344 418
#     4  11  28  43  69 103 141 180 228 292 349 409
#     4  11  22  48  69  95 137 183 228 281 352 416
#     4  11  24  45  69  97 141 181 228 283 351 416
#     4  12  26  44  71 103 136 183 235 283 346 416
#     4  12  27  43  70 102 138 182 231 288 345 410
#     4  12  24  44  70 103 135 181 238 283 344 416
#
# _framework density 21.000640000000001
#
# number of rings (size 3 to 8) (size 9 to 14) (size 15 to 20)
#    0.000    0.500    6.250    1.500    5.250    0.000 
#    0.000    1.250    0.000    0.000    0.000    0.000 
#    0.000    0.000    0.000    0.000    0.000    0.000 
#
# Total GULP energy -179000.805180 kJ/mol
# GULP energy per Si atom -5593.775162 kJ/mol
# Density = 2.095284 g / cm^3
# Si number density = 21.000640 Si / 1000 Ang^3
#
#
#
# Elastic Constant Matrix: (Units=GPa)
#
#
# Indices 1 2 3 4 5 6 
#
# 1 32.6564 8.7388 -18.1979 0.0000 0.0000 0.0000
# 2 8.7388 136.3083 23.0393 0.0000 0.0000 0.0000
# 3 -18.1979 23.0393 51.1560 0.0000 0.0000 0.0000
# 4 0.0000 0.0000 0.0000 27.5833 0.0000 0.0000
# 5 0.0000 0.0000 0.0000 0.0000 25.1049 0.0000
# 6 0.0000 0.0000 0.0000 0.0000 0.0000 31.9510
#
#
#
# Elastic Compliance Matrix: (Units=1/GPa)
#
#
# Indices 1 2 3 4 5 6 
#
# 1 0.041831 -0.005625 0.017414 0.000000 0.000000 0.000000
# 2 -0.005625 0.008697 -0.005918 0.000000 0.000000 0.000000
# 3 0.017414 -0.005918 0.028408 0.000000 0.000000 0.000000
# 4 0.000000 0.000000 0.000000 0.036254 0.000000 0.000000
# 5 0.000000 0.000000 0.000000 0.000000 0.039833 0.000000
# 6 0.000000 0.000000 0.000000 0.000000 0.000000 0.031298
#
#
# Mechanical properties :
#
#
# Convention : Reuss Voigt Hill
#
# Bulk Modulus (GPa) = 11.02795 27.47568 19.25181
# Shear Modulus (GPa) = 24.41336 30.69720 27.55528
#
# Velocity S-wave (km/s) = 3.41325 3.82740 3.62624
# Velocity P-wave (km/s) = 4.56030 5.71346 5.16914
#
# Compressibility (1/GPa) = 0.09067868
#
# Stress axis : x y z
#
# Youngs Moduli (GPa) = 23.90549 114.97892 35.20107
#
# Poissons Ratio (x) = 0.64679 -0.61300
# Poissons Ratio (y) = 0.13447 0.20832
# Poissons Ratio (z) = -0.41630 0.68046
#
# Static dielectric constant tensor:
#      x y z
#    x 1.762890 0.000000 0.000000 
#    y 0.000000 1.758650 0.000000 
#    z 0.000000 0.000000 1.723760 
# 
# From -- ./inp_files/8088.got.cif
#   From: 2010.05.17/outbox.cif.g08.bks.cpg/sg41_5_cif.got.tgz:8088.got - 2010.06.03 18:54:24.
