data_PCOD9367789
_publ_section_title
;
Structure prediction by ZEFSAII (Michael W. Deem and Ramdas Pophale) SiO2 
 PCOD9367789
Probable space group: A B A 2
;
_chemical_formula_sum "Si O2"
_cell_formula_units_Z 48
_cell_length_a 13.570688
_cell_length_b 16.653836
_cell_length_c 9.382706
_cell_angle_alpha 90.000000
_cell_angle_beta 90.000000
_cell_angle_gamma 90.000000
_cell_volume 2120.529203
_symmetry_space_group_name_H-M "A B A 2"
_symmetry_group_IT_number 41
_symmetry_cell_setting 'orthorhombic'
loop_
_space_group_symop_operation_xyz
x,y,z
-x,-y,z
1/2-x,y,1/2+z
1/2+x,-y,1/2+z
x,1/2+y,1/2+z
-x,1/2-y,1/2+z
1/2-x,1/2+y,z
1/2+x,1/2-y,z
loop_
_atom_site_type_symbol
_atom_site_label
_atom_site_fract_x
_atom_site_fract_y
_atom_site_fract_z
Si Si1 0.500000 0.500000 0.627260
Si Si2 0.812320 0.070501 0.735733
Si Si3 0.823224 0.714906 0.832488
Si Si4 0.293701 0.187824 0.045884
Si Si5 0.000000 0.000000 0.136907
Si Si6 0.709669 0.486515 0.002826
Si Si7 0.530600 0.872601 0.883027
O O1 0.572336 0.553124 0.724145
O O2 0.540611 0.434095 0.516465
O O3 0.761645 0.150382 0.791606
O O4 0.774890 0.054019 0.577987
O O5 0.773435 0.998153 0.835721
O O6 0.790325 0.757922 0.976354
O O7 0.829491 0.775852 0.696715
O O8 0.927137 0.672942 0.866736
O O9 0.379517 0.185630 0.924124
O O10 0.245219 0.099721 0.054897
O O11 0.097976 0.990435 0.043254
O O12 0.030091 0.073295 0.241149
#
# Coordination Sequence:
#
# PCOD9367789 Si02
#       7
#     4   8   8   8   4   8   8
#     4  11  23  42  76 106 136 190 252 302 352 436
#     4  12  24  46  74 105 139 188 244 298 357 433
#     4  12  27  47  72 107 151 192 239 307 376 444
#     4  12  27  47  72 107 151 192 239 307 376 444
#     4  11  23  42  76 106 136 190 252 302 352 436
#     4  12  24  46  74 105 139 188 244 298 357 433
#     4  11  24  44  72 104 145 192 238 308 371 428
#
# _framework density 22.635859
#
# number of rings (size 3 to 8) (size 9 to 14) (size 15 to 20)
#    0.000    0.333    3.333    6.500    0.000    4.000 
#    0.000    0.000    0.000    0.000    0.000    0.000 
#    0.000    0.000    0.000    0.000    0.000    0.000 
#
# Total GULP energy -134030.345065 kJ/mol
# GULP energy per Si atom -5584.597711 kJ/mol
# Density = 2.258434 g / cm^3
# Si number density = 22.635859 Si / 1000 Ang^3
#
#
#
# Elastic Constant Matrix: (Units=GPa)
#
#
# Indices 1 2 3 4 5 6 
#
# 1 88.5463 7.5308 9.4969 0.0000 0.0000 0.0000
# 2 7.5308 63.9744 8.6778 0.0000 0.0000 0.0000
# 3 9.4969 8.6778 80.7269 0.0000 0.0000 0.0000
# 4 0.0000 0.0000 0.0000 20.0149 0.0000 0.0000
# 5 0.0000 0.0000 0.0000 0.0000 -0.4264 0.0000
# 6 0.0000 0.0000 0.0000 0.0000 0.0000 36.1007
#
#
#
# Elastic Compliance Matrix: (Units=1/GPa)
#
#
# Indices 1 2 3 4 5 6 
#
# 1 0.011526 -0.001190 -0.001228 0.000000 0.000000 0.000000
# 2 -0.001190 0.015985 -0.001578 0.000000 0.000000 0.000000
# 3 -0.001228 -0.001578 0.012702 0.000000 0.000000 0.000000
# 4 0.000000 0.000000 0.000000 0.049963 0.000000 0.000000
# 5 0.000000 0.000000 0.000000 0.000000 -2.345428 0.000000
# 6 0.000000 0.000000 0.000000 0.000000 0.000000 0.027700
#
#
# Mechanical properties :
#
#
# Convention : Reuss Voigt Hill
#
# Bulk Modulus (GPa) = 31.03645 31.62873 31.33259
# Shear Modulus (GPa) = -2.26365 24.97398 11.35517
#
# Velocity S-wave (km/s) = -1.00110 3.32519 2.24217
# Velocity P-wave (km/s) = 3.52203 5.36150 4.53599
#
# Compressibility (1/GPa) = 0.03222018
#
# Stress axis : x y z
#
# Youngs Moduli (GPa) = 86.75681 62.55690 78.73034
#
# Poissons Ratio (x) = 0.07446 0.09669
# Poissons Ratio (y) = 0.10326 0.12426
# Poissons Ratio (z) = 0.10654 0.09874
#
# Static dielectric constant tensor:
#      x y z
#    x 1.958750 0.000000 0.000000 
#    y 0.000000 1.893840 0.000000 
#    z 0.000000 0.000000 1.799620 
# 
# From -- ./inp_files/2567.got.cif
#   From: 2010.05.17/outbox.cif.g08.bks.cpg/sg41_2_cif.got.tgz:2567.got - 2010.06.03 18:54:24.
