data_PCOD9367444
_publ_section_title
;
Structure prediction by ZEFSAII (Michael W. Deem and Ramdas Pophale) SiO2 
 PCOD9367444
Probable space group: A B A 2
;
_chemical_formula_sum "Si O2"
_cell_formula_units_Z 32
_cell_length_a 20.633648
_cell_length_b 14.553870
_cell_length_c 5.156698
_cell_angle_alpha 90.000000
_cell_angle_beta 90.000000
_cell_angle_gamma 90.000000
_cell_volume 1548.553473
_symmetry_space_group_name_H-M "A B A 2"
_symmetry_group_IT_number 41
_symmetry_cell_setting 'orthorhombic'
loop_
_space_group_symop_operation_xyz
x,y,z
-x,-y,z
1/2-x,y,1/2+z
1/2+x,-y,1/2+z
x,1/2+y,1/2+z
-x,1/2-y,1/2+z
1/2-x,1/2+y,z
1/2+x,1/2-y,z
loop_
_atom_site_type_symbol
_atom_site_label
_atom_site_fract_x
_atom_site_fract_y
_atom_site_fract_z
Si Si1 0.913643 0.447407 0.160800
Si Si2 0.423088 0.853187 0.004673
Si Si3 0.293141 0.435638 0.617981
Si Si4 0.032653 0.654661 0.661407
O O1 0.942066 0.550866 0.139639
O O2 0.837321 0.471884 0.123948
O O3 0.935022 0.399052 0.424191
O O4 0.935340 0.385588 0.920850
O O5 0.452025 0.761886 0.128355
O O6 0.345791 0.857772 0.035779
O O7 0.455639 0.857890 0.718725
O O8 0.237942 0.430544 0.401243
#
# Coordination Sequence:
#
# PCOD9367444 Si02
#       4
#     8   8   8   8
#     4  10  26  42  70  96 138 179 218 283 344 391
#     4  10  27  41  72 101 142 174 220 292 339 412
#     4  10  23  47  68  94 137 185 231 277 336 403
#     4  12  23  45  66 108 136 172 231 274 357 409
#
# _framework density 20.664445000000001
#
# number of rings (size 3 to 8) (size 9 to 14) (size 15 to 20)
#    1.500    0.000    0.000    3.750    0.000   16.000 
#    0.000    7.500    0.000    0.000    0.000    0.000 
#    0.000    0.000    0.000    0.000    0.000    0.000 
#
# Total GULP energy -89211.200605 kJ/mol
# GULP energy per Si atom -5575.700038 kJ/mol
# Density = 2.061741 g / cm^3
# Si number density = 20.664445 Si / 1000 Ang^3
#
#
#
# Elastic Constant Matrix: (Units=GPa)
#
#
# Indices 1 2 3 4 5 6 
#
# 1 69.6264 23.9824 11.0914 0.0000 0.0000 0.0000
# 2 23.9824 141.9541 45.5802 0.0000 0.0000 0.0000
# 3 11.0914 45.5802 131.3983 0.0000 0.0000 0.0000
# 4 0.0000 0.0000 0.0000 35.9069 0.0000 0.0000
# 5 0.0000 0.0000 0.0000 0.0000 39.0120 0.0000
# 6 0.0000 0.0000 0.0000 0.0000 0.0000 26.7806
#
#
#
# Elastic Compliance Matrix: (Units=1/GPa)
#
#
# Indices 1 2 3 4 5 6 
#
# 1 0.015273 -0.002438 -0.000444 0.000000 0.000000 0.000000
# 2 -0.002438 0.008317 -0.002679 0.000000 0.000000 0.000000
# 3 -0.000444 -0.002679 0.008577 0.000000 0.000000 0.000000
# 4 0.000000 0.000000 0.000000 0.027850 0.000000 0.000000
# 5 0.000000 0.000000 0.000000 0.000000 0.025633 0.000000
# 6 0.000000 0.000000 0.000000 0.000000 0.000000 0.037340
#
#
# Mechanical properties :
#
#
# Convention : Reuss Voigt Hill
#
# Bulk Modulus (GPa) = 47.51589 56.03187 51.77388
# Shear Modulus (GPa) = 35.42931 37.82825 36.62878
#
# Velocity S-wave (km/s) = 4.14515 4.28319 4.21473
# Velocity P-wave (km/s) = 6.77891 7.18574 6.98529
#
# Compressibility (1/GPa) = 0.02104559
#
# Stress axis : x y z
#
# Youngs Moduli (GPa) = 65.47622 120.24089 116.58758
#
# Poissons Ratio (x) = 0.29313 0.05171
# Poissons Ratio (y) = 0.15962 0.31236
# Poissons Ratio (z) = 0.02904 0.32214
#
# Static dielectric constant tensor:
#      x y z
#    x 1.846150 0.000000 0.000000 
#    y 0.000000 1.714190 0.000000 
#    z 0.000000 0.000000 1.739500 
# 
# From -- ./inp_files/415.got.cif
#   From: 2010.05.17/outbox.cif.g08.bks.cpg/sg41_1_cif.got.tgz:415.got - 2010.06.03 18:54:24.
