data_PCOD9367294
_publ_section_title
;
Structure prediction by ZEFSAII (Michael W. Deem and Ramdas Pophale) SiO2 
 PCOD9367294
Probable space group: A B A 2
;
_chemical_formula_sum "Si O2"
_cell_formula_units_Z 64
_cell_length_a 22.861615
_cell_length_b 8.080036
_cell_length_c 16.551789
_cell_angle_alpha 90.000000
_cell_angle_beta 90.000000
_cell_angle_gamma 90.000000
_cell_volume 3057.490694
_symmetry_space_group_name_H-M "A B A 2"
_symmetry_group_IT_number 41
_symmetry_cell_setting 'orthorhombic'
loop_
_space_group_symop_operation_xyz
x,y,z
-x,-y,z
1/2-x,y,1/2+z
1/2+x,-y,1/2+z
x,1/2+y,1/2+z
-x,1/2-y,1/2+z
1/2-x,1/2+y,z
1/2+x,1/2-y,z
loop_
_atom_site_type_symbol
_atom_site_label
_atom_site_fract_x
_atom_site_fract_y
_atom_site_fract_z
Si Si1 0.058596 0.620096 0.233660
Si Si2 0.163816 0.269326 0.129521
Si Si3 0.252323 0.993237 0.557219
Si Si4 0.380615 0.318407 0.804611
Si Si5 0.826507 0.780189 0.464587
Si Si6 0.941979 0.323221 0.530551
Si Si7 0.930003 0.213132 0.072222
Si Si8 0.004808 0.809469 0.369103
O O1 0.104403 0.507497 0.282559
O O2 0.087900 0.697469 0.154489
O O3 0.040358 0.776966 0.287374
O O4 0.000000 0.500000 0.222088
O O5 0.205834 0.123329 0.100109
O O6 0.205747 0.426816 0.122011
O O7 0.136468 0.242682 0.217695
O O8 0.112250 0.279983 0.063385
O O9 0.213699 0.062467 0.482644
O O10 0.294690 0.855890 0.520169
O O11 0.332849 0.280350 0.872983
O O12 0.440684 0.251918 0.843683
O O13 0.891383 0.795543 0.502501
O O14 0.927899 0.514147 0.554982
O O15 0.962032 0.298292 0.437804
O O16 0.000398 0.259702 0.573750
O O17 0.000000 0.000000 0.393900
#
# Coordination Sequence:
#
# PCOD9367294 Si02
#       8
#     8   8   8   8   8   8   8   8
#     4  10  23  40  62  98 141 177 226 280 352 428
#     4  11  24  45  71  98 139 181 241 292 353 424
#     4  10  25  44  69  95 131 187 240 288 341 429
#     4  11  24  43  67  99 140 178 231 300 352 413
#     4  11  22  44  66  95 132 177 229 292 349 412
#     4  11  23  39  69 101 137 182 228 281 363 429
#     4  11  22  39  70  97 136 182 224 280 366 420
#     4  11  25  38  63 105 146 179 227 284 359 440
#
# _framework density 20.932199000000001
#
# number of rings (size 3 to 8) (size 9 to 14) (size 15 to 20)
#    0.000    1.250    2.500    3.000    8.750    2.500 
#    0.000    0.000    0.000    0.000    0.000    0.000 
#    0.000    0.000    0.000    0.000    0.000    0.000 
#
# Total GULP energy -178452.435384 kJ/mol
# GULP energy per Si atom -5576.638606 kJ/mol
# Density = 2.088456 g / cm^3
# Si number density = 20.932199 Si / 1000 Ang^3
#
#
#
# Elastic Constant Matrix: (Units=GPa)
#
#
# Indices 1 2 3 4 5 6 
#
# 1 101.3728 19.0966 35.0483 0.0000 0.0000 0.0000
# 2 19.0966 52.0374 23.1781 0.0000 0.0000 0.0000
# 3 35.0483 23.1781 130.5972 0.0000 0.0000 0.0000
# 4 0.0000 0.0000 0.0000 27.8038 0.0000 0.0000
# 5 0.0000 0.0000 0.0000 0.0000 7.2148 0.0000
# 6 0.0000 0.0000 0.0000 0.0000 0.0000 -3.8863
#
#
#
# Elastic Compliance Matrix: (Units=1/GPa)
#
#
# Indices 1 2 3 4 5 6 
#
# 1 0.011299 -0.003036 -0.002493 0.000000 0.000000 0.000000
# 2 -0.003036 0.021682 -0.003033 0.000000 0.000000 0.000000
# 3 -0.002493 -0.003033 0.008865 0.000000 0.000000 0.000000
# 4 0.000000 0.000000 0.000000 0.035966 0.000000 0.000000
# 5 0.000000 0.000000 0.000000 0.000000 0.138604 0.000000
# 6 0.000000 0.000000 0.000000 0.000000 0.000000 -0.257317
#
#
# Mechanical properties :
#
#
# Convention : Reuss Voigt Hill
#
# Bulk Modulus (GPa) = 40.45272 48.73927 44.59600
# Shear Modulus (GPa) = -321.83341 20.00544 -150.91399
#
# Velocity S-wave (km/s) = -12.41307 3.09484 -8.50018
# Velocity P-wave (km/s) = 13.64104 6.00879 8.65946
#
# Compressibility (1/GPa) = 0.02472022
#
# Stress axis : x y z
#
# Youngs Moduli (GPa) = 88.50728 46.12101 112.80777
#
# Poissons Ratio (x) = 0.14001 0.28127
# Poissons Ratio (y) = 0.26868 0.34219
# Poissons Ratio (z) = 0.22068 0.13990
#
# Static dielectric constant tensor:
#      x y z
#    x 1.754070 0.000000 0.000000 
#    y 0.000000 1.794050 0.000000 
#    z 0.000000 0.000000 1.788420 
# 
# From -- ./inp_files/9137.got.cif
#   From: 2010.05.17/outbox.cif.g08.bks.cpg/sg41_5_cif.got.tgz:9137.got - 2010.06.03 18:54:24.
