data_PCOD9367413
_publ_section_title
;
Structure prediction by ZEFSAII (Michael W. Deem and Ramdas Pophale) SiO2 
 PCOD9367413
Probable space group: A B A 2
;
_chemical_formula_sum "Si O2"
_cell_formula_units_Z 64
_cell_length_a 8.444941
_cell_length_b 24.378429
_cell_length_c 12.178428
_cell_angle_alpha 90.000000
_cell_angle_beta 90.000000
_cell_angle_gamma 90.000000
_cell_volume 2507.226491
_symmetry_space_group_name_H-M "A B A 2"
_symmetry_group_IT_number 41
_symmetry_cell_setting 'orthorhombic'
loop_
_space_group_symop_operation_xyz
x,y,z
-x,-y,z
1/2-x,y,1/2+z
1/2+x,-y,1/2+z
x,1/2+y,1/2+z
-x,1/2-y,1/2+z
1/2-x,1/2+y,z
1/2+x,1/2-y,z
loop_
_atom_site_type_symbol
_atom_site_label
_atom_site_fract_x
_atom_site_fract_y
_atom_site_fract_z
Si Si1 0.347049 0.200276 0.881620
Si Si2 0.317717 0.297858 0.740557
Si Si3 0.095810 0.390928 0.356392
Si Si4 0.017385 0.862618 0.202318
Si Si5 0.079322 0.233810 0.033983
Si Si6 0.808929 0.010580 0.381761
Si Si7 0.107524 0.047664 0.684861
Si Si8 0.870264 0.933414 0.044208
O O1 0.267531 0.239922 0.790194
O O2 0.407142 0.149030 0.809026
O O3 0.225001 0.201264 0.980512
O O4 0.494676 0.230529 0.939440
O O5 0.415371 0.326103 0.838504
O O6 0.380640 0.281513 0.622707
O O7 0.194072 0.347146 0.732905
O O8 0.254471 0.425773 0.382854
O O9 0.017447 0.415943 0.248107
O O10 0.967161 0.405271 0.448889
O O11 0.994834 0.813752 0.111243
O O12 0.988380 0.921591 0.147269
O O13 0.726947 0.981381 0.273938
O O14 0.702235 0.987020 0.484157
O O15 0.000000 0.000000 0.384417
O O16 0.207190 0.085008 0.602026
O O17 0.000000 0.000000 0.632050
#
# Coordination Sequence:
#
# PCOD9367413 Si02
#       8
#     8   8   8   8   8   8   8   8
#     4  11  23  43  69  98 143 187 233 292 356 421
#     4  11  24  44  68 106 142 185 239 292 361 429
#     4  10  24  46  70  99 148 185 235 306 359 432
#     4  11  25  41  69 107 137 190 240 294 355 429
#     4  11  23  44  71  96 143 196 229 288 362 431
#     4  10  23  45  71 101 143 191 236 303 369 427
#     4   9  21  44  69 103 137 183 237 298 363 431
#     4  11  23  43  69 104 142 185 243 291 367 434
#
# _framework density 25.526214
#
# number of rings (size 3 to 8) (size 9 to 14) (size 15 to 20)
#    0.000    1.500    2.500    2.250    1.750    5.000 
#    6.750    0.000    0.000    0.000    0.000    0.000 
#    0.000    0.000    0.000    0.000    0.000    0.000 
#
# Total GULP energy -178213.042260 kJ/mol
# GULP energy per Si atom -5569.157571 kJ/mol
# Density = 2.546811 g / cm^3
# Si number density = 25.526214 Si / 1000 Ang^3
#
#
#
# Elastic Constant Matrix: (Units=GPa)
#
#
# Indices 1 2 3 4 5 6 
#
# 1 57.1455 27.4539 3.1150 0.0000 0.0000 0.0000
# 2 27.4539 91.1020 36.2734 0.0000 0.0000 0.0000
# 3 3.1150 36.2734 84.7394 0.0000 0.0000 0.0000
# 4 0.0000 0.0000 0.0000 43.6444 0.0000 0.0000
# 5 0.0000 0.0000 0.0000 0.0000 41.3734 0.0000
# 6 0.0000 0.0000 0.0000 0.0000 0.0000 21.4730
#
#
#
# Elastic Compliance Matrix: (Units=1/GPa)
#
#
# Indices 1 2 3 4 5 6 
#
# 1 0.020832 -0.007200 0.002316 0.000000 0.000000 0.000000
# 2 -0.007200 0.015720 -0.006465 0.000000 0.000000 0.000000
# 3 0.002316 -0.006465 0.014483 0.000000 0.000000 0.000000
# 4 0.000000 0.000000 0.000000 0.022912 0.000000 0.000000
# 5 0.000000 0.000000 0.000000 0.000000 0.024170 0.000000
# 6 0.000000 0.000000 0.000000 0.000000 0.000000 0.046570
#
#
# Mechanical properties :
#
#
# Convention : Reuss Voigt Hill
#
# Bulk Modulus (GPa) = 35.28755 40.74130 38.01442
# Shear Modulus (GPa) = 28.27558 32.37446 30.32502
#
# Velocity S-wave (km/s) = 3.33183 3.56516 3.45047
# Velocity P-wave (km/s) = 5.35309 5.73954 5.54968
#
# Compressibility (1/GPa) = 0.02833861
#
# Stress axis : x y z
#
# Youngs Moduli (GPa) = 48.00315 63.61151 69.04666
#
# Poissons Ratio (x) = 0.45800 -0.15993
# Poissons Ratio (y) = 0.34562 0.44636
# Poissons Ratio (z) = -0.11119 0.41122
#
# Static dielectric constant tensor:
#      x y z
#    x 2.051070 0.000000 0.000000 
#    y 0.000000 2.171760 0.000000 
#    z 0.000000 0.000000 2.160600 
# 
# From -- ./inp_files/4638.got.cif
#   From: 2010.05.17/outbox.cif.g08.bks.cpg/sg41_3_cif.got.tgz:4638.got - 2010.06.03 18:54:24.
