data_PCOD9367176
_publ_section_title
;
Structure prediction by ZEFSAII (Michael W. Deem and Ramdas Pophale) SiO2 
 PCOD9367176
Probable space group: A B A 2
;
_chemical_formula_sum "Si O2"
_cell_formula_units_Z 56
_cell_length_a 18.808356
_cell_length_b 8.911813
_cell_length_c 16.090360
_cell_angle_alpha 90.000000
_cell_angle_beta 90.000000
_cell_angle_gamma 90.000000
_cell_volume 2697.010656
_symmetry_space_group_name_H-M "A B A 2"
_symmetry_group_IT_number 41
_symmetry_cell_setting 'orthorhombic'
loop_
_space_group_symop_operation_xyz
x,y,z
-x,-y,z
1/2-x,y,1/2+z
1/2+x,-y,1/2+z
x,1/2+y,1/2+z
-x,1/2-y,1/2+z
1/2-x,1/2+y,z
1/2+x,1/2-y,z
loop_
_atom_site_type_symbol
_atom_site_label
_atom_site_fract_x
_atom_site_fract_y
_atom_site_fract_z
Si Si1 0.394786 0.370474 0.765180
Si Si2 0.717461 0.866006 0.839243
Si Si3 0.288557 0.676083 0.011096
Si Si4 0.569038 0.415243 0.920784
Si Si5 0.474653 0.328820 0.294608
Si Si6 0.819490 0.167117 0.254443
Si Si7 0.290826 0.448299 0.622260
O O1 0.340529 0.245960 0.801455
O O2 0.410837 0.485767 0.839492
O O3 0.466413 0.275303 0.751038
O O4 0.358843 0.442893 0.683651
O O5 0.735819 0.827692 0.933016
O O6 0.788460 0.822250 0.788721
O O7 0.696155 0.036901 0.822949
O O8 0.362337 0.599882 0.980122
O O9 0.244575 0.595688 0.084164
O O10 0.306399 0.840117 0.044694
O O11 0.500000 0.500000 0.958301
O O12 0.545660 0.254680 0.881532
O O13 0.500000 0.500000 0.306636
O O14 0.402731 0.329665 0.241512
O O15 0.773568 0.118497 0.176675
#
# Coordination Sequence:
#
# PCOD9367176 Si02
#       7
#     8   8   8   8   8   8   8
#     4  10  22  43  65  95 127 171 223 268 316 391
#     4  11  21  38  68  92 125 168 224 269 316 385
#     4  12  23  40  62  98 131 170 206 271 339 388
#     4  10  23  43  68  93 128 175 223 271 325 394
#     4  11  22  39  71  97 123 166 231 276 319 381
#     4  11  22  40  65  94 123 170 224 272 312 390
#     4  11  25  38  62  96 134 167 213 269 330 389
#
# _framework density 20.763729999999999
#
# number of rings (size 3 to 8) (size 9 to 14) (size 15 to 20)
#    0.000    1.143    2.857    5.143    2.000    0.000 
#    2.571    0.000    0.000    2.571    0.000    0.000 
#    0.000    0.000    0.000    0.000    0.000    0.000 
#
# Total GULP energy -156402.479251 kJ/mol
# GULP energy per Si atom -5585.802830 kJ/mol
# Density = 2.071647 g / cm^3
# Si number density = 20.763730 Si / 1000 Ang^3
#
#
#
# Elastic Constant Matrix: (Units=GPa)
#
#
# Indices 1 2 3 4 5 6 
#
# 1 126.5257 26.9658 13.9889 0.0000 0.0000 0.0000
# 2 26.9658 77.2224 0.4973 0.0000 0.0000 0.0000
# 3 13.9889 0.4973 58.6546 0.0000 0.0000 0.0000
# 4 0.0000 0.0000 0.0000 33.9373 0.0000 0.0000
# 5 0.0000 0.0000 0.0000 0.0000 28.3918 0.0000
# 6 0.0000 0.0000 0.0000 0.0000 0.0000 35.9425
#
#
#
# Elastic Compliance Matrix: (Units=1/GPa)
#
#
# Indices 1 2 3 4 5 6 
#
# 1 0.008783 -0.003054 -0.002069 0.000000 0.000000 0.000000
# 2 -0.003054 0.014012 0.000610 0.000000 0.000000 0.000000
# 3 -0.002069 0.000610 0.017537 0.000000 0.000000 0.000000
# 4 0.000000 0.000000 0.000000 0.029466 0.000000 0.000000
# 5 0.000000 0.000000 0.000000 0.000000 0.035221 0.000000
# 6 0.000000 0.000000 0.000000 0.000000 0.000000 0.027822
#
#
# Mechanical properties :
#
#
# Convention : Reuss Voigt Hill
#
# Bulk Modulus (GPa) = 31.94251 38.36740 35.15496
# Shear Modulus (GPa) = 32.82917 34.38437 33.60677
#
# Velocity S-wave (km/s) = 3.98060 4.07379 4.02746
# Velocity P-wave (km/s) = 6.04517 6.37541 6.21249
#
# Compressibility (1/GPa) = 0.03130624
#
# Stress axis : x y z
#
# Youngs Moduli (GPa) = 113.85516 71.36724 57.02160
#
# Poissons Ratio (x) = 0.21793 0.11797
# Poissons Ratio (y) = 0.34768 -0.03475
# Poissons Ratio (z) = 0.23555 -0.04350
#
# Static dielectric constant tensor:
#      x y z
#    x 1.779140 0.000000 0.000000 
#    y 0.000000 1.790970 0.000000 
#    z 0.000000 0.000000 1.749010 
# 
# From -- ./inp_files/9014.got.cif
#   From: 2010.05.17/outbox.cif.g08.bks.cpg/sg41_5_cif.got.tgz:9014.got - 2010.06.03 18:54:24.
