data_PCOD9367883
_publ_section_title
;
Structure prediction by ZEFSAII (Michael W. Deem and Ramdas Pophale) SiO2 
 PCOD9367883
Probable space group: A B A 2
;
_chemical_formula_sum "Si O2"
_cell_formula_units_Z 40
_cell_length_a 10.926456
_cell_length_b 21.805474
_cell_length_c 7.435127
_cell_angle_alpha 90.000000
_cell_angle_beta 90.000000
_cell_angle_gamma 90.000000
_cell_volume 1771.467724
_symmetry_space_group_name_H-M "A B A 2"
_symmetry_group_IT_number 41
_symmetry_cell_setting 'orthorhombic'
loop_
_space_group_symop_operation_xyz
x,y,z
-x,-y,z
1/2-x,y,1/2+z
1/2+x,-y,1/2+z
x,1/2+y,1/2+z
-x,1/2-y,1/2+z
1/2-x,1/2+y,z
1/2+x,1/2-y,z
loop_
_atom_site_type_symbol
_atom_site_label
_atom_site_fract_x
_atom_site_fract_y
_atom_site_fract_z
Si Si1 0.446253 0.175002 0.541010
Si Si2 0.615127 0.457948 0.997004
Si Si3 0.885121 0.706383 0.863136
Si Si4 0.628142 0.503892 0.620142
Si Si5 0.138316 0.856742 0.731263
O O1 0.387079 0.109402 0.580937
O O2 0.364212 0.224937 0.437497
O O3 0.504914 0.203692 0.720228
O O4 0.554718 0.158906 0.401188
O O5 0.500000 0.500000 0.057388
O O6 0.747104 0.487348 0.025155
O O7 0.604365 0.455604 0.780838
O O8 0.767903 0.676003 0.768790
O O9 0.913707 0.667720 0.042427
O O10 0.500000 0.500000 0.511818
O O11 0.651037 0.570595 0.706333
#
# Coordination Sequence:
#
# PCOD9367883 Si02
#       5
#     8   8   8   8   8
#     4  12  25  46  70 109 146 189 247 307 359 448
#     4  11  24  46  72 107 151 185 244 307 370 441
#     4  12  26  43  76 103 143 195 245 301 375 435
#     4  11  24  46  73 104 143 194 244 303 370 445
#     4  12  23  47  72 101 145 191 244 302 372 439
#
# _framework density 22.580145000000002
#
# number of rings (size 3 to 8) (size 9 to 14) (size 15 to 20)
#    0.000    0.400    8.000    2.400    0.000    4.000 
#    3.600    0.000    0.000    0.000    0.000    0.000 
#    0.000    0.000    0.000    0.000    0.000    0.000 
#
# Total GULP energy -111826.634965 kJ/mol
# GULP energy per Si atom -5591.331748 kJ/mol
# Density = 2.252875 g / cm^3
# Si number density = 22.580145 Si / 1000 Ang^3
#
#
#
# Elastic Constant Matrix: (Units=GPa)
#
#
# Indices 1 2 3 4 5 6 
#
# 1 140.6576 40.5308 16.5429 0.0000 0.0000 0.0000
# 2 40.5308 120.1743 14.1366 0.0000 0.0000 0.0000
# 3 16.5429 14.1366 93.8368 0.0000 0.0000 0.0000
# 4 0.0000 0.0000 0.0000 41.7209 0.0000 0.0000
# 5 0.0000 0.0000 0.0000 0.0000 20.0868 0.0000
# 6 0.0000 0.0000 0.0000 0.0000 0.0000 31.8622
#
#
#
# Elastic Compliance Matrix: (Units=1/GPa)
#
#
# Indices 1 2 3 4 5 6 
#
# 1 0.007969 -0.002568 -0.001018 0.000000 0.000000 0.000000
# 2 -0.002568 0.009299 -0.000948 0.000000 0.000000 0.000000
# 3 -0.001018 -0.000948 0.010979 0.000000 0.000000 0.000000
# 4 0.000000 0.000000 0.000000 0.023969 0.000000 0.000000
# 5 0.000000 0.000000 0.000000 0.000000 0.049784 0.000000
# 6 0.000000 0.000000 0.000000 0.000000 0.000000 0.031385
#
#
# Mechanical properties :
#
#
# Convention : Reuss Voigt Hill
#
# Bulk Modulus (GPa) = 52.14098 55.23215 53.68657
# Shear Modulus (GPa) = 33.59168 37.63122 35.61145
#
# Velocity S-wave (km/s) = 3.86121 4.08678 3.97560
# Velocity P-wave (km/s) = 6.55898 6.83979 6.70085
#
# Compressibility (1/GPa) = 0.01917877
#
# Stress axis : x y z
#
# Youngs Moduli (GPa) = 125.48370 107.53989 91.08204
#
# Poissons Ratio (x) = 0.27616 0.09273
# Poissons Ratio (y) = 0.32224 0.08636
# Poissons Ratio (z) = 0.12775 0.10197
#
# Static dielectric constant tensor:
#      x y z
#    x 1.892520 0.000000 0.000000 
#    y 0.000000 1.861430 0.000000 
#    z 0.000000 0.000000 1.819390 
# 
# From -- ./inp_files/1702.got.cif
#   From: 2010.05.17/outbox.cif.g08.bks.cpg/sg41_1_cif.got.tgz:1702.got - 2010.06.03 18:54:24.
