data_PCOD9367588
_publ_section_title
;
Structure prediction by ZEFSAII (Michael W. Deem and Ramdas Pophale) SiO2 
 PCOD9367588
Probable space group: A B A 2
;
_chemical_formula_sum "Si O2"
_cell_formula_units_Z 48
_cell_length_a 15.095010
_cell_length_b 7.279598
_cell_length_c 17.619656
_cell_angle_alpha 90.000000
_cell_angle_beta 90.000000
_cell_angle_gamma 90.000000
_cell_volume 1936.146553
_symmetry_space_group_name_H-M "A B A 2"
_symmetry_group_IT_number 41
_symmetry_cell_setting 'orthorhombic'
loop_
_space_group_symop_operation_xyz
x,y,z
-x,-y,z
1/2-x,y,1/2+z
1/2+x,-y,1/2+z
x,1/2+y,1/2+z
-x,1/2-y,1/2+z
1/2-x,1/2+y,z
1/2+x,1/2-y,z
loop_
_atom_site_type_symbol
_atom_site_label
_atom_site_fract_x
_atom_site_fract_y
_atom_site_fract_z
Si Si1 0.403001 0.094703 0.686440
Si Si2 0.899228 0.334699 0.388969
Si Si3 0.829791 0.630259 0.563401
Si Si4 0.023181 0.787293 0.547923
Si Si5 0.729780 0.372738 0.457492
Si Si6 0.417005 0.734628 0.348073
O O1 0.419810 0.251898 0.623255
O O2 0.332468 0.959633 0.645827
O O3 0.379004 0.172849 0.767793
O O4 0.500000 0.000000 0.694135
O O5 0.924238 0.291630 0.476586
O O6 0.795427 0.291560 0.392227
O O7 0.907674 0.546036 0.362559
O O8 0.975205 0.216899 0.347126
O O9 0.786025 0.554654 0.484003
O O10 0.785657 0.825335 0.548071
O O11 0.865348 0.873141 0.415409
O O12 0.933996 0.667794 0.551376
O O13 0.000000 0.000000 0.541230
#
# Coordination Sequence:
#
# PCOD9367588 Si02
#       6
#     8   8   8   8   8   8
#     4  10  24  48  72 110 157 195 257 323 398 469
#     4  11  23  44  76 105 152 196 266 307 382 474
#     4  11  24  44  70 108 148 195 259 317 371 476
#     4  11  23  43  78 109 142 206 263 314 385 459
#     4  12  22  43  75 107 149 200 260 321 380 458
#     4  11  24  46  74 109 155 203 244 329 398 458
#
# _framework density 24.791511
#
# number of rings (size 3 to 8) (size 9 to 14) (size 15 to 20)
#    0.000    1.000    5.000    1.000    7.000    2.000 
#    3.000    1.667    0.000    0.000    0.000    0.000 
#    0.000    0.000    0.000    0.000    0.000    0.000 
#
# Total GULP energy -133634.859719 kJ/mol
# GULP energy per Si atom -5568.119155 kJ/mol
# Density = 2.473508 g / cm^3
# Si number density = 24.791511 Si / 1000 Ang^3
#
#
#
# Elastic Constant Matrix: (Units=GPa)
#
#
# Indices 1 2 3 4 5 6 
#
# 1 70.3854 -3.5865 15.3297 0.0000 0.0000 0.0000
# 2 -3.5865 51.8029 47.7005 0.0000 0.0000 0.0000
# 3 15.3297 47.7005 179.0320 0.0000 0.0000 0.0000
# 4 0.0000 0.0000 0.0000 32.1124 0.0000 0.0000
# 5 0.0000 0.0000 0.0000 0.0000 26.7970 0.0000
# 6 0.0000 0.0000 0.0000 0.0000 0.0000 37.7910
#
#
#
# Elastic Compliance Matrix: (Units=1/GPa)
#
#
# Indices 1 2 3 4 5 6 
#
# 1 0.014800 0.002904 -0.002041 0.000000 0.000000 0.000000
# 2 0.002904 0.026149 -0.007216 0.000000 0.000000 0.000000
# 3 -0.002041 -0.007216 0.007683 0.000000 0.000000 0.000000
# 4 0.000000 0.000000 0.000000 0.031141 0.000000 0.000000
# 5 0.000000 0.000000 0.000000 0.000000 0.037318 0.000000
# 6 0.000000 0.000000 0.000000 0.000000 0.000000 0.026461
#
#
# Mechanical properties :
#
#
# Convention : Reuss Voigt Hill
#
# Bulk Modulus (GPa) = 27.83443 46.67864 37.25653
# Shear Modulus (GPa) = 29.72072 35.45852 32.58962
#
# Velocity S-wave (km/s) = 3.46616 3.78599 3.62960
# Velocity P-wave (km/s) = 5.22215 6.16287 5.71191
#
# Compressibility (1/GPa) = 0.03592673
#
# Stress axis : x y z
#
# Youngs Moduli (GPa) = 67.56761 38.24189 130.15930
#
# Poissons Ratio (x) = -0.11106 0.26565
# Poissons Ratio (y) = -0.19622 0.93920
# Poissons Ratio (z) = 0.13790 0.27594
#
# Static dielectric constant tensor:
#      x y z
#    x 2.051250 0.000000 0.000000 
#    y 0.000000 23.555480 0.000000 
#    z 0.000000 0.000000 1.891060 
# 
# From -- ./inp_files/10521.got.cif
#   From: 2010.05.17/outbox.cif.g08.bks.cpg/sg41_6_cif.got.tgz:10521.got - 2010.06.03 18:54:24.
