data_PCOD9367564
_publ_section_title
;
Structure prediction by ZEFSAII (Michael W. Deem and Ramdas Pophale) SiO2 
 PCOD9367564
Probable space group: A B A 2
;
_chemical_formula_sum "Si O2"
_cell_formula_units_Z 32
_cell_length_a 10.902436
_cell_length_b 8.992371
_cell_length_c 11.977155
_cell_angle_alpha 90.000000
_cell_angle_beta 90.000000
_cell_angle_gamma 90.000000
_cell_volume 1174.225297
_symmetry_space_group_name_H-M "A B A 2"
_symmetry_group_IT_number 41
_symmetry_cell_setting 'orthorhombic'
loop_
_space_group_symop_operation_xyz
x,y,z
-x,-y,z
1/2-x,y,1/2+z
1/2+x,-y,1/2+z
x,1/2+y,1/2+z
-x,1/2-y,1/2+z
1/2-x,1/2+y,z
1/2+x,1/2-y,z
loop_
_atom_site_type_symbol
_atom_site_label
_atom_site_fract_x
_atom_site_fract_y
_atom_site_fract_z
Si Si1 0.023900 0.331430 0.955890
Si Si2 0.706099 0.383591 0.077294
Si Si3 0.832470 0.157920 0.223024
Si Si4 0.369051 0.920640 0.385593
O O1 0.080901 0.325475 0.830351
O O2 0.000000 0.500000 0.987231
O O3 0.901956 0.232336 0.946939
O O4 0.114921 0.248651 0.040615
O O5 0.811874 0.308368 0.152462
O O6 0.639951 0.510999 0.151574
O O7 0.718977 0.476524 0.961383
O O8 0.698997 0.121733 0.274229
O O9 0.500000 0.000000 0.372566
#
# Coordination Sequence:
#
# PCOD9367564 Si02
#       4
#     8   8   8   8
#     4  11  26  48  74 109 153 193 243 309 375 448
#     4  11  25  43  73 106 139 186 243 298 361 433
#     4  12  25  47  75 105 144 197 247 301 372 444
#     4  10  24  46  70 106 148 188 244 306 364 439
#
# _framework density 27.252009000000001
#
# number of rings (size 3 to 8) (size 9 to 14) (size 15 to 20)
#    0.000    1.000    0.000    6.000    0.000   16.000 
#    0.000    2.500    0.000    0.000    0.000    0.000 
#    0.000    0.000    0.000    0.000    0.000    0.000 
#
# Total GULP energy -89758.736338 kJ/mol
# GULP energy per Si atom -5609.921021 kJ/mol
# Density = 2.718998 g / cm^3
# Si number density = 27.252009 Si / 1000 Ang^3
#
#
#
# Elastic Constant Matrix: (Units=GPa)
#
#
# Indices 1 2 3 4 5 6 
#
# 1 69.9501 31.9169 19.1339 0.0000 0.0000 0.0000
# 2 31.9169 216.0624 37.2150 0.0000 0.0000 0.0000
# 3 19.1339 37.2150 119.4725 0.0000 0.0000 0.0000
# 4 0.0000 0.0000 0.0000 62.4185 0.0000 0.0000
# 5 0.0000 0.0000 0.0000 0.0000 17.8107 0.0000
# 6 0.0000 0.0000 0.0000 0.0000 0.0000 54.0901
#
#
#
# Elastic Compliance Matrix: (Units=1/GPa)
#
#
# Indices 1 2 3 4 5 6 
#
# 1 0.015726 -0.001996 -0.001897 0.000000 0.000000 0.000000
# 2 -0.001996 0.005144 -0.001283 0.000000 0.000000 0.000000
# 3 -0.001897 -0.001283 0.009073 0.000000 0.000000 0.000000
# 4 0.000000 0.000000 0.000000 0.016021 0.000000 0.000000
# 5 0.000000 0.000000 0.000000 0.000000 0.056146 0.000000
# 6 0.000000 0.000000 0.000000 0.000000 0.000000 0.018488
#
#
# Mechanical properties :
#
#
# Convention : Reuss Voigt Hill
#
# Bulk Modulus (GPa) = 51.04154 64.66851 57.85502
# Shear Modulus (GPa) = 36.36902 48.01182 42.19042
#
# Velocity S-wave (km/s) = 3.65711 4.20190 3.93893
# Velocity P-wave (km/s) = 6.05001 6.87914 6.47786
#
# Compressibility (1/GPa) = 0.01959189
#
# Stress axis : x y z
#
# Youngs Moduli (GPa) = 63.59063 194.39691 110.21198
#
# Poissons Ratio (x) = 0.38808 0.20903
# Poissons Ratio (y) = 0.12695 0.14136
# Poissons Ratio (z) = 0.12061 0.24934
#
# Static dielectric constant tensor:
#      x y z
#    x 2.143720 0.000000 0.000000 
#    y 0.000000 2.112540 0.000000 
#    z 0.000000 0.000000 2.078960 
# 
# From -- ./inp_files/5255.got.cif
#   From: 2010.05.17/outbox.cif.g08.bks.cpg/sg41_3_cif.got.tgz:5255.got - 2010.06.03 18:54:24.
