data_PCOD9367489
_publ_section_title
;
Structure prediction by ZEFSAII (Michael W. Deem and Ramdas Pophale) SiO2 
 PCOD9367489
Probable space group: A B A 2
;
_chemical_formula_sum "Si O2"
_cell_formula_units_Z 48
_cell_length_a 22.039869
_cell_length_b 11.685447
_cell_length_c 8.541715
_cell_angle_alpha 90.000000
_cell_angle_beta 90.000000
_cell_angle_gamma 90.000000
_cell_volume 2199.882149
_symmetry_space_group_name_H-M "A B A 2"
_symmetry_group_IT_number 41
_symmetry_cell_setting 'orthorhombic'
loop_
_space_group_symop_operation_xyz
x,y,z
-x,-y,z
1/2-x,y,1/2+z
1/2+x,-y,1/2+z
x,1/2+y,1/2+z
-x,1/2-y,1/2+z
1/2-x,1/2+y,z
1/2+x,1/2-y,z
loop_
_atom_site_type_symbol
_atom_site_label
_atom_site_fract_x
_atom_site_fract_y
_atom_site_fract_z
Si Si1 0.152898 0.909030 0.460840
Si Si2 0.873263 0.714796 0.632016
Si Si3 0.573182 0.492252 0.983256
Si Si4 0.063725 0.061946 0.629938
Si Si5 0.279196 0.625029 0.450066
Si Si6 0.161512 0.182919 0.118256
O O1 0.142554 0.841081 0.299861
O O2 0.102508 0.005522 0.491786
O O3 0.148662 0.816541 0.598266
O O4 0.212401 0.988093 0.470829
O O5 0.892484 0.608327 0.526839
O O6 0.818461 0.794088 0.567593
O O7 0.930674 0.801421 0.627197
O O8 0.500000 0.500000 0.001498
O O9 0.601888 0.392216 0.089639
O O10 0.587842 0.466169 0.802914
O O11 0.000000 0.000000 0.619283
O O12 0.209733 0.653617 0.481676
O O13 0.305110 0.653219 0.279129
#
# Coordination Sequence:
#
# PCOD9367489 Si02
#       6
#     8   8   8   8   8   8
#     4  11  24  44  68  99 136 175 229 283 346 407
#     4  11  23  46  66 100 141 173 233 286 341 416
#     4  11  25  45  69 101 142 186 231 286 347 414
#     4  10  24  42  68 100 135 185 229 280 344 410
#     4  11  27  44  69 101 132 182 224 288 354 412
#     4  12  25  45  71  99 136 179 229 286 352 415
#
# _framework density 21.819348999999999
#
# number of rings (size 3 to 8) (size 9 to 14) (size 15 to 20)
#    0.000    1.000    3.333    2.000    7.000    2.000 
#    0.000    0.000    0.000    0.000    0.000    0.000 
#    0.000    0.000    0.000    0.000    0.000    0.000 
#
# Total GULP energy -134090.300143 kJ/mol
# GULP energy per Si atom -5587.095839 kJ/mol
# Density = 2.176969 g / cm^3
# Si number density = 21.819349 Si / 1000 Ang^3
#
#
#
# Elastic Constant Matrix: (Units=GPa)
#
#
# Indices 1 2 3 4 5 6 
#
# 1 31.5812 -9.1293 16.4312 0.0000 0.0000 0.0000
# 2 -9.1293 126.2161 15.6198 0.0000 0.0000 0.0000
# 3 16.4312 15.6198 83.0165 0.0000 0.0000 0.0000
# 4 0.0000 0.0000 0.0000 37.2587 0.0000 0.0000
# 5 0.0000 0.0000 0.0000 0.0000 31.4212 0.0000
# 6 0.0000 0.0000 0.0000 0.0000 0.0000 10.8435
#
#
#
# Elastic Compliance Matrix: (Units=1/GPa)
#
#
# Indices 1 2 3 4 5 6 
#
# 1 0.036877 0.003656 -0.007987 0.000000 0.000000 0.000000
# 2 0.003656 0.008474 -0.002318 0.000000 0.000000 0.000000
# 3 -0.007987 -0.002318 0.014063 0.000000 0.000000 0.000000
# 4 0.000000 0.000000 0.000000 0.026839 0.000000 0.000000
# 5 0.000000 0.000000 0.000000 0.000000 0.031826 0.000000
# 6 0.000000 0.000000 0.000000 0.000000 0.000000 0.092221
#
#
# Mechanical properties :
#
#
# Convention : Reuss Voigt Hill
#
# Bulk Modulus (GPa) = 21.68469 31.85078 26.76773
# Shear Modulus (GPa) = 20.92315 30.43082 25.67699
#
# Velocity S-wave (km/s) = 3.10001 3.73858 3.43417
# Velocity P-wave (km/s) = 4.77214 5.76760 5.29332
#
# Compressibility (1/GPa) = 0.04611549
#
# Stress axis : x y z
#
# Youngs Moduli (GPa) = 27.11753 118.00518 71.11007
#
# Poissons Ratio (x) = -0.43139 0.56793
# Poissons Ratio (y) = -0.09913 0.16483
# Poissons Ratio (z) = 0.21658 0.27354
#
# Static dielectric constant tensor:
#      x y z
#    x 1.846800 0.000000 0.000000 
#    y 0.000000 1.807930 0.000000 
#    z 0.000000 0.000000 1.809830 
# 
# From -- ./inp_files/3601.got.cif
#   From: 2010.05.17/outbox.cif.g08.bks.cpg/sg41_2_cif.got.tgz:3601.got - 2010.06.03 18:54:24.
