data_PCOD9367125
_publ_section_title
;
Structure prediction by ZEFSAII (Michael W. Deem and Ramdas Pophale) SiO2 
 PCOD9367125
Probable space group: A B A 2
;
_chemical_formula_sum "Si O2"
_cell_formula_units_Z 60
_cell_length_a 8.233143
_cell_length_b 17.646967
_cell_length_c 18.592280
_cell_angle_alpha 90.000000
_cell_angle_beta 90.000000
_cell_angle_gamma 90.000000
_cell_volume 2701.272414
_symmetry_space_group_name_H-M "A B A 2"
_symmetry_group_IT_number 41
_symmetry_cell_setting 'orthorhombic'
loop_
_space_group_symop_operation_xyz
x,y,z
-x,-y,z
1/2-x,y,1/2+z
1/2+x,-y,1/2+z
x,1/2+y,1/2+z
-x,1/2-y,1/2+z
1/2-x,1/2+y,z
1/2+x,1/2-y,z
loop_
_atom_site_type_symbol
_atom_site_label
_atom_site_fract_x
_atom_site_fract_y
_atom_site_fract_z
Si Si1 0.260225 0.310292 0.551760
Si Si2 0.814667 0.013757 0.799082
Si Si3 0.982962 0.762758 0.807979
Si Si4 0.500000 0.000000 0.568140
Si Si5 0.655316 0.055488 0.138160
Si Si6 0.095955 0.654600 0.574816
Si Si7 0.252172 0.851400 0.389446
Si Si8 0.277433 0.144701 0.733954
O O1 0.372043 0.362701 0.602108
O O2 0.309028 0.223641 0.540191
O O3 0.254508 0.350088 0.474627
O O4 0.083502 0.312356 0.587684
O O5 0.828671 0.059506 0.723931
O O6 0.723460 0.065949 0.856042
O O7 0.732031 0.934901 0.775933
O O8 0.000000 0.000000 0.823838
O O9 0.868664 0.711210 0.857442
O O10 0.889790 0.811973 0.748729
O O11 0.076662 0.821064 0.859288
O O12 0.094968 0.702366 0.768024
O O13 0.335239 0.971830 0.610072
O O14 0.566823 0.923493 0.531443
O O15 0.500000 0.000000 0.123398
O O16 0.178772 0.633976 0.650721
#
# Coordination Sequence:
#
# PCOD9367125 Si02
#       8
#     8   8   8   4   8   8   8   8
#     4  11  26  44  68 103 141 193 232 295 366 441
#     4  11  23  42  69  99 138 185 235 303 362 423
#     4  10  24  40  67  99 133 181 232 296 345 430
#     4  10  22  42  64 108 138 176 234 298 362 422
#     4  10  24  43  68  98 141 183 238 303 361 422
#     4  11  24  41  71 101 140 182 236 296 358 428
#     4  11  24  46  65  99 144 183 239 281 363 438
#     4  11  22  41  70 104 133 179 237 303 357 414
#
# _framework density 22.211756000000001
#
# number of rings (size 3 to 8) (size 9 to 14) (size 15 to 20)
#    0.000    1.333    2.667    1.600    9.333    0.533 
#    7.200    0.000    0.000    0.000    0.000    0.000 
#    0.000    0.000    0.000    0.000    0.000    0.000 
#
# Total GULP energy -167557.410774 kJ/mol
# GULP energy per Si atom -5585.247026 kJ/mol
# Density = 2.216120 g / cm^3
# Si number density = 22.211756 Si / 1000 Ang^3
#
#
#
# Elastic Constant Matrix: (Units=GPa)
#
#
# Indices 1 2 3 4 5 6 
#
# 1 68.2848 28.5058 13.6161 0.0000 0.0000 0.0000
# 2 28.5058 165.4923 60.4810 0.0000 0.0000 0.0000
# 3 13.6161 60.4810 66.3119 0.0000 0.0000 0.0000
# 4 0.0000 0.0000 0.0000 32.1449 0.0000 0.0000
# 5 0.0000 0.0000 0.0000 0.0000 4.0666 0.0000
# 6 0.0000 0.0000 0.0000 0.0000 0.0000 53.3124
#
#
#
# Elastic Compliance Matrix: (Units=1/GPa)
#
#
# Indices 1 2 3 4 5 6 
#
# 1 0.015837 -0.002309 -0.001146 0.000000 0.000000 0.000000
# 2 -0.002309 0.009400 -0.008100 0.000000 0.000000 0.000000
# 3 -0.001146 -0.008100 0.022703 0.000000 0.000000 0.000000
# 4 0.000000 0.000000 0.000000 0.031109 0.000000 0.000000
# 5 0.000000 0.000000 0.000000 0.000000 0.245904 0.000000
# 6 0.000000 0.000000 0.000000 0.000000 0.000000 0.018757
#
#
# Mechanical properties :
#
#
# Convention : Reuss Voigt Hill
#
# Bulk Modulus (GPa) = 40.27194 56.14386 48.20790
# Shear Modulus (GPa) = 13.32988 31.07052 22.20020
#
# Velocity S-wave (km/s) = 2.45241 3.74415 3.16488
# Velocity P-wave (km/s) = 5.11755 6.63499 5.92505
#
# Compressibility (1/GPa) = 0.02483118
#
# Stress axis : x y z
#
# Youngs Moduli (GPa) = 63.14338 106.37773 44.04698
#
# Poissons Ratio (x) = 0.24564 0.05047
# Poissons Ratio (y) = 0.14581 0.35677
# Poissons Ratio (z) = 0.07235 0.86163
#
# Static dielectric constant tensor:
#      x y z
#    x 1.900970 0.000000 0.000000 
#    y 0.000000 1.850760 0.000000 
#    z 0.000000 0.000000 1.771410 
# 
# From -- ./inp_files/9771.got.cif
#   From: 2010.05.17/outbox.cif.g08.bks.cpg/sg41_5_cif.got.tgz:9771.got - 2010.06.03 18:54:24.
