data_PCOD9367256
_publ_section_title
;
Structure prediction by ZEFSAII (Michael W. Deem and Ramdas Pophale) SiO2 
 PCOD9367256
Probable space group: A B A 2
;
_chemical_formula_sum "Si O2"
_cell_formula_units_Z 48
_cell_length_a 15.779433
_cell_length_b 11.748682
_cell_length_c 10.993415
_cell_angle_alpha 90.000000
_cell_angle_beta 90.000000
_cell_angle_gamma 90.000000
_cell_volume 2038.042168
_symmetry_space_group_name_H-M "A B A 2"
_symmetry_group_IT_number 41
_symmetry_cell_setting 'orthorhombic'
loop_
_space_group_symop_operation_xyz
x,y,z
-x,-y,z
1/2-x,y,1/2+z
1/2+x,-y,1/2+z
x,1/2+y,1/2+z
-x,1/2-y,1/2+z
1/2-x,1/2+y,z
1/2+x,1/2-y,z
loop_
_atom_site_type_symbol
_atom_site_label
_atom_site_fract_x
_atom_site_fract_y
_atom_site_fract_z
Si Si1 0.150688 0.791088 0.077870
Si Si2 0.592993 0.769010 0.824854
Si Si3 0.846804 0.508262 0.733757
Si Si4 0.160669 0.340384 0.977671
Si Si5 0.589840 0.333710 0.809530
Si Si6 0.654493 0.053841 0.217773
O O1 0.146309 0.714804 0.198285
O O2 0.116291 0.913455 0.125532
O O3 0.099864 0.729509 0.970658
O O4 0.245279 0.813673 0.027770
O O5 0.610206 0.888680 0.761611
O O6 0.503371 0.715631 0.789230
O O7 0.661753 0.675390 0.783771
O O8 0.847214 0.580823 0.858846
O O9 0.746999 0.498095 0.704506
O O10 0.121632 0.220408 0.935764
O O11 0.118169 0.411660 0.086623
O O12 0.599289 0.468300 0.797780
#
# Coordination Sequence:
#
# PCOD9367256 Si02
#       6
#     8   8   8   8   8   8
#     4  10  23  45  69 101 135 184 244 285 350 436
#     4  12  25  45  67 105 144 182 231 298 366 418
#     4  10  23  44  69  97 132 188 238 290 343 434
#     4  10  22  45  72  97 134 190 236 293 345 424
#     4  11  26  44  70 104 147 183 233 297 369 427
#     4  11  24  42  69  99 137 179 241 286 348 427
#
# _framework density 23.552016999999999
#
# number of rings (size 3 to 8) (size 9 to 14) (size 15 to 20)
#    0.000    1.333    1.667    2.500    7.000    4.000 
#    6.000    0.000    0.000    0.000    0.000    0.000 
#    0.000    0.000    0.000    0.000    0.000    0.000 
#
# Total GULP energy -134148.994165 kJ/mol
# GULP energy per Si atom -5589.541424 kJ/mol
# Density = 2.349841 g / cm^3
# Si number density = 23.552017 Si / 1000 Ang^3
#
#
#
# Elastic Constant Matrix: (Units=GPa)
#
#
# Indices 1 2 3 4 5 6 
#
# 1 33.5274 -0.7063 10.6302 0.0000 0.0000 0.0000
# 2 -0.7063 112.5496 34.6508 0.0000 0.0000 0.0000
# 3 10.6302 34.6508 89.6089 0.0000 0.0000 0.0000
# 4 0.0000 0.0000 0.0000 42.8972 0.0000 0.0000
# 5 0.0000 0.0000 0.0000 0.0000 13.4811 0.0000
# 6 0.0000 0.0000 0.0000 0.0000 0.0000 31.3643
#
#
#
# Elastic Compliance Matrix: (Units=1/GPa)
#
#
# Indices 1 2 3 4 5 6 
#
# 1 0.031218 0.001517 -0.004290 0.000000 0.000000 0.000000
# 2 0.001517 0.010159 -0.004108 0.000000 0.000000 0.000000
# 3 -0.004290 -0.004108 0.013257 0.000000 0.000000 0.000000
# 4 0.000000 0.000000 0.000000 0.023312 0.000000 0.000000
# 5 0.000000 0.000000 0.000000 0.000000 0.074178 0.000000
# 6 0.000000 0.000000 0.000000 0.000000 0.000000 0.031883
#
#
# Mechanical properties :
#
#
# Convention : Reuss Voigt Hill
#
# Bulk Modulus (GPa) = 24.46682 36.09282 30.27982
# Shear Modulus (GPa) = 23.65238 30.28926 26.97082
#
# Velocity S-wave (km/s) = 3.17245 3.59006 3.38769
# Velocity P-wave (km/s) = 4.88162 5.70462 5.30909
#
# Compressibility (1/GPa) = 0.04087168
#
# Stress axis : x y z
#
# Youngs Moduli (GPa) = 32.03229 98.43143 75.43070
#
# Poissons Ratio (x) = -0.14928 0.32359
# Poissons Ratio (y) = -0.04858 0.30990
# Poissons Ratio (z) = 0.13742 0.40440
#
# Static dielectric constant tensor:
#      x y z
#    x 1.927390 0.000000 0.000000 
#    y 0.000000 1.909260 0.000000 
#    z 0.000000 0.000000 1.946530 
# 
# From -- ./inp_files/5920.got.cif
#   From: 2010.05.17/outbox.cif.g08.bks.cpg/sg41_3_cif.got.tgz:5920.got - 2010.06.03 18:54:24.
