data_PCOD9367269
_publ_section_title
;
Structure prediction by ZEFSAII (Michael W. Deem and Ramdas Pophale) SiO2 
 PCOD9367269
Probable space group: A B A 2
;
_chemical_formula_sum "Si O2"
_cell_formula_units_Z 60
_cell_length_a 17.920675
_cell_length_b 17.686826
_cell_length_c 8.192524
_cell_angle_alpha 90.000000
_cell_angle_beta 90.000000
_cell_angle_gamma 90.000000
_cell_volume 2596.701264
_symmetry_space_group_name_H-M "A B A 2"
_symmetry_group_IT_number 41
_symmetry_cell_setting 'orthorhombic'
loop_
_space_group_symop_operation_xyz
x,y,z
-x,-y,z
1/2-x,y,1/2+z
1/2+x,-y,1/2+z
x,1/2+y,1/2+z
-x,1/2-y,1/2+z
1/2-x,1/2+y,z
1/2+x,1/2-y,z
loop_
_atom_site_type_symbol
_atom_site_label
_atom_site_fract_x
_atom_site_fract_y
_atom_site_fract_z
Si Si1 0.500000 0.500000 0.573170
Si Si2 0.458146 0.293658 0.342354
Si Si3 0.122251 0.575429 0.257442
Si Si4 0.227579 0.438288 0.176252
Si Si5 0.849272 0.301630 0.510728
Si Si6 0.364697 0.441897 0.354190
Si Si7 0.786133 0.730205 0.319965
Si Si8 0.099442 0.704013 0.039605
O O1 0.463348 0.559897 0.699728
O O2 0.430421 0.484840 0.452123
O O3 0.422769 0.249354 0.496014
O O4 0.407766 0.366020 0.307828
O O5 0.540682 0.316511 0.397754
O O6 0.445439 0.237102 0.193235
O O7 0.170532 0.499356 0.253390
O O8 0.132660 0.618177 0.428808
O O9 0.146019 0.633487 0.111788
O O10 0.312687 0.466374 0.203250
O O11 0.218658 0.352664 0.242817
O O12 0.199744 0.432587 0.990650
O O13 0.815178 0.291490 0.688322
O O14 0.791227 0.259791 0.390188
O O15 0.844960 0.733905 0.467355
#
# Coordination Sequence:
#
# PCOD9367269 Si02
#       8
#     4   8   8   8   8   8   8   8
#     4  10  22  46  72  98 146 198 236 300 380 434
#     4  11  21  40  66 102 136 182 242 292 361 427
#     4  10  24  44  69 102 141 191 237 298 365 437
#     4  11  24  42  72 102 141 191 237 299 365 436
#     4  11  23  40  68 104 139 181 241 301 356 432
#     4  11  23  42  71 101 139 188 239 297 359 437
#     4  12  23  43  69 104 143 188 242 305 361 434
#     4  11  25  41  73 102 143 191 239 304 364 436
#
# _framework density 23.106238000000001
#
# number of rings (size 3 to 8) (size 9 to 14) (size 15 to 20)
#    0.000    1.067    4.000    2.400    1.867    5.333 
#    0.000    0.000    2.933    1.600    0.000    0.000 
#    0.000    0.000    0.000    0.000    0.000    0.000 
#
# Total GULP energy -167430.393491 kJ/mol
# GULP energy per Si atom -5581.013116 kJ/mol
# Density = 2.305365 g / cm^3
# Si number density = 23.106238 Si / 1000 Ang^3
#
#
#
# Elastic Constant Matrix: (Units=GPa)
#
#
# Indices 1 2 3 4 5 6 
#
# 1 123.7582 24.7886 33.8668 0.0000 0.0000 0.0000
# 2 24.7886 65.8577 26.8492 0.0000 0.0000 0.0000
# 3 33.8668 26.8492 63.1715 0.0000 0.0000 0.0000
# 4 0.0000 0.0000 0.0000 20.7140 0.0000 0.0000
# 5 0.0000 0.0000 0.0000 0.0000 47.3112 0.0000
# 6 0.0000 0.0000 0.0000 0.0000 0.0000 22.9301
#
#
#
# Elastic Compliance Matrix: (Units=1/GPa)
#
#
# Indices 1 2 3 4 5 6 
#
# 1 0.009651 -0.001842 -0.004391 0.000000 0.000000 0.000000
# 2 -0.001842 0.018719 -0.006968 0.000000 0.000000 0.000000
# 3 -0.004391 -0.006968 0.021145 0.000000 0.000000 0.000000
# 4 0.000000 0.000000 0.000000 0.048277 0.000000 0.000000
# 5 0.000000 0.000000 0.000000 0.000000 0.021137 0.000000
# 6 0.000000 0.000000 0.000000 0.000000 0.000000 0.043611
#
#
# Mechanical properties :
#
#
# Convention : Reuss Voigt Hill
#
# Bulk Modulus (GPa) = 43.26713 47.08849 45.17781
# Shear Modulus (GPa) = 25.42648 29.34325 27.38487
#
# Velocity S-wave (km/s) = 3.32085 3.56747 3.44637
# Velocity P-wave (km/s) = 5.78533 6.11494 5.95242
#
# Compressibility (1/GPa) = 0.02311223
#
# Stress axis : x y z
#
# Youngs Moduli (GPa) = 103.61750 53.42308 47.29164
#
# Poissons Ratio (x) = 0.09843 0.20765
# Poissons Ratio (y) = 0.19091 0.32953
# Poissons Ratio (z) = 0.45497 0.37225
#
# Static dielectric constant tensor:
#      x y z
#    x 1.915360 0.000000 0.000000 
#    y 0.000000 1.900750 0.000000 
#    z 0.000000 0.000000 1.897190 
# 
# From -- ./inp_files/3174.got.cif
#   From: 2010.05.17/outbox.cif.g08.bks.cpg/sg41_2_cif.got.tgz:3174.got - 2010.06.03 18:54:24.
