data_PCOD9367598
_publ_section_title
;
Structure prediction by ZEFSAII (Michael W. Deem and Ramdas Pophale) SiO2 
 PCOD9367598
Probable space group: A B A 2
;
_chemical_formula_sum "Si O2"
_cell_formula_units_Z 36
_cell_length_a 23.134453
_cell_length_b 12.832230
_cell_length_c 5.233439
_cell_angle_alpha 90.000000
_cell_angle_beta 90.000000
_cell_angle_gamma 90.000000
_cell_volume 1553.633356
_symmetry_space_group_name_H-M "A B A 2"
_symmetry_group_IT_number 41
_symmetry_cell_setting 'orthorhombic'
loop_
_space_group_symop_operation_xyz
x,y,z
-x,-y,z
1/2-x,y,1/2+z
1/2+x,-y,1/2+z
x,1/2+y,1/2+z
-x,1/2-y,1/2+z
1/2-x,1/2+y,z
1/2+x,1/2-y,z
loop_
_atom_site_type_symbol
_atom_site_label
_atom_site_fract_x
_atom_site_fract_y
_atom_site_fract_z
Si Si1 0.286037 0.513698 0.919190
Si Si2 0.605201 0.107070 0.227886
Si Si3 0.071527 0.683730 0.936801
Si Si4 0.500000 0.500000 0.478164
Si Si5 0.139810 0.198768 0.954600
O O1 0.244391 0.489034 0.683912
O O2 0.345673 0.450149 0.887598
O O3 0.302362 0.636552 0.892958
O O4 0.566775 0.193617 0.374539
O O5 0.559502 0.025913 0.120606
O O6 0.637949 0.178104 0.015127
O O7 0.016853 0.612697 0.865163
O O8 0.095286 0.679408 0.223976
O O9 0.119450 0.650743 0.726917
#
# Coordination Sequence:
#
# PCOD9367598 Si02
#       5
#     8   8   8   4   8
#     4  12  27  47  79 108 146 199 251 308 367 437
#     4  10  28  46  77 109 154 189 254 298 379 439
#     4  10  25  45  74 105 148 194 236 301 365 441
#     4  12  24  50  78 114 152 200 236 310 370 456
#     4  10  24  49  69 106 148 188 249 301 362 435
#
# _framework density 23.171486999999999
#
# number of rings (size 3 to 8) (size 9 to 14) (size 15 to 20)
#    1.333    0.000    2.222    1.333    6.222    2.667 
#    0.000    0.000    0.000    0.000    0.000    0.000 
#    0.000    0.000    0.000    0.000    0.000    0.000 
#
# Total GULP energy -100311.906551 kJ/mol
# GULP energy per Si atom -5572.883697 kJ/mol
# Density = 2.311875 g / cm^3
# Si number density = 23.171487 Si / 1000 Ang^3
#
#
#
# Elastic Constant Matrix: (Units=GPa)
#
#
# Indices 1 2 3 4 5 6 
#
# 1 68.0814 26.8829 19.9568 0.0000 0.0000 0.0000
# 2 26.8829 101.6295 21.2034 0.0000 0.0000 0.0000
# 3 19.9568 21.2034 87.8972 0.0000 0.0000 0.0000
# 4 0.0000 0.0000 0.0000 18.7471 0.0000 0.0000
# 5 0.0000 0.0000 0.0000 0.0000 26.4542 0.0000
# 6 0.0000 0.0000 0.0000 0.0000 0.0000 41.6463
#
#
#
# Elastic Compliance Matrix: (Units=1/GPa)
#
#
# Indices 1 2 3 4 5 6 
#
# 1 0.017093 -0.003908 -0.002938 0.000000 0.000000 0.000000
# 2 -0.003908 0.011255 -0.001828 0.000000 0.000000 0.000000
# 3 -0.002938 -0.001828 0.012485 0.000000 0.000000 0.000000
# 4 0.000000 0.000000 0.000000 0.053341 0.000000 0.000000
# 5 0.000000 0.000000 0.000000 0.000000 0.037801 0.000000
# 6 0.000000 0.000000 0.000000 0.000000 0.000000 0.024012
#
#
# Mechanical properties :
#
#
# Convention : Reuss Voigt Hill
#
# Bulk Modulus (GPa) = 42.58144 43.74381 43.16263
# Shear Modulus (GPa) = 27.59945 30.00721 28.80333
#
# Velocity S-wave (km/s) = 3.45497 3.60252 3.52952
# Velocity P-wave (km/s) = 5.85938 6.01860 5.93952
#
# Compressibility (1/GPa) = 0.02348441
#
# Stress axis : x y z
#
# Youngs Moduli (GPa) = 58.50406 88.85094 80.09700
#
# Poissons Ratio (x) = 0.34727 0.23533
# Poissons Ratio (y) = 0.22866 0.14639
# Poissons Ratio (z) = 0.17189 0.16238
#
# Static dielectric constant tensor:
#      x y z
#    x 1.856800 0.000000 0.000000 
#    y 0.000000 1.952710 0.000000 
#    z 0.000000 0.000000 1.882930 
# 
# From -- ./inp_files/897.got.cif
#   From: 2010.05.17/outbox.cif.g08.bks.cpg/sg41_1_cif.got.tgz:897.got - 2010.06.03 18:54:24.
