data_PCOD9367919
_publ_section_title
;
Structure prediction by ZEFSAII (Michael W. Deem and Ramdas Pophale) SiO2 
 PCOD9367919
Probable space group: A B A 2
;
_chemical_formula_sum "Si O2"
_cell_formula_units_Z 40
_cell_length_a 9.436481
_cell_length_b 14.397295
_cell_length_c 13.326262
_cell_angle_alpha 90.000000
_cell_angle_beta 90.000000
_cell_angle_gamma 90.000000
_cell_volume 1810.503300
_symmetry_space_group_name_H-M "A B A 2"
_symmetry_group_IT_number 41
_symmetry_cell_setting 'orthorhombic'
loop_
_space_group_symop_operation_xyz
x,y,z
-x,-y,z
1/2-x,y,1/2+z
1/2+x,-y,1/2+z
x,1/2+y,1/2+z
-x,1/2-y,1/2+z
1/2-x,1/2+y,z
1/2+x,1/2-y,z
loop_
_atom_site_type_symbol
_atom_site_label
_atom_site_fract_x
_atom_site_fract_y
_atom_site_fract_z
Si Si1 0.486322 0.250000 0.415480
Si Si2 0.580324 0.406072 0.562820
Si Si3 0.080324 0.406072 0.268139
Si Si4 0.150231 0.828390 0.219651
Si Si5 0.150230 0.171610 0.111309
O O1 0.570030 0.330436 0.474755
O O2 0.999999 0.345724 0.665481
O O3 0.391852 0.293618 0.329025
O O4 0.391854 0.206383 0.501937
O O5 0.500000 0.500000 0.532804
O O6 0.500000 0.374955 0.665480
O O7 0.743632 0.414294 0.594518
O O8 0.070028 0.330436 0.356204
O O9 0.000000 0.500000 0.298155
O O10 0.243631 0.414294 0.236441
O O11 0.250000 0.750000 0.165480
#
# Coordination Sequence:
#
# PCOD9367919 Si02
#       5
#     8   8   8   8   8
#     4  12  22  42  82 102 154 200 250 296 392 434
#     4  11  25  47  72 108 156 193 247 315 366 442
#     4  11  25  47  72 108 156 193 247 315 366 442
#     4  12  23  43  73 110 143 202 242 303 375 451
#     4  12  23  43  73 110 143 202 242 303 375 451
#
# _framework density 22.093305999999998
#
# number of rings (size 3 to 8) (size 9 to 14) (size 15 to 20)
#    0.000    0.400    8.000    1.200    0.000    1.600 
#    0.000    8.000    0.000    3.600    0.000    0.000 
#    0.000    0.000    0.000    0.000    0.000    0.000 
#
# Total GULP energy -111634.142177 kJ/mol
# GULP energy per Si atom -5581.707109 kJ/mol
# Density = 2.204302 g / cm^3
# Si number density = 22.093306 Si / 1000 Ang^3
#
#
#
# Elastic Constant Matrix: (Units=GPa)
#
#
# Indices 1 2 3 4 5 6 
#
# 1 225.0913 72.1650 63.0511 0.0000 0.0000 0.0000
# 2 72.1650 122.0037 45.5501 0.0000 0.0000 0.0000
# 3 63.0511 45.5501 167.8570 0.0000 0.0000 0.0000
# 4 0.0000 0.0000 0.0000 42.1287 0.0000 0.0000
# 5 0.0000 0.0000 0.0000 0.0000 36.5620 0.0000
# 6 0.0000 0.0000 0.0000 0.0000 0.0000 20.7257
#
#
#
# Elastic Compliance Matrix: (Units=1/GPa)
#
#
# Indices 1 2 3 4 5 6 
#
# 1 0.005755 -0.002890 -0.001378 0.000000 0.000000 0.000000
# 2 -0.002890 0.010572 -0.001783 0.000000 0.000000 0.000000
# 3 -0.001378 -0.001783 0.006959 0.000000 0.000000 0.000000
# 4 0.000000 0.000000 0.000000 0.023737 0.000000 0.000000
# 5 0.000000 0.000000 0.000000 0.000000 0.027351 0.000000
# 6 0.000000 0.000000 0.000000 0.000000 0.000000 0.048249
#
#
# Mechanical properties :
#
#
# Convention : Reuss Voigt Hill
#
# Bulk Modulus (GPa) = 89.41175 97.38716 93.39946
# Shear Modulus (GPa) = 36.11380 42.16233 39.13806
#
# Velocity S-wave (km/s) = 4.04741 4.37324 4.21347
# Velocity P-wave (km/s) = 7.89936 8.34721 8.12637
#
# Compressibility (1/GPa) = 0.01118421
#
# Stress axis : x y z
#
# Youngs Moduli (GPa) = 173.76279 94.59357 143.70296
#
# Poissons Ratio (x) = 0.27335 0.19796
# Poissons Ratio (y) = 0.50213 0.25626
# Poissons Ratio (z) = 0.23936 0.16869
#
# Static dielectric constant tensor:
#      x y z
#    x 1.861470 0.000000 0.000000 
#    y 0.000000 1.940230 0.000000 
#    z 0.000000 0.000000 1.798850 
# 
# From -- ./inp_files/4375.got.cif
#   From: 2010.05.17/outbox.cif.g08.bks.cpg/sg41_3_cif.got.tgz:4375.got - 2010.06.03 18:54:24.
