data_PCOD9367766
_publ_section_title
;
Structure prediction by ZEFSAII (Michael W. Deem and Ramdas Pophale) SiO2 
 PCOD9367766
Probable space group: A B A 2
;
_chemical_formula_sum "Si O2"
_cell_formula_units_Z 64
_cell_length_a 30.115409
_cell_length_b 9.965856
_cell_length_c 10.572721
_cell_angle_alpha 90.000000
_cell_angle_beta 90.000000
_cell_angle_gamma 90.000000
_cell_volume 3173.146660
_symmetry_space_group_name_H-M "A B A 2"
_symmetry_group_IT_number 41
_symmetry_cell_setting 'orthorhombic'
loop_
_space_group_symop_operation_xyz
x,y,z
-x,-y,z
1/2-x,y,1/2+z
1/2+x,-y,1/2+z
x,1/2+y,1/2+z
-x,1/2-y,1/2+z
1/2-x,1/2+y,z
1/2+x,1/2-y,z
loop_
_atom_site_type_symbol
_atom_site_label
_atom_site_fract_x
_atom_site_fract_y
_atom_site_fract_z
Si Si1 0.663119 0.655169 0.670660
Si Si2 0.302120 0.458603 0.412129
Si Si3 0.125904 0.879735 0.200937
Si Si4 0.115643 0.127256 0.031273
Si Si5 0.742202 0.782161 0.823045
Si Si6 0.512920 0.847843 0.459984
Si Si7 0.477160 0.355343 0.236979
Si Si8 0.663321 0.881098 0.273808
O O1 0.675005 0.576105 0.543104
O O2 0.627059 0.767683 0.641594
O O3 0.706723 0.728731 0.722796
O O4 0.649013 0.534435 0.761087
O O5 0.337820 0.439093 0.299054
O O6 0.263429 0.347981 0.389825
O O7 0.282109 0.607583 0.408930
O O8 0.075728 0.874433 0.252248
O O9 0.140533 0.725756 0.180742
O O10 0.124712 0.978119 0.081698
O O11 0.065267 0.146616 0.990405
O O12 0.147987 0.160080 0.914672
O O13 0.784005 0.861045 0.762931
O O14 0.505799 0.747136 0.343554
O O15 0.487985 0.811757 0.591904
O O16 0.500000 0.000000 0.425748
O O17 0.500000 0.500000 0.251797
#
# Coordination Sequence:
#
# PCOD9367766 Si02
#       8
#     8   8   8   8   8   8   8   8
#     4  12  25  42  68  96 132 179 227 281 333 402
#     4  11  24  41  66  94 135 175 226 282 331 396
#     4  11  22  47  68  94 140 177 214 287 340 395
#     4  12  23  47  70  93 143 175 218 285 340 399
#     4  11  23  40  61  96 129 175 226 271 333 389
#     4  11  24  45  73 105 139 180 224 281 347 418
#     4  11  23  46  72 104 137 178 228 277 349 416
#     4  11  26  42  64 101 131 177 226 276 335 400
#
# _framework density 20.169253000000001
#
# number of rings (size 3 to 8) (size 9 to 14) (size 15 to 20)
#    0.000    0.750    8.750    0.000    1.750    4.500 
#    4.500    0.000    0.000    0.000    0.000    0.000 
#    0.000    0.000    0.000    0.000    0.000    0.000 
#
# Total GULP energy -178744.254097 kJ/mol
# GULP energy per Si atom -5585.757941 kJ/mol
# Density = 2.012335 g / cm^3
# Si number density = 20.169253 Si / 1000 Ang^3
#
#
#
# Elastic Constant Matrix: (Units=GPa)
#
#
# Indices 1 2 3 4 5 6 
#
# 1 66.9912 22.7676 -7.6072 0.0000 0.0000 0.0000
# 2 22.7676 110.5979 35.3113 0.0000 0.0000 0.0000
# 3 -7.6072 35.3113 57.2223 0.0000 0.0000 0.0000
# 4 0.0000 0.0000 0.0000 28.2221 0.0000 0.0000
# 5 0.0000 0.0000 0.0000 0.0000 2.9210 0.0000
# 6 0.0000 0.0000 0.0000 0.0000 0.0000 26.0815
#
#
#
# Elastic Compliance Matrix: (Units=1/GPa)
#
#
# Indices 1 2 3 4 5 6 
#
# 1 0.017395 -0.005379 0.005632 0.000000 0.000000 0.000000
# 2 -0.005379 0.012924 -0.008690 0.000000 0.000000 0.000000
# 3 0.005632 -0.008690 0.023587 0.000000 0.000000 0.000000
# 4 0.000000 0.000000 0.000000 0.035433 0.000000 0.000000
# 5 0.000000 0.000000 0.000000 0.000000 0.342345 0.000000
# 6 0.000000 0.000000 0.000000 0.000000 0.000000 0.038341
#
#
# Mechanical properties :
#
#
# Convention : Reuss Voigt Hill
#
# Bulk Modulus (GPa) = 27.00440 37.30609 32.15524
# Shear Modulus (GPa) = 10.01516 23.73424 16.87470
#
# Velocity S-wave (km/s) = 2.23077 3.43411 2.89564
# Velocity P-wave (km/s) = 4.47807 5.85327 5.21123
#
# Compressibility (1/GPa) = 0.03703101
#
# Stress axis : x y z
#
# Youngs Moduli (GPa) = 57.48787 77.37756 42.39618
#
# Poissons Ratio (x) = 0.41622 -0.23877
# Poissons Ratio (y) = 0.30923 0.36843
# Poissons Ratio (z) = -0.32376 0.67242
#
# Static dielectric constant tensor:
#      x y z
#    x 1.690290 0.000000 0.000000 
#    y 0.000000 1.738730 0.000000 
#    z 0.000000 0.000000 1.714050 
# 
# From -- ./inp_files/6656.got.cif
#   From: 2010.05.17/outbox.cif.g08.bks.cpg/sg41_4_cif.got.tgz:6656.got - 2010.06.03 18:54:24.
