data_PCOD9367942
_publ_section_title
;
Structure prediction by ZEFSAII (Michael W. Deem and Ramdas Pophale) SiO2 
 PCOD9367942
Probable space group: A B A 2
;
_chemical_formula_sum "Si O2"
_cell_formula_units_Z 32
_cell_length_a 10.011984
_cell_length_b 16.731162
_cell_length_c 7.602643
_cell_angle_alpha 90.000000
_cell_angle_beta 90.000000
_cell_angle_gamma 90.000000
_cell_volume 1273.534894
_symmetry_space_group_name_H-M "A B A 2"
_symmetry_group_IT_number 41
_symmetry_cell_setting 'orthorhombic'
loop_
_space_group_symop_operation_xyz
x,y,z
-x,-y,z
1/2-x,y,1/2+z
1/2+x,-y,1/2+z
x,1/2+y,1/2+z
-x,1/2-y,1/2+z
1/2-x,1/2+y,z
1/2+x,1/2-y,z
loop_
_atom_site_type_symbol
_atom_site_label
_atom_site_fract_x
_atom_site_fract_y
_atom_site_fract_z
Si Si1 0.652742 0.173420 0.936390
Si Si2 0.089077 0.573027 0.335417
Si Si3 0.635932 0.489837 0.455625
Si Si4 0.438823 0.789901 0.543520
O O1 0.597451 0.178597 0.737707
O O2 0.682484 0.081275 0.989088
O O3 0.793246 0.220156 0.954244
O O4 0.536889 0.213984 0.051816
O O5 0.243339 0.558994 0.377844
O O6 0.000000 0.500000 0.405653
O O7 0.089963 0.559626 0.126133
O O8 0.025410 0.649373 0.425584
O O9 0.500000 0.500000 0.344443
#
# Coordination Sequence:
#
# PCOD9367942 Si02
#       4
#     8   8   8   8
#     4  12  28  51  78 116 155 208 254 328 385 472
#     4  11  26  47  76 108 152 198 256 315 387 451
#     4  11  27  45  77 108 156 191 260 312 387 455
#     4  12  29  48  83 112 161 202 264 316 399 458
#
# _framework density 25.126911
#
# number of rings (size 3 to 8) (size 9 to 14) (size 15 to 20)
#    0.000    0.500    2.500    3.000   17.500    0.000 
#    0.000    0.000    0.000    0.000    0.000    0.000 
#    0.000    0.000    0.000    0.000    0.000    0.000 
#
# Total GULP energy -89555.281969 kJ/mol
# GULP energy per Si atom -5597.205123 kJ/mol
# Density = 2.506972 g / cm^3
# Si number density = 25.126911 Si / 1000 Ang^3
#
#
#
# Elastic Constant Matrix: (Units=GPa)
#
#
# Indices 1 2 3 4 5 6 
#
# 1 211.7350 33.2768 28.7872 0.0000 0.0000 0.0000
# 2 33.2768 113.4435 27.0987 0.0000 0.0000 0.0000
# 3 28.7872 27.0987 103.0398 0.0000 0.0000 0.0000
# 4 0.0000 0.0000 0.0000 26.2234 0.0000 0.0000
# 5 0.0000 0.0000 0.0000 0.0000 45.1728 0.0000
# 6 0.0000 0.0000 0.0000 0.0000 0.0000 53.0481
#
#
#
# Elastic Compliance Matrix: (Units=1/GPa)
#
#
# Indices 1 2 3 4 5 6 
#
# 1 0.005064 -0.001224 -0.001093 0.000000 0.000000 0.000000
# 2 -0.001224 0.009702 -0.002209 0.000000 0.000000 0.000000
# 3 -0.001093 -0.002209 0.010591 0.000000 0.000000 0.000000
# 4 0.000000 0.000000 0.000000 0.038134 0.000000 0.000000
# 5 0.000000 0.000000 0.000000 0.000000 0.022137 0.000000
# 6 0.000000 0.000000 0.000000 0.000000 0.000000 0.018851
#
#
# Mechanical properties :
#
#
# Convention : Reuss Voigt Hill
#
# Bulk Modulus (GPa) = 61.33478 67.39375 64.36426
# Shear Modulus (GPa) = 42.02849 47.49254 44.76052
#
# Velocity S-wave (km/s) = 4.09424 4.35225 4.22522
# Velocity P-wave (km/s) = 6.84203 7.22051 7.03381
#
# Compressibility (1/GPa) = 0.01630396
#
# Stress axis : x y z
#
# Youngs Moduli (GPa) = 197.47707 103.07263 94.41669
#
# Poissons Ratio (x) = 0.12620 0.10317
# Poissons Ratio (y) = 0.24179 0.20861
# Poissons Ratio (z) = 0.21579 0.22773
#
# Static dielectric constant tensor:
#      x y z
#    x 2.066350 0.000000 0.000000 
#    y 0.000000 2.058740 0.000000 
#    z 0.000000 0.000000 2.001980 
# 
# From -- ./inp_files/1640.got.cif
#   From: 2010.05.17/outbox.cif.g08.bks.cpg/sg41_1_cif.got.tgz:1640.got - 2010.06.03 18:54:24.
