data_PCOD9367976
_publ_section_title
;
Structure prediction by ZEFSAII (Michael W. Deem and Ramdas Pophale) SiO2 
 PCOD9367976
Probable space group: A B A 2
;
_chemical_formula_sum "Si O2"
_cell_formula_units_Z 64
_cell_length_a 19.338281
_cell_length_b 17.359399
_cell_length_c 9.699727
_cell_angle_alpha 90.000000
_cell_angle_beta 90.000000
_cell_angle_gamma 90.000000
_cell_volume 3256.207431
_symmetry_space_group_name_H-M "A B A 2"
_symmetry_group_IT_number 41
_symmetry_cell_setting 'orthorhombic'
loop_
_space_group_symop_operation_xyz
x,y,z
-x,-y,z
1/2-x,y,1/2+z
1/2+x,-y,1/2+z
x,1/2+y,1/2+z
-x,1/2-y,1/2+z
1/2-x,1/2+y,z
1/2+x,1/2-y,z
loop_
_atom_site_type_symbol
_atom_site_label
_atom_site_fract_x
_atom_site_fract_y
_atom_site_fract_z
Si Si1 0.719559 0.516929 0.096660
Si Si2 0.203956 0.723251 0.282525
Si Si3 0.078766 0.498641 0.453453
Si Si4 0.216096 0.817186 0.563427
Si Si5 0.575300 0.982942 0.980055
Si Si6 0.587033 0.619935 0.699970
Si Si7 0.066955 0.633742 0.236077
Si Si8 0.785595 0.930878 0.359263
O O1 0.751778 0.597550 0.051461
O O2 0.739338 0.495973 0.251872
O O3 0.638069 0.512035 0.065840
O O4 0.752636 0.449506 0.005801
O O5 0.202543 0.778710 0.415913
O O6 0.230446 0.766592 0.148469
O O7 0.126865 0.695165 0.248369
O O8 0.256004 0.651213 0.311811
O O9 0.092484 0.432962 0.336826
O O10 0.081103 0.577794 0.366345
O O11 0.000000 0.500000 0.506777
O O12 0.148745 0.823291 0.662224
O O13 0.633370 0.950139 0.878375
O O14 0.500000 0.000000 0.916745
O O15 0.572699 0.919354 0.100806
O O16 0.589525 0.061097 0.068391
O O17 0.512700 0.660074 0.724073
#
# Coordination Sequence:
#
# PCOD9367976 Si02
#       8
#     8   8   8   8   8   8   8   8
#     4  12  23  39  66  92 121 163 214 258 309 375
#     4  12  25  40  61  94 132 166 210 263 319 379
#     4   9  18  35  63  94 119 154 210 267 309 370
#     4  12  25  40  61  94 132 166 210 263 319 379
#     4   9  18  35  63  94 119 154 210 267 309 370
#     4   9  18  37  63  88 120 166 208 249 320 386
#     4   9  18  37  63  88 120 166 208 249 320 386
#     4  12  23  39  66  92 121 163 214 258 309 375
#
# _framework density 19.654769000000002
#
# number of rings (size 3 to 8) (size 9 to 14) (size 15 to 20)
#    0.000    1.500    2.500    6.000    0.000    0.500 
#    0.000    6.250    0.000    0.000    0.000    0.000 
#    0.000    0.000    0.000    0.000    0.000    0.000 
#
# Total GULP energy -178454.053850 kJ/mol
# GULP energy per Si atom -5576.689183 kJ/mol
# Density = 1.961003 g / cm^3
# Si number density = 19.654769 Si / 1000 Ang^3
#
#
#
# Elastic Constant Matrix: (Units=GPa)
#
#
# Indices 1 2 3 4 5 6 
#
# 1 95.6508 1.5396 9.8613 0.0000 0.0000 0.0000
# 2 1.5396 33.7300 -5.9912 0.0000 0.0000 0.0000
# 3 9.8613 -5.9912 22.4381 0.0000 0.0000 0.0000
# 4 0.0000 0.0000 0.0000 16.1288 0.0000 0.0000
# 5 0.0000 0.0000 0.0000 0.0000 21.0289 0.0000
# 6 0.0000 0.0000 0.0000 0.0000 0.0000 36.4561
#
#
#
# Elastic Compliance Matrix: (Units=1/GPa)
#
#
# Indices 1 2 3 4 5 6 
#
# 1 0.011016 -0.001431 -0.005224 0.000000 0.000000 0.000000
# 2 -0.001431 0.031309 0.008989 0.000000 0.000000 0.000000
# 3 -0.005224 0.008989 0.049263 0.000000 0.000000 0.000000
# 4 0.000000 0.000000 0.000000 0.062001 0.000000 0.000000
# 5 0.000000 0.000000 0.000000 0.000000 0.047554 0.000000
# 6 0.000000 0.000000 0.000000 0.000000 0.000000 0.027430
#
#
# Mechanical properties :
#
#
# Convention : Reuss Voigt Hill
#
# Bulk Modulus (GPa) = 10.38886 18.07093 14.22989
# Shear Modulus (GPa) = 19.53206 24.48339 22.00772
#
# Velocity S-wave (km/s) = 3.15581 3.53324 3.34984
# Velocity P-wave (km/s) = 4.30999 5.08519 4.71355
#
# Compressibility (1/GPa) = 0.09625697
#
# Stress axis : x y z
#
# Youngs Moduli (GPa) = 90.77500 31.93962 20.29930
#
# Poissons Ratio (x) = 0.04569 0.10603
# Poissons Ratio (y) = 0.12987 -0.18246
# Poissons Ratio (z) = 0.47417 -0.28709
#
# Static dielectric constant tensor:
#      x y z
#    x 1.879710 0.000000 0.000000 
#    y 0.000000 1.680350 0.000000 
#    z 0.000000 0.000000 1.666980 
# 
# From -- ./inp_files/3503.got.cif
#   From: 2010.05.17/outbox.cif.g08.bks.cpg/sg41_2_cif.got.tgz:3503.got - 2010.06.03 18:54:24.
