data_PCOD9367536
_publ_section_title
;
Structure prediction by ZEFSAII (Michael W. Deem and Ramdas Pophale) SiO2 
 PCOD9367536
Probable space group: A B A 2
;
_chemical_formula_sum "Si O2"
_cell_formula_units_Z 40
_cell_length_a 19.403845
_cell_length_b 8.961694
_cell_length_c 9.832020
_cell_angle_alpha 90.000000
_cell_angle_beta 90.000000
_cell_angle_gamma 90.000000
_cell_volume 1709.702949
_symmetry_space_group_name_H-M "A B A 2"
_symmetry_group_IT_number 41
_symmetry_cell_setting 'orthorhombic'
loop_
_space_group_symop_operation_xyz
x,y,z
-x,-y,z
1/2-x,y,1/2+z
1/2+x,-y,1/2+z
x,1/2+y,1/2+z
-x,1/2-y,1/2+z
1/2-x,1/2+y,z
1/2+x,1/2-y,z
loop_
_atom_site_type_symbol
_atom_site_label
_atom_site_fract_x
_atom_site_fract_y
_atom_site_fract_z
Si Si1 0.500000 0.500000 0.418190
Si Si2 0.903358 0.255002 0.951492
Si Si3 0.903358 0.755002 0.855878
Si Si4 0.795414 0.135880 0.153685
Si Si5 0.345972 0.705830 0.153685
Si Si6 0.000000 0.500000 0.389179
O O1 0.557188 0.403946 0.496900
O O2 0.543886 0.619351 0.333682
O O3 0.889201 0.274055 0.791126
O O4 0.956114 0.119351 0.973688
O O5 0.833112 0.214032 0.025949
O O6 0.833112 0.714032 0.781421
O O7 0.942812 0.903946 0.810470
O O8 0.889201 0.774055 0.016244
O O9 0.715445 0.173730 0.153685
O O10 0.812495 0.960204 0.153685
#
# Coordination Sequence:
#
# PCOD9367536 Si02
#       6
#     4   8   8   8   8   4
#     4  10  24  44  72 106 136 182 222 286 342 414
#     4  11  25  46  74 102 139 179 230 280 348 403
#     4  11  25  46  74 102 139 179 230 280 348 403
#     4  12  28  47  70 102 140 181 233 284 335 408
#     4  12  28  47  70 102 140 181 233 284 335 408
#     4  10  24  44  72 106 136 182 222 286 342 414
#
# _framework density 23.395876000000001
#
# number of rings (size 3 to 8) (size 9 to 14) (size 15 to 20)
#    0.000    0.800    4.000    1.200    5.600   12.800 
#    0.000    0.000    0.000    0.000    0.000    0.000 
#    0.000    0.000    0.000    0.000    0.000    0.000 
#
# Total GULP energy -111923.906518 kJ/mol
# GULP energy per Si atom -5596.195326 kJ/mol
# Density = 2.334263 g / cm^3
# Si number density = 23.395876 Si / 1000 Ang^3
#
#
#
# Elastic Constant Matrix: (Units=GPa)
#
#
# Indices 1 2 3 4 5 6 
#
# 1 110.2737 26.0675 32.6115 0.0000 0.0000 0.0000
# 2 26.0675 132.7378 13.6708 0.0000 0.0000 0.0000
# 3 32.6115 13.6708 148.8944 0.0000 0.0000 0.0000
# 4 0.0000 0.0000 0.0000 4.5846 0.0000 0.0000
# 5 0.0000 0.0000 0.0000 0.0000 86.1141 0.0000
# 6 0.0000 0.0000 0.0000 0.0000 0.0000 51.9129
#
#
#
# Elastic Compliance Matrix: (Units=1/GPa)
#
#
# Indices 1 2 3 4 5 6 
#
# 1 0.010093 -0.001771 -0.002048 0.000000 0.000000 0.000000
# 2 -0.001771 0.007916 -0.000339 0.000000 0.000000 0.000000
# 3 -0.002048 -0.000339 0.007196 0.000000 0.000000 0.000000
# 4 0.000000 0.000000 0.000000 0.218122 0.000000 0.000000
# 5 0.000000 0.000000 0.000000 0.000000 0.011613 0.000000
# 6 0.000000 0.000000 0.000000 0.000000 0.000000 0.019263
#
#
# Mechanical properties :
#
#
# Convention : Reuss Voigt Hill
#
# Bulk Modulus (GPa) = 59.21037 59.62284 59.41661
# Shear Modulus (GPa) = 17.35218 49.82606 33.58912
#
# Velocity S-wave (km/s) = 2.72633 4.61987 3.79315
# Velocity P-wave (km/s) = 5.93915 7.34828 6.68097
#
# Compressibility (1/GPa) = 0.01688893
#
# Stress axis : x y z
#
# Youngs Moduli (GPa) = 99.08194 126.32054 138.96932
#
# Poissons Ratio (x) = 0.22373 0.28460
# Poissons Ratio (y) = 0.17548 0.04710
# Poissons Ratio (z) = 0.20291 0.04281
#
# Static dielectric constant tensor:
#      x y z
#    x 1.818680 0.000000 0.000000 
#    y 0.000000 1.874630 0.000000 
#    z 0.000000 0.000000 1.868430 
# 
# From -- ./inp_files/1720.got.cif
#   From: 2010.05.17/outbox.cif.g08.bks.cpg/sg41_1_cif.got.tgz:1720.got - 2010.06.03 18:54:24.
