data_PCOD9367557
_publ_section_title
;
Structure prediction by ZEFSAII (Michael W. Deem and Ramdas Pophale) SiO2 
 PCOD9367557
Probable space group: A B A 2
;
_chemical_formula_sum "Si O2"
_cell_formula_units_Z 32
_cell_length_a 7.327599
_cell_length_b 9.434797
_cell_length_c 16.780028
_cell_angle_alpha 90.000000
_cell_angle_beta 90.000000
_cell_angle_gamma 90.000000
_cell_volume 1160.077320
_symmetry_space_group_name_H-M "A B A 2"
_symmetry_group_IT_number 41
_symmetry_cell_setting 'orthorhombic'
loop_
_space_group_symop_operation_xyz
x,y,z
-x,-y,z
1/2-x,y,1/2+z
1/2+x,-y,1/2+z
x,1/2+y,1/2+z
-x,1/2-y,1/2+z
1/2-x,1/2+y,z
1/2+x,1/2-y,z
loop_
_atom_site_type_symbol
_atom_site_label
_atom_site_fract_x
_atom_site_fract_y
_atom_site_fract_z
Si Si1 0.498379 0.178625 0.719690
Si Si2 0.673593 0.105342 0.319252
Si Si3 0.317202 0.621358 0.603168
Si Si4 0.320740 0.897194 0.499773
O O1 0.665873 0.086053 0.753881
O O2 0.391444 0.235654 0.796544
O O3 0.568559 0.325468 0.678670
O O4 0.381575 0.126127 0.645473
O O5 0.746830 0.105576 0.409119
O O6 0.500000 0.000000 0.317251
O O7 0.343503 0.739547 0.534340
O O8 0.318085 0.469705 0.561663
O O9 0.500000 0.000000 0.497377
#
# Coordination Sequence:
#
# PCOD9367557 Si02
#       4
#     8   8   8   8
#     4  10  24  45  74 107 145 199 253 316 377 451
#     4  10  25  45  74 103 154 194 252 310 386 453
#     4  11  24  46  75 107 151 195 258 315 383 454
#     4  11  25  46  71 109 154 200 250 318 384 458
#
# _framework density 27.584368000000001
#
# number of rings (size 3 to 8) (size 9 to 14) (size 15 to 20)
#    0.000    1.500    2.500    0.000   14.000    0.000 
#    0.000    0.000    0.000    0.000    0.000    0.000 
#    0.000    0.000    0.000    0.000    0.000    0.000 
#
# Total GULP energy -89521.470763 kJ/mol
# GULP energy per Si atom -5595.091923 kJ/mol
# Density = 2.752159 g / cm^3
# Si number density = 27.584368 Si / 1000 Ang^3
#
#
#
# Elastic Constant Matrix: (Units=GPa)
#
#
# Indices 1 2 3 4 5 6 
#
# 1 78.4667 -11.4974 24.9153 0.0000 0.0000 0.0000
# 2 -11.4974 107.0943 40.2111 0.0000 0.0000 0.0000
# 3 24.9153 40.2111 208.3233 0.0000 0.0000 0.0000
# 4 0.0000 0.0000 0.0000 43.6096 0.0000 0.0000
# 5 0.0000 0.0000 0.0000 0.0000 32.7618 0.0000
# 6 0.0000 0.0000 0.0000 0.0000 0.0000 31.6751
#
#
#
# Elastic Compliance Matrix: (Units=1/GPa)
#
#
# Indices 1 2 3 4 5 6 
#
# 1 0.013734 0.002255 -0.002078 0.000000 0.000000 0.000000
# 2 0.002255 0.010437 -0.002284 0.000000 0.000000 0.000000
# 3 -0.002078 -0.002284 0.005490 0.000000 0.000000 0.000000
# 4 0.000000 0.000000 0.000000 0.022931 0.000000 0.000000
# 5 0.000000 0.000000 0.000000 0.000000 0.030523 0.000000
# 6 0.000000 0.000000 0.000000 0.000000 0.000000 0.031571
#
#
# Mechanical properties :
#
#
# Convention : Reuss Voigt Hill
#
# Bulk Modulus (GPa) = 39.29821 55.68249 47.49035
# Shear Modulus (GPa) = 39.25169 44.29298 41.77233
#
# Velocity S-wave (km/s) = 3.77632 4.01150 3.89568
# Velocity P-wave (km/s) = 5.76989 6.45649 6.12282
#
# Compressibility (1/GPa) = 0.02544645
#
# Stress axis : x y z
#
# Youngs Moduli (GPa) = 72.80994 95.81008 182.16072
#
# Poissons Ratio (x) = -0.21602 0.37850
# Poissons Ratio (y) = -0.16416 0.41611
# Poissons Ratio (z) = 0.15129 0.21886
#
# Static dielectric constant tensor:
#      x y z
#    x 2.358180 0.000000 0.000000 
#    y 0.000000 2.323320 0.000000 
#    z 0.000000 0.000000 2.005240 
# 
# From -- ./inp_files/7070.got.cif
#   From: 2010.05.17/outbox.cif.g08.bks.cpg/sg41_4_cif.got.tgz:7070.got - 2010.06.03 18:54:24.
