data_PCOD9367122
_publ_section_title
;
Structure prediction by ZEFSAII (Michael W. Deem and Ramdas Pophale) SiO2 
 PCOD9367122
Probable space group: A B A 2
;
_chemical_formula_sum "Si O2"
_cell_formula_units_Z 64
_cell_length_a 12.793202
_cell_length_b 11.629153
_cell_length_c 21.401520
_cell_angle_alpha 90.000000
_cell_angle_beta 90.000000
_cell_angle_gamma 90.000000
_cell_volume 3183.991950
_symmetry_space_group_name_H-M "A B A 2"
_symmetry_group_IT_number 41
_symmetry_cell_setting 'orthorhombic'
loop_
_space_group_symop_operation_xyz
x,y,z
-x,-y,z
1/2-x,y,1/2+z
1/2+x,-y,1/2+z
x,1/2+y,1/2+z
-x,1/2-y,1/2+z
1/2-x,1/2+y,z
1/2+x,1/2-y,z
loop_
_atom_site_type_symbol
_atom_site_label
_atom_site_fract_x
_atom_site_fract_y
_atom_site_fract_z
Si Si1 0.851529 0.236690 0.163950
Si Si2 0.053261 0.378268 0.187113
Si Si3 0.834879 0.066503 0.970115
Si Si4 0.383986 0.462561 0.248559
Si Si5 0.315520 0.826611 0.870689
Si Si6 0.311766 0.828360 0.072409
Si Si7 0.699202 0.788452 0.769363
Si Si8 0.439813 0.184534 0.471849
O O1 0.964819 0.291551 0.161007
O O2 0.852367 0.103355 0.185367
O O3 0.773061 0.253507 0.106898
O O4 0.799917 0.288848 0.225253
O O5 0.000000 0.500000 0.206179
O O6 0.129557 0.395500 0.127948
O O7 0.118657 0.306949 0.240122
O O8 0.756998 0.090012 0.912132
O O9 0.936446 0.152602 0.971682
O O10 0.880637 0.938260 0.970039
O O11 0.759764 0.092242 0.028747
O O12 0.500000 0.500000 0.238020
O O13 0.368608 0.386533 0.310824
O O14 0.332568 0.581879 0.263639
O O15 0.232020 0.741285 0.839049
O O16 0.400083 0.760099 0.912832
O O17 0.394853 0.756278 0.031132
#
# Coordination Sequence:
#
# PCOD9367122 Si02
#       8
#     8   8   8   8   8   8   8   8
#     4  10  23  39  62  91 128 164 207 259 313 378
#     4  11  24  40  60  96 126 165 207 258 321 374
#     4  10  22  42  64  91 123 165 210 262 314 371
#     4  11  22  41  63  94 125 167 212 252 314 378
#     4  10  23  40  64  94 127 164 206 262 316 368
#     4  10  23  41  63  90 122 163 210 259 315 368
#     4  10  23  40  63  92 130 167 206 256 313 379
#     4  10  22  42  63  91 123 164 216 256 315 370
#
# _framework density 20.100553999999999
#
# number of rings (size 3 to 8) (size 9 to 14) (size 15 to 20)
#    0.000    1.750    1.250    1.500    8.750    1.000 
#    4.500    1.250    0.000    0.000    0.000    0.000 
#    0.000    0.000    0.000    0.000    0.000    0.000 
#
# Total GULP energy -178293.630860 kJ/mol
# GULP energy per Si atom -5571.675964 kJ/mol
# Density = 2.005480 g / cm^3
# Si number density = 20.100554 Si / 1000 Ang^3
#
#
#
# Elastic Constant Matrix: (Units=GPa)
#
#
# Indices 1 2 3 4 5 6 
#
# 1 116.4014 29.0631 24.8881 0.0000 0.0000 0.0000
# 2 29.0631 88.8719 17.1260 0.0000 0.0000 0.0000
# 3 24.8881 17.1260 67.7741 0.0000 0.0000 0.0000
# 4 0.0000 0.0000 0.0000 -41.1533 0.0000 0.0000
# 5 0.0000 0.0000 0.0000 0.0000 -92.5443 0.0000
# 6 0.0000 0.0000 0.0000 0.0000 0.0000 24.4461
#
#
#
# Elastic Compliance Matrix: (Units=1/GPa)
#
#
# Indices 1 2 3 4 5 6 
#
# 1 0.009889 -0.002664 -0.002958 0.000000 0.000000 0.000000
# 2 -0.002664 0.012546 -0.002192 0.000000 0.000000 0.000000
# 3 -0.002958 -0.002192 0.016395 0.000000 0.000000 0.000000
# 4 0.000000 0.000000 0.000000 -0.024299 0.000000 0.000000
# 5 0.000000 0.000000 0.000000 0.000000 -0.010806 0.000000
# 6 0.000000 0.000000 0.000000 0.000000 0.000000 0.040906
#
#
# Mechanical properties :
#
#
# Convention : Reuss Voigt Hill
#
# Bulk Modulus (GPa) = 43.10073 46.13354 44.61713
# Shear Modulus (GPa) = 73.53776 -8.38562 32.57607
#
# Velocity S-wave (km/s) = 6.05511 -2.04472 4.03010
# Velocity P-wave (km/s) = 8.38898 4.17453 6.62577
#
# Compressibility (1/GPa) = 0.02320146
#
# Stress axis : x y z
#
# Youngs Moduli (GPa) = 101.12724 79.70889 60.99381
#
# Poissons Ratio (x) = 0.21232 0.18043
# Poissons Ratio (y) = 0.26937 0.13370
# Poissons Ratio (z) = 0.29915 0.17472
#
# Static dielectric constant tensor:
#      x y z
#    x 1.719390 0.000000 0.000000 
#    y 0.000000 1.767340 0.000000 
#    z 0.000000 0.000000 1.717600 
# 
# From -- ./inp_files/12155.got.cif
#   From: 2010.05.17/outbox.cif.g08.bks.cpg/sg41_7_cif.got.tgz:12155.got - 2010.06.03 18:54:24.
