data_PCOD9367596
_publ_section_title
;
Structure prediction by ZEFSAII (Michael W. Deem and Ramdas Pophale) SiO2 
 PCOD9367596
Probable space group: A B A 2
;
_chemical_formula_sum "Si O2"
_cell_formula_units_Z 28
_cell_length_a 10.278630
_cell_length_b 11.191218
_cell_length_c 8.368135
_cell_angle_alpha 90.000000
_cell_angle_beta 90.000000
_cell_angle_gamma 90.000000
_cell_volume 962.589825
_symmetry_space_group_name_H-M "A B A 2"
_symmetry_group_IT_number 41
_symmetry_cell_setting 'orthorhombic'
loop_
_space_group_symop_operation_xyz
x,y,z
-x,-y,z
1/2-x,y,1/2+z
1/2+x,-y,1/2+z
x,1/2+y,1/2+z
-x,1/2-y,1/2+z
1/2-x,1/2+y,z
1/2+x,1/2-y,z
loop_
_atom_site_type_symbol
_atom_site_label
_atom_site_fract_x
_atom_site_fract_y
_atom_site_fract_z
Si Si1 0.885549 0.752893 0.085680
Si Si2 0.500000 0.000000 0.591678
Si Si3 0.364259 0.613015 0.496116
Si Si4 0.304892 0.460025 0.806108
O O1 0.001936 0.684967 0.995814
O O2 0.824729 0.663335 0.214720
O O3 0.763110 0.802043 0.985336
O O4 0.953893 0.871400 0.156393
O O5 0.613940 0.037911 0.468377
O O6 0.355488 0.555913 0.675318
O O7 0.334395 0.504159 0.372892
#
# Coordination Sequence:
#
# PCOD9367596 Si02
#       4
#     8   4   8   8
#     4  11  26  49  81 123 174 226 300 374 459 551
#     4  10  24  48  80 120 172 230 292 374 454 546
#     4  11  27  47  86 119 175 231 298 379 457 548
#     4  11  25  51  80 124 171 234 296 373 462 542
#
# _framework density 29.088194000000001
#
# number of rings (size 3 to 8) (size 9 to 14) (size 15 to 20)
#    0.000    1.143    2.857    0.000   12.000    2.286 
#    0.000    2.857    0.000    0.000    0.000    0.000 
#    0.000    0.000    0.000    0.000    0.000    0.000 
#
# Total GULP energy -78470.971169 kJ/mol
# GULP energy per Si atom -5605.069369 kJ/mol
# Density = 2.902199 g / cm^3
# Si number density = 29.088194 Si / 1000 Ang^3
#
#
#
# Elastic Constant Matrix: (Units=GPa)
#
#
# Indices 1 2 3 4 5 6 
#
# 1 207.5664 135.9696 35.6687 0.0000 0.0000 0.0000
# 2 135.9696 251.4407 90.5298 0.0000 0.0000 0.0000
# 3 35.6687 90.5298 87.9256 0.0000 0.0000 0.0000
# 4 0.0000 0.0000 0.0000 77.8315 0.0000 0.0000
# 5 0.0000 0.0000 0.0000 0.0000 32.8232 0.0000
# 6 0.0000 0.0000 0.0000 0.0000 0.0000 94.9974
#
#
#
# Elastic Compliance Matrix: (Units=1/GPa)
#
#
# Indices 1 2 3 4 5 6 
#
# 1 0.007642 -0.004793 0.001835 0.000000 0.000000 0.000000
# 2 -0.004793 0.009326 -0.007658 0.000000 0.000000 0.000000
# 3 0.001835 -0.007658 0.018514 0.000000 0.000000 0.000000
# 4 0.000000 0.000000 0.000000 0.012848 0.000000 0.000000
# 5 0.000000 0.000000 0.000000 0.000000 0.030466 0.000000
# 6 0.000000 0.000000 0.000000 0.000000 0.000000 0.010527
#
#
# Mechanical properties :
#
#
# Convention : Reuss Voigt Hill
#
# Bulk Modulus (GPa) = 70.17681 119.02988 94.60334
# Shear Modulus (GPa) = 43.36264 60.11474 51.73869
#
# Velocity S-wave (km/s) = 3.86519 4.55096 4.22202
# Velocity P-wave (km/s) = 6.64059 8.28397 7.50738
#
# Compressibility (1/GPa) = 0.01424972
#
# Stress axis : x y z
#
# Youngs Moduli (GPa) = 130.84874 107.22155 54.01384
#
# Poissons Ratio (x) = 0.51396 -0.09912
# Poissons Ratio (y) = 0.62722 0.41365
# Poissons Ratio (z) = -0.24013 0.82112
#
# Static dielectric constant tensor:
#      x y z
#    x 2.379270 0.000000 0.000000 
#    y 0.000000 2.271470 0.000000 
#    z 0.000000 0.000000 2.312230 
# 
# From -- ./inp_files/2267.got.cif
#   From: 2010.05.17/outbox.cif.g08.bks.cpg/sg41_2_cif.got.tgz:2267.got - 2010.06.03 18:54:24.
