data_PCOD9367161
_publ_section_title
;
Structure prediction by ZEFSAII (Michael W. Deem and Ramdas Pophale) SiO2 
 PCOD9367161
Probable space group: A B A 2
;
_chemical_formula_sum "Si O2"
_cell_formula_units_Z 56
_cell_length_a 9.823442
_cell_length_b 10.921953
_cell_length_c 20.552145
_cell_angle_alpha 90.000000
_cell_angle_beta 90.000000
_cell_angle_gamma 90.000000
_cell_volume 2205.063721
_symmetry_space_group_name_H-M "A B A 2"
_symmetry_group_IT_number 41
_symmetry_cell_setting 'orthorhombic'
loop_
_space_group_symop_operation_xyz
x,y,z
-x,-y,z
1/2-x,y,1/2+z
1/2+x,-y,1/2+z
x,1/2+y,1/2+z
-x,1/2-y,1/2+z
1/2-x,1/2+y,z
1/2+x,1/2-y,z
loop_
_atom_site_type_symbol
_atom_site_label
_atom_site_fract_x
_atom_site_fract_y
_atom_site_fract_z
Si Si1 0.507273 0.696455 0.061670
Si Si2 0.242349 0.181862 0.769208
Si Si3 0.276195 0.993864 0.532098
Si Si4 0.395643 0.598369 0.646807
Si Si5 0.574774 0.733872 0.428273
Si Si6 0.035810 0.861182 0.817635
Si Si7 0.676176 0.401897 0.399125
O O1 0.394499 0.591193 0.052665
O O2 0.653685 0.635931 0.046008
O O3 0.527176 0.777199 0.125676
O O4 0.459925 0.783325 0.003292
O O5 0.226314 0.130703 0.696643
O O6 0.335067 0.298650 0.784970
O O7 0.283654 0.079740 0.823745
O O8 0.088597 0.216456 0.787627
O O9 0.159984 0.032618 0.582138
O O10 0.225259 0.010316 0.457562
O O11 0.500000 0.500000 0.675500
O O12 0.487543 0.845271 0.395282
O O13 0.484519 0.625841 0.397900
O O14 0.728227 0.780079 0.416258
O O15 0.000000 0.000000 0.805161
#
# Coordination Sequence:
#
# PCOD9367161 Si02
#       7
#     8   8   8   8   8   8   8
#     4  10  23  41  67 100 140 187 242 298 376 449
#     4  10  24  42  70 104 149 191 253 315 380 463
#     4  10  23  42  69  99 139 192 238 310 371 448
#     4  12  27  43  71 108 146 198 249 312 386 471
#     4   9  18  34  66  97 136 179 236 303 361 441
#     4  10  22  42  72 104 143 197 247 311 388 455
#     4   9  18  39  64 101 136 187 238 302 375 440
#
# _framework density 25.396090000000001
#
# number of rings (size 3 to 8) (size 9 to 14) (size 15 to 20)
#    0.000    2.000    1.429    0.429   10.000    1.143 
#    2.571    0.714    0.000    0.000    0.000    0.000 
#    0.000    0.000    0.000    0.000    0.000    0.000 
#
# Total GULP energy -156186.718279 kJ/mol
# GULP energy per Si atom -5578.097081 kJ/mol
# Density = 2.533829 g / cm^3
# Si number density = 25.396090 Si / 1000 Ang^3
#
#
#
# Elastic Constant Matrix: (Units=GPa)
#
#
# Indices 1 2 3 4 5 6 
#
# 1 102.5266 42.2896 0.7998 0.0000 0.0000 0.0000
# 2 42.2896 101.7626 28.3083 0.0000 0.0000 0.0000
# 3 0.7998 28.3083 124.0415 0.0000 0.0000 0.0000
# 4 0.0000 0.0000 0.0000 8.5963 0.0000 0.0000
# 5 0.0000 0.0000 0.0000 0.0000 34.4606 0.0000
# 6 0.0000 0.0000 0.0000 0.0000 0.0000 38.3941
#
#
#
# Elastic Compliance Matrix: (Units=1/GPa)
#
#
# Indices 1 2 3 4 5 6 
#
# 1 0.011916 -0.005265 0.001125 0.000000 0.000000 0.000000
# 2 -0.005265 0.012819 -0.002892 0.000000 0.000000 0.000000
# 3 0.001125 -0.002892 0.008714 0.000000 0.000000 0.000000
# 4 0.000000 0.000000 0.000000 0.116330 0.000000 0.000000
# 5 0.000000 0.000000 0.000000 0.000000 0.029019 0.000000
# 6 0.000000 0.000000 0.000000 0.000000 0.000000 0.026046
#
#
# Mechanical properties :
#
#
# Convention : Reuss Voigt Hill
#
# Bulk Modulus (GPa) = 51.58269 52.34733 51.96501
# Shear Modulus (GPa) = 22.18575 33.41906 27.80241
#
# Velocity S-wave (km/s) = 2.95886 3.63149 3.31229
# Velocity P-wave (km/s) = 5.65937 6.18391 5.92745
#
# Compressibility (1/GPa) = 0.01938635
#
# Stress axis : x y z
#
# Youngs Moduli (GPa) = 83.91745 78.00822 114.75161
#
# Poissons Ratio (x) = 0.41071 -0.12906
# Poissons Ratio (y) = 0.44183 0.33181
# Poissons Ratio (z) = -0.09438 0.22557
#
# Static dielectric constant tensor:
#      x y z
#    x 2.083610 0.000000 0.000000 
#    y 0.000000 2.070910 0.000000 
#    z 0.000000 0.000000 2.096670 
# 
# From -- ./inp_files/11393.got.cif
#   From: 2010.05.17/outbox.cif.g08.bks.cpg/sg41_6_cif.got.tgz:11393.got - 2010.06.03 18:54:24.
