data_PCOD9367063
_publ_section_title
;
Structure prediction by ZEFSAII (Michael W. Deem and Ramdas Pophale) SiO2 
 PCOD9367063
Probable space group: A B A 2
;
_chemical_formula_sum "Si O2"
_cell_formula_units_Z 60
_cell_length_a 13.384766
_cell_length_b 22.311584
_cell_length_c 9.095725
_cell_angle_alpha 90.000000
_cell_angle_beta 90.000000
_cell_angle_gamma 90.000000
_cell_volume 2716.304845
_symmetry_space_group_name_H-M "A B A 2"
_symmetry_group_IT_number 41
_symmetry_cell_setting 'orthorhombic'
loop_
_space_group_symop_operation_xyz
x,y,z
-x,-y,z
1/2-x,y,1/2+z
1/2+x,-y,1/2+z
x,1/2+y,1/2+z
-x,1/2-y,1/2+z
1/2-x,1/2+y,z
1/2+x,1/2-y,z
loop_
_atom_site_type_symbol
_atom_site_label
_atom_site_fract_x
_atom_site_fract_y
_atom_site_fract_z
Si Si1 0.610229 0.884981 0.390290
Si Si2 0.257928 0.787579 0.487760
Si Si3 0.858877 0.285630 0.732096
Si Si4 0.039165 0.334009 0.625920
Si Si5 0.164971 0.901777 0.323537
Si Si6 0.182296 0.467860 0.121999
Si Si7 0.000000 0.000000 0.808333
Si Si8 0.242300 0.605359 0.139726
O O1 0.528505 0.847166 0.481206
O O2 0.564321 0.951925 0.396827
O O3 0.716323 0.885035 0.475079
O O4 0.640635 0.870932 0.220602
O O5 0.186413 0.750587 0.594612
O O6 0.308118 0.743336 0.371328
O O7 0.352230 0.813101 0.576574
O O8 0.199919 0.840730 0.404501
O O9 0.828079 0.355443 0.719008
O O10 0.977997 0.285350 0.719845
O O11 0.062968 0.389695 0.734491
O O12 0.166169 0.951322 0.452201
O O13 0.245468 0.921553 0.202609
O O14 0.228435 0.533904 0.148553
O O15 0.077020 0.464930 0.205268
#
# Coordination Sequence:
#
# PCOD9367063 Si02
#       8
#     8   8   8   8   8   8   4   8
#     4  10  22  42  67  95 139 177 234 279 350 417
#     4  12  24  46  71  97 143 180 229 296 349 410
#     4  11  25  44  70 101 138 182 235 283 351 427
#     4  11  25  42  69 104 136 186 241 288 354 411
#     4  12  24  45  70 103 134 189 231 293 354 407
#     4  11  23  44  71  97 145 177 232 289 351 420
#     4  10  22  40  66 106 132 186 228 280 346 420
#     4  10  22  44  68  99 136 184 221 282 357 411
#
# _framework density 22.088830000000002
#
# number of rings (size 3 to 8) (size 9 to 14) (size 15 to 20)
#    0.000    1.067    2.667    4.000    3.733    1.067 
#   19.200    0.000    0.000    0.000    0.000    0.000 
#    0.000    0.000    0.000    0.000    0.000    0.000 
#
# Total GULP energy -167294.908834 kJ/mol
# GULP energy per Si atom -5576.496961 kJ/mol
# Density = 2.203856 g / cm^3
# Si number density = 22.088830 Si / 1000 Ang^3
#
#
#
# Elastic Constant Matrix: (Units=GPa)
#
#
# Indices 1 2 3 4 5 6 
#
# 1 69.7674 31.0619 7.2918 0.0000 0.0000 0.0000
# 2 31.0619 70.8518 30.7064 0.0000 0.0000 0.0000
# 3 7.2918 30.7064 62.4724 0.0000 0.0000 0.0000
# 4 0.0000 0.0000 0.0000 25.0485 0.0000 0.0000
# 5 0.0000 0.0000 0.0000 0.0000 39.4585 0.0000
# 6 0.0000 0.0000 0.0000 0.0000 0.0000 38.0344
#
#
#
# Elastic Compliance Matrix: (Units=1/GPa)
#
#
# Indices 1 2 3 4 5 6 
#
# 1 0.018059 -0.008899 0.002266 0.000000 0.000000 0.000000
# 2 -0.008899 0.022320 -0.009932 0.000000 0.000000 0.000000
# 3 0.002266 -0.009932 0.020624 0.000000 0.000000 0.000000
# 4 0.000000 0.000000 0.000000 0.039923 0.000000 0.000000
# 5 0.000000 0.000000 0.000000 0.000000 0.025343 0.000000
# 6 0.000000 0.000000 0.000000 0.000000 0.000000 0.026292
#
#
# Mechanical properties :
#
#
# Convention : Reuss Voigt Hill
#
# Bulk Modulus (GPa) = 35.87686 37.91242 36.89464
# Shear Modulus (GPa) = 25.64354 29.44372 27.54363
#
# Velocity S-wave (km/s) = 3.41094 3.65495 3.53505
# Velocity P-wave (km/s) = 5.63826 5.91713 5.77938
#
# Compressibility (1/GPa) = 0.02787312
#
# Stress axis : x y z
#
# Youngs Moduli (GPa) = 55.37533 44.80326 48.48653
#
# Poissons Ratio (x) = 0.39871 -0.10989
# Poissons Ratio (y) = 0.49280 0.48156
# Poissons Ratio (z) = -0.12550 0.44498
#
# Static dielectric constant tensor:
#      x y z
#    x 1.792360 0.000000 0.000000 
#    y 0.000000 1.840780 0.000000 
#    z 0.000000 0.000000 1.875010 
# 
# From -- ./inp_files/2172.got.cif
#   From: 2010.05.17/outbox.cif.g08.bks.cpg/sg41_2_cif.got.tgz:2172.got - 2010.06.03 18:54:24.
