data_PCOD9367422
_publ_section_title
;
Structure prediction by ZEFSAII (Michael W. Deem and Ramdas Pophale) SiO2 
 PCOD9367422
Probable space group: A B A 2
;
_chemical_formula_sum "Si O2"
_cell_formula_units_Z 32
_cell_length_a 12.755856
_cell_length_b 10.047012
_cell_length_c 9.853638
_cell_angle_alpha 90.000000
_cell_angle_beta 90.000000
_cell_angle_gamma 90.000000
_cell_volume 1262.824887
_symmetry_space_group_name_H-M "A B A 2"
_symmetry_group_IT_number 41
_symmetry_cell_setting 'orthorhombic'
loop_
_space_group_symop_operation_xyz
x,y,z
-x,-y,z
1/2-x,y,1/2+z
1/2+x,-y,1/2+z
x,1/2+y,1/2+z
-x,1/2-y,1/2+z
1/2-x,1/2+y,z
1/2+x,1/2-y,z
loop_
_atom_site_type_symbol
_atom_site_label
_atom_site_fract_x
_atom_site_fract_y
_atom_site_fract_z
Si Si1 0.379565 0.476075 0.283410
Si Si2 0.927213 0.656150 0.531827
Si Si3 0.265536 0.745660 0.342877
Si Si4 0.539586 0.140060 0.226181
O O1 0.500000 0.500000 0.334482
O O2 0.392246 0.470489 0.119582
O O3 0.294128 0.590959 0.316670
O O4 0.339515 0.332032 0.334954
O O5 0.820443 0.728771 0.487075
O O6 0.162155 0.828136 0.735358
O O7 0.989971 0.746952 0.635232
O O8 0.485532 0.859191 0.388310
O O9 0.500000 0.000000 0.172618
#
# Coordination Sequence:
#
# PCOD9367422 Si02
#       4
#     8   8   8   8
#     4  12  24  52  78 117 167 217 275 355 412 503
#     4  10  24  48  77 117 163 218 272 349 425 499
#     4  10  28  44  80 118 157 221 276 346 425 496
#     4  10  23  45  77 119 159 208 278 340 419 506
#
# _framework density 25.340014
#
# number of rings (size 3 to 8) (size 9 to 14) (size 15 to 20)
#    1.500    0.000    2.500    0.750    3.500    5.000 
#    9.000    0.000    0.000    0.000    0.000    0.000 
#    0.000    0.000    0.000    0.000    0.000    0.000 
#
# Total GULP energy -89194.656745 kJ/mol
# GULP energy per Si atom -5574.666047 kJ/mol
# Density = 2.528234 g / cm^3
# Si number density = 25.340014 Si / 1000 Ang^3
#
#
#
# Elastic Constant Matrix: (Units=GPa)
#
#
# Indices 1 2 3 4 5 6 
#
# 1 113.7420 58.9489 33.1328 0.0000 0.0000 0.0000
# 2 58.9489 169.5805 39.1169 0.0000 0.0000 0.0000
# 3 33.1328 39.1169 107.9977 0.0000 0.0000 0.0000
# 4 0.0000 0.0000 0.0000 25.8296 0.0000 0.0000
# 5 0.0000 0.0000 0.0000 0.0000 43.8820 0.0000
# 6 0.0000 0.0000 0.0000 0.0000 0.0000 55.8197
#
#
#
# Elastic Compliance Matrix: (Units=1/GPa)
#
#
# Indices 1 2 3 4 5 6 
#
# 1 0.011186 -0.003379 -0.002208 0.000000 0.000000 0.000000
# 2 -0.003379 0.007455 -0.001664 0.000000 0.000000 0.000000
# 3 -0.002208 -0.001664 0.010539 0.000000 0.000000 0.000000
# 4 0.000000 0.000000 0.000000 0.038715 0.000000 0.000000
# 5 0.000000 0.000000 0.000000 0.000000 0.022788 0.000000
# 6 0.000000 0.000000 0.000000 0.000000 0.000000 0.017915
#
#
# Mechanical properties :
#
#
# Convention : Reuss Voigt Hill
#
# Bulk Modulus (GPa) = 68.12207 72.63526 70.37867
# Shear Modulus (GPa) = 39.06426 42.44770 40.75598
#
# Velocity S-wave (km/s) = 3.93059 4.09727 4.01479
# Velocity P-wave (km/s) = 6.89499 7.14912 7.02321
#
# Compressibility (1/GPa) = 0.01467953
#
# Stress axis : x y z
#
# Youngs Moduli (GPa) = 89.39464 134.13221 94.88219
#
# Poissons Ratio (x) = 0.45327 0.20949
# Poissons Ratio (y) = 0.30209 0.15785
# Poissons Ratio (z) = 0.19737 0.22314
#
# Static dielectric constant tensor:
#      x y z
#    x 2.022360 0.000000 0.000000 
#    y 0.000000 2.058530 0.000000 
#    z 0.000000 0.000000 1.994550 
# 
# From -- ./inp_files/5272.got.cif
#   From: 2010.05.17/outbox.cif.g08.bks.cpg/sg41_3_cif.got.tgz:5272.got - 2010.06.03 18:54:24.
