data_PCOD9367210
_publ_section_title
;
Structure prediction by ZEFSAII (Michael W. Deem and Ramdas Pophale) SiO2 
 PCOD9367210
Probable space group: A B A 2
;
_chemical_formula_sum "Si O2"
_cell_formula_units_Z 52
_cell_length_a 25.558222
_cell_length_b 7.972341
_cell_length_c 11.874932
_cell_angle_alpha 90.000000
_cell_angle_beta 90.000000
_cell_angle_gamma 90.000000
_cell_volume 2419.622620
_symmetry_space_group_name_H-M "A B A 2"
_symmetry_group_IT_number 41
_symmetry_cell_setting 'orthorhombic'
loop_
_space_group_symop_operation_xyz
x,y,z
-x,-y,z
1/2-x,y,1/2+z
1/2+x,-y,1/2+z
x,1/2+y,1/2+z
-x,1/2-y,1/2+z
1/2-x,1/2+y,z
1/2+x,1/2-y,z
loop_
_atom_site_type_symbol
_atom_site_label
_atom_site_fract_x
_atom_site_fract_y
_atom_site_fract_z
Si Si1 0.758328 0.993921 0.341410
Si Si2 0.820666 0.290843 0.446831
Si Si3 0.500000 0.000000 0.976677
Si Si4 0.082750 0.854070 0.329075
Si Si5 0.824482 0.572501 0.163863
Si Si6 0.094192 0.699221 0.086213
Si Si7 0.637515 0.283904 0.358944
O O1 0.711125 0.961221 0.429508
O O2 0.802739 0.853061 0.359448
O O3 0.789182 0.163802 0.364893
O O4 0.728549 0.007529 0.222462
O O5 0.878998 0.269884 0.399241
O O6 0.815722 0.214112 0.570270
O O7 0.471915 0.866124 0.894453
O O8 0.544127 0.912060 0.052208
O O9 0.082491 0.801068 0.199105
O O10 0.105322 0.044372 0.336377
O O11 0.856367 0.421795 0.109100
O O12 0.861903 0.652480 0.258460
O O13 0.113447 0.792130 0.973034
#
# Coordination Sequence:
#
# PCOD9367210 Si02
#       7
#     8   8   4   8   8   8   8
#     4  11  22  37  57  96 129 171 216 250 317 379
#     4  11  23  39  61  94 130 174 215 260 317 385
#     4  10  22  44  66 100 122 168 214 274 344 374
#     4  10  22  45  67  91 132 167 214 275 327 382
#     4  12  23  39  64  90 133 171 213 267 310 383
#     4  11  23  45  70  92 131 165 216 275 325 387
#     4  10  24  40  60  99 130 170 216 257 319 389
#
# _framework density 21.490957000000002
#
# number of rings (size 3 to 8) (size 9 to 14) (size 15 to 20)
#    0.000    1.231    7.692    0.000    2.154    6.154 
#    0.000    0.000    0.000    0.000    0.000    0.000 
#    0.000    0.000    0.000    0.000    0.000    0.000 
#
# Total GULP energy -145183.822915 kJ/mol
# GULP energy per Si atom -5583.993189 kJ/mol
# Density = 2.144204 g / cm^3
# Si number density = 21.490957 Si / 1000 Ang^3
#
#
#
# Elastic Constant Matrix: (Units=GPa)
#
#
# Indices 1 2 3 4 5 6 
#
# 1 91.7405 1.5230 46.7475 0.0000 0.0000 0.0000
# 2 1.5230 21.6449 11.2769 0.0000 0.0000 0.0000
# 3 46.7475 11.2769 149.5400 0.0000 0.0000 0.0000
# 4 0.0000 0.0000 0.0000 43.6990 0.0000 0.0000
# 5 0.0000 0.0000 0.0000 0.0000 -816.2178 0.0000
# 6 0.0000 0.0000 0.0000 0.0000 0.0000 17.1185
#
#
#
# Elastic Compliance Matrix: (Units=1/GPa)
#
#
# Indices 1 2 3 4 5 6 
#
# 1 0.012998 0.001252 -0.004158 0.000000 0.000000 0.000000
# 2 0.001252 0.048210 -0.004027 0.000000 0.000000 0.000000
# 3 -0.004158 -0.004027 0.008291 0.000000 0.000000 0.000000
# 4 0.000000 0.000000 0.000000 0.022884 0.000000 0.000000
# 5 0.000000 0.000000 0.000000 0.000000 -0.001225 0.000000
# 6 0.000000 0.000000 0.000000 0.000000 0.000000 0.058416
#
#
# Mechanical properties :
#
#
# Convention : Reuss Voigt Hill
#
# Bulk Modulus (GPa) = 17.97493 42.44666 30.21080
# Shear Modulus (GPa) = 27.47491 -137.52152 -55.02330
#
# Velocity S-wave (km/s) = 3.57941 -8.00808 -5.06543
# Velocity P-wave (km/s) = 5.04628 8.10629 4.48592
#
# Compressibility (1/GPa) = 0.05563303
#
# Stress axis : x y z
#
# Youngs Moduli (GPa) = 76.93401 20.74250 120.61892
#
# Poissons Ratio (x) = -0.02596 0.50150
# Poissons Ratio (y) = -0.09629 0.48571
# Poissons Ratio (z) = 0.31987 0.08353
#
# Static dielectric constant tensor:
#      x y z
#    x 2.256900 0.000000 0.000000 
#    y 0.000000 1.903970 0.000000 
#    z 0.000000 0.000000 1.790400 
# 
# From -- ./inp_files/6533.got.cif
#   From: 2010.05.17/outbox.cif.g08.bks.cpg/sg41_4_cif.got.tgz:6533.got - 2010.06.03 18:54:24.
