data_PCOD9367780
_publ_section_title
;
Structure prediction by ZEFSAII (Michael W. Deem and Ramdas Pophale) SiO2 
 PCOD9367780
Probable space group: A B A 2
;
_chemical_formula_sum "Si O2"
_cell_formula_units_Z 40
_cell_length_a 5.162435
_cell_length_b 23.561376
_cell_length_c 13.520992
_cell_angle_alpha 90.000000
_cell_angle_beta 90.000000
_cell_angle_gamma 90.000000
_cell_volume 1644.613316
_symmetry_space_group_name_H-M "A B A 2"
_symmetry_group_IT_number 41
_symmetry_cell_setting 'orthorhombic'
loop_
_space_group_symop_operation_xyz
x,y,z
-x,-y,z
1/2-x,y,1/2+z
1/2+x,-y,1/2+z
x,1/2+y,1/2+z
-x,1/2-y,1/2+z
1/2-x,1/2+y,z
1/2+x,1/2-y,z
loop_
_atom_site_type_symbol
_atom_site_label
_atom_site_fract_x
_atom_site_fract_y
_atom_site_fract_z
Si Si1 0.591511 0.627835 0.760340
Si Si2 0.104633 0.335877 0.045329
Si Si3 0.550674 0.714729 0.340628
Si Si4 0.610342 0.883965 0.468031
Si Si5 0.000000 0.000000 0.044726
Si Si6 0.000000 0.000000 0.682374
O O1 0.534743 0.662911 0.660390
O O2 0.869618 0.652980 0.796571
O O3 0.559764 0.560422 0.737062
O O4 0.418744 0.638208 0.857293
O O5 0.410441 0.348563 0.036086
O O6 0.903845 0.383235 0.003963
O O7 0.050577 0.288976 0.961408
O O8 0.292360 0.746093 0.309543
O O9 0.489059 0.945716 0.475807
O O10 0.753128 0.992620 0.114804
#
# Coordination Sequence:
#
# PCOD9367780 Si02
#       6
#     8   8   8   8   4   4
#     4  11  25  46  75 108 148 200 250 312 392 465
#     4  11  24  44  70 100 143 189 246 317 376 444
#     4  11  26  47  72 107 143 192 257 314 377 453
#     4  11  23  41  66 100 144 189 245 304 371 454
#     4  12  21  42  65 100 150 196 241 308 375 458
#     4  12  25  42  71 110 150 198 249 306 395 472
#
# _framework density 24.321829000000001
#
# number of rings (size 3 to 8) (size 9 to 14) (size 15 to 20)
#    0.000    0.800    4.000    3.000    0.000   11.200 
#    0.000    2.000    0.000    0.000    0.000    0.000 
#    0.000    0.000    0.000    0.000    0.000    0.000 
#
# Total GULP energy -111591.098733 kJ/mol
# GULP energy per Si atom -5579.554937 kJ/mol
# Density = 2.426647 g / cm^3
# Si number density = 24.321829 Si / 1000 Ang^3
#
#
#
# Elastic Constant Matrix: (Units=GPa)
#
#
# Indices 1 2 3 4 5 6 
#
# 1 122.8369 40.4304 30.9823 0.0000 0.0000 0.0000
# 2 40.4304 115.6936 21.8405 0.0000 0.0000 0.0000
# 3 30.9823 21.8405 165.0280 0.0000 0.0000 0.0000
# 4 0.0000 0.0000 0.0000 46.3008 0.0000 0.0000
# 5 0.0000 0.0000 0.0000 0.0000 27.7165 0.0000
# 6 0.0000 0.0000 0.0000 0.0000 0.0000 42.0235
#
#
#
# Elastic Compliance Matrix: (Units=1/GPa)
#
#
# Indices 1 2 3 4 5 6 
#
# 1 0.009495 -0.003058 -0.001378 0.000000 0.000000 0.000000
# 2 -0.003058 0.009850 -0.000729 0.000000 0.000000 0.000000
# 3 -0.001378 -0.000729 0.006415 0.000000 0.000000 0.000000
# 4 0.000000 0.000000 0.000000 0.021598 0.000000 0.000000
# 5 0.000000 0.000000 0.000000 0.000000 0.036080 0.000000
# 6 0.000000 0.000000 0.000000 0.000000 0.000000 0.023796
#
#
# Mechanical properties :
#
#
# Convention : Reuss Voigt Hill
#
# Bulk Modulus (GPa) = 64.81325 65.56275 65.18800
# Shear Modulus (GPa) = 40.74750 43.89519 42.32135
#
# Velocity S-wave (km/s) = 4.09754 4.25286 4.17592
# Velocity P-wave (km/s) = 7.00660 7.15057 7.07895
#
# Compressibility (1/GPa) = 0.01542894
#
# Stress axis : x y z
#
# Youngs Moduli (GPa) = 105.31964 101.52416 155.88956
#
# Poissons Ratio (x) = 0.31046 0.21479
# Poissons Ratio (y) = 0.32207 0.11372
# Poissons Ratio (z) = 0.14512 0.07406
#
# Static dielectric constant tensor:
#      x y z
#    x 1.947310 0.000000 0.000000 
#    y 0.000000 2.023940 0.000000 
#    z 0.000000 0.000000 1.922120 
# 
# From -- ./inp_files/4151.got.cif
#   From: 2010.05.17/outbox.cif.g08.bks.cpg/sg41_3_cif.got.tgz:4151.got - 2010.06.03 18:54:24.
