data_PCOD9367162
_publ_section_title
;
Structure prediction by ZEFSAII (Michael W. Deem and Ramdas Pophale) SiO2 
 PCOD9367162
Probable space group: A B A 2
;
_chemical_formula_sum "Si O2"
_cell_formula_units_Z 48
_cell_length_a 10.493059
_cell_length_b 15.819519
_cell_length_c 11.573001
_cell_angle_alpha 90.000000
_cell_angle_beta 90.000000
_cell_angle_gamma 90.000000
_cell_volume 1921.061993
_symmetry_space_group_name_H-M "A B A 2"
_symmetry_group_IT_number 41
_symmetry_cell_setting 'orthorhombic'
loop_
_space_group_symop_operation_xyz
x,y,z
-x,-y,z
1/2-x,y,1/2+z
1/2+x,-y,1/2+z
x,1/2+y,1/2+z
-x,1/2-y,1/2+z
1/2-x,1/2+y,z
1/2+x,1/2-y,z
loop_
_atom_site_type_symbol
_atom_site_label
_atom_site_fract_x
_atom_site_fract_y
_atom_site_fract_z
Si Si1 0.235826 0.080950 0.094030
Si Si2 0.438716 0.699412 0.665687
Si Si3 0.291077 0.370041 0.388250
Si Si4 0.465189 0.127618 0.759696
Si Si5 0.204395 0.172008 0.881299
Si Si6 0.826059 0.089575 0.635167
O O1 0.304730 0.173396 0.107828
O O2 0.112430 0.067831 0.173138
O O3 0.337553 0.011628 0.132319
O O4 0.194927 0.091735 0.963750
O O5 0.470303 0.797846 0.682339
O O6 0.411800 0.663215 0.792497
O O7 0.553369 0.648448 0.610640
O O8 0.430297 0.405659 0.349156
O O9 0.307754 0.270356 0.410859
O O10 0.218094 0.384470 0.265144
O O11 0.244517 0.402010 0.514139
O O12 0.346610 0.167047 0.828939
#
# Coordination Sequence:
#
# PCOD9367162 Si02
#       6
#     8   8   8   8   8   8
#     4  11  25  42  74 101 146 186 239 300 364 429
#     4  10  22  43  70 101 140 187 240 289 356 431
#     4  11  26  44  74 101 146 190 239 297 353 437
#     4  10  22  44  69 102 133 187 247 285 346 427
#     4  10  22  42  72 105 134 190 246 296 342 432
#     4  12  26  47  68 109 145 187 231 296 377 423
#
# _framework density 24.986180000000001
#
# number of rings (size 3 to 8) (size 9 to 14) (size 15 to 20)
#    0.000    1.333    1.667    2.500    9.333    3.333 
#    0.000    0.000    0.000    0.000    0.000    0.000 
#    0.000    0.000    0.000    0.000    0.000    0.000 
#
# Total GULP energy -133676.079354 kJ/mol
# GULP energy per Si atom -5569.836640 kJ/mol
# Density = 2.492931 g / cm^3
# Si number density = 24.986180 Si / 1000 Ang^3
#
#
#
# Elastic Constant Matrix: (Units=GPa)
#
#
# Indices 1 2 3 4 5 6 
#
# 1 58.1634 -10.0412 12.2556 0.0000 0.0000 0.0000
# 2 -10.0412 66.6762 40.6669 0.0000 0.0000 0.0000
# 3 12.2556 40.6669 90.4235 0.0000 0.0000 0.0000
# 4 0.0000 0.0000 0.0000 23.4560 0.0000 0.0000
# 5 0.0000 0.0000 0.0000 0.0000 23.3983 0.0000
# 6 0.0000 0.0000 0.0000 0.0000 0.0000 28.9283
#
#
#
# Elastic Compliance Matrix: (Units=1/GPa)
#
#
# Indices 1 2 3 4 5 6 
#
# 1 0.019416 0.006241 -0.005438 0.000000 0.000000 0.000000
# 2 0.006241 0.022673 -0.011043 0.000000 0.000000 0.000000
# 3 -0.005438 -0.011043 0.016762 0.000000 0.000000 0.000000
# 4 0.000000 0.000000 0.000000 0.042633 0.000000 0.000000
# 5 0.000000 0.000000 0.000000 0.000000 0.042738 0.000000
# 6 0.000000 0.000000 0.000000 0.000000 0.000000 0.034568
#
#
# Mechanical properties :
#
#
# Convention : Reuss Voigt Hill
#
# Bulk Modulus (GPa) = 26.06106 33.44728 29.75417
# Shear Modulus (GPa) = 23.57804 26.64865 25.11334
#
# Velocity S-wave (km/s) = 3.07521 3.26933 3.17375
# Velocity P-wave (km/s) = 4.80230 5.25992 5.03631
#
# Compressibility (1/GPa) = 0.03837142
#
# Stress axis : x y z
#
# Youngs Moduli (GPa) = 51.50307 44.10560 59.65698
#
# Poissons Ratio (x) = -0.27526 0.32444
# Poissons Ratio (y) = -0.32143 0.65878
# Poissons Ratio (z) = 0.28010 0.48705
#
# Static dielectric constant tensor:
#      x y z
#    x 1.999950 0.000000 0.000000 
#    y 0.000000 2.054710 0.000000 
#    z 0.000000 0.000000 2.274140 
# 
# From -- ./inp_files/4976.got.cif
#   From: 2010.05.17/outbox.cif.g08.bks.cpg/sg41_3_cif.got.tgz:4976.got - 2010.06.03 18:54:24.
