data_PCOD9367293
_publ_section_title
;
Structure prediction by ZEFSAII (Michael W. Deem and Ramdas Pophale) SiO2 
 PCOD9367293
Probable space group: A B A 2
;
_chemical_formula_sum "Si O2"
_cell_formula_units_Z 52
_cell_length_a 21.893743
_cell_length_b 5.490727
_cell_length_c 18.512595
_cell_angle_alpha 90.000000
_cell_angle_beta 90.000000
_cell_angle_gamma 90.000000
_cell_volume 2225.446545
_symmetry_space_group_name_H-M "A B A 2"
_symmetry_group_IT_number 41
_symmetry_cell_setting 'orthorhombic'
loop_
_space_group_symop_operation_xyz
x,y,z
-x,-y,z
1/2-x,y,1/2+z
1/2+x,-y,1/2+z
x,1/2+y,1/2+z
-x,1/2-y,1/2+z
1/2-x,1/2+y,z
1/2+x,1/2-y,z
loop_
_atom_site_type_symbol
_atom_site_label
_atom_site_fract_x
_atom_site_fract_y
_atom_site_fract_z
Si Si1 0.430701 0.461879 0.919280
Si Si2 0.586904 0.651069 0.637823
Si Si3 0.769042 0.487244 0.297052
Si Si4 0.569963 0.035166 0.972468
Si Si5 0.000000 0.000000 0.230278
Si Si6 0.771655 0.633349 0.132037
Si Si7 0.092834 0.640119 0.276471
O O1 0.500000 0.500000 0.947701
O O2 0.401137 0.724464 0.936753
O O3 0.432344 0.441498 0.832830
O O4 0.401151 0.225814 0.954339
O O5 0.568447 0.583681 0.557541
O O6 0.541284 0.836580 0.676548
O O7 0.658271 0.723416 0.635150
O O8 0.585926 0.426125 0.692771
O O9 0.770243 0.762790 0.329557
O O10 0.751351 0.562242 0.214249
O O11 0.835886 0.366211 0.293094
O O12 0.500000 0.000000 0.946316
O O13 0.049905 0.871693 0.281659
O O14 0.765642 0.360527 0.098650
#
# Coordination Sequence:
#
# PCOD9367293 Si02
#       7
#     8   8   8   8   4   8   8
#     4  10  23  40  61  87 126 174 210 249 313 394
#     4  11  25  40  65  95 134 165 213 273 324 385
#     4   9  20  37  61  89 121 164 215 260 313 374
#     4  10  23  40  61  87 126 174 210 249 313 394
#     4  12  26  36  64 106 136 168 208 278 346 380
#     4   9  20  37  61  89 121 164 215 260 313 374
#     4  11  25  40  65  95 134 165 213 273 324 385
#
# _framework density 23.366098000000001
#
# number of rings (size 3 to 8) (size 9 to 14) (size 15 to 20)
#    0.000    1.846    0.000    2.308   21.538    0.000 
#    0.000    0.000    0.000    5.538    0.000    0.000 
#    0.000    0.000    0.000    0.000    0.000    0.000 
#
# Total GULP energy -144881.558077 kJ/mol
# GULP energy per Si atom -5572.367618 kJ/mol
# Density = 2.331292 g / cm^3
# Si number density = 23.366098 Si / 1000 Ang^3
#
#
#
# Elastic Constant Matrix: (Units=GPa)
#
#
# Indices 1 2 3 4 5 6 
#
# 1 105.2684 36.4370 -3.0889 0.0000 0.0000 0.0000
# 2 36.4370 143.9779 19.5281 0.0000 0.0000 0.0000
# 3 -3.0889 19.5281 78.0863 0.0000 0.0000 0.0000
# 4 0.0000 0.0000 0.0000 17.3609 0.0000 0.0000
# 5 0.0000 0.0000 0.0000 0.0000 -18.9943 0.0000
# 6 0.0000 0.0000 0.0000 0.0000 0.0000 19.3964
#
#
#
# Elastic Compliance Matrix: (Units=1/GPa)
#
#
# Indices 1 2 3 4 5 6 
#
# 1 0.010505 -0.002810 0.001118 0.000000 0.000000 0.000000
# 2 -0.002810 0.007941 -0.002097 0.000000 0.000000 0.000000
# 3 0.001118 -0.002097 0.013375 0.000000 0.000000 0.000000
# 4 0.000000 0.000000 0.000000 0.057601 0.000000 0.000000
# 5 0.000000 0.000000 0.000000 0.000000 -0.052647 0.000000
# 6 0.000000 0.000000 0.000000 0.000000 0.000000 0.051556
#
#
# Mechanical properties :
#
#
# Convention : Reuss Voigt Hill
#
# Bulk Modulus (GPa) = 41.24863 48.12057 44.68460
# Shear Modulus (GPa) = 48.08165 21.84968 34.96567
#
# Velocity S-wave (km/s) = 4.54117 3.06126 3.87256
# Velocity P-wave (km/s) = 6.72219 5.75621 6.25787
#
# Compressibility (1/GPa) = 0.02424323
#
# Stress axis : x y z
#
# Youngs Moduli (GPa) = 95.19220 125.92634 74.76612
#
# Poissons Ratio (x) = 0.35388 -0.08361
# Poissons Ratio (y) = 0.26751 0.15679
# Poissons Ratio (z) = -0.10646 0.26408
#
# Static dielectric constant tensor:
#      x y z
#    x 1.925080 0.000000 0.000000 
#    y 0.000000 2.162880 0.000000 
#    z 0.000000 0.000000 1.865760 
# 
# From -- ./inp_files/11693.got.cif
#   From: 2010.05.17/outbox.cif.g08.bks.cpg/sg41_6_cif.got.tgz:11693.got - 2010.06.03 18:54:24.
