data_PCOD9367227
_publ_section_title
;
Structure prediction by ZEFSAII (Michael W. Deem and Ramdas Pophale) SiO2 
 PCOD9367227
Probable space group: A B A 2
;
_chemical_formula_sum "Si O2"
_cell_formula_units_Z 52
_cell_length_a 19.413627
_cell_length_b 5.305179
_cell_length_c 21.340436
_cell_angle_alpha 90.000000
_cell_angle_beta 90.000000
_cell_angle_gamma 90.000000
_cell_volume 2197.910537
_symmetry_space_group_name_H-M "A B A 2"
_symmetry_group_IT_number 41
_symmetry_cell_setting 'orthorhombic'
loop_
_space_group_symop_operation_xyz
x,y,z
-x,-y,z
1/2-x,y,1/2+z
1/2+x,-y,1/2+z
x,1/2+y,1/2+z
-x,1/2-y,1/2+z
1/2-x,1/2+y,z
1/2+x,1/2-y,z
loop_
_atom_site_type_symbol
_atom_site_label
_atom_site_fract_x
_atom_site_fract_y
_atom_site_fract_z
Si Si1 0.500000 0.000000 0.730051
Si Si2 0.712275 0.984600 0.362545
Si Si3 0.787146 0.498444 0.638303
Si Si4 0.076293 0.619585 0.293342
Si Si5 0.409177 0.352688 0.667066
Si Si6 0.834565 0.488380 0.498794
Si Si7 0.081598 0.013144 0.526148
O O1 0.560399 0.090462 0.776166
O O2 0.482378 0.228825 0.684453
O O3 0.758256 0.750736 0.339304
O O4 0.633098 0.932066 0.344779
O O5 0.712452 0.993941 0.437881
O O6 0.765247 0.776326 0.658422
O O7 0.860055 0.390274 0.659694
O O8 0.790764 0.497538 0.562694
O O9 0.107391 0.502172 0.229736
O O10 0.000000 0.500000 0.306359
O O11 0.407483 0.496945 0.601667
O O12 0.879753 0.233347 0.500071
O O13 0.884405 0.731767 0.500978
O O14 0.000000 0.000000 0.513865
#
# Coordination Sequence:
#
# PCOD9367227 Si02
#       7
#     4   8   8   8   8   8   8
#     4  10  22  44  70  96 148 182 236 284 374 434
#     4  12  28  50  77 102 140 191 245 302 359 428
#     4  11  23  38  63  95 135 176 225 277 335 420
#     4  10  25  46  72 105 140 190 241 301 362 434
#     4  10  24  39  68 100 140 183 225 282 364 420
#     4  11  24  44  66  98 140 186 232 285 358 421
#     4  11  23  39  69 105 142 178 232 286 347 427
#
# _framework density 23.658835
#
# number of rings (size 3 to 8) (size 9 to 14) (size 15 to 20)
#    0.000    1.231    0.000    5.538   15.077    2.462 
#    1.385    0.000    0.000    0.000    0.000    0.000 
#    0.000    0.000    0.000    0.000    0.000    0.000 
#
# Total GULP energy -145493.870546 kJ/mol
# GULP energy per Si atom -5595.918098 kJ/mol
# Density = 2.360499 g / cm^3
# Si number density = 23.658835 Si / 1000 Ang^3
#
#
#
# Elastic Constant Matrix: (Units=GPa)
#
#
# Indices 1 2 3 4 5 6 
#
# 1 93.0321 42.1974 5.1478 0.0000 0.0000 0.0000
# 2 42.1974 155.0124 12.8257 0.0000 0.0000 0.0000
# 3 5.1478 12.8257 36.0846 0.0000 0.0000 0.0000
# 4 0.0000 0.0000 0.0000 14.4053 0.0000 0.0000
# 5 0.0000 0.0000 0.0000 0.0000 39.3748 0.0000
# 6 0.0000 0.0000 0.0000 0.0000 0.0000 54.6469
#
#
#
# Elastic Compliance Matrix: (Units=1/GPa)
#
#
# Indices 1 2 3 4 5 6 
#
# 1 0.012275 -0.003293 -0.000581 0.000000 0.000000 0.000000
# 2 -0.003293 0.007530 -0.002207 0.000000 0.000000 0.000000
# 3 -0.000581 -0.002207 0.028580 0.000000 0.000000 0.000000
# 4 0.000000 0.000000 0.000000 0.069419 0.000000 0.000000
# 5 0.000000 0.000000 0.000000 0.000000 0.025397 0.000000
# 6 0.000000 0.000000 0.000000 0.000000 0.000000 0.018299
#
#
# Mechanical properties :
#
#
# Convention : Reuss Voigt Hill
#
# Bulk Modulus (GPa) = 27.60626 44.94123 36.27374
# Shear Modulus (GPa) = 26.91991 36.61595 31.76793
#
# Velocity S-wave (km/s) = 3.37684 3.93831 3.66833
# Velocity P-wave (km/s) = 5.18632 6.30215 5.77127
#
# Compressibility (1/GPa) = 0.03622367
#
# Stress axis : x y z
#
# Youngs Moduli (GPa) = 81.46675 132.79834 34.98976
#
# Poissons Ratio (x) = 0.43736 0.02031
# Poissons Ratio (y) = 0.26831 0.07721
# Poissons Ratio (z) = 0.04729 0.29304
#
# Static dielectric constant tensor:
#      x y z
#    x 1.960520 0.000000 0.000000 
#    y 0.000000 1.923880 0.000000 
#    z 0.000000 0.000000 1.858330 
# 
# From -- ./inp_files/11692.got.cif
#   From: 2010.05.17/outbox.cif.g08.bks.cpg/sg41_6_cif.got.tgz:11692.got - 2010.06.03 18:54:24.
