data_PCOD9367800
_publ_section_title
;
Structure prediction by ZEFSAII (Michael W. Deem and Ramdas Pophale) SiO2 
 PCOD9367800
Probable space group: A B A 2
;
_chemical_formula_sum "Si O2"
_cell_formula_units_Z 60
_cell_length_a 18.835611
_cell_length_b 12.124991
_cell_length_c 12.256500
_cell_angle_alpha 90.000000
_cell_angle_beta 90.000000
_cell_angle_gamma 90.000000
_cell_volume 2799.159250
_symmetry_space_group_name_H-M "A B A 2"
_symmetry_group_IT_number 41
_symmetry_cell_setting 'orthorhombic'
loop_
_space_group_symop_operation_xyz
x,y,z
-x,-y,z
1/2-x,y,1/2+z
1/2+x,-y,1/2+z
x,1/2+y,1/2+z
-x,1/2-y,1/2+z
1/2-x,1/2+y,z
1/2+x,1/2-y,z
loop_
_atom_site_type_symbol
_atom_site_label
_atom_site_fract_x
_atom_site_fract_y
_atom_site_fract_z
Si Si1 0.740140 0.811579 0.955860
Si Si2 0.467795 0.714233 0.928289
Si Si3 0.849689 0.787435 0.762448
Si Si4 0.712282 0.473264 0.616566
Si Si5 0.500000 0.000000 0.560249
Si Si6 0.105355 0.680510 0.836911
Si Si7 0.856926 0.704354 0.106394
Si Si8 0.634735 0.529062 0.216864
O O1 0.784369 0.795078 0.846295
O O2 0.661401 0.773748 0.925302
O O3 0.734368 0.938266 0.994517
O O4 0.785146 0.753362 0.051280
O O5 0.417501 0.672868 0.830702
O O6 0.527326 0.791698 0.877101
O O7 0.500955 0.609340 0.987829
O O8 0.418226 0.774987 0.017339
O O9 0.829483 0.868128 0.664788
O O10 0.863736 0.659947 0.734899
O O11 0.661609 0.577592 0.624815
O O12 0.786485 0.496014 0.677275
O O13 0.571683 0.000473 0.632258
O O14 0.122665 0.736230 0.719494
O O15 0.117175 0.549939 0.819096
#
# Coordination Sequence:
#
# PCOD9367800 Si02
#       8
#     8   8   8   8   4   8   8   8
#     4  11  23  44  68 108 139 181 244 289 363 431
#     4  11  28  47  71 104 146 198 246 300 372 443
#     4  11  26  47  69 109 144 190 248 291 367 436
#     4  12  25  44  77 104 147 185 243 309 361 428
#     4  12  26  48  74 100 152 192 244 300 378 438
#     4  12  25  47  73 104 142 194 243 298 372 434
#     4  11  26  50  68 110 147 182 250 305 355 451
#     4  12  24  48  74 103 149 196 236 311 364 441
#
# _framework density 21.435008
#
# number of rings (size 3 to 8) (size 9 to 14) (size 15 to 20)
#    0.000    0.533    4.000    3.200    9.333    1.067 
#    0.000    1.333    0.000    0.000    0.000    0.000 
#    0.000    0.000    0.000    0.000    0.000    0.000 
#
# Total GULP energy -167778.817465 kJ/mol
# GULP energy per Si atom -5592.627249 kJ/mol
# Density = 2.138622 g / cm^3
# Si number density = 21.435008 Si / 1000 Ang^3
#
#
#
# Elastic Constant Matrix: (Units=GPa)
#
#
# Indices 1 2 3 4 5 6 
#
# 1 121.7344 32.3847 43.3497 0.0000 0.0000 0.0000
# 2 32.3847 136.5836 40.6248 0.0000 0.0000 0.0000
# 3 43.3497 40.6248 81.7753 0.0000 0.0000 0.0000
# 4 0.0000 0.0000 0.0000 30.8196 0.0000 0.0000
# 5 0.0000 0.0000 0.0000 0.0000 37.8289 0.0000
# 6 0.0000 0.0000 0.0000 0.0000 0.0000 26.8810
#
#
#
# Elastic Compliance Matrix: (Units=1/GPa)
#
#
# Indices 1 2 3 4 5 6 
#
# 1 0.010231 -0.000954 -0.004950 0.000000 0.000000 0.000000
# 2 -0.000954 0.008680 -0.003807 0.000000 0.000000 0.000000
# 3 -0.004950 -0.003807 0.016744 0.000000 0.000000 0.000000
# 4 0.000000 0.000000 0.000000 0.032447 0.000000 0.000000
# 5 0.000000 0.000000 0.000000 0.000000 0.026435 0.000000
# 6 0.000000 0.000000 0.000000 0.000000 0.000000 0.037201
#
#
# Mechanical properties :
#
#
# Convention : Reuss Voigt Hill
#
# Bulk Modulus (GPa) = 61.59688 63.64574 62.62131
# Shear Modulus (GPa) = 31.93499 34.02152 32.97826
#
# Velocity S-wave (km/s) = 3.86405 3.98828 3.92666
# Velocity P-wave (km/s) = 6.97902 7.13901 7.05947
#
# Compressibility (1/GPa) = 0.01623459
#
# Stress axis : x y z
#
# Youngs Moduli (GPa) = 97.74315 115.20998 59.72450
#
# Poissons Ratio (x) = 0.10986 0.29562
# Poissons Ratio (y) = 0.09320 0.22734
# Poissons Ratio (z) = 0.48380 0.43855
#
# Static dielectric constant tensor:
#      x y z
#    x 1.758120 0.000000 0.000000 
#    y 0.000000 1.776980 0.000000 
#    z 0.000000 0.000000 1.808530 
# 
# From -- ./inp_files/6289.got.cif
#   From: 2010.05.17/outbox.cif.g08.bks.cpg/sg41_4_cif.got.tgz:6289.got - 2010.06.03 18:54:24.
