data_PCOD9367191
_publ_section_title
;
Structure prediction by ZEFSAII (Michael W. Deem and Ramdas Pophale) SiO2 
 PCOD9367191
Probable space group: A B A 2
;
_chemical_formula_sum "Si O2"
_cell_formula_units_Z 64
_cell_length_a 14.785111
_cell_length_b 8.765523
_cell_length_c 21.710684
_cell_angle_alpha 90.000000
_cell_angle_beta 90.000000
_cell_angle_gamma 90.000000
_cell_volume 2813.687941
_symmetry_space_group_name_H-M "A B A 2"
_symmetry_group_IT_number 41
_symmetry_cell_setting 'orthorhombic'
loop_
_space_group_symop_operation_xyz
x,y,z
-x,-y,z
1/2-x,y,1/2+z
1/2+x,-y,1/2+z
x,1/2+y,1/2+z
-x,1/2-y,1/2+z
1/2-x,1/2+y,z
1/2+x,1/2-y,z
loop_
_atom_site_type_symbol
_atom_site_label
_atom_site_fract_x
_atom_site_fract_y
_atom_site_fract_z
Si Si1 0.129142 0.111000 0.455270
Si Si2 0.053799 0.275505 0.930850
Si Si3 0.801230 0.174607 0.783967
Si Si4 0.185800 0.811473 0.066565
Si Si5 0.790887 0.395017 0.366698
Si Si6 0.377049 0.162906 0.553053
Si Si7 0.433592 0.709590 0.187186
Si Si8 0.370653 0.360140 0.201970
O O1 0.133694 0.196165 0.520921
O O2 0.230775 0.101308 0.428559
O O3 0.052055 0.202954 0.416579
O O4 0.092328 0.939420 0.452498
O O5 0.121990 0.209853 0.879765
O O6 0.065660 0.172266 0.991162
O O7 0.783731 0.331650 0.819123
O O8 0.870424 0.181905 0.727530
O O9 0.703698 0.149230 0.753663
O O10 0.821649 0.052212 0.836693
O O11 0.290265 0.774415 0.052738
O O12 0.168087 0.787609 0.138995
O O13 0.158117 0.988255 0.057608
O O14 0.433083 0.218920 0.612985
O O15 0.394859 0.538185 0.194672
O O16 0.533990 0.719727 0.213701
#
# Coordination Sequence:
#
# PCOD9367191 Si02
#       8
#     8   8   8   8   8   8   8   8
#     4  11  25  46  70 100 136 179 226 286 350 411
#     4  11  25  46  70 102 135 176 230 282 351 413
#     4  12  24  45  70  95 136 181 231 279 333 410
#     4  11  22  39  71 102 138 179 221 286 350 411
#     4  12  26  45  68  97 135 180 233 279 334 406
#     4  11  22  39  71 102 139 177 224 282 353 413
#     4  10  22  43  70 102 133 180 224 282 347 411
#     4  10  22  43  70 100 136 175 229 280 349 411
#
# _framework density 22.745946
#
# number of rings (size 3 to 8) (size 9 to 14) (size 15 to 20)
#    0.000    1.000    5.000    1.500    1.750    2.500 
#    2.250    1.875    0.000    0.000    0.000    0.000 
#    0.000    0.000    0.000    0.000    0.000    0.000 
#
# Total GULP energy -178758.049546 kJ/mol
# GULP energy per Si atom -5586.189048 kJ/mol
# Density = 2.269418 g / cm^3
# Si number density = 22.745946 Si / 1000 Ang^3
#
#
#
# Elastic Constant Matrix: (Units=GPa)
#
#
# Indices 1 2 3 4 5 6 
#
# 1 100.1205 20.9664 29.3919 0.0000 0.0000 0.0000
# 2 20.9664 74.5413 28.8431 0.0000 0.0000 0.0000
# 3 29.3919 28.8431 91.1195 0.0000 0.0000 0.0000
# 4 0.0000 0.0000 0.0000 30.2581 0.0000 0.0000
# 5 0.0000 0.0000 0.0000 0.0000 16.0120 0.0000
# 6 0.0000 0.0000 0.0000 0.0000 0.0000 22.9400
#
#
#
# Elastic Compliance Matrix: (Units=1/GPa)
#
#
# Indices 1 2 3 4 5 6 
#
# 1 0.011292 -0.002013 -0.003005 0.000000 0.000000 0.000000
# 2 -0.002013 0.015647 -0.004303 0.000000 0.000000 0.000000
# 3 -0.003005 -0.004303 0.013306 0.000000 0.000000 0.000000
# 4 0.000000 0.000000 0.000000 0.033049 0.000000 0.000000
# 5 0.000000 0.000000 0.000000 0.000000 0.062453 0.000000
# 6 0.000000 0.000000 0.000000 0.000000 0.000000 0.043592
#
#
# Mechanical properties :
#
#
# Convention : Reuss Voigt Hill
#
# Bulk Modulus (GPa) = 46.29374 47.13155 46.71265
# Shear Modulus (GPa) = 24.36850 26.28068 25.32459
#
# Velocity S-wave (km/s) = 3.27667 3.40281 3.34034
# Velocity P-wave (km/s) = 5.89170 6.01703 5.95470
#
# Compressibility (1/GPa) = 0.02160119
#
# Stress axis : x y z
#
# Youngs Moduli (GPa) = 88.56026 63.91065 75.15325
#
# Poissons Ratio (x) = 0.12867 0.22584
# Poissons Ratio (y) = 0.17830 0.32342
# Poissons Ratio (z) = 0.26613 0.27504
#
# Static dielectric constant tensor:
#      x y z
#    x 1.854750 0.000000 0.000000 
#    y 0.000000 1.849410 0.000000 
#    z 0.000000 0.000000 1.881090 
# 
# From -- ./inp_files/12254.got.cif
#   From: 2010.05.17/outbox.cif.g08.bks.cpg/sg41_7_cif.got.tgz:12254.got - 2010.06.03 18:54:24.
