data_PCOD9367803
_publ_section_title
;
Structure prediction by ZEFSAII (Michael W. Deem and Ramdas Pophale) SiO2 
 PCOD9367803
Probable space group: A B A 2
;
_chemical_formula_sum "Si O2"
_cell_formula_units_Z 48
_cell_length_a 21.638647
_cell_length_b 8.673566
_cell_length_c 11.401239
_cell_angle_alpha 90.000000
_cell_angle_beta 90.000000
_cell_angle_gamma 90.000000
_cell_volume 2139.832796
_symmetry_space_group_name_H-M "A B A 2"
_symmetry_group_IT_number 41
_symmetry_cell_setting 'orthorhombic'
loop_
_space_group_symop_operation_xyz
x,y,z
-x,-y,z
1/2-x,y,1/2+z
1/2+x,-y,1/2+z
x,1/2+y,1/2+z
-x,1/2-y,1/2+z
1/2-x,1/2+y,z
1/2+x,1/2-y,z
loop_
_atom_site_type_symbol
_atom_site_label
_atom_site_fract_x
_atom_site_fract_y
_atom_site_fract_z
Si Si1 0.540020 0.368316 0.075540
Si Si2 0.219795 0.511934 0.526534
Si Si3 0.375327 0.714956 0.878060
Si Si4 0.659732 0.820448 0.978638
Si Si5 0.449722 0.631658 0.661065
Si Si6 0.647799 0.965712 0.745406
O O1 0.500000 0.500000 0.011880
O O2 0.493107 0.282005 0.160922
O O3 0.592811 0.447126 0.152739
O O4 0.574263 0.260664 0.981316
O O5 0.180683 0.624551 0.440548
O O6 0.193909 0.339915 0.507291
O O7 0.291149 0.542999 0.502326
O O8 0.207531 0.549078 0.663188
O O9 0.409722 0.614588 0.778631
O O10 0.356218 0.870724 0.811376
O O11 0.643915 0.833381 0.842100
O O12 0.599239 0.845556 0.056428
O O13 0.500000 0.500000 0.643115
#
# Coordination Sequence:
#
# PCOD9367803 Si02
#       6
#     8   8   8   8   8   8
#     4  11  23  44  70 106 150 191 238 294 367 441
#     4  11  27  49  74 109 145 193 255 310 372 439
#     4  11  23  47  72 105 149 190 243 305 366 438
#     4  12  27  48  76 107 147 196 248 311 374 441
#     4  12  26  42  72 113 147 193 247 299 371 453
#     4  11  25  47  74 105 148 194 241 308 362 443
#
# _framework density 22.431657999999999
#
# number of rings (size 3 to 8) (size 9 to 14) (size 15 to 20)
#    0.000    0.667    3.333    3.500    7.000    3.333 
#    0.000    0.000    0.000    0.000    0.000    0.000 
#    0.000    0.000    0.000    0.000    0.000    0.000 
#
# Total GULP energy -134222.070538 kJ/mol
# GULP energy per Si atom -5592.586272 kJ/mol
# Density = 2.238060 g / cm^3
# Si number density = 22.431658 Si / 1000 Ang^3
#
#
#
# Elastic Constant Matrix: (Units=GPa)
#
#
# Indices 1 2 3 4 5 6 
#
# 1 82.2279 9.7776 12.6049 0.0000 0.0000 0.0000
# 2 9.7776 57.9975 9.9610 0.0000 0.0000 0.0000
# 3 12.6049 9.9610 108.0994 0.0000 0.0000 0.0000
# 4 0.0000 0.0000 0.0000 39.2152 0.0000 0.0000
# 5 0.0000 0.0000 0.0000 0.0000 25.3379 0.0000
# 6 0.0000 0.0000 0.0000 0.0000 0.0000 35.8040
#
#
#
# Elastic Compliance Matrix: (Units=1/GPa)
#
#
# Indices 1 2 3 4 5 6 
#
# 1 0.012585 -0.001900 -0.001292 0.000000 0.000000 0.000000
# 2 -0.001900 0.017806 -0.001419 0.000000 0.000000 0.000000
# 3 -0.001292 -0.001419 0.009532 0.000000 0.000000 0.000000
# 4 0.000000 0.000000 0.000000 0.025500 0.000000 0.000000
# 5 0.000000 0.000000 0.000000 0.000000 0.039467 0.000000
# 6 0.000000 0.000000 0.000000 0.000000 0.000000 0.027930
#
#
# Mechanical properties :
#
#
# Convention : Reuss Voigt Hill
#
# Bulk Modulus (GPa) = 32.57241 34.77908 33.67574
# Shear Modulus (GPa) = 32.83492 34.47018 33.65255
#
# Velocity S-wave (km/s) = 3.83008 3.92430 3.87748
# Velocity P-wave (km/s) = 5.84052 6.00596 5.92382
#
# Compressibility (1/GPa) = 0.03070083
#
# Stress axis : x y z
#
# Youngs Moduli (GPa) = 79.45752 56.16036 104.90724
#
# Poissons Ratio (x) = 0.10669 0.13559
# Poissons Ratio (y) = 0.15095 0.14889
# Poissons Ratio (z) = 0.10270 0.07971
#
# Static dielectric constant tensor:
#      x y z
#    x 1.818850 0.000000 0.000000 
#    y 0.000000 1.888590 0.000000 
#    z 0.000000 0.000000 1.797080 
# 
# From -- ./inp_files/6406.got.cif
#   From: 2010.05.17/outbox.cif.g08.bks.cpg/sg41_4_cif.got.tgz:6406.got - 2010.06.03 18:54:24.
