data_PCOD9367611
_publ_section_title
;
Structure prediction by ZEFSAII (Michael W. Deem and Ramdas Pophale) SiO2 
 PCOD9367611
Probable space group: A B A 2
;
_chemical_formula_sum "Si O2"
_cell_formula_units_Z 60
_cell_length_a 9.315300
_cell_length_b 15.777797
_cell_length_c 16.936219
_cell_angle_alpha 90.000000
_cell_angle_beta 90.000000
_cell_angle_gamma 90.000000
_cell_volume 2489.199304
_symmetry_space_group_name_H-M "A B A 2"
_symmetry_group_IT_number 41
_symmetry_cell_setting 'orthorhombic'
loop_
_space_group_symop_operation_xyz
x,y,z
-x,-y,z
1/2-x,y,1/2+z
1/2+x,-y,1/2+z
x,1/2+y,1/2+z
-x,1/2-y,1/2+z
1/2-x,1/2+y,z
1/2+x,1/2-y,z
loop_
_atom_site_type_symbol
_atom_site_label
_atom_site_fract_x
_atom_site_fract_y
_atom_site_fract_z
Si Si1 0.921150 0.789285 0.134110
Si Si2 0.323404 0.662728 0.869217
Si Si3 0.862392 0.559364 0.626135
Si Si4 0.264711 0.026170 0.972241
Si Si5 0.500000 0.000000 0.848009
Si Si6 0.639206 0.967326 0.235024
Si Si7 0.459907 0.194168 0.815013
Si Si8 0.602575 0.356938 0.588010
O O1 0.061689 0.849984 0.126662
O O2 0.913383 0.772808 0.228152
O O3 0.973608 0.708490 0.085661
O O4 0.766267 0.822725 0.104924
O O5 0.351830 0.594653 0.938724
O O6 0.300253 0.604833 0.791338
O O7 0.423117 0.740540 0.847604
O O8 0.165832 0.700687 0.879537
O O9 0.794808 0.534309 0.540889
O O10 0.750930 0.533036 0.695857
O O11 0.000000 0.500000 0.637575
O O12 0.352583 0.989797 0.898787
O O13 0.385293 0.083718 0.013616
O O14 0.496395 0.093388 0.807181
O O15 0.573041 0.917006 0.161780
O O16 0.500000 0.000000 0.281005
#
# Coordination Sequence:
#
# PCOD9367611 Si02
#       8
#     8   8   8   8   4   8   8   8
#     4  12  23  41  71  98 131 173 229 279 344 391
#     4  11  24  47  66 101 138 175 229 281 340 414
#     4  11  23  43  68  96 135 180 221 285 330 405
#     4  10  25  44  64  99 140 178 229 276 343 415
#     4  10  26  44  68  96 138 186 226 278 350 420
#     4  11  24  42  67 101 136 178 226 280 335 402
#     4  11  23  45  71  99 136 176 228 285 340 406
#     4  11  25  43  66 100 136 171 229 283 332 415
#
# _framework density 24.104136
#
# number of rings (size 3 to 8) (size 9 to 14) (size 15 to 20)
#    0.000    1.067    5.333    0.000   10.267    4.800 
#    2.400    0.000    0.000    0.000    0.000    0.000 
#    0.000    0.000    0.000    0.000    0.000    0.000 
#
# Total GULP energy -167413.619022 kJ/mol
# GULP energy per Si atom -5580.453967 kJ/mol
# Density = 2.404927 g / cm^3
# Si number density = 24.104136 Si / 1000 Ang^3
#
#
#
# Elastic Constant Matrix: (Units=GPa)
#
#
# Indices 1 2 3 4 5 6 
#
# 1 103.5146 29.4573 -1.7427 0.0000 0.0000 0.0000
# 2 29.4573 42.3454 -2.0158 0.0000 0.0000 0.0000
# 3 -1.7427 -2.0158 49.5011 0.0000 0.0000 0.0000
# 4 0.0000 0.0000 0.0000 -88.1641 0.0000 0.0000
# 5 0.0000 0.0000 0.0000 0.0000 -11.0106 0.0000
# 6 0.0000 0.0000 0.0000 0.0000 0.0000 43.9800
#
#
#
# Elastic Compliance Matrix: (Units=1/GPa)
#
#
# Indices 1 2 3 4 5 6 
#
# 1 0.012045 -0.008375 0.000083 0.000000 0.000000 0.000000
# 2 -0.008375 0.029485 0.000906 0.000000 0.000000 0.000000
# 3 0.000083 0.000906 0.020241 0.000000 0.000000 0.000000
# 4 0.000000 0.000000 0.000000 -0.011342 0.000000 0.000000
# 5 0.000000 0.000000 0.000000 0.000000 -0.090822 0.000000
# 6 0.000000 0.000000 0.000000 0.000000 0.000000 0.022738
#
#
# Mechanical properties :
#
#
# Convention : Reuss Voigt Hill
#
# Bulk Modulus (GPa) = 21.27733 27.41764 24.34748
# Shear Modulus (GPa) = 391.12902 0.27189 195.70046
#
# Velocity S-wave (km/s) = 12.75220 0.33622 9.02030
# Velocity P-wave (km/s) = 15.02236 3.39854 10.89085
#
# Compressibility (1/GPa) = 0.04699839
#
# Stress axis : x y z
#
# Youngs Moduli (GPa) = 83.02045 33.91601 49.40371
#
# Poissons Ratio (x) = 0.28405 -0.00410
# Poissons Ratio (y) = 0.69532 -0.04475
# Poissons Ratio (z) = -0.00689 -0.03072
#
# Static dielectric constant tensor:
#      x y z
#    x 2.067280 0.000000 0.000000 
#    y 0.000000 2.615570 0.000000 
#    z 0.000000 0.000000 1.938140 
# 
# From -- ./inp_files/9763.got.cif
#   From: 2010.05.17/outbox.cif.g08.bks.cpg/sg41_5_cif.got.tgz:9763.got - 2010.06.03 18:54:24.
