data_PCOD9367220
_publ_section_title
;
Structure prediction by ZEFSAII (Michael W. Deem and Ramdas Pophale) SiO2 
 PCOD9367220
Probable space group: A B A 2
;
_chemical_formula_sum "Si O2"
_cell_formula_units_Z 56
_cell_length_a 13.650452
_cell_length_b 20.341411
_cell_length_c 8.846751
_cell_angle_alpha 90.000000
_cell_angle_beta 90.000000
_cell_angle_gamma 90.000000
_cell_volume 2456.472524
_symmetry_space_group_name_H-M "A B A 2"
_symmetry_group_IT_number 41
_symmetry_cell_setting 'orthorhombic'
loop_
_space_group_symop_operation_xyz
x,y,z
-x,-y,z
1/2-x,y,1/2+z
1/2+x,-y,1/2+z
x,1/2+y,1/2+z
-x,1/2-y,1/2+z
1/2-x,1/2+y,z
1/2+x,1/2-y,z
loop_
_atom_site_type_symbol
_atom_site_label
_atom_site_fract_x
_atom_site_fract_y
_atom_site_fract_z
Si Si1 0.518799 0.678819 0.003760
Si Si2 0.606600 0.446430 0.971667
Si Si3 0.738622 0.840205 0.876709
Si Si4 0.210297 0.257469 0.629726
Si Si5 0.524150 0.390370 0.462158
Si Si6 0.500000 0.500000 0.232257
Si Si7 0.000000 0.500000 0.214739
Si Si8 0.581678 0.213585 0.167225
O O1 0.485934 0.604162 0.981122
O O2 0.613249 0.699980 0.103123
O O3 0.433107 0.713389 0.100943
O O4 0.533191 0.704829 0.831658
O O5 0.594141 0.484157 0.128308
O O6 0.697645 0.399427 0.943540
O O7 0.590599 0.495928 0.832288
O O8 0.791090 0.811162 0.726128
O O9 0.736219 0.772391 0.968032
O O10 0.626993 0.865919 0.891576
O O11 0.303230 0.299657 0.681534
O O12 0.522338 0.563596 0.333980
O O13 0.524555 0.439270 0.606256
O O14 0.466933 0.329410 0.534485
#
# Coordination Sequence:
#
# PCOD9367220 Si02
#       8
#     8   8   8   8   8   4   4   8
#     4  12  25  42  68 102 142 181 221 294 358 413
#     4  11  23  44  70  98 138 183 235 289 351 414
#     4  12  23  42  70 105 134 181 243 289 335 437
#     4  12  24  39  64 111 143 177 232 277 365 433
#     4  11  23  45  71  99 138 182 235 291 349 410
#     4  10  26  44  66  98 128 184 240 288 344 408
#     4  10  22  44  68  88 132 190 236 282 352 412
#     4  12  24  42  68 102 141 179 222 295 356 413
#
# _framework density 22.796918000000002
#
# number of rings (size 3 to 8) (size 9 to 14) (size 15 to 20)
#    0.000    0.571    5.714    2.571    2.000    0.000 
#    0.000    8.571    0.000    0.000    0.000    0.000 
#    0.000    0.000    0.000    0.000    0.000    0.000 
#
# Total GULP energy -156141.576134 kJ/mol
# GULP energy per Si atom -5576.484862 kJ/mol
# Density = 2.274503 g / cm^3
# Si number density = 22.796918 Si / 1000 Ang^3
#
#
#
# Elastic Constant Matrix: (Units=GPa)
#
#
# Indices 1 2 3 4 5 6 
#
# 1 121.4447 42.9593 20.9966 0.0000 0.0000 0.0000
# 2 42.9593 76.7234 41.6695 0.0000 0.0000 0.0000
# 3 20.9966 41.6695 115.3799 0.0000 0.0000 0.0000
# 4 0.0000 0.0000 0.0000 49.7001 0.0000 0.0000
# 5 0.0000 0.0000 0.0000 0.0000 17.4101 0.0000
# 6 0.0000 0.0000 0.0000 0.0000 0.0000 37.0048
#
#
#
# Elastic Compliance Matrix: (Units=1/GPa)
#
#
# Indices 1 2 3 4 5 6 
#
# 1 0.010274 -0.005893 0.000259 0.000000 0.000000 0.000000
# 2 -0.005893 0.019595 -0.006004 0.000000 0.000000 0.000000
# 3 0.000259 -0.006004 0.010788 0.000000 0.000000 0.000000
# 4 0.000000 0.000000 0.000000 0.020121 0.000000 0.000000
# 5 0.000000 0.000000 0.000000 0.000000 0.057438 0.000000
# 6 0.000000 0.000000 0.000000 0.000000 0.000000 0.027023
#
#
# Mechanical properties :
#
#
# Convention : Reuss Voigt Hill
#
# Bulk Modulus (GPa) = 57.53865 58.31099 57.92482
# Shear Modulus (GPa) = 28.68457 34.68451 31.68454
#
# Velocity S-wave (km/s) = 3.55105 3.90482 3.73213
# Velocity P-wave (km/s) = 6.48905 6.77968 6.63596
#
# Compressibility (1/GPa) = 0.01737962
#
# Stress axis : x y z
#
# Youngs Moduli (GPa) = 97.33193 51.03465 92.69266
#
# Poissons Ratio (x) = 0.30076 -0.02398
# Poissons Ratio (y) = 0.57360 0.55654
# Poissons Ratio (z) = -0.02518 0.30642
#
# Static dielectric constant tensor:
#      x y z
#    x 1.904030 0.000000 0.000000 
#    y 0.000000 1.850300 0.000000 
#    z 0.000000 0.000000 1.914310 
# 
# From -- ./inp_files/2709.got.cif
#   From: 2010.05.17/outbox.cif.g08.bks.cpg/sg41_2_cif.got.tgz:2709.got - 2010.06.03 18:54:24.
