data_PCOD9367024
_publ_section_title
;
Structure prediction by ZEFSAII (Michael W. Deem and Ramdas Pophale) SiO2 
 PCOD9367024
Probable space group: A B A 2
;
_chemical_formula_sum "Si O2"
_cell_formula_units_Z 32
_cell_length_a 4.947910
_cell_length_b 20.120307
_cell_length_c 12.538627
_cell_angle_alpha 90.000000
_cell_angle_beta 90.000000
_cell_angle_gamma 90.000000
_cell_volume 1248.263804
_symmetry_space_group_name_H-M "A B A 2"
_symmetry_group_IT_number 41
_symmetry_cell_setting 'orthorhombic'
loop_
_space_group_symop_operation_xyz
x,y,z
-x,-y,z
1/2-x,y,1/2+z
1/2+x,-y,1/2+z
x,1/2+y,1/2+z
-x,1/2-y,1/2+z
1/2-x,1/2+y,z
1/2+x,1/2-y,z
loop_
_atom_site_type_symbol
_atom_site_label
_atom_site_fract_x
_atom_site_fract_y
_atom_site_fract_z
Si Si1 0.028666 0.800055 0.195840
Si Si2 0.894579 0.205248 0.955867
Si Si3 0.500000 0.000000 0.131193
Si Si4 0.000000 0.500000 0.485266
Si Si5 0.678082 0.899160 0.310806
O O1 0.790666 0.745686 0.207996
O O2 0.946198 0.861322 0.270933
O O3 0.040818 0.823839 0.072706
O O4 0.087600 0.270270 0.949853
O O5 0.987027 0.156196 0.863974
O O6 0.574961 0.938064 0.207114
O O7 0.758032 0.022929 0.062344
O O8 0.829415 0.452504 0.405620
#
# Coordination Sequence:
#
# PCOD9367024 Si02
#       5
#     8   8   4   4   8
#     4  10  22  39  64  99 133 166 209 263 323 391
#     4  10  22  39  64  99 133 166 209 263 323 391
#     4  11  28  47  66  96 130 173 228 281 326 382
#     4  11  28  47  66  96 130 173 228 281 326 382
#     4  11  24  44  72  94 132 179 220 270 334 397
#
# _framework density 25.635608000000001
#
# number of rings (size 3 to 8) (size 9 to 14) (size 15 to 20)
#    0.000    1.500    0.000    3.000    0.000   18.000 
#    0.000    0.000    0.000    0.000    0.000    0.000 
#    0.000    0.000    0.000    0.000    0.000    0.000 
#
# Total GULP energy -89563.386319 kJ/mol
# GULP energy per Si atom -5597.711645 kJ/mol
# Density = 2.557726 g / cm^3
# Si number density = 25.635608 Si / 1000 Ang^3
#
#
#
# Elastic Constant Matrix: (Units=GPa)
#
#
# Indices 1 2 3 4 5 6 
#
# 1 143.0909 33.4689 56.8994 0.0000 0.0000 0.0000
# 2 33.4689 95.2977 76.6344 0.0000 0.0000 0.0000
# 3 56.8994 76.6344 163.1435 0.0000 0.0000 0.0000
# 4 0.0000 0.0000 0.0000 -4.8421 0.0000 0.0000
# 5 0.0000 0.0000 0.0000 0.0000 31.6301 0.0000
# 6 0.0000 0.0000 0.0000 0.0000 0.0000 28.7746
#
#
#
# Elastic Compliance Matrix: (Units=1/GPa)
#
#
# Indices 1 2 3 4 5 6 
#
# 1 0.008165 -0.000928 -0.002412 0.000000 0.000000 0.000000
# 2 -0.000928 0.016969 -0.007647 0.000000 0.000000 0.000000
# 3 -0.002412 -0.007647 0.010563 0.000000 0.000000 0.000000
# 4 0.000000 0.000000 0.000000 -0.206521 0.000000 0.000000
# 5 0.000000 0.000000 0.000000 0.000000 0.031615 0.000000
# 6 0.000000 0.000000 0.000000 0.000000 0.000000 0.034753
#
#
# Mechanical properties :
#
#
# Convention : Reuss Voigt Hill
#
# Bulk Modulus (GPa) = 72.87299 81.72640 77.29969
# Shear Modulus (GPa) = -64.17788 26.74782 -18.71503
#
# Velocity S-wave (km/s) = -5.00889 3.23365 -2.70486
# Velocity P-wave (km/s) = 2.22797 6.77431 4.52368
#
# Compressibility (1/GPa) = 0.01372251
#
# Stress axis : x y z
#
# Youngs Moduli (GPa) = 122.47984 58.93104 94.67151
#
# Poissons Ratio (x) = 0.05470 0.22831
# Poissons Ratio (y) = 0.11368 0.72398
# Poissons Ratio (z) = 0.29537 0.45066
#
# Static dielectric constant tensor:
#      x y z
#    x 2.593820 0.000000 0.000000 
#    y 0.000000 2.041680 0.000000 
#    z 0.000000 0.000000 2.095360 
# 
# From -- ./inp_files/6754.got.cif
#   From: 2010.05.17/outbox.cif.g08.bks.cpg/sg41_4_cif.got.tgz:6754.got - 2010.06.03 18:54:24.
