data_PCOD9367405
_publ_section_title
;
Structure prediction by ZEFSAII (Michael W. Deem and Ramdas Pophale) SiO2 
 PCOD9367405
Probable space group: A B A 2
;
_chemical_formula_sum "Si O2"
_cell_formula_units_Z 60
_cell_length_a 24.255714
_cell_length_b 8.477696
_cell_length_c 12.212460
_cell_angle_alpha 90.000000
_cell_angle_beta 90.000000
_cell_angle_gamma 90.000000
_cell_volume 2511.279530
_symmetry_space_group_name_H-M "A B A 2"
_symmetry_group_IT_number 41
_symmetry_cell_setting 'orthorhombic'
loop_
_space_group_symop_operation_xyz
x,y,z
-x,-y,z
1/2-x,y,1/2+z
1/2+x,-y,1/2+z
x,1/2+y,1/2+z
-x,1/2-y,1/2+z
1/2-x,1/2+y,z
1/2+x,1/2-y,z
loop_
_atom_site_type_symbol
_atom_site_label
_atom_site_fract_x
_atom_site_fract_y
_atom_site_fract_z
Si Si1 0.160534 0.932426 0.291460
Si Si2 0.870964 0.999616 0.921001
Si Si3 0.329853 0.760225 0.576850
Si Si4 0.000000 0.500000 0.906332
Si Si5 0.852738 0.712319 0.213434
Si Si6 0.211755 0.272971 0.993307
Si Si7 0.421536 0.013068 0.106744
Si Si8 0.050551 0.220318 0.803821
O O1 0.150691 0.113728 0.262963
O O2 0.188853 0.845131 0.188604
O O3 0.193915 0.901447 0.402852
O O4 0.102454 0.839823 0.294848
O O5 0.823533 0.878242 0.955911
O O6 0.927183 0.907161 0.892319
O O7 0.850864 0.087793 0.811819
O O8 0.874006 0.125930 0.017414
O O9 0.276752 0.745938 0.500157
O O10 0.362524 0.600916 0.599861
O O11 0.997845 0.662841 0.839033
O O12 0.948543 0.495655 0.988975
O O13 0.909365 0.661081 0.152444
O O14 0.808093 0.698102 0.117257
O O15 0.455137 0.122288 0.191877
#
# Coordination Sequence:
#
# PCOD9367405 Si02
#       8
#     8   8   8   4   8   8   8   8
#     4  10  23  47  72 100 143 191 228 292 352 415
#     4  10  23  45  68 102 143 184 232 286 343 421
#     4  11  25  45  70 100 146 190 236 285 351 417
#     4  12  24  46  80  98 136 182 234 306 362 416
#     4  11  24  44  74 102 144 188 230 290 350 413
#     4  11  25  45  67 103 144 188 243 276 337 424
#     4  10  25  47  69 105 140 180 237 295 355 431
#     4   9  23  48  69 102 138 171 236 288 354 430
#
# _framework density 23.892204
#
# number of rings (size 3 to 8) (size 9 to 14) (size 15 to 20)
#    0.000    1.600    1.333    2.400    7.467    1.067 
#    9.600    0.000    0.000    0.000    0.000    0.000 
#    0.000    0.000    0.000    0.000    0.000    0.000 
#
# Total GULP energy -167868.039387 kJ/mol
# GULP energy per Si atom -5595.601313 kJ/mol
# Density = 2.383782 g / cm^3
# Si number density = 23.892204 Si / 1000 Ang^3
#
#
#
# Elastic Constant Matrix: (Units=GPa)
#
#
# Indices 1 2 3 4 5 6 
#
# 1 47.5095 20.9284 14.7192 0.0000 0.0000 0.0000
# 2 20.9284 115.5325 29.2361 0.0000 0.0000 0.0000
# 3 14.7192 29.2361 99.6503 0.0000 0.0000 0.0000
# 4 0.0000 0.0000 0.0000 44.4251 0.0000 0.0000
# 5 0.0000 0.0000 0.0000 0.0000 33.2053 0.0000
# 6 0.0000 0.0000 0.0000 0.0000 0.0000 14.8375
#
#
#
# Elastic Compliance Matrix: (Units=1/GPa)
#
#
# Indices 1 2 3 4 5 6 
#
# 1 0.023389 -0.003632 -0.002389 0.000000 0.000000 0.000000
# 2 -0.003632 0.009914 -0.002372 0.000000 0.000000 0.000000
# 3 -0.002389 -0.002372 0.011084 0.000000 0.000000 0.000000
# 4 0.000000 0.000000 0.000000 0.022510 0.000000 0.000000
# 5 0.000000 0.000000 0.000000 0.000000 0.030116 0.000000
# 6 0.000000 0.000000 0.000000 0.000000 0.000000 0.067397
#
#
# Mechanical properties :
#
#
# Convention : Reuss Voigt Hill
#
# Bulk Modulus (GPa) = 36.23236 43.60662 39.91949
# Shear Modulus (GPa) = 26.26119 31.68082 28.97100
#
# Velocity S-wave (km/s) = 3.31894 3.64536 3.48598
# Velocity P-wave (km/s) = 5.46672 6.00077 5.73996
#
# Compressibility (1/GPa) = 0.02759963
#
# Stress axis : x y z
#
# Youngs Moduli (GPa) = 42.75589 100.86946 90.22081
#
# Poissons Ratio (x) = 0.36638 0.21554
# Poissons Ratio (y) = 0.15530 0.21401
# Poissons Ratio (z) = 0.10215 0.23927
#
# Static dielectric constant tensor:
#      x y z
#    x 1.960120 0.000000 0.000000 
#    y 0.000000 1.933420 0.000000 
#    z 0.000000 0.000000 1.919560 
# 
# From -- ./inp_files/6582.got.cif
#   From: 2010.05.17/outbox.cif.g08.bks.cpg/sg41_4_cif.got.tgz:6582.got - 2010.06.03 18:54:24.
