data_PCOD9367067
_publ_section_title
;
Structure prediction by ZEFSAII (Michael W. Deem and Ramdas Pophale) SiO2 
 PCOD9367067
Probable space group: A B A 2
;
_chemical_formula_sum "Si O2"
_cell_formula_units_Z 44
_cell_length_a 26.308506
_cell_length_b 14.327727
_cell_length_c 5.028822
_cell_angle_alpha 90.000000
_cell_angle_beta 90.000000
_cell_angle_gamma 90.000000
_cell_volume 1895.569655
_symmetry_space_group_name_H-M "A B A 2"
_symmetry_group_IT_number 41
_symmetry_cell_setting 'orthorhombic'
loop_
_space_group_symop_operation_xyz
x,y,z
-x,-y,z
1/2-x,y,1/2+z
1/2+x,-y,1/2+z
x,1/2+y,1/2+z
-x,1/2-y,1/2+z
1/2-x,1/2+y,z
1/2+x,1/2-y,z
loop_
_atom_site_type_symbol
_atom_site_label
_atom_site_fract_x
_atom_site_fract_y
_atom_site_fract_z
Si Si1 0.278529 0.225237 0.518570
Si Si2 0.104354 0.922482 0.867949
Si Si3 0.283520 0.501091 0.985819
Si Si4 0.500000 0.500000 0.066006
Si Si5 0.476559 0.702743 0.101696
Si Si6 0.614903 0.696876 0.370409
O O1 0.231909 0.249363 0.323728
O O2 0.285273 0.113907 0.492733
O O3 0.327547 0.274192 0.404651
O O4 0.053200 0.982064 0.912670
O O5 0.102627 0.834955 0.073214
O O6 0.158888 0.968470 0.937463
O O7 0.105180 0.890521 0.563805
O O8 0.255866 0.471245 0.256342
O O9 0.488776 0.598982 0.205838
O O10 0.491099 0.772767 0.337698
O O11 0.420142 0.721414 0.992130
#
# Coordination Sequence:
#
# PCOD9367067 Si02
#       6
#     8   8   8   4   8   8
#     4  10  22  40  66  93 132 177 223 282 347 407
#     4  12  26  41  70  99 136 185 225 294 349 417
#     4  10  22  43  65  97 133 177 233 281 342 419
#     4  12  26  48  74 100 146 186 238 288 372 402
#     4  12  25  47  70 100 137 183 233 293 339 426
#     4  12  24  44  64 101 137 173 237 284 347 417
#
# _framework density 23.212018
#
# number of rings (size 3 to 8) (size 9 to 14) (size 15 to 20)
#    0.000    0.727    3.636    3.273    0.000    7.273 
#    0.000    7.273    0.000    0.000    0.000    0.000 
#    0.000    0.000    0.000    0.000    0.000    0.000 
#
# Total GULP energy -123049.973962 kJ/mol
# GULP energy per Si atom -5593.180635 kJ/mol
# Density = 2.315919 g / cm^3
# Si number density = 23.212018 Si / 1000 Ang^3
#
#
#
# Elastic Constant Matrix: (Units=GPa)
#
#
# Indices 1 2 3 4 5 6 
#
# 1 146.6575 18.6370 0.7481 0.0000 0.0000 0.0000
# 2 18.6370 70.0503 -9.3240 0.0000 0.0000 0.0000
# 3 0.7481 -9.3240 72.9020 0.0000 0.0000 0.0000
# 4 0.0000 0.0000 0.0000 12.4515 0.0000 0.0000
# 5 0.0000 0.0000 0.0000 0.0000 30.8066 0.0000
# 6 0.0000 0.0000 0.0000 0.0000 0.0000 50.9036
#
#
#
# Elastic Compliance Matrix: (Units=1/GPa)
#
#
# Indices 1 2 3 4 5 6 
#
# 1 0.007064 -0.001922 -0.000318 0.000000 0.000000 0.000000
# 2 -0.001922 0.015046 0.001944 0.000000 0.000000 0.000000
# 3 -0.000318 0.001944 0.013969 0.000000 0.000000 0.000000
# 4 0.000000 0.000000 0.000000 0.080312 0.000000 0.000000
# 5 0.000000 0.000000 0.000000 0.000000 0.032461 0.000000
# 6 0.000000 0.000000 0.000000 0.000000 0.000000 0.019645
#
#
# Mechanical properties :
#
#
# Convention : Reuss Voigt Hill
#
# Bulk Modulus (GPa) = 28.17964 34.41466 31.29715
# Shear Modulus (GPa) = 27.63692 37.46891 32.55291
#
# Velocity S-wave (km/s) = 3.45429 4.02207 3.74895
# Velocity P-wave (km/s) = 5.29868 6.03555 5.67908
#
# Compressibility (1/GPa) = 0.03548661
#
# Stress axis : x y z
#
# Youngs Moduli (GPa) = 141.55365 66.46487 71.58735
#
# Poissons Ratio (x) = 0.12774 0.02279
# Poissons Ratio (y) = 0.27205 -0.13917
# Poissons Ratio (z) = 0.04506 -0.12921
#
# Static dielectric constant tensor:
#      x y z
#    x 1.860710 0.000000 0.000000 
#    y 0.000000 1.909800 0.000000 
#    z 0.000000 0.000000 1.799100 
# 
# From -- ./inp_files/1101.got.cif
#   From: 2010.05.17/outbox.cif.g08.bks.cpg/sg41_1_cif.got.tgz:1101.got - 2010.06.03 18:54:24.
