data_PCOD9367481
_publ_section_title
;
Structure prediction by ZEFSAII (Michael W. Deem and Ramdas Pophale) SiO2 
 PCOD9367481
Probable space group: A B A 2
;
_chemical_formula_sum "Si O2"
_cell_formula_units_Z 48
_cell_length_a 13.986533
_cell_length_b 9.448897
_cell_length_c 15.274049
_cell_angle_alpha 90.000000
_cell_angle_beta 90.000000
_cell_angle_gamma 90.000000
_cell_volume 2018.577224
_symmetry_space_group_name_H-M "A B A 2"
_symmetry_group_IT_number 41
_symmetry_cell_setting 'orthorhombic'
loop_
_space_group_symop_operation_xyz
x,y,z
-x,-y,z
1/2-x,y,1/2+z
1/2+x,-y,1/2+z
x,1/2+y,1/2+z
-x,1/2-y,1/2+z
1/2-x,1/2+y,z
1/2+x,1/2-y,z
loop_
_atom_site_type_symbol
_atom_site_label
_atom_site_fract_x
_atom_site_fract_y
_atom_site_fract_z
Si Si1 0.804870 0.581267 0.315740
Si Si2 0.697991 0.182761 0.056440
Si Si3 0.189874 0.036397 0.160652
Si Si4 0.016762 0.313436 0.950882
Si Si5 0.695314 0.855637 0.913847
Si Si6 0.500000 0.000000 0.400968
Si Si7 0.000000 0.500000 0.779231
O O1 0.773930 0.516317 0.224633
O O2 0.807318 0.749301 0.330496
O O3 0.730798 0.506927 0.382929
O O4 0.908350 0.528015 0.342194
O O5 0.692265 0.300612 0.132568
O O6 0.779740 0.065980 0.078756
O O7 0.592429 0.135313 0.023670
O O8 0.731715 0.278686 0.976018
O O9 0.091112 0.012713 0.214344
O O10 0.905779 0.353337 0.962474
O O11 0.027196 0.374623 0.850158
O O12 0.018668 0.143145 0.953929
#
# Coordination Sequence:
#
# PCOD9367481 Si02
#       7
#     8   8   8   8   8   4   4
#     4  11  22  47  72 106 139 197 249 302 365 455
#     4  12  28  47  71 108 155 187 243 314 389 431
#     4  12  29  47  72 110 155 188 240 325 388 433
#     4  11  26  47  79 106 138 207 258 297 360 471
#     4  11  23  45  77 100 143 195 256 296 359 462
#     4  10  24  41  81 100 140 186 268 290 354 439
#     4  12  28  51  79 104 148 204 258 298 380 467
#
# _framework density 23.779123999999999
#
# number of rings (size 3 to 8) (size 9 to 14) (size 15 to 20)
#    0.000    0.667    3.333    3.000   11.667    0.000 
#    3.000    0.000    0.000    0.000    0.000    0.000 
#    0.000    0.000    0.000    0.000    0.000    0.000 
#
# Total GULP energy -134009.728870 kJ/mol
# GULP energy per Si atom -5583.738703 kJ/mol
# Density = 2.372500 g / cm^3
# Si number density = 23.779124 Si / 1000 Ang^3
#
#
#
# Elastic Constant Matrix: (Units=GPa)
#
#
# Indices 1 2 3 4 5 6 
#
# 1 135.2430 39.3452 -2.0806 0.0000 0.0000 0.0000
# 2 39.3452 180.7025 35.6607 0.0000 0.0000 0.0000
# 3 -2.0806 35.6607 40.8485 0.0000 0.0000 0.0000
# 4 0.0000 0.0000 0.0000 38.7433 0.0000 0.0000
# 5 0.0000 0.0000 0.0000 0.0000 46.4603 0.0000
# 6 0.0000 0.0000 0.0000 0.0000 0.0000 20.1183
#
#
#
# Elastic Compliance Matrix: (Units=1/GPa)
#
#
# Indices 1 2 3 4 5 6 
#
# 1 0.008077 -0.002223 0.002352 0.000000 0.000000 0.000000
# 2 -0.002223 0.007297 -0.006484 0.000000 0.000000 0.000000
# 3 0.002352 -0.006484 0.030261 0.000000 0.000000 0.000000
# 4 0.000000 0.000000 0.000000 0.025811 0.000000 0.000000
# 5 0.000000 0.000000 0.000000 0.000000 0.021524 0.000000
# 6 0.000000 0.000000 0.000000 0.000000 0.000000 0.049706
#
#
# Mechanical properties :
#
#
# Convention : Reuss Voigt Hill
#
# Bulk Modulus (GPa) = 30.37138 55.84943 43.11040
# Shear Modulus (GPa) = 30.05511 39.98895 35.02203
#
# Velocity S-wave (km/s) = 3.55903 4.10528 3.84188
# Velocity P-wave (km/s) = 5.44876 6.78298 6.15215
#
# Compressibility (1/GPa) = 0.03292574
#
# Stress axis : x y z
#
# Youngs Moduli (GPa) = 123.80942 137.03325 33.04586
#
# Poissons Ratio (x) = 0.30459 -0.07772
# Poissons Ratio (y) = 0.27520 0.21427
# Poissons Ratio (z) = -0.29118 0.88851
#
# Static dielectric constant tensor:
#      x y z
#    x 1.907870 0.000000 0.000000 
#    y 0.000000 1.984600 0.000000 
#    z 0.000000 0.000000 2.037010 
# 
# From -- ./inp_files/8367.got.cif
#   From: 2010.05.17/outbox.cif.g08.bks.cpg/sg41_5_cif.got.tgz:8367.got - 2010.06.03 18:54:24.
