data_PCOD9367485
_publ_section_title
;
Structure prediction by ZEFSAII (Michael W. Deem and Ramdas Pophale) SiO2 
 PCOD9367485
Probable space group: A B A 2
;
_chemical_formula_sum "Si O2"
_cell_formula_units_Z 40
_cell_length_a 13.143475
_cell_length_b 11.521339
_cell_length_c 13.039908
_cell_angle_alpha 90.000000
_cell_angle_beta 90.000000
_cell_angle_gamma 90.000000
_cell_volume 1974.638890
_symmetry_space_group_name_H-M "A B A 2"
_symmetry_group_IT_number 41
_symmetry_cell_setting 'orthorhombic'
loop_
_space_group_symop_operation_xyz
x,y,z
-x,-y,z
1/2-x,y,1/2+z
1/2+x,-y,1/2+z
x,1/2+y,1/2+z
-x,1/2-y,1/2+z
1/2-x,1/2+y,z
1/2+x,1/2-y,z
loop_
_atom_site_type_symbol
_atom_site_label
_atom_site_fract_x
_atom_site_fract_y
_atom_site_fract_z
Si Si1 0.449245 0.627370 0.857130
Si Si2 0.390863 0.491164 0.553782
Si Si3 0.124798 0.684122 0.877409
Si Si4 0.735002 0.374271 0.700344
Si Si5 0.189951 0.249119 0.004218
O O1 0.500000 0.500000 0.854676
O O2 0.533620 0.728744 0.852771
O O3 0.366304 0.647296 0.767376
O O4 0.383049 0.647537 0.961015
O O5 0.500000 0.500000 0.608407
O O6 0.395164 0.587965 0.464707
O O7 0.298273 0.517324 0.630422
O O8 0.373721 0.365827 0.507412
O O9 0.171419 0.619508 0.778555
O O10 0.216707 0.759877 0.925528
O O11 0.765196 0.279088 0.615749
#
# Coordination Sequence:
#
# PCOD9367485 Si02
#       5
#     8   8   8   8   8
#     4  11  24  43  68  96 134 176 217 267 325 390
#     4  11  22  44  66  94 133 170 214 275 328 383
#     4  10  24  42  65  95 132 172 218 267 329 388
#     4  10  25  39  65  99 125 171 219 264 328 380
#     4  10  24  43  66  95 131 170 219 269 329 385
#
# _framework density 20.256868999999998
#
# number of rings (size 3 to 8) (size 9 to 14) (size 15 to 20)
#    0.000    1.600    2.000    0.600   14.000    1.600 
#    0.000    1.000    0.000    0.000    0.000    0.000 
#    0.000    0.000    0.000    0.000    0.000    0.000 
#
# Total GULP energy -111563.250928 kJ/mol
# GULP energy per Si atom -5578.162546 kJ/mol
# Density = 2.021076 g / cm^3
# Si number density = 20.256869 Si / 1000 Ang^3
#
#
#
# Elastic Constant Matrix: (Units=GPa)
#
#
# Indices 1 2 3 4 5 6 
#
# 1 107.3582 51.0926 43.0777 0.0000 0.0000 0.0000
# 2 51.0926 89.2287 43.6274 0.0000 0.0000 0.0000
# 3 43.0777 43.6274 100.9415 0.0000 0.0000 0.0000
# 4 0.0000 0.0000 0.0000 11.7881 0.0000 0.0000
# 5 0.0000 0.0000 0.0000 0.0000 31.4478 0.0000
# 6 0.0000 0.0000 0.0000 0.0000 0.0000 31.6696
#
#
#
# Elastic Compliance Matrix: (Units=1/GPa)
#
#
# Indices 1 2 3 4 5 6 
#
# 1 0.013516 -0.006237 -0.003072 0.000000 0.000000 0.000000
# 2 -0.006237 0.017088 -0.004724 0.000000 0.000000 0.000000
# 3 -0.003072 -0.004724 0.013260 0.000000 0.000000 0.000000
# 4 0.000000 0.000000 0.000000 0.084831 0.000000 0.000000
# 5 0.000000 0.000000 0.000000 0.000000 0.031799 0.000000
# 6 0.000000 0.000000 0.000000 0.000000 0.000000 0.031576
#
#
# Mechanical properties :
#
#
# Convention : Reuss Voigt Hill
#
# Bulk Modulus (GPa) = 63.30293 63.68045 63.49169
# Shear Modulus (GPa) = 22.18269 25.62982 23.90626
#
# Velocity S-wave (km/s) = 3.31277 3.56088 3.43907
# Velocity P-wave (km/s) = 6.77869 6.95782 6.86884
#
# Compressibility (1/GPa) = 0.01579706
#
# Stress axis : x y z
#
# Youngs Moduli (GPa) = 73.98875 58.52012 75.41732
#
# Poissons Ratio (x) = 0.36498 0.23170
# Poissons Ratio (y) = 0.46146 0.35627
# Poissons Ratio (z) = 0.22731 0.27644
#
# Static dielectric constant tensor:
#      x y z
#    x 1.747810 0.000000 0.000000 
#    y 0.000000 1.673870 0.000000 
#    z 0.000000 0.000000 1.751110 
# 
# From -- ./inp_files/5367.got.cif
#   From: 2010.05.17/outbox.cif.g08.bks.cpg/sg41_3_cif.got.tgz:5367.got - 2010.06.03 18:54:24.
