data_PCOD9367490
_publ_section_title
;
Structure prediction by ZEFSAII (Michael W. Deem and Ramdas Pophale) SiO2 
 PCOD9367490
Probable space group: A B A 2
;
_chemical_formula_sum "Si O2"
_cell_formula_units_Z 64
_cell_length_a 11.725089
_cell_length_b 17.000363
_cell_length_c 14.756234
_cell_angle_alpha 90.000000
_cell_angle_beta 90.000000
_cell_angle_gamma 90.000000
_cell_volume 2941.371474
_symmetry_space_group_name_H-M "A B A 2"
_symmetry_group_IT_number 41
_symmetry_cell_setting 'orthorhombic'
loop_
_space_group_symop_operation_xyz
x,y,z
-x,-y,z
1/2-x,y,1/2+z
1/2+x,-y,1/2+z
x,1/2+y,1/2+z
-x,1/2-y,1/2+z
1/2-x,1/2+y,z
1/2+x,1/2-y,z
loop_
_atom_site_type_symbol
_atom_site_label
_atom_site_fract_x
_atom_site_fract_y
_atom_site_fract_z
Si Si1 0.703746 0.150629 0.412120
Si Si2 0.498954 0.913415 0.683213
Si Si3 0.469265 0.610952 0.984494
Si Si4 0.758964 0.068605 0.238666
Si Si5 0.827931 0.906757 0.807799
Si Si6 0.514899 0.594034 0.657971
Si Si7 0.392984 0.193414 0.829924
Si Si8 0.564731 0.201027 0.989919
O O1 0.603117 0.103523 0.460832
O O2 0.772702 0.099977 0.339986
O O3 0.637951 0.216723 0.352645
O O4 0.800735 0.184423 0.477589
O O5 0.554279 0.922102 0.584297
O O6 0.363135 0.901381 0.678861
O O7 0.555631 0.841375 0.736945
O O8 0.500000 0.000000 0.730441
O O9 0.397389 0.576271 0.900562
O O10 0.448326 0.704803 0.994022
O O11 0.640532 0.098781 0.199307
O O12 0.738688 0.976251 0.255675
O O13 0.730715 0.846567 0.836760
O O14 0.922782 0.881778 0.734210
O O15 0.500000 0.500000 0.635817
O O16 0.513581 0.652930 0.573988
O O17 0.488554 0.173373 0.904471
#
# Coordination Sequence:
#
# PCOD9367490 Si02
#       8
#     8   8   8   8   8   8   8   8
#     4  11  23  43  70  96 131 180 231 277 339 406
#     4  12  26  44  66 103 135 176 227 283 342 404
#     4  11  26  42  67 100 136 176 223 280 341 405
#     4  11  23  43  72  95 131 180 231 277 339 411
#     4  11  23  46  68  96 138 181 222 277 344 405
#     4  10  24  42  69 101 133 176 227 278 335 403
#     4  11  25  44  67  96 138 177 219 279 341 398
#     4  11  24  44  68 100 133 178 226 279 339 400
#
# _framework density 21.758559000000002
#
# number of rings (size 3 to 8) (size 9 to 14) (size 15 to 20)
#    0.000    1.000    5.000    0.750    3.500    3.500 
#    0.000    0.000    0.000    0.000    0.000    0.000 
#    0.000    0.000    0.000    0.000    0.000    0.000 
#
# Total GULP energy -178552.366027 kJ/mol
# GULP energy per Si atom -5579.761438 kJ/mol
# Density = 2.170904 g / cm^3
# Si number density = 21.758559 Si / 1000 Ang^3
#
#
#
# Elastic Constant Matrix: (Units=GPa)
#
#
# Indices 1 2 3 4 5 6 
#
# 1 95.7732 17.7740 5.0878 0.0000 0.0000 0.0000
# 2 17.7740 38.7782 23.1367 0.0000 0.0000 0.0000
# 3 5.0878 23.1367 87.4844 0.0000 0.0000 0.0000
# 4 0.0000 0.0000 0.0000 25.4552 0.0000 0.0000
# 5 0.0000 0.0000 0.0000 0.0000 13.4933 0.0000
# 6 0.0000 0.0000 0.0000 0.0000 0.0000 19.9564
#
#
#
# Elastic Compliance Matrix: (Units=1/GPa)
#
#
# Indices 1 2 3 4 5 6 
#
# 1 0.011466 -0.005768 0.000859 0.000000 0.000000 0.000000
# 2 -0.005768 0.033520 -0.008530 0.000000 0.000000 0.000000
# 3 0.000859 -0.008530 0.013636 0.000000 0.000000 0.000000
# 4 0.000000 0.000000 0.000000 0.039285 0.000000 0.000000
# 5 0.000000 0.000000 0.000000 0.000000 0.074111 0.000000
# 6 0.000000 0.000000 0.000000 0.000000 0.000000 0.050109
#
#
# Mechanical properties :
#
#
# Convention : Reuss Voigt Hill
#
# Bulk Modulus (GPa) = 31.50058 34.89254 33.19656
# Shear Modulus (GPa) = 19.26135 23.51681 21.38908
#
# Velocity S-wave (km/s) = 2.97851 3.29113 3.13871
# Velocity P-wave (km/s) = 5.13200 5.52387 5.33154
#
# Compressibility (1/GPa) = 0.03174545
#
# Stress axis : x y z
#
# Youngs Moduli (GPa) = 87.21342 29.83249 73.33275
#
# Poissons Ratio (x) = 0.17207 -0.06296
# Poissons Ratio (y) = 0.50303 0.62550
# Poissons Ratio (z) = -0.07488 0.25446
#
# Static dielectric constant tensor:
#      x y z
#    x 1.823190 0.000000 0.000000 
#    y 0.000000 1.858140 0.000000 
#    z 0.000000 0.000000 1.800230 
# 
# From -- ./inp_files/8085.got.cif
#   From: 2010.05.17/outbox.cif.g08.bks.cpg/sg41_5_cif.got.tgz:8085.got - 2010.06.03 18:54:24.
