data_PCOD9367515
_publ_section_title
;
Structure prediction by ZEFSAII (Michael W. Deem and Ramdas Pophale) SiO2 
 PCOD9367515
Probable space group: A B A 2
;
_chemical_formula_sum "Si O2"
_cell_formula_units_Z 40
_cell_length_a 7.951059
_cell_length_b 20.087941
_cell_length_c 11.300819
_cell_angle_alpha 90.000000
_cell_angle_beta 90.000000
_cell_angle_gamma 90.000000
_cell_volume 1804.971377
_symmetry_space_group_name_H-M "A B A 2"
_symmetry_group_IT_number 41
_symmetry_cell_setting 'orthorhombic'
loop_
_space_group_symop_operation_xyz
x,y,z
-x,-y,z
1/2-x,y,1/2+z
1/2+x,-y,1/2+z
x,1/2+y,1/2+z
-x,1/2-y,1/2+z
1/2-x,1/2+y,z
1/2+x,1/2-y,z
loop_
_atom_site_type_symbol
_atom_site_label
_atom_site_fract_x
_atom_site_fract_y
_atom_site_fract_z
Si Si1 0.807413 0.976135 0.371390
Si Si2 0.690962 0.028575 0.117715
Si Si3 0.867821 0.171504 0.111718
Si Si4 0.396605 0.673341 0.341103
Si Si5 0.867829 0.257011 0.477901
O O1 0.812287 0.897373 0.358357
O O2 0.740084 0.006146 0.249498
O O3 0.728395 0.997228 0.497477
O O4 0.000000 0.000000 0.373859
O O5 0.752566 0.105636 0.111207
O O6 0.500000 0.000000 0.110569
O O7 0.987268 0.173437 0.225940
O O8 0.747165 0.235136 0.088425
O O9 0.006051 0.182604 0.007173
O O10 0.248155 0.725890 0.365494
O O11 0.524630 0.692090 0.446055
#
# Coordination Sequence:
#
# PCOD9367515 Si02
#       5
#     8   8   8   8   8
#     4  11  24  45  69  99 141 187 241 299 357 430
#     4  11  26  46  73 104 143 192 243 298 363 427
#     4  11  23  45  71 104 144 186 242 299 359 437
#     4  11  23  44  68 102 140 184 242 298 358 438
#     4  10  24  43  71 104 141 184 237 301 374 420
#
# _framework density 22.161014999999999
#
# number of rings (size 3 to 8) (size 9 to 14) (size 15 to 20)
#    0.000    1.200    2.000    3.600    2.800    2.400 
#    7.200    0.000    0.000    0.000    0.000    0.000 
#    0.000    0.000    0.000    0.000    0.000    0.000 
#
# Total GULP energy -111347.843271 kJ/mol
# GULP energy per Si atom -5567.392164 kJ/mol
# Density = 2.211058 g / cm^3
# Si number density = 22.161015 Si / 1000 Ang^3
#
#
#
# Elastic Constant Matrix: (Units=GPa)
#
#
# Indices 1 2 3 4 5 6 
#
# 1 79.8069 24.7874 11.7812 0.0000 0.0000 0.0000
# 2 24.7874 91.0836 -0.2944 0.0000 0.0000 0.0000
# 3 11.7812 -0.2944 94.0163 0.0000 0.0000 0.0000
# 4 0.0000 0.0000 0.0000 33.4173 0.0000 0.0000
# 5 0.0000 0.0000 0.0000 0.0000 26.8564 0.0000
# 6 0.0000 0.0000 0.0000 0.0000 0.0000 20.5723
#
#
#
# Elastic Compliance Matrix: (Units=1/GPa)
#
#
# Indices 1 2 3 4 5 6 
#
# 1 0.013973 -0.003808 -0.001763 0.000000 0.000000 0.000000
# 2 -0.003808 0.012017 0.000515 0.000000 0.000000 0.000000
# 3 -0.001763 0.000515 0.010859 0.000000 0.000000 0.000000
# 4 0.000000 0.000000 0.000000 0.029925 0.000000 0.000000
# 5 0.000000 0.000000 0.000000 0.000000 0.037235 0.000000
# 6 0.000000 0.000000 0.000000 0.000000 0.000000 0.048609
#
#
# Mechanical properties :
#
#
# Convention : Reuss Voigt Hill
#
# Bulk Modulus (GPa) = 37.40219 37.49503 37.44861
# Shear Modulus (GPa) = 29.13022 31.41137 30.27080
#
# Velocity S-wave (km/s) = 3.62951 3.76894 3.69988
# Velocity P-wave (km/s) = 5.87184 5.99133 5.93189
#
# Compressibility (1/GPa) = 0.02673640
#
# Stress axis : x y z
#
# Youngs Moduli (GPa) = 71.56482 83.21540 92.08968
#
# Poissons Ratio (x) = 0.31692 0.16235
# Poissons Ratio (y) = 0.27255 -0.04741
# Poissons Ratio (z) = 0.12616 -0.04284
#
# Static dielectric constant tensor:
#      x y z
#    x 1.864820 0.000000 0.000000 
#    y 0.000000 1.817800 0.000000 
#    z 0.000000 0.000000 1.860460 
# 
# From -- ./inp_files/4357.got.cif
#   From: 2010.05.17/outbox.cif.g08.bks.cpg/sg41_3_cif.got.tgz:4357.got - 2010.06.03 18:54:24.
