data_PCOD9367115
_publ_section_title
;
Structure prediction by ZEFSAII (Michael W. Deem and Ramdas Pophale) SiO2 
 PCOD9367115
Probable space group: A B A 2
;
_chemical_formula_sum "Si O2"
_cell_formula_units_Z 60
_cell_length_a 14.133381
_cell_length_b 19.761392
_cell_length_c 8.898705
_cell_angle_alpha 90.000000
_cell_angle_beta 90.000000
_cell_angle_gamma 90.000000
_cell_volume 2485.366324
_symmetry_space_group_name_H-M "A B A 2"
_symmetry_group_IT_number 41
_symmetry_cell_setting 'orthorhombic'
loop_
_space_group_symop_operation_xyz
x,y,z
-x,-y,z
1/2-x,y,1/2+z
1/2+x,-y,1/2+z
x,1/2+y,1/2+z
-x,1/2-y,1/2+z
1/2-x,1/2+y,z
1/2+x,1/2-y,z
loop_
_atom_site_type_symbol
_atom_site_label
_atom_site_fract_x
_atom_site_fract_y
_atom_site_fract_z
Si Si1 0.793714 0.543969 0.541340
Si Si2 0.000000 0.500000 0.217449
Si Si3 0.665902 0.162176 0.180918
Si Si4 0.710507 0.248709 0.912150
Si Si5 0.624939 0.965841 0.978881
Si Si6 0.525625 0.618559 0.910454
Si Si7 0.395569 0.588305 0.177856
Si Si8 0.199586 0.661636 0.158276
O O1 0.731688 0.596338 0.641234
O O2 0.721122 0.503608 0.432338
O O3 0.872578 0.588300 0.460514
O O4 0.853140 0.482224 0.614078
O O5 0.969596 0.441121 0.326598
O O6 0.078128 0.481685 0.094988
O O7 0.733523 0.205510 0.290195
O O8 0.565699 0.161864 0.270569
O O9 0.651320 0.200861 0.022163
O O10 0.657637 0.305224 0.809927
O O11 0.784161 0.285288 0.024102
O O12 0.566886 0.935957 0.839878
O O13 0.649852 0.902067 0.083230
O O14 0.467415 0.626408 0.065380
O O15 0.305028 0.636237 0.202823
#
# Coordination Sequence:
#
# PCOD9367115 Si02
#       8
#     8   4   8   8   8   8   8   8
#     4  11  22  40  71  98 139 178 236 276 362 427
#     4  12  26  40  64 102 148 172 222 306 362 428
#     4  11  22  42  70 101 137 183 238 290 349 425
#     4  10  22  41  74  98 131 180 244 295 330 420
#     4  11  25  41  68 104 136 183 234 293 359 430
#     4  12  24  42  63 103 144 184 219 290 367 422
#     4  11  24  40  70 101 143 180 221 302 363 424
#     4  10  22  44  73 100 133 183 250 286 346 419
#
# _framework density 24.141310000000001
#
# number of rings (size 3 to 8) (size 9 to 14) (size 15 to 20)
#    0.000    1.067    5.333    0.800    5.600    0.000 
#    0.000    0.000   11.733    0.000    0.000    0.000 
#    0.000    0.000    0.000    0.000    0.000    0.000 
#
# Total GULP energy -167175.669231 kJ/mol
# GULP energy per Si atom -5572.522308 kJ/mol
# Density = 2.408636 g / cm^3
# Si number density = 24.141310 Si / 1000 Ang^3
#
#
#
# Elastic Constant Matrix: (Units=GPa)
#
#
# Indices 1 2 3 4 5 6 
#
# 1 41.3163 3.1886 33.0752 0.0000 0.0000 0.0000
# 2 3.1886 60.8816 29.9776 0.0000 0.0000 0.0000
# 3 33.0752 29.9776 153.3791 0.0000 0.0000 0.0000
# 4 0.0000 0.0000 0.0000 41.7923 0.0000 0.0000
# 5 0.0000 0.0000 0.0000 0.0000 34.3336 0.0000
# 6 0.0000 0.0000 0.0000 0.0000 0.0000 10.0920
#
#
#
# Elastic Compliance Matrix: (Units=1/GPa)
#
#
# Indices 1 2 3 4 5 6 
#
# 1 0.029421 0.001752 -0.006687 0.000000 0.000000 0.000000
# 2 0.001752 0.018279 -0.003950 0.000000 0.000000 0.000000
# 3 -0.006687 -0.003950 0.008734 0.000000 0.000000 0.000000
# 4 0.000000 0.000000 0.000000 0.023928 0.000000 0.000000
# 5 0.000000 0.000000 0.000000 0.000000 0.029126 0.000000
# 6 0.000000 0.000000 0.000000 0.000000 0.000000 0.099089
#
#
# Mechanical properties :
#
#
# Convention : Reuss Voigt Hill
#
# Bulk Modulus (GPa) = 25.86457 43.11776 34.49116
# Shear Modulus (GPa) = 20.89993 29.86595 25.38294
#
# Velocity S-wave (km/s) = 2.94553 3.52110 3.24610
# Velocity P-wave (km/s) = 4.72284 5.86773 5.32614
#
# Compressibility (1/GPa) = 0.03866293
#
# Stress axis : x y z
#
# Youngs Moduli (GPa) = 33.98882 54.70860 114.49713
#
# Poissons Ratio (x) = -0.09583 0.76563
# Poissons Ratio (y) = -0.05954 0.45229
# Poissons Ratio (z) = 0.22728 0.21611
#
# Static dielectric constant tensor:
#      x y z
#    x 2.010260 0.000000 0.000000 
#    y 0.000000 2.038210 0.000000 
#    z 0.000000 0.000000 1.981850 
# 
# From -- ./inp_files/2761.got.cif
#   From: 2010.05.17/outbox.cif.g08.bks.cpg/sg41_2_cif.got.tgz:2761.got - 2010.06.03 18:54:24.
