data_PCOD9367185
_publ_section_title
;
Structure prediction by ZEFSAII (Michael W. Deem and Ramdas Pophale) SiO2 
 PCOD9367185
Probable space group: A B A 2
;
_chemical_formula_sum "Si O2"
_cell_formula_units_Z 32
_cell_length_a 22.419160
_cell_length_b 8.100392
_cell_length_c 6.928351
_cell_angle_alpha 90.000000
_cell_angle_beta 90.000000
_cell_angle_gamma 90.000000
_cell_volume 1258.216146
_symmetry_space_group_name_H-M "A B A 2"
_symmetry_group_IT_number 41
_symmetry_cell_setting 'orthorhombic'
loop_
_space_group_symop_operation_xyz
x,y,z
-x,-y,z
1/2-x,y,1/2+z
1/2+x,-y,1/2+z
x,1/2+y,1/2+z
-x,1/2-y,1/2+z
1/2-x,1/2+y,z
1/2+x,1/2-y,z
loop_
_atom_site_type_symbol
_atom_site_label
_atom_site_fract_x
_atom_site_fract_y
_atom_site_fract_z
Si Si1 0.188757 0.470912 0.456790
Si Si2 0.562196 0.581967 0.348518
Si Si3 0.435884 0.537750 0.911229
Si Si4 0.682383 0.397519 0.366458
O O1 0.129508 0.496271 0.327474
O O2 0.255622 0.505482 0.390140
O O3 0.179028 0.600099 0.632103
O O4 0.187444 0.272996 0.482810
O O5 0.500000 0.500000 0.402109
O O6 0.563558 0.765711 0.428222
O O7 0.620824 0.486421 0.415529
O O8 0.563423 0.565425 0.113102
O O9 0.500000 0.500000 0.816574
#
# Coordination Sequence:
#
# PCOD9367185 Si02
#       4
#     8   8   8   8
#     4  11  23  41  65  97 132 173 218 270 326 389
#     4  10  22  43  67  97 131 172 218 270 326 388
#     4  10  22  43  67  97 131 172 218 270 326 388
#     4  11  23  41  65  97 132 173 218 270 326 389
#
# _framework density 25.432831
#
# number of rings (size 3 to 8) (size 9 to 14) (size 15 to 20)
#    0.000    1.500    0.000    4.500    0.000    4.000 
#    0.000   25.000    0.000    0.000    0.000    0.000 
#    0.000    0.000    0.000    0.000    0.000    0.000 
#
# Total GULP energy -89298.357337 kJ/mol
# GULP energy per Si atom -5581.147334 kJ/mol
# Density = 2.537494 g / cm^3
# Si number density = 25.432831 Si / 1000 Ang^3
#
#
#
# Elastic Constant Matrix: (Units=GPa)
#
#
# Indices 1 2 3 4 5 6 
#
# 1 312.3753 66.3110 -14.8308 0.0000 0.0000 0.0000
# 2 66.3110 120.0053 -20.7992 0.0000 0.0000 0.0000
# 3 -14.8308 -20.7992 104.5124 0.0000 0.0000 0.0000
# 4 0.0000 0.0000 0.0000 6.5049 0.0000 0.0000
# 5 0.0000 0.0000 0.0000 0.0000 5.4375 0.0000
# 6 0.0000 0.0000 0.0000 0.0000 0.0000 63.4678
#
#
#
# Elastic Compliance Matrix: (Units=1/GPa)
#
#
# Indices 1 2 3 4 5 6 
#
# 1 0.003628 -0.001984 0.000120 0.000000 0.000000 0.000000
# 2 -0.001984 0.009716 0.001652 0.000000 0.000000 0.000000
# 3 0.000120 0.001652 0.009914 0.000000 0.000000 0.000000
# 4 0.000000 0.000000 0.000000 0.153731 0.000000 0.000000
# 5 0.000000 0.000000 0.000000 0.000000 0.183910 0.000000
# 6 0.000000 0.000000 0.000000 0.000000 0.000000 0.015756
#
#
# Mechanical properties :
#
#
# Convention : Reuss Voigt Hill
#
# Bulk Modulus (GPa) = 43.79482 66.47277 55.13380
# Shear Modulus (GPa) = 12.99750 48.82949 30.91349
#
# Velocity S-wave (km/s) = 2.26310 4.38646 3.49018
# Velocity P-wave (km/s) = 4.90775 7.20056 6.16174
#
# Compressibility (1/GPa) = 0.02283375
#
# Stress axis : x y z
#
# Youngs Moduli (GPa) = 275.62353 102.92753 100.86708
#
# Poissons Ratio (x) = 0.20421 -0.01211
# Poissons Ratio (y) = 0.54683 -0.16663
# Poissons Ratio (z) = -0.03308 -0.17003
#
# Static dielectric constant tensor:
#      x y z
#    x 2.038290 0.000000 0.000000 
#    y 0.000000 1.947610 0.000000 
#    z 0.000000 0.000000 2.217830 
# 
# From -- ./inp_files/3276.got.cif
#   From: 2010.05.17/outbox.cif.g08.bks.cpg/sg41_2_cif.got.tgz:3276.got - 2010.06.03 18:54:24.
