data_PCOD9367710
_publ_section_title
;
Structure prediction by ZEFSAII (Michael W. Deem and Ramdas Pophale) SiO2 
 PCOD9367710
Probable space group: A B A 2
;
_chemical_formula_sum "Si O2"
_cell_formula_units_Z 64
_cell_length_a 11.254297
_cell_length_b 29.777638
_cell_length_c 9.567095
_cell_angle_alpha 90.000000
_cell_angle_beta 90.000000
_cell_angle_gamma 90.000000
_cell_volume 3206.185934
_symmetry_space_group_name_H-M "A B A 2"
_symmetry_group_IT_number 41
_symmetry_cell_setting 'orthorhombic'
loop_
_space_group_symop_operation_xyz
x,y,z
-x,-y,z
1/2-x,y,1/2+z
1/2+x,-y,1/2+z
x,1/2+y,1/2+z
-x,1/2-y,1/2+z
1/2-x,1/2+y,z
1/2+x,1/2-y,z
loop_
_atom_site_type_symbol
_atom_site_label
_atom_site_fract_x
_atom_site_fract_y
_atom_site_fract_z
Si Si1 0.979340 0.652181 0.112410
Si Si2 0.149470 0.541322 0.410227
Si Si3 0.683180 0.915655 0.122505
Si Si4 0.883971 0.563595 0.467744
Si Si5 0.742286 0.114495 0.720320
Si Si6 0.168360 0.674854 0.624608
Si Si7 0.866883 0.789353 0.813484
Si Si8 0.553463 0.186892 0.817094
O O1 0.054948 0.606614 0.105937
O O2 0.029191 0.681795 0.239711
O O3 0.842386 0.640916 0.132860
O O4 0.004395 0.676739 0.967032
O O5 0.262639 0.561491 0.487781
O O6 0.172047 0.549124 0.247296
O O7 0.137092 0.489667 0.452999
O O8 0.027491 0.567639 0.451897
O O9 0.772661 0.873933 0.151509
O O10 0.814052 0.587301 0.339864
O O11 0.833171 0.583607 0.612782
O O12 0.657216 0.150963 0.791615
O O13 0.163793 0.688127 0.462173
O O14 0.255011 0.707608 0.710027
O O15 0.039856 0.679368 0.692952
O O16 0.903096 0.737829 0.824622
#
# Coordination Sequence:
#
# PCOD9367710 Si02
#       8
#     8   8   8   8   8   8   8   8
#     4  11  24  45  64  99 134 176 226 279 334 410
#     4  11  23  42  72  97 130 174 216 281 333 409
#     4  11  21  42  70  94 129 171 220 270 341 397
#     4  11  25  45  65 100 136 169 224 272 341 409
#     4  12  25  44  68  94 137 178 216 277 341 408
#     4  11  24  43  66  99 130 175 225 287 331 407
#     4  11  26  42  67  95 138 173 232 285 336 402
#     4  12  26  41  69  94 135 182 226 279 341 403
#
# _framework density 19.961413
#
# number of rings (size 3 to 8) (size 9 to 14) (size 15 to 20)
#    0.000    0.750    2.500    6.000    5.250    0.000 
#    0.000    0.000    0.000    0.000    0.000    0.000 
#    0.000    0.000    0.000    0.000    0.000    0.000 
#
# Total GULP energy -178913.822595 kJ/mol
# GULP energy per Si atom -5591.056956 kJ/mol
# Density = 1.991598 g / cm^3
# Si number density = 19.961413 Si / 1000 Ang^3
#
#
#
# Elastic Constant Matrix: (Units=GPa)
#
#
# Indices 1 2 3 4 5 6 
#
# 1 63.4402 10.8605 22.9449 0.0000 0.0000 0.0000
# 2 10.8605 40.0075 6.2604 0.0000 0.0000 0.0000
# 3 22.9449 6.2604 104.2074 0.0000 0.0000 0.0000
# 4 0.0000 0.0000 0.0000 11.1159 0.0000 0.0000
# 5 0.0000 0.0000 0.0000 0.0000 32.5602 0.0000
# 6 0.0000 0.0000 0.0000 0.0000 0.0000 16.4143
#
#
#
# Elastic Compliance Matrix: (Units=1/GPa)
#
#
# Indices 1 2 3 4 5 6 
#
# 1 0.017819 -0.004263 -0.003667 0.000000 0.000000 0.000000
# 2 -0.004263 0.026253 -0.000638 0.000000 0.000000 0.000000
# 3 -0.003667 -0.000638 0.010442 0.000000 0.000000 0.000000
# 4 0.000000 0.000000 0.000000 0.089961 0.000000 0.000000
# 5 0.000000 0.000000 0.000000 0.000000 0.030712 0.000000
# 6 0.000000 0.000000 0.000000 0.000000 0.000000 0.060922
#
#
# Mechanical properties :
#
#
# Convention : Reuss Voigt Hill
#
# Bulk Modulus (GPa) = 26.75552 31.97632 29.36592
# Shear Modulus (GPa) = 18.81777 23.19071 21.00424
#
# Velocity S-wave (km/s) = 3.07369 3.41218 3.24735
# Velocity P-wave (km/s) = 5.10191 5.61942 5.36690
#
# Compressibility (1/GPa) = 0.03737546
#
# Stress axis : x y z
#
# Youngs Moduli (GPa) = 56.11946 38.09155 95.76613
#
# Poissons Ratio (x) = 0.16240 0.35121
# Poissons Ratio (y) = 0.23926 0.06114
# Poissons Ratio (z) = 0.20581 0.02432
#
# Static dielectric constant tensor:
#      x y z
#    x 1.785690 0.000000 0.000000 
#    y 0.000000 1.693700 0.000000 
#    z 0.000000 0.000000 1.689660 
# 
# From -- ./inp_files/2214.got.cif
#   From: 2010.05.17/outbox.cif.g08.bks.cpg/sg41_2_cif.got.tgz:2214.got - 2010.06.03 18:54:24.
