data_PCOD9367428
_publ_section_title
;
Structure prediction by ZEFSAII (Michael W. Deem and Ramdas Pophale) SiO2 
 PCOD9367428
Probable space group: A B A 2
;
_chemical_formula_sum "Si O2"
_cell_formula_units_Z 32
_cell_length_a 17.445021
_cell_length_b 12.906907
_cell_length_c 5.277738
_cell_angle_alpha 90.000000
_cell_angle_beta 90.000000
_cell_angle_gamma 90.000000
_cell_volume 1188.342157
_symmetry_space_group_name_H-M "A B A 2"
_symmetry_group_IT_number 41
_symmetry_cell_setting 'orthorhombic'
loop_
_space_group_symop_operation_xyz
x,y,z
-x,-y,z
1/2-x,y,1/2+z
1/2+x,-y,1/2+z
x,1/2+y,1/2+z
-x,1/2-y,1/2+z
1/2-x,1/2+y,z
1/2+x,1/2-y,z
loop_
_atom_site_type_symbol
_atom_site_label
_atom_site_fract_x
_atom_site_fract_y
_atom_site_fract_z
Si Si1 0.096275 0.329865 0.947800
Si Si2 0.565915 0.887056 0.716858
Si Si3 0.649770 0.564421 0.962748
Si Si4 0.723276 0.885461 0.970449
O O1 0.144919 0.353765 0.693464
O O2 0.012505 0.373746 0.868327
O O3 0.080553 0.213442 0.042063
O O4 0.132860 0.384812 0.193361
O O5 0.634096 0.898568 0.923927
O O6 0.582441 0.983116 0.532610
O O7 0.725082 0.491067 0.968275
O O8 0.754517 0.828739 0.724161
#
# Coordination Sequence:
#
# PCOD9367428 Si02
#       4
#     8   8   8   8
#     4  12  27  46  79 115 148 198 258 311 388 458
#     4  11  27  49  75 113 156 194 251 325 381 447
#     4  11  26  49  73 107 153 201 249 309 377 460
#     4  10  23  46  71  99 148 199 241 303 374 437
#
# _framework density 26.928272
#
# number of rings (size 3 to 8) (size 9 to 14) (size 15 to 20)
#    0.000    1.000    0.000    5.250    0.000   24.000 
#    0.000   30.000    0.000    0.000    0.000    0.000 
#    0.000    0.000    0.000    0.000    0.000    0.000 
#
# Total GULP energy -89658.743726 kJ/mol
# GULP energy per Si atom -5603.671483 kJ/mol
# Density = 2.686698 g / cm^3
# Si number density = 26.928272 Si / 1000 Ang^3
#
#
#
# Elastic Constant Matrix: (Units=GPa)
#
#
# Indices 1 2 3 4 5 6 
#
# 1 166.2202 35.3530 46.0592 0.0000 0.0000 0.0000
# 2 35.3530 138.1318 57.4300 0.0000 0.0000 0.0000
# 3 46.0592 57.4300 233.8344 0.0000 0.0000 0.0000
# 4 0.0000 0.0000 0.0000 18.4073 0.0000 0.0000
# 5 0.0000 0.0000 0.0000 0.0000 49.5957 0.0000
# 6 0.0000 0.0000 0.0000 0.0000 0.0000 43.5685
#
#
#
# Elastic Compliance Matrix: (Units=1/GPa)
#
#
# Indices 1 2 3 4 5 6 
#
# 1 0.006558 -0.001271 -0.000980 0.000000 0.000000 0.000000
# 2 -0.001271 0.008309 -0.001790 0.000000 0.000000 0.000000
# 3 -0.000980 -0.001790 0.004909 0.000000 0.000000 0.000000
# 4 0.000000 0.000000 0.000000 0.054326 0.000000 0.000000
# 5 0.000000 0.000000 0.000000 0.000000 0.020163 0.000000
# 6 0.000000 0.000000 0.000000 0.000000 0.000000 0.022952
#
#
# Mechanical properties :
#
#
# Convention : Reuss Voigt Hill
#
# Bulk Modulus (GPa) = 85.51279 90.65230 88.08255
# Shear Modulus (GPa) = 38.70027 48.93724 43.81875
#
# Velocity S-wave (km/s) = 3.79510 4.26763 4.03828
# Velocity P-wave (km/s) = 7.14342 7.61715 7.38408
#
# Compressibility (1/GPa) = 0.01169416
#
# Stress axis : x y z
#
# Youngs Moduli (GPa) = 152.48778 120.34914 203.69971
#
# Poissons Ratio (x) = 0.15298 0.19953
# Poissons Ratio (y) = 0.19384 0.36469
# Poissons Ratio (z) = 0.14937 0.21547
#
# Static dielectric constant tensor:
#      x y z
#    x 2.124710 0.000000 0.000000 
#    y 0.000000 2.154960 0.000000 
#    z 0.000000 0.000000 2.162560 
# 
# From -- ./inp_files/413.got.cif
#   From: 2010.05.17/outbox.cif.g08.bks.cpg/sg41_1_cif.got.tgz:413.got - 2010.06.03 18:54:24.
