data_PCOD9367491
_publ_section_title
;
Structure prediction by ZEFSAII (Michael W. Deem and Ramdas Pophale) SiO2 
 PCOD9367491
Probable space group: A B A 2
;
_chemical_formula_sum "Si O2"
_cell_formula_units_Z 40
_cell_length_a 5.244939
_cell_length_b 27.061012
_cell_length_c 13.122123
_cell_angle_alpha 90.000000
_cell_angle_beta 90.000000
_cell_angle_gamma 90.000000
_cell_volume 1862.466971
_symmetry_space_group_name_H-M "A B A 2"
_symmetry_group_IT_number 41
_symmetry_cell_setting 'orthorhombic'
loop_
_space_group_symop_operation_xyz
x,y,z
-x,-y,z
1/2-x,y,1/2+z
1/2+x,-y,1/2+z
x,1/2+y,1/2+z
-x,1/2-y,1/2+z
1/2-x,1/2+y,z
1/2+x,1/2-y,z
loop_
_atom_site_type_symbol
_atom_site_label
_atom_site_fract_x
_atom_site_fract_y
_atom_site_fract_z
Si Si1 0.650000 0.820693 0.631450
Si Si2 0.975482 0.283345 0.414493
Si Si3 0.646281 0.671666 0.714792
Si Si4 0.500000 0.000000 0.847188
Si Si5 0.548266 0.579070 0.168078
Si Si6 0.500000 0.500000 0.989424
O O1 0.532661 0.810962 0.521955
O O2 0.427400 0.803537 0.708958
O O3 0.667337 0.879268 0.654004
O O4 0.938714 0.802881 0.641392
O O5 0.710057 0.254451 0.407526
O O6 0.021847 0.322322 0.324563
O O7 0.712120 0.615806 0.682393
O O8 0.520127 0.046243 0.769115
O O9 0.750569 0.994864 0.917985
O O10 0.549374 0.545347 0.067778
#
# Coordination Sequence:
#
# PCOD9367491 Si02
#       6
#     8   8   8   4   8   4
#     4  10  24  42  69  93 134 175 220 276 329 408
#     4  12  26  43  67 102 133 174 231 276 343 403
#     4  10  24  44  67  94 133 176 222 273 335 400
#     4  11  26  41  72  98 142 175 224 287 334 408
#     4   9  26  44  68 101 133 179 230 263 351 403
#     4  11  26  43  70 102 138 175 224 287 334 408
#
# _framework density 21.476893
#
# number of rings (size 3 to 8) (size 9 to 14) (size 15 to 20)
#    1.200    0.400    0.000    2.400    8.400    6.400 
#    0.000    0.000    0.000    0.000    0.000    0.000 
#    0.000    0.000    0.000    0.000    0.000    0.000 
#
# Total GULP energy -111504.858760 kJ/mol
# GULP energy per Si atom -5575.242938 kJ/mol
# Density = 2.142801 g / cm^3
# Si number density = 21.476893 Si / 1000 Ang^3
#
#
#
# Elastic Constant Matrix: (Units=GPa)
#
#
# Indices 1 2 3 4 5 6 
#
# 1 184.8547 42.4138 62.1994 0.0000 0.0000 0.0000
# 2 42.4138 110.2378 46.7418 0.0000 0.0000 0.0000
# 3 62.1994 46.7418 143.2532 0.0000 0.0000 0.0000
# 4 0.0000 0.0000 0.0000 29.4058 0.0000 0.0000
# 5 0.0000 0.0000 0.0000 0.0000 29.2046 0.0000
# 6 0.0000 0.0000 0.0000 0.0000 0.0000 18.7546
#
#
#
# Elastic Compliance Matrix: (Units=1/GPa)
#
#
# Indices 1 2 3 4 5 6 
#
# 1 0.006549 -0.001525 -0.002346 0.000000 0.000000 0.000000
# 2 -0.001525 0.010883 -0.002889 0.000000 0.000000 0.000000
# 3 -0.002346 -0.002889 0.008942 0.000000 0.000000 0.000000
# 4 0.000000 0.000000 0.000000 0.034007 0.000000 0.000000
# 5 0.000000 0.000000 0.000000 0.000000 0.034241 0.000000
# 6 0.000000 0.000000 0.000000 0.000000 0.000000 0.053320
#
#
# Mechanical properties :
#
#
# Convention : Reuss Voigt Hill
#
# Bulk Modulus (GPa) = 77.79558 82.33950 80.06754
# Shear Modulus (GPa) = 30.16661 34.60571 32.38616
#
# Velocity S-wave (km/s) = 3.75188 4.01845 3.88745
# Velocity P-wave (km/s) = 7.42094 7.74290 7.58363
#
# Compressibility (1/GPa) = 0.01285420
#
# Stress axis : x y z
#
# Youngs Moduli (GPa) = 152.69755 91.88711 111.83427
#
# Poissons Ratio (x) = 0.14013 0.26235
# Poissons Ratio (y) = 0.23286 0.32307
# Poissons Ratio (z) = 0.35821 0.26545
#
# Static dielectric constant tensor:
#      x y z
#    x 1.836340 0.000000 0.000000 
#    y 0.000000 2.058340 0.000000 
#    z 0.000000 0.000000 1.797040 
# 
# From -- ./inp_files/4159.got.cif
#   From: 2010.05.17/outbox.cif.g08.bks.cpg/sg41_3_cif.got.tgz:4159.got - 2010.06.03 18:54:24.
