data_PCOD9367052
_publ_section_title
;
Structure prediction by ZEFSAII (Michael W. Deem and Ramdas Pophale) SiO2 
 PCOD9367052
Probable space group: A B A 2
;
_chemical_formula_sum "Si O2"
_cell_formula_units_Z 56
_cell_length_a 32.657145
_cell_length_b 5.062874
_cell_length_c 14.419766
_cell_angle_alpha 90.000000
_cell_angle_beta 90.000000
_cell_angle_gamma 90.000000
_cell_volume 2384.149840
_symmetry_space_group_name_H-M "A B A 2"
_symmetry_group_IT_number 41
_symmetry_cell_setting 'orthorhombic'
loop_
_space_group_symop_operation_xyz
x,y,z
-x,-y,z
1/2-x,y,1/2+z
1/2+x,-y,1/2+z
x,1/2+y,1/2+z
-x,1/2-y,1/2+z
1/2-x,1/2+y,z
1/2+x,1/2-y,z
loop_
_atom_site_type_symbol
_atom_site_label
_atom_site_fract_x
_atom_site_fract_y
_atom_site_fract_z
Si Si1 0.272355 0.867840 0.017060
Si Si2 0.460729 0.688158 0.959057
Si Si3 0.045310 0.631287 0.249507
Si Si4 0.869005 0.054527 0.818714
Si Si5 0.722849 0.080101 0.239456
Si Si6 0.859166 0.543054 0.944113
Si Si7 0.572124 0.802299 0.052924
O O1 0.264741 0.563583 0.993504
O O2 0.278016 0.900966 0.127381
O O3 0.312020 0.972951 0.967320
O O4 0.500000 0.500000 0.969550
O O5 0.457885 0.766092 0.850572
O O6 0.456500 0.958913 0.014904
O O7 0.428711 0.467804 0.995057
O O8 0.088240 0.469388 0.261743
O O9 0.000000 0.500000 0.237852
O O10 0.055972 0.778489 0.154361
O O11 0.824429 0.046804 0.769045
O O12 0.871407 0.335335 0.866769
O O13 0.866850 0.821824 0.894928
O O14 0.747456 0.341371 0.269689
O O15 0.884486 0.449075 0.035157
#
# Coordination Sequence:
#
# PCOD9367052 Si02
#       7
#     8   8   8   8   8   8   8
#     4  10  22  40  64  94 131 172 221 276 337 409
#     4  11  24  44  68  99 134 172 232 292 339 415
#     4  11  25  46  73 102 139 190 235 291 356 412
#     4  12  25  44  66  98 139 174 229 287 337 412
#     4  10  22  42  67  97 131 173 222 279 338 406
#     4  12  24  42  65  95 135 177 224 285 340 406
#     4  12  24  46  69  99 137 180 231 286 353 410
#
# _framework density 23.488457
#
# number of rings (size 3 to 8) (size 9 to 14) (size 15 to 20)
#    0.000    0.857    2.857    3.857    0.000    5.714 
#    0.000    9.286    0.000    0.000    0.000    0.000 
#    0.000    0.000    0.000    0.000    0.000    0.000 
#
# Total GULP energy -156238.201545 kJ/mol
# GULP energy per Si atom -5579.935769 kJ/mol
# Density = 2.343500 g / cm^3
# Si number density = 23.488457 Si / 1000 Ang^3
#
#
#
# Elastic Constant Matrix: (Units=GPa)
#
#
# Indices 1 2 3 4 5 6 
#
# 1 145.5092 15.2857 17.6918 0.0000 0.0000 0.0000
# 2 15.2857 111.6750 16.3670 0.0000 0.0000 0.0000
# 3 17.6918 16.3670 77.4449 0.0000 0.0000 0.0000
# 4 0.0000 0.0000 0.0000 0.9555 0.0000 0.0000
# 5 0.0000 0.0000 0.0000 0.0000 35.8123 0.0000
# 6 0.0000 0.0000 0.0000 0.0000 0.0000 28.3972
#
#
#
# Elastic Compliance Matrix: (Units=1/GPa)
#
#
# Indices 1 2 3 4 5 6 
#
# 1 0.007131 -0.000761 -0.001468 0.000000 0.000000 0.000000
# 2 -0.000761 0.009322 -0.001796 0.000000 0.000000 0.000000
# 3 -0.001468 -0.001796 0.013627 0.000000 0.000000 0.000000
# 4 0.000000 0.000000 0.000000 1.046577 0.000000 0.000000
# 5 0.000000 0.000000 0.000000 0.000000 0.027923 0.000000
# 6 0.000000 0.000000 0.000000 0.000000 0.000000 0.035215
#
#
# Mechanical properties :
#
#
# Convention : Reuss Voigt Hill
#
# Bulk Modulus (GPa) = 45.39352 48.14647 46.76999
# Shear Modulus (GPa) = 4.32830 32.05197 18.19013
#
# Velocity S-wave (km/s) = 1.35895 3.69803 2.78587
# Velocity P-wave (km/s) = 4.67227 6.22707 5.50484
#
# Compressibility (1/GPa) = 0.02202958
#
# Stress axis : x y z
#
# Youngs Moduli (GPa) = 140.23554 107.27354 73.38141
#
# Poissons Ratio (x) = 0.08162 0.10774
# Poissons Ratio (y) = 0.10670 0.13181
# Poissons Ratio (z) = 0.20589 0.19269
#
# Static dielectric constant tensor:
#      x y z
#    x 1.968050 0.000000 0.000000 
#    y 0.000000 1.825030 0.000000 
#    z 0.000000 0.000000 1.926310 
# 
# From -- ./inp_files/9291.got.cif
#   From: 2010.05.17/outbox.cif.g08.bks.cpg/sg41_5_cif.got.tgz:9291.got - 2010.06.03 18:54:24.
