data_PCOD9367514
_publ_section_title
;
Structure prediction by ZEFSAII (Michael W. Deem and Ramdas Pophale) SiO2 
 PCOD9367514
Probable space group: A B A 2
;
_chemical_formula_sum "Si O2"
_cell_formula_units_Z 60
_cell_length_a 27.137687
_cell_length_b 10.256514
_cell_length_c 9.029078
_cell_angle_alpha 90.000000
_cell_angle_beta 90.000000
_cell_angle_gamma 90.000000
_cell_volume 2513.136114
_symmetry_space_group_name_H-M "A B A 2"
_symmetry_group_IT_number 41
_symmetry_cell_setting 'orthorhombic'
loop_
_space_group_symop_operation_xyz
x,y,z
-x,-y,z
1/2-x,y,1/2+z
1/2+x,-y,1/2+z
x,1/2+y,1/2+z
-x,1/2-y,1/2+z
1/2-x,1/2+y,z
1/2+x,1/2-y,z
loop_
_atom_site_type_symbol
_atom_site_label
_atom_site_fract_x
_atom_site_fract_y
_atom_site_fract_z
Si Si1 0.953879 0.650160 0.014610
Si Si2 0.156986 0.827970 0.555226
Si Si3 0.462962 0.314775 0.847959
Si Si4 0.181793 0.090355 0.699422
Si Si5 0.500000 0.500000 0.067605
Si Si6 0.424670 0.570035 0.298669
Si Si7 0.837336 0.621797 0.726596
Si Si8 0.282332 0.080198 0.538734
O O1 0.899075 0.712292 0.018888
O O2 0.971309 0.636443 0.182561
O O3 0.944985 0.511588 0.936910
O O4 0.990626 0.734714 0.914948
O O5 0.180435 0.872735 0.397791
O O6 0.187248 0.702844 0.607245
O O7 0.155108 0.954945 0.659289
O O8 0.416067 0.217663 0.848962
O O9 0.460527 0.431608 0.962686
O O10 0.152016 0.226607 0.690678
O O11 0.226062 0.102883 0.581877
O O12 0.204465 0.079104 0.864904
O O13 0.467926 0.586950 0.177914
O O14 0.383134 0.477723 0.232198
O O15 0.798967 0.554254 0.616645
#
# Coordination Sequence:
#
# PCOD9367514 Si02
#       8
#     8   8   8   8   4   8   8   8
#     4  11  23  44  70  95 141 183 238 293 360 418
#     4  10  24  44  67 105 142 183 236 298 348 429
#     4  12  24  42  65  97 130 182 234 292 354 422
#     4  11  24  43  68 107 139 184 233 286 357 426
#     4  12  26  38  66  94 128 176 236 286 352 416
#     4  11  23  45  64  95 138 180 231 293 349 424
#     4  10  24  43  70  99 141 186 230 291 353 420
#     4  11  23  42  71 101 143 183 231 288 350 428
#
# _framework density 23.874552999999999
#
# number of rings (size 3 to 8) (size 9 to 14) (size 15 to 20)
#    0.000    1.067    2.667    2.400    1.867    7.467 
#    4.800    0.000    0.000    0.000    0.000    0.000 
#    0.000    0.000    0.000    0.000    0.000    0.000 
#
# Total GULP energy -167693.257685 kJ/mol
# GULP energy per Si atom -5589.775256 kJ/mol
# Density = 2.382021 g / cm^3
# Si number density = 23.874553 Si / 1000 Ang^3
#
#
#
# Elastic Constant Matrix: (Units=GPa)
#
#
# Indices 1 2 3 4 5 6 
#
# 1 47.5937 6.2220 10.3751 0.0000 0.0000 0.0000
# 2 6.2220 109.3803 36.4679 0.0000 0.0000 0.0000
# 3 10.3751 36.4679 123.3273 0.0000 0.0000 0.0000
# 4 0.0000 0.0000 0.0000 39.4535 0.0000 0.0000
# 5 0.0000 0.0000 0.0000 0.0000 28.8092 0.0000
# 6 0.0000 0.0000 0.0000 0.0000 0.0000 36.7773
#
#
#
# Elastic Compliance Matrix: (Units=1/GPa)
#
#
# Indices 1 2 3 4 5 6 
#
# 1 0.021450 -0.000686 -0.001602 0.000000 0.000000 0.000000
# 2 -0.000686 0.010164 -0.002948 0.000000 0.000000 0.000000
# 3 -0.001602 -0.002948 0.009115 0.000000 0.000000 0.000000
# 4 0.000000 0.000000 0.000000 0.025346 0.000000 0.000000
# 5 0.000000 0.000000 0.000000 0.000000 0.034711 0.000000
# 6 0.000000 0.000000 0.000000 0.000000 0.000000 0.027191
#
#
# Mechanical properties :
#
#
# Convention : Reuss Voigt Hill
#
# Bulk Modulus (GPa) = 33.04917 42.93681 37.99299
# Shear Modulus (GPa) = 33.66219 36.15709 34.90964
#
# Velocity S-wave (km/s) = 3.75902 3.89583 3.82804
# Velocity P-wave (km/s) = 5.71954 6.18547 5.95706
#
# Compressibility (1/GPa) = 0.03025795
#
# Stress axis : x y z
#
# Youngs Moduli (GPa) = 46.61995 98.38381 109.71018
#
# Poissons Ratio (x) = 0.06751 0.17571
# Poissons Ratio (y) = 0.03199 0.32341
# Poissons Ratio (z) = 0.07467 0.29002
#
# Static dielectric constant tensor:
#      x y z
#    x 1.952390 0.000000 0.000000 
#    y 0.000000 1.956860 0.000000 
#    z 0.000000 0.000000 1.892370 
# 
# From -- ./inp_files/3825.got.cif
#   From: 2010.05.17/outbox.cif.g08.bks.cpg/sg41_2_cif.got.tgz:3825.got - 2010.06.03 18:54:24.
