data_PCOD9367962
_publ_section_title
;
Structure prediction by ZEFSAII (Michael W. Deem and Ramdas Pophale) SiO2 
 PCOD9367962
Probable space group: A B A 2
;
_chemical_formula_sum "Si O2"
_cell_formula_units_Z 32
_cell_length_a 9.295992
_cell_length_b 8.947894
_cell_length_c 15.067235
_cell_angle_alpha 90.000000
_cell_angle_beta 90.000000
_cell_angle_gamma 90.000000
_cell_volume 1253.285843
_symmetry_space_group_name_H-M "A B A 2"
_symmetry_group_IT_number 41
_symmetry_cell_setting 'orthorhombic'
loop_
_space_group_symop_operation_xyz
x,y,z
-x,-y,z
1/2-x,y,1/2+z
1/2+x,-y,1/2+z
x,1/2+y,1/2+z
-x,1/2-y,1/2+z
1/2-x,1/2+y,z
1/2+x,1/2-y,z
loop_
_atom_site_type_symbol
_atom_site_label
_atom_site_fract_x
_atom_site_fract_y
_atom_site_fract_z
Si Si1 0.662941 0.047682 0.853210
Si Si2 0.162941 0.547682 0.529975
Si Si3 0.899931 0.128510 0.603938
Si Si4 0.899931 0.371490 0.279247
O O1 0.645712 0.222228 0.829983
O O2 0.500000 0.000000 0.859513
O O3 0.748592 0.958473 0.777042
O O4 0.750000 1.000000 0.941593
O O5 0.145712 0.722228 0.553202
O O6 0.248592 0.458473 0.606143
O O7 0.000000 0.500000 0.523672
O O8 1.000000 0.163404 0.691593
O O9 0.000000 0.000000 0.559485
O O10 0.000000 0.500000 0.323700
#
# Coordination Sequence:
#
# PCOD9367962 Si02
#       4
#     8   8   8   8
#     4  12  27  50  79 116 165 225 291 354 428 516
#     4  12  27  50  79 116 165 225 291 354 428 516
#     4  11  27  50  79 119 167 221 281 353 432 511
#     4  11  27  50  79 119 167 221 281 353 432 511
#
# _framework density 25.532882000000001
#
# number of rings (size 3 to 8) (size 9 to 14) (size 15 to 20)
#    0.000    0.500    0.000    6.000    0.000   23.000 
#    0.000    2.500    0.000    0.000    0.000    0.000 
#    0.000    0.000    0.000    0.000    0.000    0.000 
#
# Total GULP energy -89231.563446 kJ/mol
# GULP energy per Si atom -5576.972715 kJ/mol
# Density = 2.547477 g / cm^3
# Si number density = 25.532882 Si / 1000 Ang^3
#
#
#
# Elastic Constant Matrix: (Units=GPa)
#
#
# Indices 1 2 3 4 5 6 
#
# 1 274.4267 113.7432 102.2220 0.0000 0.0000 0.0000
# 2 113.7432 304.5528 98.3400 0.0000 0.0000 0.0000
# 3 102.2220 98.3400 194.5749 0.0000 0.0000 0.0000
# 4 0.0000 0.0000 0.0000 28.3937 0.0000 0.0000
# 5 0.0000 0.0000 0.0000 0.0000 70.1312 0.0000
# 6 0.0000 0.0000 0.0000 0.0000 0.0000 66.6957
#
#
#
# Elastic Compliance Matrix: (Units=1/GPa)
#
#
# Indices 1 2 3 4 5 6 
#
# 1 0.004864 -0.001185 -0.001956 0.000000 0.000000 0.000000
# 2 -0.001185 0.004212 -0.001507 0.000000 0.000000 0.000000
# 3 -0.001956 -0.001507 0.006929 0.000000 0.000000 0.000000
# 4 0.000000 0.000000 0.000000 0.035219 0.000000 0.000000
# 5 0.000000 0.000000 0.000000 0.000000 0.014259 0.000000
# 6 0.000000 0.000000 0.000000 0.000000 0.000000 0.014993
#
#
# Mechanical properties :
#
#
# Convention : Reuss Voigt Hill
#
# Bulk Modulus (GPa) = 149.04617 155.79610 152.42114
# Shear Modulus (GPa) = 54.34282 63.66073 59.00178
#
# Velocity S-wave (km/s) = 4.61841 4.99870 4.81231
# Velocity P-wave (km/s) = 9.32419 9.71938 9.52383
#
# Compressibility (1/GPa) = 0.00670933
#
# Stress axis : x y z
#
# Youngs Moduli (GPa) = 205.60137 237.39079 144.32743
#
# Poissons Ratio (x) = 0.28125 0.28237
# Poissons Ratio (y) = 0.24359 0.21744
# Poissons Ratio (z) = 0.40225 0.35765
#
# Static dielectric constant tensor:
#      x y z
#    x 1.874780 0.000000 0.000000 
#    y 0.000000 2.061510 0.000000 
#    z 0.000000 0.000000 2.298600 
# 
# From -- ./inp_files/11059.got.cif
#   From: 2010.05.17/outbox.cif.g08.bks.cpg/sg41_6_cif.got.tgz:11059.got - 2010.06.03 18:54:24.
