data_PCOD9367317
_publ_section_title
;
Structure prediction by ZEFSAII (Michael W. Deem and Ramdas Pophale) SiO2 
 PCOD9367317
Probable space group: A B A 2
;
_chemical_formula_sum "Si O2"
_cell_formula_units_Z 64
_cell_length_a 20.846644
_cell_length_b 9.003860
_cell_length_c 17.052450
_cell_angle_alpha 90.000000
_cell_angle_beta 90.000000
_cell_angle_gamma 90.000000
_cell_volume 3200.749368
_symmetry_space_group_name_H-M "A B A 2"
_symmetry_group_IT_number 41
_symmetry_cell_setting 'orthorhombic'
loop_
_space_group_symop_operation_xyz
x,y,z
-x,-y,z
1/2-x,y,1/2+z
1/2+x,-y,1/2+z
x,1/2+y,1/2+z
-x,1/2-y,1/2+z
1/2-x,1/2+y,z
1/2+x,1/2-y,z
loop_
_atom_site_type_symbol
_atom_site_label
_atom_site_fract_x
_atom_site_fract_y
_atom_site_fract_z
Si Si1 0.564922 0.929652 0.400060
Si Si2 0.238770 0.348498 0.577911
Si Si3 0.886153 0.711682 0.299039
Si Si4 0.809521 0.499212 0.200948
Si Si5 0.146256 0.798366 0.227262
Si Si6 0.207236 0.534354 0.828472
Si Si7 0.696838 0.407250 0.973533
Si Si8 0.517292 0.161207 0.788200
O O1 0.624433 0.870152 0.450186
O O2 0.542857 0.788935 0.347205
O O3 0.500000 0.000000 0.437231
O O4 0.594511 0.072782 0.353704
O O5 0.292164 0.462178 0.612475
O O6 0.194678 0.318115 0.654123
O O7 0.194681 0.437697 0.518811
O O8 0.272368 0.216291 0.530710
O O9 0.833858 0.650209 0.239077
O O10 0.850516 0.850095 0.339810
O O11 0.950427 0.771209 0.258180
O O12 0.862546 0.377951 0.221728
O O13 0.748357 0.438097 0.249222
O O14 0.074936 0.864968 0.226641
O O15 0.178344 0.871635 0.305570
O O16 0.256699 0.557602 0.899325
O O17 0.500000 0.000000 0.823835
#
# Coordination Sequence:
#
# PCOD9367317 Si02
#       8
#     8   8   8   8   8   8   8   8
#     4  10  23  41  64  96 134 168 217 280 328 400
#     4  11  26  40  61  95 136 171 217 271 339 394
#     4  11  21  37  66  99 126 163 221 272 335 384
#     4  11  22  40  62  93 129 166 210 281 325 388
#     4  11  22  42  60  94 132 170 216 282 319 395
#     4  11  22  35  68  96 125 163 223 273 331 382
#     4  12  24  41  64  96 132 178 214 273 338 404
#     4  11  22  39  65  99 126 171 221 275 324 391
#
# _framework density 19.995317
#
# number of rings (size 3 to 8) (size 9 to 14) (size 15 to 20)
#    0.000    1.000    5.000    2.250    5.250    0.000 
#    0.000    1.875    0.000    0.000    0.000    0.000 
#    0.000    0.000    0.000    0.000    0.000    0.000 
#
# Total GULP energy -178153.040314 kJ/mol
# GULP energy per Si atom -5567.282510 kJ/mol
# Density = 1.994981 g / cm^3
# Si number density = 19.995317 Si / 1000 Ang^3
#
#
#
# Elastic Constant Matrix: (Units=GPa)
#
#
# Indices 1 2 3 4 5 6 
#
# 1 130.7017 38.6096 37.8117 0.0000 0.0000 0.0000
# 2 38.6096 104.6997 39.3315 0.0000 0.0000 0.0000
# 3 37.8117 39.3315 67.6760 0.0000 0.0000 0.0000
# 4 0.0000 0.0000 0.0000 21.3797 0.0000 0.0000
# 5 0.0000 0.0000 0.0000 0.0000 22.1124 0.0000
# 6 0.0000 0.0000 0.0000 0.0000 0.0000 41.5471
#
#
#
# Elastic Compliance Matrix: (Units=1/GPa)
#
#
# Indices 1 2 3 4 5 6 
#
# 1 0.009417 -0.001914 -0.004149 0.000000 0.000000 0.000000
# 2 -0.001914 0.012608 -0.006258 0.000000 0.000000 0.000000
# 3 -0.004149 -0.006258 0.020731 0.000000 0.000000 0.000000
# 4 0.000000 0.000000 0.000000 0.046773 0.000000 0.000000
# 5 0.000000 0.000000 0.000000 0.000000 0.045223 0.000000
# 6 0.000000 0.000000 0.000000 0.000000 0.000000 0.024069
#
#
# Mechanical properties :
#
#
# Convention : Reuss Voigt Hill
#
# Bulk Modulus (GPa) = 55.20553 59.39811 57.30182
# Shear Modulus (GPa) = 26.38503 29.49614 27.94059
#
# Velocity S-wave (km/s) = 3.63652 3.84494 3.74218
# Velocity P-wave (km/s) = 6.73064 7.03434 6.88416
#
# Compressibility (1/GPa) = 0.01811413
#
# Stress axis : x y z
#
# Youngs Moduli (GPa) = 106.19472 79.31604 48.23622
#
# Poissons Ratio (x) = 0.15181 0.20013
# Poissons Ratio (y) = 0.20325 0.30186
# Poissons Ratio (z) = 0.44059 0.49636
#
# Static dielectric constant tensor:
#      x y z
#    x 1.763040 0.000000 0.000000 
#    y 0.000000 1.801190 0.000000 
#    z 0.000000 0.000000 1.707030 
# 
# From -- ./inp_files/10697.got.cif
#   From: 2010.05.17/outbox.cif.g08.bks.cpg/sg41_6_cif.got.tgz:10697.got - 2010.06.03 18:54:24.
