data_PCOD9367262
_publ_section_title
;
Structure prediction by ZEFSAII (Michael W. Deem and Ramdas Pophale) SiO2 
 PCOD9367262
Probable space group: A B A 2
;
_chemical_formula_sum "Si O2"
_cell_formula_units_Z 48
_cell_length_a 12.524276
_cell_length_b 13.560686
_cell_length_c 12.457248
_cell_angle_alpha 90.000000
_cell_angle_beta 90.000000
_cell_angle_gamma 90.000000
_cell_volume 2115.711273
_symmetry_space_group_name_H-M "A B A 2"
_symmetry_group_IT_number 41
_symmetry_cell_setting 'orthorhombic'
loop_
_space_group_symop_operation_xyz
x,y,z
-x,-y,z
1/2-x,y,1/2+z
1/2+x,-y,1/2+z
x,1/2+y,1/2+z
-x,1/2-y,1/2+z
1/2-x,1/2+y,z
1/2+x,1/2-y,z
loop_
_atom_site_type_symbol
_atom_site_label
_atom_site_fract_x
_atom_site_fract_y
_atom_site_fract_z
Si Si1 0.628345 0.406176 0.277000
Si Si2 0.500000 0.000000 0.950886
Si Si3 0.500000 0.000000 0.387609
Si Si4 0.803558 0.475084 0.549642
Si Si5 0.573591 0.201992 0.298994
Si Si6 0.750892 0.792546 0.427312
Si Si7 0.369047 0.852854 0.061327
O O1 0.596999 0.482774 0.368780
O O2 0.640234 0.453802 0.162809
O O3 0.540199 0.317563 0.284703
O O4 0.738917 0.354046 0.316056
O O5 0.476154 0.908027 0.026330
O O6 0.395096 0.009508 0.461347
O O7 0.507986 0.102861 0.321791
O O8 0.737844 0.376565 0.517270
O O9 0.724793 0.566689 0.557845
O O10 0.653872 0.215999 0.400740
O O11 0.626932 0.185378 0.182491
O O12 0.652838 0.730622 0.472140
#
# Coordination Sequence:
#
# PCOD9367262 Si02
#       7
#     8   4   4   8   8   8   8
#     4  10  24  43  66 103 128 176 229 267 337 397
#     4  12  26  44  66 104 138 174 222 288 332 402
#     4  12  26  44  66 104 138 174 222 288 332 402
#     4  12  24  46  71  97 135 180 225 279 336 402
#     4  10  24  43  66 103 128 176 229 267 337 397
#     4  10  22  46  66  96 134 178 222 274 334 398
#     4  12  24  46  71  97 135 180 225 279 336 402
#
# _framework density 22.687404999999998
#
# number of rings (size 3 to 8) (size 9 to 14) (size 15 to 20)
#    1.000    0.000    5.000    1.000    7.000    0.000 
#    0.000    0.000    0.000    0.000    0.000    0.000 
#    0.000    0.000    0.000    0.000    0.000    0.000 
#
# Total GULP energy -133644.454201 kJ/mol
# GULP energy per Si atom -5568.518925 kJ/mol
# Density = 2.263577 g / cm^3
# Si number density = 22.687405 Si / 1000 Ang^3
#
#
#
# Elastic Constant Matrix: (Units=GPa)
#
#
# Indices 1 2 3 4 5 6 
#
# 1 45.8892 10.1200 20.2658 0.0000 0.0000 0.0000
# 2 10.1200 67.1774 33.9830 0.0000 0.0000 0.0000
# 3 20.2658 33.9830 80.0972 0.0000 0.0000 0.0000
# 4 0.0000 0.0000 0.0000 40.3152 0.0000 0.0000
# 5 0.0000 0.0000 0.0000 0.0000 16.0850 0.0000
# 6 0.0000 0.0000 0.0000 0.0000 0.0000 36.3556
#
#
#
# Elastic Compliance Matrix: (Units=1/GPa)
#
#
# Indices 1 2 3 4 5 6 
#
# 1 0.024559 -0.000708 -0.005913 0.000000 0.000000 0.000000
# 2 -0.000708 0.018974 -0.007871 0.000000 0.000000 0.000000
# 3 -0.005913 -0.007871 0.017320 0.000000 0.000000 0.000000
# 4 0.000000 0.000000 0.000000 0.024805 0.000000 0.000000
# 5 0.000000 0.000000 0.000000 0.000000 0.062170 0.000000
# 6 0.000000 0.000000 0.000000 0.000000 0.000000 0.027506
#
#
# Mechanical properties :
#
#
# Convention : Reuss Voigt Hill
#
# Bulk Modulus (GPa) = 31.37885 35.76683 33.57284
# Shear Modulus (GPa) = 23.26196 27.13748 25.19972
#
# Velocity S-wave (km/s) = 3.20554 3.46229 3.33639
# Velocity P-wave (km/s) = 5.24992 5.63760 5.44721
#
# Compressibility (1/GPa) = 0.03186860
#
# Stress axis : x y z
#
# Youngs Moduli (GPa) = 40.71772 52.70252 57.73518
#
# Poissons Ratio (x) = 0.03734 0.34141
# Poissons Ratio (y) = 0.02884 0.45444
# Poissons Ratio (z) = 0.24078 0.41483
#
# Static dielectric constant tensor:
#      x y z
#    x 1.949480 0.000000 0.000000 
#    y 0.000000 1.898560 0.000000 
#    z 0.000000 0.000000 1.779700 
# 
# From -- ./inp_files/5547.got.cif
#   From: 2010.05.17/outbox.cif.g08.bks.cpg/sg41_3_cif.got.tgz:5547.got - 2010.06.03 18:54:24.
