data_PCOD9367943
_publ_section_title
;
Structure prediction by ZEFSAII (Michael W. Deem and Ramdas Pophale) SiO2 
 PCOD9367943
Probable space group: A B A 2
;
_chemical_formula_sum "Si O2"
_cell_formula_units_Z 40
_cell_length_a 15.216874
_cell_length_b 9.111537
_cell_length_c 10.790532
_cell_angle_alpha 90.000000
_cell_angle_beta 90.000000
_cell_angle_gamma 90.000000
_cell_volume 1496.097663
_symmetry_space_group_name_H-M "A B A 2"
_symmetry_group_IT_number 41
_symmetry_cell_setting 'orthorhombic'
loop_
_space_group_symop_operation_xyz
x,y,z
-x,-y,z
1/2-x,y,1/2+z
1/2+x,-y,1/2+z
x,1/2+y,1/2+z
-x,1/2-y,1/2+z
1/2-x,1/2+y,z
1/2+x,1/2-y,z
loop_
_atom_site_type_symbol
_atom_site_label
_atom_site_fract_x
_atom_site_fract_y
_atom_site_fract_z
Si Si1 0.031695 0.169457 0.691050
Si Si2 0.737061 0.972747 0.038387
Si Si3 0.313805 0.273088 0.363867
Si Si4 0.414315 0.899715 0.515323
Si Si5 0.850647 0.148874 0.738407
O O1 0.093035 0.224089 0.805453
O O2 0.070053 0.235964 0.564965
O O3 0.933516 0.241576 0.693618
O O4 0.172410 0.991072 0.652416
O O5 0.829520 0.040533 0.085747
O O6 0.690966 0.065907 0.926052
O O7 0.773195 0.825622 0.974826
O O8 0.239099 0.263904 0.258339
O O9 0.380984 0.899413 0.374823
O O10 0.500000 0.000000 0.526046
O O11 0.000000 0.000000 0.693786
#
# Coordination Sequence:
#
# PCOD9367943 Si02
#       5
#     8   8   8   8   8
#     4  12  27  50  83 113 161 210 271 337 410 492
#     4  11  26  47  85 111 162 209 267 338 415 484
#     4  11  26  52  80 120 159 208 274 338 415 495
#     4  11  26  52  77 117 161 210 268 340 415 494
#     4  11  26  47  80 115 156 208 268 336 406 485
#
# _framework density 26.736222000000001
#
# number of rings (size 3 to 8) (size 9 to 14) (size 15 to 20)
#    0.000    0.800    2.000    4.200   11.200    4.800 
#    0.000    1.000    0.000    0.000    0.000    0.000 
#    0.000    0.000    0.000    0.000    0.000    0.000 
#
# Total GULP energy -111830.140623 kJ/mol
# GULP energy per Si atom -5591.507031 kJ/mol
# Density = 2.667537 g / cm^3
# Si number density = 26.736222 Si / 1000 Ang^3
#
#
#
# Elastic Constant Matrix: (Units=GPa)
#
#
# Indices 1 2 3 4 5 6 
#
# 1 166.9568 32.6980 54.3711 0.0000 0.0000 0.0000
# 2 32.6980 72.8270 33.0328 0.0000 0.0000 0.0000
# 3 54.3711 33.0328 130.5979 0.0000 0.0000 0.0000
# 4 0.0000 0.0000 0.0000 44.2315 0.0000 0.0000
# 5 0.0000 0.0000 0.0000 0.0000 58.7702 0.0000
# 6 0.0000 0.0000 0.0000 0.0000 0.0000 38.2185
#
#
#
# Elastic Compliance Matrix: (Units=1/GPa)
#
#
# Indices 1 2 3 4 5 6 
#
# 1 0.007207 -0.002118 -0.002465 0.000000 0.000000 0.000000
# 2 -0.002118 0.016133 -0.003199 0.000000 0.000000 0.000000
# 3 -0.002465 -0.003199 0.009492 0.000000 0.000000 0.000000
# 4 0.000000 0.000000 0.000000 0.022608 0.000000 0.000000
# 5 0.000000 0.000000 0.000000 0.000000 0.017015 0.000000
# 6 0.000000 0.000000 0.000000 0.000000 0.000000 0.026165
#
#
# Mechanical properties :
#
#
# Convention : Reuss Voigt Hill
#
# Bulk Modulus (GPa) = 57.90613 67.84283 62.87448
# Shear Modulus (GPa) = 41.68718 44.92937 43.30828
#
# Velocity S-wave (km/s) = 3.95296 4.10380 4.02908
# Velocity P-wave (km/s) = 6.52226 6.91989 6.72401
#
# Compressibility (1/GPa) = 0.01726933
#
# Stress axis : x y z
#
# Youngs Moduli (GPa) = 138.75351 61.98479 105.34795
#
# Poissons Ratio (x) = 0.13127 0.25966
# Poissons Ratio (y) = 0.29386 0.33700
# Poissons Ratio (z) = 0.34200 0.19828
#
# Static dielectric constant tensor:
#      x y z
#    x 2.300890 0.000000 0.000000 
#    y 0.000000 2.176250 0.000000 
#    z 0.000000 0.000000 2.112450 
# 
# From -- ./inp_files/5365.got.cif
#   From: 2010.05.17/outbox.cif.g08.bks.cpg/sg41_3_cif.got.tgz:5365.got - 2010.06.03 18:54:24.
