data_PCOD9367827
_publ_section_title
;
Structure prediction by ZEFSAII (Michael W. Deem and Ramdas Pophale) SiO2 
 PCOD9367827
Probable space group: A B A 2
;
_chemical_formula_sum "Si O2"
_cell_formula_units_Z 64
_cell_length_a 26.883853
_cell_length_b 8.476256
_cell_length_c 10.820505
_cell_angle_alpha 90.000000
_cell_angle_beta 90.000000
_cell_angle_gamma 90.000000
_cell_volume 2465.716304
_symmetry_space_group_name_H-M "A B A 2"
_symmetry_group_IT_number 41
_symmetry_cell_setting 'orthorhombic'
loop_
_space_group_symop_operation_xyz
x,y,z
-x,-y,z
1/2-x,y,1/2+z
1/2+x,-y,1/2+z
x,1/2+y,1/2+z
-x,1/2-y,1/2+z
1/2-x,1/2+y,z
1/2+x,1/2-y,z
loop_
_atom_site_type_symbol
_atom_site_label
_atom_site_fract_x
_atom_site_fract_y
_atom_site_fract_z
Si Si1 0.299926 0.352460 0.879600
Si Si2 0.214702 0.885559 0.551428
Si Si3 0.633310 0.847907 0.030116
Si Si4 0.960019 0.291410 0.391160
Si Si5 0.296638 0.573050 0.189684
Si Si6 0.599335 0.004787 0.798160
Si Si7 0.605102 0.003325 0.257906
Si Si8 0.035697 0.224289 0.169737
O O1 0.329840 0.295261 0.002619
O O2 0.289543 0.195886 0.801383
O O3 0.339867 0.459044 0.807862
O O4 0.247507 0.408051 0.929433
O O5 0.201112 0.703195 0.577560
O O6 0.167219 0.994963 0.538399
O O7 0.250993 0.958792 0.657356
O O8 0.601993 0.869569 0.905309
O O9 0.605352 0.858768 0.159367
O O10 0.930674 0.454395 0.370240
O O11 0.981914 0.271726 0.528132
O O12 0.997586 0.270874 0.277236
O O13 0.918606 0.156558 0.371292
O O14 0.348033 0.490413 0.228706
O O15 0.558317 0.946235 0.701486
O O16 0.581180 0.151287 0.186695
#
# Coordination Sequence:
#
# PCOD9367827 Si02
#       8
#     8   8   8   8   8   8   8   8
#     4  11  26  44  69 106 150 197 252 319 363 449
#     4  12  25  44  71 108 153 200 258 317 375 433
#     4  11  23  46  72 103 148 202 245 307 375 444
#     4  12  31  47  85 113 150 199 258 319 400 472
#     4  11  26  45  69 106 149 196 256 316 364 462
#     4  11  26  49  77 105 154 198 249 312 389 456
#     4  12  26  47  77 108 150 196 259 309 388 461
#     4  12  27  54  75 116 154 193 253 326 390 483
#
# _framework density 25.955946000000001
#
# number of rings (size 3 to 8) (size 9 to 14) (size 15 to 20)
#    0.000    0.500    6.250    0.750    8.750    3.000 
#    0.000    0.000    0.000    0.000    0.000    0.000 
#    0.000    0.000    0.000    0.000    0.000    0.000 
#
# Total GULP energy -179210.345575 kJ/mol
# GULP energy per Si atom -5600.323299 kJ/mol
# Density = 2.589687 g / cm^3
# Si number density = 25.955946 Si / 1000 Ang^3
#
#
#
# Elastic Constant Matrix: (Units=GPa)
#
#
# Indices 1 2 3 4 5 6 
#
# 1 111.0949 9.5576 55.8571 0.0000 0.0000 0.0000
# 2 9.5576 48.5498 18.0875 0.0000 0.0000 0.0000
# 3 55.8571 18.0875 172.0662 0.0000 0.0000 0.0000
# 4 0.0000 0.0000 0.0000 46.7882 0.0000 0.0000
# 5 0.0000 0.0000 0.0000 0.0000 53.7474 0.0000
# 6 0.0000 0.0000 0.0000 0.0000 0.0000 40.9725
#
#
#
# Elastic Compliance Matrix: (Units=1/GPa)
#
#
# Indices 1 2 3 4 5 6 
#
# 1 0.010791 -0.000853 -0.003413 0.000000 0.000000 0.000000
# 2 -0.000853 0.021504 -0.001984 0.000000 0.000000 0.000000
# 3 -0.003413 -0.001984 0.007128 0.000000 0.000000 0.000000
# 4 0.000000 0.000000 0.000000 0.021373 0.000000 0.000000
# 5 0.000000 0.000000 0.000000 0.000000 0.018606 0.000000
# 6 0.000000 0.000000 0.000000 0.000000 0.000000 0.024407
#
#
# Mechanical properties :
#
#
# Convention : Reuss Voigt Hill
#
# Bulk Modulus (GPa) = 37.14154 55.41279 46.27716
# Shear Modulus (GPa) = 39.90972 44.84884 42.37928
#
# Velocity S-wave (km/s) = 3.92547 4.16129 4.04510
# Velocity P-wave (km/s) = 5.90646 6.66960 6.29960
#
# Compressibility (1/GPa) = 0.02692403
#
# Stress axis : x y z
#
# Youngs Moduli (GPa) = 92.67102 46.50228 140.28569
#
# Poissons Ratio (x) = 0.03965 0.47885
# Poissons Ratio (y) = 0.07901 0.27829
# Poissons Ratio (z) = 0.31632 0.09225
#
# Static dielectric constant tensor:
#      x y z
#    x 2.015950 0.000000 0.000000 
#    y 0.000000 2.034810 0.000000 
#    z 0.000000 0.000000 2.158070 
# 
# From -- ./inp_files/6677.got.cif
#   From: 2010.05.17/outbox.cif.g08.bks.cpg/sg41_4_cif.got.tgz:6677.got - 2010.06.03 18:54:24.
