data_PCOD9367944
_publ_section_title
;
Structure prediction by ZEFSAII (Michael W. Deem and Ramdas Pophale) SiO2 
 PCOD9367944
Probable space group: A B A 2
;
_chemical_formula_sum "Si O2"
_cell_formula_units_Z 48
_cell_length_a 11.763959
_cell_length_b 16.725306
_cell_length_c 9.879539
_cell_angle_alpha 90.000000
_cell_angle_beta 90.000000
_cell_angle_gamma 90.000000
_cell_volume 1943.856738
_symmetry_space_group_name_H-M "A B A 2"
_symmetry_group_IT_number 41
_symmetry_cell_setting 'orthorhombic'
loop_
_space_group_symop_operation_xyz
x,y,z
-x,-y,z
1/2-x,y,1/2+z
1/2+x,-y,1/2+z
x,1/2+y,1/2+z
-x,1/2-y,1/2+z
1/2-x,1/2+y,z
1/2+x,1/2-y,z
loop_
_atom_site_type_symbol
_atom_site_label
_atom_site_fract_x
_atom_site_fract_y
_atom_site_fract_z
Si Si1 0.545936 0.131526 0.939430
Si Si2 0.799398 0.772073 0.822481
Si Si3 0.879882 0.449470 0.324180
Si Si4 0.771935 0.018078 0.569228
Si Si5 0.548799 0.084983 0.654163
Si Si6 0.883382 0.249277 0.040925
O O1 0.623121 0.201521 0.879113
O O2 0.500000 0.000000 0.318828
O O3 0.492011 0.096566 0.801288
O O4 0.623562 0.067409 0.011346
O O5 0.865564 0.854769 0.852153
O O6 0.792845 0.759124 0.661537
O O7 0.680472 0.758964 0.898548
O O8 0.821599 0.457348 0.177197
O O9 0.799467 0.487586 0.440754
O O10 0.965506 0.325110 0.044847
O O11 0.684033 0.070163 0.658333
O O12 0.500000 0.000000 0.603010
O O13 0.547684 0.166697 0.567165
#
# Coordination Sequence:
#
# PCOD9367944 Si02
#       6
#     8   8   8   8   8   8
#     4  11  26  48  79 108 158 207 259 322 395 470
#     4  11  26  48  73 116 153 202 258 330 385 479
#     4  12  28  47  79 115 157 205 267 324 401 478
#     4  12  25  50  74 112 155 202 257 326 393 469
#     4  11  26  48  78 113 153 211 259 325 395 473
#     4  11  26  49  80 114 153 209 260 322 404 469
#
# _framework density 24.693176000000001
#
# number of rings (size 3 to 8) (size 9 to 14) (size 15 to 20)
#    0.000    0.667    3.333    2.500    7.000    4.667 
#    0.000    0.000    0.000    0.000    0.000    0.000 
#    0.000    0.000    0.000    0.000    0.000    0.000 
#
# Total GULP energy -134157.954547 kJ/mol
# GULP energy per Si atom -5589.914773 kJ/mol
# Density = 2.463697 g / cm^3
# Si number density = 24.693176 Si / 1000 Ang^3
#
#
#
# Elastic Constant Matrix: (Units=GPa)
#
#
# Indices 1 2 3 4 5 6 
#
# 1 60.0070 30.4210 46.9823 0.0000 0.0000 0.0000
# 2 30.4210 125.0214 60.3434 0.0000 0.0000 0.0000
# 3 46.9823 60.3434 112.2453 0.0000 0.0000 0.0000
# 4 0.0000 0.0000 0.0000 -5.2691 0.0000 0.0000
# 5 0.0000 0.0000 0.0000 0.0000 50.5194 0.0000
# 6 0.0000 0.0000 0.0000 0.0000 0.0000 39.6433
#
#
#
# Elastic Compliance Matrix: (Units=1/GPa)
#
#
# Indices 1 2 3 4 5 6 
#
# 1 0.024966 -0.001392 -0.009702 0.000000 0.000000 0.000000
# 2 -0.001392 0.010879 -0.005266 0.000000 0.000000 0.000000
# 3 -0.009702 -0.005266 0.015801 0.000000 0.000000 0.000000
# 4 0.000000 0.000000 0.000000 -0.189786 0.000000 0.000000
# 5 0.000000 0.000000 0.000000 0.000000 0.019794 0.000000
# 6 0.000000 0.000000 0.000000 0.000000 0.000000 0.025225
#
#
# Mechanical properties :
#
#
# Convention : Reuss Voigt Hill
#
# Bulk Modulus (GPa) = 52.83548 63.64077 58.23812
# Shear Modulus (GPa) = -92.43500 27.61386 -32.41057
#
# Velocity S-wave (km/s) = -6.12492 3.34770 -3.62682
# Velocity P-wave (km/s) = 5.34568 6.38524 2.46931
#
# Compressibility (1/GPa) = 0.01892668
#
# Stress axis : x y z
#
# Youngs Moduli (GPa) = 40.05375 91.91988 63.28805
#
# Poissons Ratio (x) = 0.12799 0.61400
# Poissons Ratio (y) = 0.05577 0.33326
# Poissons Ratio (z) = 0.38859 0.48403
#
# Static dielectric constant tensor:
#      x y z
#    x 1.941190 0.000000 0.000000 
#    y 0.000000 1.988550 0.000000 
#    z 0.000000 0.000000 2.039480 
# 
# From -- ./inp_files/5655.got.cif
#   From: 2010.05.17/outbox.cif.g08.bks.cpg/sg41_3_cif.got.tgz:5655.got - 2010.06.03 18:54:24.
