data_PCOD9367708
_publ_section_title
;
Structure prediction by ZEFSAII (Michael W. Deem and Ramdas Pophale) SiO2 
 PCOD9367708
Probable space group: A B A 2
;
_chemical_formula_sum "Si O2"
_cell_formula_units_Z 60
_cell_length_a 10.639858
_cell_length_b 20.728450
_cell_length_c 10.259703
_cell_angle_alpha 90.000000
_cell_angle_beta 90.000000
_cell_angle_gamma 90.000000
_cell_volume 2262.754562
_symmetry_space_group_name_H-M "A B A 2"
_symmetry_group_IT_number 41
_symmetry_cell_setting 'orthorhombic'
loop_
_space_group_symop_operation_xyz
x,y,z
-x,-y,z
1/2-x,y,1/2+z
1/2+x,-y,1/2+z
x,1/2+y,1/2+z
-x,1/2-y,1/2+z
1/2-x,1/2+y,z
1/2+x,1/2-y,z
loop_
_atom_site_type_symbol
_atom_site_label
_atom_site_fract_x
_atom_site_fract_y
_atom_site_fract_z
Si Si1 0.500000 0.000000 0.464990
Si Si2 0.830192 0.508736 0.839225
Si Si3 0.250341 0.950009 0.596463
Si Si4 0.244834 0.803851 0.642869
Si Si5 0.440680 0.353982 0.323253
Si Si6 0.180425 0.626172 0.690546
Si Si7 0.623192 0.865963 0.403491
Si Si8 0.506367 0.753665 0.029885
O O1 0.605697 0.032057 0.558830
O O2 0.441990 0.062932 0.391367
O O3 0.817332 0.504200 0.993445
O O4 0.718727 0.539245 0.747969
O O5 0.922963 0.569573 0.835430
O O6 0.837206 0.443035 0.760928
O O7 0.234385 0.874117 0.572845
O O8 0.308270 0.821705 0.782016
O O9 0.109946 0.770954 0.628466
O O10 0.353867 0.760951 0.578440
O O11 0.540001 0.345565 0.206418
O O12 0.503978 0.318036 0.441907
O O13 0.291863 0.653017 0.779959
O O14 0.203448 0.625926 0.537282
O O15 0.532643 0.806286 0.436090
#
# Coordination Sequence:
#
# PCOD9367708 Si02
#       8
#     4   8   8   8   8   8   8   8
#     4  12  20  44  70 104 132 198 242 310 382 462
#     4  11  21  41  71 100 134 183 240 302 370 441
#     4  11  22  42  69  99 139 188 239 305 368 444
#     4  11  25  45  71 101 148 193 250 300 380 448
#     4  11  25  43  71 100 144 199 246 301 381 459
#     4  12  23  45  71 109 140 197 250 319 376 466
#     4  12  26  42  77 101 149 193 257 313 393 452
#     4  12  25  46  68 106 143 197 248 309 366 463
#
# _framework density 26.516355000000001
#
# number of rings (size 3 to 8) (size 9 to 14) (size 15 to 20)
#    0.000    0.533    6.667    2.000    1.867    1.067 
#    0.000    1.333    0.000    0.000    0.000    0.000 
#    0.000    0.000    0.000    0.000    0.000    0.000 
#
# Total GULP energy -167462.489876 kJ/mol
# GULP energy per Si atom -5582.082996 kJ/mol
# Density = 2.645600 g / cm^3
# Si number density = 26.516355 Si / 1000 Ang^3
#
#
#
# Elastic Constant Matrix: (Units=GPa)
#
#
# Indices 1 2 3 4 5 6 
#
# 1 39.2971 11.7048 -5.2621 0.0000 0.0000 0.0000
# 2 11.7048 131.7229 -27.8862 0.0000 0.0000 0.0000
# 3 -5.2621 -27.8862 50.3727 0.0000 0.0000 0.0000
# 4 0.0000 0.0000 0.0000 41.1121 0.0000 0.0000
# 5 0.0000 0.0000 0.0000 0.0000 34.4403 0.0000
# 6 0.0000 0.0000 0.0000 0.0000 0.0000 45.9809
#
#
#
# Elastic Compliance Matrix: (Units=1/GPa)
#
#
# Indices 1 2 3 4 5 6 
#
# 1 0.026259 -0.001985 0.001644 0.000000 0.000000 0.000000
# 2 -0.001985 0.008750 0.004636 0.000000 0.000000 0.000000
# 3 0.001644 0.004636 0.022590 0.000000 0.000000 0.000000
# 4 0.000000 0.000000 0.000000 0.024324 0.000000 0.000000
# 5 0.000000 0.000000 0.000000 0.000000 0.029036 0.000000
# 6 0.000000 0.000000 0.000000 0.000000 0.000000 0.021748
#
#
# Mechanical properties :
#
#
# Convention : Reuss Voigt Hill
#
# Bulk Modulus (GPa) = 15.10825 19.83397 17.47111
# Shear Modulus (GPa) = 34.20460 40.49572 37.35016
#
# Velocity S-wave (km/s) = 3.59547 3.91218 3.75716
# Velocity P-wave (km/s) = 4.79027 5.28233 5.04230
#
# Compressibility (1/GPa) = 0.06618899
#
# Stress axis : x y z
#
# Youngs Moduli (GPa) = 38.08274 114.29039 44.26645
#
# Poissons Ratio (x) = 0.22690 -0.07277
# Poissons Ratio (y) = 0.07560 -0.20524
# Poissons Ratio (z) = -0.06261 -0.52989
#
# Static dielectric constant tensor:
#      x y z
#    x 2.150860 0.000000 0.000000 
#    y 0.000000 2.170600 0.000000 
#    z 0.000000 0.000000 2.133730 
# 
# From -- ./inp_files/5147.got.cif
#   From: 2010.05.17/outbox.cif.g08.bks.cpg/sg41_3_cif.got.tgz:5147.got - 2010.06.03 18:54:24.
