data_PCOD9367616
_publ_section_title
;
Structure prediction by ZEFSAII (Michael W. Deem and Ramdas Pophale) SiO2 
 PCOD9367616
Probable space group: A B A 2
;
_chemical_formula_sum "Si O2"
_cell_formula_units_Z 44
_cell_length_a 22.285458
_cell_length_b 16.614025
_cell_length_c 5.484217
_cell_angle_alpha 90.000000
_cell_angle_beta 90.000000
_cell_angle_gamma 90.000000
_cell_volume 2030.537686
_symmetry_space_group_name_H-M "A B A 2"
_symmetry_group_IT_number 41
_symmetry_cell_setting 'orthorhombic'
loop_
_space_group_symop_operation_xyz
x,y,z
-x,-y,z
1/2-x,y,1/2+z
1/2+x,-y,1/2+z
x,1/2+y,1/2+z
-x,1/2-y,1/2+z
1/2-x,1/2+y,z
1/2+x,1/2-y,z
loop_
_atom_site_type_symbol
_atom_site_label
_atom_site_fract_x
_atom_site_fract_y
_atom_site_fract_z
Si Si1 0.785385 0.525174 0.530260
Si Si2 0.000077 0.154745 0.799739
Si Si3 0.408961 0.411419 0.183459
Si Si4 0.500000 0.000000 0.959726
Si Si5 0.283519 0.668328 0.061147
Si Si6 0.402720 0.257590 0.505779
O O1 0.749355 0.546779 0.282863
O O2 0.851247 0.564780 0.527400
O O3 0.792644 0.428262 0.550220
O O4 0.954542 0.221488 0.697888
O O5 0.003913 0.079746 0.619858
O O6 0.966186 0.122328 0.037556
O O7 0.935286 0.306546 0.332184
O O8 0.438064 0.489027 0.312416
O O9 0.389688 0.341378 0.369424
O O10 0.259336 0.688461 0.790031
O O11 0.344086 0.716867 0.109150
#
# Coordination Sequence:
#
# PCOD9367616 Si02
#       6
#     8   8   8   4   8   8
#     4  10  25  46  70  99 137 181 236 294 339 413
#     4  11  24  44  64 106 136 180 225 288 359 413
#     4  11  25  44  66 103 133 184 228 283 357 411
#     4  10  26  40  70 100 134 178 232 284 342 426
#     4  10  25  45  69 100 134 186 236 283 349 414
#     4  11  25  42  69  97 144 175 225 290 349 425
#
# _framework density 21.669138
#
# number of rings (size 3 to 8) (size 9 to 14) (size 15 to 20)
#    0.000    1.455    1.818    0.545   12.727    4.364 
#    0.000    0.000    0.000    0.000    0.000    0.000 
#    0.000    0.000    0.000    0.000    0.000    0.000 
#
# Total GULP energy -122956.807134 kJ/mol
# GULP energy per Si atom -5588.945779 kJ/mol
# Density = 2.161982 g / cm^3
# Si number density = 21.669138 Si / 1000 Ang^3
#
#
#
# Elastic Constant Matrix: (Units=GPa)
#
#
# Indices 1 2 3 4 5 6 
#
# 1 74.0483 33.8198 0.3231 0.0000 0.0000 0.0000
# 2 33.8198 33.9867 5.4893 0.0000 0.0000 0.0000
# 3 0.3231 5.4893 59.0444 0.0000 0.0000 0.0000
# 4 0.0000 0.0000 0.0000 11.3843 0.0000 0.0000
# 5 0.0000 0.0000 0.0000 0.0000 10.9272 0.0000
# 6 0.0000 0.0000 0.0000 0.0000 0.0000 -5.4294
#
#
#
# Elastic Compliance Matrix: (Units=1/GPa)
#
#
# Indices 1 2 3 4 5 6 
#
# 1 0.025037 -0.025272 0.002212 0.000000 0.000000 0.000000
# 2 -0.025272 0.055380 -0.005010 0.000000 0.000000 0.000000
# 3 0.002212 -0.005010 0.017390 0.000000 0.000000 0.000000
# 4 0.000000 0.000000 0.000000 0.087841 0.000000 0.000000
# 5 0.000000 0.000000 0.000000 0.000000 0.091515 0.000000
# 6 0.000000 0.000000 0.000000 0.000000 0.000000 -0.184184
#
#
# Mechanical properties :
#
#
# Convention : Reuss Voigt Hill
#
# Bulk Modulus (GPa) = 23.99904 27.37154 25.68529
# Shear Modulus (GPa) = 30.67347 11.87290 21.27319
#
# Velocity S-wave (km/s) = 3.76644 2.34330 3.13665
# Velocity P-wave (km/s) = 5.47851 4.46995 4.99972
#
# Compressibility (1/GPa) = 0.04166834
#
# Stress axis : x y z
#
# Youngs Moduli (GPa) = 39.94050 18.05708 57.50392
#
# Poissons Ratio (x) = 0.45633 -0.12723
# Poissons Ratio (y) = 1.00936 0.28812
# Poissons Ratio (z) = -0.08837 0.09047
#
# Static dielectric constant tensor:
#      x y z
#    x 1.743720 0.000000 0.000000 
#    y 0.000000 1.803700 0.000000 
#    z 0.000000 0.000000 1.940190 
# 
# From -- ./inp_files/946.got.cif
#   From: 2010.05.17/outbox.cif.g08.bks.cpg/sg41_1_cif.got.tgz:946.got - 2010.06.03 18:54:24.
