data_PCOD9367694
_publ_section_title
;
Structure prediction by ZEFSAII (Michael W. Deem and Ramdas Pophale) SiO2 
 PCOD9367694
Probable space group: A B A 2
;
_chemical_formula_sum "Si O2"
_cell_formula_units_Z 64
_cell_length_a 8.163942
_cell_length_b 17.534893
_cell_length_c 21.033889
_cell_angle_alpha 90.000000
_cell_angle_beta 90.000000
_cell_angle_gamma 90.000000
_cell_volume 3011.082179
_symmetry_space_group_name_H-M "A B A 2"
_symmetry_group_IT_number 41
_symmetry_cell_setting 'orthorhombic'
loop_
_space_group_symop_operation_xyz
x,y,z
-x,-y,z
1/2-x,y,1/2+z
1/2+x,-y,1/2+z
x,1/2+y,1/2+z
-x,1/2-y,1/2+z
1/2-x,1/2+y,z
1/2+x,1/2-y,z
loop_
_atom_site_type_symbol
_atom_site_label
_atom_site_fract_x
_atom_site_fract_y
_atom_site_fract_z
Si Si1 0.639541 0.196059 0.285370
Si Si2 0.487162 0.636528 0.287542
Si Si3 0.067782 0.922858 0.557267
Si Si4 0.047181 0.695507 0.157131
Si Si5 0.083614 0.137293 0.153751
Si Si6 0.008301 0.638459 0.927413
Si Si7 0.369455 0.305520 0.925131
Si Si8 0.550757 0.078430 0.526349
O O1 0.628217 0.288126 0.285763
O O2 0.825585 0.166982 0.283307
O O3 0.538284 0.172294 0.223576
O O4 0.568462 0.173807 0.354268
O O5 0.450599 0.595763 0.220938
O O6 0.464037 0.601839 0.357730
O O7 0.039181 0.848656 0.599849
O O8 0.974419 0.912244 0.489886
O O9 0.259643 0.928719 0.544843
O O10 0.000000 0.000000 0.588616
O O11 0.030335 0.786740 0.150723
O O12 0.233600 0.669538 0.154900
O O13 0.051108 0.089678 0.090738
O O14 0.819767 0.668508 0.928205
O O15 0.115338 0.715023 0.933134
O O16 0.465515 0.350079 0.979614
O O17 0.500000 0.000000 0.493372
#
# Coordination Sequence:
#
# PCOD9367694 Si02
#       8
#     8   8   8   8   8   8   8   8
#     4   9  16  30  52  80 109 137 171 219 268 316
#     4   9  16  30  52  80 109 137 171 219 268 316
#     4  11  23  39  55  77 108 144 182 224 269 319
#     4  11  21  35  56  83 110 142 180 222 267 317
#     4  11  21  35  56  83 110 142 180 222 267 317
#     4   9  19  34  56  82 108 137 175 219 267 318
#     4   9  19  34  56  82 108 137 175 219 267 318
#     4  11  23  39  55  77 108 144 182 224 269 319
#
# _framework density 21.254816999999999
#
# number of rings (size 3 to 8) (size 9 to 14) (size 15 to 20)
#    0.000    2.000    0.000    6.000    0.000    5.000 
#    0.000    1.250    0.000    3.000    0.000    0.000 
#    0.000    0.000    0.000    0.000    0.000    0.000 
#
# Total GULP energy -178695.039465 kJ/mol
# GULP energy per Si atom -5584.219983 kJ/mol
# Density = 2.120644 g / cm^3
# Si number density = 21.254817 Si / 1000 Ang^3
#
#
#
# Elastic Constant Matrix: (Units=GPa)
#
#
# Indices 1 2 3 4 5 6 
#
# 1 44.6298 -5.0175 -4.0648 0.0000 0.0000 0.0000
# 2 -5.0175 41.5754 11.4078 0.0000 0.0000 0.0000
# 3 -4.0648 11.4078 87.2380 0.0000 0.0000 0.0000
# 4 0.0000 0.0000 0.0000 -7.6475 0.0000 0.0000
# 5 0.0000 0.0000 0.0000 0.0000 3.1659 0.0000
# 6 0.0000 0.0000 0.0000 0.0000 0.0000 18.0449
#
#
#
# Elastic Compliance Matrix: (Units=1/GPa)
#
#
# Indices 1 2 3 4 5 6 
#
# 1 0.022759 0.002547 0.000727 0.000000 0.000000 0.000000
# 2 0.002547 0.025233 -0.003181 0.000000 0.000000 0.000000
# 3 0.000727 -0.003181 0.011913 0.000000 0.000000 0.000000
# 4 0.000000 0.000000 0.000000 -0.130762 0.000000 0.000000
# 5 0.000000 0.000000 0.000000 0.000000 0.315863 0.000000
# 6 0.000000 0.000000 0.000000 0.000000 0.000000 0.055417
#
#
# Mechanical properties :
#
#
# Convention : Reuss Voigt Hill
#
# Bulk Modulus (GPa) = 16.64118 19.78824 18.21471
# Shear Modulus (GPa) = 15.61197 14.12051 14.86624
#
# Velocity S-wave (km/s) = 2.71313 2.58028 2.64754
# Velocity P-wave (km/s) = 4.20252 4.26701 4.23489
#
# Compressibility (1/GPa) = 0.06009190
#
# Stress axis : x y z
#
# Youngs Moduli (GPa) = 43.93832 39.63081 83.94375
#
# Poissons Ratio (x) = -0.10094 -0.06106
# Poissons Ratio (y) = -0.11192 0.26702
# Poissons Ratio (z) = -0.03196 0.12606
#
# Static dielectric constant tensor:
#      x y z
#    x 1.768170 0.000000 0.000000 
#    y 0.000000 1.754260 0.000000 
#    z 0.000000 0.000000 1.831020 
# 
# From -- ./inp_files/11321.got.cif
#   From: 2010.05.17/outbox.cif.g08.bks.cpg/sg41_6_cif.got.tgz:11321.got - 2010.06.03 18:54:24.
