data_PCOD9367239
_publ_section_title
;
Structure prediction by ZEFSAII (Michael W. Deem and Ramdas Pophale) SiO2 
 PCOD9367239
Probable space group: A B A 2
;
_chemical_formula_sum "Si O2"
_cell_formula_units_Z 60
_cell_length_a 16.874237
_cell_length_b 13.172693
_cell_length_c 13.739611
_cell_angle_alpha 90.000000
_cell_angle_beta 90.000000
_cell_angle_gamma 90.000000
_cell_volume 3054.028967
_symmetry_space_group_name_H-M "A B A 2"
_symmetry_group_IT_number 41
_symmetry_cell_setting 'orthorhombic'
loop_
_space_group_symop_operation_xyz
x,y,z
-x,-y,z
1/2-x,y,1/2+z
1/2+x,-y,1/2+z
x,1/2+y,1/2+z
-x,1/2-y,1/2+z
1/2-x,1/2+y,z
1/2+x,1/2-y,z
loop_
_atom_site_type_symbol
_atom_site_label
_atom_site_fract_x
_atom_site_fract_y
_atom_site_fract_z
Si Si1 0.985782 0.801831 0.167970
Si Si2 0.567319 0.085720 0.822946
Si Si3 0.000000 0.500000 0.540636
Si Si4 0.045789 0.893263 0.545129
Si Si5 0.733209 0.968515 0.805769
Si Si6 0.170227 0.749310 0.790798
Si Si7 0.158888 0.413847 0.453718
Si Si8 0.222276 0.405706 0.132099
O O1 0.993227 0.701205 0.102339
O O2 0.910767 0.782816 0.237657
O O3 0.058269 0.830877 0.238755
O O4 0.972269 0.902835 0.103877
O O5 0.500000 0.000000 0.805583
O O6 0.651655 0.030854 0.820216
O O7 0.550549 0.128796 0.930092
O O8 0.926058 0.541477 0.480314
O O9 0.135749 0.906385 0.582988
O O10 0.000000 0.000000 0.558679
O O11 0.716815 0.850997 0.817657
O O12 0.794193 0.007276 0.885942
O O13 0.762824 0.994538 0.697163
O O14 0.152526 0.814618 0.886514
O O15 0.218473 0.816974 0.713011
O O16 0.210399 0.394483 0.550757
#
# Coordination Sequence:
#
# PCOD9367239 Si02
#       8
#     8   8   4   8   8   8   8   8
#     4  11  22  42  68  97 135 174 218 277 330 403
#     4  11  20  40  69  95 127 173 227 266 330 409
#     4  12  26  46  68 100 132 178 228 280 338 404
#     4  10  24  43  65 100 134 176 225 274 332 404
#     4  11  22  44  67  96 135 179 220 280 334 403
#     4  10  23  42  67 103 133 173 220 274 337 403
#     4  11  25  44  66  99 133 173 228 279 333 401
#     4  10  22  45  63  94 139 168 224 274 332 398
#
# _framework density 19.646179
#
# number of rings (size 3 to 8) (size 9 to 14) (size 15 to 20)
#    0.000    1.333    3.333    1.600    1.867    3.200 
#   18.000    0.000    0.000    0.000    0.000    0.000 
#    0.000    0.000    0.000    0.000    0.000    0.000 
#
# Total GULP energy -167668.918141 kJ/mol
# GULP energy per Si atom -5588.963938 kJ/mol
# Density = 1.960146 g / cm^3
# Si number density = 19.646179 Si / 1000 Ang^3
#
#
#
# Elastic Constant Matrix: (Units=GPa)
#
#
# Indices 1 2 3 4 5 6 
#
# 1 110.1596 51.3032 63.4051 0.0000 0.0000 0.0000
# 2 51.3032 147.2847 79.1982 0.0000 0.0000 0.0000
# 3 63.4051 79.1982 149.6659 0.0000 0.0000 0.0000
# 4 0.0000 0.0000 0.0000 49.0611 0.0000 0.0000
# 5 0.0000 0.0000 0.0000 0.0000 -22.6916 0.0000
# 6 0.0000 0.0000 0.0000 0.0000 0.0000 21.8405
#
#
#
# Elastic Compliance Matrix: (Units=1/GPa)
#
#
# Indices 1 2 3 4 5 6 
#
# 1 0.012452 -0.002098 -0.004165 0.000000 0.000000 0.000000
# 2 -0.002098 0.009843 -0.004320 0.000000 0.000000 0.000000
# 3 -0.004165 -0.004320 0.010732 0.000000 0.000000 0.000000
# 4 0.000000 0.000000 0.000000 0.020383 0.000000 0.000000
# 5 0.000000 0.000000 0.000000 0.000000 -0.044069 0.000000
# 6 0.000000 0.000000 0.000000 0.000000 0.000000 0.045787
#
#
# Mechanical properties :
#
#
# Convention : Reuss Voigt Hill
#
# Bulk Modulus (GPa) = 84.30591 88.32481 86.31536
# Shear Modulus (GPa) = 62.30744 23.85557 43.08150
#
# Velocity S-wave (km/s) = 5.63770 3.48840 4.68789
# Velocity P-wave (km/s) = 9.24032 7.82819 8.56341
#
# Compressibility (1/GPa) = 0.01186157
#
# Stress axis : x y z
#
# Youngs Moduli (GPa) = 80.30805 101.59272 93.17783
#
# Poissons Ratio (x) = 0.21310 0.38811
# Poissons Ratio (y) = 0.16846 0.40253
# Poissons Ratio (z) = 0.33450 0.43889
#
# Static dielectric constant tensor:
#      x y z
#    x 1.697430 0.000000 0.000000 
#    y 0.000000 1.636150 0.000000 
#    z 0.000000 0.000000 1.691160 
# 
# From -- ./inp_files/8810.got.cif
#   From: 2010.05.17/outbox.cif.g08.bks.cpg/sg41_5_cif.got.tgz:8810.got - 2010.06.03 18:54:24.
