data_PCOD9367065
_publ_section_title
;
Structure prediction by ZEFSAII (Michael W. Deem and Ramdas Pophale) SiO2 
 PCOD9367065
Probable space group: A B A 2
;
_chemical_formula_sum "Si O2"
_cell_formula_units_Z 52
_cell_length_a 24.355200
_cell_length_b 12.655314
_cell_length_c 7.461381
_cell_angle_alpha 90.000000
_cell_angle_beta 90.000000
_cell_angle_gamma 90.000000
_cell_volume 2299.767024
_symmetry_space_group_name_H-M "A B A 2"
_symmetry_group_IT_number 41
_symmetry_cell_setting 'orthorhombic'
loop_
_space_group_symop_operation_xyz
x,y,z
-x,-y,z
1/2-x,y,1/2+z
1/2+x,-y,1/2+z
x,1/2+y,1/2+z
-x,1/2-y,1/2+z
1/2-x,1/2+y,z
1/2+x,1/2-y,z
loop_
_atom_site_type_symbol
_atom_site_label
_atom_site_fract_x
_atom_site_fract_y
_atom_site_fract_z
Si Si1 0.771756 0.751713 0.975700
Si Si2 0.680387 0.883122 0.167782
Si Si3 0.574019 0.790553 0.257660
Si Si4 0.044335 0.220295 0.175464
Si Si5 0.902945 0.634604 0.473405
Si Si6 0.000000 0.000000 0.108175
Si Si7 0.297479 0.393113 0.765443
O O1 0.803525 0.836021 0.860616
O O2 0.756866 0.647001 0.863665
O O3 0.714104 0.805842 0.035345
O O4 0.807033 0.708424 0.139349
O O5 0.614380 0.878896 0.174470
O O6 0.704583 0.999573 0.155190
O O7 0.568235 0.784170 0.472755
O O8 0.512527 0.787411 0.178501
O O9 0.601197 0.685512 0.170707
O O10 0.080180 0.275036 0.329343
O O11 0.025778 0.099128 0.214669
O O12 0.951696 0.549925 0.487545
O O13 0.845708 0.589810 0.407256
#
# Coordination Sequence:
#
# PCOD9367065 Si02
#       7
#     8   8   8   8   8   4   8
#     4  10  23  41  63  94 127 159 212 272 313 380
#     4  11  22  41  65  91 125 165 210 264 324 381
#     4  11  21  40  65  90 129 169 210 267 315 376
#     4  11  22  41  64  91 131 165 216 266 314 381
#     4  11  23  42  65  94 131 168 217 266 322 384
#     4  10  22  40  66  90 124 174 212 262 326 378
#     4  11  22  40  67  92 125 170 209 259 329 382
#
# _framework density 22.610986
#
# number of rings (size 3 to 8) (size 9 to 14) (size 15 to 20)
#    0.000    1.231    4.615    2.769    0.000    0.000 
#    0.000   13.077    0.000    0.000    0.000    0.000 
#    0.000    0.000    0.000    0.000    0.000    0.000 
#
# Total GULP energy -145031.997201 kJ/mol
# GULP energy per Si atom -5578.153739 kJ/mol
# Density = 2.255952 g / cm^3
# Si number density = 22.610986 Si / 1000 Ang^3
#
#
#
# Elastic Constant Matrix: (Units=GPa)
#
#
# Indices 1 2 3 4 5 6 
#
# 1 56.5546 18.6087 -2.6383 0.0000 0.0000 0.0000
# 2 18.6087 99.3060 23.0505 0.0000 0.0000 0.0000
# 3 -2.6383 23.0505 59.7706 0.0000 0.0000 0.0000
# 4 0.0000 0.0000 0.0000 30.6147 0.0000 0.0000
# 5 0.0000 0.0000 0.0000 0.0000 20.9745 0.0000
# 6 0.0000 0.0000 0.0000 0.0000 0.0000 28.6364
#
#
#
# Elastic Compliance Matrix: (Units=1/GPa)
#
#
# Indices 1 2 3 4 5 6 
#
# 1 0.019165 -0.004160 0.002450 0.000000 0.000000 0.000000
# 2 -0.004160 0.011963 -0.004797 0.000000 0.000000 0.000000
# 3 0.002450 -0.004797 0.018689 0.000000 0.000000 0.000000
# 4 0.000000 0.000000 0.000000 0.032664 0.000000 0.000000
# 5 0.000000 0.000000 0.000000 0.000000 0.047677 0.000000
# 6 0.000000 0.000000 0.000000 0.000000 0.000000 0.034921
#
#
# Mechanical properties :
#
#
# Convention : Reuss Voigt Hill
#
# Bulk Modulus (GPa) = 27.17162 32.63034 29.90098
# Shear Modulus (GPa) = 26.26600 27.81912 27.04256
#
# Velocity S-wave (km/s) = 3.41199 3.51142 3.46206
# Velocity P-wave (km/s) = 5.25027 5.55901 5.40685
#
# Compressibility (1/GPa) = 0.03680311
#
# Stress axis : x y z
#
# Youngs Moduli (GPa) = 52.17796 83.59166 53.50794
#
# Poissons Ratio (x) = 0.34775 -0.13111
# Poissons Ratio (y) = 0.21706 0.25668
# Poissons Ratio (z) = -0.12785 0.40100
#
# Static dielectric constant tensor:
#      x y z
#    x 1.913420 0.000000 0.000000 
#    y 0.000000 1.870000 0.000000 
#    z 0.000000 0.000000 1.876260 
# 
# From -- ./inp_files/3772.got.cif
#   From: 2010.05.17/outbox.cif.g08.bks.cpg/sg41_2_cif.got.tgz:3772.got - 2010.06.03 18:54:24.
