data_PCOD9367160
_publ_section_title
;
Structure prediction by ZEFSAII (Michael W. Deem and Ramdas Pophale) SiO2 
 PCOD9367160
Probable space group: A B A 2
;
_chemical_formula_sum "Si O2"
_cell_formula_units_Z 48
_cell_length_a 16.114923
_cell_length_b 12.303049
_cell_length_c 9.926207
_cell_angle_alpha 90.000000
_cell_angle_beta 90.000000
_cell_angle_gamma 90.000000
_cell_volume 1967.996475
_symmetry_space_group_name_H-M "A B A 2"
_symmetry_group_IT_number 41
_symmetry_cell_setting 'orthorhombic'
loop_
_space_group_symop_operation_xyz
x,y,z
-x,-y,z
1/2-x,y,1/2+z
1/2+x,-y,1/2+z
x,1/2+y,1/2+z
-x,1/2-y,1/2+z
1/2-x,1/2+y,z
1/2+x,1/2-y,z
loop_
_atom_site_type_symbol
_atom_site_label
_atom_site_fract_x
_atom_site_fract_y
_atom_site_fract_z
Si Si1 0.339528 0.876949 0.194940
Si Si2 0.644597 0.148568 0.671361
Si Si3 0.589817 0.458204 0.009514
Si Si4 0.855403 0.851432 0.275215
Si Si5 0.589817 0.541796 0.437062
Si Si6 0.160472 0.623051 0.251636
O O1 0.240655 0.867498 0.213499
O O2 0.374806 0.776311 0.279630
O O3 0.366477 1.000000 0.223288
O O4 0.365934 0.875278 0.038493
O O5 0.589213 0.101379 0.792676
O O6 0.625194 0.276311 0.666946
O O7 0.636856 0.071761 0.541471
O O8 0.500000 0.500000 0.965541
O O9 0.589212 0.398621 0.153900
O O10 0.634066 0.375278 0.908083
O O11 0.759346 0.867498 0.233076
O O12 0.863144 0.928239 0.405106
O O13 0.500000 0.500000 0.481034
#
# Coordination Sequence:
#
# PCOD9367160 Si02
#       6
#     8   8   8   8   8   8
#     4  11  23  41  67 100 129 169 230 279 324 402
#     4  10  22  42  71  92 130 177 228 274 328 407
#     4  11  23  45  66  94 135 175 218 275 346 405
#     4  10  22  42  71  92 130 177 228 274 328 407
#     4  11  23  45  66  94 135 175 218 275 346 405
#     4  11  23  41  67 100 129 169 230 279 324 402
#
# _framework density 24.39029
#
# number of rings (size 3 to 8) (size 9 to 14) (size 15 to 20)
#    0.000    1.333    3.333    4.000    0.000    2.000 
#   18.000    0.000    0.000    0.000    0.000    0.000 
#    0.000    0.000    0.000    0.000    0.000    0.000 
#
# Total GULP energy -133952.288283 kJ/mol
# GULP energy per Si atom -5581.345345 kJ/mol
# Density = 2.433478 g / cm^3
# Si number density = 24.390290 Si / 1000 Ang^3
#
#
#
# Elastic Constant Matrix: (Units=GPa)
#
#
# Indices 1 2 3 4 5 6 
#
# 1 47.8894 9.9829 10.1788 0.0000 0.0000 0.0000
# 2 9.9829 200.7715 10.6812 0.0000 0.0000 0.0000
# 3 10.1788 10.6812 27.0910 0.0000 0.0000 0.0000
# 4 0.0000 0.0000 0.0000 39.9560 0.0000 0.0000
# 5 0.0000 0.0000 0.0000 0.0000 35.7253 0.0000
# 6 0.0000 0.0000 0.0000 0.0000 0.0000 -3.8346
#
#
#
# Elastic Compliance Matrix: (Units=1/GPa)
#
#
# Indices 1 2 3 4 5 6 
#
# 1 0.022788 -0.000692 -0.008289 0.000000 0.000000 0.000000
# 2 -0.000692 0.005109 -0.001754 0.000000 0.000000 0.000000
# 3 -0.008289 -0.001754 0.040719 0.000000 0.000000 0.000000
# 4 0.000000 0.000000 0.000000 0.025028 0.000000 0.000000
# 5 0.000000 0.000000 0.000000 0.000000 0.027991 0.000000
# 6 0.000000 0.000000 0.000000 0.000000 0.000000 -0.260780
#
#
# Mechanical properties :
#
#
# Convention : Reuss Voigt Hill
#
# Bulk Modulus (GPa) = 21.21151 37.49311 29.35231
# Shear Modulus (GPa) = -49.03822 30.69659 -9.17081
#
# Velocity S-wave (km/s) = -4.48879 3.55146 -1.94118
# Velocity P-wave (km/s) = 4.26030 5.67651 2.65260
#
# Compressibility (1/GPa) = 0.04714421
#
# Stress axis : x y z
#
# Youngs Moduli (GPa) = 43.88367 195.75143 24.55880
#
# Poissons Ratio (x) = 0.13548 0.20357
# Poissons Ratio (y) = 0.03037 0.04308
# Poissons Ratio (z) = 0.36375 0.34337
#
# Static dielectric constant tensor:
#      x y z
#    x 1.900290 0.000000 0.000000 
#    y 0.000000 1.991280 0.000000 
#    z 0.000000 0.000000 2.144210 
# 
# From -- ./inp_files/5913.got.cif
#   From: 2010.05.17/outbox.cif.g08.bks.cpg/sg41_3_cif.got.tgz:5913.got - 2010.06.03 18:54:24.
