data_PCOD9367741
_publ_section_title
;
Structure prediction by ZEFSAII (Michael W. Deem and Ramdas Pophale) SiO2 
 PCOD9367741
Probable space group: A B A 2
;
_chemical_formula_sum "Si O2"
_cell_formula_units_Z 48
_cell_length_a 14.524946
_cell_length_b 17.434568
_cell_length_c 8.335811
_cell_angle_alpha 90.000000
_cell_angle_beta 90.000000
_cell_angle_gamma 90.000000
_cell_volume 2110.928758
_symmetry_space_group_name_H-M "A B A 2"
_symmetry_group_IT_number 41
_symmetry_cell_setting 'orthorhombic'
loop_
_space_group_symop_operation_xyz
x,y,z
-x,-y,z
1/2-x,y,1/2+z
1/2+x,-y,1/2+z
x,1/2+y,1/2+z
-x,1/2-y,1/2+z
1/2-x,1/2+y,z
1/2+x,1/2-y,z
loop_
_atom_site_type_symbol
_atom_site_label
_atom_site_fract_x
_atom_site_fract_y
_atom_site_fract_z
Si Si1 0.973450 0.801827 0.126520
Si Si2 0.335905 0.596485 0.687808
Si Si3 0.701351 0.571621 0.631569
Si Si4 0.971265 0.137883 0.773838
Si Si5 0.713787 0.313416 0.991488
Si Si6 0.850484 0.156051 0.320317
O O1 0.046240 0.832191 0.256395
O O2 0.970043 0.710953 0.155708
O O3 0.007224 0.829487 0.951100
O O4 0.865370 0.823546 0.127410
O O5 0.286160 0.519028 0.636399
O O6 0.444732 0.586880 0.709382
O O7 0.301366 0.621472 0.861099
O O8 0.310846 0.668700 0.573187
O O9 0.625028 0.594928 0.763873
O O10 0.788932 0.623672 0.674577
O O11 0.659193 0.594595 0.461259
O O12 0.692390 0.234016 0.898419
#
# Coordination Sequence:
#
# PCOD9367741 Si02
#       6
#     8   8   8   8   8   8
#     4  11  22  42  69 102 132 174 239 282 335 396
#     4  11  25  44  67 101 140 181 217 281 345 406
#     4  12  25  43  68 103 140 178 228 277 350 405
#     4  11  23  41  69  97 141 180 228 284 340 402
#     4  11  24  44  70 100 132 178 228 278 339 403
#     4  12  24  44  71 103 130 183 228 286 334 406
#
# _framework density 22.738804999999999
#
# number of rings (size 3 to 8) (size 9 to 14) (size 15 to 20)
#    0.000    0.667    5.000    3.500    2.333    1.333 
#    0.000    4.167    0.000    0.000    0.000    0.000 
#    0.000    0.000    0.000    0.000    0.000    0.000 
#
# Total GULP energy -134154.579964 kJ/mol
# GULP energy per Si atom -5589.774165 kJ/mol
# Density = 2.268705 g / cm^3
# Si number density = 22.738805 Si / 1000 Ang^3
#
#
#
# Elastic Constant Matrix: (Units=GPa)
#
#
# Indices 1 2 3 4 5 6 
#
# 1 52.0125 24.5489 11.2686 0.0000 0.0000 0.0000
# 2 24.5489 102.9374 32.2959 0.0000 0.0000 0.0000
# 3 11.2686 32.2959 68.4003 0.0000 0.0000 0.0000
# 4 0.0000 0.0000 0.0000 30.4135 0.0000 0.0000
# 5 0.0000 0.0000 0.0000 0.0000 33.9474 0.0000
# 6 0.0000 0.0000 0.0000 0.0000 0.0000 24.4609
#
#
#
# Elastic Compliance Matrix: (Units=1/GPa)
#
#
# Indices 1 2 3 4 5 6 
#
# 1 0.021768 -0.004773 -0.001332 0.000000 0.000000 0.000000
# 2 -0.004773 0.012451 -0.005092 0.000000 0.000000 0.000000
# 3 -0.001332 -0.005092 0.017244 0.000000 0.000000 0.000000
# 4 0.000000 0.000000 0.000000 0.032880 0.000000 0.000000
# 5 0.000000 0.000000 0.000000 0.000000 0.029457 0.000000
# 6 0.000000 0.000000 0.000000 0.000000 0.000000 0.040882
#
#
# Mechanical properties :
#
#
# Convention : Reuss Voigt Hill
#
# Bulk Modulus (GPa) = 34.40427 39.95300 37.17864
# Shear Modulus (GPa) = 26.77151 28.11348 27.44249
#
# Velocity S-wave (km/s) = 3.43497 3.52001 3.47775
# Velocity P-wave (km/s) = 5.55834 5.84202 5.70194
#
# Compressibility (1/GPa) = 0.02906616
#
# Stress axis : x y z
#
# Youngs Moduli (GPa) = 45.93969 80.31701 57.99206
#
# Poissons Ratio (x) = 0.38337 0.07727
# Poissons Ratio (y) = 0.21928 0.29532
# Poissons Ratio (z) = 0.06121 0.40900
#
# Static dielectric constant tensor:
#      x y z
#    x 1.890550 0.000000 0.000000 
#    y 0.000000 1.819740 0.000000 
#    z 0.000000 0.000000 1.855650 
# 
# From -- ./inp_files/2524.got.cif
#   From: 2010.05.17/outbox.cif.g08.bks.cpg/sg41_2_cif.got.tgz:2524.got - 2010.06.03 18:54:24.
