data_PCOD9367727
_publ_section_title
;
Structure prediction by ZEFSAII (Michael W. Deem and Ramdas Pophale) SiO2 
 PCOD9367727
Probable space group: A B A 2
;
_chemical_formula_sum "Si O2"
_cell_formula_units_Z 36
_cell_length_a 13.853068
_cell_length_b 9.313641
_cell_length_c 10.952790
_cell_angle_alpha 90.000000
_cell_angle_beta 90.000000
_cell_angle_gamma 90.000000
_cell_volume 1413.156371
_symmetry_space_group_name_H-M "A B A 2"
_symmetry_group_IT_number 41
_symmetry_cell_setting 'orthorhombic'
loop_
_space_group_symop_operation_xyz
x,y,z
-x,-y,z
1/2-x,y,1/2+z
1/2+x,-y,1/2+z
x,1/2+y,1/2+z
-x,1/2-y,1/2+z
1/2-x,1/2+y,z
1/2+x,1/2-y,z
loop_
_atom_site_type_symbol
_atom_site_label
_atom_site_fract_x
_atom_site_fract_y
_atom_site_fract_z
Si Si1 0.801200 0.560720 0.741930
Si Si2 0.783882 0.295537 0.896312
Si Si3 0.637412 0.001648 0.082484
Si Si4 0.924816 0.235400 0.398714
Si Si5 0.000000 0.500000 0.304803
O O1 0.813539 0.396671 0.782053
O O2 0.731168 0.637235 0.843026
O O3 0.742659 0.567965 0.616878
O O4 0.898729 0.648332 0.773092
O O5 0.671527 0.326727 0.928895
O O6 0.846172 0.357064 0.006369
O O7 0.587170 0.974778 0.210644
O O8 0.575868 0.114884 0.003229
O O9 0.007240 0.352474 0.380486
#
# Coordination Sequence:
#
# PCOD9367727 Si02
#       5
#     8   8   8   8   4
#     4   9  19  38  63  91 120 159 212 256 293 388
#     4   9  20  37  62  95 115 159 220 245 292 401
#     4  11  22  40  66  89 125 169 204 255 331 350
#     4   9  23  40  59  97 121 157 217 250 311 377
#     4  12  24  42  56  98 136 158 194 286 310 362
#
# _framework density 25.474889999999998
#
# number of rings (size 3 to 8) (size 9 to 14) (size 15 to 20)
#    1.333    0.889    2.222    0.000    6.222    1.778 
#    4.000    0.000    0.000    0.000    0.000    0.000 
#    0.000    0.000    0.000    0.000    0.000    0.000 
#
# Total GULP energy -100333.778170 kJ/mol
# GULP energy per Si atom -5574.098787 kJ/mol
# Density = 2.541691 g / cm^3
# Si number density = 25.474890 Si / 1000 Ang^3
#
#
#
# Elastic Constant Matrix: (Units=GPa)
#
#
# Indices 1 2 3 4 5 6 
#
# 1 24.2414 -10.2016 5.3006 0.0000 0.0000 0.0000
# 2 -10.2016 92.7071 32.9730 0.0000 0.0000 0.0000
# 3 5.3006 32.9730 97.0479 0.0000 0.0000 0.0000
# 4 0.0000 0.0000 0.0000 35.6553 0.0000 0.0000
# 5 0.0000 0.0000 0.0000 0.0000 26.5214 0.0000
# 6 0.0000 0.0000 0.0000 0.0000 0.0000 46.9965
#
#
#
# Elastic Compliance Matrix: (Units=1/GPa)
#
#
# Indices 1 2 3 4 5 6 
#
# 1 0.045077 0.006638 -0.004717 0.000000 0.000000 0.000000
# 2 0.006638 0.013247 -0.004863 0.000000 0.000000 0.000000
# 3 -0.004717 -0.004863 0.012214 0.000000 0.000000 0.000000
# 4 0.000000 0.000000 0.000000 0.028046 0.000000 0.000000
# 5 0.000000 0.000000 0.000000 0.000000 0.037705 0.000000
# 6 0.000000 0.000000 0.000000 0.000000 0.000000 0.021278
#
#
# Mechanical properties :
#
#
# Convention : Reuss Voigt Hill
#
# Bulk Modulus (GPa) = 15.46726 30.01560 22.74143
# Shear Modulus (GPa) = 27.02648 34.22960 30.62804
#
# Velocity S-wave (km/s) = 3.26069 3.66957 3.47116
# Velocity P-wave (km/s) = 4.50121 5.45549 5.00116
#
# Compressibility (1/GPa) = 0.06465267
#
# Stress axis : x y z
#
# Youngs Moduli (GPa) = 22.18439 75.48958 81.87185
#
# Poissons Ratio (x) = -0.50111 0.38622
# Poissons Ratio (y) = -0.14726 0.39817
# Poissons Ratio (z) = 0.10465 0.36713
#
# Static dielectric constant tensor:
#      x y z
#    x 2.225910 0.000000 0.000000 
#    y 0.000000 2.014270 0.000000 
#    z 0.000000 0.000000 1.974020 
# 
# From -- ./inp_files/3312.got.cif
#   From: 2010.05.17/outbox.cif.g08.bks.cpg/sg41_2_cif.got.tgz:3312.got - 2010.06.03 18:54:24.
