data_PCOD9367477
_publ_section_title
;
Structure prediction by ZEFSAII (Michael W. Deem and Ramdas Pophale) SiO2 
 PCOD9367477
Probable space group: A B A 2
;
_chemical_formula_sum "Si O2"
_cell_formula_units_Z 56
_cell_length_a 13.006409
_cell_length_b 14.039122
_cell_length_c 13.423717
_cell_angle_alpha 90.000000
_cell_angle_beta 90.000000
_cell_angle_gamma 90.000000
_cell_volume 2451.151431
_symmetry_space_group_name_H-M "A B A 2"
_symmetry_group_IT_number 41
_symmetry_cell_setting 'orthorhombic'
loop_
_space_group_symop_operation_xyz
x,y,z
-x,-y,z
1/2-x,y,1/2+z
1/2+x,-y,1/2+z
x,1/2+y,1/2+z
-x,1/2-y,1/2+z
1/2-x,1/2+y,z
1/2+x,1/2-y,z
loop_
_atom_site_type_symbol
_atom_site_label
_atom_site_fract_x
_atom_site_fract_y
_atom_site_fract_z
Si Si1 0.262483 0.357626 0.776510
Si Si2 0.999168 0.689960 0.610564
Si Si3 0.880839 0.970373 0.847167
Si Si4 0.110822 0.750858 0.930896
Si Si5 0.462571 0.394193 0.328405
Si Si6 0.287563 0.124788 0.527298
Si Si7 0.846533 0.820897 0.691712
O O1 0.319431 0.459133 0.772779
O O2 0.350382 0.300203 0.832433
O O3 0.159108 0.381134 0.838280
O O4 0.216517 0.279744 0.698434
O O5 0.926488 0.674052 0.513995
O O6 0.988180 0.627629 0.711027
O O7 0.955943 0.793338 0.643414
O O8 0.112012 0.678412 0.567764
O O9 0.826497 0.959107 0.955019
O O10 0.869019 0.865601 0.798429
O O11 0.000000 0.000000 0.854354
O O12 0.209078 0.692358 0.968485
O O13 0.020984 0.679410 0.899186
O O14 0.500000 0.500000 0.350864
O O15 0.219171 0.106741 0.625214
#
# Coordination Sequence:
#
# PCOD9367477 Si02
#       7
#     8   8   8   8   8   8   8
#     4  11  24  43  74 100 146 197 232 299 382 426
#     4  10  24  40  73 102 139 190 234 296 363 435
#     4  12  27  46  74 112 149 193 249 314 368 442
#     4  11  22  44  71 102 142 181 242 295 369 434
#     4  11  25  44  73 105 141 189 247 297 365 437
#     4  11  23  45  72 102 143 184 248 298 364 436
#     4  10  25  48  69 107 147 193 241 303 375 449
#
# _framework density 22.846406000000002
#
# number of rings (size 3 to 8) (size 9 to 14) (size 15 to 20)
#    0.000    1.143    1.429    3.429   10.000    1.714 
#    7.714    5.714    0.000    0.000    0.000    0.000 
#    0.000    0.000    0.000    0.000    0.000    0.000 
#
# Total GULP energy -156137.835084 kJ/mol
# GULP energy per Si atom -5576.351253 kJ/mol
# Density = 2.279441 g / cm^3
# Si number density = 22.846406 Si / 1000 Ang^3
#
#
#
# Elastic Constant Matrix: (Units=GPa)
#
#
# Indices 1 2 3 4 5 6 
#
# 1 86.8851 42.6981 17.5329 0.0000 0.0000 0.0000
# 2 42.6981 81.9389 32.5377 0.0000 0.0000 0.0000
# 3 17.5329 32.5377 73.4380 0.0000 0.0000 0.0000
# 4 0.0000 0.0000 0.0000 -3.4996 0.0000 0.0000
# 5 0.0000 0.0000 0.0000 0.0000 12.3272 0.0000
# 6 0.0000 0.0000 0.0000 0.0000 0.0000 22.0044
#
#
#
# Elastic Compliance Matrix: (Units=1/GPa)
#
#
# Indices 1 2 3 4 5 6 
#
# 1 0.015473 -0.008004 -0.000148 0.000000 0.000000 0.000000
# 2 -0.008004 0.018950 -0.006485 0.000000 0.000000 0.000000
# 3 -0.000148 -0.006485 0.016526 0.000000 0.000000 0.000000
# 4 0.000000 0.000000 0.000000 -0.285743 0.000000 0.000000
# 5 0.000000 0.000000 0.000000 0.000000 0.081121 0.000000
# 6 0.000000 0.000000 0.000000 0.000000 0.000000 0.045445
#
#
# Mechanical properties :
#
#
# Convention : Reuss Voigt Hill
#
# Bulk Modulus (GPa) = 46.13715 47.53326 46.83521
# Shear Modulus (GPa) = -69.70727 16.13262 -26.78733
#
# Velocity S-wave (km/s) = -5.52969 2.66020 -3.42789
# Velocity P-wave (km/s) = 4.53119 5.50330 2.20846
#
# Compressibility (1/GPa) = 0.02167451
#
# Stress axis : x y z
#
# Youngs Moduli (GPa) = 64.62978 52.76924 60.51220
#
# Poissons Ratio (x) = 0.42237 0.00894
# Poissons Ratio (y) = 0.51731 0.39244
# Poissons Ratio (z) = 0.00955 0.34222
#
# Static dielectric constant tensor:
#      x y z
#    x 1.843420 0.000000 0.000000 
#    y 0.000000 1.918320 0.000000 
#    z 0.000000 0.000000 1.914800 
# 
# From -- ./inp_files/7950.got.cif
#   From: 2010.05.17/outbox.cif.g08.bks.cpg/sg41_4_cif.got.tgz:7950.got - 2010.06.03 18:54:24.
