data_PCOD9367093
_publ_section_title
;
Structure prediction by ZEFSAII (Michael W. Deem and Ramdas Pophale) SiO2 
 PCOD9367093
Probable space group: A B A 2
;
_chemical_formula_sum "Si O2"
_cell_formula_units_Z 52
_cell_length_a 11.529064
_cell_length_b 22.473498
_cell_length_c 11.725120
_cell_angle_alpha 90.000000
_cell_angle_beta 90.000000
_cell_angle_gamma 90.000000
_cell_volume 3037.959794
_symmetry_space_group_name_H-M "A B A 2"
_symmetry_group_IT_number 41
_symmetry_cell_setting 'orthorhombic'
loop_
_space_group_symop_operation_xyz
x,y,z
-x,-y,z
1/2-x,y,1/2+z
1/2+x,-y,1/2+z
x,1/2+y,1/2+z
-x,1/2-y,1/2+z
1/2-x,1/2+y,z
1/2+x,1/2-y,z
loop_
_atom_site_type_symbol
_atom_site_label
_atom_site_fract_x
_atom_site_fract_y
_atom_site_fract_z
Si Si1 0.500000 0.000000 0.760120
Si Si2 0.533292 0.687912 0.947905
Si Si3 0.312408 0.188367 0.291570
Si Si4 0.312408 0.811632 0.228671
Si Si5 0.411415 0.616007 0.354888
Si Si6 0.911415 0.616007 0.665353
Si Si7 0.533292 0.312088 0.572336
O O1 0.423774 0.045383 0.835270
O O2 0.576226 0.045383 0.684971
O O3 0.618293 0.672502 0.843667
O O4 0.406429 0.695270 0.892260
O O5 0.544011 0.637727 0.043670
O O6 0.566019 0.750000 0.010121
O O7 0.455990 0.137727 0.976571
O O8 0.215045 0.141444 0.328676
O O9 0.381708 0.172502 0.176574
O O10 0.215045 0.858556 0.191565
O O11 0.250000 0.750000 0.260120
O O12 0.406429 0.804730 0.127981
O O13 0.500000 0.642702 0.260120
#
# Coordination Sequence:
#
# PCOD9367093 Si02
#       7
#     4   8   8   8   8   8   8
#     4   8  24  44  64  92 120 184 216 250 304 392
#     4  11  23  36  59  95 130 163 203 263 327 377
#     4  11  23  37  58  95 131 162 204 263 326 377
#     4  11  23  37  58  95 131 162 204 263 326 377
#     4  10  22  41  64  87 121 168 217 251 313 374
#     4  10  22  41  64  87 121 168 217 251 313 374
#     4  11  23  36  59  95 130 163 203 263 327 377
#
# _framework density 17.116752000000002
#
# number of rings (size 3 to 8) (size 9 to 14) (size 15 to 20)
#    0.923    0.615    3.077    1.846    8.615    0.000 
#    0.000    6.154    0.000    3.692    0.000    0.000 
#    0.000    0.000    0.000    0.000    0.000    0.000 
#
# Total GULP energy -144938.425098 kJ/mol
# GULP energy per Si atom -5574.554811 kJ/mol
# Density = 1.707779 g / cm^3
# Si number density = 17.116752 Si / 1000 Ang^3
#
#
#
# Elastic Constant Matrix: (Units=GPa)
#
#
# Indices 1 2 3 4 5 6 
#
# 1 103.4225 36.3571 50.8685 0.0000 0.0000 0.0000
# 2 36.3571 118.8056 47.9902 0.0000 0.0000 0.0000
# 3 50.8685 47.9902 130.5463 0.0000 0.0000 0.0000
# 4 0.0000 0.0000 0.0000 32.2526 0.0000 0.0000
# 5 0.0000 0.0000 0.0000 0.0000 18.1556 0.0000
# 6 0.0000 0.0000 0.0000 0.0000 0.0000 27.7630
#
#
#
# Elastic Compliance Matrix: (Units=1/GPa)
#
#
# Indices 1 2 3 4 5 6 
#
# 1 0.012419 -0.002168 -0.004042 0.000000 0.000000 0.000000
# 2 -0.002168 0.010263 -0.002928 0.000000 0.000000 0.000000
# 3 -0.004042 -0.002928 0.010312 0.000000 0.000000 0.000000
# 4 0.000000 0.000000 0.000000 0.031005 0.000000 0.000000
# 5 0.000000 0.000000 0.000000 0.000000 0.055080 0.000000
# 6 0.000000 0.000000 0.000000 0.000000 0.000000 0.036019
#
#
# Mechanical properties :
#
#
# Convention : Reuss Voigt Hill
#
# Bulk Modulus (GPa) = 67.94556 69.24509 68.59532
# Shear Modulus (GPa) = 28.04561 30.13814 29.09188
#
# Velocity S-wave (km/s) = 4.05222 4.20067 4.12711
# Velocity P-wave (km/s) = 7.85337 8.00437 7.92923
#
# Compressibility (1/GPa) = 0.01471767
#
# Stress axis : x y z
#
# Youngs Moduli (GPa) = 80.51930 97.43451 96.97679
#
# Poissons Ratio (x) = 0.21121 0.39202
# Poissons Ratio (y) = 0.17454 0.28397
# Poissons Ratio (z) = 0.32550 0.28531
#
# Static dielectric constant tensor:
#      x y z
#    x 1.590270 0.000000 0.000000 
#    y 0.000000 1.560900 0.000000 
#    z 0.000000 0.000000 1.585990 
# 
# From -- ./inp_files/7526.got.cif
#   From: 2010.05.17/outbox.cif.g08.bks.cpg/sg41_4_cif.got.tgz:7526.got - 2010.06.03 18:54:24.
