data_PCOD9367552
_publ_section_title
;
Structure prediction by ZEFSAII (Michael W. Deem and Ramdas Pophale) SiO2 
 PCOD9367552
Probable space group: A B A 2
;
_chemical_formula_sum "Si O2"
_cell_formula_units_Z 64
_cell_length_a 28.360398
_cell_length_b 7.763109
_cell_length_c 12.016511
_cell_angle_alpha 90.000000
_cell_angle_beta 90.000000
_cell_angle_gamma 90.000000
_cell_volume 2645.613474
_symmetry_space_group_name_H-M "A B A 2"
_symmetry_group_IT_number 41
_symmetry_cell_setting 'orthorhombic'
loop_
_space_group_symop_operation_xyz
x,y,z
-x,-y,z
1/2-x,y,1/2+z
1/2+x,-y,1/2+z
x,1/2+y,1/2+z
-x,1/2-y,1/2+z
1/2-x,1/2+y,z
1/2+x,1/2-y,z
loop_
_atom_site_type_symbol
_atom_site_label
_atom_site_fract_x
_atom_site_fract_y
_atom_site_fract_z
Si Si1 0.108442 0.968105 0.678570
Si Si2 0.876769 0.527401 0.934440
Si Si3 0.938818 0.329144 0.796907
Si Si4 0.027651 0.681276 0.209109
Si Si5 0.305166 0.486356 0.258292
Si Si6 0.196897 0.575914 0.297411
Si Si7 0.647611 0.405409 0.024725
Si Si8 0.950613 0.590707 0.496947
O O1 0.077639 0.106576 0.749697
O O2 0.161656 0.971746 0.717980
O O3 0.105212 0.039924 0.553371
O O4 0.086118 0.779174 0.698146
O O5 0.917106 0.508229 0.838898
O O6 0.833779 0.443133 0.866205
O O7 0.859492 0.710346 0.981603
O O8 0.994175 0.302951 0.781314
O O9 0.929322 0.206410 0.900648
O O10 0.033526 0.793895 0.099747
O O11 0.000000 0.500000 0.186354
O O12 0.250730 0.532175 0.272637
O O13 0.310573 0.278525 0.267757
O O14 0.326715 0.554767 0.141976
O O15 0.180531 0.527497 0.422745
O O16 0.594418 0.478235 0.029893
O O17 0.000000 0.500000 0.459719
#
# Coordination Sequence:
#
# PCOD9367552 Si02
#       8
#     8   8   8   8   8   8   8   8
#     4  11  22  46  77 103 150 195 247 317 384 461
#     4  11  26  46  76 106 149 195 254 317 383 465
#     4  11  24  46  74 105 146 200 254 312 392 463
#     4  10  24  45  70 109 147 199 256 311 386 469
#     4  11  28  47  74 113 146 199 249 325 390 474
#     4  11  27  46  77 107 150 194 256 312 398 464
#     4  11  27  51  72 109 156 195 263 321 392 475
#     4  12  25  43  71 104 149 203 250 314 386 461
#
# _framework density 24.190985999999999
#
# number of rings (size 3 to 8) (size 9 to 14) (size 15 to 20)
#    0.000    1.000    2.500    2.625   10.500    1.000 
#    0.000    0.625    0.000    0.000    0.000    0.000 
#    0.000    0.000    0.000    0.000    0.000    0.000 
#
# Total GULP energy -178689.794636 kJ/mol
# GULP energy per Si atom -5584.056082 kJ/mol
# Density = 2.413593 g / cm^3
# Si number density = 24.190986 Si / 1000 Ang^3
#
#
#
# Elastic Constant Matrix: (Units=GPa)
#
#
# Indices 1 2 3 4 5 6 
#
# 1 183.9458 35.5484 59.9661 0.0000 0.0000 0.0000
# 2 35.5484 77.9548 49.6537 0.0000 0.0000 0.0000
# 3 59.9661 49.6537 148.3499 0.0000 0.0000 0.0000
# 4 0.0000 0.0000 0.0000 92.6220 0.0000 0.0000
# 5 0.0000 0.0000 0.0000 0.0000 35.9079 0.0000
# 6 0.0000 0.0000 0.0000 0.0000 0.0000 39.2850
#
#
#
# Elastic Compliance Matrix: (Units=1/GPa)
#
#
# Indices 1 2 3 4 5 6 
#
# 1 0.006418 -0.001620 -0.002052 0.000000 0.000000 0.000000
# 2 -0.001620 0.016712 -0.004939 0.000000 0.000000 0.000000
# 3 -0.002052 -0.004939 0.009224 0.000000 0.000000 0.000000
# 4 0.000000 0.000000 0.000000 0.010797 0.000000 0.000000
# 5 0.000000 0.000000 0.000000 0.000000 0.027849 0.000000
# 6 0.000000 0.000000 0.000000 0.000000 0.000000 0.025455
#
#
# Mechanical properties :
#
#
# Convention : Reuss Voigt Hill
#
# Bulk Modulus (GPa) = 66.08366 77.84300 71.96333
# Shear Modulus (GPa) = 42.11540 51.23514 46.67527
#
# Velocity S-wave (km/s) = 4.17700 4.60710 4.39731
# Velocity P-wave (km/s) = 7.11617 7.78132 7.45617
#
# Compressibility (1/GPa) = 0.01513233
#
# Stress axis : x y z
#
# Youngs Moduli (GPa) = 155.80074 59.83546 108.41778
#
# Poissons Ratio (x) = 0.09691 0.22251
# Poissons Ratio (y) = 0.25234 0.53549
# Poissons Ratio (z) = 0.31976 0.29553
#
# Static dielectric constant tensor:
#      x y z
#    x 1.947370 0.000000 0.000000 
#    y 0.000000 1.859180 0.000000 
#    z 0.000000 0.000000 1.960770 
# 
# From -- ./inp_files/6660.got.cif
#   From: 2010.05.17/outbox.cif.g08.bks.cpg/sg41_4_cif.got.tgz:6660.got - 2010.06.03 18:54:24.
