data_PCOD9367592
_publ_section_title
;
Structure prediction by ZEFSAII (Michael W. Deem and Ramdas Pophale) SiO2 
 PCOD9367592
Probable space group: A B A 2
;
_chemical_formula_sum "Si O2"
_cell_formula_units_Z 28
_cell_length_a 10.306365
_cell_length_b 10.330337
_cell_length_c 9.461402
_cell_angle_alpha 90.000000
_cell_angle_beta 90.000000
_cell_angle_gamma 90.000000
_cell_volume 1007.338665
_symmetry_space_group_name_H-M "A B A 2"
_symmetry_group_IT_number 41
_symmetry_cell_setting 'orthorhombic'
loop_
_space_group_symop_operation_xyz
x,y,z
-x,-y,z
1/2-x,y,1/2+z
1/2+x,-y,1/2+z
x,1/2+y,1/2+z
-x,1/2-y,1/2+z
1/2-x,1/2+y,z
1/2+x,1/2-y,z
loop_
_atom_site_type_symbol
_atom_site_label
_atom_site_fract_x
_atom_site_fract_y
_atom_site_fract_z
Si Si1 0.171903 0.371794 0.682010
Si Si2 0.771857 0.961903 0.438964
Si Si3 0.099929 0.721680 0.726635
Si Si4 0.000000 0.000000 0.810272
O O1 0.243803 0.484044 0.594577
O O2 0.020082 0.350921 0.653612
O O3 0.259649 0.245354 0.655379
O O4 0.450149 0.368844 0.737851
O O5 0.821092 0.085992 0.345982
O O6 0.624493 0.943260 0.389725
O O7 0.864156 0.849035 0.375871
#
# Coordination Sequence:
#
# PCOD9367592 Si02
#       4
#     8   8   8   4
#     4  11  27  49  84 119 167 227 286 358 445 516
#     4  11  26  49  80 119 164 223 290 356 440 521
#     4  11  24  54  81 121 171 224 287 366 431 536
#     4  10  24  48  74 120 160 224 276 350 446 508
#
# _framework density 27.796016999999999
#
# number of rings (size 3 to 8) (size 9 to 14) (size 15 to 20)
#    0.000    1.143    2.857    0.857    4.000    9.143 
#   20.571    0.000    0.000    0.000    0.000    0.000 
#    0.000    0.000    0.000    0.000    0.000    0.000 
#
# Total GULP energy -78172.472052 kJ/mol
# GULP energy per Si atom -5583.748004 kJ/mol
# Density = 2.773275 g / cm^3
# Si number density = 27.796017 Si / 1000 Ang^3
#
#
#
# Elastic Constant Matrix: (Units=GPa)
#
#
# Indices 1 2 3 4 5 6 
#
# 1 209.9830 71.3803 44.9015 0.0000 0.0000 0.0000
# 2 71.3803 201.2277 40.8997 0.0000 0.0000 0.0000
# 3 44.9015 40.8997 71.5862 0.0000 0.0000 0.0000
# 4 0.0000 0.0000 0.0000 12.2352 0.0000 0.0000
# 5 0.0000 0.0000 0.0000 0.0000 44.1037 0.0000
# 6 0.0000 0.0000 0.0000 0.0000 0.0000 44.7977
#
#
#
# Elastic Compliance Matrix: (Units=1/GPa)
#
#
# Indices 1 2 3 4 5 6 
#
# 1 0.005880 -0.001512 -0.002825 0.000000 0.000000 0.000000
# 2 -0.001512 0.006011 -0.002486 0.000000 0.000000 0.000000
# 3 -0.002825 -0.002486 0.017161 0.000000 0.000000 0.000000
# 4 0.000000 0.000000 0.000000 0.081731 0.000000 0.000000
# 5 0.000000 0.000000 0.000000 0.000000 0.022674 0.000000
# 6 0.000000 0.000000 0.000000 0.000000 0.000000 0.022323
#
#
# Mechanical properties :
#
#
# Convention : Reuss Voigt Hill
#
# Bulk Modulus (GPa) = 64.90275 88.57330 76.73802
# Shear Modulus (GPa) = 28.64331 41.93501 35.28916
#
# Velocity S-wave (km/s) = 3.21360 3.88837 3.56698
# Velocity P-wave (km/s) = 6.09672 7.21761 6.68071
#
# Compressibility (1/GPa) = 0.01540767
#
# Stress axis : x y z
#
# Youngs Moduli (GPa) = 170.06319 166.36029 58.27089
#
# Poissons Ratio (x) = 0.25149 0.16459
# Poissons Ratio (y) = 0.25709 0.14487
# Poissons Ratio (z) = 0.48035 0.41359
#
# Static dielectric constant tensor:
#      x y z
#    x 2.197430 0.000000 0.000000 
#    y 0.000000 2.205650 0.000000 
#    z 0.000000 0.000000 2.242540 
# 
# From -- ./inp_files/4262.got.cif
#   From: 2010.05.17/outbox.cif.g08.bks.cpg/sg41_3_cif.got.tgz:4262.got - 2010.06.03 18:54:24.
