data_PCOD9367247
_publ_section_title
;
Structure prediction by ZEFSAII (Michael W. Deem and Ramdas Pophale) SiO2 
 PCOD9367247
Probable space group: A B A 2
;
_chemical_formula_sum "Si O2"
_cell_formula_units_Z 48
_cell_length_a 22.551603
_cell_length_b 8.003564
_cell_length_c 11.398972
_cell_angle_alpha 90.000000
_cell_angle_beta 90.000000
_cell_angle_gamma 90.000000
_cell_volume 2057.436909
_symmetry_space_group_name_H-M "A B A 2"
_symmetry_group_IT_number 41
_symmetry_cell_setting 'orthorhombic'
loop_
_space_group_symop_operation_xyz
x,y,z
-x,-y,z
1/2-x,y,1/2+z
1/2+x,-y,1/2+z
x,1/2+y,1/2+z
-x,1/2-y,1/2+z
1/2-x,1/2+y,z
1/2+x,1/2-y,z
loop_
_atom_site_type_symbol
_atom_site_label
_atom_site_fract_x
_atom_site_fract_y
_atom_site_fract_z
Si Si1 0.460673 0.639172 0.031700
Si Si2 0.214387 0.744596 0.508194
Si Si3 0.377955 0.707754 0.828726
Si Si4 0.662787 0.881038 0.962279
Si Si5 0.448855 0.628542 0.623265
Si Si6 0.647859 0.950676 0.698899
O O1 0.500000 0.500000 0.966312
O O2 0.509954 0.709251 0.121559
O O3 0.407519 0.580849 0.114427
O O4 0.426714 0.747741 0.931186
O O5 0.180380 0.652951 0.399537
O O6 0.284535 0.744595 0.493764
O O7 0.199787 0.636274 0.623485
O O8 0.187353 0.932568 0.498666
O O9 0.413418 0.586851 0.741626
O O10 0.356613 0.857171 0.742798
O O11 0.649683 0.864191 0.825133
O O12 0.601573 0.853436 0.027279
O O13 0.500000 0.500000 0.591931
#
# Coordination Sequence:
#
# PCOD9367247 Si02
#       6
#     8   8   8   8   8   8
#     4  11  23  43  71 103 141 192 237 285 367 434
#     4  10  25  47  69 101 135 184 240 291 371 430
#     4  10  23  43  68 103 137 181 237 293 354 435
#     4  11  27  44  72 101 141 186 241 306 360 450
#     4  12  25  43  68 104 145 184 240 299 357 440
#     4  10  22  45  68  99 139 184 228 298 358 427
#
# _framework density 23.329996000000001
#
# number of rings (size 3 to 8) (size 9 to 14) (size 15 to 20)
#    0.000    1.333    1.667    3.500    7.000    2.000 
#    6.000    0.000    0.000    0.000    0.000    0.000 
#    0.000    0.000    0.000    0.000    0.000    0.000 
#
# Total GULP energy -133767.528324 kJ/mol
# GULP energy per Si atom -5573.647014 kJ/mol
# Density = 2.327690 g / cm^3
# Si number density = 23.329996 Si / 1000 Ang^3
#
#
#
# Elastic Constant Matrix: (Units=GPa)
#
#
# Indices 1 2 3 4 5 6 
#
# 1 63.6811 -6.8225 20.1629 0.0000 0.0000 0.0000
# 2 -6.8225 26.9246 3.0756 0.0000 0.0000 0.0000
# 3 20.1629 3.0756 144.1071 0.0000 0.0000 0.0000
# 4 0.0000 0.0000 0.0000 23.5464 0.0000 0.0000
# 5 0.0000 0.0000 0.0000 0.0000 27.4846 0.0000
# 6 0.0000 0.0000 0.0000 0.0000 0.0000 22.3993
#
#
#
# Elastic Compliance Matrix: (Units=1/GPa)
#
#
# Indices 1 2 3 4 5 6 
#
# 1 0.016977 0.004585 -0.002473 0.000000 0.000000 0.000000
# 2 0.004585 0.038470 -0.001462 0.000000 0.000000 0.000000
# 3 -0.002473 -0.001462 0.007317 0.000000 0.000000 0.000000
# 4 0.000000 0.000000 0.000000 0.042469 0.000000 0.000000
# 5 0.000000 0.000000 0.000000 0.000000 0.036384 0.000000
# 6 0.000000 0.000000 0.000000 0.000000 0.000000 0.044644
#
#
# Mechanical properties :
#
#
# Convention : Reuss Voigt Hill
#
# Bulk Modulus (GPa) = 15.61009 29.72719 22.66864
# Shear Modulus (GPa) = 24.23449 29.23917 26.73683
#
# Velocity S-wave (km/s) = 3.22649 3.54402 3.38898
# Velocity P-wave (km/s) = 4.53716 5.43291 5.00511
#
# Compressibility (1/GPa) = 0.06406113
#
# Stress axis : x y z
#
# Youngs Moduli (GPa) = 58.90150 25.99458 136.67655
#
# Poissons Ratio (x) = -0.11917 0.33804
# Poissons Ratio (y) = -0.27003 0.19989
# Poissons Ratio (z) = 0.14568 0.03802
#
# Static dielectric constant tensor:
#      x y z
#    x 1.883070 0.000000 0.000000 
#    y 0.000000 2.321810 0.000000 
#    z 0.000000 0.000000 1.874740 
# 
# From -- ./inp_files/6405.got.cif
#   From: 2010.05.17/outbox.cif.g08.bks.cpg/sg41_4_cif.got.tgz:6405.got - 2010.06.03 18:54:24.
