data_PCOD9367217
_publ_section_title
;
Structure prediction by ZEFSAII (Michael W. Deem and Ramdas Pophale) SiO2 
 PCOD9367217
Probable space group: A B A 2
;
_chemical_formula_sum "Si O2"
_cell_formula_units_Z 60
_cell_length_a 8.511137
_cell_length_b 25.589740
_cell_length_c 14.371119
_cell_angle_alpha 90.000000
_cell_angle_beta 90.000000
_cell_angle_gamma 90.000000
_cell_volume 3129.997856
_symmetry_space_group_name_H-M "A B A 2"
_symmetry_group_IT_number 41
_symmetry_cell_setting 'orthorhombic'
loop_
_space_group_symop_operation_xyz
x,y,z
-x,-y,z
1/2-x,y,1/2+z
1/2+x,-y,1/2+z
x,1/2+y,1/2+z
-x,1/2-y,1/2+z
1/2-x,1/2+y,z
1/2+x,1/2-y,z
loop_
_atom_site_type_symbol
_atom_site_label
_atom_site_fract_x
_atom_site_fract_y
_atom_site_fract_z
Si Si1 0.500000 0.500000 0.942811
Si Si2 0.082618 0.102397 0.860894
Si Si3 0.377082 0.701702 0.546626
Si Si4 0.763339 0.188408 0.600137
Si Si5 0.971396 0.598400 0.553400
Si Si6 0.828766 0.182711 0.817289
Si Si7 0.015544 0.710382 0.851452
Si Si8 0.319596 0.141045 0.702915
O O1 0.408766 0.539771 0.875438
O O2 0.579654 0.542059 0.012689
O O3 0.913552 0.127160 0.831606
O O4 0.204896 0.119106 0.782544
O O5 0.084603 0.119645 0.969801
O O6 0.332639 0.761708 0.564928
O O7 0.558614 0.692446 0.568412
O O8 0.372272 0.692181 0.435907
O O9 0.278158 0.669089 0.621347
O O10 0.673333 0.137068 0.566090
O O11 0.776969 0.188862 0.711163
O O12 0.069629 0.599784 0.648931
O O13 0.956848 0.227503 0.841278
O O14 0.665218 0.194539 0.869931
O O15 0.073808 0.683262 0.756808
#
# Coordination Sequence:
#
# PCOD9367217 Si02
#       8
#     4   8   8   8   8   8   8   8
#     4   8  24  48  68  90 118 168 220 274 348 358
#     4  10  22  44  67  89 126 169 212 277 327 382
#     4  12  24  37  61  98 136 176 205 254 311 403
#     4  12  22  42  63  94 135 173 214 257 321 388
#     4  10  22  44  67  89 126 169 212 277 327 382
#     4  12  22  42  63  94 135 173 214 257 321 388
#     4  12  24  37  61  98 136 176 205 254 311 403
#     4  12  22  40  64  96 134 166 220 250 326 390
#
# _framework density 19.169343000000001
#
# number of rings (size 3 to 8) (size 9 to 14) (size 15 to 20)
#    0.800    0.000    4.000    5.600    0.000    0.000 
#    2.400    0.000    0.000    1.600    0.000    0.000 
#    0.000    0.000    0.000    0.000    0.000    0.000 
#
# Total GULP energy -167155.418956 kJ/mol
# GULP energy per Si atom -5571.847299 kJ/mol
# Density = 1.912571 g / cm^3
# Si number density = 19.169343 Si / 1000 Ang^3
#
#
#
# Elastic Constant Matrix: (Units=GPa)
#
#
# Indices 1 2 3 4 5 6 
#
# 1 92.2935 51.3471 28.0024 0.0000 0.0000 0.0000
# 2 51.3471 87.7483 19.7089 0.0000 0.0000 0.0000
# 3 28.0024 19.7089 112.6105 0.0000 0.0000 0.0000
# 4 0.0000 0.0000 0.0000 41.5390 0.0000 0.0000
# 5 0.0000 0.0000 0.0000 0.0000 29.6322 0.0000
# 6 0.0000 0.0000 0.0000 0.0000 0.0000 6.4941
#
#
#
# Elastic Compliance Matrix: (Units=1/GPa)
#
#
# Indices 1 2 3 4 5 6 
#
# 1 0.016739 -0.009223 -0.002548 0.000000 0.000000 0.000000
# 2 -0.009223 0.016944 -0.000672 0.000000 0.000000 0.000000
# 3 -0.002548 -0.000672 0.009631 0.000000 0.000000 0.000000
# 4 0.000000 0.000000 0.000000 0.024074 0.000000 0.000000
# 5 0.000000 0.000000 0.000000 0.000000 0.033747 0.000000
# 6 0.000000 0.000000 0.000000 0.000000 0.000000 0.153986
#
#
# Mechanical properties :
#
#
# Convention : Reuss Voigt Hill
#
# Bulk Modulus (GPa) = 54.26447 54.52989 54.39718
# Shear Modulus (GPa) = 17.47329 28.43932 22.95630
#
# Velocity S-wave (km/s) = 3.02242 3.85591 3.46432
# Velocity P-wave (km/s) = 6.36784 6.95214 6.66639
#
# Compressibility (1/GPa) = 0.01842826
#
# Stress axis : x y z
#
# Youngs Moduli (GPa) = 59.73977 59.01771 103.82622
#
# Poissons Ratio (x) = 0.54431 0.26458
# Poissons Ratio (y) = 0.55097 0.06978
# Poissons Ratio (z) = 0.15224 0.03967
#
# Static dielectric constant tensor:
#      x y z
#    x 1.669630 0.000000 0.000000 
#    y 0.000000 1.658190 0.000000 
#    z 0.000000 0.000000 1.728120 
# 
# From -- ./inp_files/7611.got.cif
#   From: 2010.05.17/outbox.cif.g08.bks.cpg/sg41_4_cif.got.tgz:7611.got - 2010.06.03 18:54:24.
