data_PCOD9367674
_publ_section_title
;
Structure prediction by ZEFSAII (Michael W. Deem and Ramdas Pophale) SiO2 
 PCOD9367674
Probable space group: A B A 2
;
_chemical_formula_sum "Si O2"
_cell_formula_units_Z 60
_cell_length_a 17.949159
_cell_length_b 13.080031
_cell_length_c 12.559850
_cell_angle_alpha 90.000000
_cell_angle_beta 90.000000
_cell_angle_gamma 90.000000
_cell_volume 2948.745769
_symmetry_space_group_name_H-M "A B A 2"
_symmetry_group_IT_number 41
_symmetry_cell_setting 'orthorhombic'
loop_
_space_group_symop_operation_xyz
x,y,z
-x,-y,z
1/2-x,y,1/2+z
1/2+x,-y,1/2+z
x,1/2+y,1/2+z
-x,1/2-y,1/2+z
1/2-x,1/2+y,z
1/2+x,1/2-y,z
loop_
_atom_site_type_symbol
_atom_site_label
_atom_site_fract_x
_atom_site_fract_y
_atom_site_fract_z
Si Si1 0.857950 0.485531 0.896680
Si Si2 0.273054 0.549337 0.198908
Si Si3 0.352114 0.248950 0.880729
Si Si4 0.810461 0.769313 0.776125
Si Si5 0.358162 0.801901 0.996455
Si Si6 0.799749 0.647931 0.575088
Si Si7 0.500000 0.000000 0.745253
Si Si8 0.423167 0.685998 0.177706
O O1 0.789079 0.501041 0.815006
O O2 0.853710 0.366641 0.930333
O O3 0.863449 0.576830 0.978786
O O4 0.929529 0.500377 0.822151
O O5 0.202056 0.620621 0.220663
O O6 0.274479 0.465866 0.106573
O O7 0.346145 0.619050 0.176219
O O8 0.273166 0.258843 0.818364
O O9 0.415284 0.246868 0.789518
O O10 0.351588 0.332687 0.973253
O O11 0.858926 0.754820 0.882237
O O12 0.833987 0.694185 0.682258
O O13 0.275773 0.789177 0.047776
O O14 0.418706 0.758811 0.077028
O O15 0.511139 0.896561 0.678867
#
# Coordination Sequence:
#
# PCOD9367674 Si02
#       8
#     8   8   8   8   8   8   4   8
#     4   9  18  34  54  73  95 136 173 220 256 306
#     4   9  18  32  49  73 109 140 168 186 255 309
#     4   8  18  32  46  72 105 131 174 197 241 310
#     4   9  18  31  44  76 108 139 163 201 237 313
#     4  11  19  30  54  79 106 130 172 211 260 310
#     4  11  18  29  51  77 111 144 160 197 251 321
#     4   8  18  38  56  64  98 134 184 224 270 308
#     4   9  18  37  52  75  98 130 178 225 252 305
#
# _framework density 20.347633999999999
#
# number of rings (size 3 to 8) (size 9 to 14) (size 15 to 20)
#    0.000    3.200    4.000    0.000    1.867    1.067 
#    0.000    5.333    0.000    0.000    0.000    0.000 
#    0.000    0.000    0.000    0.000    0.000    0.000 
#
# Total GULP energy -167023.612854 kJ/mol
# GULP energy per Si atom -5567.453762 kJ/mol
# Density = 2.030132 g / cm^3
# Si number density = 20.347634 Si / 1000 Ang^3
#
#
#
# Elastic Constant Matrix: (Units=GPa)
#
#
# Indices 1 2 3 4 5 6 
#
# 1 14.2571 5.8207 -2.7773 0.0000 0.0000 0.0000
# 2 5.8207 76.0018 49.6247 0.0000 0.0000 0.0000
# 3 -2.7773 49.6247 100.1928 0.0000 0.0000 0.0000
# 4 0.0000 0.0000 0.0000 45.0893 0.0000 0.0000
# 5 0.0000 0.0000 0.0000 0.0000 12.1443 0.0000
# 6 0.0000 0.0000 0.0000 0.0000 0.0000 15.8272
#
#
#
# Elastic Compliance Matrix: (Units=1/GPa)
#
#
# Indices 1 2 3 4 5 6 
#
# 1 0.075912 -0.010623 0.007366 0.000000 0.000000 0.000000
# 2 -0.010623 0.020933 -0.010662 0.000000 0.000000 0.000000
# 3 0.007366 -0.010662 0.015466 0.000000 0.000000 0.000000
# 4 0.000000 0.000000 0.000000 0.022178 0.000000 0.000000
# 5 0.000000 0.000000 0.000000 0.000000 0.082343 0.000000
# 6 0.000000 0.000000 0.000000 0.000000 0.000000 0.063182
#
#
# Mechanical properties :
#
#
# Convention : Reuss Voigt Hill
#
# Bulk Modulus (GPa) = 11.83829 32.86533 22.35181
# Shear Modulus (GPa) = 14.88040 23.79774 19.33907
#
# Velocity S-wave (km/s) = 2.70721 3.42359 3.08625
# Velocity P-wave (km/s) = 3.95001 5.64047 4.86917
#
# Compressibility (1/GPa) = 0.08447165
#
# Stress axis : x y z
#
# Youngs Moduli (GPa) = 13.17307 47.77109 64.65807
#
# Poissons Ratio (x) = 0.50749 -0.47627
# Poissons Ratio (y) = 0.13994 0.68942
# Poissons Ratio (z) = -0.09703 0.50936
#
# Static dielectric constant tensor:
#      x y z
#    x 1.728340 0.000000 0.000000 
#    y 0.000000 1.808420 0.000000 
#    z 0.000000 0.000000 1.803680 
# 
# From -- ./inp_files/6318.got.cif
#   From: 2010.05.17/outbox.cif.g08.bks.cpg/sg41_4_cif.got.tgz:6318.got - 2010.06.03 18:54:24.
