data_PCOD9367695
_publ_section_title
;
Structure prediction by ZEFSAII (Michael W. Deem and Ramdas Pophale) SiO2 
 PCOD9367695
Probable space group: A B A 2
;
_chemical_formula_sum "Si O2"
_cell_formula_units_Z 44
_cell_length_a 13.683945
_cell_length_b 19.301799
_cell_length_c 5.683850
_cell_angle_alpha 90.000000
_cell_angle_beta 90.000000
_cell_angle_gamma 90.000000
_cell_volume 1501.245494
_symmetry_space_group_name_H-M "A B A 2"
_symmetry_group_IT_number 41
_symmetry_cell_setting 'orthorhombic'
loop_
_space_group_symop_operation_xyz
x,y,z
-x,-y,z
1/2-x,y,1/2+z
1/2+x,-y,1/2+z
x,1/2+y,1/2+z
-x,1/2-y,1/2+z
1/2-x,1/2+y,z
1/2+x,1/2-y,z
loop_
_atom_site_type_symbol
_atom_site_label
_atom_site_fract_x
_atom_site_fract_y
_atom_site_fract_z
Si Si1 0.510380 0.392651 0.814890
Si Si2 0.869215 0.713253 0.890238
Si Si3 0.837265 0.564895 0.011785
Si Si4 0.212402 0.582391 0.093970
Si Si5 0.000000 0.500000 0.686242
Si Si6 0.919176 0.256050 0.889107
O O1 0.405671 0.421984 0.737455
O O2 0.597186 0.404402 0.630710
O O3 0.482622 0.315431 0.883529
O O4 0.544873 0.438888 0.030634
O O5 0.859374 0.750146 0.634335
O O6 0.986424 0.693265 0.892662
O O7 0.808989 0.641111 0.914394
O O8 0.860731 0.753410 0.142105
O O9 0.768707 0.500896 0.078286
O O10 0.914619 0.534089 0.831293
O O11 0.258011 0.610518 0.337710
#
# Coordination Sequence:
#
# PCOD9367695 Si02
#       6
#     8   8   8   8   4   8
#     4  11  21  35  59  82 112 149 189 233 280 341
#     4   9  18  31  52  83 110 136 179 238 284 319
#     4  11  21  35  59  82 112 149 189 233 280 341
#     4  12  26  38  53  83 122 152 186 232 286 338
#     4  12  16  32  60  84 112 138 194 228 274 334
#     4   9  18  31  52  83 110 136 179 238 284 319
#
# _framework density 29.308999
#
# number of rings (size 3 to 8) (size 9 to 14) (size 15 to 20)
#    0.000    1.455    5.455    1.091    0.000    0.000 
#    0.000    0.000    0.000    2.182    0.000    0.000 
#    0.000    0.000    0.000    0.000    0.000    0.000 
#
# Total GULP energy -123156.764014 kJ/mol
# GULP energy per Si atom -5598.034728 kJ/mol
# Density = 2.924229 g / cm^3
# Si number density = 29.308999 Si / 1000 Ang^3
#
#
#
# Elastic Constant Matrix: (Units=GPa)
#
#
# Indices 1 2 3 4 5 6 
#
# 1 102.2994 15.4639 44.0200 0.0000 0.0000 0.0000
# 2 15.4639 108.9875 30.6098 0.0000 0.0000 0.0000
# 3 44.0200 30.6098 242.2788 0.0000 0.0000 0.0000
# 4 0.0000 0.0000 0.0000 37.8593 0.0000 0.0000
# 5 0.0000 0.0000 0.0000 0.0000 44.6448 0.0000
# 6 0.0000 0.0000 0.0000 0.0000 0.0000 28.6354
#
#
#
# Elastic Compliance Matrix: (Units=1/GPa)
#
#
# Indices 1 2 3 4 5 6 
#
# 1 0.010710 -0.001009 -0.001818 0.000000 0.000000 0.000000
# 2 -0.001009 0.009608 -0.001031 0.000000 0.000000 0.000000
# 3 -0.001818 -0.001031 0.004588 0.000000 0.000000 0.000000
# 4 0.000000 0.000000 0.000000 0.026414 0.000000 0.000000
# 5 0.000000 0.000000 0.000000 0.000000 0.022399 0.000000
# 6 0.000000 0.000000 0.000000 0.000000 0.000000 0.034922
#
#
# Mechanical properties :
#
#
# Convention : Reuss Voigt Hill
#
# Bulk Modulus (GPa) = 58.17223 70.41704 64.29463
# Shear Modulus (GPa) = 40.95448 46.45937 43.70693
#
# Velocity S-wave (km/s) = 3.74215 3.98572 3.86585
# Velocity P-wave (km/s) = 6.20988 6.72750 6.47386
#
# Compressibility (1/GPa) = 0.01719033
#
# Stress axis : x y z
#
# Youngs Moduli (GPa) = 93.36849 104.08042 217.95581
#
# Poissons Ratio (x) = 0.10501 0.39635
# Poissons Ratio (y) = 0.09420 0.22462
# Poissons Ratio (z) = 0.16979 0.10726
#
# Static dielectric constant tensor:
#      x y z
#    x 2.256660 0.000000 0.000000 
#    y 0.000000 2.336760 0.000000 
#    z 0.000000 0.000000 2.378570 
# 
# From -- ./inp_files/479.got.cif
#   From: 2010.05.17/outbox.cif.g08.bks.cpg/sg41_1_cif.got.tgz:479.got - 2010.06.03 18:54:24.
