data_PCOD9367264
_publ_section_title
;
Structure prediction by ZEFSAII (Michael W. Deem and Ramdas Pophale) SiO2 
 PCOD9367264
Probable space group: A B A 2
;
_chemical_formula_sum "Si O2"
_cell_formula_units_Z 64
_cell_length_a 8.665976
_cell_length_b 22.716463
_cell_length_c 15.561324
_cell_angle_alpha 90.000000
_cell_angle_beta 90.000000
_cell_angle_gamma 90.000000
_cell_volume 3063.407271
_symmetry_space_group_name_H-M "A B A 2"
_symmetry_group_IT_number 41
_symmetry_cell_setting 'orthorhombic'
loop_
_space_group_symop_operation_xyz
x,y,z
-x,-y,z
1/2-x,y,1/2+z
1/2+x,-y,1/2+z
x,1/2+y,1/2+z
-x,1/2-y,1/2+z
1/2-x,1/2+y,z
1/2+x,1/2-y,z
loop_
_atom_site_type_symbol
_atom_site_label
_atom_site_fract_x
_atom_site_fract_y
_atom_site_fract_z
Si Si1 0.671977 0.384884 0.233460
Si Si2 0.135602 0.314827 0.082364
Si Si3 0.604178 0.557211 0.538841
Si Si4 0.383197 0.703848 0.825957
Si Si5 0.681246 0.008439 0.676137
Si Si6 0.547623 0.714551 0.167024
Si Si7 0.871323 0.584801 0.838219
Si Si8 0.699047 0.196013 0.400418
O O1 0.810900 0.350690 0.277154
O O2 0.737793 0.441666 0.185345
O O3 0.571077 0.339714 0.175676
O O4 0.546804 0.405870 0.305226
O O5 0.053894 0.378643 0.075382
O O6 0.277626 0.306908 0.149377
O O7 0.015770 0.261945 0.097909
O O8 0.227078 0.310727 0.993163
O O9 0.500000 0.500000 0.554577
O O10 0.754581 0.543609 0.595607
O O11 0.629600 0.561484 0.436019
O O12 0.454008 0.747854 0.754835
O O13 0.245536 0.739264 0.869982
O O14 0.517200 0.687869 0.892116
O O15 0.704510 0.043114 0.765984
O O16 0.500000 0.000000 0.665045
O O17 0.782779 0.646797 0.842277
#
# Coordination Sequence:
#
# PCOD9367264 Si02
#       8
#     8   8   8   8   8   8   8   8
#     4  11  22  39  67  96 126 174 219 273 326 404
#     4  11  25  40  62  95 134 172 212 279 330 391
#     4  11  25  43  68  98 132 176 224 276 334 398
#     4  12  22  38  66  95 126 172 218 262 328 398
#     4  10  23  42  67  94 130 173 230 272 337 394
#     4  12  22  40  65  95 132 170 219 262 338 390
#     4  10  22  46  67  91 134 178 219 275 340 389
#     4  11  22  40  62  93 131 169 215 270 330 394
#
# _framework density 20.891770000000001
#
# number of rings (size 3 to 8) (size 9 to 14) (size 15 to 20)
#    0.000    1.000    3.750    3.375    3.500    1.000 
#    0.000    9.375    0.000    0.000    0.000    0.000 
#    0.000    0.000    0.000    0.000    0.000    0.000 
#
# Total GULP energy -178720.633542 kJ/mol
# GULP energy per Si atom -5585.019798 kJ/mol
# Density = 2.084422 g / cm^3
# Si number density = 20.891770 Si / 1000 Ang^3
#
#
#
# Elastic Constant Matrix: (Units=GPa)
#
#
# Indices 1 2 3 4 5 6 
#
# 1 45.3551 12.0885 13.6620 0.0000 0.0000 0.0000
# 2 12.0885 106.6968 41.3044 0.0000 0.0000 0.0000
# 3 13.6620 41.3044 75.1320 0.0000 0.0000 0.0000
# 4 0.0000 0.0000 0.0000 29.7926 0.0000 0.0000
# 5 0.0000 0.0000 0.0000 0.0000 27.6879 0.0000
# 6 0.0000 0.0000 0.0000 0.0000 0.0000 25.2422
#
#
#
# Elastic Compliance Matrix: (Units=1/GPa)
#
#
# Indices 1 2 3 4 5 6 
#
# 1 0.023462 -0.001279 -0.003563 0.000000 0.000000 0.000000
# 2 -0.001279 0.011976 -0.006351 0.000000 0.000000 0.000000
# 3 -0.003563 -0.006351 0.017450 0.000000 0.000000 0.000000
# 4 0.000000 0.000000 0.000000 0.033565 0.000000 0.000000
# 5 0.000000 0.000000 0.000000 0.000000 0.036117 0.000000
# 6 0.000000 0.000000 0.000000 0.000000 0.000000 0.039616
#
#
# Mechanical properties :
#
#
# Convention : Reuss Voigt Hill
#
# Bulk Modulus (GPa) = 32.78586 40.14375 36.46481
# Shear Modulus (GPa) = 25.67520 27.21981 26.44750
#
# Velocity S-wave (km/s) = 3.50946 3.61348 3.56185
# Velocity P-wave (km/s) = 5.67001 6.05529 5.86581
#
# Compressibility (1/GPa) = 0.03050095
#
# Stress axis : x y z
#
# Youngs Moduli (GPa) = 42.62126 83.50061 57.30801
#
# Poissons Ratio (x) = 0.10678 0.20421
# Poissons Ratio (y) = 0.05450 0.36398
# Poissons Ratio (z) = 0.15188 0.53034
#
# Static dielectric constant tensor:
#      x y z
#    x 1.729680 0.000000 0.000000 
#    y 0.000000 1.804430 0.000000 
#    z 0.000000 0.000000 1.771130 
# 
# From -- ./inp_files/7560.got.cif
#   From: 2010.05.17/outbox.cif.g08.bks.cpg/sg41_4_cif.got.tgz:7560.got - 2010.06.03 18:54:24.
