data_PCOD9367206
_publ_section_title
;
Structure prediction by ZEFSAII (Michael W. Deem and Ramdas Pophale) SiO2 
 PCOD9367206
Probable space group: A B A 2
;
_chemical_formula_sum "Si O2"
_cell_formula_units_Z 48
_cell_length_a 21.074559
_cell_length_b 18.089693
_cell_length_c 5.076139
_cell_angle_alpha 90.000000
_cell_angle_beta 90.000000
_cell_angle_gamma 90.000000
_cell_volume 1935.188158
_symmetry_space_group_name_H-M "A B A 2"
_symmetry_group_IT_number 41
_symmetry_cell_setting 'orthorhombic'
loop_
_space_group_symop_operation_xyz
x,y,z
-x,-y,z
1/2-x,y,1/2+z
1/2+x,-y,1/2+z
x,1/2+y,1/2+z
-x,1/2-y,1/2+z
1/2-x,1/2+y,z
1/2+x,1/2-y,z
loop_
_atom_site_type_symbol
_atom_site_label
_atom_site_fract_x
_atom_site_fract_y
_atom_site_fract_z
Si Si1 0.334077 0.114295 0.742610
Si Si2 0.604202 0.766226 0.351109
Si Si3 0.714735 0.252005 0.473059
Si Si4 0.371497 0.483269 0.966258
Si Si5 0.408154 0.398186 0.484907
Si Si6 0.450906 0.096517 0.151792
O O1 0.355947 0.177739 0.535646
O O2 0.319274 0.039379 0.585532
O O3 0.284362 0.158467 0.924531
O O4 0.394562 0.095649 0.933186
O O5 0.645437 0.743484 0.095055
O O6 0.591379 0.690080 0.492844
O O7 0.547610 0.819233 0.260679
O O8 0.738684 0.221539 0.197430
O O9 0.362656 0.435068 0.703874
O O10 0.426818 0.541255 0.879010
O O11 0.390767 0.428679 0.198877
O O12 0.480327 0.421638 0.544893
#
# Coordination Sequence:
#
# PCOD9367206 Si02
#       6
#     8   8   8   8   8   8
#     4  10  22  44  64  99 128 168 220 283 315 392
#     4  10  25  42  66 102 133 167 228 278 328 390
#     4  11  22  42  74  98 122 167 225 286 345 400
#     4  11  25  41  61  92 134 176 225 259 314 397
#     4  12  27  38  66  94 139 185 214 263 334 387
#     4  10  24  40  63  90 138 180 225 261 309 392
#
# _framework density 24.803791
#
# number of rings (size 3 to 8) (size 9 to 14) (size 15 to 20)
#    0.000    1.333    3.333    0.500   14.000    0.000 
#    0.000    0.000    0.000    6.000    0.000    0.000 
#    0.000    0.000    0.000    0.000    0.000    0.000 
#
# Total GULP energy -134074.730624 kJ/mol
# GULP energy per Si atom -5586.447109 kJ/mol
# Density = 2.474734 g / cm^3
# Si number density = 24.803791 Si / 1000 Ang^3
#
#
#
# Elastic Constant Matrix: (Units=GPa)
#
#
# Indices 1 2 3 4 5 6 
#
# 1 27.6018 1.8716 13.2669 0.0000 0.0000 0.0000
# 2 1.8716 152.4110 40.3548 0.0000 0.0000 0.0000
# 3 13.2669 40.3548 158.8795 0.0000 0.0000 0.0000
# 4 0.0000 0.0000 0.0000 34.8409 0.0000 0.0000
# 5 0.0000 0.0000 0.0000 0.0000 17.5531 0.0000
# 6 0.0000 0.0000 0.0000 0.0000 0.0000 13.5786
#
#
#
# Elastic Compliance Matrix: (Units=1/GPa)
#
#
# Indices 1 2 3 4 5 6 
#
# 1 0.037767 0.000398 -0.003255 0.000000 0.000000 0.000000
# 2 0.000398 0.007038 -0.001821 0.000000 0.000000 0.000000
# 3 -0.003255 -0.001821 0.007028 0.000000 0.000000 0.000000
# 4 0.000000 0.000000 0.000000 0.028702 0.000000 0.000000
# 5 0.000000 0.000000 0.000000 0.000000 0.056970 0.000000
# 6 0.000000 0.000000 0.000000 0.000000 0.000000 0.073645
#
#
# Mechanical properties :
#
#
# Convention : Reuss Voigt Hill
#
# Bulk Modulus (GPa) = 23.54138 49.98655 36.76396
# Shear Modulus (GPa) = 21.30689 32.08780 26.69734
#
# Velocity S-wave (km/s) = 2.93408 3.60066 3.28432
# Velocity P-wave (km/s) = 4.58149 6.12232 5.40708
#
# Compressibility (1/GPa) = 0.04247840
#
# Stress axis : x y z
#
# Youngs Moduli (GPa) = 26.47815 142.07635 142.28031
#
# Poissons Ratio (x) = -0.05655 0.46309
# Poissons Ratio (y) = -0.01054 0.25909
# Poissons Ratio (z) = 0.08618 0.25872
#
# Static dielectric constant tensor:
#      x y z
#    x 2.040730 0.000000 0.000000 
#    y 0.000000 2.008490 0.000000 
#    z 0.000000 0.000000 2.025980 
# 
# From -- ./inp_files/958.got.cif
#   From: 2010.05.17/outbox.cif.g08.bks.cpg/sg41_1_cif.got.tgz:958.got - 2010.06.03 18:54:24.
