data_PCOD9367690
_publ_section_title
;
Structure prediction by ZEFSAII (Michael W. Deem and Ramdas Pophale) SiO2 
 PCOD9367690
Probable space group: A B A 2
;
_chemical_formula_sum "Si O2"
_cell_formula_units_Z 48
_cell_length_a 13.225902
_cell_length_b 17.026623
_cell_length_c 8.983087
_cell_angle_alpha 90.000000
_cell_angle_beta 90.000000
_cell_angle_gamma 90.000000
_cell_volume 2022.923345
_symmetry_space_group_name_H-M "A B A 2"
_symmetry_group_IT_number 41
_symmetry_cell_setting 'orthorhombic'
loop_
_space_group_symop_operation_xyz
x,y,z
-x,-y,z
1/2-x,y,1/2+z
1/2+x,-y,1/2+z
x,1/2+y,1/2+z
-x,1/2-y,1/2+z
1/2-x,1/2+y,z
1/2+x,1/2-y,z
loop_
_atom_site_type_symbol
_atom_site_label
_atom_site_fract_x
_atom_site_fract_y
_atom_site_fract_z
Si Si1 0.819567 0.931133 0.539820
Si Si2 0.758720 0.701665 0.196045
Si Si3 0.257421 0.902946 0.948134
Si Si4 0.337961 0.652928 0.847556
Si Si5 0.492693 0.361191 0.409791
Si Si6 0.463467 0.712004 0.093424
O O1 0.753414 0.864943 0.459065
O O2 0.836143 0.908521 0.711873
O O3 0.925861 0.927084 0.453501
O O4 0.754311 0.009409 0.509063
O O5 0.784935 0.622868 0.289193
O O6 0.685630 0.761168 0.281217
O O7 0.857912 0.749869 0.152978
O O8 0.708566 0.663171 0.052473
O O9 0.378142 0.886485 0.941502
O O10 0.436317 0.657362 0.951514
O O11 0.499727 0.335020 0.237619
O O12 0.518114 0.287451 0.519803
#
# Coordination Sequence:
#
# PCOD9367690 Si02
#       6
#     8   8   8   8   8   8
#     4  12  23  40  63  94 131 169 209 268 321 393
#     4  11  20  41  61  92 123 161 218 259 307 385
#     4  11  25  39  63  93 131 167 204 263 333 374
#     4  12  21  41  68  93 123 168 226 263 311 382
#     4  11  23  39  62  93 135 162 214 266 330 384
#     4  11  23  38  67 101 120 173 219 277 317 372
#
# _framework density 23.728037
#
# number of rings (size 3 to 8) (size 9 to 14) (size 15 to 20)
#    0.000    0.667    6.667    2.500    0.000    0.000 
#    0.000    0.000    0.000    8.000    0.000    0.000 
#    0.000    0.000    0.000    0.000    0.000    0.000 
#
# Total GULP energy -134132.598355 kJ/mol
# GULP energy per Si atom -5588.858265 kJ/mol
# Density = 2.367403 g / cm^3
# Si number density = 23.728037 Si / 1000 Ang^3
#
#
#
# Elastic Constant Matrix: (Units=GPa)
#
#
# Indices 1 2 3 4 5 6 
#
# 1 31.8242 12.5158 2.1110 0.0000 0.0000 0.0000
# 2 12.5158 84.7210 35.5748 0.0000 0.0000 0.0000
# 3 2.1110 35.5748 119.9637 0.0000 0.0000 0.0000
# 4 0.0000 0.0000 0.0000 33.4468 0.0000 0.0000
# 5 0.0000 0.0000 0.0000 0.0000 34.2727 0.0000
# 6 0.0000 0.0000 0.0000 0.0000 0.0000 26.7657
#
#
#
# Elastic Compliance Matrix: (Units=1/GPa)
#
#
# Indices 1 2 3 4 5 6 
#
# 1 0.033466 -0.005365 0.001002 0.000000 0.000000 0.000000
# 2 -0.005365 0.014342 -0.004159 0.000000 0.000000 0.000000
# 3 0.001002 -0.004159 0.009551 0.000000 0.000000 0.000000
# 4 0.000000 0.000000 0.000000 0.029898 0.000000 0.000000
# 5 0.000000 0.000000 0.000000 0.000000 0.029178 0.000000
# 6 0.000000 0.000000 0.000000 0.000000 0.000000 0.037361
#
#
# Mechanical properties :
#
#
# Convention : Reuss Voigt Hill
#
# Bulk Modulus (GPa) = 24.80351 37.43466 31.11908
# Shear Modulus (GPa) = 27.13281 31.31752 29.22516
#
# Velocity S-wave (km/s) = 3.38522 3.63692 3.51333
# Velocity P-wave (km/s) = 5.07500 5.78334 5.44071
#
# Compressibility (1/GPa) = 0.04031688
#
# Stress axis : x y z
#
# Youngs Moduli (GPa) = 29.88110 69.72409 104.69579
#
# Poissons Ratio (x) = 0.37405 -0.10490
# Poissons Ratio (y) = 0.16030 0.43540
# Poissons Ratio (z) = -0.02994 0.28996
#
# Static dielectric constant tensor:
#      x y z
#    x 1.914390 0.000000 0.000000 
#    y 0.000000 1.915770 0.000000 
#    z 0.000000 0.000000 1.911950 
# 
# From -- ./inp_files/2527.got.cif
#   From: 2010.05.17/outbox.cif.g08.bks.cpg/sg41_2_cif.got.tgz:2527.got - 2010.06.03 18:54:24.
