data_PCOD9367375
_publ_section_title
;
Structure prediction by ZEFSAII (Michael W. Deem and Ramdas Pophale) SiO2 
 PCOD9367375
Probable space group: A B A 2
;
_chemical_formula_sum "Si O2"
_cell_formula_units_Z 56
_cell_length_a 12.491882
_cell_length_b 13.537700
_cell_length_c 13.044386
_cell_angle_alpha 90.000000
_cell_angle_beta 90.000000
_cell_angle_gamma 90.000000
_cell_volume 2205.953739
_symmetry_space_group_name_H-M "A B A 2"
_symmetry_group_IT_number 41
_symmetry_cell_setting 'orthorhombic'
loop_
_space_group_symop_operation_xyz
x,y,z
-x,-y,z
1/2-x,y,1/2+z
1/2+x,-y,1/2+z
x,1/2+y,1/2+z
-x,1/2-y,1/2+z
1/2-x,1/2+y,z
1/2+x,1/2-y,z
loop_
_atom_site_type_symbol
_atom_site_label
_atom_site_fract_x
_atom_site_fract_y
_atom_site_fract_z
Si Si1 0.954538 0.785670 0.397030
Si Si2 0.756226 0.872765 0.477121
Si Si3 0.065167 0.338646 0.203168
Si Si4 0.812362 0.515946 0.337688
Si Si5 0.663631 0.476696 0.153755
Si Si6 0.037760 0.832329 0.103114
Si Si7 0.671720 0.155426 0.979354
O O1 0.874595 0.870995 0.432705
O O2 0.904942 0.740870 0.293113
O O3 0.962328 0.701032 0.484971
O O4 0.073361 0.830622 0.398980
O O5 0.753734 0.934689 0.579485
O O6 0.727984 0.760269 0.494618
O O7 0.664855 0.918148 0.402931
O O8 0.094086 0.435338 0.270788
O O9 0.962689 0.273688 0.162533
O O10 0.122816 0.361149 0.093823
O O11 0.716988 0.484337 0.262767
O O12 0.756301 0.586053 0.422089
O O13 0.567002 0.398110 0.134999
O O14 0.628725 0.588112 0.125935
#
# Coordination Sequence:
#
# PCOD9367375 Si02
#       7
#     8   8   8   8   8   8   8
#     4  11  23  45  75 104 151 196 258 317 393 456
#     4  12  25  45  72 111 145 200 262 320 379 479
#     4  11  22  45  72 109 141 202 255 307 397 466
#     4  12  26  43  74 107 154 197 249 326 384 466
#     4  11  23  43  70 107 145 192 254 310 388 453
#     4  10  23  43  72 106 143 198 254 317 380 473
#     4  11  26  49  74 107 156 201 259 324 393 472
#
# _framework density 25.385846000000001
#
# number of rings (size 3 to 8) (size 9 to 14) (size 15 to 20)
#    0.000    0.857    4.286    3.429    2.000    1.714 
#    5.143    0.000    0.000    0.000    0.000    0.000 
#    0.000    0.000    0.000    0.000    0.000    0.000 
#
# Total GULP energy -156166.752219 kJ/mol
# GULP energy per Si atom -5577.384008 kJ/mol
# Density = 2.532807 g / cm^3
# Si number density = 25.385846 Si / 1000 Ang^3
#
#
#
# Elastic Constant Matrix: (Units=GPa)
#
#
# Indices 1 2 3 4 5 6 
#
# 1 80.4504 38.2067 16.7047 0.0000 0.0000 0.0000
# 2 38.2067 98.9605 62.1164 0.0000 0.0000 0.0000
# 3 16.7047 62.1164 152.5284 0.0000 0.0000 0.0000
# 4 0.0000 0.0000 0.0000 39.3589 0.0000 0.0000
# 5 0.0000 0.0000 0.0000 0.0000 17.5461 0.0000
# 6 0.0000 0.0000 0.0000 0.0000 0.0000 38.4780
#
#
#
# Elastic Compliance Matrix: (Units=1/GPa)
#
#
# Indices 1 2 3 4 5 6 
#
# 1 0.015330 -0.006535 0.000983 0.000000 0.000000 0.000000
# 2 -0.006535 0.016361 -0.005947 0.000000 0.000000 0.000000
# 3 0.000983 -0.005947 0.008871 0.000000 0.000000 0.000000
# 4 0.000000 0.000000 0.000000 0.025407 0.000000 0.000000
# 5 0.000000 0.000000 0.000000 0.000000 0.056993 0.000000
# 6 0.000000 0.000000 0.000000 0.000000 0.000000 0.025989
#
#
# Mechanical properties :
#
#
# Convention : Reuss Voigt Hill
#
# Bulk Modulus (GPa) = 56.94275 62.88831 59.91553
# Shear Modulus (GPa) = 28.12088 33.40404 30.76246
#
# Velocity S-wave (km/s) = 3.33188 3.63140 3.48486
# Velocity P-wave (km/s) = 6.10586 6.51226 6.31233
#
# Compressibility (1/GPa) = 0.01756150
#
# Stress axis : x y z
#
# Youngs Moduli (GPa) = 65.23311 61.12017 112.73258
#
# Poissons Ratio (x) = 0.39943 -0.11077
# Poissons Ratio (y) = 0.42631 0.67045
# Poissons Ratio (z) = -0.06409 0.36350
#
# Static dielectric constant tensor:
#      x y z
#    x 2.055820 0.000000 0.000000 
#    y 0.000000 2.069230 0.000000 
#    z 0.000000 0.000000 2.041350 
# 
# From -- ./inp_files/5598.got.cif
#   From: 2010.05.17/outbox.cif.g08.bks.cpg/sg41_3_cif.got.tgz:5598.got - 2010.06.03 18:54:24.
