data_PCOD9367300
_publ_section_title
;
Structure prediction by ZEFSAII (Michael W. Deem and Ramdas Pophale) SiO2 
 PCOD9367300
Probable space group: A B A 2
;
_chemical_formula_sum "Si O2"
_cell_formula_units_Z 56
_cell_length_a 15.228143
_cell_length_b 8.674562
_cell_length_c 19.755234
_cell_angle_alpha 90.000000
_cell_angle_beta 90.000000
_cell_angle_gamma 90.000000
_cell_volume 2609.616442
_symmetry_space_group_name_H-M "A B A 2"
_symmetry_group_IT_number 41
_symmetry_cell_setting 'orthorhombic'
loop_
_space_group_symop_operation_xyz
x,y,z
-x,-y,z
1/2-x,y,1/2+z
1/2+x,-y,1/2+z
x,1/2+y,1/2+z
-x,1/2-y,1/2+z
1/2-x,1/2+y,z
1/2+x,1/2-y,z
loop_
_atom_site_type_symbol
_atom_site_label
_atom_site_fract_x
_atom_site_fract_y
_atom_site_fract_z
Si Si1 0.841782 0.808714 0.926110
Si Si2 0.465806 0.675754 0.692832
Si Si3 0.874556 0.295821 0.058352
Si Si4 0.745006 0.554317 0.516421
Si Si5 0.801672 0.921671 0.776872
Si Si6 0.031470 0.677295 0.916494
Si Si7 0.372585 0.229189 0.775338
O O1 0.801320 0.651303 0.956411
O O2 0.804805 0.859378 0.853771
O O3 0.945272 0.784236 0.915944
O O4 0.811544 0.935497 0.980636
O O5 0.500000 0.500000 0.693577
O O6 0.445343 0.721216 0.616376
O O7 0.374620 0.672042 0.734353
O O8 0.541766 0.773345 0.728115
O O9 0.827562 0.462072 0.058797
O O10 0.798887 0.169348 0.063255
O O11 0.914933 0.284205 0.983771
O O12 0.702650 0.889674 0.753676
O O13 0.829433 0.100201 0.774130
O O14 0.091335 0.700505 0.850878
O O15 0.000000 0.500000 0.919065
#
# Coordination Sequence:
#
# PCOD9367300 Si02
#       7
#     8   8   8   8   8   8   8
#     4  11  21  41  67 100 134 171 224 277 338 396
#     4  10  24  44  66  95 135 180 225 276 342 401
#     4  11  23  43  67  97 136 174 225 278 340 399
#     4  10  23  40  66 101 129 175 222 279 336 403
#     4  11  23  42  69  97 133 180 219 284 336 402
#     4  12  24  39  70 102 137 177 223 288 335 393
#     4  11  25  44  70 101 136 178 229 279 340 401
#
# _framework density 21.459092999999999
#
# number of rings (size 3 to 8) (size 9 to 14) (size 15 to 20)
#    0.000    1.143    2.857    3.857    2.000    4.000 
#    2.571    0.000    3.143    0.000    0.000    0.000 
#    0.000    0.000    0.000    0.000    0.000    0.000 
#
# Total GULP energy -156706.955230 kJ/mol
# GULP energy per Si atom -5596.676973 kJ/mol
# Density = 2.141025 g / cm^3
# Si number density = 21.459093 Si / 1000 Ang^3
#
#
#
# Elastic Constant Matrix: (Units=GPa)
#
#
# Indices 1 2 3 4 5 6 
#
# 1 113.5802 12.5931 45.5917 0.0000 0.0000 0.0000
# 2 12.5931 46.9133 11.5346 0.0000 0.0000 0.0000
# 3 45.5917 11.5346 96.7957 0.0000 0.0000 0.0000
# 4 0.0000 0.0000 0.0000 13.6365 0.0000 0.0000
# 5 0.0000 0.0000 0.0000 0.0000 27.2529 0.0000
# 6 0.0000 0.0000 0.0000 0.0000 0.0000 21.0423
#
#
#
# Elastic Compliance Matrix: (Units=1/GPa)
#
#
# Indices 1 2 3 4 5 6 
#
# 1 0.010991 -0.001728 -0.004971 0.000000 0.000000 0.000000
# 2 -0.001728 0.022231 -0.001835 0.000000 0.000000 0.000000
# 3 -0.004971 -0.001835 0.012891 0.000000 0.000000 0.000000
# 4 0.000000 0.000000 0.000000 0.073332 0.000000 0.000000
# 5 0.000000 0.000000 0.000000 0.000000 0.036693 0.000000
# 6 0.000000 0.000000 0.000000 0.000000 0.000000 0.047523
#
#
# Mechanical properties :
#
#
# Convention : Reuss Voigt Hill
#
# Bulk Modulus (GPa) = 34.42975 44.08092 39.25533
# Shear Modulus (GPa) = 21.70014 24.89098 23.29556
#
# Velocity S-wave (km/s) = 3.18344 3.40946 3.29839
# Velocity P-wave (km/s) = 5.43981 6.00714 5.73050
#
# Compressibility (1/GPa) = 0.02904465
#
# Stress axis : x y z
#
# Youngs Moduli (GPa) = 90.98018 44.98214 77.57249
#
# Poissons Ratio (x) = 0.07774 0.38562
# Poissons Ratio (y) = 0.15723 0.14236
# Poissons Ratio (z) = 0.45227 0.08255
#
# Static dielectric constant tensor:
#      x y z
#    x 1.781770 0.000000 0.000000 
#    y 0.000000 1.786320 0.000000 
#    z 0.000000 0.000000 1.749450 
# 
# From -- ./inp_files/11547.got.cif
#   From: 2010.05.17/outbox.cif.g08.bks.cpg/sg41_6_cif.got.tgz:11547.got - 2010.06.03 18:54:24.
