data_PCOD9367594
_publ_section_title
;
Structure prediction by ZEFSAII (Michael W. Deem and Ramdas Pophale) SiO2 
 PCOD9367594
Probable space group: A B A 2
;
_chemical_formula_sum "Si O2"
_cell_formula_units_Z 28
_cell_length_a 10.882447
_cell_length_b 11.028457
_cell_length_c 8.302124
_cell_angle_alpha 90.000000
_cell_angle_beta 90.000000
_cell_angle_gamma 90.000000
_cell_volume 996.392685
_symmetry_space_group_name_H-M "A B A 2"
_symmetry_group_IT_number 41
_symmetry_cell_setting 'orthorhombic'
loop_
_space_group_symop_operation_xyz
x,y,z
-x,-y,z
1/2-x,y,1/2+z
1/2+x,-y,1/2+z
x,1/2+y,1/2+z
-x,1/2-y,1/2+z
1/2-x,1/2+y,z
1/2+x,1/2-y,z
loop_
_atom_site_type_symbol
_atom_site_label
_atom_site_fract_x
_atom_site_fract_y
_atom_site_fract_z
Si Si1 0.261130 0.418128 0.471590
Si Si2 0.662741 0.329569 0.369310
Si Si3 0.011887 0.326202 0.171277
Si Si4 0.500000 0.500000 0.963360
O O1 0.288028 0.535581 0.363283
O O2 0.249379 0.289530 0.377913
O O3 0.375026 0.400231 0.591497
O O4 0.126755 0.453971 0.540924
O O5 0.593762 0.322316 0.541098
O O6 0.569191 0.301874 0.224511
O O7 0.973248 0.390011 0.336886
#
# Coordination Sequence:
#
# PCOD9367594 Si02
#       4
#     8   8   8   4
#     4  11  26  47  79 113 163 203 271 333 399 487
#     4  11  27  49  82 118 161 215 270 340 407 492
#     4  11  25  51  82 117 163 209 276 330 415 485
#     4  10  24  48  76 118 158 212 264 332 408 482
#
# _framework density 28.101371
#
# number of rings (size 3 to 8) (size 9 to 14) (size 15 to 20)
#    0.000    1.143    2.857    0.000   12.000    2.286 
#    0.000    2.857    0.000    0.000    0.000    0.000 
#    0.000    0.000    0.000    0.000    0.000    0.000 
#
# Total GULP energy -78467.492010 kJ/mol
# GULP energy per Si atom -5604.820858 kJ/mol
# Density = 2.803741 g / cm^3
# Si number density = 28.101371 Si / 1000 Ang^3
#
#
#
# Elastic Constant Matrix: (Units=GPa)
#
#
# Indices 1 2 3 4 5 6 
#
# 1 86.2925 60.7225 26.0388 0.0000 0.0000 0.0000
# 2 60.7225 220.3210 44.0894 0.0000 0.0000 0.0000
# 3 26.0388 44.0894 72.9910 0.0000 0.0000 0.0000
# 4 0.0000 0.0000 0.0000 48.7401 0.0000 0.0000
# 5 0.0000 0.0000 0.0000 0.0000 36.0949 0.0000
# 6 0.0000 0.0000 0.0000 0.0000 0.0000 41.6883
#
#
#
# Elastic Compliance Matrix: (Units=1/GPa)
#
#
# Indices 1 2 3 4 5 6 
#
# 1 0.015026 -0.003491 -0.003252 0.000000 0.000000 0.000000
# 2 -0.003491 0.005974 -0.002363 0.000000 0.000000 0.000000
# 3 -0.003252 -0.002363 0.016288 0.000000 0.000000 0.000000
# 4 0.000000 0.000000 0.000000 0.020517 0.000000 0.000000
# 5 0.000000 0.000000 0.000000 0.000000 0.027705 0.000000
# 6 0.000000 0.000000 0.000000 0.000000 0.000000 0.023988
#
#
# Mechanical properties :
#
#
# Convention : Reuss Voigt Hill
#
# Bulk Modulus (GPa) = 52.42104 71.25620 61.83862
# Shear Modulus (GPa) = 37.29478 41.88824 39.59151
#
# Velocity S-wave (km/s) = 3.64696 3.86503 3.75758
# Velocity P-wave (km/s) = 6.03561 6.73275 6.39368
#
# Compressibility (1/GPa) = 0.01907631
#
# Stress axis : x y z
#
# Youngs Moduli (GPa) = 66.55137 167.39875 61.39536
#
# Poissons Ratio (x) = 0.58431 0.19965
# Poissons Ratio (y) = 0.23230 0.14509
# Poissons Ratio (z) = 0.21642 0.39559
#
# Static dielectric constant tensor:
#      x y z
#    x 2.253800 0.000000 0.000000 
#    y 0.000000 2.198350 0.000000 
#    z 0.000000 0.000000 2.130530 
# 
# From -- ./inp_files/1862.got.cif
#   From: 2010.05.17/outbox.cif.g08.bks.cpg/sg41_1_cif.got.tgz:1862.got - 2010.06.03 18:54:24.
