data_PCOD9367070
_publ_section_title
;
Structure prediction by ZEFSAII (Michael W. Deem and Ramdas Pophale) SiO2 
 PCOD9367070
Probable space group: A B A 2
;
_chemical_formula_sum "Si O2"
_cell_formula_units_Z 60
_cell_length_a 10.474654
_cell_length_b 13.649305
_cell_length_c 19.887716
_cell_angle_alpha 90.000000
_cell_angle_beta 90.000000
_cell_angle_gamma 90.000000
_cell_volume 2843.381505
_symmetry_space_group_name_H-M "A B A 2"
_symmetry_group_IT_number 41
_symmetry_cell_setting 'orthorhombic'
loop_
_space_group_symop_operation_xyz
x,y,z
-x,-y,z
1/2-x,y,1/2+z
1/2+x,-y,1/2+z
x,1/2+y,1/2+z
-x,1/2-y,1/2+z
1/2-x,1/2+y,z
1/2+x,1/2-y,z
loop_
_atom_site_type_symbol
_atom_site_label
_atom_site_fract_x
_atom_site_fract_y
_atom_site_fract_z
Si Si1 0.202116 0.267205 0.723550
Si Si2 0.717775 0.875502 0.114475
Si Si3 0.648427 0.003682 0.729673
Si Si4 0.617145 0.929538 0.876751
Si Si5 0.079290 0.287218 0.408137
Si Si6 0.500000 0.000000 0.156876
Si Si7 0.546434 0.165506 0.267273
Si Si8 0.194983 0.672578 0.468923
O O1 0.184128 0.227916 0.648503
O O2 0.181553 0.382093 0.729530
O O3 0.097518 0.207743 0.766264
O O4 0.349551 0.254375 0.743802
O O5 0.590970 0.939502 0.107427
O O6 0.785179 0.938896 0.172895
O O7 0.791181 0.855157 0.046595
O O8 0.500000 0.000000 0.715507
O O9 0.668116 0.962833 0.804522
O O10 0.557699 0.820404 0.875190
O O11 0.735994 0.914744 0.927009
O O12 0.500000 0.000000 0.896750
O O13 0.952130 0.311474 0.449694
O O14 0.086104 0.359135 0.343736
O O15 0.448789 0.919450 0.210804
O O16 0.711400 0.234438 0.448797
#
# Coordination Sequence:
#
# PCOD9367070 Si02
#       8
#     8   8   8   8   8   4   8   8
#     4  11  23  38  70 100 131 179 224 288 340 399
#     4  11  24  44  66 100 140 176 233 273 349 424
#     4  11  22  42  70 101 135 176 233 286 342 400
#     4   9  21  42  69  99 127 180 227 276 333 407
#     4  10  22  40  66  98 131 176 227 272 340 392
#     4  10  24  38  66  98 132 180 224 286 344 404
#     4  11  21  41  67 102 133 171 230 291 335 401
#     4  10  25  42  69  94 140 180 220 278 338 421
#
# _framework density 21.101635000000002
#
# number of rings (size 3 to 8) (size 9 to 14) (size 15 to 20)
#    0.800    0.800    1.333    4.000    4.667    3.200 
#    2.400    0.000    4.400    0.000    0.000    0.000 
#    0.000    0.000    0.000    0.000    0.000    0.000 
#
# Total GULP energy -167204.585921 kJ/mol
# GULP energy per Si atom -5573.486197 kJ/mol
# Density = 2.105361 g / cm^3
# Si number density = 21.101635 Si / 1000 Ang^3
#
#
#
# Elastic Constant Matrix: (Units=GPa)
#
#
# Indices 1 2 3 4 5 6 
#
# 1 59.2356 -8.7925 -9.4938 0.0000 0.0000 0.0000
# 2 -8.7925 59.4065 8.3723 0.0000 0.0000 0.0000
# 3 -9.4938 8.3723 51.2773 0.0000 0.0000 0.0000
# 4 0.0000 0.0000 0.0000 66.6801 0.0000 0.0000
# 5 0.0000 0.0000 0.0000 0.0000 28.7660 0.0000
# 6 0.0000 0.0000 0.0000 0.0000 0.0000 3.4405
#
#
#
# Elastic Compliance Matrix: (Units=1/GPa)
#
#
# Indices 1 2 3 4 5 6 
#
# 1 0.017676 0.002206 0.002912 0.000000 0.000000 0.000000
# 2 0.002206 0.017505 -0.002450 0.000000 0.000000 0.000000
# 3 0.002912 -0.002450 0.020441 0.000000 0.000000 0.000000
# 4 0.000000 0.000000 0.000000 0.014997 0.000000 0.000000
# 5 0.000000 0.000000 0.000000 0.000000 0.034763 0.000000
# 6 0.000000 0.000000 0.000000 0.000000 0.000000 0.290653
#
#
# Mechanical properties :
#
#
# Convention : Reuss Voigt Hill
#
# Bulk Modulus (GPa) = 16.40454 16.67681 16.54068
# Shear Modulus (GPa) = 12.16491 31.76622 21.96557
#
# Velocity S-wave (km/s) = 2.40363 3.88415 3.22986
# Velocity P-wave (km/s) = 3.93626 5.29488 4.66529
#
# Compressibility (1/GPa) = 0.06095873
#
# Stress axis : x y z
#
# Youngs Moduli (GPa) = 56.57409 57.12696 48.92123
#
# Poissons Ratio (x) = -0.12600 -0.14248
# Poissons Ratio (y) = -0.12478 0.11984
# Poissons Ratio (z) = -0.16477 0.13995
#
# Static dielectric constant tensor:
#      x y z
#    x 1.822270 0.000000 0.000000 
#    y 0.000000 1.789180 0.000000 
#    z 0.000000 0.000000 1.761660 
# 
# From -- ./inp_files/10108.got.cif
#   From: 2010.05.17/outbox.cif.g08.bks.cpg/sg41_6_cif.got.tgz:10108.got - 2010.06.03 18:54:24.
