data_PCOD9367135
_publ_section_title
;
Structure prediction by ZEFSAII (Michael W. Deem and Ramdas Pophale) SiO2 
 PCOD9367135
Probable space group: A B A 2
;
_chemical_formula_sum "Si O2"
_cell_formula_units_Z 32
_cell_length_a 16.431196
_cell_length_b 13.597851
_cell_length_c 5.256746
_cell_angle_alpha 90.000000
_cell_angle_beta 90.000000
_cell_angle_gamma 90.000000
_cell_volume 1174.509265
_symmetry_space_group_name_H-M "A B A 2"
_symmetry_group_IT_number 41
_symmetry_cell_setting 'orthorhombic'
loop_
_space_group_symop_operation_xyz
x,y,z
-x,-y,z
1/2-x,y,1/2+z
1/2+x,-y,1/2+z
x,1/2+y,1/2+z
-x,1/2-y,1/2+z
1/2-x,1/2+y,z
1/2+x,1/2-y,z
loop_
_atom_site_type_symbol
_atom_site_label
_atom_site_fract_x
_atom_site_fract_y
_atom_site_fract_z
Si Si1 0.431727 0.135331 0.017160
Si Si2 0.174275 0.316424 0.635043
Si Si3 0.113815 0.414957 0.116534
Si Si4 0.209325 0.634603 0.654264
O O1 0.392480 0.228432 0.156261
O O2 0.528040 0.136595 0.041532
O O3 0.384386 0.135980 0.742171
O O4 0.406288 0.030074 0.129728
O O5 0.169183 0.390789 0.870777
O O6 0.245378 0.246163 0.127166
O O7 0.146928 0.375943 0.384401
O O8 0.240648 0.590121 0.392276
#
# Coordination Sequence:
#
# PCOD9367135 Si02
#       4
#     8   8   8   8
#     4  10  24  45  69 103 141 183 238 303 354 420
#     4  11  23  44  66  99 140 183 230 292 358 429
#     4  11  25  42  73 103 135 186 244 292 360 429
#     4  10  22  42  66  94 140 186 226 288 356 414
#
# _framework density 27.245418000000001
#
# number of rings (size 3 to 8) (size 9 to 14) (size 15 to 20)
#    0.000    1.500    0.000    4.500    0.000   14.000 
#    0.000   30.000    0.000    0.000    0.000    0.000 
#    0.000    0.000    0.000    0.000    0.000    0.000 
#
# Total GULP energy -89476.586823 kJ/mol
# GULP energy per Si atom -5592.286676 kJ/mol
# Density = 2.718341 g / cm^3
# Si number density = 27.245418 Si / 1000 Ang^3
#
#
#
# Elastic Constant Matrix: (Units=GPa)
#
#
# Indices 1 2 3 4 5 6 
#
# 1 129.1083 20.4600 33.9961 0.0000 0.0000 0.0000
# 2 20.4600 175.2849 47.0084 0.0000 0.0000 0.0000
# 3 33.9961 47.0084 191.4956 0.0000 0.0000 0.0000
# 4 0.0000 0.0000 0.0000 30.1368 0.0000 0.0000
# 5 0.0000 0.0000 0.0000 0.0000 40.0364 0.0000
# 6 0.0000 0.0000 0.0000 0.0000 0.0000 63.0473
#
#
#
# Elastic Compliance Matrix: (Units=1/GPa)
#
#
# Indices 1 2 3 4 5 6 
#
# 1 0.008185 -0.000606 -0.001304 0.000000 0.000000 0.000000
# 2 -0.000606 0.006152 -0.001403 0.000000 0.000000 0.000000
# 3 -0.001304 -0.001403 0.005798 0.000000 0.000000 0.000000
# 4 0.000000 0.000000 0.000000 0.033182 0.000000 0.000000
# 5 0.000000 0.000000 0.000000 0.000000 0.024977 0.000000
# 6 0.000000 0.000000 0.000000 0.000000 0.000000 0.015861
#
#
# Mechanical properties :
#
#
# Convention : Reuss Voigt Hill
#
# Bulk Modulus (GPa) = 74.02233 77.64643 75.83438
# Shear Modulus (GPa) = 47.49087 52.93907 50.21497
#
# Velocity S-wave (km/s) = 4.17955 4.41278 4.29775
# Velocity P-wave (km/s) = 7.10769 7.38406 7.24719
#
# Compressibility (1/GPa) = 0.01350944
#
# Stress axis : x y z
#
# Youngs Moduli (GPa) = 122.17672 162.55279 172.47494
#
# Poissons Ratio (x) = 0.09843 0.22498
# Poissons Ratio (y) = 0.07398 0.24192
# Poissons Ratio (z) = 0.15937 0.22801
#
# Static dielectric constant tensor:
#      x y z
#    x 2.208700 0.000000 0.000000 
#    y 0.000000 2.139690 0.000000 
#    z 0.000000 0.000000 2.327590 
# 
# From -- ./inp_files/617.got.cif
#   From: 2010.05.17/outbox.cif.g08.bks.cpg/sg41_1_cif.got.tgz:617.got - 2010.06.03 18:54:24.
