data_PCOD9367403
_publ_section_title
;
Structure prediction by ZEFSAII (Michael W. Deem and Ramdas Pophale) SiO2 
 PCOD9367403
Probable space group: A B A 2
;
_chemical_formula_sum "Si O2"
_cell_formula_units_Z 40
_cell_length_a 5.462566
_cell_length_b 12.779260
_cell_length_c 22.997818
_cell_angle_alpha 90.000000
_cell_angle_beta 90.000000
_cell_angle_gamma 90.000000
_cell_volume 1605.421357
_symmetry_space_group_name_H-M "A B A 2"
_symmetry_group_IT_number 41
_symmetry_cell_setting 'orthorhombic'
loop_
_space_group_symop_operation_xyz
x,y,z
-x,-y,z
1/2-x,y,1/2+z
1/2+x,-y,1/2+z
x,1/2+y,1/2+z
-x,1/2-y,1/2+z
1/2-x,1/2+y,z
1/2+x,1/2-y,z
loop_
_atom_site_type_symbol
_atom_site_label
_atom_site_fract_x
_atom_site_fract_y
_atom_site_fract_z
Si Si1 0.268247 0.312749 0.575130
Si Si2 0.500000 0.500000 0.790314
Si Si3 0.553042 0.805427 0.934569
Si Si4 0.750317 0.053099 0.676065
Si Si5 0.498217 0.272633 0.807170
Si Si6 0.500000 0.000000 0.006309
O O1 0.509395 0.242767 0.562099
O O2 0.258510 0.335877 0.644564
O O3 0.319681 0.425734 0.544237
O O4 0.717979 0.528097 0.744872
O O5 0.519065 0.393752 0.825465
O O6 0.776694 0.728902 0.951162
O O7 0.527746 0.798699 0.864396
O O8 0.620752 0.915609 0.962845
O O9 0.500000 0.000000 0.656963
O O10 0.000000 0.000000 0.654093
O O11 0.746593 0.247896 0.773966
#
# Coordination Sequence:
#
# PCOD9367403 Si02
#       6
#     8   4   8   8   8   4
#     4  12  27  45  71 106 138 183 235 291 350 423
#     4  10  25  42  70 100 142 182 231 284 346 412
#     4  10  24  44  65 100 133 182 235 284 346 409
#     4  10  23  45  67 101 136 184 223 285 356 409
#     4  10  24  41  65  99 135 181 234 285 340 406
#     4  12  25  46  72 100 144 184 235 288 352 420
#
# _framework density 24.915575
#
# number of rings (size 3 to 8) (size 9 to 14) (size 15 to 20)
#    0.600    0.800    1.000    2.400    2.800   10.400 
#    0.000    0.000    0.000    0.000    0.000    0.000 
#    0.000    0.000    0.000    0.000    0.000    0.000 
#
# Total GULP energy -111454.201987 kJ/mol
# GULP energy per Si atom -5572.710099 kJ/mol
# Density = 2.485887 g / cm^3
# Si number density = 24.915575 Si / 1000 Ang^3
#
#
#
# Elastic Constant Matrix: (Units=GPa)
#
#
# Indices 1 2 3 4 5 6 
#
# 1 182.8418 34.7300 25.9851 0.0000 0.0000 0.0000
# 2 34.7300 110.4361 25.8443 0.0000 0.0000 0.0000
# 3 25.9851 25.8443 98.1485 0.0000 0.0000 0.0000
# 4 0.0000 0.0000 0.0000 45.6991 0.0000 0.0000
# 5 0.0000 0.0000 0.0000 0.0000 24.3166 0.0000
# 6 0.0000 0.0000 0.0000 0.0000 0.0000 31.4240
#
#
#
# Elastic Compliance Matrix: (Units=1/GPa)
#
#
# Indices 1 2 3 4 5 6 
#
# 1 0.005936 -0.001597 -0.001151 0.000000 0.000000 0.000000
# 2 -0.001597 0.010080 -0.002231 0.000000 0.000000 0.000000
# 3 -0.001151 -0.002231 0.011081 0.000000 0.000000 0.000000
# 4 0.000000 0.000000 0.000000 0.021882 0.000000 0.000000
# 5 0.000000 0.000000 0.000000 0.000000 0.041124 0.000000
# 6 0.000000 0.000000 0.000000 0.000000 0.000000 0.031823
#
#
# Mechanical properties :
#
#
# Convention : Reuss Voigt Hill
#
# Bulk Modulus (GPa) = 58.35212 62.72723 60.53967
# Shear Modulus (GPa) = 36.33783 40.61240 38.47512
#
# Velocity S-wave (km/s) = 3.82309 4.04171 3.93392
# Velocity P-wave (km/s) = 6.55430 6.85646 6.70708
#
# Compressibility (1/GPa) = 0.01713734
#
# Stress axis : x y z
#
# Youngs Moduli (GPa) = 168.45742 99.21101 90.24551
#
# Poissons Ratio (x) = 0.15849 0.10387
# Poissons Ratio (y) = 0.26911 0.20135
# Poissons Ratio (z) = 0.19389 0.22136
#
# Static dielectric constant tensor:
#      x y z
#    x 1.999190 0.000000 0.000000 
#    y 0.000000 1.968400 0.000000 
#    z 0.000000 0.000000 2.116980 
# 
# From -- ./inp_files/12611.got.cif
#   From: 2010.05.17/outbox.cif.g08.bks.cpg/sg41_7_cif.got.tgz:12611.got - 2010.06.03 18:54:24.
