data_PCOD9367523
_publ_section_title
;
Structure prediction by ZEFSAII (Michael W. Deem and Ramdas Pophale) SiO2 
 PCOD9367523
Probable space group: A B A 2
;
_chemical_formula_sum "Si O2"
_cell_formula_units_Z 60
_cell_length_a 12.462309
_cell_length_b 8.682440
_cell_length_c 26.880978
_cell_angle_alpha 90.000000
_cell_angle_beta 90.000000
_cell_angle_gamma 90.000000
_cell_volume 2908.609187
_symmetry_space_group_name_H-M "A B A 2"
_symmetry_group_IT_number 41
_symmetry_cell_setting 'orthorhombic'
loop_
_space_group_symop_operation_xyz
x,y,z
-x,-y,z
1/2-x,y,1/2+z
1/2+x,-y,1/2+z
x,1/2+y,1/2+z
-x,1/2-y,1/2+z
1/2-x,1/2+y,z
1/2+x,1/2-y,z
loop_
_atom_site_type_symbol
_atom_site_label
_atom_site_fract_x
_atom_site_fract_y
_atom_site_fract_z
Si Si1 0.500000 0.500000 0.960420
Si Si2 0.332597 0.363935 0.882386
Si Si3 0.840971 0.552594 0.542451
Si Si4 0.625382 0.501828 0.775383
Si Si5 0.878603 0.011292 0.156942
Si Si6 0.245386 0.743181 0.215216
Si Si7 0.620421 0.964380 0.903419
Si Si8 0.888801 0.415735 0.021158
O O1 0.426721 0.400188 0.922629
O O2 0.593167 0.454786 0.000496
O O3 0.355508 0.459288 0.832874
O O4 0.338142 0.182707 0.873358
O O5 0.212747 0.406853 0.900398
O O6 0.872161 0.501455 0.597596
O O7 0.714955 0.515709 0.536841
O O8 0.871376 0.735026 0.535995
O O9 0.500000 0.500000 0.765683
O O10 0.677938 0.343474 0.757475
O O11 0.679946 0.633523 0.742209
O O12 0.830315 0.170641 0.176230
O O13 0.812853 0.878420 0.183928
O O14 0.000000 0.000000 0.173410
O O15 0.500000 0.000000 0.885774
O O16 0.610641 0.919734 0.961278
O O17 0.000000 0.500000 0.037916
#
# Coordination Sequence:
#
# PCOD9367523 Si02
#       8
#     4   8   8   8   8   8   8   8
#     4  12  24  40  68  96 142 178 220 266 322 390
#     4  12  25  42  68  98 135 181 221 268 333 398
#     4  12  25  42  68  98 135 181 221 268 333 398
#     4  11  23  43  69  95 130 169 215 273 336 389
#     4  11  23  43  69  95 130 169 215 273 336 389
#     4  10  24  44  66  98 126 164 222 280 326 390
#     4  11  25  41  63  93 135 179 227 268 319 386
#     4  11  25  41  63  93 135 179 227 268 319 386
#
# _framework density 20.628415
#
# number of rings (size 3 to 8) (size 9 to 14) (size 15 to 20)
#    0.000    0.800    4.000    2.400    3.733    2.133 
#    0.000    6.667    0.000    0.000    0.000    0.000 
#    0.000    0.000    0.000    0.000    0.000    0.000 
#
# Total GULP energy -167547.007693 kJ/mol
# GULP energy per Si atom -5584.900256 kJ/mol
# Density = 2.058146 g / cm^3
# Si number density = 20.628415 Si / 1000 Ang^3
#
#
#
# Elastic Constant Matrix: (Units=GPa)
#
#
# Indices 1 2 3 4 5 6 
#
# 1 177.5320 55.6270 13.5170 0.0000 0.0000 0.0000
# 2 55.6270 59.6135 0.7654 0.0000 0.0000 0.0000
# 3 13.5170 0.7654 79.5930 0.0000 0.0000 0.0000
# 4 0.0000 0.0000 0.0000 17.9875 0.0000 0.0000
# 5 0.0000 0.0000 0.0000 0.0000 -4.2478 0.0000
# 6 0.0000 0.0000 0.0000 0.0000 0.0000 13.4818
#
#
#
# Elastic Compliance Matrix: (Units=1/GPa)
#
#
# Indices 1 2 3 4 5 6 
#
# 1 0.008093 -0.007535 -0.001302 0.000000 0.000000 0.000000
# 2 -0.007535 0.023792 0.001051 0.000000 0.000000 0.000000
# 3 -0.001302 0.001051 0.012775 0.000000 0.000000 0.000000
# 4 0.000000 0.000000 0.000000 0.055594 0.000000 0.000000
# 5 0.000000 0.000000 0.000000 0.000000 -0.235414 0.000000
# 6 0.000000 0.000000 0.000000 0.000000 0.000000 0.074174
#
#
# Mechanical properties :
#
#
# Convention : Reuss Voigt Hill
#
# Bulk Modulus (GPa) = 34.37843 50.72860 42.55352
# Shear Modulus (GPa) = -139.98686 21.89956 -59.04365
#
# Velocity S-wave (km/s) = -8.24673 3.26179 -5.35580
# Velocity P-wave (km/s) = 8.60094 6.23143 4.19199
#
# Compressibility (1/GPa) = 0.02908800
#
# Stress axis : x y z
#
# Youngs Moduli (GPa) = 123.56525 42.03031 78.27840
#
# Poissons Ratio (x) = 0.31670 0.10191
# Poissons Ratio (y) = 0.93106 -0.08226
# Poissons Ratio (z) = 0.16087 -0.04417
#
# Static dielectric constant tensor:
#      x y z
#    x 1.739210 0.000000 0.000000 
#    y 0.000000 1.754440 0.000000 
#    z 0.000000 0.000000 1.705790 
# 
# From -- ./inp_files/12526.got.cif
#   From: 2010.05.17/outbox.cif.g08.bks.cpg/sg41_7_cif.got.tgz:12526.got - 2010.06.03 18:54:24.
