data_PCOD9367843
_publ_section_title
;
Structure prediction by ZEFSAII (Michael W. Deem and Ramdas Pophale) SiO2 
 PCOD9367843
Probable space group: A B A 2
;
_chemical_formula_sum "Si O2"
_cell_formula_units_Z 64
_cell_length_a 10.078974
_cell_length_b 27.339734
_cell_length_c 10.254563
_cell_angle_alpha 90.000000
_cell_angle_beta 90.000000
_cell_angle_gamma 90.000000
_cell_volume 2825.711163
_symmetry_space_group_name_H-M "A B A 2"
_symmetry_group_IT_number 41
_symmetry_cell_setting 'orthorhombic'
loop_
_space_group_symop_operation_xyz
x,y,z
-x,-y,z
1/2-x,y,1/2+z
1/2+x,-y,1/2+z
x,1/2+y,1/2+z
-x,1/2-y,1/2+z
1/2-x,1/2+y,z
1/2+x,1/2-y,z
loop_
_atom_site_type_symbol
_atom_site_label
_atom_site_fract_x
_atom_site_fract_y
_atom_site_fract_z
Si Si1 0.502050 0.826010 0.414420
Si Si2 0.946934 0.630063 0.862877
Si Si3 0.835933 0.378359 0.631930
Si Si4 0.671854 0.237414 0.837201
Si Si5 0.357666 0.754506 0.560818
Si Si6 0.852053 0.024763 0.306002
Si Si7 0.845737 0.988916 0.027441
Si Si8 0.037685 0.155855 0.639712
O O1 0.611876 0.852528 0.500068
O O2 0.547706 0.772826 0.361808
O O3 0.398629 0.809680 0.524635
O O4 0.465425 0.852048 0.278728
O O5 0.868792 0.681303 0.852727
O O6 0.862183 0.581778 0.838625
O O7 0.065289 0.629443 0.754855
O O8 0.995849 0.626573 0.012359
O O9 0.832720 0.434775 0.588512
O O10 0.691492 0.357536 0.666831
O O11 0.725973 0.243552 0.692228
O O12 0.774348 0.259670 0.937344
O O13 0.465074 0.712778 0.592216
O O14 0.811700 0.021430 0.154241
O O15 0.751006 0.998515 0.405701
O O16 0.000000 0.000000 0.316637
O O17 0.000000 0.000000 0.992282
#
# Coordination Sequence:
#
# PCOD9367843 Si02
#       8
#     8   8   8   8   8   8   8   8
#     4  11  24  42  62 100 141 175 234 284 342 422
#     4  12  24  44  70  98 142 182 231 297 371 421
#     4  12  23  45  73  97 134 186 239 293 356 431
#     4  11  25  39  64  96 135 185 222 281 342 420
#     4  11  24  41  62  93 142 184 229 283 338 420
#     4  11  25  50  74 109 143 183 241 313 370 440
#     4  11  26  50  77 104 144 186 244 309 377 442
#     4  11  25  39  70 103 132 190 243 290 352 436
#
# _framework density 22.649163999999999
#
# number of rings (size 3 to 8) (size 9 to 14) (size 15 to 20)
#    0.000    0.750    6.250    1.500    5.250    2.500 
#    2.250    0.000    0.000    0.000    0.000    0.000 
#    0.000    0.000    0.000    0.000    0.000    0.000 
#
# Total GULP energy -178645.927053 kJ/mol
# GULP energy per Si atom -5582.685220 kJ/mol
# Density = 2.259761 g / cm^3
# Si number density = 22.649164 Si / 1000 Ang^3
#
#
#
# Elastic Constant Matrix: (Units=GPa)
#
#
# Indices 1 2 3 4 5 6 
#
# 1 38.9015 -11.4985 24.9679 0.0000 0.0000 0.0000
# 2 -11.4985 65.4294 -9.0207 0.0000 0.0000 0.0000
# 3 24.9679 -9.0207 131.1255 0.0000 0.0000 0.0000
# 4 0.0000 0.0000 0.0000 28.5498 0.0000 0.0000
# 5 0.0000 0.0000 0.0000 0.0000 27.0322 0.0000
# 6 0.0000 0.0000 0.0000 0.0000 0.0000 22.5230
#
#
#
# Elastic Compliance Matrix: (Units=1/GPa)
#
#
# Indices 1 2 3 4 5 6 
#
# 1 0.030608 0.004619 -0.005510 0.000000 0.000000 0.000000
# 2 0.004619 0.016127 0.000230 0.000000 0.000000 0.000000
# 3 -0.005510 0.000230 0.008691 0.000000 0.000000 0.000000
# 4 0.000000 0.000000 0.000000 0.035026 0.000000 0.000000
# 5 0.000000 0.000000 0.000000 0.000000 0.036993 0.000000
# 6 0.000000 0.000000 0.000000 0.000000 0.000000 0.044399
#
#
# Mechanical properties :
#
#
# Convention : Reuss Voigt Hill
#
# Bulk Modulus (GPa) = 18.48289 27.15043 22.81666
# Shear Modulus (GPa) = 26.15037 31.02153 28.58595
#
# Velocity S-wave (km/s) = 3.40160 3.70490 3.55649
# Velocity P-wave (km/s) = 4.85861 5.50592 5.19236
#
# Compressibility (1/GPa) = 0.05410410
#
# Stress axis : x y z
#
# Youngs Moduli (GPa) = 32.67123 62.00733 115.05708
#
# Poissons Ratio (x) = -0.28643 0.63401
# Poissons Ratio (y) = -0.15092 -0.02645
# Poissons Ratio (z) = 0.18003 -0.01425
#
# Static dielectric constant tensor:
#      x y z
#    x 1.938700 0.000000 0.000000 
#    y 0.000000 1.865080 0.000000 
#    z 0.000000 0.000000 1.902250 
# 
# From -- ./inp_files/2215.got.cif
#   From: 2010.05.17/outbox.cif.g08.bks.cpg/sg41_2_cif.got.tgz:2215.got - 2010.06.03 18:54:24.
