data_PCOD9367084
_publ_section_title
;
Structure prediction by ZEFSAII (Michael W. Deem and Ramdas Pophale) SiO2 
 PCOD9367084
Probable space group: A B A 2
;
_chemical_formula_sum "Si O2"
_cell_formula_units_Z 56
_cell_length_a 21.088393
_cell_length_b 8.657428
_cell_length_c 12.689526
_cell_angle_alpha 90.000000
_cell_angle_beta 90.000000
_cell_angle_gamma 90.000000
_cell_volume 2316.742548
_symmetry_space_group_name_H-M "A B A 2"
_symmetry_group_IT_number 41
_symmetry_cell_setting 'orthorhombic'
loop_
_space_group_symop_operation_xyz
x,y,z
-x,-y,z
1/2-x,y,1/2+z
1/2+x,-y,1/2+z
x,1/2+y,1/2+z
-x,1/2-y,1/2+z
1/2-x,1/2+y,z
1/2+x,1/2-y,z
loop_
_atom_site_type_symbol
_atom_site_label
_atom_site_fract_x
_atom_site_fract_y
_atom_site_fract_z
Si Si1 0.830996 0.477779 0.823410
Si Si2 0.950469 0.415489 0.678625
Si Si3 0.889716 0.024616 0.865965
Si Si4 0.355607 0.232016 0.027912
Si Si5 0.501153 0.337450 0.578895
Si Si6 0.508518 0.756633 0.354146
Si Si7 0.705462 0.315029 0.748835
O O1 0.890283 0.462517 0.743662
O O2 0.775706 0.370625 0.776056
O O3 0.811536 0.658997 0.815500
O O4 0.846183 0.402152 0.938578
O O5 0.000000 0.500000 0.597447
O O6 0.939829 0.258532 0.615361
O O7 0.008916 0.352462 0.753193
O O8 0.940555 0.159469 0.842464
O O9 0.936236 0.877832 0.871542
O O10 0.838009 0.961000 0.784746
O O11 0.855409 0.101002 0.968194
O O12 0.425409 0.216744 0.080626
O O13 0.307412 0.219674 0.125559
O O14 0.500000 0.500000 0.637061
O O15 0.490718 0.347828 0.455317
#
# Coordination Sequence:
#
# PCOD9367084 Si02
#       7
#     8   8   8   8   8   8   8
#     4  12  28  50  76 109 152 200 255 320 371 462
#     4  12  25  44  73 108 151 191 250 318 382 454
#     4  10  22  44  73 108 145 196 245 315 367 445
#     4  11  26  51  75 111 152 194 258 303 380 456
#     4  11  25  39  70 108 146 191 241 304 381 446
#     4  10  22  40  72 101 150 186 239 312 378 436
#     4  12  29  50  78 106 150 204 257 309 381 454
#
# _framework density 24.171869999999998
#
# number of rings (size 3 to 8) (size 9 to 14) (size 15 to 20)
#    0.000    0.857    2.857    3.857   12.000    2.286 
#    0.000    1.429    0.000    0.000    0.000    0.000 
#    0.000    0.000    0.000    0.000    0.000    0.000 
#
# Total GULP energy -156054.493374 kJ/mol
# GULP energy per Si atom -5573.374763 kJ/mol
# Density = 2.411685 g / cm^3
# Si number density = 24.171870 Si / 1000 Ang^3
#
#
#
# Elastic Constant Matrix: (Units=GPa)
#
#
# Indices 1 2 3 4 5 6 
#
# 1 128.0675 46.4968 48.3223 0.0000 0.0000 0.0000
# 2 46.4968 82.2074 10.4274 0.0000 0.0000 0.0000
# 3 48.3223 10.4274 98.5613 0.0000 0.0000 0.0000
# 4 0.0000 0.0000 0.0000 95.1450 0.0000 0.0000
# 5 0.0000 0.0000 0.0000 0.0000 13.5738 0.0000
# 6 0.0000 0.0000 0.0000 0.0000 0.0000 33.4929
#
#
#
# Elastic Compliance Matrix: (Units=1/GPa)
#
#
# Indices 1 2 3 4 5 6 
#
# 1 0.012011 -0.006129 -0.005240 0.000000 0.000000 0.000000
# 2 -0.006129 0.015457 0.001369 0.000000 0.000000 0.000000
# 3 -0.005240 0.001369 0.012570 0.000000 0.000000 0.000000
# 4 0.000000 0.000000 0.000000 0.010510 0.000000 0.000000
# 5 0.000000 0.000000 0.000000 0.000000 0.073671 0.000000
# 6 0.000000 0.000000 0.000000 0.000000 0.000000 0.029857
#
#
# Mechanical properties :
#
#
# Convention : Reuss Voigt Hill
#
# Bulk Modulus (GPa) = 49.90217 57.70324 53.80271
# Shear Modulus (GPa) = 27.66175 42.01499 34.83837
#
# Velocity S-wave (km/s) = 3.38654 4.17367 3.80053
# Velocity P-wave (km/s) = 5.99842 6.86658 6.44713
#
# Compressibility (1/GPa) = 0.02003921
#
# Stress axis : x y z
#
# Youngs Moduli (GPa) = 83.25916 64.69554 79.55301
#
# Poissons Ratio (x) = 0.39649 0.41687
# Poissons Ratio (y) = 0.51026 -0.10894
# Poissons Ratio (z) = 0.43629 -0.08860
#
# Static dielectric constant tensor:
#      x y z
#    x 1.890090 0.000000 0.000000 
#    y 0.000000 0.434660 0.000000 
#    z 0.000000 0.000000 1.957980 
# 
# From -- ./inp_files/9021.got.cif
#   From: 2010.05.17/outbox.cif.g08.bks.cpg/sg41_5_cif.got.tgz:9021.got - 2010.06.03 18:54:24.
