data_PCOD9367003
_publ_section_title
;
Structure prediction by ZEFSAII (Michael W. Deem and Ramdas Pophale) SiO2 
 PCOD9367003
Probable space group: A B A 2
;
_chemical_formula_sum "Si O2"
_cell_formula_units_Z 44
_cell_length_a 21.362826
_cell_length_b 5.113871
_cell_length_c 18.665261
_cell_angle_alpha 90.000000
_cell_angle_beta 90.000000
_cell_angle_gamma 90.000000
_cell_volume 2039.118848
_symmetry_space_group_name_H-M "A B A 2"
_symmetry_group_IT_number 41
_symmetry_cell_setting 'orthorhombic'
loop_
_space_group_symop_operation_xyz
x,y,z
-x,-y,z
1/2-x,y,1/2+z
1/2+x,-y,1/2+z
x,1/2+y,1/2+z
-x,1/2-y,1/2+z
1/2-x,1/2+y,z
1/2+x,1/2-y,z
loop_
_atom_site_type_symbol
_atom_site_label
_atom_site_fract_x
_atom_site_fract_y
_atom_site_fract_z
Si Si1 0.122153 0.358913 0.937740
Si Si2 0.567000 0.138857 0.503537
Si Si3 0.571162 0.610360 0.281613
Si Si4 0.100832 0.143609 0.139185
Si Si5 0.500000 0.000000 0.192108
Si Si6 0.289488 0.444442 0.560536
O O1 0.074665 0.566615 0.976207
O O2 0.110049 0.388340 0.853925
O O3 0.109199 0.056742 0.955985
O O4 0.186530 0.425872 0.978291
O O5 0.500000 0.000000 0.496811
O O6 0.592505 0.093854 0.583636
O O7 0.500000 0.500000 0.294684
O O8 0.607789 0.455078 0.219864
O O9 0.553344 0.883704 0.243914
O O10 0.153575 0.336000 0.109013
O O11 0.034035 0.290319 0.142799
O O12 0.265764 0.735929 0.573747
#
# Coordination Sequence:
#
# PCOD9367003 Si02
#       6
#     8   8   8   8   4   8
#     4  11  25  40  65  93 133 175 225 274 337 398
#     4  11  22  36  61  98 131 172 214 271 333 412
#     4  10  22  40  62 102 139 178 206 272 347 428
#     4  10  24  39  68  95 137 173 225 277 345 406
#     4  10  22  38  70 104 148 172 214 278 364 428
#     4  11  25  47  69  93 129 182 239 293 327 384
#
# _framework density 21.577945
#
# number of rings (size 3 to 8) (size 9 to 14) (size 15 to 20)
#    0.000    1.455    0.000    5.455   19.091    0.000 
#    0.000    1.818    0.000    0.000    0.000    0.000 
#    0.000    0.000    0.000    0.000    0.000    0.000 
#
# Total GULP energy -122873.520357 kJ/mol
# GULP energy per Si atom -5585.160016 kJ/mol
# Density = 2.152883 g / cm^3
# Si number density = 21.577945 Si / 1000 Ang^3
#
#
#
# Elastic Constant Matrix: (Units=GPa)
#
#
# Indices 1 2 3 4 5 6 
#
# 1 57.1509 14.3209 29.1050 0.0000 0.0000 0.0000
# 2 14.3209 82.0906 26.2795 0.0000 0.0000 0.0000
# 3 29.1050 26.2795 168.1366 0.0000 0.0000 0.0000
# 4 0.0000 0.0000 0.0000 17.3934 0.0000 0.0000
# 5 0.0000 0.0000 0.0000 0.0000 31.2538 0.0000
# 6 0.0000 0.0000 0.0000 0.0000 0.0000 38.3237
#
#
#
# Elastic Compliance Matrix: (Units=1/GPa)
#
#
# Indices 1 2 3 4 5 6 
#
# 1 0.019651 -0.002462 -0.003017 0.000000 0.000000 0.000000
# 2 -0.002462 0.013132 -0.001626 0.000000 0.000000 0.000000
# 3 -0.003017 -0.001626 0.006724 0.000000 0.000000 0.000000
# 4 0.000000 0.000000 0.000000 0.057493 0.000000 0.000000
# 5 0.000000 0.000000 0.000000 0.000000 0.031996 0.000000
# 6 0.000000 0.000000 0.000000 0.000000 0.000000 0.026094
#
#
# Mechanical properties :
#
#
# Convention : Reuss Voigt Hill
#
# Bulk Modulus (GPa) = 39.53216 49.64323 44.58769
# Shear Modulus (GPa) = 28.13220 33.23901 30.68560
#
# Velocity S-wave (km/s) = 3.61466 3.92907 3.77514
# Velocity P-wave (km/s) = 5.98176 6.60605 6.30164
#
# Compressibility (1/GPa) = 0.02529586
#
# Stress axis : x y z
#
# Youngs Moduli (GPa) = 50.88826 76.15080 148.72238
#
# Poissons Ratio (x) = 0.18751 0.44866
# Poissons Ratio (y) = 0.12531 0.24186
# Poissons Ratio (z) = 0.15352 0.12384
#
# Static dielectric constant tensor:
#      x y z
#    x 1.818550 0.000000 0.000000 
#    y 0.000000 1.827290 0.000000 
#    z 0.000000 0.000000 1.762830 
# 
# From -- ./inp_files/10722.got.cif
#   From: 2010.05.17/outbox.cif.g08.bks.cpg/sg41_6_cif.got.tgz:10722.got - 2010.06.03 18:54:24.
