data_PCOD9367028
_publ_section_title
;
Structure prediction by ZEFSAII (Michael W. Deem and Ramdas Pophale) SiO2 
 PCOD9367028
Probable space group: A B A 2
;
_chemical_formula_sum "Si O2"
_cell_formula_units_Z 64
_cell_length_a 11.853720
_cell_length_b 20.937620
_cell_length_c 10.749825
_cell_angle_alpha 90.000000
_cell_angle_beta 90.000000
_cell_angle_gamma 90.000000
_cell_volume 2667.984930
_symmetry_space_group_name_H-M "A B A 2"
_symmetry_group_IT_number 41
_symmetry_cell_setting 'orthorhombic'
loop_
_space_group_symop_operation_xyz
x,y,z
-x,-y,z
1/2-x,y,1/2+z
1/2+x,-y,1/2+z
x,1/2+y,1/2+z
-x,1/2-y,1/2+z
1/2-x,1/2+y,z
1/2+x,1/2-y,z
loop_
_atom_site_type_symbol
_atom_site_label
_atom_site_fract_x
_atom_site_fract_y
_atom_site_fract_z
Si Si1 0.634033 0.207504 0.585700
Si Si2 0.214098 0.433482 0.874175
Si Si3 0.820750 0.107959 0.630627
Si Si4 0.545309 0.312313 0.916907
Si Si5 0.710140 0.408933 0.033067
Si Si6 0.034016 0.329813 0.835037
Si Si7 0.353744 0.560374 0.305177
Si Si8 0.075321 0.650071 0.133525
O O1 0.749943 0.174300 0.624743
O O2 0.581949 0.174411 0.463599
O O3 0.542363 0.191703 0.692056
O O4 0.628520 0.283869 0.578898
O O5 0.305519 0.427814 0.763295
O O6 0.147459 0.367587 0.860901
O O7 0.122158 0.487277 0.839325
O O8 0.235485 0.435837 0.022042
O O9 0.950224 0.125447 0.601578
O O10 0.544830 0.235657 0.911060
O O11 0.568210 0.337188 0.779743
O O12 0.638529 0.345161 0.002713
O O13 0.648686 0.438399 0.154499
O O14 0.833401 0.400922 0.093054
O O15 0.739165 0.435303 0.893546
O O16 0.928855 0.378372 0.845962
#
# Coordination Sequence:
#
# PCOD9367028 Si02
#       8
#     8   8   8   8   8   8   8   8
#     4  10  22  39  68 100 143 185 225 290 364 441
#     4  11  24  44  70 100 139 195 242 297 353 431
#     4  11  24  45  69 103 146 185 246 293 363 431
#     4  11  22  44  67 107 146 181 235 302 375 436
#     4  12  25  43  72 102 141 187 241 299 368 440
#     4  10  23  41  67 101 136 189 237 289 364 429
#     4  12  24  46  70 102 142 188 247 300 357 440
#     4  11  25  42  70 106 142 189 231 302 366 440
#
# _framework density 23.988140999999999
#
# number of rings (size 3 to 8) (size 9 to 14) (size 15 to 20)
#    0.000    1.000    2.500    4.125    3.500    0.000 
#    6.750    1.875    0.000    0.000    0.000    0.000 
#    0.000    0.000    0.000    0.000    0.000    0.000 
#
# Total GULP energy -178282.262061 kJ/mol
# GULP energy per Si atom -5571.320689 kJ/mol
# Density = 2.393354 g / cm^3
# Si number density = 23.988141 Si / 1000 Ang^3
#
#
#
# Elastic Constant Matrix: (Units=GPa)
#
#
# Indices 1 2 3 4 5 6 
#
# 1 69.6479 7.9784 -6.7883 0.0000 0.0000 0.0000
# 2 7.9784 55.5457 20.2967 0.0000 0.0000 0.0000
# 3 -6.7883 20.2967 110.4837 0.0000 0.0000 0.0000
# 4 0.0000 0.0000 0.0000 36.9593 0.0000 0.0000
# 5 0.0000 0.0000 0.0000 0.0000 35.9580 0.0000
# 6 0.0000 0.0000 0.0000 0.0000 0.0000 24.7421
#
#
#
# Elastic Compliance Matrix: (Units=1/GPa)
#
#
# Indices 1 2 3 4 5 6 
#
# 1 0.014795 -0.002634 0.001393 0.000000 0.000000 0.000000
# 2 -0.002634 0.019768 -0.003793 0.000000 0.000000 0.000000
# 3 0.001393 -0.003793 0.009834 0.000000 0.000000 0.000000
# 4 0.000000 0.000000 0.000000 0.027057 0.000000 0.000000
# 5 0.000000 0.000000 0.000000 0.000000 0.027810 0.000000
# 6 0.000000 0.000000 0.000000 0.000000 0.000000 0.040417
#
#
# Mechanical properties :
#
#
# Convention : Reuss Voigt Hill
#
# Bulk Modulus (GPa) = 29.13105 30.96122 30.04614
# Shear Modulus (GPa) = 31.01888 33.81125 32.41506
#
# Velocity S-wave (km/s) = 3.59986 3.75840 3.67998
# Velocity P-wave (km/s) = 5.42669 5.63640 5.53254
#
# Compressibility (1/GPa) = 0.03432763
#
# Stress axis : x y z
#
# Youngs Moduli (GPa) = 67.58835 50.58768 101.69260
#
# Poissons Ratio (x) = 0.13326 -0.14166
# Poissons Ratio (y) = 0.17804 0.38575
# Poissons Ratio (z) = -0.09415 0.19190
#
# Static dielectric constant tensor:
#      x y z
#    x 1.916730 0.000000 0.000000 
#    y 0.000000 1.961530 0.000000 
#    z 0.000000 0.000000 2.094470 
# 
# From -- ./inp_files/5177.got.cif
#   From: 2010.05.17/outbox.cif.g08.bks.cpg/sg41_3_cif.got.tgz:5177.got - 2010.06.03 18:54:24.
