data_PCOD9367840
_publ_section_title
;
Structure prediction by ZEFSAII (Michael W. Deem and Ramdas Pophale) SiO2 
 PCOD9367840
Probable space group: A B A 2
;
_chemical_formula_sum "Si O2"
_cell_formula_units_Z 48
_cell_length_a 21.608753
_cell_length_b 9.449224
_cell_length_c 10.778834
_cell_angle_alpha 90.000000
_cell_angle_beta 90.000000
_cell_angle_gamma 90.000000
_cell_volume 2200.886433
_symmetry_space_group_name_H-M "A B A 2"
_symmetry_group_IT_number 41
_symmetry_cell_setting 'orthorhombic'
loop_
_space_group_symop_operation_xyz
x,y,z
-x,-y,z
1/2-x,y,1/2+z
1/2+x,-y,1/2+z
x,1/2+y,1/2+z
-x,1/2-y,1/2+z
1/2-x,1/2+y,z
1/2+x,1/2-y,z
loop_
_atom_site_type_symbol
_atom_site_label
_atom_site_fract_x
_atom_site_fract_y
_atom_site_fract_z
Si Si1 0.212561 0.766845 0.687130
Si Si2 0.865257 0.227798 0.935115
Si Si3 0.943438 0.390645 0.294260
Si Si4 0.975558 0.360058 0.789858
Si Si5 0.611761 0.429844 0.059595
Si Si6 0.321733 0.570780 0.639672
O O1 0.180668 0.791323 0.819858
O O2 0.169749 0.665186 0.602359
O O3 0.277246 0.687228 0.701933
O O4 0.213569 0.922463 0.628035
O O5 0.931809 0.266365 0.877506
O O6 0.841119 0.362499 0.009828
O O7 0.869655 0.089571 0.021601
O O8 0.921316 0.372477 0.435790
O O9 0.884773 0.445381 0.217500
O O10 0.000000 0.500000 0.286189
O O11 0.968980 0.240916 0.246695
O O12 0.935635 0.415977 0.673900
O O13 0.000000 0.500000 0.857478
#
# Coordination Sequence:
#
# PCOD9367840 Si02
#       6
#     8   8   8   8   8   8
#     4  11  27  49  71 110 140 194 252 298 378 438
#     4  11  25  49  72 105 144 197 242 303 365 435
#     4  12  24  45  76 109 148 196 243 304 377 444
#     4  11  25  41  69 111 142 190 247 293 369 441
#     4  11  23  49  73 101 154 191 241 312 365 439
#     4  12  27  46  77 106 149 192 246 312 365 445
#
# _framework density 21.809394999999999
#
# number of rings (size 3 to 8) (size 9 to 14) (size 15 to 20)
#    0.000    0.667    3.333    3.500    7.000    3.333 
#    0.000    0.000    0.000    0.000    0.000    0.000 
#    0.000    0.000    0.000    0.000    0.000    0.000 
#
# Total GULP energy -134304.377023 kJ/mol
# GULP energy per Si atom -5596.015709 kJ/mol
# Density = 2.175976 g / cm^3
# Si number density = 21.809395 Si / 1000 Ang^3
#
#
#
# Elastic Constant Matrix: (Units=GPa)
#
#
# Indices 1 2 3 4 5 6 
#
# 1 98.2117 38.6566 20.1440 0.0000 0.0000 0.0000
# 2 38.6566 125.2280 55.7262 0.0000 0.0000 0.0000
# 3 20.1440 55.7262 65.4753 0.0000 0.0000 0.0000
# 4 0.0000 0.0000 0.0000 25.1527 0.0000 0.0000
# 5 0.0000 0.0000 0.0000 0.0000 11.5479 0.0000
# 6 0.0000 0.0000 0.0000 0.0000 0.0000 34.2364
#
#
#
# Elastic Compliance Matrix: (Units=1/GPa)
#
#
# Indices 1 2 3 4 5 6 
#
# 1 0.011619 -0.003213 -0.000840 0.000000 0.000000 0.000000
# 2 -0.003213 0.013742 -0.010707 0.000000 0.000000 0.000000
# 3 -0.000840 -0.010707 0.024645 0.000000 0.000000 0.000000
# 4 0.000000 0.000000 0.000000 0.039757 0.000000 0.000000
# 5 0.000000 0.000000 0.000000 0.000000 0.086596 0.000000
# 6 0.000000 0.000000 0.000000 0.000000 0.000000 0.029209
#
#
# Mechanical properties :
#
#
# Convention : Reuss Voigt Hill
#
# Bulk Modulus (GPa) = 48.81710 57.55206 53.18458
# Shear Modulus (GPa) = 20.66833 25.81328 23.24081
#
# Velocity S-wave (km/s) = 3.08178 3.44406 3.26794
# Velocity P-wave (km/s) = 5.92413 6.50087 6.21919
#
# Compressibility (1/GPa) = 0.02048462
#
# Stress axis : x y z
#
# Youngs Moduli (GPa) = 86.06607 72.77006 40.57700
#
# Poissons Ratio (x) = 0.23379 0.03410
# Poissons Ratio (y) = 0.27651 0.43447
# Poissons Ratio (z) = 0.07232 0.77917
#
# Static dielectric constant tensor:
#      x y z
#    x 1.827750 0.000000 0.000000 
#    y 0.000000 1.831240 0.000000 
#    z 0.000000 0.000000 1.768620 
# 
# From -- ./inp_files/6401.got.cif
#   From: 2010.05.17/outbox.cif.g08.bks.cpg/sg41_4_cif.got.tgz:6401.got - 2010.06.03 18:54:24.
