data_PCOD9367851
_publ_section_title
;
Structure prediction by ZEFSAII (Michael W. Deem and Ramdas Pophale) SiO2 
 PCOD9367851
Probable space group: A B A 2
;
_chemical_formula_sum "Si O2"
_cell_formula_units_Z 64
_cell_length_a 10.859621
_cell_length_b 29.603021
_cell_length_c 9.608493
_cell_angle_alpha 90.000000
_cell_angle_beta 90.000000
_cell_angle_gamma 90.000000
_cell_volume 3088.915159
_symmetry_space_group_name_H-M "A B A 2"
_symmetry_group_IT_number 41
_symmetry_cell_setting 'orthorhombic'
loop_
_space_group_symop_operation_xyz
x,y,z
-x,-y,z
1/2-x,y,1/2+z
1/2+x,-y,1/2+z
x,1/2+y,1/2+z
-x,1/2-y,1/2+z
1/2-x,1/2+y,z
1/2+x,1/2-y,z
loop_
_atom_site_type_symbol
_atom_site_label
_atom_site_fract_x
_atom_site_fract_y
_atom_site_fract_z
Si Si1 0.366454 0.016478 0.267800
Si Si2 0.861233 0.657006 0.342964
Si Si3 0.493176 0.805053 0.699035
Si Si4 0.298346 0.379428 0.122866
Si Si5 0.250703 0.167999 0.068874
Si Si6 0.126729 0.622471 0.324374
Si Si7 0.399199 0.747516 0.439499
Si Si8 0.361052 0.983250 0.583505
O O1 0.378724 0.069592 0.297268
O O2 0.500000 0.000000 0.211924
O O3 0.347014 0.992114 0.417726
O O4 0.250028 0.007167 0.167892
O O5 0.825332 0.629703 0.206991
O O6 0.779329 0.638397 0.467705
O O7 0.852155 0.711126 0.342437
O O8 0.999689 0.643035 0.380782
O O9 0.397536 0.846119 0.694416
O O10 0.627705 0.822424 0.656313
O O11 0.453390 0.770553 0.577456
O O12 0.504048 0.780247 0.846709
O O13 0.345382 0.430315 0.116881
O O14 0.224529 0.132880 0.945311
O O15 0.295906 0.213291 0.993060
O O16 0.344873 0.148701 0.181776
O O17 0.500000 0.000000 0.619752
#
# Coordination Sequence:
#
# PCOD9367851 Si02
#       8
#     8   8   8   8   8   8   8   8
#     4  11  25  44  74  98 137 177 224 287 352 416
#     4  11  25  42  68  95 135 178 219 278 324 412
#     4  11  26  42  66  94 134 177 224 275 327 398
#     4  11  24  43  66  94 135 172 221 272 345 390
#     4  12  25  42  68  97 135 175 222 283 327 406
#     4  12  24  47  67 100 133 174 225 279 345 398
#     4  11  25  41  66  97 135 176 227 266 337 386
#     4  11  24  43  70 101 133 175 226 284 343 424
#
# _framework density 20.719246999999999
#
# number of rings (size 3 to 8) (size 9 to 14) (size 15 to 20)
#    0.000    0.750    3.750    4.500    7.000    1.500 
#    0.000    3.750    0.000    0.000    0.000    0.000 
#    0.000    0.000    0.000    0.000    0.000    0.000 
#
# Total GULP energy -178901.692149 kJ/mol
# GULP energy per Si atom -5590.677880 kJ/mol
# Density = 2.067209 g / cm^3
# Si number density = 20.719247 Si / 1000 Ang^3
#
#
#
# Elastic Constant Matrix: (Units=GPa)
#
#
# Indices 1 2 3 4 5 6 
#
# 1 54.0328 -9.3740 15.0538 0.0000 0.0000 0.0000
# 2 -9.3740 79.2431 -10.8870 0.0000 0.0000 0.0000
# 3 15.0538 -10.8870 59.2349 0.0000 0.0000 0.0000
# 4 0.0000 0.0000 0.0000 26.7937 0.0000 0.0000
# 5 0.0000 0.0000 0.0000 0.0000 22.9532 0.0000
# 6 0.0000 0.0000 0.0000 0.0000 0.0000 26.0151
#
#
#
# Elastic Compliance Matrix: (Units=1/GPa)
#
#
# Indices 1 2 3 4 5 6 
#
# 1 0.020144 0.001723 -0.004803 0.000000 0.000000 0.000000
# 2 0.001723 0.013094 0.001969 0.000000 0.000000 0.000000
# 3 -0.004803 0.001969 0.018464 0.000000 0.000000 0.000000
# 4 0.000000 0.000000 0.000000 0.037322 0.000000 0.000000
# 5 0.000000 0.000000 0.000000 0.000000 0.043567 0.000000
# 6 0.000000 0.000000 0.000000 0.000000 0.000000 0.038439
#
#
# Mechanical properties :
#
#
# Convention : Reuss Voigt Hill
#
# Bulk Modulus (GPa) = 20.21002 20.23291 20.22147
# Shear Modulus (GPa) = 26.35104 28.33363 27.34233
#
# Velocity S-wave (km/s) = 3.57012 3.70199 3.63665
# Velocity P-wave (km/s) = 5.17395 5.29711 5.23589
#
# Compressibility (1/GPa) = 0.04948040
#
# Stress axis : x y z
#
# Youngs Moduli (GPa) = 49.64188 76.37264 54.15857
#
# Poissons Ratio (x) = -0.13160 0.26011
# Poissons Ratio (y) = -0.08554 -0.10662
# Poissons Ratio (z) = 0.23842 -0.15035
#
# Static dielectric constant tensor:
#      x y z
#    x 1.733510 0.000000 0.000000 
#    y 0.000000 1.722690 0.000000 
#    z 0.000000 0.000000 1.720580 
# 
# From -- ./inp_files/2236.got.cif
#   From: 2010.05.17/outbox.cif.g08.bks.cpg/sg41_2_cif.got.tgz:2236.got - 2010.06.03 18:54:24.
