data_PCOD9367902
_publ_section_title
;
Structure prediction by ZEFSAII (Michael W. Deem and Ramdas Pophale) SiO2 
 PCOD9367902
Probable space group: A B A 2
;
_chemical_formula_sum "Si O2"
_cell_formula_units_Z 32
_cell_length_a 20.636392
_cell_length_b 13.314560
_cell_length_c 4.958942
_cell_angle_alpha 90.000000
_cell_angle_beta 90.000000
_cell_angle_gamma 90.000000
_cell_volume 1362.541117
_symmetry_space_group_name_H-M "A B A 2"
_symmetry_group_IT_number 41
_symmetry_cell_setting 'orthorhombic'
loop_
_space_group_symop_operation_xyz
x,y,z
-x,-y,z
1/2-x,y,1/2+z
1/2+x,-y,1/2+z
x,1/2+y,1/2+z
-x,1/2-y,1/2+z
1/2-x,1/2+y,z
1/2+x,1/2-y,z
loop_
_atom_site_type_symbol
_atom_site_label
_atom_site_fract_x
_atom_site_fract_y
_atom_site_fract_z
Si Si1 0.596353 0.832174 0.789120
Si Si2 0.040654 0.363574 0.007760
Si Si3 0.208286 0.292330 0.549310
Si Si4 0.393302 0.458862 0.998501
O O1 0.570973 0.741631 0.600929
O O2 0.657528 0.791836 0.955402
O O3 0.611709 0.929399 0.610486
O O4 0.536212 0.854419 0.987455
O O5 0.069987 0.443228 0.217954
O O6 0.064290 0.396497 0.714376
O O7 0.228908 0.283968 0.858749
O O8 0.174534 0.399530 0.490783
#
# Coordination Sequence:
#
# PCOD9367902 Si02
#       4
#     8   8   8   8
#     4  11  25  45  72 100 139 183 218 281 355 401
#     4  11  25  43  68 106 138 170 227 284 341 423
#     4  11  25  45  67  98 136 180 239 283 319 400
#     4  11  26  45  69 100 139 179 223 282 347 406
#
# _framework density 23.485527999999999
#
# number of rings (size 3 to 8) (size 9 to 14) (size 15 to 20)
#    0.000    1.000    0.000    6.750    0.000   18.000 
#    0.000    0.000    0.000    0.000    0.000    0.000 
#    0.000    0.000    0.000    0.000    0.000    0.000 
#
# Total GULP energy -89759.548744 kJ/mol
# GULP energy per Si atom -5609.971796 kJ/mol
# Density = 2.343207 g / cm^3
# Si number density = 23.485528 Si / 1000 Ang^3
#
#
#
# Elastic Constant Matrix: (Units=GPa)
#
#
# Indices 1 2 3 4 5 6 
#
# 1 95.6268 30.0080 4.8470 0.0000 0.0000 0.0000
# 2 30.0080 138.4068 -17.7463 0.0000 0.0000 0.0000
# 3 4.8470 -17.7463 48.9876 0.0000 0.0000 0.0000
# 4 0.0000 0.0000 0.0000 37.9889 0.0000 0.0000
# 5 0.0000 0.0000 0.0000 0.0000 40.8555 0.0000
# 6 0.0000 0.0000 0.0000 0.0000 0.0000 14.5126
#
#
#
# Elastic Compliance Matrix: (Units=1/GPa)
#
#
# Indices 1 2 3 4 5 6 
#
# 1 0.011428 -0.002751 -0.002127 0.000000 0.000000 0.000000
# 2 -0.002751 0.008239 0.003257 0.000000 0.000000 0.000000
# 3 -0.002127 0.003257 0.021804 0.000000 0.000000 0.000000
# 4 0.000000 0.000000 0.000000 0.026323 0.000000 0.000000
# 5 0.000000 0.000000 0.000000 0.000000 0.024477 0.000000
# 6 0.000000 0.000000 0.000000 0.000000 0.000000 0.068906
#
#
# Mechanical properties :
#
#
# Convention : Reuss Voigt Hill
#
# Bulk Modulus (GPa) = 26.15803 35.24874 30.70339
# Shear Modulus (GPa) = 28.22287 36.39889 32.31088
#
# Velocity S-wave (km/s) = 3.47033 3.94108 3.71317
# Velocity P-wave (km/s) = 5.21725 5.97919 5.61117
#
# Compressibility (1/GPa) = 0.03822918
#
# Stress axis : x y z
#
# Youngs Moduli (GPa) = 87.50244 121.37390 45.86398
#
# Poissons Ratio (x) = 0.33384 0.09756
# Poissons Ratio (y) = 0.24068 -0.14937
# Poissons Ratio (z) = 0.18613 -0.39529
#
# Static dielectric constant tensor:
#      x y z
#    x 1.928030 0.000000 0.000000 
#    y 0.000000 1.890940 0.000000 
#    z 0.000000 0.000000 1.850980 
# 
# From -- ./inp_files/610.got.cif
#   From: 2010.05.17/outbox.cif.g08.bks.cpg/sg41_1_cif.got.tgz:610.got - 2010.06.03 18:54:24.
