data_PCOD9367276
_publ_section_title
;
Structure prediction by ZEFSAII (Michael W. Deem and Ramdas Pophale) SiO2 
 PCOD9367276
Probable space group: A B A 2
;
_chemical_formula_sum "Si O2"
_cell_formula_units_Z 32
_cell_length_a 13.895198
_cell_length_b 8.056370
_cell_length_c 11.321966
_cell_angle_alpha 90.000000
_cell_angle_beta 90.000000
_cell_angle_gamma 90.000000
_cell_volume 1267.435857
_symmetry_space_group_name_H-M "A B A 2"
_symmetry_group_IT_number 41
_symmetry_cell_setting 'orthorhombic'
loop_
_space_group_symop_operation_xyz
x,y,z
-x,-y,z
1/2-x,y,1/2+z
1/2+x,-y,1/2+z
x,1/2+y,1/2+z
-x,1/2-y,1/2+z
1/2-x,1/2+y,z
1/2+x,1/2-y,z
loop_
_atom_site_type_symbol
_atom_site_label
_atom_site_fract_x
_atom_site_fract_y
_atom_site_fract_z
Si Si1 0.401277 0.090040 0.236200
Si Si2 0.729511 0.342549 0.056160
Si Si3 0.134013 0.354325 0.450626
Si Si4 0.447372 0.824061 0.950300
O O1 0.311257 0.143578 0.155848
O O2 0.424821 0.247711 0.320546
O O3 0.500000 0.000000 0.185661
O O4 0.369136 0.948316 0.328043
O O5 0.677990 0.517365 0.043371
O O6 0.797341 0.304333 0.942904
O O7 0.644284 0.206099 0.036268
O O8 0.030426 0.299837 0.494273
O O9 0.500000 0.000000 0.938322
#
# Coordination Sequence:
#
# PCOD9367276 Si02
#       4
#     8   8   8   8
#     4   9  22  45  71 105 147 191 245 305 379 454
#     4  11  22  41  72 104 139 190 251 305 370 448
#     4  10  23  43  68 102 144 188 240 308 375 445
#     4  10  22  47  73 101 148 197 245 312 382 455
#
# _framework density 25.247827000000001
#
# number of rings (size 3 to 8) (size 9 to 14) (size 15 to 20)
#    0.000    2.000    0.000    3.750    0.000    7.000 
#    0.000   23.750    0.000   12.000    0.000    7.000 
#    0.000    0.000    0.000    0.000    0.000    0.000 
#
# Total GULP energy -89304.407106 kJ/mol
# GULP energy per Si atom -5581.525444 kJ/mol
# Density = 2.519036 g / cm^3
# Si number density = 25.247827 Si / 1000 Ang^3
#
#
#
# Elastic Constant Matrix: (Units=GPa)
#
#
# Indices 1 2 3 4 5 6 
#
# 1 247.7444 96.9370 90.9103 0.0000 0.0000 0.0000
# 2 96.9370 149.4751 68.5468 0.0000 0.0000 0.0000
# 3 90.9103 68.5468 91.6985 0.0000 0.0000 0.0000
# 4 0.0000 0.0000 0.0000 9.6864 0.0000 0.0000
# 5 0.0000 0.0000 0.0000 0.0000 44.8442 0.0000
# 6 0.0000 0.0000 0.0000 0.0000 0.0000 67.2625
#
#
#
# Elastic Compliance Matrix: (Units=1/GPa)
#
#
# Indices 1 2 3 4 5 6 
#
# 1 0.006708 -0.001979 -0.005171 0.000000 0.000000 0.000000
# 2 -0.001979 0.010763 -0.006084 0.000000 0.000000 0.000000
# 3 -0.005171 -0.006084 0.020580 0.000000 0.000000 0.000000
# 4 0.000000 0.000000 0.000000 0.103238 0.000000 0.000000
# 5 0.000000 0.000000 0.000000 0.000000 0.022299 0.000000
# 6 0.000000 0.000000 0.000000 0.000000 0.000000 0.014867
#
#
# Mechanical properties :
#
#
# Convention : Reuss Voigt Hill
#
# Bulk Modulus (GPa) = 86.33101 111.30069 98.81585
# Shear Modulus (GPa) = 23.94793 39.86021 31.90407
#
# Velocity S-wave (km/s) = 3.08314 3.97767 3.55862
# Velocity P-wave (km/s) = 6.85142 8.07928 7.49055
#
# Compressibility (1/GPa) = 0.01158332
#
# Stress axis : x y z
#
# Youngs Moduli (GPa) = 149.06649 92.90659 48.59042
#
# Poissons Ratio (x) = 0.18386 0.25128
# Poissons Ratio (y) = 0.29500 0.29562
# Poissons Ratio (z) = 0.77088 0.56524
#
# Static dielectric constant tensor:
#      x y z
#    x 2.092180 0.000000 0.000000 
#    y 0.000000 2.049520 0.000000 
#    z 0.000000 0.000000 2.038360 
# 
# From -- ./inp_files/5320.got.cif
#   From: 2010.05.17/outbox.cif.g08.bks.cpg/sg41_3_cif.got.tgz:5320.got - 2010.06.03 18:54:24.
