data_PCOD9367839
_publ_section_title
;
Structure prediction by ZEFSAII (Michael W. Deem and Ramdas Pophale) SiO2 
 PCOD9367839
Probable space group: A B A 2
;
_chemical_formula_sum "Si O2"
_cell_formula_units_Z 48
_cell_length_a 22.259718
_cell_length_b 8.047437
_cell_length_c 11.574067
_cell_angle_alpha 90.000000
_cell_angle_beta 90.000000
_cell_angle_gamma 90.000000
_cell_volume 2073.305194
_symmetry_space_group_name_H-M "A B A 2"
_symmetry_group_IT_number 41
_symmetry_cell_setting 'orthorhombic'
loop_
_space_group_symop_operation_xyz
x,y,z
-x,-y,z
1/2-x,y,1/2+z
1/2+x,-y,1/2+z
x,1/2+y,1/2+z
-x,1/2-y,1/2+z
1/2-x,1/2+y,z
1/2+x,1/2-y,z
loop_
_atom_site_type_symbol
_atom_site_label
_atom_site_fract_x
_atom_site_fract_y
_atom_site_fract_z
Si Si1 0.344226 0.923977 0.857530
Si Si2 0.230505 0.883141 0.567554
Si Si3 0.848344 0.431853 0.242131
Si Si4 0.343771 0.048007 0.608594
Si Si5 0.935652 0.433253 0.025486
Si Si6 0.565626 0.567040 0.930907
O O1 0.335013 0.739680 0.807142
O O2 0.350536 0.040069 0.746069
O O3 0.403242 0.940536 0.936950
O O4 0.291325 0.965559 0.947674
O O5 0.195118 0.709318 0.574091
O O6 0.208641 0.983253 0.681319
O O7 0.302080 0.890577 0.571377
O O8 0.884479 0.544447 0.332314
O O9 0.893959 0.407186 0.136151
O O10 0.406147 0.031421 0.541099
O O11 0.941298 0.257982 0.963007
O O12 0.000000 0.500000 0.060980
O O13 0.500000 0.500000 0.898220
#
# Coordination Sequence:
#
# PCOD9367839 Si02
#       6
#     8   8   8   8   8   8
#     4  11  24  46  71 105 140 182 237 299 359 426
#     4  11  27  44  74 103 142 185 240 300 364 429
#     4  11  23  48  71 104 141 185 241 299 356 424
#     4  12  26  46  73 106 142 189 239 297 366 431
#     4  11  25  44  72 101 142 190 242 289 358 426
#     4  12  26  46  71 104 149 192 240 296 361 436
#
# _framework density 23.151439
#
# number of rings (size 3 to 8) (size 9 to 14) (size 15 to 20)
#    0.000    0.667    3.333    3.500    7.000    2.000 
#    3.000    0.000    0.000    0.000    0.000    0.000 
#    0.000    0.000    0.000    0.000    0.000    0.000 
#
# Total GULP energy -134402.914310 kJ/mol
# GULP energy per Si atom -5600.121430 kJ/mol
# Density = 2.309875 g / cm^3
# Si number density = 23.151439 Si / 1000 Ang^3
#
#
#
# Elastic Constant Matrix: (Units=GPa)
#
#
# Indices 1 2 3 4 5 6 
#
# 1 80.4765 -11.1789 18.6032 0.0000 0.0000 0.0000
# 2 -11.1789 80.7404 6.1946 0.0000 0.0000 0.0000
# 3 18.6032 6.1946 131.7319 0.0000 0.0000 0.0000
# 4 0.0000 0.0000 0.0000 35.9476 0.0000 0.0000
# 5 0.0000 0.0000 0.0000 0.0000 22.5449 0.0000
# 6 0.0000 0.0000 0.0000 0.0000 0.0000 30.5822
#
#
#
# Elastic Compliance Matrix: (Units=1/GPa)
#
#
# Indices 1 2 3 4 5 6 
#
# 1 0.013150 0.001970 -0.001950 0.000000 0.000000 0.000000
# 2 0.001970 0.012725 -0.000877 0.000000 0.000000 0.000000
# 3 -0.001950 -0.000877 0.007908 0.000000 0.000000 0.000000
# 4 0.000000 0.000000 0.000000 0.027818 0.000000 0.000000
# 5 0.000000 0.000000 0.000000 0.000000 0.044356 0.000000
# 6 0.000000 0.000000 0.000000 0.000000 0.000000 0.032699
#
#
# Mechanical properties :
#
#
# Convention : Reuss Voigt Hill
#
# Bulk Modulus (GPa) = 31.18042 35.57629 33.37836
# Shear Modulus (GPa) = 33.09959 36.43692 34.76825
#
# Velocity S-wave (km/s) = 3.78524 3.97148 3.87948
# Velocity P-wave (km/s) = 5.70976 6.03576 5.87502
#
# Compressibility (1/GPa) = 0.03207141
#
# Stress axis : x y z
#
# Youngs Moduli (GPa) = 76.04332 78.58278 126.45835
#
# Poissons Ratio (x) = -0.15483 0.24656
# Poissons Ratio (y) = -0.14983 0.11086
# Poissons Ratio (z) = 0.14827 0.06889
#
# Static dielectric constant tensor:
#      x y z
#    x 1.817940 0.000000 0.000000 
#    y 0.000000 1.913840 0.000000 
#    z 0.000000 0.000000 1.852080 
# 
# From -- ./inp_files/6383.got.cif
#   From: 2010.05.17/outbox.cif.g08.bks.cpg/sg41_4_cif.got.tgz:6383.got - 2010.06.03 18:54:24.
