data_PCOD9367381
_publ_section_title
;
Structure prediction by ZEFSAII (Michael W. Deem and Ramdas Pophale) SiO2 
 PCOD9367381
Probable space group: A B A 2
;
_chemical_formula_sum "Si O2"
_cell_formula_units_Z 36
_cell_length_a 5.135280
_cell_length_b 21.850331
_cell_length_c 12.931228
_cell_angle_alpha 90.000000
_cell_angle_beta 90.000000
_cell_angle_gamma 90.000000
_cell_volume 1450.981642
_symmetry_space_group_name_H-M "A B A 2"
_symmetry_group_IT_number 41
_symmetry_cell_setting 'orthorhombic'
loop_
_space_group_symop_operation_xyz
x,y,z
-x,-y,z
1/2-x,y,1/2+z
1/2+x,-y,1/2+z
x,1/2+y,1/2+z
-x,1/2-y,1/2+z
1/2-x,1/2+y,z
1/2+x,1/2-y,z
loop_
_atom_site_type_symbol
_atom_site_label
_atom_site_fract_x
_atom_site_fract_y
_atom_site_fract_z
Si Si1 0.000000 0.000000 0.597020
Si Si2 0.374515 0.790551 0.836995
Si Si3 0.144778 0.119054 0.473321
Si Si4 0.242373 0.534468 0.304675
Si Si5 0.515086 0.795024 0.611657
O O1 0.000537 0.061842 0.528811
O O2 0.211773 0.022868 0.682565
O O3 0.081582 0.765572 0.840391
O O4 0.433110 0.832151 0.935116
O O5 0.451436 0.820810 0.727111
O O6 0.262142 0.098252 0.362704
O O7 0.370825 0.149869 0.542190
O O8 0.500000 0.500000 0.333750
O O9 0.000000 0.500000 0.354358
O O10 0.256500 0.752999 0.601025
#
# Coordination Sequence:
#
# PCOD9367381 Si02
#       5
#     4   8   8   8   8
#     4  10  26  48  68 104 142 188 240 288 360 416
#     4  10  23  44  67 101 140 176 230 296 352 415
#     4  12  22  46  73 104 135 198 232 296 350 439
#     4  10  25  48  64  99 143 181 235 292 345 416
#     4  10  23  44  69 105 138 180 233 293 357 418
#
# _framework density 24.810790999999998
#
# number of rings (size 3 to 8) (size 9 to 14) (size 15 to 20)
#    0.667    0.889    1.111    2.667    0.000    4.444 
#   16.000    0.000    0.000    0.000    0.000    0.000 
#    0.000    0.000    0.000    0.000    0.000    0.000 
#
# Total GULP energy -100281.992708 kJ/mol
# GULP energy per Si atom -5571.221817 kJ/mol
# Density = 2.475432 g / cm^3
# Si number density = 24.810791 Si / 1000 Ang^3
#
#
#
# Elastic Constant Matrix: (Units=GPa)
#
#
# Indices 1 2 3 4 5 6 
#
# 1 101.7264 20.2139 23.6815 0.0000 0.0000 0.0000
# 2 20.2139 84.8862 76.5885 0.0000 0.0000 0.0000
# 3 23.6815 76.5885 127.6410 0.0000 0.0000 0.0000
# 4 0.0000 0.0000 0.0000 55.8027 0.0000 0.0000
# 5 0.0000 0.0000 0.0000 0.0000 21.4408 0.0000
# 6 0.0000 0.0000 0.0000 0.0000 0.0000 28.3769
#
#
#
# Elastic Compliance Matrix: (Units=1/GPa)
#
#
# Indices 1 2 3 4 5 6 
#
# 1 0.010373 -0.001600 -0.000965 0.000000 0.000000 0.000000
# 2 -0.001600 0.025933 -0.015264 0.000000 0.000000 0.000000
# 3 -0.000965 -0.015264 0.017172 0.000000 0.000000 0.000000
# 4 0.000000 0.000000 0.000000 0.017920 0.000000 0.000000
# 5 0.000000 0.000000 0.000000 0.000000 0.046640 0.000000
# 6 0.000000 0.000000 0.000000 0.000000 0.000000 0.035240
#
#
# Mechanical properties :
#
#
# Convention : Reuss Voigt Hill
#
# Bulk Modulus (GPa) = 56.11134 61.69127 58.90130
# Shear Modulus (GPa) = 25.65737 34.04207 29.84972
#
# Velocity S-wave (km/s) = 3.21926 3.70816 3.47233
# Velocity P-wave (km/s) = 6.04012 6.57667 6.31410
#
# Compressibility (1/GPa) = 0.01782171
#
# Stress axis : x y z
#
# Youngs Moduli (GPa) = 96.40667 38.56039 58.23337
#
# Poissons Ratio (x) = 0.06169 0.05617
# Poissons Ratio (y) = 0.15423 0.88887
# Poissons Ratio (z) = 0.09299 0.58859
#
# Static dielectric constant tensor:
#      x y z
#    x 1.944120 0.000000 0.000000 
#    y 0.000000 2.000600 0.000000 
#    z 0.000000 0.000000 2.138410 
# 
# From -- ./inp_files/6787.got.cif
#   From: 2010.05.17/outbox.cif.g08.bks.cpg/sg41_4_cif.got.tgz:6787.got - 2010.06.03 18:54:24.
