data_PCOD9367529
_publ_section_title
;
Structure prediction by ZEFSAII (Michael W. Deem and Ramdas Pophale) SiO2 
 PCOD9367529
Probable space group: A B A 2
;
_chemical_formula_sum "Si O2"
_cell_formula_units_Z 48
_cell_length_a 5.294159
_cell_length_b 23.796144
_cell_length_c 15.340816
_cell_angle_alpha 90.000000
_cell_angle_beta 90.000000
_cell_angle_gamma 90.000000
_cell_volume 1932.644743
_symmetry_space_group_name_H-M "A B A 2"
_symmetry_group_IT_number 41
_symmetry_cell_setting 'orthorhombic'
loop_
_space_group_symop_operation_xyz
x,y,z
-x,-y,z
1/2-x,y,1/2+z
1/2+x,-y,1/2+z
x,1/2+y,1/2+z
-x,1/2-y,1/2+z
1/2-x,1/2+y,z
1/2+x,1/2-y,z
loop_
_atom_site_type_symbol
_atom_site_label
_atom_site_fract_x
_atom_site_fract_y
_atom_site_fract_z
Si Si1 0.501383 0.786945 0.401470
Si Si2 0.940312 0.566862 0.147858
Si Si3 0.240127 0.963737 0.982975
Si Si4 0.269883 0.648398 0.253639
Si Si5 0.386940 0.438033 0.310065
Si Si6 0.091375 0.714662 0.592343
O O1 0.719472 0.738441 0.399645
O O2 0.060341 0.679306 0.312455
O O3 0.545183 0.815285 0.497636
O O4 0.731113 0.576452 0.219021
O O5 0.000000 0.500000 0.148855
O O6 0.165608 0.603908 0.182564
O O7 0.827268 0.580558 0.054258
O O8 0.185694 0.940482 0.887621
O O9 0.500000 0.000000 0.971309
O O10 0.000000 0.000000 0.013355
O O11 0.416137 0.611180 0.325372
O O12 0.430619 0.687667 0.188903
O O13 0.500000 0.500000 0.299438
O O14 0.879098 0.763165 0.589972
#
# Coordination Sequence:
#
# PCOD9367529 Si02
#       6
#     8   8   8   8   8   8
#     4  10  24  48  73 100 138 178 232 303 369 433
#     4  11  24  44  66 100 147 191 239 292 349 415
#     4  10  24  44  70  92 134 194 244 290 344 404
#     4  12  26  40  72 106 136 192 238 296 356 444
#     4  11  24  44  66 100 147 191 239 292 349 415
#     4  10  24  48  73 100 138 178 232 303 369 433
#
# _framework density 24.836433
#
# number of rings (size 3 to 8) (size 9 to 14) (size 15 to 20)
#    0.000    1.333    1.667    2.000   11.667    0.000 
#    3.000    0.000    0.000    0.000    0.000    0.000 
#    0.000    0.000    0.000    0.000    0.000    0.000 
#
# Total GULP energy -133998.696197 kJ/mol
# GULP energy per Si atom -5583.279008 kJ/mol
# Density = 2.477990 g / cm^3
# Si number density = 24.836433 Si / 1000 Ang^3
#
#
#
# Elastic Constant Matrix: (Units=GPa)
#
#
# Indices 1 2 3 4 5 6 
#
# 1 79.5112 8.4554 -3.8625 0.0000 0.0000 0.0000
# 2 8.4554 43.1352 20.3885 0.0000 0.0000 0.0000
# 3 -3.8625 20.3885 111.2818 0.0000 0.0000 0.0000
# 4 0.0000 0.0000 0.0000 -22.7134 0.0000 0.0000
# 5 0.0000 0.0000 0.0000 0.0000 42.7011 0.0000
# 6 0.0000 0.0000 0.0000 0.0000 0.0000 36.6139
#
#
#
# Elastic Compliance Matrix: (Units=1/GPa)
#
#
# Indices 1 2 3 4 5 6 
#
# 1 0.012946 -0.003011 0.001001 0.000000 0.000000 0.000000
# 2 -0.003011 0.026081 -0.004883 0.000000 0.000000 0.000000
# 3 0.001001 -0.004883 0.009916 0.000000 0.000000 0.000000
# 4 0.000000 0.000000 0.000000 -0.044027 0.000000 0.000000
# 5 0.000000 0.000000 0.000000 0.000000 0.023419 0.000000
# 6 0.000000 0.000000 0.000000 0.000000 0.000000 0.027312
#
#
# Mechanical properties :
#
#
# Convention : Reuss Voigt Hill
#
# Bulk Modulus (GPa) = 28.44398 31.54345 29.99371
# Shear Modulus (GPa) = 61.61394 25.25010 43.43202
#
# Velocity S-wave (km/s) = 4.98615 3.19196 4.18631
# Velocity P-wave (km/s) = 6.68030 5.12961 5.95564
#
# Compressibility (1/GPa) = 0.03515682
#
# Stress axis : x y z
#
# Youngs Moduli (GPa) = 77.24613 38.34199 100.85151
#
# Poissons Ratio (x) = 0.11544 -0.10095
# Poissons Ratio (y) = 0.23257 0.49245
# Poissons Ratio (z) = -0.07732 0.18722
#
# Static dielectric constant tensor:
#      x y z
#    x 1.913520 0.000000 0.000000 
#    y 0.000000 2.748850 0.000000 
#    z 0.000000 0.000000 2.008740 
# 
# From -- ./inp_files/6888.got.cif
#   From: 2010.05.17/outbox.cif.g08.bks.cpg/sg41_4_cif.got.tgz:6888.got - 2010.06.03 18:54:24.
