data_PCOD9367587
_publ_section_title
;
Structure prediction by ZEFSAII (Michael W. Deem and Ramdas Pophale) SiO2 
 PCOD9367587
Probable space group: A B A 2
;
_chemical_formula_sum "Si O2"
_cell_formula_units_Z 60
_cell_length_a 8.791273
_cell_length_b 13.814817
_cell_length_c 24.142988
_cell_angle_alpha 90.000000
_cell_angle_beta 90.000000
_cell_angle_gamma 90.000000
_cell_volume 2932.161733
_symmetry_space_group_name_H-M "A B A 2"
_symmetry_group_IT_number 41
_symmetry_cell_setting 'orthorhombic'
loop_
_space_group_symop_operation_xyz
x,y,z
-x,-y,z
1/2-x,y,1/2+z
1/2+x,-y,1/2+z
x,1/2+y,1/2+z
-x,1/2-y,1/2+z
1/2-x,1/2+y,z
1/2+x,1/2-y,z
loop_
_atom_site_type_symbol
_atom_site_label
_atom_site_fract_x
_atom_site_fract_y
_atom_site_fract_z
Si Si1 0.476098 0.112535 0.051840
Si Si2 0.182345 0.413619 0.684180
Si Si3 0.670094 0.806448 0.313945
Si Si4 0.000000 0.500000 0.944657
Si Si5 0.645026 0.369855 0.205253
Si Si6 0.661760 0.125744 0.291090
Si Si7 0.262263 0.759173 0.103372
Si Si8 0.674561 0.477604 0.886325
O O1 0.612225 0.185061 0.067719
O O2 0.330551 0.173730 0.073110
O O3 0.500000 0.000000 0.075063
O O4 0.476130 0.090540 0.986564
O O5 0.189707 0.528132 0.677019
O O6 0.317574 0.389796 0.726075
O O7 0.169517 0.350287 0.629045
O O8 0.031695 0.385023 0.718260
O O9 0.764077 0.846496 0.260876
O O10 0.495581 0.821184 0.300300
O O11 0.713046 0.695364 0.317403
O O12 0.695849 0.865300 0.370485
O O13 0.165562 0.490008 0.914607
O O14 0.670166 0.289121 0.158945
O O15 0.666808 0.028375 0.326045
O O16 0.500000 0.500000 0.909940
#
# Coordination Sequence:
#
# PCOD9367587 Si02
#       8
#     8   8   8   4   8   8   8   8
#     4  10  26  50  70 104 130 188 242 311 369 415
#     4  11  23  36  60  98 138 188 220 268 342 427
#     4  11  23  38  60  99 141 182 225 271 341 429
#     4  10  26  54  74  96 136 176 250 320 374 412
#     4  11  23  36  60  98 138 188 220 268 342 427
#     4  11  23  38  60  99 141 182 225 271 341 429
#     4  12  22  46  66  96 148 172 240 288 354 434
#     4  10  24  48  71  99 135 183 232 298 360 423
#
# _framework density 20.462717999999999
#
# number of rings (size 3 to 8) (size 9 to 14) (size 15 to 20)
#    0.400    0.800    4.000    1.600    5.600    0.000 
#    4.800    0.000    0.000    0.000    0.000    0.000 
#    0.000    0.000    0.000    0.000    0.000    0.000 
#
# Total GULP energy -167024.022592 kJ/mol
# GULP energy per Si atom -5567.467420 kJ/mol
# Density = 2.041614 g / cm^3
# Si number density = 20.462718 Si / 1000 Ang^3
#
#
#
# Elastic Constant Matrix: (Units=GPa)
#
#
# Indices 1 2 3 4 5 6 
#
# 1 87.6999 11.3863 38.1104 0.0000 0.0000 0.0000
# 2 11.3863 96.0063 19.4597 0.0000 0.0000 0.0000
# 3 38.1104 19.4597 62.0347 0.0000 0.0000 0.0000
# 4 0.0000 0.0000 0.0000 31.3047 0.0000 0.0000
# 5 0.0000 0.0000 0.0000 0.0000 24.3542 0.0000
# 6 0.0000 0.0000 0.0000 0.0000 0.0000 32.1321
#
#
#
# Elastic Compliance Matrix: (Units=1/GPa)
#
#
# Indices 1 2 3 4 5 6 
#
# 1 0.015556 0.000098 -0.009588 0.000000 0.000000 0.000000
# 2 0.000098 0.011124 -0.003550 0.000000 0.000000 0.000000
# 3 -0.009588 -0.003550 0.023124 0.000000 0.000000 0.000000
# 4 0.000000 0.000000 0.000000 0.031944 0.000000 0.000000
# 5 0.000000 0.000000 0.000000 0.000000 0.041061 0.000000
# 6 0.000000 0.000000 0.000000 0.000000 0.000000 0.031121
#
#
# Mechanical properties :
#
#
# Convention : Reuss Voigt Hill
#
# Bulk Modulus (GPa) = 42.14896 42.62817 42.38857
# Shear Modulus (GPa) = 26.60758 29.34384 27.97571
#
# Velocity S-wave (km/s) = 3.60987 3.79095 3.70152
# Velocity P-wave (km/s) = 6.16584 6.32764 6.24726
#
# Compressibility (1/GPa) = 0.02372538
#
# Stress axis : x y z
#
# Youngs Moduli (GPa) = 64.28353 89.89694 43.24585
#
# Poissons Ratio (x) = -0.00884 0.41462
# Poissons Ratio (y) = -0.00632 0.15352
# Poissons Ratio (z) = 0.61632 0.31912
#
# Static dielectric constant tensor:
#      x y z
#    x 1.805680 0.000000 0.000000 
#    y 0.000000 1.784690 0.000000 
#    z 0.000000 0.000000 1.714780 
# 
# From -- ./inp_files/12001.got.cif
#   From: 2010.05.17/outbox.cif.g08.bks.cpg/sg41_7_cif.got.tgz:12001.got - 2010.06.03 18:54:24.
