data_PCOD9367037
_publ_section_title
;
Structure prediction by ZEFSAII (Michael W. Deem and Ramdas Pophale) SiO2 
 PCOD9367037
Probable space group: A B A 2
;
_chemical_formula_sum "Si O2"
_cell_formula_units_Z 64
_cell_length_a 9.574709
_cell_length_b 23.813245
_cell_length_c 14.364918
_cell_angle_alpha 90.000000
_cell_angle_beta 90.000000
_cell_angle_gamma 90.000000
_cell_volume 3275.271566
_symmetry_space_group_name_H-M "A B A 2"
_symmetry_group_IT_number 41
_symmetry_cell_setting 'orthorhombic'
loop_
_space_group_symop_operation_xyz
x,y,z
-x,-y,z
1/2-x,y,1/2+z
1/2+x,-y,1/2+z
x,1/2+y,1/2+z
-x,1/2-y,1/2+z
1/2-x,1/2+y,z
1/2+x,1/2-y,z
loop_
_atom_site_type_symbol
_atom_site_label
_atom_site_fract_x
_atom_site_fract_y
_atom_site_fract_z
Si Si1 0.351771 0.852705 0.921680
Si Si2 0.393009 0.325033 0.637522
Si Si3 0.706485 0.881126 0.350172
Si Si4 0.443880 0.707546 0.295730
Si Si5 0.533535 0.433242 0.683576
Si Si6 0.071276 0.059913 0.467651
Si Si7 0.902060 0.229522 0.123297
Si Si8 0.438740 0.815999 0.414034
O O1 0.417026 0.806695 0.854569
O O2 0.453666 0.904635 0.913401
O O3 0.188796 0.859565 0.906749
O O4 0.372638 0.834711 0.027855
O O5 0.408093 0.386094 0.685891
O O6 0.541779 0.292416 0.644167
O O7 0.253910 0.287294 0.656234
O O8 0.818298 0.833203 0.322745
O O9 0.641592 0.912444 0.261200
O O10 0.785746 0.925876 0.415532
O O11 0.583132 0.848096 0.402771
O O12 0.488093 0.697386 0.189401
O O13 0.416619 0.770780 0.331532
O O14 0.500000 0.500000 0.696077
O O15 0.586964 0.425973 0.577205
O O16 0.000000 0.000000 0.466713
O O17 0.923470 0.214899 0.014477
#
# Coordination Sequence:
#
# PCOD9367037 Si02
#       8
#     8   8   8   8   8   8   8   8
#     4   9  20  39  58  84 125 159 205 256 315 389
#     4  10  22  40  62  92 124 175 206 264 336 383
#     4  11  25  39  67  95 125 172 221 275 327 402
#     4  11  23  38  56  90 128 170 205 256 327 395
#     4  10  23  45  70  94 128 172 227 272 325 393
#     4   9  21  44  68  87 122 170 214 268 330 380
#     4  11  25  36  63  92 134 167 211 271 327 407
#     4  11  23  39  59  97 130 166 210 268 326 392
#
# _framework density 19.540365999999999
#
# number of rings (size 3 to 8) (size 9 to 14) (size 15 to 20)
#    0.000    1.750    1.250    1.500   10.500    1.000 
#    2.250    0.000    0.000    0.750    0.000    0.000 
#    0.000    0.000    0.000    0.000    0.000    0.000 
#
# Total GULP energy -178261.167468 kJ/mol
# GULP energy per Si atom -5570.661483 kJ/mol
# Density = 1.949589 g / cm^3
# Si number density = 19.540366 Si / 1000 Ang^3
#
#
#
# Elastic Constant Matrix: (Units=GPa)
#
#
# Indices 1 2 3 4 5 6 
#
# 1 123.1085 51.0362 44.1483 0.0000 0.0000 0.0000
# 2 51.0362 87.0464 28.9482 0.0000 0.0000 0.0000
# 3 44.1483 28.9482 93.4534 0.0000 0.0000 0.0000
# 4 0.0000 0.0000 0.0000 53.0933 0.0000 0.0000
# 5 0.0000 0.0000 0.0000 0.0000 26.6982 0.0000
# 6 0.0000 0.0000 0.0000 0.0000 0.0000 20.1926
#
#
#
# Elastic Compliance Matrix: (Units=1/GPa)
#
#
# Indices 1 2 3 4 5 6 
#
# 1 0.011852 -0.005671 -0.003842 0.000000 0.000000 0.000000
# 2 -0.005671 0.015521 -0.002129 0.000000 0.000000 0.000000
# 3 -0.003842 -0.002129 0.013175 0.000000 0.000000 0.000000
# 4 0.000000 0.000000 0.000000 0.018835 0.000000 0.000000
# 5 0.000000 0.000000 0.000000 0.000000 0.037456 0.000000
# 6 0.000000 0.000000 0.000000 0.000000 0.000000 0.049523
#
#
# Mechanical properties :
#
#
# Convention : Reuss Voigt Hill
#
# Bulk Modulus (GPa) = 57.92466 61.31931 59.62198
# Shear Modulus (GPa) = 28.50622 31.96185 30.23403
#
# Velocity S-wave (km/s) = 3.82362 4.04875 3.93779
# Velocity P-wave (km/s) = 7.01437 7.30106 7.15915
#
# Compressibility (1/GPa) = 0.01726380
#
# Stress axis : x y z
#
# Youngs Moduli (GPa) = 84.37532 64.42857 75.90117
#
# Poissons Ratio (x) = 0.36538 0.29163
# Poissons Ratio (y) = 0.47850 0.16157
# Poissons Ratio (z) = 0.32419 0.13715
#
# Static dielectric constant tensor:
#      x y z
#    x 1.700540 0.000000 0.000000 
#    y 0.000000 1.215840 0.000000 
#    z 0.000000 0.000000 1.712200 
# 
# From -- ./inp_files/7565.got.cif
#   From: 2010.05.17/outbox.cif.g08.bks.cpg/sg41_4_cif.got.tgz:7565.got - 2010.06.03 18:54:24.
