data_PCOD9367913
_publ_section_title
;
Structure prediction by ZEFSAII (Michael W. Deem and Ramdas Pophale) SiO2 
 PCOD9367913
Probable space group: A B A 2
;
_chemical_formula_sum "Si O2"
_cell_formula_units_Z 44
_cell_length_a 17.641820
_cell_length_b 9.619011
_cell_length_c 10.856839
_cell_angle_alpha 90.000000
_cell_angle_beta 90.000000
_cell_angle_gamma 90.000000
_cell_volume 1842.371495
_symmetry_space_group_name_H-M "A B A 2"
_symmetry_group_IT_number 41
_symmetry_cell_setting 'orthorhombic'
loop_
_space_group_symop_operation_xyz
x,y,z
-x,-y,z
1/2-x,y,1/2+z
1/2+x,-y,1/2+z
x,1/2+y,1/2+z
-x,1/2-y,1/2+z
1/2-x,1/2+y,z
1/2+x,1/2-y,z
loop_
_atom_site_type_symbol
_atom_site_label
_atom_site_fract_x
_atom_site_fract_y
_atom_site_fract_z
Si Si1 0.227903 0.832921 0.883180
Si Si2 0.902353 0.888364 0.340093
Si Si3 0.534237 0.769947 0.464751
Si Si4 0.156462 0.420709 0.051860
Si Si5 0.000000 0.500000 0.631878
Si Si6 0.660300 0.386930 0.787974
O O1 0.153570 0.742987 0.850458
O O2 0.290798 0.753821 0.799685
O O3 0.205977 0.991522 0.857669
O O4 0.265285 0.839888 0.020297
O O5 0.018210 0.160438 0.397207
O O6 0.864085 0.003053 0.424991
O O7 0.927209 0.956345 0.211738
O O8 0.590740 0.693838 0.560417
O O9 0.482122 0.871797 0.543492
O O10 0.583444 0.852578 0.362626
O O11 0.152559 0.539269 0.155322
#
# Coordination Sequence:
#
# PCOD9367913 Si02
#       6
#     8   8   8   8   4   8
#     4  11  25  46  72 111 149 197 251 307 386 452
#     4  12  25  47  74 111 148 195 254 312 388 445
#     4  11  26  47  72 110 147 198 256 313 387 445
#     4  11  25  48  75 107 154 198 253 320 375 461
#     4  12  26  46  76 104 152 196 252 318 378 452
#     4  11  26  46  73 111 147 199 260 309 383 459
#
# _framework density 23.882262999999998
#
# number of rings (size 3 to 8) (size 9 to 14) (size 15 to 20)
#    0.000    0.727    3.636    2.182    5.091    2.909 
#    3.273    0.000    0.000    0.000    0.000    0.000 
#    0.000    0.000    0.000    0.000    0.000    0.000 
#
# Total GULP energy -122921.372049 kJ/mol
# GULP energy per Si atom -5587.335093 kJ/mol
# Density = 2.382791 g / cm^3
# Si number density = 23.882263 Si / 1000 Ang^3
#
#
#
# Elastic Constant Matrix: (Units=GPa)
#
#
# Indices 1 2 3 4 5 6 
#
# 1 117.5302 44.9830 46.9201 0.0000 0.0000 0.0000
# 2 44.9830 120.1591 43.9140 0.0000 0.0000 0.0000
# 3 46.9201 43.9140 85.7859 0.0000 0.0000 0.0000
# 4 0.0000 0.0000 0.0000 152.8207 0.0000 0.0000
# 5 0.0000 0.0000 0.0000 0.0000 8.1190 0.0000
# 6 0.0000 0.0000 0.0000 0.0000 0.0000 59.3396
#
#
#
# Elastic Compliance Matrix: (Units=1/GPa)
#
#
# Indices 1 2 3 4 5 6 
#
# 1 0.011446 -0.002457 -0.005003 0.000000 0.000000 0.000000
# 2 -0.002457 0.010765 -0.004167 0.000000 0.000000 0.000000
# 3 -0.005003 -0.004167 0.016526 0.000000 0.000000 0.000000
# 4 0.000000 0.000000 0.000000 0.006544 0.000000 0.000000
# 5 0.000000 0.000000 0.000000 0.000000 0.123167 0.000000
# 6 0.000000 0.000000 0.000000 0.000000 0.000000 0.016852
#
#
# Mechanical properties :
#
#
# Convention : Reuss Voigt Hill
#
# Bulk Modulus (GPa) = 64.58102 66.12327 65.35214
# Shear Modulus (GPa) = 23.39576 56.56642 39.98109
#
# Velocity S-wave (km/s) = 3.13330 4.87206 4.09600
# Velocity P-wave (km/s) = 6.33957 7.70692 7.05644
#
# Compressibility (1/GPa) = 0.01548443
#
# Stress axis : x y z
#
# Youngs Moduli (GPa) = 87.36797 92.89533 60.51002
#
# Poissons Ratio (x) = 0.22820 0.30271
# Poissons Ratio (y) = 0.21462 0.25214
# Poissons Ratio (z) = 0.43708 0.38709
#
# Static dielectric constant tensor:
#      x y z
#    x 1.928600 0.000000 0.000000 
#    y 0.000000 1.848730 0.000000 
#    z 0.000000 0.000000 1.937270 
# 
# From -- ./inp_files/6377.got.cif
#   From: 2010.05.17/outbox.cif.g08.bks.cpg/sg41_4_cif.got.tgz:6377.got - 2010.06.03 18:54:24.
