data_PCOD9367603
_publ_section_title
;
Structure prediction by ZEFSAII (Michael W. Deem and Ramdas Pophale) SiO2 
 PCOD9367603
Probable space group: A B A 2
;
_chemical_formula_sum "Si O2"
_cell_formula_units_Z 48
_cell_length_a 23.333801
_cell_length_b 10.722946
_cell_length_c 7.807347
_cell_angle_alpha 90.000000
_cell_angle_beta 90.000000
_cell_angle_gamma 90.000000
_cell_volume 1953.453559
_symmetry_space_group_name_H-M "A B A 2"
_symmetry_group_IT_number 41
_symmetry_cell_setting 'orthorhombic'
loop_
_space_group_symop_operation_xyz
x,y,z
-x,-y,z
1/2-x,y,1/2+z
1/2+x,-y,1/2+z
x,1/2+y,1/2+z
-x,1/2-y,1/2+z
1/2-x,1/2+y,z
1/2+x,1/2-y,z
loop_
_atom_site_type_symbol
_atom_site_label
_atom_site_fract_x
_atom_site_fract_y
_atom_site_fract_z
Si Si1 0.690786 0.884195 0.925510
Si Si2 0.344745 0.475014 0.109031
Si Si3 0.633902 0.353967 0.798775
Si Si4 0.719961 0.658961 0.366017
Si Si5 0.537177 0.120493 0.519806
Si Si6 0.005185 0.131021 0.672240
O O1 0.732179 0.767174 0.880635
O O2 0.653628 0.916453 0.754950
O O3 0.720757 0.020323 0.946571
O O4 0.659061 0.863309 0.105662
O O5 0.293204 0.385864 0.170328
O O6 0.402601 0.394163 0.112122
O O7 0.344813 0.533508 0.920693
O O8 0.660492 0.234454 0.898470
O O9 0.565819 0.361862 0.774213
O O10 0.543736 0.126647 0.315335
O O11 0.504414 0.245713 0.565230
O O12 0.500000 0.000000 0.563073
O O13 0.000000 0.000000 0.574234
#
# Coordination Sequence:
#
# PCOD9367603 Si02
#       6
#     8   8   8   8   8   8
#     4  10  27  51  78 113 156 206 261 322 397 461
#     4  10  24  53  77 111 158 201 263 325 388 471
#     4  12  24  50  77 112 158 206 261 325 389 471
#     4  10  26  52  72 116 155 200 268 319 384 476
#     4  11  23  48  73 111 158 197 255 323 385 475
#     4  11  24  44  76 113 150 201 256 316 389 470
#
# _framework density 24.571867999999998
#
# number of rings (size 3 to 8) (size 9 to 14) (size 15 to 20)
#    1.000    0.333    5.000    0.000    2.333    7.333 
#    6.000    0.000    0.000    0.000    0.000    0.000 
#    0.000    0.000    0.000    0.000    0.000    0.000 
#
# Total GULP energy -133774.607642 kJ/mol
# GULP energy per Si atom -5573.941985 kJ/mol
# Density = 2.451594 g / cm^3
# Si number density = 24.571868 Si / 1000 Ang^3
#
#
#
# Elastic Constant Matrix: (Units=GPa)
#
#
# Indices 1 2 3 4 5 6 
#
# 1 44.9675 26.4392 34.7966 0.0000 0.0000 0.0000
# 2 26.4392 196.9260 51.6178 0.0000 0.0000 0.0000
# 3 34.7966 51.6178 107.9306 0.0000 0.0000 0.0000
# 4 0.0000 0.0000 0.0000 41.1129 0.0000 0.0000
# 5 0.0000 0.0000 0.0000 0.0000 26.0617 0.0000
# 6 0.0000 0.0000 0.0000 0.0000 0.0000 36.3193
#
#
#
# Elastic Compliance Matrix: (Units=1/GPa)
#
#
# Indices 1 2 3 4 5 6 
#
# 1 0.030128 -0.001714 -0.008894 0.000000 0.000000 0.000000
# 2 -0.001714 0.005903 -0.002271 0.000000 0.000000 0.000000
# 3 -0.008894 -0.002271 0.013218 0.000000 0.000000 0.000000
# 4 0.000000 0.000000 0.000000 0.024323 0.000000 0.000000
# 5 0.000000 0.000000 0.000000 0.000000 0.038371 0.000000
# 6 0.000000 0.000000 0.000000 0.000000 0.000000 0.027534
#
#
# Mechanical properties :
#
#
# Convention : Reuss Voigt Hill
#
# Bulk Modulus (GPa) = 42.56492 63.94791 53.25642
# Shear Modulus (GPa) = 28.89094 36.49679 32.69387
#
# Velocity S-wave (km/s) = 3.43267 3.85815 3.65161
# Velocity P-wave (km/s) = 5.75076 6.77705 6.28489
#
# Compressibility (1/GPa) = 0.02349352
#
# Stress axis : x y z
#
# Youngs Moduli (GPa) = 33.19177 169.39545 75.65170
#
# Poissons Ratio (x) = 0.29031 0.67281
# Poissons Ratio (y) = 0.05688 0.17179
# Poissons Ratio (z) = 0.29519 0.38465
#
# Static dielectric constant tensor:
#      x y z
#    x 2.062720 0.000000 0.000000 
#    y 0.000000 2.049020 0.000000 
#    z 0.000000 0.000000 1.994410 
# 
# From -- ./inp_files/3622.got.cif
#   From: 2010.05.17/outbox.cif.g08.bks.cpg/sg41_2_cif.got.tgz:3622.got - 2010.06.03 18:54:24.
