data_PCOD9367565
_publ_section_title
;
Structure prediction by ZEFSAII (Michael W. Deem and Ramdas Pophale) SiO2 
 PCOD9367565
Probable space group: A B A 2
;
_chemical_formula_sum "Si O2"
_cell_formula_units_Z 28
_cell_length_a 4.839741
_cell_length_b 24.582016
_cell_length_c 8.056275
_cell_angle_alpha 90.000000
_cell_angle_beta 90.000000
_cell_angle_gamma 90.000000
_cell_volume 958.459796
_symmetry_space_group_name_H-M "A B A 2"
_symmetry_group_IT_number 41
_symmetry_cell_setting 'orthorhombic'
loop_
_space_group_symop_operation_xyz
x,y,z
-x,-y,z
1/2-x,y,1/2+z
1/2+x,-y,1/2+z
x,1/2+y,1/2+z
-x,1/2-y,1/2+z
1/2-x,1/2+y,z
1/2+x,1/2-y,z
loop_
_atom_site_type_symbol
_atom_site_label
_atom_site_fract_x
_atom_site_fract_y
_atom_site_fract_z
Si Si1 0.626362 0.574652 0.777800
Si Si2 0.000000 0.500000 0.564402
Si Si3 0.415201 0.141010 0.980594
Si Si4 0.509294 0.212258 0.286896
O O1 0.777431 0.524301 0.689049
O O2 0.435980 0.597201 0.630459
O O3 0.467288 0.550516 0.936019
O O4 0.870848 0.616118 0.843203
O O5 0.502528 0.191410 0.098668
O O6 0.133675 0.164932 0.899416
O O7 0.813139 0.235552 0.308007
#
# Coordination Sequence:
#
# PCOD9367565 Si02
#       4
#     8   4   8   8
#     4  10  25  47  76 116 164 218 272 335 403 490
#     4  10  24  46  70 108 160 212 266 330 404 474
#     4  11  26  47  77 115 158 212 273 334 408 485
#     4  12  27  49  76 110 152 200 258 331 401 472
#
# _framework density 29.213539000000001
#
# number of rings (size 3 to 8) (size 9 to 14) (size 15 to 20)
#    0.000    1.143    0.000    3.429    0.000   20.571 
#    0.000    0.000    0.000    0.000    0.000    0.000 
#    0.000    0.000    0.000    0.000    0.000    0.000 
#
# Total GULP energy -78339.694991 kJ/mol
# GULP energy per Si atom -5595.692499 kJ/mol
# Density = 2.914705 g / cm^3
# Si number density = 29.213539 Si / 1000 Ang^3
#
#
#
# Elastic Constant Matrix: (Units=GPa)
#
#
# Indices 1 2 3 4 5 6 
#
# 1 96.3423 59.7421 93.6300 0.0000 0.0000 0.0000
# 2 59.7421 179.9255 81.8139 0.0000 0.0000 0.0000
# 3 93.6300 81.8139 216.3617 0.0000 0.0000 0.0000
# 4 0.0000 0.0000 0.0000 96.9728 0.0000 0.0000
# 5 0.0000 0.0000 0.0000 0.0000 39.7990 0.0000
# 6 0.0000 0.0000 0.0000 0.0000 0.0000 61.5418
#
#
#
# Elastic Compliance Matrix: (Units=1/GPa)
#
#
# Indices 1 2 3 4 5 6 
#
# 1 0.019287 -0.003151 -0.007155 0.000000 0.000000 0.000000
# 2 -0.003151 0.007227 -0.001369 0.000000 0.000000 0.000000
# 3 -0.007155 -0.001369 0.008236 0.000000 0.000000 0.000000
# 4 0.000000 0.000000 0.000000 0.010312 0.000000 0.000000
# 5 0.000000 0.000000 0.000000 0.000000 0.025126 0.000000
# 6 0.000000 0.000000 0.000000 0.000000 0.000000 0.016249
#
#
# Mechanical properties :
#
#
# Convention : Reuss Voigt Hill
#
# Bulk Modulus (GPa) = 87.72049 107.00019 97.36034
# Shear Modulus (GPa) = 44.01932 56.82562 50.42247
#
# Velocity S-wave (km/s) = 3.88598 4.41521 4.15902
# Velocity P-wave (km/s) = 7.08710 7.91824 7.51417
#
# Compressibility (1/GPa) = 0.01139985
#
# Stress axis : x y z
#
# Youngs Moduli (GPa) = 51.84864 138.37864 121.41851
#
# Poissons Ratio (x) = 0.43596 0.86876
# Poissons Ratio (y) = 0.16335 0.16625
# Poissons Ratio (z) = 0.37098 0.18947
#
# Static dielectric constant tensor:
#      x y z
#    x 2.263350 0.000000 0.000000 
#    y 0.000000 2.488630 0.000000 
#    z 0.000000 0.000000 2.129460 
# 
# From -- ./inp_files/1486.got.cif
#   From: 2010.05.17/outbox.cif.g08.bks.cpg/sg41_1_cif.got.tgz:1486.got - 2010.06.03 18:54:24.
