data_PCOD9367389
_publ_section_title
;
Structure prediction by ZEFSAII (Michael W. Deem and Ramdas Pophale) SiO2 
 PCOD9367389
Probable space group: A B A 2
;
_chemical_formula_sum "Si O2"
_cell_formula_units_Z 36
_cell_length_a 7.774661
_cell_length_b 14.293043
_cell_length_c 14.894883
_cell_angle_alpha 90.000000
_cell_angle_beta 90.000000
_cell_angle_gamma 90.000000
_cell_volume 1655.172484
_symmetry_space_group_name_H-M "A B A 2"
_symmetry_group_IT_number 41
_symmetry_cell_setting 'orthorhombic'
loop_
_space_group_symop_operation_xyz
x,y,z
-x,-y,z
1/2-x,y,1/2+z
1/2+x,-y,1/2+z
x,1/2+y,1/2+z
-x,1/2-y,1/2+z
1/2-x,1/2+y,z
1/2+x,1/2-y,z
loop_
_atom_site_type_symbol
_atom_site_label
_atom_site_fract_x
_atom_site_fract_y
_atom_site_fract_z
Si Si1 0.074651 0.340673 0.102620
Si Si2 0.196143 0.975470 0.751665
Si Si3 0.340086 0.928892 0.927775
Si Si4 0.178787 0.639131 0.649135
Si Si5 0.000000 0.000000 0.020665
O O1 0.172044 0.422881 0.156721
O O2 0.117904 0.245296 0.154183
O O3 0.871740 0.358477 0.109463
O O4 0.126675 0.344986 0.998017
O O5 0.294723 0.911964 0.823811
O O6 0.299137 0.072086 0.735518
O O7 0.000000 0.000000 0.779014
O O8 0.500000 0.000000 0.935064
O O9 0.168096 0.978714 0.963283
O O10 0.048762 0.587343 0.582904
#
# Coordination Sequence:
#
# PCOD9367389 Si02
#       5
#     8   8   8   8   4
#     4  11  23  46  66 105 138 180 235 286 339 422
#     4  10  23  44  68 100 140 182 230 284 348 414
#     4  12  23  42  70 100 137 181 231 280 347 410
#     4  11  24  44  73  98 141 182 230 287 350 410
#     4  12  22  44  70  96 130 190 212 290 334 414
#
# _framework density 21.749998999999999
#
# number of rings (size 3 to 8) (size 9 to 14) (size 15 to 20)
#    0.000    0.889    5.556    2.000    1.556    0.000 
#    4.000    2.222    0.000    0.000    0.000    0.000 
#    0.000    0.000    0.000    0.000    0.000    0.000 
#
# Total GULP energy -100561.082387 kJ/mol
# GULP energy per Si atom -5586.726799 kJ/mol
# Density = 2.170050 g / cm^3
# Si number density = 21.749999 Si / 1000 Ang^3
#
#
#
# Elastic Constant Matrix: (Units=GPa)
#
#
# Indices 1 2 3 4 5 6 
#
# 1 133.6510 13.3008 30.7617 0.0000 0.0000 0.0000
# 2 13.3008 93.2927 14.9342 0.0000 0.0000 0.0000
# 3 30.7617 14.9342 87.5776 0.0000 0.0000 0.0000
# 4 0.0000 0.0000 0.0000 5.6947 0.0000 0.0000
# 5 0.0000 0.0000 0.0000 0.0000 10.2958 0.0000
# 6 0.0000 0.0000 0.0000 0.0000 0.0000 33.4125
#
#
#
# Elastic Compliance Matrix: (Units=1/GPa)
#
#
# Indices 1 2 3 4 5 6 
#
# 1 0.008188 -0.000727 -0.002752 0.000000 0.000000 0.000000
# 2 -0.000727 0.011084 -0.001635 0.000000 0.000000 0.000000
# 3 -0.002752 -0.001635 0.012664 0.000000 0.000000 0.000000
# 4 0.000000 0.000000 0.000000 0.175603 0.000000 0.000000
# 5 0.000000 0.000000 0.000000 0.000000 0.097127 0.000000
# 6 0.000000 0.000000 0.000000 0.000000 0.000000 0.029929
#
#
# Mechanical properties :
#
#
# Convention : Reuss Voigt Hill
#
# Bulk Modulus (GPa) = 46.06465 48.05718 47.06091
# Shear Modulus (GPa) = 14.20217 26.91557 20.55887
#
# Velocity S-wave (km/s) = 2.55811 3.52162 3.07780
# Velocity P-wave (km/s) = 5.47269 6.21924 5.85787
#
# Compressibility (1/GPa) = 0.02170862
#
# Stress axis : x y z
#
# Youngs Moduli (GPa) = 122.13094 90.21786 78.96461
#
# Poissons Ratio (x) = 0.06557 0.21732
# Poissons Ratio (y) = 0.08877 0.12910
# Poissons Ratio (z) = 0.33611 0.14749
#
# Static dielectric constant tensor:
#      x y z
#    x 1.796150 0.000000 0.000000 
#    y 0.000000 1.775000 0.000000 
#    z 0.000000 0.000000 1.827860 
# 
# From -- ./inp_files/7145.got.cif
#   From: 2010.05.17/outbox.cif.g08.bks.cpg/sg41_4_cif.got.tgz:7145.got - 2010.06.03 18:54:24.
