data_PCOD9367824
_publ_section_title
;
Structure prediction by ZEFSAII (Michael W. Deem and Ramdas Pophale) SiO2 
 PCOD9367824
Probable space group: A B A 2
;
_chemical_formula_sum "Si O2"
_cell_formula_units_Z 56
_cell_length_a 13.918187
_cell_length_b 15.594007
_cell_length_c 10.226589
_cell_angle_alpha 90.000000
_cell_angle_beta 90.000000
_cell_angle_gamma 90.000000
_cell_volume 2219.582001
_symmetry_space_group_name_H-M "A B A 2"
_symmetry_group_IT_number 41
_symmetry_cell_setting 'orthorhombic'
loop_
_space_group_symop_operation_xyz
x,y,z
-x,-y,z
1/2-x,y,1/2+z
1/2+x,-y,1/2+z
x,1/2+y,1/2+z
-x,1/2-y,1/2+z
1/2-x,1/2+y,z
1/2+x,1/2-y,z
loop_
_atom_site_type_symbol
_atom_site_label
_atom_site_fract_x
_atom_site_fract_y
_atom_site_fract_z
Si Si1 0.529635 0.195877 0.871820
Si Si2 0.188522 0.220968 0.017556
Si Si3 0.000000 0.000000 0.561184
Si Si4 0.500000 0.000000 0.486959
Si Si5 0.339762 0.593993 0.411128
Si Si6 0.141155 0.450293 0.715128
Si Si7 0.998130 0.135648 0.779479
Si Si8 0.212575 0.314007 0.279082
O O1 0.577830 0.247554 0.993685
O O2 0.419303 0.169531 0.896154
O O3 0.573552 0.108396 0.811728
O O4 0.545646 0.271725 0.765725
O O5 0.243697 0.133344 0.974793
O O6 0.233502 0.285368 0.909370
O O7 0.209070 0.240389 0.168641
O O8 0.988167 0.083626 0.648212
O O9 0.100770 0.023058 0.493257
O O10 0.418185 0.965038 0.583598
O O11 0.540657 0.927052 0.389646
O O12 0.329055 0.541790 0.276322
O O13 0.234560 0.392046 0.706463
O O14 0.890640 0.154721 0.822659
#
# Coordination Sequence:
#
# PCOD9367824 Si02
#       8
#     8   8   4   4   8   8   8   8
#     4  11  23  47  72 106 142 198 256 309 383 466
#     4  11  27  44  76 108 148 197 261 313 395 466
#     4  11  25  42  68 104 141 193 242 314 376 447
#     4  11  23  46  70 116 139 211 248 320 386 467
#     4  12  23  48  73 106 147 199 250 319 387 465
#     4  11  24  44  75 105 149 194 257 319 391 459
#     4  11  26  44  72 102 155 194 254 311 384 458
#     4  11  25  49  69 113 148 204 250 329 381 474
#
# _framework density 25.229975
#
# number of rings (size 3 to 8) (size 9 to 14) (size 15 to 20)
#    0.000    0.857    4.286    1.714    6.000    4.571 
#    2.571    0.000    0.000    0.000    0.000    0.000 
#    0.000    0.000    0.000    0.000    0.000    0.000 
#
# Total GULP energy -156353.293092 kJ/mol
# GULP energy per Si atom -5584.046182 kJ/mol
# Density = 2.517255 g / cm^3
# Si number density = 25.229975 Si / 1000 Ang^3
#
#
#
# Elastic Constant Matrix: (Units=GPa)
#
#
# Indices 1 2 3 4 5 6 
#
# 1 73.2549 33.5859 9.2648 0.0000 0.0000 0.0000
# 2 33.5859 151.6055 32.7903 0.0000 0.0000 0.0000
# 3 9.2648 32.7903 73.9628 0.0000 0.0000 0.0000
# 4 0.0000 0.0000 0.0000 32.7713 0.0000 0.0000
# 5 0.0000 0.0000 0.0000 0.0000 21.0558 0.0000
# 6 0.0000 0.0000 0.0000 0.0000 0.0000 50.6803
#
#
#
# Elastic Compliance Matrix: (Units=1/GPa)
#
#
# Indices 1 2 3 4 5 6 
#
# 1 0.015208 -0.003271 -0.000455 0.000000 0.000000 0.000000
# 2 -0.003271 0.007999 -0.003137 0.000000 0.000000 0.000000
# 3 -0.000455 -0.003137 0.014968 0.000000 0.000000 0.000000
# 4 0.000000 0.000000 0.000000 0.030514 0.000000 0.000000
# 5 0.000000 0.000000 0.000000 0.000000 0.047493 0.000000
# 6 0.000000 0.000000 0.000000 0.000000 0.000000 0.019732
#
#
# Mechanical properties :
#
#
# Convention : Reuss Voigt Hill
#
# Bulk Modulus (GPa) = 40.89904 50.01169 45.45536
# Shear Modulus (GPa) = 31.68801 35.78031 33.73416
#
# Velocity S-wave (km/s) = 3.54781 3.76994 3.66056
# Velocity P-wave (km/s) = 5.74702 6.23019 5.99348
#
# Compressibility (1/GPa) = 0.02445045
#
# Stress axis : x y z
#
# Youngs Moduli (GPa) = 65.75454 125.01498 66.80985
#
# Poissons Ratio (x) = 0.40889 0.03040
# Poissons Ratio (y) = 0.21506 0.20955
# Poissons Ratio (z) = 0.02992 0.39212
#
# Static dielectric constant tensor:
#      x y z
#    x 2.112260 0.000000 0.000000 
#    y 0.000000 2.026110 0.000000 
#    z 0.000000 0.000000 2.016660 
# 
# From -- ./inp_files/5639.got.cif
#   From: 2010.05.17/outbox.cif.g08.bks.cpg/sg41_3_cif.got.tgz:5639.got - 2010.06.03 18:54:24.
