data_PCOD9367862
_publ_section_title
;
Structure prediction by ZEFSAII (Michael W. Deem and Ramdas Pophale) SiO2 
 PCOD9367862
Probable space group: A B A 2
;
_chemical_formula_sum "Si O2"
_cell_formula_units_Z 40
_cell_length_a 9.944785
_cell_length_b 9.029871
_cell_length_c 20.551071
_cell_angle_alpha 90.000000
_cell_angle_beta 90.000000
_cell_angle_gamma 90.000000
_cell_volume 1845.488759
_symmetry_space_group_name_H-M "A B A 2"
_symmetry_group_IT_number 41
_symmetry_cell_setting 'orthorhombic'
loop_
_space_group_symop_operation_xyz
x,y,z
-x,-y,z
1/2-x,y,1/2+z
1/2+x,-y,1/2+z
x,1/2+y,1/2+z
-x,1/2-y,1/2+z
1/2-x,1/2+y,z
1/2+x,1/2-y,z
loop_
_atom_site_type_symbol
_atom_site_label
_atom_site_fract_x
_atom_site_fract_y
_atom_site_fract_z
Si Si1 0.844138 0.551447 0.384350
Si Si2 0.200823 0.179961 0.300713
Si Si3 0.386630 0.611785 0.578046
Si Si4 0.468599 0.174715 0.224141
Si Si5 0.148874 0.436332 0.532431
O O1 0.837800 0.720217 0.362409
O O2 0.742309 0.473999 0.333863
O O3 0.805422 0.525708 0.459010
O O4 0.000000 0.500000 0.378859
O O5 0.336927 0.221522 0.263179
O O6 0.084982 0.215186 0.248334
O O7 0.500000 0.500000 0.551179
O O8 0.439334 0.670932 0.647526
O O9 0.252393 0.512800 0.581894
O O10 0.356230 0.759527 0.538235
O O11 0.500000 0.000000 0.238977
O O12 0.000000 0.500000 0.542359
#
# Coordination Sequence:
#
# PCOD9367862 Si02
#       5
#     8   8   8   8   8
#     4  11  24  45  67 104 142 177 239 298 356 440
#     4  12  21  46  68  97 141 180 225 302 358 425
#     4  11  26  47  69 108 143 188 251 300 366 446
#     4  11  26  44  68 102 144 178 240 297 358 442
#     4  11  25  46  74 101 144 195 243 305 370 433
#
# _framework density 21.674475000000001
#
# number of rings (size 3 to 8) (size 9 to 14) (size 15 to 20)
#    0.000    0.800    4.000    2.400    8.400    2.400 
#    3.600    0.000    0.000    0.000    0.000    0.000 
#    0.000    0.000    0.000    0.000    0.000    0.000 
#
# Total GULP energy -111653.548141 kJ/mol
# GULP energy per Si atom -5582.677407 kJ/mol
# Density = 2.162514 g / cm^3
# Si number density = 21.674475 Si / 1000 Ang^3
#
#
#
# Elastic Constant Matrix: (Units=GPa)
#
#
# Indices 1 2 3 4 5 6 
#
# 1 120.7971 29.5362 37.2123 0.0000 0.0000 0.0000
# 2 29.5362 91.0445 22.4186 0.0000 0.0000 0.0000
# 3 37.2123 22.4186 83.8864 0.0000 0.0000 0.0000
# 4 0.0000 0.0000 0.0000 -44.1075 0.0000 0.0000
# 5 0.0000 0.0000 0.0000 0.0000 -32.1003 0.0000
# 6 0.0000 0.0000 0.0000 0.0000 0.0000 40.7891
#
#
#
# Elastic Compliance Matrix: (Units=1/GPa)
#
#
# Indices 1 2 3 4 5 6 
#
# 1 0.010022 -0.002309 -0.003829 0.000000 0.000000 0.000000
# 2 -0.002309 0.012289 -0.002260 0.000000 0.000000 0.000000
# 3 -0.003829 -0.002260 0.014223 0.000000 0.000000 0.000000
# 4 0.000000 0.000000 0.000000 -0.022672 0.000000 0.000000
# 5 0.000000 0.000000 0.000000 0.000000 -0.031152 0.000000
# 6 0.000000 0.000000 0.000000 0.000000 0.000000 0.024516
#
#
# Mechanical properties :
#
#
# Convention : Reuss Voigt Hill
#
# Bulk Modulus (GPa) = 50.65987 52.67357 51.66672
# Shear Modulus (GPa) = 163.38622 6.68698 85.03660
#
# Velocity S-wave (km/s) = 8.69169 1.75838 6.27046
# Velocity P-wave (km/s) = 11.14231 5.33642 8.73580
#
# Compressibility (1/GPa) = 0.01973949
#
# Stress axis : x y z
#
# Youngs Moduli (GPa) = 99.77687 81.37281 70.30636
#
# Poissons Ratio (x) = 0.18785 0.26920
# Poissons Ratio (y) = 0.23034 0.15890
# Poissons Ratio (z) = 0.38204 0.18392
#
# Static dielectric constant tensor:
#      x y z
#    x 2.217500 0.000000 0.000000 
#    y 0.000000 1.997540 0.000000 
#    z 0.000000 0.000000 1.804650 
# 
# From -- ./inp_files/11915.got.cif
#   From: 2010.05.17/outbox.cif.g08.bks.cpg/sg41_6_cif.got.tgz:11915.got - 2010.06.03 18:54:24.
