data_PCOD9367847
_publ_section_title
;
Structure prediction by ZEFSAII (Michael W. Deem and Ramdas Pophale) SiO2 
 PCOD9367847
Probable space group: A B A 2
;
_chemical_formula_sum "Si O2"
_cell_formula_units_Z 60
_cell_length_a 8.937127
_cell_length_b 17.723780
_cell_length_c 17.033374
_cell_angle_alpha 90.000000
_cell_angle_beta 90.000000
_cell_angle_gamma 90.000000
_cell_volume 2698.080868
_symmetry_space_group_name_H-M "A B A 2"
_symmetry_group_IT_number 41
_symmetry_cell_setting 'orthorhombic'
loop_
_space_group_symop_operation_xyz
x,y,z
-x,-y,z
1/2-x,y,1/2+z
1/2+x,-y,1/2+z
x,1/2+y,1/2+z
-x,1/2-y,1/2+z
1/2-x,1/2+y,z
1/2+x,1/2-y,z
loop_
_atom_site_type_symbol
_atom_site_label
_atom_site_fract_x
_atom_site_fract_y
_atom_site_fract_z
Si Si1 0.500000 0.500000 0.373690
Si Si2 0.207189 0.798615 0.992625
Si Si3 0.757715 0.027141 0.746319
Si Si4 0.285252 0.112485 0.142422
Si Si5 0.404147 0.845863 0.335961
Si Si6 0.044285 0.644726 0.986886
Si Si7 0.553421 0.636482 0.146085
Si Si8 0.146461 0.244473 0.759743
O O1 0.641825 0.508664 0.316219
O O2 0.476109 0.576051 0.425405
O O3 0.160268 0.713210 0.969289
O O4 0.383765 0.814307 0.996384
O O5 0.133012 0.820349 0.075087
O O6 0.137814 0.853077 0.926353
O O7 0.882570 0.079252 0.785665
O O8 0.663075 0.072861 0.680429
O O9 0.815643 0.953962 0.703014
O O10 0.394171 0.110667 0.068283
O O11 0.306773 0.190201 0.189139
O O12 0.109446 0.108313 0.120702
O O13 0.561087 0.805806 0.322904
O O14 0.279929 0.789876 0.298928
O O15 0.538435 0.693517 0.219849
#
# Coordination Sequence:
#
# PCOD9367847 Si02
#       8
#     4   8   8   8   8   8   8   8
#     4  12  26  54  72 110 156 202 244 314 394 452
#     4  12  26  47  73 111 145 193 245 315 372 450
#     4  11  26  47  76 101 150 195 249 305 378 449
#     4  12  25  45  74 107 140 200 241 307 374 446
#     4  11  25  45  72 108 140 191 240 310 363 446
#     4  12  29  45  80 108 153 196 251 310 384 452
#     4  11  24  47  71 105 147 189 248 303 369 441
#     4  11  24  42  73 103 141 183 252 296 364 436
#
# _framework density 22.238029000000001
#
# number of rings (size 3 to 8) (size 9 to 14) (size 15 to 20)
#    0.000    0.533    5.333    1.600    9.333    0.533 
#    0.000    0.000    0.000    0.000    0.000    0.000 
#    0.000    0.000    0.000    0.000    0.000    0.000 
#
# Total GULP energy -167921.622209 kJ/mol
# GULP energy per Si atom -5597.387407 kJ/mol
# Density = 2.218741 g / cm^3
# Si number density = 22.238029 Si / 1000 Ang^3
#
#
#
# Elastic Constant Matrix: (Units=GPa)
#
#
# Indices 1 2 3 4 5 6 
#
# 1 66.8564 38.7827 31.6475 0.0000 0.0000 0.0000
# 2 38.7827 118.9654 40.6584 0.0000 0.0000 0.0000
# 3 31.6475 40.6584 108.4213 0.0000 0.0000 0.0000
# 4 0.0000 0.0000 0.0000 34.5855 0.0000 0.0000
# 5 0.0000 0.0000 0.0000 0.0000 28.5633 0.0000
# 6 0.0000 0.0000 0.0000 0.0000 0.0000 16.8000
#
#
#
# Elastic Compliance Matrix: (Units=1/GPa)
#
#
# Indices 1 2 3 4 5 6 
#
# 1 0.019749 -0.005125 -0.003843 0.000000 0.000000 0.000000
# 2 -0.005125 0.010971 -0.002618 0.000000 0.000000 0.000000
# 3 -0.003843 -0.002618 0.011327 0.000000 0.000000 0.000000
# 4 0.000000 0.000000 0.000000 0.028914 0.000000 0.000000
# 5 0.000000 0.000000 0.000000 0.000000 0.035010 0.000000
# 6 0.000000 0.000000 0.000000 0.000000 0.000000 0.059524
#
#
# Mechanical properties :
#
#
# Convention : Reuss Voigt Hill
#
# Bulk Modulus (GPa) = 52.97913 57.38002 55.17958
# Shear Modulus (GPa) = 25.64636 28.20006 26.92321
#
# Velocity S-wave (km/s) = 3.39966 3.56490 3.48326
# Velocity P-wave (km/s) = 6.26783 6.54243 6.40660
#
# Compressibility (1/GPa) = 0.01887536
#
# Stress axis : x y z
#
# Youngs Moduli (GPa) = 50.63433 91.14594 88.28549
#
# Poissons Ratio (x) = 0.46712 0.33927
# Poissons Ratio (y) = 0.25950 0.23116
# Poissons Ratio (z) = 0.19458 0.23865
#
# Static dielectric constant tensor:
#      x y z
#    x 1.812740 0.000000 0.000000 
#    y 0.000000 1.842690 0.000000 
#    z 0.000000 0.000000 1.788440 
# 
# From -- ./inp_files/9781.got.cif
#   From: 2010.05.17/outbox.cif.g08.bks.cpg/sg41_5_cif.got.tgz:9781.got - 2010.06.03 18:54:24.
