data_PCOD9367371
_publ_section_title
;
Structure prediction by ZEFSAII (Michael W. Deem and Ramdas Pophale) SiO2 
 PCOD9367371
Probable space group: A B A 2
;
_chemical_formula_sum "Si O2"
_cell_formula_units_Z 56
_cell_length_a 15.246388
_cell_length_b 8.656793
_cell_length_c 18.897621
_cell_angle_alpha 90.000000
_cell_angle_beta 90.000000
_cell_angle_gamma 90.000000
_cell_volume 2494.199199
_symmetry_space_group_name_H-M "A B A 2"
_symmetry_group_IT_number 41
_symmetry_cell_setting 'orthorhombic'
loop_
_space_group_symop_operation_xyz
x,y,z
-x,-y,z
1/2-x,y,1/2+z
1/2+x,-y,1/2+z
x,1/2+y,1/2+z
-x,1/2-y,1/2+z
1/2-x,1/2+y,z
1/2+x,1/2-y,z
loop_
_atom_site_type_symbol
_atom_site_label
_atom_site_fract_x
_atom_site_fract_y
_atom_site_fract_z
Si Si1 0.366800 0.818965 0.479280
Si Si2 0.741433 0.959957 0.237523
Si Si3 0.024090 0.826697 0.407896
Si Si4 0.153944 0.785538 0.645868
Si Si5 0.312581 0.676144 0.987784
Si Si6 0.963721 0.674532 0.624320
Si Si7 0.873779 0.197790 0.273680
O O1 0.445050 0.788206 0.425054
O O2 0.284028 0.713741 0.460121
O O3 0.409753 0.776914 0.555374
O O4 0.335805 0.995768 0.484526
O O5 0.808428 0.841085 0.200625
O O6 0.669288 0.865245 0.280501
O O7 0.692799 0.055608 0.175619
O O8 0.797354 0.073723 0.286185
O O9 0.111392 0.767751 0.446908
O O10 0.046108 0.827610 0.325213
O O11 0.000000 0.000000 0.431273
O O12 0.187164 0.738240 0.568409
O O13 0.048915 0.777905 0.640352
O O14 0.902105 0.676494 0.692488
O O15 0.000000 0.500000 0.612126
#
# Coordination Sequence:
#
# PCOD9367371 Si02
#       7
#     8   8   8   8   8   8   8
#     4  12  25  48  75 105 145 189 245 299 368 434
#     4  10  23  43  70 106 135 180 237 290 359 432
#     4  12  28  48  70 104 142 194 247 299 367 436
#     4  11  21  42  73 107 138 180 231 293 361 423
#     4  12  24  46  74 104 146 191 234 304 362 434
#     4  12  21  42  72 104 144 182 230 303 354 415
#     4  11  25  46  69 101 141 185 234 298 358 425
#
# _framework density 22.452096000000001
#
# number of rings (size 3 to 8) (size 9 to 14) (size 15 to 20)
#    0.000    0.571    4.286    4.286    0.000    4.000 
#    7.714    0.000    0.000    0.000    0.000    0.000 
#    0.000    0.000    0.000    0.000    0.000    0.000 
#
# Total GULP energy -156869.668909 kJ/mol
# GULP energy per Si atom -5602.488175 kJ/mol
# Density = 2.240099 g / cm^3
# Si number density = 22.452096 Si / 1000 Ang^3
#
#
#
# Elastic Constant Matrix: (Units=GPa)
#
#
# Indices 1 2 3 4 5 6 
#
# 1 151.4649 48.1037 22.0158 0.0000 0.0000 0.0000
# 2 48.1037 89.7619 28.7251 0.0000 0.0000 0.0000
# 3 22.0158 28.7251 44.3891 0.0000 0.0000 0.0000
# 4 0.0000 0.0000 0.0000 11.9291 0.0000 0.0000
# 5 0.0000 0.0000 0.0000 0.0000 14.9042 0.0000
# 6 0.0000 0.0000 0.0000 0.0000 0.0000 25.2047
#
#
#
# Elastic Compliance Matrix: (Units=1/GPa)
#
#
# Indices 1 2 3 4 5 6 
#
# 1 0.008036 -0.003823 -0.001512 0.000000 0.000000 0.000000
# 2 -0.003823 0.015869 -0.008373 0.000000 0.000000 0.000000
# 3 -0.001512 -0.008373 0.028696 0.000000 0.000000 0.000000
# 4 0.000000 0.000000 0.000000 0.083829 0.000000 0.000000
# 5 0.000000 0.000000 0.000000 0.000000 0.067095 0.000000
# 6 0.000000 0.000000 0.000000 0.000000 0.000000 0.039675
#
#
# Mechanical properties :
#
#
# Convention : Reuss Voigt Hill
#
# Bulk Modulus (GPa) = 39.70499 53.70056 46.70278
# Shear Modulus (GPa) = 17.92049 22.85901 20.38975
#
# Velocity S-wave (km/s) = 2.82825 3.19427 3.01681
# Velocity P-wave (km/s) = 5.32804 6.12978 5.74292
#
# Compressibility (1/GPa) = 0.02518575
#
# Stress axis : x y z
#
# Youngs Moduli (GPa) = 124.44009 63.01741 34.84782
#
# Poissons Ratio (x) = 0.24090 0.05269
# Poissons Ratio (y) = 0.47569 0.29178
# Poissons Ratio (z) = 0.18814 0.52764
#
# Static dielectric constant tensor:
#      x y z
#    x 1.818480 0.000000 0.000000 
#    y 0.000000 1.827060 0.000000 
#    z 0.000000 0.000000 1.824940 
# 
# From -- ./inp_files/11548.got.cif
#   From: 2010.05.17/outbox.cif.g08.bks.cpg/sg41_6_cif.got.tgz:11548.got - 2010.06.03 18:54:24.
