data_PCOD9367781
_publ_section_title
;
Structure prediction by ZEFSAII (Michael W. Deem and Ramdas Pophale) SiO2 
 PCOD9367781
Probable space group: A B A 2
;
_chemical_formula_sum "Si O2"
_cell_formula_units_Z 40
_cell_length_a 17.855021
_cell_length_b 11.395889
_cell_length_c 8.204040
_cell_angle_alpha 90.000000
_cell_angle_beta 90.000000
_cell_angle_gamma 90.000000
_cell_volume 1669.307501
_symmetry_space_group_name_H-M "A B A 2"
_symmetry_group_IT_number 41
_symmetry_cell_setting 'orthorhombic'
loop_
_space_group_symop_operation_xyz
x,y,z
-x,-y,z
1/2-x,y,1/2+z
1/2+x,-y,1/2+z
x,1/2+y,1/2+z
-x,1/2-y,1/2+z
1/2-x,1/2+y,z
1/2+x,1/2-y,z
loop_
_atom_site_type_symbol
_atom_site_label
_atom_site_fract_x
_atom_site_fract_y
_atom_site_fract_z
Si Si1 0.595411 0.186236 0.358900
Si Si2 0.981762 0.372613 0.094509
Si Si3 0.413012 0.958985 0.670871
Si Si4 0.355376 0.208915 0.299751
Si Si5 0.197464 0.172641 0.167995
O O1 0.550418 0.285062 0.460762
O O2 0.554350 0.172478 0.187148
O O3 0.597485 0.078032 0.481353
O O4 0.675890 0.229784 0.302390
O O5 0.922026 0.375874 0.241707
O O6 0.000000 0.500000 0.028494
O O7 0.388828 0.839442 0.764904
O O8 0.500000 0.000000 0.685595
O O9 0.352626 0.058952 0.714400
O O10 0.286547 0.169680 0.184140
O O11 0.328490 0.198988 0.484396
#
# Coordination Sequence:
#
# PCOD9367781 Si02
#       5
#     8   8   8   8   8
#     4  11  24  42  68 101 134 176 232 280 336 418
#     4  11  23  41  66  97 133 175 222 277 337 400
#     4  11  25  47  73 104 141 182 230 289 350 414
#     4  11  25  45  71 105 140 183 238 284 348 426
#     4  12  26  47  70  99 144 184 227 294 350 408
#
# _framework density 23.962033999999999
#
# number of rings (size 3 to 8) (size 9 to 14) (size 15 to 20)
#    0.000    0.800    0.000    9.000    0.000   10.400 
#    0.000    3.000    0.000    0.000    0.000    0.000 
#    0.000    0.000    0.000    0.000    0.000    0.000 
#
# Total GULP energy -111905.603981 kJ/mol
# GULP energy per Si atom -5595.280199 kJ/mol
# Density = 2.390750 g / cm^3
# Si number density = 23.962034 Si / 1000 Ang^3
#
#
#
# Elastic Constant Matrix: (Units=GPa)
#
#
# Indices 1 2 3 4 5 6 
#
# 1 95.7044 26.2786 -25.8967 0.0000 0.0000 0.0000
# 2 26.2786 85.2595 17.1764 0.0000 0.0000 0.0000
# 3 -25.8967 17.1764 82.1084 0.0000 0.0000 0.0000
# 4 0.0000 0.0000 0.0000 -5.1052 0.0000 0.0000
# 5 0.0000 0.0000 0.0000 0.0000 41.5809 0.0000
# 6 0.0000 0.0000 0.0000 0.0000 0.0000 27.9455
#
#
#
# Elastic Compliance Matrix: (Units=1/GPa)
#
#
# Indices 1 2 3 4 5 6 
#
# 1 0.013292 -0.005159 0.005271 0.000000 0.000000 0.000000
# 2 -0.005159 0.014247 -0.004607 0.000000 0.000000 0.000000
# 3 0.005271 -0.004607 0.014805 0.000000 0.000000 0.000000
# 4 0.000000 0.000000 0.000000 -0.195877 0.000000 0.000000
# 5 0.000000 0.000000 0.000000 0.000000 0.024050 0.000000
# 6 0.000000 0.000000 0.000000 0.000000 0.000000 0.035784
#
#
# Mechanical properties :
#
#
# Convention : Reuss Voigt Hill
#
# Bulk Modulus (GPa) = 29.98086 33.13209 31.55647
# Shear Modulus (GPa) = -67.94237 29.25182 -19.34528
#
# Velocity S-wave (km/s) = -5.33064 3.49772 -2.84444
# Velocity P-wave (km/s) = 5.03475 5.49263 1.55248
#
# Compressibility (1/GPa) = 0.03335461
#
# Stress axis : x y z
#
# Youngs Moduli (GPa) = 75.23492 70.18958 67.54280
#
# Poissons Ratio (x) = 0.36209 -0.35604
# Poissons Ratio (y) = 0.38812 0.31120
# Poissons Ratio (z) = -0.39659 0.32339
#
# Static dielectric constant tensor:
#      x y z
#    x 2.003040 0.000000 0.000000 
#    y 0.000000 1.959220 0.000000 
#    z 0.000000 0.000000 1.914370 
# 
# From -- ./inp_files/2909.got.cif
#   From: 2010.05.17/outbox.cif.g08.bks.cpg/sg41_2_cif.got.tgz:2909.got - 2010.06.03 18:54:24.
