data_PCOD9367244
_publ_section_title
;
Structure prediction by ZEFSAII (Michael W. Deem and Ramdas Pophale) SiO2 
 PCOD9367244
Probable space group: A B A 2
;
_chemical_formula_sum "Si O2"
_cell_formula_units_Z 64
_cell_length_a 9.762193
_cell_length_b 14.363287
_cell_length_c 18.858317
_cell_angle_alpha 90.000000
_cell_angle_beta 90.000000
_cell_angle_gamma 90.000000
_cell_volume 2644.260026
_symmetry_space_group_name_H-M "A B A 2"
_symmetry_group_IT_number 41
_symmetry_cell_setting 'orthorhombic'
loop_
_space_group_symop_operation_xyz
x,y,z
-x,-y,z
1/2-x,y,1/2+z
1/2+x,-y,1/2+z
x,1/2+y,1/2+z
-x,1/2-y,1/2+z
1/2-x,1/2+y,z
1/2+x,1/2-y,z
loop_
_atom_site_type_symbol
_atom_site_label
_atom_site_fract_x
_atom_site_fract_y
_atom_site_fract_z
Si Si1 0.325934 0.201208 0.453250
Si Si2 0.096188 0.352346 0.844729
Si Si3 0.797868 0.449224 0.849114
Si Si4 0.923241 0.719033 0.689439
Si Si5 0.778027 0.147884 0.047445
Si Si6 0.299735 0.554362 0.045216
Si Si7 0.630467 0.931451 0.704639
Si Si8 0.523360 0.897425 0.102470
O O1 0.403897 0.271660 0.402633
O O2 0.281332 0.114410 0.403987
O O3 0.214596 0.268412 0.491332
O O4 0.388943 0.140893 0.517722
O O5 0.190524 0.441030 0.864376
O O6 0.134387 0.307667 0.767651
O O7 0.946655 0.399072 0.844768
O O8 0.759502 0.442709 0.766293
O O9 0.847952 0.670316 0.622894
O O10 0.933081 0.824328 0.662553
O O11 0.074052 0.673039 0.696294
O O12 0.615793 0.136980 0.065496
O O13 0.823565 0.048312 0.016297
O O14 0.318880 0.540766 0.128390
O O15 0.140880 0.586577 0.042697
O O16 0.500000 0.000000 0.719521
O O17 0.500000 0.000000 0.132976
#
# Coordination Sequence:
#
# PCOD9367244 Si02
#       8
#     8   8   8   8   8   8   8   8
#     4  12  25  36  64  96 135 173 212 283 326 412
#     4  10  23  43  67  93 129 177 223 271 339 413
#     4  10  22  45  67  95 126 179 231 268 339 418
#     4  11  21  41  70  98 123 172 227 281 331 405
#     4  11  23  42  64  99 130 176 224 276 347 396
#     4  11  23  41  66 100 133 174 223 281 341 400
#     4  11  20  42  73  97 127 172 227 284 325 402
#     4  10  24  41  65  98 137 172 220 285 341 403
#
# _framework density 24.203368999999999
#
# number of rings (size 3 to 8) (size 9 to 14) (size 15 to 20)
#    0.000    1.250    5.000    1.500    3.500    2.000 
#    0.000    0.000    5.500    0.000    0.000    0.000 
#    0.000    0.000    0.000    0.000    0.000    0.000 
#
# Total GULP energy -178683.710118 kJ/mol
# GULP energy per Si atom -5583.865941 kJ/mol
# Density = 2.414828 g / cm^3
# Si number density = 24.203369 Si / 1000 Ang^3
#
#
#
# Elastic Constant Matrix: (Units=GPa)
#
#
# Indices 1 2 3 4 5 6 
#
# 1 25.9836 11.6427 0.0373 0.0000 0.0000 0.0000
# 2 11.6427 228.7715 51.6083 0.0000 0.0000 0.0000
# 3 0.0373 51.6083 110.5014 0.0000 0.0000 0.0000
# 4 0.0000 0.0000 0.0000 43.7294 0.0000 0.0000
# 5 0.0000 0.0000 0.0000 0.0000 27.1212 0.0000
# 6 0.0000 0.0000 0.0000 0.0000 0.0000 26.5608
#
#
#
# Elastic Compliance Matrix: (Units=1/GPa)
#
#
# Indices 1 2 3 4 5 6 
#
# 1 0.039489 -0.002243 0.001034 0.000000 0.000000 0.000000
# 2 -0.002243 0.005013 -0.002341 0.000000 0.000000 0.000000
# 3 0.001034 -0.002341 0.010142 0.000000 0.000000 0.000000
# 4 0.000000 0.000000 0.000000 0.022868 0.000000 0.000000
# 5 0.000000 0.000000 0.000000 0.000000 0.036872 0.000000
# 6 0.000000 0.000000 0.000000 0.000000 0.000000 0.037649
#
#
# Mechanical properties :
#
#
# Convention : Reuss Voigt Hill
#
# Bulk Modulus (GPa) = 21.03213 54.64812 37.84013
# Shear Modulus (GPa) = 28.57441 39.61350 34.09396
#
# Velocity S-wave (km/s) = 3.43971 4.05000 3.75726
# Velocity P-wave (km/s) = 4.94814 6.67066 5.87289
#
# Compressibility (1/GPa) = 0.04754629
#
# Stress axis : x y z
#
# Youngs Moduli (GPa) = 25.32328 199.46729 98.59514
#
# Poissons Ratio (x) = 0.44741 -0.10197
# Poissons Ratio (y) = 0.05680 0.23078
# Poissons Ratio (z) = -0.02619 0.46689
#
# Static dielectric constant tensor:
#      x y z
#    x 2.024310 0.000000 0.000000 
#    y 0.000000 1.937970 0.000000 
#    z 0.000000 0.000000 2.035250 
# 
# From -- ./inp_files/10116.got.cif
#   From: 2010.05.17/outbox.cif.g08.bks.cpg/sg41_6_cif.got.tgz:10116.got - 2010.06.03 18:54:24.
