data_PCOD9367619
_publ_section_title
;
Structure prediction by ZEFSAII (Michael W. Deem and Ramdas Pophale) SiO2 
 PCOD9367619
Probable space group: A B A 2
;
_chemical_formula_sum "Si O2"
_cell_formula_units_Z 24
_cell_length_a 10.103058
_cell_length_b 9.639022
_cell_length_c 10.239429
_cell_angle_alpha 90.000000
_cell_angle_beta 90.000000
_cell_angle_gamma 90.000000
_cell_volume 997.152441
_symmetry_space_group_name_H-M "A B A 2"
_symmetry_group_IT_number 41
_symmetry_cell_setting 'orthorhombic'
loop_
_space_group_symop_operation_xyz
x,y,z
-x,-y,z
1/2-x,y,1/2+z
1/2+x,-y,1/2+z
x,1/2+y,1/2+z
-x,1/2-y,1/2+z
1/2-x,1/2+y,z
1/2+x,1/2-y,z
loop_
_atom_site_type_symbol
_atom_site_label
_atom_site_fract_x
_atom_site_fract_y
_atom_site_fract_z
Si Si1 0.119893 0.401796 0.517220
Si Si2 0.269039 0.332096 0.273281
Si Si3 0.985993 0.837250 0.666208
O O1 0.236151 0.396889 0.412321
O O2 0.172514 0.435664 0.662742
O O3 0.000000 0.500000 0.479063
O O4 0.063009 0.246257 0.539383
O O5 0.374297 0.207707 0.271175
O O6 0.127927 0.284761 0.215322
O O7 0.000000 0.000000 0.648855
#
# Coordination Sequence:
#
# PCOD9367619 Si02
#       3
#     8   8   8
#     4  10  25  49  81 111 162 217 268 332 409 489
#     4  10  25  45  79 112 157 208 266 335 403 482
#     4  10  25  46  75 114 158 208 268 332 408 479
#
# _framework density 24.068534
#
# number of rings (size 3 to 8) (size 9 to 14) (size 15 to 20)
#    2.000    0.000    0.000    1.000    9.333    0.000 
#    6.000    5.000    0.000    0.000    0.000    0.000 
#    0.000    0.000    0.000    0.000    0.000    0.000 
#
# Total GULP energy -67012.935687 kJ/mol
# GULP energy per Si atom -5584.411307 kJ/mol
# Density = 2.401375 g / cm^3
# Si number density = 24.068534 Si / 1000 Ang^3
#
#
#
# Elastic Constant Matrix: (Units=GPa)
#
#
# Indices 1 2 3 4 5 6 
#
# 1 136.2268 56.3075 8.4790 0.0000 0.0000 0.0000
# 2 56.3075 123.6513 50.7352 0.0000 0.0000 0.0000
# 3 8.4790 50.7352 113.0922 0.0000 0.0000 0.0000
# 4 0.0000 0.0000 0.0000 12.9873 0.0000 0.0000
# 5 0.0000 0.0000 0.0000 0.0000 49.9359 0.0000
# 6 0.0000 0.0000 0.0000 0.0000 0.0000 36.8849
#
#
#
# Elastic Compliance Matrix: (Units=1/GPa)
#
#
# Indices 1 2 3 4 5 6 
#
# 1 0.009236 -0.004807 0.001464 0.000000 0.000000 0.000000
# 2 -0.004807 0.012413 -0.005208 0.000000 0.000000 0.000000
# 3 0.001464 -0.005208 0.011069 0.000000 0.000000 0.000000
# 4 0.000000 0.000000 0.000000 0.076998 0.000000 0.000000
# 5 0.000000 0.000000 0.000000 0.000000 0.020026 0.000000
# 6 0.000000 0.000000 0.000000 0.000000 0.000000 0.027111
#
#
# Mechanical properties :
#
#
# Convention : Reuss Voigt Hill
#
# Bulk Modulus (GPa) = 64.03553 67.11264 65.57408
# Shear Modulus (GPa) = 27.90777 37.12487 32.51632
#
# Velocity S-wave (km/s) = 3.40886 3.93168 3.67957
# Velocity P-wave (km/s) = 6.49284 6.96817 6.73470
#
# Compressibility (1/GPa) = 0.01561633
#
# Stress axis : x y z
#
# Youngs Moduli (GPa) = 108.26805 80.56008 90.34112
#
# Poissons Ratio (x) = 0.38722 -0.13225
# Poissons Ratio (y) = 0.52040 0.47053
# Poissons Ratio (z) = -0.15849 0.41959
#
# Static dielectric constant tensor:
#      x y z
#    x 1.902960 0.000000 0.000000 
#    y 0.000000 1.927570 0.000000 
#    z 0.000000 0.000000 2.000980 
# 
# From -- ./inp_files/1845.got.cif
#   From: 2010.05.17/outbox.cif.g08.bks.cpg/sg41_1_cif.got.tgz:1845.got - 2010.06.03 18:54:24.
