data_PCOD9367430
_publ_section_title
;
Structure prediction by ZEFSAII (Michael W. Deem and Ramdas Pophale) SiO2 
 PCOD9367430
Probable space group: A B A 2
;
_chemical_formula_sum "Si O2"
_cell_formula_units_Z 36
_cell_length_a 11.600537
_cell_length_b 10.092472
_cell_length_c 14.258413
_cell_angle_alpha 90.000000
_cell_angle_beta 90.000000
_cell_angle_gamma 90.000000
_cell_volume 1669.347830
_symmetry_space_group_name_H-M "A B A 2"
_symmetry_group_IT_number 41
_symmetry_cell_setting 'orthorhombic'
loop_
_space_group_symop_operation_xyz
x,y,z
-x,-y,z
1/2-x,y,1/2+z
1/2+x,-y,1/2+z
x,1/2+y,1/2+z
-x,1/2-y,1/2+z
1/2-x,1/2+y,z
1/2+x,1/2-y,z
loop_
_atom_site_type_symbol
_atom_site_label
_atom_site_fract_x
_atom_site_fract_y
_atom_site_fract_z
Si Si1 0.235975 0.064040 0.030620
Si Si2 0.087388 0.123843 0.187704
Si Si3 0.000000 0.500000 0.427665
Si Si4 0.088162 0.217009 0.397427
Si Si5 0.430401 0.871876 0.058361
O O1 0.302294 0.925016 0.039384
O O2 0.210951 0.102623 0.137949
O O3 0.191149 0.665860 0.966402
O O4 0.108443 0.051605 0.988020
O O5 0.100938 0.149789 0.297273
O O6 0.046811 0.254528 0.131211
O O7 0.000000 0.000000 0.175644
O O8 0.059789 0.372232 0.379736
O O9 0.979488 0.165540 0.456740
O O10 0.500000 0.000000 0.092449
#
# Coordination Sequence:
#
# PCOD9367430 Si02
#       5
#     8   8   4   8   8
#     4  11  23  47  72 104 148 190 239 300 367 433
#     4  12  24  46  75 106 144 192 242 301 365 436
#     4  12  24  46  72 106 148 188 240 302 368 424
#     4  11  26  47  74 107 146 193 243 303 363 433
#     4  10  23  46  72 106 146 189 238 301 365 433
#
# _framework density 21.565308000000002
#
# number of rings (size 3 to 8) (size 9 to 14) (size 15 to 20)
#    0.000    0.889    3.333    3.333    1.556    3.556 
#    8.000    0.000    0.000    0.000    0.000    0.000 
#    0.000    0.000    0.000    0.000    0.000    0.000 
#
# Total GULP energy -100343.393762 kJ/mol
# GULP energy per Si atom -5574.632987 kJ/mol
# Density = 2.151622 g / cm^3
# Si number density = 21.565308 Si / 1000 Ang^3
#
#
#
# Elastic Constant Matrix: (Units=GPa)
#
#
# Indices 1 2 3 4 5 6 
#
# 1 101.7643 51.8700 59.2167 0.0000 0.0000 0.0000
# 2 51.8700 166.7400 74.3429 0.0000 0.0000 0.0000
# 3 59.2167 74.3429 177.2739 0.0000 0.0000 0.0000
# 4 0.0000 0.0000 0.0000 33.1352 0.0000 0.0000
# 5 0.0000 0.0000 0.0000 0.0000 30.6151 0.0000
# 6 0.0000 0.0000 0.0000 0.0000 0.0000 33.1378
#
#
#
# Elastic Compliance Matrix: (Units=1/GPa)
#
#
# Indices 1 2 3 4 5 6 
#
# 1 0.013056 -0.002604 -0.003269 0.000000 0.000000 0.000000
# 2 -0.002604 0.007896 -0.002441 0.000000 0.000000 0.000000
# 3 -0.003269 -0.002441 0.007757 0.000000 0.000000 0.000000
# 4 0.000000 0.000000 0.000000 0.030179 0.000000 0.000000
# 5 0.000000 0.000000 0.000000 0.000000 0.032664 0.000000
# 6 0.000000 0.000000 0.000000 0.000000 0.000000 0.030177
#
#
# Mechanical properties :
#
#
# Convention : Reuss Voigt Hill
#
# Bulk Modulus (GPa) = 82.78338 90.73749 86.76043
# Shear Modulus (GPa) = 35.11599 36.73420 35.92509
#
# Velocity S-wave (km/s) = 4.03967 4.13170 4.08594
# Velocity P-wave (km/s) = 7.76075 8.05781 7.91067
#
# Compressibility (1/GPa) = 0.01207972
#
# Stress axis : x y z
#
# Youngs Moduli (GPa) = 76.59145 126.64690 128.91644
#
# Poissons Ratio (x) = 0.32978 0.42147
# Poissons Ratio (y) = 0.19944 0.31475
# Poissons Ratio (z) = 0.25040 0.30921
#
# Static dielectric constant tensor:
#      x y z
#    x 1.831700 0.000000 0.000000 
#    y 0.000000 1.926090 0.000000 
#    z 0.000000 0.000000 1.769300 
# 
# From -- ./inp_files/7711.got.cif
#   From: 2010.05.17/outbox.cif.g08.bks.cpg/sg41_4_cif.got.tgz:7711.got - 2010.06.03 18:54:24.
