data_PCOD9367663
_publ_section_title
;
Structure prediction by ZEFSAII (Michael W. Deem and Ramdas Pophale) SiO2 
 PCOD9367663
Probable space group: A B A 2
;
_chemical_formula_sum "Si O2"
_cell_formula_units_Z 40
_cell_length_a 8.264656
_cell_length_b 10.738718
_cell_length_c 17.178376
_cell_angle_alpha 90.000000
_cell_angle_beta 90.000000
_cell_angle_gamma 90.000000
_cell_volume 1524.611965
_symmetry_space_group_name_H-M "A B A 2"
_symmetry_group_IT_number 41
_symmetry_cell_setting 'orthorhombic'
loop_
_space_group_symop_operation_xyz
x,y,z
-x,-y,z
1/2-x,y,1/2+z
1/2+x,-y,1/2+z
x,1/2+y,1/2+z
-x,1/2-y,1/2+z
1/2-x,1/2+y,z
1/2+x,1/2-y,z
loop_
_atom_site_type_symbol
_atom_site_label
_atom_site_fract_x
_atom_site_fract_y
_atom_site_fract_z
Si Si1 0.714282 0.314019 0.813170
Si Si2 0.000000 0.000000 0.148289
Si Si3 0.157053 0.589153 0.150481
Si Si4 0.500000 0.500000 0.919197
Si Si5 0.427550 0.793336 0.532237
Si Si6 0.457770 0.866022 0.896092
O O1 0.649298 0.324439 0.726659
O O2 0.607035 0.408978 0.865725
O O3 0.694229 0.174450 0.846043
O O4 0.898385 0.344287 0.833203
O O5 0.812977 0.995049 0.175074
O O6 0.997933 0.869256 0.102720
O O7 0.168134 0.680565 0.074914
O O8 0.000000 0.500000 0.141687
O O9 0.385724 0.414746 0.976770
O O10 0.539781 0.720009 0.471957
O O11 0.500000 0.000000 0.925864
#
# Coordination Sequence:
#
# PCOD9367663 Si02
#       6
#     8   4   8   4   8   8
#     4  11  27  48  75 111 155 203 264 322 398 471
#     4  11  30  48  80 116 157 206 266 317 404 476
#     4  12  29  50  80 115 160 206 263 334 402 465
#     4   9  22  50  78 108 157 208 260 319 394 480
#     4  10  26  48  78 113 154 204 264 330 392 472
#     4  11  28  46  80 109 152 208 263 320 394 472
#
# _framework density 26.236183
#
# number of rings (size 3 to 8) (size 9 to 14) (size 15 to 20)
#    0.000    1.200    1.000    0.600   21.000    0.000 
#    1.800    0.000    0.000    0.000    0.000    0.000 
#    0.000    0.000    0.000    0.000    0.000    0.000 
#
# Total GULP energy -111436.276613 kJ/mol
# GULP energy per Si atom -5571.813831 kJ/mol
# Density = 2.617647 g / cm^3
# Si number density = 26.236183 Si / 1000 Ang^3
#
#
#
# Elastic Constant Matrix: (Units=GPa)
#
#
# Indices 1 2 3 4 5 6 
#
# 1 87.3028 17.6207 13.4940 0.0000 0.0000 0.0000
# 2 17.6207 121.3796 35.4536 0.0000 0.0000 0.0000
# 3 13.4940 35.4536 123.8618 0.0000 0.0000 0.0000
# 4 0.0000 0.0000 0.0000 37.0256 0.0000 0.0000
# 5 0.0000 0.0000 0.0000 0.0000 58.2559 0.0000
# 6 0.0000 0.0000 0.0000 0.0000 0.0000 20.3476
#
#
#
# Elastic Compliance Matrix: (Units=1/GPa)
#
#
# Indices 1 2 3 4 5 6 
#
# 1 0.011886 -0.001470 -0.000874 0.000000 0.000000 0.000000
# 2 -0.001470 0.009172 -0.002465 0.000000 0.000000 0.000000
# 3 -0.000874 -0.002465 0.008874 0.000000 0.000000 0.000000
# 4 0.000000 0.000000 0.000000 0.027008 0.000000 0.000000
# 5 0.000000 0.000000 0.000000 0.000000 0.017166 0.000000
# 6 0.000000 0.000000 0.000000 0.000000 0.000000 0.049146
#
#
# Mechanical properties :
#
#
# Convention : Reuss Voigt Hill
#
# Bulk Modulus (GPa) = 49.22797 51.74231 50.48514
# Shear Modulus (GPa) = 35.80567 40.85756 38.33161
#
# Velocity S-wave (km/s) = 3.69825 3.95054 3.82648
# Velocity P-wave (km/s) = 6.08607 6.36974 6.22952
#
# Compressibility (1/GPa) = 0.02031366
#
# Stress axis : x y z
#
# Youngs Moduli (GPa) = 84.13099 109.02621 112.68405
#
# Poissons Ratio (x) = 0.16029 0.09850
# Poissons Ratio (y) = 0.12369 0.27779
# Poissons Ratio (z) = 0.07354 0.26877
#
# Static dielectric constant tensor:
#      x y z
#    x 2.209330 0.000000 0.000000 
#    y 0.000000 2.105990 0.000000 
#    z 0.000000 0.000000 2.033040 
# 
# From -- ./inp_files/9571.got.cif
#   From: 2010.05.17/outbox.cif.g08.bks.cpg/sg41_5_cif.got.tgz:9571.got - 2010.06.03 18:54:24.
