data_PCOD9367763
_publ_section_title
;
Structure prediction by ZEFSAII (Michael W. Deem and Ramdas Pophale) SiO2 
 PCOD9367763
Probable space group: A B A 2
;
_chemical_formula_sum "Si O2"
_cell_formula_units_Z 64
_cell_length_a 30.271034
_cell_length_b 9.396928
_cell_length_c 11.193372
_cell_angle_alpha 90.000000
_cell_angle_beta 90.000000
_cell_angle_gamma 90.000000
_cell_volume 3184.007576
_symmetry_space_group_name_H-M "A B A 2"
_symmetry_group_IT_number 41
_symmetry_cell_setting 'orthorhombic'
loop_
_space_group_symop_operation_xyz
x,y,z
-x,-y,z
1/2-x,y,1/2+z
1/2+x,-y,1/2+z
x,1/2+y,1/2+z
-x,1/2-y,1/2+z
1/2-x,1/2+y,z
1/2+x,1/2-y,z
loop_
_atom_site_type_symbol
_atom_site_label
_atom_site_fract_x
_atom_site_fract_y
_atom_site_fract_z
Si Si1 0.617749 0.167391 0.072650
Si Si2 0.954616 0.352364 0.707429
Si Si3 0.210227 0.331155 0.211119
Si Si4 0.678347 0.381334 0.397839
Si Si5 0.947114 0.164744 0.160907
Si Si6 0.584842 0.870177 0.963338
Si Si7 0.785657 0.363370 0.156535
Si Si8 0.143507 0.814634 0.310224
O O1 0.579723 0.246089 0.146492
O O2 0.661455 0.161919 0.154086
O O3 0.598120 0.014236 0.032938
O O4 0.633240 0.235491 0.945911
O O5 0.950713 0.497736 0.632264
O O6 0.004850 0.298628 0.714181
O O7 0.940951 0.396301 0.841289
O O8 0.207288 0.231728 0.327201
O O9 0.226175 0.492461 0.227519
O O10 0.245670 0.244735 0.133856
O O11 0.631767 0.305055 0.425099
O O12 0.698516 0.415295 0.526472
O O13 0.664899 0.526361 0.327206
O O14 0.940565 0.263363 0.047302
O O15 0.903684 0.182044 0.243151
O O16 0.823268 0.281152 0.232289
#
# Coordination Sequence:
#
# PCOD9367763 Si02
#       8
#     8   8   8   8   8   8   8   8
#     4  11  23  45  70  96 133 182 226 276 342 402
#     4  11  25  42  65 102 137 177 226 280 343 401
#     4  12  25  44  69  99 133 176 226 281 342 403
#     4  11  23  46  70  94 135 177 225 280 336 399
#     4  11  23  41  68  99 133 178 222 280 342 396
#     4  11  22  46  70  92 138 176 227 279 333 402
#     4  12  27  45  66 103 135 176 230 282 341 407
#     4  11  22  46  69  95 136 178 228 278 334 408
#
# _framework density 20.100455
#
# number of rings (size 3 to 8) (size 9 to 14) (size 15 to 20)
#    0.000    0.750    7.500    0.750    3.500    2.500 
#    4.500    0.000    0.000    0.000    0.000    0.000 
#    0.000    0.000    0.000    0.000    0.000    0.000 
#
# Total GULP energy -178554.740099 kJ/mol
# GULP energy per Si atom -5579.835628 kJ/mol
# Density = 2.005471 g / cm^3
# Si number density = 20.100455 Si / 1000 Ang^3
#
#
#
# Elastic Constant Matrix: (Units=GPa)
#
#
# Indices 1 2 3 4 5 6 
#
# 1 100.9991 54.2254 18.1588 0.0000 0.0000 0.0000
# 2 54.2254 105.1375 49.1178 0.0000 0.0000 0.0000
# 3 18.1588 49.1178 73.7334 0.0000 0.0000 0.0000
# 4 0.0000 0.0000 0.0000 14.5152 0.0000 0.0000
# 5 0.0000 0.0000 0.0000 0.0000 27.6032 0.0000
# 6 0.0000 0.0000 0.0000 0.0000 0.0000 32.1982
#
#
#
# Elastic Compliance Matrix: (Units=1/GPa)
#
#
# Indices 1 2 3 4 5 6 
#
# 1 0.013885 -0.008078 0.001961 0.000000 0.000000 0.000000
# 2 -0.008078 0.018508 -0.010340 0.000000 0.000000 0.000000
# 3 0.001961 -0.010340 0.019967 0.000000 0.000000 0.000000
# 4 0.000000 0.000000 0.000000 0.068894 0.000000 0.000000
# 5 0.000000 0.000000 0.000000 0.000000 0.036228 0.000000
# 6 0.000000 0.000000 0.000000 0.000000 0.000000 0.031058
#
#
# Mechanical properties :
#
#
# Convention : Reuss Voigt Hill
#
# Bulk Modulus (GPa) = 51.41863 58.09713 54.75788
# Shear Modulus (GPa) = 21.93610 25.42117 23.67864
#
# Velocity S-wave (km/s) = 3.30710 3.56013 3.43595
# Velocity P-wave (km/s) = 6.34184 6.77241 6.56066
#
# Compressibility (1/GPa) = 0.01944820
#
# Stress axis : x y z
#
# Youngs Moduli (GPa) = 72.01847 54.03042 50.08198
#
# Poissons Ratio (x) = 0.43645 -0.09823
# Poissons Ratio (y) = 0.58175 0.51784
# Poissons Ratio (z) = -0.14126 0.55867
#
# Static dielectric constant tensor:
#      x y z
#    x 1.743670 0.000000 0.000000 
#    y 0.000000 1.702930 0.000000 
#    z 0.000000 0.000000 1.732810 
# 
# From -- ./inp_files/6659.got.cif
#   From: 2010.05.17/outbox.cif.g08.bks.cpg/sg41_4_cif.got.tgz:6659.got - 2010.06.03 18:54:24.
