data_PCOD9367033
_publ_section_title
;
Structure prediction by ZEFSAII (Michael W. Deem and Ramdas Pophale) SiO2 
 PCOD9367033
Probable space group: A B A 2
;
_chemical_formula_sum "Si O2"
_cell_formula_units_Z 60
_cell_length_a 27.694791
_cell_length_b 15.765605
_cell_length_c 5.386116
_cell_angle_alpha 90.000000
_cell_angle_beta 90.000000
_cell_angle_gamma 90.000000
_cell_volume 2351.713628
_symmetry_space_group_name_H-M "A B A 2"
_symmetry_group_IT_number 41
_symmetry_cell_setting 'orthorhombic'
loop_
_space_group_symop_operation_xyz
x,y,z
-x,-y,z
1/2-x,y,1/2+z
1/2+x,-y,1/2+z
x,1/2+y,1/2+z
-x,1/2-y,1/2+z
1/2-x,1/2+y,z
1/2+x,1/2-y,z
loop_
_atom_site_type_symbol
_atom_site_label
_atom_site_fract_x
_atom_site_fract_y
_atom_site_fract_z
Si Si1 0.052544 0.910300 0.280910
Si Si2 0.030171 0.256584 0.537118
Si Si3 0.862529 0.150521 0.591171
Si Si4 0.767979 0.599821 0.799082
Si Si5 0.000000 0.500000 0.137081
Si Si6 0.231655 0.706648 0.179076
Si Si7 0.102354 0.000375 0.912851
Si Si8 0.627528 0.810989 0.305985
O O1 0.043122 0.856723 0.037625
O O2 0.086633 0.859429 0.458173
O O3 0.005175 0.924587 0.439159
O O4 0.084777 0.989259 0.196110
O O5 0.009185 0.244140 0.262042
O O6 0.078331 0.211056 0.649918
O O7 0.821045 0.112206 0.412347
O O8 0.860930 0.253250 0.555337
O O9 0.867964 0.083520 0.819356
O O10 0.737762 0.559885 0.026578
O O11 0.749582 0.696404 0.732741
O O12 0.950050 0.491915 0.277014
O O13 0.256468 0.665310 0.943073
O O14 0.174395 0.710748 0.140660
O O15 0.127547 0.089669 0.867642
#
# Coordination Sequence:
#
# PCOD9367033 Si02
#       8
#     8   8   8   8   4   8   8   8
#     4  10  23  39  62  91 133 171 217 283 328 402
#     4  11  26  42  67 101 138 180 232 283 340 413
#     4   9  22  42  60  94 132 166 221 279 334 403
#     4   9  18  34  64  93 123 171 216 265 338 410
#     4  10  22  40  60  90 126 180 220 278 338 408
#     4   9  19  40  65  97 133 172 227 291 347 419
#     4  11  23  42  67  91 133 176 226 282 347 412
#     4  10  23  44  68 101 132 186 232 284 358 424
#
# _framework density 25.513311999999999
#
# number of rings (size 3 to 8) (size 9 to 14) (size 15 to 20)
#    0.000    2.133    0.000    1.200   11.200    1.067 
#    9.600    1.333    0.000    0.000    0.000    0.000 
#    0.000    0.000    0.000    0.000    0.000    0.000 
#
# Total GULP energy -167079.507710 kJ/mol
# GULP energy per Si atom -5569.316924 kJ/mol
# Density = 2.545524 g / cm^3
# Si number density = 25.513312 Si / 1000 Ang^3
#
#
#
# Elastic Constant Matrix: (Units=GPa)
#
#
# Indices 1 2 3 4 5 6 
#
# 1 107.1782 13.5696 48.4689 0.0000 0.0000 0.0000
# 2 13.5696 66.3346 19.7266 0.0000 0.0000 0.0000
# 3 48.4689 19.7266 136.4094 0.0000 0.0000 0.0000
# 4 0.0000 0.0000 0.0000 17.9178 0.0000 0.0000
# 5 0.0000 0.0000 0.0000 0.0000 31.9531 0.0000
# 6 0.0000 0.0000 0.0000 0.0000 0.0000 16.3474
#
#
#
# Elastic Compliance Matrix: (Units=1/GPa)
#
#
# Indices 1 2 3 4 5 6 
#
# 1 0.011201 -0.001158 -0.003813 0.000000 0.000000 0.000000
# 2 -0.001158 0.015872 -0.001884 0.000000 0.000000 0.000000
# 3 -0.003813 -0.001884 0.008958 0.000000 0.000000 0.000000
# 4 0.000000 0.000000 0.000000 0.055811 0.000000 0.000000
# 5 0.000000 0.000000 0.000000 0.000000 0.031296 0.000000
# 6 0.000000 0.000000 0.000000 0.000000 0.000000 0.061172
#
#
# Mechanical properties :
#
#
# Convention : Reuss Voigt Hill
#
# Bulk Modulus (GPa) = 44.79700 52.60583 48.70142
# Shear Modulus (GPa) = 24.33584 28.45412 26.39498
#
# Velocity S-wave (km/s) = 3.09179 3.34318 3.21994
# Velocity P-wave (km/s) = 5.50836 5.96374 5.74057
#
# Compressibility (1/GPa) = 0.02232292
#
# Stress axis : x y z
#
# Youngs Moduli (GPa) = 89.27825 63.00339 111.63217
#
# Poissons Ratio (x) = 0.07293 0.42560
# Poissons Ratio (y) = 0.10334 0.21032
# Poissons Ratio (z) = 0.34037 0.11870
#
# Static dielectric constant tensor:
#      x y z
#    x 2.033120 0.000000 0.000000 
#    y 0.000000 2.431060 0.000000 
#    z 0.000000 0.000000 2.086370 
# 
# From -- ./inp_files/1391.got.cif
#   From: 2010.05.17/outbox.cif.g08.bks.cpg/sg41_1_cif.got.tgz:1391.got - 2010.06.03 18:54:24.
