data_PCOD9367905
_publ_section_title
;
Structure prediction by ZEFSAII (Michael W. Deem and Ramdas Pophale) SiO2 
 PCOD9367905
Probable space group: A B A 2
;
_chemical_formula_sum "Si O2"
_cell_formula_units_Z 48
_cell_length_a 14.539291
_cell_length_b 8.436043
_cell_length_c 14.649241
_cell_angle_alpha 90.000000
_cell_angle_beta 90.000000
_cell_angle_gamma 90.000000
_cell_volume 1796.789237
_symmetry_space_group_name_H-M "A B A 2"
_symmetry_group_IT_number 41
_symmetry_cell_setting 'orthorhombic'
loop_
_space_group_symop_operation_xyz
x,y,z
-x,-y,z
1/2-x,y,1/2+z
1/2+x,-y,1/2+z
x,1/2+y,1/2+z
-x,1/2-y,1/2+z
1/2-x,1/2+y,z
1/2+x,1/2-y,z
loop_
_atom_site_type_symbol
_atom_site_label
_atom_site_fract_x
_atom_site_fract_y
_atom_site_fract_z
Si Si1 0.275953 0.295026 0.027060
Si Si2 0.624056 0.900880 0.583097
Si Si3 0.025506 0.671352 0.068401
Si Si4 0.124055 0.900881 0.269370
Si Si5 0.525506 0.171352 0.284067
Si Si6 0.224047 0.704975 0.825407
O O1 0.191568 0.251029 0.092944
O O2 0.312527 0.473839 0.030411
O O3 0.367849 0.197963 0.050988
O O4 0.244776 0.250000 0.926234
O O5 0.534039 0.824205 0.537323
O O6 0.604306 0.000000 0.676234
O O7 0.000001 0.669547 0.176234
O O8 0.000000 0.500000 0.029772
O O9 0.034039 0.824205 0.315145
O O10 0.191568 0.748971 0.259523
O O11 0.187473 0.026161 0.322056
O O12 0.632151 0.197963 0.301479
O O13 0.500000 0.000000 0.322697
#
# Coordination Sequence:
#
# PCOD9367905 Si02
#       6
#     8   8   8   8   8   8
#     4  12  27  44  71 109 147 187 238 302 368 418
#     4  12  25  47  76 103 144 194 244 293 359 437
#     4  11  25  44  72 105 140 187 249 300 357 427
#     4  12  25  47  76 103 144 194 244 293 359 437
#     4  11  25  44  72 105 140 187 249 300 357 427
#     4  12  27  44  71 109 147 187 238 302 368 418
#
# _framework density 26.714319
#
# number of rings (size 3 to 8) (size 9 to 14) (size 15 to 20)
#    0.000    0.333    3.333    5.000    4.667    4.000 
#    0.000    0.000    0.000    0.000    0.000    0.000 
#    0.000    0.000    0.000    0.000    0.000    0.000 
#
# Total GULP energy -134397.521333 kJ/mol
# GULP energy per Si atom -5599.896722 kJ/mol
# Density = 2.665352 g / cm^3
# Si number density = 26.714319 Si / 1000 Ang^3
#
#
#
# Elastic Constant Matrix: (Units=GPa)
#
#
# Indices 1 2 3 4 5 6 
#
# 1 165.5259 39.1313 8.4310 0.0000 0.0000 0.0000
# 2 39.1313 164.9838 22.4223 0.0000 0.0000 0.0000
# 3 8.4310 22.4223 71.9338 0.0000 0.0000 0.0000
# 4 0.0000 0.0000 0.0000 13.7761 0.0000 0.0000
# 5 0.0000 0.0000 0.0000 0.0000 19.6111 0.0000
# 6 0.0000 0.0000 0.0000 0.0000 0.0000 53.7334
#
#
#
# Elastic Compliance Matrix: (Units=1/GPa)
#
#
# Indices 1 2 3 4 5 6 
#
# 1 0.006406 -0.001480 -0.000289 0.000000 0.000000 0.000000
# 2 -0.001480 0.006671 -0.001906 0.000000 0.000000 0.000000
# 3 -0.000289 -0.001906 0.014530 0.000000 0.000000 0.000000
# 4 0.000000 0.000000 0.000000 0.072589 0.000000 0.000000
# 5 0.000000 0.000000 0.000000 0.000000 0.050991 0.000000
# 6 0.000000 0.000000 0.000000 0.000000 0.000000 0.018610
#
#
# Mechanical properties :
#
#
# Convention : Reuss Voigt Hill
#
# Bulk Modulus (GPa) = 49.36834 60.26810 54.81822
# Shear Modulus (GPa) = 27.18850 39.58805 33.38828
#
# Velocity S-wave (km/s) = 3.19368 3.85373 3.53912
# Velocity P-wave (km/s) = 5.66742 6.51236 6.10453
#
# Compressibility (1/GPa) = 0.02025590
#
# Stress axis : x y z
#
# Youngs Moduli (GPa) = 156.10394 149.89624 68.82451
#
# Poissons Ratio (x) = 0.22185 0.01992
# Poissons Ratio (y) = 0.23104 0.13118
# Poissons Ratio (z) = 0.04519 0.28570
#
# Static dielectric constant tensor:
#      x y z
#    x 2.008960 0.000000 0.000000 
#    y 0.000000 2.186620 0.000000 
#    z 0.000000 0.000000 2.143680 
# 
# From -- ./inp_files/10306.got.cif
#   From: 2010.05.17/outbox.cif.g08.bks.cpg/sg41_6_cif.got.tgz:10306.got - 2010.06.03 18:54:24.
