data_PCOD9367431
_publ_section_title
;
Structure prediction by ZEFSAII (Michael W. Deem and Ramdas Pophale) SiO2 
 PCOD9367431
Probable space group: A B A 2
;
_chemical_formula_sum "Si O2"
_cell_formula_units_Z 32
_cell_length_a 5.230802
_cell_length_b 17.576646
_cell_length_c 12.775056
_cell_angle_alpha 90.000000
_cell_angle_beta 90.000000
_cell_angle_gamma 90.000000
_cell_volume 1174.538074
_symmetry_space_group_name_H-M "A B A 2"
_symmetry_group_IT_number 41
_symmetry_cell_setting 'orthorhombic'
loop_
_space_group_symop_operation_xyz
x,y,z
-x,-y,z
1/2-x,y,1/2+z
1/2+x,-y,1/2+z
x,1/2+y,1/2+z
-x,1/2-y,1/2+z
1/2-x,1/2+y,z
1/2+x,1/2-y,z
loop_
_atom_site_type_symbol
_atom_site_label
_atom_site_fract_x
_atom_site_fract_y
_atom_site_fract_z
Si Si1 0.493277 0.642573 0.459840
Si Si2 0.781880 0.935687 0.132561
Si Si3 0.513215 0.771901 0.637823
Si Si4 0.006259 0.587554 0.352929
O O1 0.425598 0.574411 0.540592
O O2 0.521793 0.716253 0.535454
O O3 0.734160 0.622522 0.387002
O O4 0.231590 0.641446 0.395282
O O5 0.954254 0.859756 0.116156
O O6 0.604459 0.925612 0.234672
O O7 0.000000 0.000000 0.142625
O O8 0.259418 0.755180 0.699276
O O9 0.000000 0.500000 0.397216
#
# Coordination Sequence:
#
# PCOD9367431 Si02
#       4
#     8   8   8   8
#     4  11  25  49  76 112 164 215 269 330 400 490
#     4  11  26  51  85 123 166 213 274 345 416 494
#     4  10  23  46  72 107 154 207 265 319 391 478
#     4  12  27  46  77 122 162 209 272 338 411 480
#
# _framework density 27.244752999999999
#
# number of rings (size 3 to 8) (size 9 to 14) (size 15 to 20)
#    0.000    1.000    0.000    6.000    0.000   16.000 
#    0.000   30.000    0.000    0.000    0.000    7.000 
#    0.000    0.000    0.000    0.000    0.000    0.000 
#
# Total GULP energy -89467.045372 kJ/mol
# GULP energy per Si atom -5591.690336 kJ/mol
# Density = 2.718274 g / cm^3
# Si number density = 27.244753 Si / 1000 Ang^3
#
#
#
# Elastic Constant Matrix: (Units=GPa)
#
#
# Indices 1 2 3 4 5 6 
#
# 1 272.3992 64.6227 66.5440 0.0000 0.0000 0.0000
# 2 64.6227 203.8445 34.5701 0.0000 0.0000 0.0000
# 3 66.5440 34.5701 155.4015 0.0000 0.0000 0.0000
# 4 0.0000 0.0000 0.0000 26.4745 0.0000 0.0000
# 5 0.0000 0.0000 0.0000 0.0000 27.2010 0.0000
# 6 0.0000 0.0000 0.0000 0.0000 0.0000 61.1624
#
#
#
# Elastic Compliance Matrix: (Units=1/GPa)
#
#
# Indices 1 2 3 4 5 6 
#
# 1 0.004324 -0.001098 -0.001607 0.000000 0.000000 0.000000
# 2 -0.001098 0.005377 -0.000726 0.000000 0.000000 0.000000
# 3 -0.001607 -0.000726 0.007285 0.000000 0.000000 0.000000
# 4 0.000000 0.000000 0.000000 0.037772 0.000000 0.000000
# 5 0.000000 0.000000 0.000000 0.000000 0.036763 0.000000
# 6 0.000000 0.000000 0.000000 0.000000 0.000000 0.016350
#
#
# Mechanical properties :
#
#
# Convention : Reuss Voigt Hill
#
# Bulk Modulus (GPa) = 98.78538 107.01318 102.89928
# Shear Modulus (GPa) = 42.33385 54.02815 48.18100
#
# Velocity S-wave (km/s) = 3.94615 4.45799 4.20986
# Velocity P-wave (km/s) = 7.55645 8.11554 7.84098
#
# Compressibility (1/GPa) = 0.01012296
#
# Stress axis : x y z
#
# Youngs Moduli (GPa) = 231.25138 185.97815 137.27400
#
# Poissons Ratio (x) = 0.20426 0.22065
# Poissons Ratio (y) = 0.25398 0.09964
# Poissons Ratio (z) = 0.37171 0.13499
#
# Static dielectric constant tensor:
#      x y z
#    x 2.215370 0.000000 0.000000 
#    y 0.000000 2.134380 0.000000 
#    z 0.000000 0.000000 2.249200 
# 
# From -- ./inp_files/6742.got.cif
#   From: 2010.05.17/outbox.cif.g08.bks.cpg/sg41_4_cif.got.tgz:6742.got - 2010.06.03 18:54:24.
