data_PCOD9367983
_publ_section_title
;
Structure prediction by ZEFSAII (Michael W. Deem and Ramdas Pophale) SiO2 
 PCOD9367983
Probable space group: A B A 2
;
_chemical_formula_sum "Si O2"
_cell_formula_units_Z 24
_cell_length_a 9.505965
_cell_length_b 12.032350
_cell_length_c 8.710920
_cell_angle_alpha 90.000000
_cell_angle_beta 90.000000
_cell_angle_gamma 90.000000
_cell_volume 996.347172
_symmetry_space_group_name_H-M "A B A 2"
_symmetry_group_IT_number 41
_symmetry_cell_setting 'orthorhombic'
loop_
_space_group_symop_operation_xyz
x,y,z
-x,-y,z
1/2-x,y,1/2+z
1/2+x,-y,1/2+z
x,1/2+y,1/2+z
-x,1/2-y,1/2+z
1/2-x,1/2+y,z
1/2+x,1/2-y,z
loop_
_atom_site_type_symbol
_atom_site_label
_atom_site_fract_x
_atom_site_fract_y
_atom_site_fract_z
Si Si1 0.064662 0.613446 0.691490
Si Si2 0.855761 0.969729 0.688111
Si Si3 0.437604 0.829489 0.004961
O O1 0.215110 0.575060 0.761174
O O2 0.088977 0.707427 0.565874
O O3 0.000000 0.500000 0.630477
O O4 0.961313 0.659131 0.824401
O O5 0.916229 0.873681 0.577904
O O6 0.832213 0.079884 0.581693
O O7 0.000000 0.000000 0.779863
#
# Coordination Sequence:
#
# PCOD9367983 Si02
#       3
#     8   8   8
#     4  12  23  48  77 104 151 201 249 316 371 447
#     4   8  22  48  65 106 148 192 244 303 369 450
#     4   9  24  47  71 107 149 187 255 305 373 443
#
# _framework density 24.087989
#
# number of rings (size 3 to 8) (size 9 to 14) (size 15 to 20)
#    2.000    0.000    3.333    0.000    4.667    2.667 
#   12.000    0.000    0.000    0.000    0.000    0.000 
#    0.000    0.000    0.000    0.000    0.000    0.000 
#
# Total GULP energy -66843.127295 kJ/mol
# GULP energy per Si atom -5570.260608 kJ/mol
# Density = 2.403316 g / cm^3
# Si number density = 24.087989 Si / 1000 Ang^3
#
#
#
# Elastic Constant Matrix: (Units=GPa)
#
#
# Indices 1 2 3 4 5 6 
#
# 1 72.8582 54.6325 27.0416 0.0000 0.0000 0.0000
# 2 54.6325 177.4056 46.2039 0.0000 0.0000 0.0000
# 3 27.0416 46.2039 95.0466 0.0000 0.0000 0.0000
# 4 0.0000 0.0000 0.0000 15.8575 0.0000 0.0000
# 5 0.0000 0.0000 0.0000 0.0000 20.5722 0.0000
# 6 0.0000 0.0000 0.0000 0.0000 0.0000 2.2875
#
#
#
# Elastic Compliance Matrix: (Units=1/GPa)
#
#
# Indices 1 2 3 4 5 6 
#
# 1 0.018499 -0.004953 -0.002855 0.000000 0.000000 0.000000
# 2 -0.004953 0.007780 -0.002373 0.000000 0.000000 0.000000
# 3 -0.002855 -0.002373 0.012487 0.000000 0.000000 0.000000
# 4 0.000000 0.000000 0.000000 0.063062 0.000000 0.000000
# 5 0.000000 0.000000 0.000000 0.000000 0.048609 0.000000
# 6 0.000000 0.000000 0.000000 0.000000 0.000000 0.437155
#
#
# Mechanical properties :
#
#
# Convention : Reuss Voigt Hill
#
# Bulk Modulus (GPa) = 54.33727 66.78515 60.56121
# Shear Modulus (GPa) = 8.14214 22.23895 15.19054
#
# Velocity S-wave (km/s) = 1.84052 3.04178 2.51395
# Velocity P-wave (km/s) = 5.20802 6.33421 5.79852
#
# Compressibility (1/GPa) = 0.01840358
#
# Stress axis : x y z
#
# Youngs Moduli (GPa) = 54.05629 128.53228 80.08327
#
# Poissons Ratio (x) = 0.63665 0.22866
# Poissons Ratio (y) = 0.26775 0.19002
# Poissons Ratio (z) = 0.15435 0.30499
#
# Static dielectric constant tensor:
#      x y z
#    x 1.930940 0.000000 0.000000 
#    y 0.000000 1.901750 0.000000 
#    z 0.000000 0.000000 1.915760 
# 
# From -- ./inp_files/4228.got.cif
#   From: 2010.05.17/outbox.cif.g08.bks.cpg/sg41_3_cif.got.tgz:4228.got - 2010.06.03 18:54:24.
