data_PCOD9367360
_publ_section_title
;
Structure prediction by ZEFSAII (Michael W. Deem and Ramdas Pophale) SiO2 
 PCOD9367360
Probable space group: A B A 2
;
_chemical_formula_sum "Si O2"
_cell_formula_units_Z 48
_cell_length_a 10.002810
_cell_length_b 13.802778
_cell_length_c 15.827304
_cell_angle_alpha 90.000000
_cell_angle_beta 90.000000
_cell_angle_gamma 90.000000
_cell_volume 2185.221509
_symmetry_space_group_name_H-M "A B A 2"
_symmetry_group_IT_number 41
_symmetry_cell_setting 'orthorhombic'
loop_
_space_group_symop_operation_xyz
x,y,z
-x,-y,z
1/2-x,y,1/2+z
1/2+x,-y,1/2+z
x,1/2+y,1/2+z
-x,1/2-y,1/2+z
1/2-x,1/2+y,z
1/2+x,1/2-y,z
loop_
_atom_site_type_symbol
_atom_site_label
_atom_site_fract_x
_atom_site_fract_y
_atom_site_fract_z
Si Si1 0.061674 0.404950 0.587320
Si Si2 0.203847 0.189594 0.019345
Si Si3 0.208581 0.876526 0.923334
Si Si4 0.206376 0.255120 0.691534
Si Si5 0.627981 0.447977 0.398362
Si Si6 0.041795 0.243005 0.302355
O O1 0.144497 0.429900 0.503665
O O2 0.154141 0.356345 0.656201
O O3 0.000000 0.500000 0.625959
O O4 0.942854 0.337571 0.551900
O O5 0.293008 0.194195 0.104880
O O6 0.203015 0.291601 0.967863
O O7 0.276009 0.114460 0.958002
O O8 0.095451 0.818779 0.871771
O O9 0.284938 0.958269 0.869451
O O10 0.355748 0.255800 0.725159
O O11 0.105716 0.232202 0.768409
O O12 0.500000 0.500000 0.441102
O O13 0.566942 0.367118 0.334761
#
# Coordination Sequence:
#
# PCOD9367360 Si02
#       6
#     8   8   8   8   8   8
#     4  11  22  42  71  95 128 173 228 271 327 394
#     4  10  23  43  66  98 131 171 225 270 327 393
#     4  10  24  39  71  93 131 173 217 274 330 383
#     4  11  24  44  65  93 137 174 212 273 334 392
#     4  11  24  42  67 100 129 172 228 274 323 394
#     4  11  25  43  67  96 136 176 217 267 343 398
#
# _framework density 21.965737000000001
#
# number of rings (size 3 to 8) (size 9 to 14) (size 15 to 20)
#    0.000    1.333    3.333    1.000   11.667    2.000 
#    0.000    0.000    0.000    0.000    0.000    0.000 
#    0.000    0.000    0.000    0.000    0.000    0.000 
#
# Total GULP energy -133928.458902 kJ/mol
# GULP energy per Si atom -5580.352454 kJ/mol
# Density = 2.191574 g / cm^3
# Si number density = 21.965737 Si / 1000 Ang^3
#
#
#
# Elastic Constant Matrix: (Units=GPa)
#
#
# Indices 1 2 3 4 5 6 
#
# 1 46.8264 11.4733 -3.8558 0.0000 0.0000 0.0000
# 2 11.4733 81.8648 10.2977 0.0000 0.0000 0.0000
# 3 -3.8558 10.2977 60.8946 0.0000 0.0000 0.0000
# 4 0.0000 0.0000 0.0000 15.7594 0.0000 0.0000
# 5 0.0000 0.0000 0.0000 0.0000 38.1418 0.0000
# 6 0.0000 0.0000 0.0000 0.0000 0.0000 23.6981
#
#
#
# Elastic Compliance Matrix: (Units=1/GPa)
#
#
# Indices 1 2 3 4 5 6 
#
# 1 0.022348 -0.003382 0.001987 0.000000 0.000000 0.000000
# 2 -0.003382 0.012993 -0.002411 0.000000 0.000000 0.000000
# 3 0.001987 -0.002411 0.016955 0.000000 0.000000 0.000000
# 4 0.000000 0.000000 0.000000 0.063454 0.000000 0.000000
# 5 0.000000 0.000000 0.000000 0.000000 0.026218 0.000000
# 6 0.000000 0.000000 0.000000 0.000000 0.000000 0.042197
#
#
# Mechanical properties :
#
#
# Convention : Reuss Voigt Hill
#
# Bulk Modulus (GPa) = 22.37981 25.04623 23.71302
# Shear Modulus (GPa) = 24.19289 26.96457 25.57873
#
# Velocity S-wave (km/s) = 3.32232 3.50748 3.41615
# Velocity P-wave (km/s) = 4.99277 5.27545 5.13605
#
# Compressibility (1/GPa) = 0.04468314
#
# Stress axis : x y z
#
# Youngs Moduli (GPa) = 44.74727 76.96717 58.97830
#
# Poissons Ratio (x) = 0.26030 -0.11719
# Poissons Ratio (y) = 0.15133 0.14221
# Poissons Ratio (z) = -0.08891 0.18559
#
# Static dielectric constant tensor:
#      x y z
#    x 1.827260 0.000000 0.000000 
#    y 0.000000 1.816940 0.000000 
#    z 0.000000 0.000000 1.840330 
# 
# From -- ./inp_files/7878.got.cif
#   From: 2010.05.17/outbox.cif.g08.bks.cpg/sg41_4_cif.got.tgz:7878.got - 2010.06.03 18:54:24.
