data_PCOD9367821
_publ_section_title
;
Structure prediction by ZEFSAII (Michael W. Deem and Ramdas Pophale) SiO2 
 PCOD9367821
Probable space group: A B A 2
;
_chemical_formula_sum "Si O2"
_cell_formula_units_Z 48
_cell_length_a 7.807187
_cell_length_b 17.834067
_cell_length_c 14.731525
_cell_angle_alpha 90.000000
_cell_angle_beta 90.000000
_cell_angle_gamma 90.000000
_cell_volume 2051.127620
_symmetry_space_group_name_H-M "A B A 2"
_symmetry_group_IT_number 41
_symmetry_cell_setting 'orthorhombic'
loop_
_space_group_symop_operation_xyz
x,y,z
-x,-y,z
1/2-x,y,1/2+z
1/2+x,-y,1/2+z
x,1/2+y,1/2+z
-x,1/2-y,1/2+z
1/2-x,1/2+y,z
1/2+x,1/2-y,z
loop_
_atom_site_type_symbol
_atom_site_label
_atom_site_fract_x
_atom_site_fract_y
_atom_site_fract_z
Si Si1 0.309030 0.162040 0.688420
Si Si2 0.169145 0.949263 0.586220
Si Si3 0.182538 0.540067 0.827920
Si Si4 0.790303 0.669683 0.732376
Si Si5 0.688176 0.407703 0.003386
Si Si6 0.820583 0.105380 0.914122
O O1 0.241303 0.093083 0.750190
O O2 0.009770 0.342977 0.712965
O O3 0.272031 0.149118 0.583177
O O4 0.313231 0.397384 0.497121
O O5 0.199893 0.894826 0.671020
O O6 0.176189 0.087284 0.421441
O O7 0.309811 0.012946 0.558725
O O8 0.000000 0.000000 0.593147
O O9 0.305225 0.473295 0.860086
O O10 0.000000 0.500000 0.806463
O O11 0.752522 0.755131 0.708561
O O12 0.733283 0.662361 0.836537
O O13 0.492297 0.612417 0.957322
#
# Coordination Sequence:
#
# PCOD9367821 Si02
#       6
#     8   8   8   8   8   8
#     4  12  29  51  69 106 154 194 234 294 371 430
#     4  11  25  45  76 111 139 183 244 302 357 421
#     4  11  23  45  78 107 140 187 240 304 354 420
#     4  12  29  50  71 105 151 195 237 292 362 442
#     4  11  25  46  77 109 140 187 242 305 357 420
#     4  11  23  46  75 110 138 181 245 301 355 418
#
# _framework density 23.401762999999999
#
# number of rings (size 3 to 8) (size 9 to 14) (size 15 to 20)
#    0.000    0.667    3.333    5.000    4.667    4.000 
#    0.000    1.667    0.000    0.000    0.000    0.000 
#    0.000    0.000    0.000    0.000    0.000    0.000 
#
# Total GULP energy -134155.282631 kJ/mol
# GULP energy per Si atom -5589.803443 kJ/mol
# Density = 2.334850 g / cm^3
# Si number density = 23.401763 Si / 1000 Ang^3
#
#
#
# Elastic Constant Matrix: (Units=GPa)
#
#
# Indices 1 2 3 4 5 6 
#
# 1 37.2490 -18.3290 -11.2966 0.0000 0.0000 0.0000
# 2 -18.3290 43.5072 29.8021 0.0000 0.0000 0.0000
# 3 -11.2966 29.8021 136.0105 0.0000 0.0000 0.0000
# 4 0.0000 0.0000 0.0000 42.7528 0.0000 0.0000
# 5 0.0000 0.0000 0.0000 0.0000 32.6180 0.0000
# 6 0.0000 0.0000 0.0000 0.0000 0.0000 12.6138
#
#
#
# Elastic Compliance Matrix: (Units=1/GPa)
#
#
# Indices 1 2 3 4 5 6 
#
# 1 0.033883 0.014527 -0.000369 0.000000 0.000000 0.000000
# 2 0.014527 0.033272 -0.006084 0.000000 0.000000 0.000000
# 3 -0.000369 -0.006084 0.008655 0.000000 0.000000 0.000000
# 4 0.000000 0.000000 0.000000 0.023390 0.000000 0.000000
# 5 0.000000 0.000000 0.000000 0.000000 0.030658 0.000000
# 6 0.000000 0.000000 0.000000 0.000000 0.000000 0.079278
#
#
# Mechanical properties :
#
#
# Convention : Reuss Voigt Hill
#
# Bulk Modulus (GPa) = 10.87452 24.12442 17.49947
# Shear Modulus (GPa) = 22.35732 32.03627 27.19679
#
# Velocity S-wave (km/s) = 3.09426 3.70397 3.41276
# Velocity P-wave (km/s) = 4.17407 5.35011 4.79826
#
# Compressibility (1/GPa) = 0.09195809
#
# Stress axis : x y z
#
# Youngs Moduli (GPa) = 29.51360 30.05513 115.54267
#
# Poissons Ratio (x) = -0.43661 0.04262
# Poissons Ratio (y) = -0.42874 0.70295
# Poissons Ratio (z) = 0.01089 0.18285
#
# Static dielectric constant tensor:
#      x y z
#    x 1.924360 0.000000 0.000000 
#    y 0.000000 1.920170 0.000000 
#    z 0.000000 0.000000 1.949340 
# 
# From -- ./inp_files/8339.got.cif
#   From: 2010.05.17/outbox.cif.g08.bks.cpg/sg41_5_cif.got.tgz:8339.got - 2010.06.03 18:54:24.
