data_PCOD9367397
_publ_section_title
;
Structure prediction by ZEFSAII (Michael W. Deem and Ramdas Pophale) SiO2 
 PCOD9367397
Probable space group: A B A 2
;
_chemical_formula_sum "Si O2"
_cell_formula_units_Z 48
_cell_length_a 8.910002
_cell_length_b 13.564890
_cell_length_c 16.354195
_cell_angle_alpha 90.000000
_cell_angle_beta 90.000000
_cell_angle_gamma 90.000000
_cell_volume 1976.620293
_symmetry_space_group_name_H-M "A B A 2"
_symmetry_group_IT_number 41
_symmetry_cell_setting 'orthorhombic'
loop_
_space_group_symop_operation_xyz
x,y,z
-x,-y,z
1/2-x,y,1/2+z
1/2+x,-y,1/2+z
x,1/2+y,1/2+z
-x,1/2-y,1/2+z
1/2-x,1/2+y,z
1/2+x,1/2-y,z
loop_
_atom_site_type_symbol
_atom_site_label
_atom_site_fract_x
_atom_site_fract_y
_atom_site_fract_z
Si Si1 0.060236 0.636006 0.532700
Si Si2 0.500000 0.500000 0.489818
Si Si3 0.137176 0.284674 0.734102
Si Si4 0.500000 0.500000 0.890759
Si Si5 0.292339 0.844116 0.074268
Si Si6 0.197406 0.950597 0.338096
Si Si7 0.831632 0.391132 0.699765
O O1 0.142304 0.740530 0.540675
O O2 0.143229 0.575512 0.606231
O O3 0.078997 0.580167 0.448411
O O4 0.878192 0.642942 0.539745
O O5 0.424121 0.419487 0.549679
O O6 0.368103 0.498656 0.420390
O O7 0.251640 0.337847 0.670399
O O8 0.148824 0.337978 0.821682
O O9 0.183541 0.171460 0.722433
O O10 0.970138 0.314384 0.708332
O O11 0.374856 0.447442 0.839527
O O12 0.153015 0.021125 0.263271
#
# Coordination Sequence:
#
# PCOD9367397 Si02
#       7
#     8   4   8   4   8   8   8
#     4  10  24  45  69  97 131 181 229 277 337 401
#     4  12  24  44  66 102 138 180 222 280 354 408
#     4  10  23  45  67  98 129 177 229 273 335 402
#     4  12  28  42  64 106 138 176 228 282 352 412
#     4  10  24  44  70  98 132 178 232 277 330 408
#     4  12  26  43  66 100 139 179 222 282 353 408
#     4  10  23  44  71  93 131 179 225 278 332 404
#
# _framework density 24.283875999999999
#
# number of rings (size 3 to 8) (size 9 to 14) (size 15 to 20)
#    0.000    1.333    3.333    0.000    9.333    3.333 
#    6.000    0.000    0.000    0.000    0.000    0.000 
#    0.000    0.000    0.000    0.000    0.000    0.000 
#
# Total GULP energy -133877.763092 kJ/mol
# GULP energy per Si atom -5578.240129 kJ/mol
# Density = 2.422860 g / cm^3
# Si number density = 24.283876 Si / 1000 Ang^3
#
#
#
# Elastic Constant Matrix: (Units=GPa)
#
#
# Indices 1 2 3 4 5 6 
#
# 1 79.3815 9.9122 11.5336 0.0000 0.0000 0.0000
# 2 9.9122 66.7869 13.7446 0.0000 0.0000 0.0000
# 3 11.5336 13.7446 44.0812 0.0000 0.0000 0.0000
# 4 0.0000 0.0000 0.0000 1.4249 0.0000 0.0000
# 5 0.0000 0.0000 0.0000 0.0000 -40.2447 0.0000
# 6 0.0000 0.0000 0.0000 0.0000 0.0000 42.7596
#
#
#
# Elastic Compliance Matrix: (Units=1/GPa)
#
#
# Indices 1 2 3 4 5 6 
#
# 1 0.013206 -0.001334 -0.003039 0.000000 0.000000 0.000000
# 2 -0.001334 0.016135 -0.004682 0.000000 0.000000 0.000000
# 3 -0.003039 -0.004682 0.024940 0.000000 0.000000 0.000000
# 4 0.000000 0.000000 0.000000 0.701826 0.000000 0.000000
# 5 0.000000 0.000000 0.000000 0.000000 -0.024848 0.000000
# 6 0.000000 0.000000 0.000000 0.000000 0.000000 0.023387
#
#
# Mechanical properties :
#
#
# Convention : Reuss Voigt Hill
#
# Bulk Modulus (GPa) = 27.64717 28.95893 28.30305
# Shear Modulus (GPa) = 6.37095 11.12524 8.74809
#
# Velocity S-wave (km/s) = 1.62149 2.14273 1.90007
# Velocity P-wave (km/s) = 3.86204 4.25121 4.06129
#
# Compressibility (1/GPa) = 0.03617007
#
# Stress axis : x y z
#
# Youngs Moduli (GPa) = 75.72560 61.97890 40.09575
#
# Poissons Ratio (x) = 0.08271 0.12185
# Poissons Ratio (y) = 0.10105 0.18771
# Poissons Ratio (z) = 0.23013 0.29016
#
# Static dielectric constant tensor:
#      x y z
#    x 1.930280 0.000000 0.000000 
#    y 0.000000 1.978610 0.000000 
#    z 0.000000 0.000000 1.987600 
# 
# From -- ./inp_files/7358.got.cif
#   From: 2010.05.17/outbox.cif.g08.bks.cpg/sg41_4_cif.got.tgz:7358.got - 2010.06.03 18:54:24.
