data_PCOD9367120
_publ_section_title
;
Structure prediction by ZEFSAII (Michael W. Deem and Ramdas Pophale) SiO2 
 PCOD9367120
Probable space group: A B A 2
;
_chemical_formula_sum "Si O2"
_cell_formula_units_Z 56
_cell_length_a 9.353564
_cell_length_b 19.827518
_cell_length_c 13.513779
_cell_angle_alpha 90.000000
_cell_angle_beta 90.000000
_cell_angle_gamma 90.000000
_cell_volume 2506.237866
_symmetry_space_group_name_H-M "A B A 2"
_symmetry_group_IT_number 41
_symmetry_cell_setting 'orthorhombic'
loop_
_space_group_symop_operation_xyz
x,y,z
-x,-y,z
1/2-x,y,1/2+z
1/2+x,-y,1/2+z
x,1/2+y,1/2+z
-x,1/2-y,1/2+z
1/2-x,1/2+y,z
1/2+x,1/2-y,z
loop_
_atom_site_type_symbol
_atom_site_label
_atom_site_fract_x
_atom_site_fract_y
_atom_site_fract_z
Si Si1 0.826958 0.347109 0.893150
Si Si2 0.649463 0.741683 0.736446
Si Si3 0.277415 0.906923 0.234431
Si Si4 0.869755 0.784572 0.601164
Si Si5 0.022476 0.078619 0.869868
Si Si6 0.698976 0.133750 0.526953
Si Si7 0.074277 0.434846 0.897538
O O1 0.865215 0.275664 0.842682
O O2 0.673829 0.382835 0.875351
O O3 0.944725 0.396145 0.847765
O O4 0.857646 0.336011 0.010215
O O5 0.738916 0.673381 0.754601
O O6 0.742727 0.796922 0.678367
O O7 0.514819 0.723071 0.666085
O O8 0.444259 0.916404 0.262308
O O9 0.216325 0.912668 0.124728
O O10 0.189836 0.950947 0.312902
O O11 0.826700 0.710613 0.558497
O O12 0.000000 0.000000 0.895660
O O13 0.925625 0.115278 0.951800
O O14 0.844988 0.116348 0.469932
O O15 0.000000 0.500000 0.945522
#
# Coordination Sequence:
#
# PCOD9367120 Si02
#       7
#     8   8   8   8   8   8   8
#     4  12  22  38  66  92 126 168 205 269 330 372
#     4  11  23  39  63  97 127 158 208 263 326 400
#     4  10  22  42  63  86 124 165 203 264 328 381
#     4  11  23  39  63  97 127 158 208 263 326 400
#     4  11  24  41  62  91 124 165 222 267 310 388
#     4  10  22  42  63  86 124 165 203 264 328 381
#     4  11  24  41  60  87 122 167 216 252 305 384
#
# _framework density 22.344248
#
# number of rings (size 3 to 8) (size 9 to 14) (size 15 to 20)
#    0.000    1.143    0.000    8.571    0.000    4.571 
#    0.000    5.714    0.000    0.000    0.000    0.000 
#    0.000    0.000    0.000    0.000    0.000    0.000 
#
# Total GULP energy -156022.217134 kJ/mol
# GULP energy per Si atom -5572.222041 kJ/mol
# Density = 2.229339 g / cm^3
# Si number density = 22.344248 Si / 1000 Ang^3
#
#
#
# Elastic Constant Matrix: (Units=GPa)
#
#
# Indices 1 2 3 4 5 6 
#
# 1 141.1614 17.6687 28.7772 0.0000 0.0000 0.0000
# 2 17.6687 70.5236 -0.7639 0.0000 0.0000 0.0000
# 3 28.7772 -0.7639 68.5389 0.0000 0.0000 0.0000
# 4 0.0000 0.0000 0.0000 23.7903 0.0000 0.0000
# 5 0.0000 0.0000 0.0000 0.0000 23.2067 0.0000
# 6 0.0000 0.0000 0.0000 0.0000 0.0000 21.0742
#
#
#
# Elastic Compliance Matrix: (Units=1/GPa)
#
#
# Indices 1 2 3 4 5 6 
#
# 1 0.008033 -0.002049 -0.003396 0.000000 0.000000 0.000000
# 2 -0.002049 0.014704 0.001024 0.000000 0.000000 0.000000
# 3 -0.003396 0.001024 0.016027 0.000000 0.000000 0.000000
# 4 0.000000 0.000000 0.000000 0.042034 0.000000 0.000000
# 5 0.000000 0.000000 0.000000 0.000000 0.043091 0.000000
# 6 0.000000 0.000000 0.000000 0.000000 0.000000 0.047451
#
#
# Mechanical properties :
#
#
# Convention : Reuss Voigt Hill
#
# Bulk Modulus (GPa) = 33.41880 41.28752 37.35316
# Shear Modulus (GPa) = 26.29416 29.25035 27.77225
#
# Velocity S-wave (km/s) = 3.43414 3.62204 3.52934
# Velocity P-wave (km/s) = 5.54195 6.00086 5.77596
#
# Compressibility (1/GPa) = 0.02992328
#
# Stress axis : x y z
#
# Youngs Moduli (GPa) = 124.48946 68.00799 62.39334
#
# Poissons Ratio (x) = 0.13937 0.21186
# Poissons Ratio (y) = 0.25511 -0.06391
# Poissons Ratio (z) = 0.42271 -0.06966
#
# Static dielectric constant tensor:
#      x y z
#    x 1.862750 0.000000 0.000000 
#    y 0.000000 1.859350 0.000000 
#    z 0.000000 0.000000 1.919630 
# 
# From -- ./inp_files/7483.got.cif
#   From: 2010.05.17/outbox.cif.g08.bks.cpg/sg41_4_cif.got.tgz:7483.got - 2010.06.03 18:54:24.
