data_PCOD9367493
_publ_section_title
;
Structure prediction by ZEFSAII (Michael W. Deem and Ramdas Pophale) SiO2 
 PCOD9367493
Probable space group: A B A 2
;
_chemical_formula_sum "Si O2"
_cell_formula_units_Z 40
_cell_length_a 18.714022
_cell_length_b 7.780088
_cell_length_c 11.426696
_cell_angle_alpha 90.000000
_cell_angle_beta 90.000000
_cell_angle_gamma 90.000000
_cell_volume 1663.689664
_symmetry_space_group_name_H-M "A B A 2"
_symmetry_group_IT_number 41
_symmetry_cell_setting 'orthorhombic'
loop_
_space_group_symop_operation_xyz
x,y,z
-x,-y,z
1/2-x,y,1/2+z
1/2+x,-y,1/2+z
x,1/2+y,1/2+z
-x,1/2-y,1/2+z
1/2-x,1/2+y,z
1/2+x,1/2-y,z
loop_
_atom_site_type_symbol
_atom_site_label
_atom_site_fract_x
_atom_site_fract_y
_atom_site_fract_z
Si Si1 0.159738 0.355331 0.414250
Si Si2 0.294211 0.689891 0.036603
Si Si3 0.677567 0.484484 0.664421
Si Si4 0.035109 0.687490 0.214278
Si Si5 0.494359 0.202522 0.966240
O O1 0.160025 0.536673 0.483772
O O2 0.226209 0.240520 0.456425
O O3 0.172243 0.409925 0.282329
O O4 0.084779 0.262513 0.429233
O O5 0.253576 0.606145 0.147510
O O6 0.331792 0.869873 0.064691
O O7 0.615604 0.344045 0.669685
O O8 0.000000 0.500000 0.232015
O O9 0.037292 0.762623 0.345392
O O10 0.995295 0.773052 0.100981
O O11 0.500000 0.000000 0.984087
#
# Coordination Sequence:
#
# PCOD9367493 Si02
#       5
#     8   8   8   8   8
#     4  11  22  44  68 102 134 183 233 294 362 425
#     4  10  24  42  70 104 139 175 234 299 368 418
#     4  11  22  44  69 102 139 179 233 296 353 431
#     4  11  24  47  68 100 143 184 238 295 353 424
#     4  11  26  46  70 100 144 192 243 293 357 428
#
# _framework density 24.042943999999999
#
# number of rings (size 3 to 8) (size 9 to 14) (size 15 to 20)
#    0.000    1.200    4.000    1.200    0.000    5.600 
#    3.600    0.000    0.000    0.000    0.000    0.000 
#    0.000    0.000    0.000    0.000    0.000    0.000 
#
# Total GULP energy -111741.600124 kJ/mol
# GULP energy per Si atom -5587.080006 kJ/mol
# Density = 2.398822 g / cm^3
# Si number density = 24.042944 Si / 1000 Ang^3
#
#
#
# Elastic Constant Matrix: (Units=GPa)
#
#
# Indices 1 2 3 4 5 6 
#
# 1 75.1689 23.8598 10.7863 0.0000 0.0000 0.0000
# 2 23.8598 88.4374 29.6536 0.0000 0.0000 0.0000
# 3 10.7863 29.6536 121.6052 0.0000 0.0000 0.0000
# 4 0.0000 0.0000 0.0000 46.4432 0.0000 0.0000
# 5 0.0000 0.0000 0.0000 0.0000 16.6941 0.0000
# 6 0.0000 0.0000 0.0000 0.0000 0.0000 37.9575
#
#
#
# Elastic Compliance Matrix: (Units=1/GPa)
#
#
# Indices 1 2 3 4 5 6 
#
# 1 0.014564 -0.003807 -0.000363 0.000000 0.000000 0.000000
# 2 -0.003807 0.013310 -0.002908 0.000000 0.000000 0.000000
# 3 -0.000363 -0.002908 0.008965 0.000000 0.000000 0.000000
# 4 0.000000 0.000000 0.000000 0.021532 0.000000 0.000000
# 5 0.000000 0.000000 0.000000 0.000000 0.059901 0.000000
# 6 0.000000 0.000000 0.000000 0.000000 0.000000 0.026345
#
#
# Mechanical properties :
#
#
# Convention : Reuss Voigt Hill
#
# Bulk Modulus (GPa) = 44.08972 45.97899 45.03436
# Shear Modulus (GPa) = 30.05996 34.94642 32.50319
#
# Velocity S-wave (km/s) = 3.53974 3.81662 3.68078
# Velocity P-wave (km/s) = 5.92318 6.21187 6.06924
#
# Compressibility (1/GPa) = 0.02268103
#
# Stress axis : x y z
#
# Youngs Moduli (GPa) = 68.66223 75.13332 111.54926
#
# Poissons Ratio (x) = 0.28607 0.04053
# Poissons Ratio (y) = 0.26143 0.32437
# Poissons Ratio (z) = 0.02495 0.21848
#
# Static dielectric constant tensor:
#      x y z
#    x 1.996850 0.000000 0.000000 
#    y 0.000000 1.917220 0.000000 
#    z 0.000000 0.000000 1.983800 
# 
# From -- ./inp_files/5827.got.cif
#   From: 2010.05.17/outbox.cif.g08.bks.cpg/sg41_3_cif.got.tgz:5827.got - 2010.06.03 18:54:24.
