data_PCOD9367744
_publ_section_title
;
Structure prediction by ZEFSAII (Michael W. Deem and Ramdas Pophale) SiO2 
 PCOD9367744
Probable space group: A B A 2
;
_chemical_formula_sum "Si O2"
_cell_formula_units_Z 44
_cell_length_a 10.078168
_cell_length_b 19.782974
_cell_length_c 9.018948
_cell_angle_alpha 90.000000
_cell_angle_beta 90.000000
_cell_angle_gamma 90.000000
_cell_volume 1798.162999
_symmetry_space_group_name_H-M "A B A 2"
_symmetry_group_IT_number 41
_symmetry_cell_setting 'orthorhombic'
loop_
_space_group_symop_operation_xyz
x,y,z
-x,-y,z
1/2-x,y,1/2+z
1/2+x,-y,1/2+z
x,1/2+y,1/2+z
-x,1/2-y,1/2+z
1/2-x,1/2+y,z
1/2+x,1/2-y,z
loop_
_atom_site_type_symbol
_atom_site_label
_atom_site_fract_x
_atom_site_fract_y
_atom_site_fract_z
Si Si1 0.359261 0.936319 0.288680
Si Si2 0.410689 0.752478 0.508566
Si Si3 0.299894 0.025159 0.013024
Si Si4 0.352422 0.288717 0.680520
Si Si5 0.500000 0.500000 0.283235
Si Si6 0.035743 0.100456 0.039091
O O1 0.354859 0.989897 0.158199
O O2 0.266643 0.965204 0.417439
O O3 0.312090 0.863323 0.233927
O O4 0.496773 0.924166 0.374430
O O5 0.515838 0.701384 0.580229
O O6 0.388006 0.748564 0.332069
O O7 0.269015 0.755900 0.590381
O O8 0.488314 0.823037 0.542104
O O9 0.190662 0.081291 0.054124
O O10 0.412262 0.044720 0.895858
O O11 0.542662 0.556697 0.162934
#
# Coordination Sequence:
#
# PCOD9367744 Si02
#       6
#     8   8   8   8   4   8
#     4  11  22  42  73  93 139 185 228 279 356 419
#     4  11  25  48  74 105 142 190 243 298 357 427
#     4  12  23  41  66 102 136 181 230 284 350 426
#     4  11  24  46  74 101 140 187 241 294 357 419
#     4  12  24  38  64  98 138 180 224 284 354 404
#     4  11  24  46  68 100 145 183 233 292 346 436
#
# _framework density 24.469415999999999
#
# number of rings (size 3 to 8) (size 9 to 14) (size 15 to 20)
#    0.000    0.727    3.636    4.364    2.545    1.455 
#   13.091    0.000    0.000    0.000    0.000    0.000 
#    0.000    0.000    0.000    0.000    0.000    0.000 
#
# Total GULP energy -122998.156930 kJ/mol
# GULP energy per Si atom -5590.825315 kJ/mol
# Density = 2.441372 g / cm^3
# Si number density = 24.469416 Si / 1000 Ang^3
#
#
#
# Elastic Constant Matrix: (Units=GPa)
#
#
# Indices 1 2 3 4 5 6 
#
# 1 112.4875 -5.5285 58.5551 0.0000 0.0000 0.0000
# 2 -5.5285 29.0629 9.4725 0.0000 0.0000 0.0000
# 3 58.5551 9.4725 177.9460 0.0000 0.0000 0.0000
# 4 0.0000 0.0000 0.0000 25.1160 0.0000 0.0000
# 5 0.0000 0.0000 0.0000 0.0000 51.3722 0.0000
# 6 0.0000 0.0000 0.0000 0.0000 0.0000 17.9308
#
#
#
# Elastic Compliance Matrix: (Units=1/GPa)
#
#
# Indices 1 2 3 4 5 6 
#
# 1 0.011037 0.003341 -0.003810 0.000000 0.000000 0.000000
# 2 0.003341 0.036027 -0.003017 0.000000 0.000000 0.000000
# 3 -0.003810 -0.003017 0.007034 0.000000 0.000000 0.000000
# 4 0.000000 0.000000 0.000000 0.039815 0.000000 0.000000
# 5 0.000000 0.000000 0.000000 0.000000 0.019466 0.000000
# 6 0.000000 0.000000 0.000000 0.000000 0.000000 0.055770
#
#
# Mechanical properties :
#
#
# Convention : Reuss Voigt Hill
#
# Bulk Modulus (GPa) = 21.21935 49.38828 35.30382
# Shear Modulus (GPa) = 26.06475 36.01695 31.04085
#
# Velocity S-wave (km/s) = 3.26728 3.84072 3.56554
# Velocity P-wave (km/s) = 4.78791 6.31630 5.60445
#
# Compressibility (1/GPa) = 0.04712679
#
# Stress axis : x y z
#
# Youngs Moduli (GPa) = 90.60208 27.75681 142.16745
#
# Poissons Ratio (x) = -0.09274 0.54163
# Poissons Ratio (y) = -0.30273 0.42896
# Poissons Ratio (z) = 0.34518 0.08375
#
# Static dielectric constant tensor:
#      x y z
#    x 2.088860 0.000000 0.000000 
#    y 0.000000 2.003360 0.000000 
#    z 0.000000 0.000000 1.910020 
# 
# From -- ./inp_files/2075.got.cif
#   From: 2010.05.17/outbox.cif.g08.bks.cpg/sg41_2_cif.got.tgz:2075.got - 2010.06.03 18:54:24.
