data_PCOD9367546
_publ_section_title
;
Structure prediction by ZEFSAII (Michael W. Deem and Ramdas Pophale) SiO2 
 PCOD9367546
Probable space group: A B A 2
;
_chemical_formula_sum "Si O2"
_cell_formula_units_Z 40
_cell_length_a 22.706625
_cell_length_b 14.170995
_cell_length_c 4.801603
_cell_angle_alpha 90.000000
_cell_angle_beta 90.000000
_cell_angle_gamma 90.000000
_cell_volume 1545.038059
_symmetry_space_group_name_H-M "A B A 2"
_symmetry_group_IT_number 41
_symmetry_cell_setting 'orthorhombic'
loop_
_space_group_symop_operation_xyz
x,y,z
-x,-y,z
1/2-x,y,1/2+z
1/2+x,-y,1/2+z
x,1/2+y,1/2+z
-x,1/2-y,1/2+z
1/2-x,1/2+y,z
1/2+x,1/2-y,z
loop_
_atom_site_type_symbol
_atom_site_label
_atom_site_fract_x
_atom_site_fract_y
_atom_site_fract_z
Si Si1 0.042053 0.644721 0.774720
Si Si2 0.459881 0.357812 0.772386
Si Si3 0.626321 0.990252 0.114056
Si Si4 0.789778 0.133997 0.306073
Si Si5 0.209551 0.153424 0.921558
O O1 0.064051 0.752170 0.816402
O O2 0.163691 0.578520 0.310429
O O3 0.086885 0.571964 0.905584
O O4 0.982608 0.637491 0.956772
O O5 0.517944 0.369450 0.963884
O O6 0.413325 0.440068 0.801403
O O7 0.667079 0.056607 0.924351
O O8 0.770557 0.124949 0.987218
O O9 0.811960 0.239985 0.366101
O O10 0.230745 0.142792 0.237222
#
# Coordination Sequence:
#
# PCOD9367546 Si02
#       5
#     8   8   8   8   8
#     4  10  25  47  68  99 142 181 228 289 345 406
#     4  10  25  47  68  99 142 181 228 289 345 406
#     4  12  25  44  78 104 132 190 239 280 348 416
#     4  10  24  45  68 102 143 179 226 287 346 412
#     4  10  24  45  68 102 143 179 226 287 346 412
#
# _framework density 25.889330000000001
#
# number of rings (size 3 to 8) (size 9 to 14) (size 15 to 20)
#    0.000    1.600    0.000    1.800    0.000   19.200 
#    0.000    4.000    0.000    0.000    0.000    0.000 
#    0.000    0.000    0.000    0.000    0.000    0.000 
#
# Total GULP energy -112327.099464 kJ/mol
# GULP energy per Si atom -5616.354973 kJ/mol
# Density = 2.583041 g / cm^3
# Si number density = 25.889330 Si / 1000 Ang^3
#
#
#
# Elastic Constant Matrix: (Units=GPa)
#
#
# Indices 1 2 3 4 5 6 
#
# 1 67.1784 95.0100 -1.7989 0.0000 0.0000 0.0000
# 2 95.0100 232.7223 21.7437 0.0000 0.0000 0.0000
# 3 -1.7989 21.7437 83.6648 0.0000 0.0000 0.0000
# 4 0.0000 0.0000 0.0000 40.4825 0.0000 0.0000
# 5 0.0000 0.0000 0.0000 0.0000 7.1268 0.0000
# 6 0.0000 0.0000 0.0000 0.0000 0.0000 -162.1030
#
#
#
# Elastic Compliance Matrix: (Units=1/GPa)
#
#
# Indices 1 2 3 4 5 6 
#
# 1 0.037045 -0.015577 0.004845 0.000000 0.000000 0.000000
# 2 -0.015577 0.010953 -0.003182 0.000000 0.000000 0.000000
# 3 0.004845 -0.003182 0.012883 0.000000 0.000000 0.000000
# 4 0.000000 0.000000 0.000000 0.024702 0.000000 0.000000
# 5 0.000000 0.000000 0.000000 0.000000 0.140314 0.000000
# 6 0.000000 0.000000 0.000000 0.000000 0.000000 -0.006169
#
#
# Mechanical properties :
#
#
# Convention : Reuss Voigt Hill
#
# Bulk Modulus (GPa) = 30.25232 68.16390 49.20811
# Shear Modulus (GPa) = 19.33673 -4.99135 7.17269
#
# Velocity S-wave (km/s) = 2.73591 -1.39001 1.66629
# Velocity P-wave (km/s) = 4.65735 4.87954 4.76974
#
# Compressibility (1/GPa) = 0.03305532
#
# Stress axis : x y z
#
# Youngs Moduli (GPa) = 26.99394 91.29544 77.61868
#
# Poissons Ratio (x) = 1.42207 -0.37604
# Poissons Ratio (y) = 0.42047 0.24695
# Poissons Ratio (z) = -0.13078 0.29047
#
# Static dielectric constant tensor:
#      x y z
#    x 2.013090 0.000000 0.000000 
#    y 0.000000 2.004830 0.000000 
#    z 0.000000 0.000000 1.945410 
# 
# From -- ./inp_files/919.got.cif
#   From: 2010.05.17/outbox.cif.g08.bks.cpg/sg41_1_cif.got.tgz:919.got - 2010.06.03 18:54:24.
