data_PCOD9367142
_publ_section_title
;
Structure prediction by ZEFSAII (Michael W. Deem and Ramdas Pophale) SiO2 
 PCOD9367142
Probable space group: A B A 2
;
_chemical_formula_sum "Si O2"
_cell_formula_units_Z 56
_cell_length_a 9.418470
_cell_length_b 13.280295
_cell_length_c 18.691612
_cell_angle_alpha 90.000000
_cell_angle_beta 90.000000
_cell_angle_gamma 90.000000
_cell_volume 2337.947951
_symmetry_space_group_name_H-M "A B A 2"
_symmetry_group_IT_number 41
_symmetry_cell_setting 'orthorhombic'
loop_
_space_group_symop_operation_xyz
x,y,z
-x,-y,z
1/2-x,y,1/2+z
1/2+x,-y,1/2+z
x,1/2+y,1/2+z
-x,1/2-y,1/2+z
1/2-x,1/2+y,z
1/2+x,1/2-y,z
loop_
_atom_site_type_symbol
_atom_site_label
_atom_site_fract_x
_atom_site_fract_y
_atom_site_fract_z
Si Si1 0.126916 0.420727 0.204070
Si Si2 0.198460 0.332090 0.824254
Si Si3 0.981969 0.757633 0.488203
Si Si4 0.223119 0.116187 0.980215
Si Si5 0.261864 0.379433 0.491002
Si Si6 0.905536 0.799184 0.248473
Si Si7 0.348941 0.047064 0.625293
O O1 0.781358 0.583461 0.277687
O O2 0.928240 0.695147 0.202681
O O3 0.765677 0.540178 0.142578
O O4 0.000000 0.500000 0.207060
O O5 0.272921 0.229773 0.797639
O O6 0.219690 0.349370 0.907274
O O7 0.038685 0.325328 0.797526
O O8 0.868509 0.834605 0.453094
O O9 0.869436 0.681908 0.524465
O O10 0.092315 0.835598 0.523879
O O11 0.206491 0.126445 0.066564
O O12 0.230841 0.996360 0.981439
O O13 0.085594 0.174907 0.950001
O O14 0.874194 0.890620 0.196870
O O15 0.500000 0.000000 0.603477
#
# Coordination Sequence:
#
# PCOD9367142 Si02
#       7
#     8   8   8   8   8   8   8
#     4  10  24  40  64 101 133 180 227 278 349 406
#     4  10  22  42  67  95 136 176 223 284 340 413
#     4  10  24  45  65 103 128 186 229 278 358 405
#     4  11  26  44  72  97 141 181 241 289 352 418
#     4  11  22  45  67 102 137 179 233 291 346 423
#     4  10  22  43  63  98 137 179 226 277 346 412
#     4  12  23  44  69 102 138 183 231 287 354 416
#
# _framework density 23.952629000000002
#
# number of rings (size 3 to 8) (size 9 to 14) (size 15 to 20)
#    0.857    0.571    1.429    3.429    0.000    8.000 
#   12.857    0.000    0.000    0.000    0.000    0.000 
#    0.000    0.000    0.000    0.000    0.000    0.000 
#
# Total GULP energy -156082.091207 kJ/mol
# GULP energy per Si atom -5574.360400 kJ/mol
# Density = 2.389811 g / cm^3
# Si number density = 23.952629 Si / 1000 Ang^3
#
#
#
# Elastic Constant Matrix: (Units=GPa)
#
#
# Indices 1 2 3 4 5 6 
#
# 1 149.3213 50.6969 17.8700 0.0000 0.0000 0.0000
# 2 50.6969 158.3538 1.3466 0.0000 0.0000 0.0000
# 3 17.8700 1.3466 66.0479 0.0000 0.0000 0.0000
# 4 0.0000 0.0000 0.0000 26.7967 0.0000 0.0000
# 5 0.0000 0.0000 0.0000 0.0000 14.2844 0.0000
# 6 0.0000 0.0000 0.0000 0.0000 0.0000 47.6640
#
#
#
# Elastic Compliance Matrix: (Units=1/GPa)
#
#
# Indices 1 2 3 4 5 6 
#
# 1 0.007783 -0.002474 -0.002055 0.000000 0.000000 0.000000
# 2 -0.002474 0.007103 0.000525 0.000000 0.000000 0.000000
# 3 -0.002055 0.000525 0.015686 0.000000 0.000000 0.000000
# 4 0.000000 0.000000 0.000000 0.037318 0.000000 0.000000
# 5 0.000000 0.000000 0.000000 0.000000 0.070007 0.000000
# 6 0.000000 0.000000 0.000000 0.000000 0.000000 0.020980
#
#
# Mechanical properties :
#
#
# Convention : Reuss Voigt Hill
#
# Bulk Modulus (GPa) = 44.32300 57.06114 50.69207
# Shear Modulus (GPa) = 28.66861 38.00298 33.33580
#
# Velocity S-wave (km/s) = 3.46336 3.98752 3.73465
# Velocity P-wave (km/s) = 5.87688 6.71377 6.30922
#
# Compressibility (1/GPa) = 0.02256165
#
# Stress axis : x y z
#
# Youngs Moduli (GPa) = 128.48544 140.79275 63.75141
#
# Poissons Ratio (x) = 0.34836 0.13103
# Poissons Ratio (y) = 0.31790 -0.03345
# Poissons Ratio (z) = 0.26408 -0.07386
#
# Static dielectric constant tensor:
#      x y z
#    x 1.935740 0.000000 0.000000 
#    y 0.000000 1.934840 0.000000 
#    z 0.000000 0.000000 1.943410 
# 
# From -- ./inp_files/11211.got.cif
#   From: 2010.05.17/outbox.cif.g08.bks.cpg/sg41_6_cif.got.tgz:11211.got - 2010.06.03 18:54:24.
