data_PCOD9367629
_publ_section_title
;
Structure prediction by ZEFSAII (Michael W. Deem and Ramdas Pophale) SiO2 
 PCOD9367629
Probable space group: A B A 2
;
_chemical_formula_sum "Si O2"
_cell_formula_units_Z 60
_cell_length_a 27.807534
_cell_length_b 5.835924
_cell_length_c 15.195466
_cell_angle_alpha 90.000000
_cell_angle_beta 90.000000
_cell_angle_gamma 90.000000
_cell_volume 2465.960567
_symmetry_space_group_name_H-M "A B A 2"
_symmetry_group_IT_number 41
_symmetry_cell_setting 'orthorhombic'
loop_
_space_group_symop_operation_xyz
x,y,z
-x,-y,z
1/2-x,y,1/2+z
1/2+x,-y,1/2+z
x,1/2+y,1/2+z
-x,1/2-y,1/2+z
1/2-x,1/2+y,z
1/2+x,1/2-y,z
loop_
_atom_site_type_symbol
_atom_site_label
_atom_site_fract_x
_atom_site_fract_y
_atom_site_fract_z
Si Si1 0.772097 0.953184 0.816790
Si Si2 0.000000 0.000000 0.089482
Si Si3 0.630940 0.509313 0.533644
Si Si4 0.760235 0.962787 0.514359
Si Si5 0.553566 0.005121 0.287869
Si Si6 0.635401 0.775952 0.225147
Si Si7 0.036346 0.677179 0.945863
Si Si8 0.601413 0.363857 0.160950
O O1 0.745850 0.710007 0.790903
O O2 0.769528 0.956371 0.923389
O O3 0.824570 0.910761 0.777335
O O4 0.050350 0.015423 0.140057
O O5 0.993383 0.223621 0.028437
O O6 0.683006 0.477112 0.491935
O O7 0.631212 0.363086 0.624417
O O8 0.585984 0.433219 0.476173
O O9 0.621494 0.764405 0.569758
O O10 0.751567 0.711482 0.558726
O O11 0.548607 0.111256 0.383401
O O12 0.585312 0.168917 0.227661
O O13 0.500000 0.000000 0.249891
O O14 0.585548 0.780793 0.280590
O O15 0.642586 0.508194 0.208473
O O16 0.000000 0.500000 0.899570
#
# Coordination Sequence:
#
# PCOD9367629 Si02
#       8
#     8   4   8   8   8   8   8   8
#     4  10  25  48  73 104 143 191 244 313 387 448
#     4  12  22  44  68 100 152 192 236 298 370 432
#     4  11  26  45  73 106 142 191 252 303 382 453
#     4  10  25  47  75 106 141 192 242 319 383 450
#     4  11  27  43  68 108 144 193 247 299 371 447
#     4  11  26  46  74 102 142 193 247 306 373 468
#     4  12  26  44  67 108 149 194 244 307 367 454
#     4  11  25  44  72 102 146 197 244 305 370 461
#
# _framework density 24.331289000000002
#
# number of rings (size 3 to 8) (size 9 to 14) (size 15 to 20)
#    0.000    1.067    3.333    0.800   14.000    2.133 
#    2.400    0.000    0.000    0.000    0.000    0.000 
#    0.000    0.000    0.000    0.000    0.000    0.000 
#
# Total GULP energy -167553.635080 kJ/mol
# GULP energy per Si atom -5585.121169 kJ/mol
# Density = 2.427591 g / cm^3
# Si number density = 24.331289 Si / 1000 Ang^3
#
#
#
# Elastic Constant Matrix: (Units=GPa)
#
#
# Indices 1 2 3 4 5 6 
#
# 1 73.5528 24.1580 7.9835 0.0000 0.0000 0.0000
# 2 24.1580 113.0589 5.9979 0.0000 0.0000 0.0000
# 3 7.9835 5.9979 59.6860 0.0000 0.0000 0.0000
# 4 0.0000 0.0000 0.0000 22.7909 0.0000 0.0000
# 5 0.0000 0.0000 0.0000 0.0000 27.5389 0.0000
# 6 0.0000 0.0000 0.0000 0.0000 0.0000 40.7062
#
#
#
# Elastic Compliance Matrix: (Units=1/GPa)
#
#
# Indices 1 2 3 4 5 6 
#
# 1 0.014785 -0.003071 -0.001669 0.000000 0.000000 0.000000
# 2 -0.003071 0.009530 -0.000547 0.000000 0.000000 0.000000
# 3 -0.001669 -0.000547 0.017033 0.000000 0.000000 0.000000
# 4 0.000000 0.000000 0.000000 0.043877 0.000000 0.000000
# 5 0.000000 0.000000 0.000000 0.000000 0.036312 0.000000
# 6 0.000000 0.000000 0.000000 0.000000 0.000000 0.024566
#
#
# Mechanical properties :
#
#
# Convention : Reuss Voigt Hill
#
# Bulk Modulus (GPa) = 32.49440 35.84181 34.16811
# Shear Modulus (GPa) = 29.95166 32.08440 31.01803
#
# Velocity S-wave (km/s) = 3.51236 3.63526 3.57434
# Velocity P-wave (km/s) = 5.46195 5.69059 5.57744
#
# Compressibility (1/GPa) = 0.03077453
#
# Stress axis : x y z
#
# Youngs Moduli (GPa) = 67.63423 104.93060 58.71105
#
# Poissons Ratio (x) = 0.32221 0.09799
# Poissons Ratio (y) = 0.20769 0.03211
# Poissons Ratio (z) = 0.11289 0.05739
#
# Static dielectric constant tensor:
#      x y z
#    x 2.076880 0.000000 0.000000 
#    y 0.000000 2.317790 0.000000 
#    z 0.000000 0.000000 1.885620 
# 
# From -- ./inp_files/10796.got.cif
#   From: 2010.05.17/outbox.cif.g08.bks.cpg/sg41_6_cif.got.tgz:10796.got - 2010.06.03 18:54:24.
