data_PCOD9367496
_publ_section_title
;
Structure prediction by ZEFSAII (Michael W. Deem and Ramdas Pophale) SiO2 
 PCOD9367496
Probable space group: A B A 2
;
_chemical_formula_sum "Si O2"
_cell_formula_units_Z 44
_cell_length_a 8.755521
_cell_length_b 12.934398
_cell_length_c 17.234315
_cell_angle_alpha 90.000000
_cell_angle_beta 90.000000
_cell_angle_gamma 90.000000
_cell_volume 1951.741249
_symmetry_space_group_name_H-M "A B A 2"
_symmetry_group_IT_number 41
_symmetry_cell_setting 'orthorhombic'
loop_
_space_group_symop_operation_xyz
x,y,z
-x,-y,z
1/2-x,y,1/2+z
1/2+x,-y,1/2+z
x,1/2+y,1/2+z
-x,1/2-y,1/2+z
1/2-x,1/2+y,z
1/2+x,1/2-y,z
loop_
_atom_site_type_symbol
_atom_site_label
_atom_site_fract_x
_atom_site_fract_y
_atom_site_fract_z
Si Si1 0.495963 0.673872 0.637090
Si Si2 0.995287 0.696340 0.795313
Si Si3 0.000000 0.500000 0.714368
Si Si4 0.952970 0.846394 0.009141
Si Si5 0.244148 0.500248 0.101478
Si Si6 0.273612 0.796067 0.408127
O O1 0.499852 0.718493 0.725681
O O2 0.498429 0.773754 0.581635
O O3 0.348405 0.600691 0.631365
O O4 0.624385 0.595243 0.600161
O O5 0.102711 0.728590 0.864395
O O6 0.065707 0.592713 0.762250
O O7 0.834283 0.666173 0.836821
O O8 0.865160 0.542333 0.662516
O O9 0.835649 0.774867 0.960356
O O10 0.111329 0.864960 0.961001
O O11 0.851600 0.944162 0.036692
#
# Coordination Sequence:
#
# PCOD9367496 Si02
#       6
#     8   8   4   8   8   8
#     4  11  24  45  75 100 147 183 248 299 353 441
#     4  11  23  45  70 102 142 191 236 297 358 437
#     4  12  24  40  72 110 132 184 242 298 354 424
#     4  11  22  46  69 105 140 187 231 297 364 436
#     4  11  25  40  72 110 133 183 241 301 358 424
#     4  10  24  42  70  97 148 193 222 293 374 435
#
# _framework density 22.543973000000001
#
# number of rings (size 3 to 8) (size 9 to 14) (size 15 to 20)
#    0.000    1.091    3.636    2.182    5.091    0.000 
#    6.545    0.000   12.000    0.000    0.000    0.000 
#    0.000    0.000    0.000    0.000    0.000    0.000 
#
# Total GULP energy -122502.483495 kJ/mol
# GULP energy per Si atom -5568.294704 kJ/mol
# Density = 2.249266 g / cm^3
# Si number density = 22.543973 Si / 1000 Ang^3
#
#
#
# Elastic Constant Matrix: (Units=GPa)
#
#
# Indices 1 2 3 4 5 6 
#
# 1 112.1837 28.1122 42.4410 0.0000 0.0000 0.0000
# 2 28.1122 126.9586 56.5797 0.0000 0.0000 0.0000
# 3 42.4410 56.5797 106.9352 0.0000 0.0000 0.0000
# 4 0.0000 0.0000 0.0000 60.0020 0.0000 0.0000
# 5 0.0000 0.0000 0.0000 0.0000 33.5206 0.0000
# 6 0.0000 0.0000 0.0000 0.0000 0.0000 -2.2283
#
#
#
# Elastic Compliance Matrix: (Units=1/GPa)
#
#
# Indices 1 2 3 4 5 6 
#
# 1 0.010525 -0.000614 -0.003853 0.000000 0.000000 0.000000
# 2 -0.000614 0.010343 -0.005229 0.000000 0.000000 0.000000
# 3 -0.003853 -0.005229 0.013647 0.000000 0.000000 0.000000
# 4 0.000000 0.000000 0.000000 0.016666 0.000000 0.000000
# 5 0.000000 0.000000 0.000000 0.000000 0.029832 0.000000
# 6 0.000000 0.000000 0.000000 0.000000 0.000000 -0.448779
#
#
# Mechanical properties :
#
#
# Convention : Reuss Voigt Hill
#
# Bulk Modulus (GPa) = 66.11627 66.70481 66.41054
# Shear Modulus (GPa) = -14.56309 32.85517 9.14604
#
# Velocity S-wave (km/s) = -2.54438 3.82171 2.01638
# Velocity P-wave (km/s) = 4.55626 7.00906 5.91128
#
# Compressibility (1/GPa) = 0.01512487
#
# Stress axis : x y z
#
# Youngs Moduli (GPa) = 95.00967 96.68662 73.27573
#
# Poissons Ratio (x) = 0.05933 0.28231
# Poissons Ratio (y) = 0.05830 0.38314
# Poissons Ratio (z) = 0.36604 0.50555
#
# Static dielectric constant tensor:
#      x y z
#    x 1.894480 0.000000 0.000000 
#    y 0.000000 1.749640 0.000000 
#    z 0.000000 0.000000 1.891230 
# 
# From -- ./inp_files/9609.got.cif
#   From: 2010.05.17/outbox.cif.g08.bks.cpg/sg41_5_cif.got.tgz:9609.got - 2010.06.03 18:54:24.
