data_PCOD9367669
_publ_section_title
;
Structure prediction by ZEFSAII (Michael W. Deem and Ramdas Pophale) SiO2 
 PCOD9367669
Probable space group: A B A 2
;
_chemical_formula_sum "Si O2"
_cell_formula_units_Z 40
_cell_length_a 11.848241
_cell_length_b 14.377631
_cell_length_c 9.392933
_cell_angle_alpha 90.000000
_cell_angle_beta 90.000000
_cell_angle_gamma 90.000000
_cell_volume 1600.082728
_symmetry_space_group_name_H-M "A B A 2"
_symmetry_group_IT_number 41
_symmetry_cell_setting 'orthorhombic'
loop_
_space_group_symop_operation_xyz
x,y,z
-x,-y,z
1/2-x,y,1/2+z
1/2+x,-y,1/2+z
x,1/2+y,1/2+z
-x,1/2-y,1/2+z
1/2-x,1/2+y,z
1/2+x,1/2-y,z
loop_
_atom_site_type_symbol
_atom_site_label
_atom_site_fract_x
_atom_site_fract_y
_atom_site_fract_z
Si Si1 0.309170 0.903775 0.536700
Si Si2 0.500000 0.860004 0.330123
Si Si3 0.877882 0.822236 0.328015
Si Si4 0.309170 0.596225 0.623547
Si Si5 0.877882 0.177764 0.332231
O O1 0.426241 0.913293 0.447195
O O2 0.215269 0.860324 0.435431
O O3 0.336174 0.839194 0.671846
O O4 0.250000 1.000000 0.580123
O O5 0.409614 0.782307 0.276253
O O6 0.573759 0.913293 0.213051
O O7 0.590386 0.782307 0.383993
O O8 0.784731 0.860325 0.224815
O O9 0.836174 0.839194 0.488401
O O10 0.000000 0.872150 0.330123
#
# Coordination Sequence:
#
# PCOD9367669 Si02
#       5
#     8   8   8   8   8
#     4  12  26  49  81 126 164 211 279 357 421 482
#     4  10  26  50  84 110 164 220 268 326 415 508
#     4  10  27  50  81 112 165 219 283 326 420 512
#     4  12  26  49  81 126 164 211 279 357 421 482
#     4  10  27  50  81 112 165 219 283 326 420 512
#
# _framework density 24.998705999999999
#
# number of rings (size 3 to 8) (size 9 to 14) (size 15 to 20)
#    1.200    0.000    0.000    3.600    5.600    3.200 
#    7.200    0.000    0.000    0.000    0.000    0.000 
#    0.000    0.000    0.000    0.000    0.000    0.000 
#
# Total GULP energy -111736.943152 kJ/mol
# GULP energy per Si atom -5586.847158 kJ/mol
# Density = 2.494181 g / cm^3
# Si number density = 24.998706 Si / 1000 Ang^3
#
#
#
# Elastic Constant Matrix: (Units=GPa)
#
#
# Indices 1 2 3 4 5 6 
#
# 1 241.0665 91.8153 140.1949 0.0000 0.0000 0.0000
# 2 91.8153 108.0559 47.7230 0.0000 0.0000 0.0000
# 3 140.1949 47.7230 175.8040 0.0000 0.0000 0.0000
# 4 0.0000 0.0000 0.0000 6.5818 0.0000 0.0000
# 5 0.0000 0.0000 0.0000 0.0000 69.7798 0.0000
# 6 0.0000 0.0000 0.0000 0.0000 0.0000 46.8101
#
#
#
# Elastic Compliance Matrix: (Units=1/GPa)
#
#
# Indices 1 2 3 4 5 6 
#
# 1 0.010113 -0.005717 -0.006513 0.000000 0.000000 0.000000
# 2 -0.005717 0.013747 0.000827 0.000000 0.000000 0.000000
# 3 -0.006513 0.000827 0.010657 0.000000 0.000000 0.000000
# 4 0.000000 0.000000 0.000000 0.151934 0.000000 0.000000
# 5 0.000000 0.000000 0.000000 0.000000 0.014331 0.000000
# 6 0.000000 0.000000 0.000000 0.000000 0.000000 0.021363
#
#
# Mechanical properties :
#
#
# Convention : Reuss Voigt Hill
#
# Bulk Modulus (GPa) = 85.38050 120.48811 102.93431
# Shear Modulus (GPa) = 20.09210 40.98056 30.53633
#
# Velocity S-wave (km/s) = 2.83808 4.05323 3.49881
# Velocity P-wave (km/s) = 6.70580 8.37898 7.58864
#
# Compressibility (1/GPa) = 0.01171228
#
# Stress axis : x y z
#
# Youngs Moduli (GPa) = 98.87948 72.74465 93.83168
#
# Poissons Ratio (x) = 0.41587 0.61113
# Poissons Ratio (y) = 0.56528 -0.07762
# Poissons Ratio (z) = 0.64400 -0.06018
#
# Static dielectric constant tensor:
#      x y z
#    x 2.070570 0.000000 0.000000 
#    y 0.000000 2.095310 0.000000 
#    z 0.000000 0.000000 1.942070 
# 
# From -- ./inp_files/1993.got.cif
#   From: 2010.05.17/outbox.cif.g08.bks.cpg/sg41_1_cif.got.tgz:1993.got - 2010.06.03 18:54:24.
