data_PCOD9367017
_publ_section_title
;
Structure prediction by ZEFSAII (Michael W. Deem and Ramdas Pophale) SiO2 
 PCOD9367017
Probable space group: A B A 2
;
_chemical_formula_sum "Si O2"
_cell_formula_units_Z 52
_cell_length_a 24.481747
_cell_length_b 11.066526
_cell_length_c 8.896735
_cell_angle_alpha 90.000000
_cell_angle_beta 90.000000
_cell_angle_gamma 90.000000
_cell_volume 2410.373639
_symmetry_space_group_name_H-M "A B A 2"
_symmetry_group_IT_number 41
_symmetry_cell_setting 'orthorhombic'
loop_
_space_group_symop_operation_xyz
x,y,z
-x,-y,z
1/2-x,y,1/2+z
1/2+x,-y,1/2+z
x,1/2+y,1/2+z
-x,1/2-y,1/2+z
1/2-x,1/2+y,z
1/2+x,1/2-y,z
loop_
_atom_site_type_symbol
_atom_site_label
_atom_site_fract_x
_atom_site_fract_y
_atom_site_fract_z
Si Si1 0.721754 0.163590 0.914740
Si Si2 0.814461 0.504259 0.286811
Si Si3 0.500000 0.500000 0.794520
Si Si4 0.911558 0.105047 0.582863
Si Si5 0.905880 0.387266 0.494594
Si Si6 0.771778 0.338004 0.692810
Si Si7 0.629278 0.981153 0.808236
O O1 0.731316 0.268767 0.798617
O O2 0.776839 0.083703 0.898120
O O3 0.670752 0.089671 0.850400
O O4 0.716803 0.241208 0.065193
O O5 0.859150 0.573016 0.186312
O O6 0.852732 0.422309 0.394922
O O7 0.768456 0.453088 0.167759
O O8 0.535984 0.585680 0.687674
O O9 0.541789 0.426553 0.898834
O O10 0.908970 0.244099 0.528751
O O11 0.911244 0.003726 0.448396
O O12 0.901238 0.466586 0.648773
O O13 0.826134 0.373711 0.784742
#
# Coordination Sequence:
#
# PCOD9367017 Si02
#       7
#     8   8   4   8   8   8   8
#     4  11  21  35  57  93 136 176 212 250 296 361
#     4  10  22  39  62  92 132 177 220 254 302 378
#     4  10  28  48  68  94 116 152 212 270 332 402
#     4  11  24  45  67  92 124 162 210 269 328 380
#     4  11  24  45  67  92 124 162 210 269 328 380
#     4  11  21  35  57  93 136 176 212 250 296 361
#     4  11  22  36  62  94 126 166 210 251 306 376
#
# _framework density 21.573418
#
# number of rings (size 3 to 8) (size 9 to 14) (size 15 to 20)
#    0.000    1.231    0.000    6.462    0.000    8.000 
#    0.000    6.154    0.000    0.000    0.000    0.000 
#    0.000    0.000    0.000    0.000    0.000    0.000 
#
# Total GULP energy -144841.968705 kJ/mol
# GULP energy per Si atom -5570.844950 kJ/mol
# Density = 2.152432 g / cm^3
# Si number density = 21.573418 Si / 1000 Ang^3
#
#
#
# Elastic Constant Matrix: (Units=GPa)
#
#
# Indices 1 2 3 4 5 6 
#
# 1 145.1001 51.8831 70.3102 0.0000 0.0000 0.0000
# 2 51.8831 115.1906 74.5942 0.0000 0.0000 0.0000
# 3 70.3102 74.5942 167.9792 0.0000 0.0000 0.0000
# 4 0.0000 0.0000 0.0000 36.5441 0.0000 0.0000
# 5 0.0000 0.0000 0.0000 0.0000 42.2388 0.0000
# 6 0.0000 0.0000 0.0000 0.0000 0.0000 27.8703
#
#
#
# Elastic Compliance Matrix: (Units=1/GPa)
#
#
# Indices 1 2 3 4 5 6 
#
# 1 0.009052 -0.002279 -0.002777 0.000000 0.000000 0.000000
# 2 -0.002279 0.012759 -0.004712 0.000000 0.000000 0.000000
# 3 -0.002777 -0.004712 0.009208 0.000000 0.000000 0.000000
# 4 0.000000 0.000000 0.000000 0.027364 0.000000 0.000000
# 5 0.000000 0.000000 0.000000 0.000000 0.023675 0.000000
# 6 0.000000 0.000000 0.000000 0.000000 0.000000 0.035880
#
#
# Mechanical properties :
#
#
# Convention : Reuss Voigt Hill
#
# Bulk Modulus (GPa) = 87.08201 91.31609 89.19905
# Shear Modulus (GPa) = 35.38506 36.76281 36.07394
#
# Velocity S-wave (km/s) = 4.05435 4.13253 4.09363
# Velocity P-wave (km/s) = 7.89747 8.07405 7.98625
#
# Compressibility (1/GPa) = 0.01148343
#
# Stress axis : x y z
#
# Youngs Moduli (GPa) = 110.46931 78.37535 108.60229
#
# Poissons Ratio (x) = 0.17862 0.30158
# Poissons Ratio (y) = 0.25176 0.51174
# Poissons Ratio (z) = 0.30677 0.36931
#
# Static dielectric constant tensor:
#      x y z
#    x 1.829010 0.000000 0.000000 
#    y 0.000000 1.899520 0.000000 
#    z 0.000000 0.000000 1.841430 
# 
# From -- ./inp_files/3780.got.cif
#   From: 2010.05.17/outbox.cif.g08.bks.cpg/sg41_2_cif.got.tgz:3780.got - 2010.06.03 18:54:24.
