data_PCOD9367364
_publ_section_title
;
Structure prediction by ZEFSAII (Michael W. Deem and Ramdas Pophale) SiO2 
 PCOD9367364
Probable space group: A B A 2
;
_chemical_formula_sum "Si O2"
_cell_formula_units_Z 60
_cell_length_a 12.446526
_cell_length_b 9.170947
_cell_length_c 25.735376
_cell_angle_alpha 90.000000
_cell_angle_beta 90.000000
_cell_angle_gamma 90.000000
_cell_volume 2937.601302
_symmetry_space_group_name_H-M "A B A 2"
_symmetry_group_IT_number 41
_symmetry_cell_setting 'orthorhombic'
loop_
_space_group_symop_operation_xyz
x,y,z
-x,-y,z
1/2-x,y,1/2+z
1/2+x,-y,1/2+z
x,1/2+y,1/2+z
-x,1/2-y,1/2+z
1/2-x,1/2+y,z
1/2+x,1/2-y,z
loop_
_atom_site_type_symbol
_atom_site_label
_atom_site_fract_x
_atom_site_fract_y
_atom_site_fract_z
Si Si1 0.728391 0.720564 0.539690
Si Si2 0.936988 0.298917 0.733259
Si Si3 0.000000 0.500000 0.187805
Si Si4 0.332132 0.427636 0.201505
Si Si5 0.231675 0.768902 0.801880
Si Si6 0.876053 0.481002 0.480955
Si Si7 0.874766 0.471635 0.356520
Si Si8 0.687586 0.982829 0.111401
O O1 0.810593 0.614594 0.508170
O O2 0.652821 0.606360 0.570262
O O3 0.665876 0.826769 0.501550
O O4 0.776565 0.839963 0.580178
O O5 0.848013 0.397026 0.704690
O O6 0.883382 0.310912 0.790289
O O7 0.951454 0.130121 0.720863
O O8 0.050117 0.364191 0.714314
O O9 0.095033 0.557887 0.151539
O O10 0.266646 0.350788 0.248259
O O11 0.276580 0.426626 0.145342
O O12 0.323805 0.664600 0.824708
O O13 0.201111 0.894809 0.841052
O O14 0.868526 0.467811 0.418759
O O15 0.000000 0.500000 0.495579
O O16 0.000000 0.500000 0.342381
#
# Coordination Sequence:
#
# PCOD9367364 Si02
#       8
#     8   8   4   8   8   8   8   8
#     4  10  23  43  67  95 128 170 221 275 335 400
#     4  11  25  39  62  89 133 180 214 264 317 376
#     4  12  24  36  64  94 130 178 222 258 316 390
#     4  11  24  43  58  93 140 173 216 264 318 388
#     4  12  23  42  66  95 134 174 221 271 327 403
#     4  10  23  46  69  96 130 168 218 289 347 397
#     4  11  25  43  71  98 128 173 226 279 348 406
#     4  11  23  39  64  96 133 175 219 265 326 392
#
# _framework density 20.424828000000002
#
# number of rings (size 3 to 8) (size 9 to 14) (size 15 to 20)
#    0.000    1.067    2.667    3.200    6.533    0.000 
#    9.600    0.000    0.000    4.800    0.000    0.000 
#    0.000    0.000    0.000    0.000    0.000    0.000 
#
# Total GULP energy -167062.010751 kJ/mol
# GULP energy per Si atom -5568.733692 kJ/mol
# Density = 2.037834 g / cm^3
# Si number density = 20.424828 Si / 1000 Ang^3
#
#
#
# Elastic Constant Matrix: (Units=GPa)
#
#
# Indices 1 2 3 4 5 6 
#
# 1 108.8572 57.3192 49.7263 0.0000 0.0000 0.0000
# 2 57.3192 135.0753 53.4347 0.0000 0.0000 0.0000
# 3 49.7263 53.4347 90.8209 0.0000 0.0000 0.0000
# 4 0.0000 0.0000 0.0000 29.8522 0.0000 0.0000
# 5 0.0000 0.0000 0.0000 0.0000 -19.3678 0.0000
# 6 0.0000 0.0000 0.0000 0.0000 0.0000 34.5645
#
#
#
# Elastic Compliance Matrix: (Units=1/GPa)
#
#
# Indices 1 2 3 4 5 6 
#
# 1 0.013508 -0.003658 -0.005244 0.000000 0.000000 0.000000
# 2 -0.003658 0.010639 -0.004257 0.000000 0.000000 0.000000
# 3 -0.005244 -0.004257 0.016386 0.000000 0.000000 0.000000
# 4 0.000000 0.000000 0.000000 0.033498 0.000000 0.000000
# 5 0.000000 0.000000 0.000000 0.000000 -0.051632 0.000000
# 6 0.000000 0.000000 0.000000 0.000000 0.000000 0.028931
#
#
# Mechanical properties :
#
#
# Convention : Reuss Voigt Hill
#
# Bulk Modulus (GPa) = 70.34050 72.85711 71.59880
# Shear Modulus (GPa) = 60.68897 20.62796 40.65847
#
# Velocity S-wave (km/s) = 5.45691 3.18141 4.46650
# Velocity P-wave (km/s) = 8.61494 7.01737 7.85687
#
# Compressibility (1/GPa) = 0.01421656
#
# Stress axis : x y z
#
# Youngs Moduli (GPa) = 74.03226 93.98965 61.02598
#
# Poissons Ratio (x) = 0.34377 0.32001
# Poissons Ratio (y) = 0.27078 0.25980
# Poissons Ratio (z) = 0.38821 0.40013
#
# Static dielectric constant tensor:
#      x y z
#    x 2.820360 0.000000 0.000000 
#    y 0.000000 1.779350 0.000000 
#    z 0.000000 0.000000 1.776070 
# 
# From -- ./inp_files/12519.got.cif
#   From: 2010.05.17/outbox.cif.g08.bks.cpg/sg41_7_cif.got.tgz:12519.got - 2010.06.03 18:54:24.
