data_PCOD9367246
_publ_section_title
;
Structure prediction by ZEFSAII (Michael W. Deem and Ramdas Pophale) SiO2 
 PCOD9367246
Probable space group: A B A 2
;
_chemical_formula_sum "Si O2"
_cell_formula_units_Z 44
_cell_length_a 11.258766
_cell_length_b 8.082568
_cell_length_c 21.474134
_cell_angle_alpha 90.000000
_cell_angle_beta 90.000000
_cell_angle_gamma 90.000000
_cell_volume 1954.140649
_symmetry_space_group_name_H-M "A B A 2"
_symmetry_group_IT_number 41
_symmetry_cell_setting 'orthorhombic'
loop_
_space_group_symop_operation_xyz
x,y,z
-x,-y,z
1/2-x,y,1/2+z
1/2+x,-y,1/2+z
x,1/2+y,1/2+z
-x,1/2-y,1/2+z
1/2-x,1/2+y,z
1/2+x,1/2-y,z
loop_
_atom_site_type_symbol
_atom_site_label
_atom_site_fract_x
_atom_site_fract_y
_atom_site_fract_z
Si Si1 0.424995 0.170195 0.922030
Si Si2 0.373131 0.343035 0.238545
Si Si3 0.627602 0.304312 0.284468
Si Si4 0.834999 0.105009 0.099355
Si Si5 0.132806 0.551499 0.042734
Si Si6 0.000000 0.000000 0.995147
O O1 0.375953 0.241489 0.857212
O O2 0.488442 0.329877 0.955583
O O3 0.500000 0.000000 0.908542
O O4 0.327811 0.110553 0.973549
O O5 0.500786 0.255546 0.251878
O O6 0.369581 0.497438 0.284490
O O7 0.249221 0.248863 0.250219
O O8 0.368220 0.425664 0.170032
O O9 0.870129 0.291232 0.086771
O O10 0.698497 0.087869 0.081336
O O11 0.893181 0.992814 0.045657
O O12 0.000000 0.500000 0.030903
#
# Coordination Sequence:
#
# PCOD9367246 Si02
#       6
#     8   8   8   8   8   4
#     4  10  22  45  68 102 148 174 250 298 352 440
#     4  11  25  44  72 101 146 191 243 306 360 448
#     4  11  25  46  68 105 141 195 240 300 364 436
#     4  11  24  43  70  99 143 179 241 294 376 432
#     4  10  25  40  66 101 133 181 233 306 359 437
#     4  10  24  42  74 106 126 204 230 298 384 418
#
# _framework density 22.516290000000001
#
# number of rings (size 3 to 8) (size 9 to 14) (size 15 to 20)
#    0.000    1.455    1.818    2.182   10.182    6.545 
#    0.000    0.000    0.000    0.000    0.000    0.000 
#    0.000    0.000    0.000    0.000    0.000    0.000 
#
# Total GULP energy -122508.520319 kJ/mol
# GULP energy per Si atom -5568.569105 kJ/mol
# Density = 2.246504 g / cm^3
# Si number density = 22.516290 Si / 1000 Ang^3
#
#
#
# Elastic Constant Matrix: (Units=GPa)
#
#
# Indices 1 2 3 4 5 6 
#
# 1 122.3189 16.6026 34.2357 0.0000 0.0000 0.0000
# 2 16.6026 76.2362 14.2574 0.0000 0.0000 0.0000
# 3 34.2357 14.2574 116.3600 0.0000 0.0000 0.0000
# 4 0.0000 0.0000 0.0000 -11.2750 0.0000 0.0000
# 5 0.0000 0.0000 0.0000 0.0000 17.5157 0.0000
# 6 0.0000 0.0000 0.0000 0.0000 0.0000 19.2562
#
#
#
# Elastic Compliance Matrix: (Units=1/GPa)
#
#
# Indices 1 2 3 4 5 6 
#
# 1 0.009076 -0.001512 -0.002485 0.000000 0.000000 0.000000
# 2 -0.001512 0.013677 -0.001231 0.000000 0.000000 0.000000
# 3 -0.002485 -0.001231 0.009476 0.000000 0.000000 0.000000
# 4 0.000000 0.000000 0.000000 -0.088692 0.000000 0.000000
# 5 0.000000 0.000000 0.000000 0.000000 0.057092 0.000000
# 6 0.000000 0.000000 0.000000 0.000000 0.000000 0.051931
#
#
# Mechanical properties :
#
#
# Convention : Reuss Voigt Hill
#
# Bulk Modulus (GPa) = 45.92869 49.45625 47.69247
# Shear Modulus (GPa) = 71.15071 21.75402 46.45236
#
# Velocity S-wave (km/s) = 5.62746 3.11166 4.54702
# Velocity P-wave (km/s) = 7.91622 5.90950 6.98530
#
# Compressibility (1/GPa) = 0.02177288
#
# Stress axis : x y z
#
# Youngs Moduli (GPa) = 110.17930 73.11767 105.52941
#
# Poissons Ratio (x) = 0.11054 0.26226
# Poissons Ratio (y) = 0.16657 0.12990
# Poissons Ratio (z) = 0.27381 0.09000
#
# Static dielectric constant tensor:
#      x y z
#    x 2.045660 0.000000 0.000000 
#    y 0.000000 1.815860 0.000000 
#    z 0.000000 0.000000 1.880670 
# 
# From -- ./inp_files/12090.got.cif
#   From: 2010.05.17/outbox.cif.g08.bks.cpg/sg41_7_cif.got.tgz:12090.got - 2010.06.03 18:54:24.
