data_PCOD9367817
_publ_section_title
;
Structure prediction by ZEFSAII (Michael W. Deem and Ramdas Pophale) SiO2 
 PCOD9367817
Probable space group: A B A 2
;
_chemical_formula_sum "Si O2"
_cell_formula_units_Z 64
_cell_length_a 18.013255
_cell_length_b 12.357157
_cell_length_c 14.953046
_cell_angle_alpha 90.000000
_cell_angle_beta 90.000000
_cell_angle_gamma 90.000000
_cell_volume 3328.437688
_symmetry_space_group_name_H-M "A B A 2"
_symmetry_group_IT_number 41
_symmetry_cell_setting 'orthorhombic'
loop_
_space_group_symop_operation_xyz
x,y,z
-x,-y,z
1/2-x,y,1/2+z
1/2+x,-y,1/2+z
x,1/2+y,1/2+z
-x,1/2-y,1/2+z
1/2-x,1/2+y,z
1/2+x,1/2-y,z
loop_
_atom_site_type_symbol
_atom_site_label
_atom_site_fract_x
_atom_site_fract_y
_atom_site_fract_z
Si Si1 0.054508 0.239461 0.452340
Si Si2 0.974778 0.122092 0.613366
Si Si3 0.920150 0.557097 0.716753
Si Si4 0.155495 0.051970 0.377719
Si Si5 0.448446 0.203131 0.291237
Si Si6 0.675212 0.142796 0.017638
Si Si7 0.180365 0.632555 0.408271
Si Si8 0.157617 0.421789 0.527913
O O1 0.092866 0.134420 0.410253
O O2 0.117007 0.327181 0.473656
O O3 0.014232 0.202953 0.543320
O O4 0.996766 0.285488 0.380916
O O5 0.887130 0.136330 0.594630
O O6 0.004166 0.147711 0.712579
O O7 0.000000 0.000000 0.591337
O O8 0.865179 0.491036 0.780581
O O9 0.928103 0.677701 0.755741
O O10 0.887942 0.560124 0.617849
O O11 0.000000 0.500000 0.718431
O O12 0.234756 0.110875 0.380622
O O13 0.156266 0.950012 0.444993
O O14 0.373700 0.143011 0.322897
O O15 0.758410 0.115700 0.049152
O O16 0.674152 0.257853 0.966822
O O17 0.158642 0.530431 0.469368
#
# Coordination Sequence:
#
# PCOD9367817 Si02
#       8
#     8   8   8   8   8   8   8   8
#     4  12  23  45  70 101 136 184 229 286 337 411
#     4  12  26  44  73 102 136 183 234 282 342 414
#     4  12  25  45  69 102 135 181 233 278 341 413
#     4  11  23  45  72  98 133 186 231 279 343 415
#     4  12  27  44  70 104 139 177 231 286 341 406
#     4  11  23  47  70 100 133 184 230 280 347 409
#     4  11  25  45  71  98 139 181 228 283 348 408
#     4  11  28  45  69  99 144 180 225 290 346 406
#
# _framework density 19.228241000000001
#
# number of rings (size 3 to 8) (size 9 to 14) (size 15 to 20)
#    0.000    0.500    7.500    0.000    5.250    1.000 
#    6.750    0.000    0.000    0.000    0.000    0.000 
#    0.000    0.000    0.000    0.000    0.000    0.000 
#
# Total GULP energy -178983.790037 kJ/mol
# GULP energy per Si atom -5593.243439 kJ/mol
# Density = 1.918448 g / cm^3
# Si number density = 19.228241 Si / 1000 Ang^3
#
#
#
# Elastic Constant Matrix: (Units=GPa)
#
#
# Indices 1 2 3 4 5 6 
#
# 1 96.2947 34.4467 29.4717 0.0000 0.0000 0.0000
# 2 34.4467 79.1010 10.3412 0.0000 0.0000 0.0000
# 3 29.4717 10.3412 76.7175 0.0000 0.0000 0.0000
# 4 0.0000 0.0000 0.0000 27.9669 0.0000 0.0000
# 5 0.0000 0.0000 0.0000 0.0000 38.3881 0.0000
# 6 0.0000 0.0000 0.0000 0.0000 0.0000 23.3076
#
#
#
# Elastic Compliance Matrix: (Units=1/GPa)
#
#
# Indices 1 2 3 4 5 6 
#
# 1 0.013695 -0.005371 -0.004537 0.000000 0.000000 0.000000
# 2 -0.005371 0.014975 0.000045 0.000000 0.000000 0.000000
# 3 -0.004537 0.000045 0.014772 0.000000 0.000000 0.000000
# 4 0.000000 0.000000 0.000000 0.035757 0.000000 0.000000
# 5 0.000000 0.000000 0.000000 0.000000 0.026050 0.000000
# 6 0.000000 0.000000 0.000000 0.000000 0.000000 0.042904
#
#
# Mechanical properties :
#
#
# Convention : Reuss Voigt Hill
#
# Bulk Modulus (GPa) = 42.16664 44.51473 43.34068
# Shear Modulus (GPa) = 28.44417 29.78942 29.11680
#
# Velocity S-wave (km/s) = 3.85033 3.94033 3.89559
# Velocity P-wave (km/s) = 6.46095 6.62590 6.54394
#
# Compressibility (1/GPa) = 0.02371543
#
# Stress axis : x y z
#
# Youngs Moduli (GPa) = 73.02193 66.77804 67.69682
#
# Poissons Ratio (x) = 0.35863 0.30714
# Poissons Ratio (y) = 0.39217 -0.00302
# Poissons Ratio (z) = 0.33130 -0.00298
#
# Static dielectric constant tensor:
#      x y z
#    x 1.662760 0.000000 0.000000 
#    y 0.000000 1.650350 0.000000 
#    z 0.000000 0.000000 1.630340 
# 
# From -- ./inp_files/8821.got.cif
#   From: 2010.05.17/outbox.cif.g08.bks.cpg/sg41_5_cif.got.tgz:8821.got - 2010.06.03 18:54:24.
