data_PCOD9367268
_publ_section_title
;
Structure prediction by ZEFSAII (Michael W. Deem and Ramdas Pophale) SiO2 
 PCOD9367268
Probable space group: A B A 2
;
_chemical_formula_sum "Si O2"
_cell_formula_units_Z 52
_cell_length_a 18.529016
_cell_length_b 14.096793
_cell_length_c 7.331509
_cell_angle_alpha 90.000000
_cell_angle_beta 90.000000
_cell_angle_gamma 90.000000
_cell_volume 1914.987974
_symmetry_space_group_name_H-M "A B A 2"
_symmetry_group_IT_number 41
_symmetry_cell_setting 'orthorhombic'
loop_
_space_group_symop_operation_xyz
x,y,z
-x,-y,z
1/2-x,y,1/2+z
1/2+x,-y,1/2+z
x,1/2+y,1/2+z
-x,1/2-y,1/2+z
1/2-x,1/2+y,z
1/2+x,1/2-y,z
loop_
_atom_site_type_symbol
_atom_site_label
_atom_site_fract_x
_atom_site_fract_y
_atom_site_fract_z
Si Si1 0.953085 0.208398 0.602720
Si Si2 0.500000 0.000000 0.734842
Si Si3 0.292037 0.124361 0.218151
Si Si4 0.632899 0.373466 0.323873
Si Si5 0.421090 0.324239 0.175578
Si Si6 0.788370 0.668546 0.848912
Si Si7 0.346906 0.924117 0.209893
O O1 0.907165 0.289706 0.708350
O O2 0.932457 0.194364 0.392615
O O3 0.928238 0.113144 0.703718
O O4 0.036591 0.235680 0.595258
O O5 0.569049 0.953169 0.839329
O O6 0.466288 0.915431 0.620332
O O7 0.330736 0.145236 0.023053
O O8 0.332611 0.028985 0.277801
O O9 0.206323 0.100504 0.211488
O O10 0.298017 0.216791 0.348295
O O11 0.338128 0.351371 0.172394
O O12 0.705828 0.648006 0.812147
O O13 0.815564 0.597308 0.005442
#
# Coordination Sequence:
#
# PCOD9367268 Si02
#       7
#     8   4   8   8   8   8   8
#     4  10  23  42  64  95 136 175 225 290 352 430
#     4  10  22  46  70  98 140 194 232 300 362 448
#     4  12  24  43  72 102 139 198 232 303 377 439
#     4  11  24  43  71 103 142 186 247 297 374 440
#     4  10  23  41  67  94 134 181 228 287 359 429
#     4  11  24  41  66 102 138 175 241 297 350 440
#     4  11  23  42  66 100 134 176 237 291 355 436
#
# _framework density 27.154216000000002
#
# number of rings (size 3 to 8) (size 9 to 14) (size 15 to 20)
#    0.000    1.231    1.538    4.615    6.462    0.000 
#    0.000    3.077    0.000    0.923    0.000    0.000 
#    0.000    0.000    0.000    0.000    0.000    0.000 
#
# Total GULP energy -145134.922393 kJ/mol
# GULP energy per Si atom -5582.112400 kJ/mol
# Density = 2.709241 g / cm^3
# Si number density = 27.154216 Si / 1000 Ang^3
#
#
#
# Elastic Constant Matrix: (Units=GPa)
#
#
# Indices 1 2 3 4 5 6 
#
# 1 94.6402 12.4542 41.3877 0.0000 0.0000 0.0000
# 2 12.4542 144.9289 15.8776 0.0000 0.0000 0.0000
# 3 41.3877 15.8776 85.1231 0.0000 0.0000 0.0000
# 4 0.0000 0.0000 0.0000 11.8009 0.0000 0.0000
# 5 0.0000 0.0000 0.0000 0.0000 32.3972 0.0000
# 6 0.0000 0.0000 0.0000 0.0000 0.0000 53.3512
#
#
#
# Elastic Compliance Matrix: (Units=1/GPa)
#
#
# Indices 1 2 3 4 5 6 
#
# 1 0.013448 -0.000448 -0.006455 0.000000 0.000000 0.000000
# 2 -0.000448 0.007059 -0.001099 0.000000 0.000000 0.000000
# 3 -0.006455 -0.001099 0.015091 0.000000 0.000000 0.000000
# 4 0.000000 0.000000 0.000000 0.084739 0.000000 0.000000
# 5 0.000000 0.000000 0.000000 0.000000 0.030867 0.000000
# 6 0.000000 0.000000 0.000000 0.000000 0.000000 0.018744
#
#
# Mechanical properties :
#
#
# Convention : Reuss Voigt Hill
#
# Bulk Modulus (GPa) = 51.03604 51.57013 51.30309
# Shear Modulus (GPa) = 25.97626 36.50805 31.24216
#
# Velocity S-wave (km/s) = 3.09628 3.67068 3.39565
# Velocity P-wave (km/s) = 5.62302 6.08260 5.85732
#
# Compressibility (1/GPa) = 0.01959400
#
# Stress axis : x y z
#
# Youngs Moduli (GPa) = 74.35928 141.66656 66.26428
#
# Poissons Ratio (x) = 0.06353 0.42774
# Poissons Ratio (y) = 0.03335 0.07280
# Poissons Ratio (z) = 0.47999 0.15563
#
# Static dielectric constant tensor:
#      x y z
#    x 2.219770 0.000000 0.000000 
#    y 0.000000 2.170310 0.000000 
#    z 0.000000 0.000000 2.147700 
# 
# From -- ./inp_files/3388.got.cif
#   From: 2010.05.17/outbox.cif.g08.bks.cpg/sg41_2_cif.got.tgz:3388.got - 2010.06.03 18:54:24.
