data_PCOD9367096
_publ_section_title
;
Structure prediction by ZEFSAII (Michael W. Deem and Ramdas Pophale) SiO2 
 PCOD9367096
Probable space group: A B A 2
;
_chemical_formula_sum "Si O2"
_cell_formula_units_Z 56
_cell_length_a 14.792085
_cell_length_b 8.214815
_cell_length_c 19.312041
_cell_angle_alpha 90.000000
_cell_angle_beta 90.000000
_cell_angle_gamma 90.000000
_cell_volume 2346.688019
_symmetry_space_group_name_H-M "A B A 2"
_symmetry_group_IT_number 41
_symmetry_cell_setting 'orthorhombic'
loop_
_space_group_symop_operation_xyz
x,y,z
-x,-y,z
1/2-x,y,1/2+z
1/2+x,-y,1/2+z
x,1/2+y,1/2+z
-x,1/2-y,1/2+z
1/2-x,1/2+y,z
1/2+x,1/2-y,z
loop_
_atom_site_type_symbol
_atom_site_label
_atom_site_fract_x
_atom_site_fract_y
_atom_site_fract_z
Si Si1 0.386286 0.181091 0.699240
Si Si2 0.311280 0.674354 0.852576
Si Si3 0.491706 0.806232 0.329304
Si Si4 0.252446 0.429551 0.752404
Si Si5 0.950419 0.823767 0.464889
Si Si6 0.614534 0.802749 0.542354
Si Si7 0.726298 0.979815 0.992670
O O1 0.459554 0.230140 0.757273
O O2 0.305682 0.314982 0.700952
O O3 0.418704 0.196613 0.621369
O O4 0.337654 0.013176 0.722917
O O5 0.411572 0.744089 0.861190
O O6 0.316458 0.570437 0.781460
O O7 0.258016 0.826175 0.822534
O O8 0.266956 0.577737 0.916668
O O9 0.425371 0.743571 0.389235
O O10 0.500000 0.000000 0.325912
O O11 0.857263 0.856125 0.504811
O O12 0.022057 0.702664 0.499346
O O13 0.000000 0.000000 0.460014
O O14 0.684422 0.951924 0.537576
O O15 0.677410 0.652255 0.511547
#
# Coordination Sequence:
#
# PCOD9367096 Si02
#       7
#     8   8   8   8   8   8   8
#     4  11  24  43  65  95 139 180 229 282 346 427
#     4  11  22  40  69 100 128 176 230 290 345 402
#     4  12  25  40  65  98 135 170 228 290 342 410
#     4  10  22  41  64  96 130 178 228 280 347 412
#     4  10  24  43  67  99 129 176 225 283 350 414
#     4  11  24  44  66  98 136 183 224 278 350 424
#     4  11  23  41  71  95 134 174 225 286 347 408
#
# _framework density 23.863420000000001
#
# number of rings (size 3 to 8) (size 9 to 14) (size 15 to 20)
#    0.000    1.143    2.857    3.429    6.000    1.714 
#    5.143    0.000    3.143    0.000    0.000    0.000 
#    0.000    0.000    0.000    0.000    0.000    0.000 
#
# Total GULP energy -156085.385707 kJ/mol
# GULP energy per Si atom -5574.478061 kJ/mol
# Density = 2.380911 g / cm^3
# Si number density = 23.863420 Si / 1000 Ang^3
#
#
#
# Elastic Constant Matrix: (Units=GPa)
#
#
# Indices 1 2 3 4 5 6 
#
# 1 82.8143 2.9919 10.3163 0.0000 0.0000 0.0000
# 2 2.9919 40.9834 3.4782 0.0000 0.0000 0.0000
# 3 10.3163 3.4782 128.7690 0.0000 0.0000 0.0000
# 4 0.0000 0.0000 0.0000 13.1641 0.0000 0.0000
# 5 0.0000 0.0000 0.0000 0.0000 33.7578 0.0000
# 6 0.0000 0.0000 0.0000 0.0000 0.0000 22.3356
#
#
#
# Elastic Compliance Matrix: (Units=1/GPa)
#
#
# Indices 1 2 3 4 5 6 
#
# 1 0.012224 -0.000811 -0.000957 0.000000 0.000000 0.000000
# 2 -0.000811 0.024510 -0.000597 0.000000 0.000000 0.000000
# 3 -0.000957 -0.000597 0.007859 0.000000 0.000000 0.000000
# 4 0.000000 0.000000 0.000000 0.075964 0.000000 0.000000
# 5 0.000000 0.000000 0.000000 0.000000 0.029623 0.000000
# 6 0.000000 0.000000 0.000000 0.000000 0.000000 0.044772
#
#
# Mechanical properties :
#
#
# Convention : Reuss Voigt Hill
#
# Bulk Modulus (GPa) = 25.08701 31.79330 28.44016
# Shear Modulus (GPa) = 23.47759 29.57018 26.52388
#
# Velocity S-wave (km/s) = 3.14001 3.52396 3.33751
# Velocity P-wave (km/s) = 4.86640 5.46898 5.17646
#
# Compressibility (1/GPa) = 0.03986126
#
# Stress axis : x y z
#
# Youngs Moduli (GPa) = 81.80774 40.79969 127.24790
#
# Poissons Ratio (x) = 0.03309 0.12183
# Poissons Ratio (y) = 0.06636 0.07598
# Poissons Ratio (z) = 0.07832 0.02436
#
# Static dielectric constant tensor:
#      x y z
#    x 1.963580 0.000000 0.000000 
#    y 0.000000 2.039340 0.000000 
#    z 0.000000 0.000000 1.985840 
# 
# From -- ./inp_files/11559.got.cif
#   From: 2010.05.17/outbox.cif.g08.bks.cpg/sg41_6_cif.got.tgz:11559.got - 2010.06.03 18:54:24.
