data_PCOD9367219
_publ_section_title
;
Structure prediction by ZEFSAII (Michael W. Deem and Ramdas Pophale) SiO2 
 PCOD9367219
Probable space group: A B A 2
;
_chemical_formula_sum "Si O2"
_cell_formula_units_Z 56
_cell_length_a 5.568979
_cell_length_b 31.125305
_cell_length_c 13.284454
_cell_angle_alpha 90.000000
_cell_angle_beta 90.000000
_cell_angle_gamma 90.000000
_cell_volume 2302.676376
_symmetry_space_group_name_H-M "A B A 2"
_symmetry_group_IT_number 41
_symmetry_cell_setting 'orthorhombic'
loop_
_space_group_symop_operation_xyz
x,y,z
-x,-y,z
1/2-x,y,1/2+z
1/2+x,-y,1/2+z
x,1/2+y,1/2+z
-x,1/2-y,1/2+z
1/2-x,1/2+y,z
1/2+x,1/2-y,z
loop_
_atom_site_type_symbol
_atom_site_label
_atom_site_fract_x
_atom_site_fract_y
_atom_site_fract_z
Si Si1 0.527991 0.589512 0.916280
Si Si2 0.616245 0.728163 0.117455
Si Si3 0.845088 0.351901 0.850923
Si Si4 0.409494 0.095593 0.205194
Si Si5 0.000000 0.500000 0.498558
Si Si6 0.852527 0.760089 0.843477
Si Si7 0.500000 0.000000 0.119171
Si Si8 0.649806 0.145321 0.032250
O O1 0.306036 0.621041 0.933130
O O2 0.591962 0.599159 0.800561
O O3 0.453130 0.541063 0.929590
O O4 0.721307 0.601937 0.997295
O O5 0.348835 0.742957 0.088101
O O6 0.622002 0.733026 0.239824
O O7 0.678995 0.680658 0.081586
O O8 0.835558 0.386058 0.758752
O O9 0.695213 0.310103 0.819860
O O10 0.061546 0.337460 0.922545
O O11 0.431812 0.045672 0.173626
O O12 0.471852 0.129279 0.118842
O O13 0.248017 0.492501 0.559560
O O14 0.609293 0.744206 0.895546
#
# Coordination Sequence:
#
# PCOD9367219 Si02
#       8
#     8   8   8   8   4   8   4   8
#     4  10  26  46  74 109 151 199 247 327 369 477
#     4  10  24  42  71 104 145 199 248 318 374 451
#     4  10  26  44  73 107 152 195 263 313 387 455
#     4  10  24  48  72 113 147 202 251 319 389 462
#     4  12  25  50  77 112 158 194 263 310 393 466
#     4  10  22  44  68 103 147 198 246 317 375 448
#     4  12  25  48  81 112 150 210 247 318 399 470
#     4  12  24  48  75 109 151 206 260 319 392 461
#
# _framework density 24.319527000000001
#
# number of rings (size 3 to 8) (size 9 to 14) (size 15 to 20)
#    0.857    0.571    1.429    3.000    4.000    3.429 
#    7.714    1.429    0.000    0.000    0.000    0.000 
#    0.000    0.000    0.000    0.000    0.000    0.000 
#
# Total GULP energy -156062.822937 kJ/mol
# GULP energy per Si atom -5573.672248 kJ/mol
# Density = 2.426417 g / cm^3
# Si number density = 24.319527 Si / 1000 Ang^3
#
#
#
# Elastic Constant Matrix: (Units=GPa)
#
#
# Indices 1 2 3 4 5 6 
#
# 1 124.0501 32.4968 42.4028 0.0000 0.0000 0.0000
# 2 32.4968 127.9981 44.3505 0.0000 0.0000 0.0000
# 3 42.4028 44.3505 115.6531 0.0000 0.0000 0.0000
# 4 0.0000 0.0000 0.0000 60.9910 0.0000 0.0000
# 5 0.0000 0.0000 0.0000 0.0000 38.1904 0.0000
# 6 0.0000 0.0000 0.0000 0.0000 0.0000 1.6864
#
#
#
# Elastic Compliance Matrix: (Units=1/GPa)
#
#
# Indices 1 2 3 4 5 6 
#
# 1 0.009423 -0.001378 -0.002926 0.000000 0.000000 0.000000
# 2 -0.001378 0.009211 -0.003027 0.000000 0.000000 0.000000
# 3 -0.002926 -0.003027 0.010880 0.000000 0.000000 0.000000
# 4 0.000000 0.000000 0.000000 0.016396 0.000000 0.000000
# 5 0.000000 0.000000 0.000000 0.000000 0.026185 0.000000
# 6 0.000000 0.000000 0.000000 0.000000 0.000000 0.592973
#
#
# Mechanical properties :
#
#
# Convention : Reuss Voigt Hill
#
# Bulk Modulus (GPa) = 67.33482 67.35573 67.34528
# Shear Modulus (GPa) = 7.30267 36.73696 22.01982
#
# Velocity S-wave (km/s) = 1.73474 3.89085 3.01231
# Velocity P-wave (km/s) = 5.63561 6.92396 6.31274
#
# Compressibility (1/GPa) = 0.01485116
#
# Stress axis : x y z
#
# Youngs Moduli (GPa) = 106.12852 108.56108 91.91042
#
# Poissons Ratio (x) = 0.14964 0.26894
# Poissons Ratio (y) = 0.14628 0.27821
# Poissons Ratio (z) = 0.31054 0.32862
#
# Static dielectric constant tensor:
#      x y z
#    x 2.328100 0.000000 0.000000 
#    y 0.000000 1.913570 0.000000 
#    z 0.000000 0.000000 1.956330 
# 
# From -- ./inp_files/7010.got.cif
#   From: 2010.05.17/outbox.cif.g08.bks.cpg/sg41_4_cif.got.tgz:7010.got - 2010.06.03 18:54:24.
