data_PCOD9367971
_publ_section_title
;
Structure prediction by ZEFSAII (Michael W. Deem and Ramdas Pophale) SiO2 
 PCOD9367971
Probable space group: A B A 2
;
_chemical_formula_sum "Si O2"
_cell_formula_units_Z 56
_cell_length_a 32.706006
_cell_length_b 13.575088
_cell_length_c 5.497768
_cell_angle_alpha 90.000000
_cell_angle_beta 90.000000
_cell_angle_gamma 90.000000
_cell_volume 2440.937024
_symmetry_space_group_name_H-M "A B A 2"
_symmetry_group_IT_number 41
_symmetry_cell_setting 'orthorhombic'
loop_
_space_group_symop_operation_xyz
x,y,z
-x,-y,z
1/2-x,y,1/2+z
1/2+x,-y,1/2+z
x,1/2+y,1/2+z
-x,1/2-y,1/2+z
1/2-x,1/2+y,z
1/2+x,1/2-y,z
loop_
_atom_site_type_symbol
_atom_site_label
_atom_site_fract_x
_atom_site_fract_y
_atom_site_fract_z
Si Si1 0.588337 0.351546 0.891830
Si Si2 0.476364 0.769519 0.665471
Si Si3 0.160103 0.439135 0.895835
Si Si4 0.830071 0.357142 0.110720
Si Si5 0.921636 0.054533 0.113736
Si Si6 0.774295 0.680630 0.665688
Si Si7 0.376489 0.293335 0.759160
O O1 0.562156 0.305675 0.674202
O O2 0.635092 0.373329 0.814887
O O3 0.568540 0.449840 0.996781
O O4 0.591989 0.264755 0.087918
O O5 0.497839 0.759392 0.404826
O O6 0.459432 0.880372 0.701962
O O7 0.113721 0.462840 0.813670
O O8 0.187214 0.393572 0.682537
O O9 0.179854 0.537155 0.001266
O O10 0.155167 0.352016 0.089873
O O11 0.791785 0.291812 0.187765
O O12 0.852660 0.287754 0.913981
O O13 0.899855 0.125868 0.917634
O O14 0.752062 0.664523 0.409622
#
# Coordination Sequence:
#
# PCOD9367971 Si02
#       7
#     8   8   8   8   8   8   8
#     4  12  25  44  77 108 136 194 250 310 356 428
#     4  12  28  50  73 105 160 200 232 298 374 448
#     4  12  25  43  77 107 140 191 252 308 358 426
#     4  12  25  43  77 107 140 191 252 308 358 426
#     4  12  25  44  77 108 136 194 250 310 356 428
#     4  12  28  48  71 105 158 198 232 296 372 448
#     4  12  20  44  72 108 142 174 248 312 362 406
#
# _framework density 22.94201
#
# number of rings (size 3 to 8) (size 9 to 14) (size 15 to 20)
#    0.000    0.000    8.571    1.714    0.000    1.714 
#    0.000    4.286    0.000    0.000    0.000    0.000 
#    0.000    0.000    0.000    0.000    0.000    0.000 
#
# Total GULP energy -156806.148432 kJ/mol
# GULP energy per Si atom -5600.219587 kJ/mol
# Density = 2.288979 g / cm^3
# Si number density = 22.942010 Si / 1000 Ang^3
#
#
#
# Elastic Constant Matrix: (Units=GPa)
#
#
# Indices 1 2 3 4 5 6 
#
# 1 49.9010 0.4232 19.7440 0.0000 0.0000 0.0000
# 2 0.4232 129.0289 9.5690 0.0000 0.0000 0.0000
# 3 19.7440 9.5690 82.4961 0.0000 0.0000 0.0000
# 4 0.0000 0.0000 0.0000 36.0922 0.0000 0.0000
# 5 0.0000 0.0000 0.0000 0.0000 54.0554 0.0000
# 6 0.0000 0.0000 0.0000 0.0000 0.0000 21.7196
#
#
#
# Elastic Compliance Matrix: (Units=1/GPa)
#
#
# Indices 1 2 3 4 5 6 
#
# 1 0.022149 0.000323 -0.005339 0.000000 0.000000 0.000000
# 2 0.000323 0.007822 -0.000985 0.000000 0.000000 0.000000
# 3 -0.005339 -0.000985 0.013514 0.000000 0.000000 0.000000
# 4 0.000000 0.000000 0.000000 0.027707 0.000000 0.000000
# 5 0.000000 0.000000 0.000000 0.000000 0.018500 0.000000
# 6 0.000000 0.000000 0.000000 0.000000 0.000000 0.046041
#
#
# Mechanical properties :
#
#
# Convention : Reuss Voigt Hill
#
# Bulk Modulus (GPa) = 31.76099 35.65537 33.70818
# Shear Modulus (GPa) = 31.60002 37.81942 34.70972
#
# Velocity S-wave (km/s) = 3.71534 4.06455 3.89386
# Velocity P-wave (km/s) = 5.68147 6.13210 5.91108
#
# Compressibility (1/GPa) = 0.03148516
#
# Stress axis : x y z
#
# Youngs Moduli (GPa) = 45.14841 127.84184 73.99908
#
# Poissons Ratio (x) = -0.04133 0.39504
# Poissons Ratio (y) = -0.01459 0.07287
# Poissons Ratio (z) = 0.24102 0.12588
#
# Static dielectric constant tensor:
#      x y z
#    x 1.933810 0.000000 0.000000 
#    y 0.000000 1.811400 0.000000 
#    z 0.000000 0.000000 1.886620 
# 
# From -- ./inp_files/1352.got.cif
#   From: 2010.05.17/outbox.cif.g08.bks.cpg/sg41_1_cif.got.tgz:1352.got - 2010.06.03 18:54:24.
