data_PCOD9367009
_publ_section_title
;
Structure prediction by ZEFSAII (Michael W. Deem and Ramdas Pophale) SiO2 
 PCOD9367009
Probable space group: A B A 2
;
_chemical_formula_sum "Si O2"
_cell_formula_units_Z 56
_cell_length_a 12.737083
_cell_length_b 19.270279
_cell_length_c 9.188069
_cell_angle_alpha 90.000000
_cell_angle_beta 90.000000
_cell_angle_gamma 90.000000
_cell_volume 2255.185286
_symmetry_space_group_name_H-M "A B A 2"
_symmetry_group_IT_number 41
_symmetry_cell_setting 'orthorhombic'
loop_
_space_group_symop_operation_xyz
x,y,z
-x,-y,z
1/2-x,y,1/2+z
1/2+x,-y,1/2+z
x,1/2+y,1/2+z
-x,1/2-y,1/2+z
1/2-x,1/2+y,z
1/2+x,1/2-y,z
loop_
_atom_site_type_symbol
_atom_site_label
_atom_site_fract_x
_atom_site_fract_y
_atom_site_fract_z
Si Si1 0.117481 0.012535 0.014850
Si Si2 0.887550 0.037426 0.516061
Si Si3 0.350260 0.187061 0.508821
Si Si4 0.158101 0.215698 0.344014
Si Si5 0.080910 0.824690 0.351307
Si Si6 0.759968 0.478168 0.264883
Si Si7 0.404254 0.353297 0.017923
O O1 0.185329 0.052325 0.137533
O O2 0.140370 0.929998 0.983940
O O3 0.143226 0.049436 0.861982
O O4 0.000000 0.000000 0.068379
O O5 0.894409 0.115374 0.463837
O O6 0.822297 0.032444 0.663953
O O7 0.823566 0.999914 0.386414
O O8 0.000000 0.000000 0.532247
O O9 0.239264 0.167565 0.432963
O O10 0.321944 0.213775 0.671202
O O11 0.373694 0.253003 0.405646
O O12 0.466707 0.150708 0.509998
O O13 0.143566 0.292334 0.417001
O O14 0.043894 0.181902 0.354541
O O15 0.118369 0.840297 0.188195
#
# Coordination Sequence:
#
# PCOD9367009 Si02
#       7
#     8   8   8   8   8   8   8
#     4  11  23  43  63  94 127 156 206 258 299 371
#     4  11  23  43  63  94 127 156 206 258 299 371
#     4  10  22  39  59  87 120 158 202 246 303 362
#     4  10  22  39  59  87 120 158 202 246 303 362
#     4  10  22  39  62  87 119 160 198 254 301 349
#     4  10  24  40  66  92 116 172 206 240 318 356
#     4  10  22  39  62  87 119 160 198 254 301 349
#
# _framework density 24.831662999999999
#
# number of rings (size 3 to 8) (size 9 to 14) (size 15 to 20)
#    0.000    1.714    1.429    1.714    6.000    1.143 
#    5.143    0.000    0.000    0.000    0.000    0.000 
#    0.000    0.000    0.000    0.000    0.000    0.000 
#
# Total GULP energy -156272.490794 kJ/mol
# GULP energy per Si atom -5581.160386 kJ/mol
# Density = 2.477514 g / cm^3
# Si number density = 24.831663 Si / 1000 Ang^3
#
#
#
# Elastic Constant Matrix: (Units=GPa)
#
#
# Indices 1 2 3 4 5 6 
#
# 1 103.6323 1.6350 42.2230 0.0000 0.0000 0.0000
# 2 1.6350 59.9924 -1.3634 0.0000 0.0000 0.0000
# 3 42.2230 -1.3634 153.2101 0.0000 0.0000 0.0000
# 4 0.0000 0.0000 0.0000 14.7355 0.0000 0.0000
# 5 0.0000 0.0000 0.0000 0.0000 69.9710 0.0000
# 6 0.0000 0.0000 0.0000 0.0000 0.0000 42.3767
#
#
#
# Elastic Compliance Matrix: (Units=1/GPa)
#
#
# Indices 1 2 3 4 5 6 
#
# 1 0.010878 -0.000365 -0.003001 0.000000 0.000000 0.000000
# 2 -0.000365 0.016684 0.000249 0.000000 0.000000 0.000000
# 3 -0.003001 0.000249 0.007356 0.000000 0.000000 0.000000
# 4 0.000000 0.000000 0.000000 0.067863 0.000000 0.000000
# 5 0.000000 0.000000 0.000000 0.000000 0.014292 0.000000
# 6 0.000000 0.000000 0.000000 0.000000 0.000000 0.023598
#
#
# Mechanical properties :
#
#
# Convention : Reuss Voigt Hill
#
# Bulk Modulus (GPa) = 34.86136 44.64711 39.75424
# Shear Modulus (GPa) = 31.95566 43.70597 37.83082
#
# Velocity S-wave (km/s) = 3.59122 4.19989 3.90743
# Velocity P-wave (km/s) = 5.59154 6.44498 6.03337
#
# Compressibility (1/GPa) = 0.02868505
#
# Stress axis : x y z
#
# Youngs Moduli (GPa) = 91.92872 59.93629 135.93850
#
# Poissons Ratio (x) = 0.02186 0.40796
# Poissons Ratio (y) = 0.03352 -0.03384
# Poissons Ratio (z) = 0.27589 -0.01492
#
# Static dielectric constant tensor:
#      x y z
#    x 1.196490 0.000000 0.000000 
#    y 0.000000 2.102800 0.000000 
#    z 0.000000 0.000000 1.932510 
# 
# From -- ./inp_files/2665.got.cif
#   From: 2010.05.17/outbox.cif.g08.bks.cpg/sg41_2_cif.got.tgz:2665.got - 2010.06.03 18:54:24.
