data_PCOD9367000
_publ_section_title
;
Structure prediction by ZEFSAII (Michael W. Deem and Ramdas Pophale) SiO2 
 PCOD9367000
Probable space group: A B A 2
;
_chemical_formula_sum "Si O2"
_cell_formula_units_Z 48
_cell_length_a 20.598010
_cell_length_b 5.067012
_cell_length_c 18.065619
_cell_angle_alpha 90.000000
_cell_angle_beta 90.000000
_cell_angle_gamma 90.000000
_cell_volume 1885.515228
_symmetry_space_group_name_H-M "A B A 2"
_symmetry_group_IT_number 41
_symmetry_cell_setting 'orthorhombic'
loop_
_space_group_symop_operation_xyz
x,y,z
-x,-y,z
1/2-x,y,1/2+z
1/2+x,-y,1/2+z
x,1/2+y,1/2+z
-x,1/2-y,1/2+z
1/2-x,1/2+y,z
1/2+x,1/2-y,z
loop_
_atom_site_type_symbol
_atom_site_label
_atom_site_fract_x
_atom_site_fract_y
_atom_site_fract_z
Si Si1 0.422831 0.015381 0.733970
Si Si2 0.282449 0.993584 0.376207
Si Si3 0.624795 0.988987 0.147187
Si Si4 0.602131 0.113236 0.896913
Si Si5 0.673872 0.731598 0.015580
Si Si6 0.057777 0.180940 0.034653
O O1 0.618880 0.747226 0.698291
O O2 0.392943 0.750882 0.699774
O O3 0.418421 0.025443 0.822473
O O4 0.500000 0.000000 0.717514
O O5 0.267614 0.707596 0.343054
O O6 0.274082 0.924434 0.464639
O O7 0.350035 0.146300 0.373560
O O8 0.570724 0.067407 0.085652
O O9 0.683162 0.896573 0.091690
O O10 0.547690 0.237066 0.949624
O O11 0.638965 0.917652 0.953839
O O12 0.622784 0.499226 0.037452
O O13 0.000000 0.000000 0.059926
#
# Coordination Sequence:
#
# PCOD9367000 Si02
#       6
#     8   8   8   8   8   8
#     4  12  27  40  63  93 142 186 221 261 324 401
#     4  11  22  42  73 100 126 164 221 289 351 398
#     4  11  24  42  61  91 133 178 223 259 321 393
#     4  10  25  41  64 103 132 173 224 278 331 393
#     4  10  22  42  66 101 124 170 223 278 328 389
#     4  10  22  38  66  92 135 176 224 270 319 386
#
# _framework density 25.457229999999999
#
# number of rings (size 3 to 8) (size 9 to 14) (size 15 to 20)
#    0.000    1.333    3.333    1.000    9.333    1.333 
#    0.000    0.000    0.000    6.000    0.000    0.000 
#    0.000    0.000    0.000    0.000    0.000    0.000 
#
# Total GULP energy -134000.855167 kJ/mol
# GULP energy per Si atom -5583.368965 kJ/mol
# Density = 2.539929 g / cm^3
# Si number density = 25.457230 Si / 1000 Ang^3
#
#
#
# Elastic Constant Matrix: (Units=GPa)
#
#
# Indices 1 2 3 4 5 6 
#
# 1 25.1232 9.1253 4.8564 0.0000 0.0000 0.0000
# 2 9.1253 182.6001 36.8704 0.0000 0.0000 0.0000
# 3 4.8564 36.8704 178.5010 0.0000 0.0000 0.0000
# 4 0.0000 0.0000 0.0000 23.3390 0.0000 0.0000
# 5 0.0000 0.0000 0.0000 0.0000 4.1383 0.0000
# 6 0.0000 0.0000 0.0000 0.0000 0.0000 28.3366
#
#
#
# Elastic Compliance Matrix: (Units=1/GPa)
#
#
# Indices 1 2 3 4 5 6 
#
# 1 0.040627 -0.001886 -0.000716 0.000000 0.000000 0.000000
# 2 -0.001886 0.005802 -0.001147 0.000000 0.000000 0.000000
# 3 -0.000716 -0.001147 0.005859 0.000000 0.000000 0.000000
# 4 0.000000 0.000000 0.000000 0.042847 0.000000 0.000000
# 5 0.000000 0.000000 0.000000 0.000000 0.241646 0.000000
# 6 0.000000 0.000000 0.000000 0.000000 0.000000 0.035290
#
#
# Mechanical properties :
#
#
# Convention : Reuss Voigt Hill
#
# Bulk Modulus (GPa) = 22.32616 54.21429 38.27022
# Shear Modulus (GPa) = 12.67430 33.52092 23.09761
#
# Velocity S-wave (km/s) = 2.23371 3.63265 3.01543
# Velocity P-wave (km/s) = 3.92960 6.23998 5.21436
#
# Compressibility (1/GPa) = 0.04479051
#
# Stress axis : x y z
#
# Youngs Moduli (GPa) = 24.61412 172.34462 170.68799
#
# Poissons Ratio (x) = 0.32500 0.12218
# Poissons Ratio (y) = 0.04642 0.19581
# Poissons Ratio (z) = 0.01762 0.19771
#
# Static dielectric constant tensor:
#      x y z
#    x 2.180050 0.000000 0.000000 
#    y 0.000000 2.170420 0.000000 
#    z 0.000000 0.000000 2.036060 
# 
# From -- ./inp_files/9221.got.cif
#   From: 2010.05.17/outbox.cif.g08.bks.cpg/sg41_5_cif.got.tgz:9221.got - 2010.06.03 18:54:24.
