data_PCOD9367158
_publ_section_title
;
Structure prediction by ZEFSAII (Michael W. Deem and Ramdas Pophale) SiO2 
 PCOD9367158
Probable space group: A B A 2
;
_chemical_formula_sum "Si O2"
_cell_formula_units_Z 64
_cell_length_a 22.324189
_cell_length_b 8.168092
_cell_length_c 15.817872
_cell_angle_alpha 90.000000
_cell_angle_beta 90.000000
_cell_angle_gamma 90.000000
_cell_volume 2884.326156
_symmetry_space_group_name_H-M "A B A 2"
_symmetry_group_IT_number 41
_symmetry_cell_setting 'orthorhombic'
loop_
_space_group_symop_operation_xyz
x,y,z
-x,-y,z
1/2-x,y,1/2+z
1/2+x,-y,1/2+z
x,1/2+y,1/2+z
-x,1/2-y,1/2+z
1/2-x,1/2+y,z
1/2+x,1/2-y,z
loop_
_atom_site_type_symbol
_atom_site_label
_atom_site_fract_x
_atom_site_fract_y
_atom_site_fract_z
Si Si1 0.777822 0.800296 0.424420
Si Si2 0.574556 0.289460 0.071596
Si Si3 0.280138 0.273940 0.155286
Si Si4 0.188096 0.078126 0.249518
Si Si5 0.952213 0.353360 0.760856
Si Si6 0.975968 0.811800 0.448367
Si Si7 0.816736 0.490599 0.508436
Si Si8 0.633872 0.438340 0.549693
O O1 0.776115 0.858195 0.329622
O O2 0.811447 0.626479 0.433896
O O3 0.818912 0.931711 0.473706
O O4 0.714818 0.829718 0.470928
O O5 0.544015 0.287113 0.164459
O O6 0.609134 0.116721 0.067072
O O7 0.526007 0.290899 0.996812
O O8 0.621073 0.436437 0.051446
O O9 0.217061 0.189103 0.174926
O O10 0.299238 0.389232 0.231885
O O11 0.330825 0.142891 0.128377
O O12 0.280802 0.402441 0.078105
O O13 0.117854 0.098568 0.263844
O O14 0.963121 0.260969 0.850951
O O15 0.000000 0.500000 0.762156
O O16 0.919463 0.825962 0.511722
O O17 0.000000 0.000000 0.443506
#
# Coordination Sequence:
#
# PCOD9367158 Si02
#       8
#     8   8   8   8   8   8   8   8
#     4  11  23  41  67  96 149 183 242 295 369 436
#     4  11  24  43  80 103 147 194 244 303 373 436
#     4  11  25  40  69 101 142 184 236 293 370 443
#     4  12  25  45  69 103 146 185 239 306 368 438
#     4  11  25  45  74 104 142 188 247 298 364 436
#     4   9  21  46  71  99 138 193 237 295 356 426
#     4  11  23  42  66 108 139 191 239 292 366 449
#     4  10  22  42  71 101 141 187 240 293 368 443
#
# _framework density 22.188891000000002
#
# number of rings (size 3 to 8) (size 9 to 14) (size 15 to 20)
#    0.000    1.250    2.500    3.000    5.250    0.000 
#    0.000    0.000    5.500    0.000    0.000    0.000 
#    0.000    0.000    0.000    0.000    0.000    0.000 
#
# Total GULP energy -178482.644873 kJ/mol
# GULP energy per Si atom -5577.582652 kJ/mol
# Density = 2.213839 g / cm^3
# Si number density = 22.188891 Si / 1000 Ang^3
#
#
#
# Elastic Constant Matrix: (Units=GPa)
#
#
# Indices 1 2 3 4 5 6 
#
# 1 113.7300 35.0787 54.4224 0.0000 0.0000 0.0000
# 2 35.0787 89.1657 42.6618 0.0000 0.0000 0.0000
# 3 54.4224 42.6618 120.0029 0.0000 0.0000 0.0000
# 4 0.0000 0.0000 0.0000 29.5144 0.0000 0.0000
# 5 0.0000 0.0000 0.0000 0.0000 33.7985 0.0000
# 6 0.0000 0.0000 0.0000 0.0000 0.0000 30.2393
#
#
#
# Elastic Compliance Matrix: (Units=1/GPa)
#
#
# Indices 1 2 3 4 5 6 
#
# 1 0.011668 -0.002480 -0.004410 0.000000 0.000000 0.000000
# 2 -0.002480 0.014041 -0.003867 0.000000 0.000000 0.000000
# 3 -0.004410 -0.003867 0.011708 0.000000 0.000000 0.000000
# 4 0.000000 0.000000 0.000000 0.033882 0.000000 0.000000
# 5 0.000000 0.000000 0.000000 0.000000 0.029587 0.000000
# 6 0.000000 0.000000 0.000000 0.000000 0.000000 0.033070
#
#
# Mechanical properties :
#
#
# Convention : Reuss Voigt Hill
#
# Bulk Modulus (GPa) = 62.88224 65.24718 64.06471
# Shear Modulus (GPa) = 31.10037 31.42615 31.26326
#
# Velocity S-wave (km/s) = 3.74788 3.76746 3.75768
# Velocity P-wave (km/s) = 6.86512 6.95659 6.91101
#
# Compressibility (1/GPa) = 0.01590274
#
# Stress axis : x y z
#
# Youngs Moduli (GPa) = 85.70475 71.22011 85.41437
#
# Poissons Ratio (x) = 0.17666 0.37665
# Poissons Ratio (y) = 0.21259 0.33028
# Poissons Ratio (z) = 0.37793 0.27539
#
# Static dielectric constant tensor:
#      x y z
#    x 1.863130 0.000000 0.000000 
#    y 0.000000 1.860860 0.000000 
#    z 0.000000 0.000000 1.899940 
# 
# From -- ./inp_files/9159.got.cif
#   From: 2010.05.17/outbox.cif.g08.bks.cpg/sg41_5_cif.got.tgz:9159.got - 2010.06.03 18:54:24.
