data_PCOD9367678
_publ_section_title
;
Structure prediction by ZEFSAII (Michael W. Deem and Ramdas Pophale) SiO2 
 PCOD9367678
Probable space group: A B A 2
;
_chemical_formula_sum "Si O2"
_cell_formula_units_Z 64
_cell_length_a 8.340681
_cell_length_b 15.051947
_cell_length_c 23.236741
_cell_angle_alpha 90.000000
_cell_angle_beta 90.000000
_cell_angle_gamma 90.000000
_cell_volume 2917.221523
_symmetry_space_group_name_H-M "A B A 2"
_symmetry_group_IT_number 41
_symmetry_cell_setting 'orthorhombic'
loop_
_space_group_symop_operation_xyz
x,y,z
-x,-y,z
1/2-x,y,1/2+z
1/2+x,-y,1/2+z
x,1/2+y,1/2+z
-x,1/2-y,1/2+z
1/2-x,1/2+y,z
1/2+x,1/2-y,z
loop_
_atom_site_type_symbol
_atom_site_label
_atom_site_fract_x
_atom_site_fract_y
_atom_site_fract_z
Si Si1 0.302045 0.799669 0.543470
Si Si2 0.439153 0.247443 0.214128
Si Si3 0.947115 0.712212 0.958531
Si Si4 0.655106 0.938908 0.168231
Si Si5 0.306491 0.016292 0.792703
Si Si6 0.228203 0.172792 0.382781
Si Si7 0.815501 0.172894 0.794517
Si Si8 0.593789 0.845735 0.613302
O O1 0.423518 0.742188 0.505345
O O2 0.186285 0.841050 0.494795
O O3 0.421765 0.856985 0.582586
O O4 0.192414 0.733570 0.581764
O O5 0.402622 0.163294 0.174321
O O6 0.513919 0.202517 0.270692
O O7 0.295093 0.305268 0.239071
O O8 0.551586 0.312189 0.177735
O O9 0.864337 0.800285 0.929609
O O10 0.054141 0.661154 0.912314
O O11 0.738158 0.964280 0.228783
O O12 0.792110 0.931036 0.119766
O O13 0.500000 0.000000 0.157705
O O14 0.258533 0.093781 0.837032
O O15 0.500000 0.000000 0.791333
O O16 0.215759 0.927053 0.811187
O O17 0.221606 0.263641 0.346885
#
# Coordination Sequence:
#
# PCOD9367678 Si02
#       8
#     8   8   8   8   8   8   8   8
#     4   9  19  36  65  97 113 156 226 269 328 386
#     4  12  21  38  61  94 130 172 213 254 306 389
#     4   9  20  37  63  93 119 155 218 284 325 382
#     4  12  24  39  57  96 142 177 209 258 315 388
#     4  12  25  39  59  94 136 176 213 259 313 394
#     4  11  21  40  62  93 126 168 221 267 328 390
#     4  12  23  37  62  91 134 176 211 255 316 389
#     4  11  19  37  65  95 124 167 221 265 317 394
#
# _framework density 21.938685
#
# number of rings (size 3 to 8) (size 9 to 14) (size 15 to 20)
#    0.000    1.000    5.000    3.000    0.000    0.000 
#    0.000    0.000    0.000   11.250   13.000    0.000 
#    0.000    0.000    0.000    0.000    0.000    0.000 
#
# Total GULP energy -178579.306289 kJ/mol
# GULP energy per Si atom -5580.603322 kJ/mol
# Density = 2.188875 g / cm^3
# Si number density = 21.938685 Si / 1000 Ang^3
#
#
#
# Elastic Constant Matrix: (Units=GPa)
#
#
# Indices 1 2 3 4 5 6 
#
# 1 99.2655 15.2522 36.4036 0.0000 0.0000 0.0000
# 2 15.2522 81.9324 19.1210 0.0000 0.0000 0.0000
# 3 36.4036 19.1210 68.5884 0.0000 0.0000 0.0000
# 4 0.0000 0.0000 0.0000 0.7307 0.0000 0.0000
# 5 0.0000 0.0000 0.0000 0.0000 12.0327 0.0000
# 6 0.0000 0.0000 0.0000 0.0000 0.0000 21.6838
#
#
#
# Elastic Compliance Matrix: (Units=1/GPa)
#
#
# Indices 1 2 3 4 5 6 
#
# 1 0.012562 -0.000837 -0.006434 0.000000 0.000000 0.000000
# 2 -0.000837 0.013110 -0.003211 0.000000 0.000000 0.000000
# 3 -0.006434 -0.003211 0.018890 0.000000 0.000000 0.000000
# 4 0.000000 0.000000 0.000000 1.368611 0.000000 0.000000
# 5 0.000000 0.000000 0.000000 0.000000 0.083107 0.000000
# 6 0.000000 0.000000 0.000000 0.000000 0.000000 0.046117
#
#
# Mechanical properties :
#
#
# Convention : Reuss Voigt Hill
#
# Bulk Modulus (GPa) = 42.37514 43.48221 42.92868
# Shear Modulus (GPa) = 3.18223 18.82339 11.00281
#
# Velocity S-wave (km/s) = 1.20568 2.93234 2.24191
# Velocity P-wave (km/s) = 4.61469 5.59712 5.12948
#
# Compressibility (1/GPa) = 0.02359874
#
# Stress axis : x y z
#
# Youngs Moduli (GPa) = 79.60412 76.27606 52.93883
#
# Poissons Ratio (x) = 0.06384 0.34061
# Poissons Ratio (y) = 0.06663 0.16997
# Poissons Ratio (z) = 0.51218 0.24490
#
# Static dielectric constant tensor:
#      x y z
#    x 1.906120 0.000000 0.000000 
#    y 0.000000 1.777550 0.000000 
#    z 0.000000 0.000000 1.850740 
# 
# From -- ./inp_files/12019.got.cif
#   From: 2010.05.17/outbox.cif.g08.bks.cpg/sg41_7_cif.got.tgz:12019.got - 2010.06.03 18:54:24.
