data_PCOD9367999
_publ_section_title
;
Structure prediction by ZEFSAII (Michael W. Deem and Ramdas Pophale) SiO2 
 PCOD9367999
Probable space group: A B A 2
;
_chemical_formula_sum "Si O2"
_cell_formula_units_Z 44
_cell_length_a 23.406530
_cell_length_b 11.716217
_cell_length_c 7.356863
_cell_angle_alpha 90.000000
_cell_angle_beta 90.000000
_cell_angle_gamma 90.000000
_cell_volume 2017.516569
_symmetry_space_group_name_H-M "A B A 2"
_symmetry_group_IT_number 41
_symmetry_cell_setting 'orthorhombic'
loop_
_space_group_symop_operation_xyz
x,y,z
-x,-y,z
1/2-x,y,1/2+z
1/2+x,-y,1/2+z
x,1/2+y,1/2+z
-x,1/2-y,1/2+z
1/2-x,1/2+y,z
1/2+x,1/2-y,z
loop_
_atom_site_type_symbol
_atom_site_label
_atom_site_fract_x
_atom_site_fract_y
_atom_site_fract_z
Si Si1 0.172006 0.481426 0.655840
Si Si2 0.303000 0.952933 0.238131
Si Si3 0.868686 0.763194 0.208252
Si Si4 0.605418 0.873450 0.083058
Si Si5 0.500000 0.000000 0.913722
Si Si6 0.581510 0.180547 0.855077
O O1 0.236476 0.480615 0.730048
O O2 0.175499 0.450203 0.444902
O O3 0.146989 0.608347 0.656630
O O4 0.133223 0.397324 0.776422
O O5 0.316012 0.823626 0.176027
O O6 0.339608 0.047872 0.128618
O O7 0.884915 0.783348 0.418628
O O8 0.914664 0.708702 0.070110
O O9 0.587379 0.800294 0.255525
O O10 0.553880 0.955791 0.026523
O O11 0.475167 0.891125 0.808013
#
# Coordination Sequence:
#
# PCOD9367999 Si02
#       6
#     8   8   8   8   4   8
#     4  12  26  45  75 111 149 192 242 301 370 442
#     4  12  26  45  75 111 149 192 242 301 370 442
#     4  12  24  48  74 102 154 190 242 302 364 432
#     4  12  27  48  72 108 145 194 247 300 370 430
#     4  12  28  48  74 110 144 190 256 302 352 436
#     4  12  27  48  72 108 145 194 247 300 370 430
#
# _framework density 21.808990000000001
#
# number of rings (size 3 to 8) (size 9 to 14) (size 15 to 20)
#    0.000    0.000    7.273    2.182    5.091    2.909 
#    0.000    1.818    0.000    0.000    0.000    0.000 
#    0.000    0.000    0.000    0.000    0.000    0.000 
#
# Total GULP energy -122939.446784 kJ/mol
# GULP energy per Si atom -5588.156672 kJ/mol
# Density = 2.175935 g / cm^3
# Si number density = 21.808990 Si / 1000 Ang^3
#
#
#
# Elastic Constant Matrix: (Units=GPa)
#
#
# Indices 1 2 3 4 5 6 
#
# 1 83.7455 3.9553 8.4978 0.0000 0.0000 0.0000
# 2 3.9553 85.7646 9.5307 0.0000 0.0000 0.0000
# 3 8.4978 9.5307 95.8123 0.0000 0.0000 0.0000
# 4 0.0000 0.0000 0.0000 32.0136 0.0000 0.0000
# 5 0.0000 0.0000 0.0000 0.0000 13.6630 0.0000
# 6 0.0000 0.0000 0.0000 0.0000 0.0000 23.9584
#
#
#
# Elastic Compliance Matrix: (Units=1/GPa)
#
#
# Indices 1 2 3 4 5 6 
#
# 1 0.012066 -0.000442 -0.001026 0.000000 0.000000 0.000000
# 2 -0.000442 0.011806 -0.001135 0.000000 0.000000 0.000000
# 3 -0.001026 -0.001135 0.010641 0.000000 0.000000 0.000000
# 4 0.000000 0.000000 0.000000 0.031237 0.000000 0.000000
# 5 0.000000 0.000000 0.000000 0.000000 0.073190 0.000000
# 6 0.000000 0.000000 0.000000 0.000000 0.000000 0.041739
#
#
# Mechanical properties :
#
#
# Convention : Reuss Voigt Hill
#
# Bulk Modulus (GPa) = 34.12287 34.36554 34.24421
# Shear Modulus (GPa) = 25.55510 30.14956 27.85233
#
# Velocity S-wave (km/s) = 3.42682 3.72215 3.57754
# Velocity P-wave (km/s) = 5.59801 5.85357 5.72721
#
# Compressibility (1/GPa) = 0.02930586
#
# Stress axis : x y z
#
# Youngs Moduli (GPa) = 82.87779 84.69997 93.97613
#
# Poissons Ratio (x) = 0.03747 0.09643
# Poissons Ratio (y) = 0.03667 0.10668
# Poissons Ratio (z) = 0.08504 0.09615
#
# Static dielectric constant tensor:
#      x y z
#    x 1.776410 0.000000 0.000000 
#    y 0.000000 1.807350 0.000000 
#    z 0.000000 0.000000 1.907370 
# 
# From -- ./inp_files/3575.got.cif
#   From: 2010.05.17/outbox.cif.g08.bks.cpg/sg41_2_cif.got.tgz:3575.got - 2010.06.03 18:54:24.
