data_PCOD9367891
_publ_section_title
;
Structure prediction by ZEFSAII (Michael W. Deem and Ramdas Pophale) SiO2 
 PCOD9367891
Probable space group: A B A 2
;
_chemical_formula_sum "Si O2"
_cell_formula_units_Z 32
_cell_length_a 8.746530
_cell_length_b 9.563802
_cell_length_c 15.367215
_cell_angle_alpha 90.000000
_cell_angle_beta 90.000000
_cell_angle_gamma 90.000000
_cell_volume 1285.468781
_symmetry_space_group_name_H-M "A B A 2"
_symmetry_group_IT_number 41
_symmetry_cell_setting 'orthorhombic'
loop_
_space_group_symop_operation_xyz
x,y,z
-x,-y,z
1/2-x,y,1/2+z
1/2+x,-y,1/2+z
x,1/2+y,1/2+z
-x,1/2-y,1/2+z
1/2-x,1/2+y,z
1/2+x,1/2-y,z
loop_
_atom_site_type_symbol
_atom_site_label
_atom_site_fract_x
_atom_site_fract_y
_atom_site_fract_z
Si Si1 0.374965 0.607365 0.528740
Si Si2 0.774713 0.949470 0.716427
Si Si3 0.568846 0.215089 0.283627
Si Si4 0.549037 0.841375 0.473318
O O1 0.500000 0.500000 0.491328
O O2 0.295822 0.536191 0.612723
O O3 0.476685 0.744496 0.547772
O O4 0.231255 0.656625 0.472484
O O5 0.628326 0.861345 0.746286
O O6 0.919958 0.852098 0.739709
O O7 0.801353 0.096170 0.765132
O O8 0.520225 0.217852 0.384080
O O9 0.500000 0.000000 0.482052
#
# Coordination Sequence:
#
# PCOD9367891 Si02
#       4
#     8   8   8   8
#     4  12  26  48  75 110 150 199 252 314 383 450
#     4  11  24  47  74 103 147 194 249 308 372 446
#     4  11  24  48  71 107 149 192 250 304 373 451
#     4  12  26  45  73 109 151 198 250 313 380 453
#
# _framework density 24.893640999999999
#
# number of rings (size 3 to 8) (size 9 to 14) (size 15 to 20)
#    0.000    0.500    5.000    4.500    3.500    1.000 
#    0.000    0.000    0.000    0.000    0.000    0.000 
#    0.000    0.000    0.000    0.000    0.000    0.000 
#
# Total GULP energy -89558.789417 kJ/mol
# GULP energy per Si atom -5597.424339 kJ/mol
# Density = 2.483698 g / cm^3
# Si number density = 24.893641 Si / 1000 Ang^3
#
#
#
# Elastic Constant Matrix: (Units=GPa)
#
#
# Indices 1 2 3 4 5 6 
#
# 1 134.2000 62.1408 26.1566 0.0000 0.0000 0.0000
# 2 62.1408 89.7922 17.5603 0.0000 0.0000 0.0000
# 3 26.1566 17.5603 89.5550 0.0000 0.0000 0.0000
# 4 0.0000 0.0000 0.0000 4.2683 0.0000 0.0000
# 5 0.0000 0.0000 0.0000 0.0000 32.3488 0.0000
# 6 0.0000 0.0000 0.0000 0.0000 0.0000 59.3769
#
#
#
# Elastic Compliance Matrix: (Units=1/GPa)
#
#
# Indices 1 2 3 4 5 6 
#
# 1 0.011246 -0.007425 -0.001829 0.000000 0.000000 0.000000
# 2 -0.007425 0.016484 -0.001063 0.000000 0.000000 0.000000
# 3 -0.001829 -0.001063 0.011909 0.000000 0.000000 0.000000
# 4 0.000000 0.000000 0.000000 0.234288 0.000000 0.000000
# 5 0.000000 0.000000 0.000000 0.000000 0.030913 0.000000
# 6 0.000000 0.000000 0.000000 0.000000 0.000000 0.016842
#
#
# Mechanical properties :
#
#
# Convention : Reuss Voigt Hill
#
# Bulk Modulus (GPa) = 52.62119 58.36251 55.49185
# Shear Modulus (GPa) = 14.34100 33.04475 23.69288
#
# Velocity S-wave (km/s) = 2.40279 3.64735 3.08841
# Velocity P-wave (km/s) = 5.37422 6.42131 5.92096
#
# Compressibility (1/GPa) = 0.01900375
#
# Stress axis : x y z
#
# Youngs Moduli (GPa) = 88.91828 60.66664 83.97039
#
# Poissons Ratio (x) = 0.45047 0.15356
# Poissons Ratio (y) = 0.66025 0.08929
# Poissons Ratio (z) = 0.16261 0.06451
#
# Static dielectric constant tensor:
#      x y z
#    x 1.997930 0.000000 0.000000 
#    y 0.000000 1.926620 0.000000 
#    z 0.000000 0.000000 2.113830 
# 
# From -- ./inp_files/7077.got.cif
#   From: 2010.05.17/outbox.cif.g08.bks.cpg/sg41_4_cif.got.tgz:7077.got - 2010.06.03 18:54:24.
