data_PCOD9367774
_publ_section_title
;
Structure prediction by ZEFSAII (Michael W. Deem and Ramdas Pophale) SiO2 
 PCOD9367774
Probable space group: A B A 2
;
_chemical_formula_sum "Si O2"
_cell_formula_units_Z 48
_cell_length_a 8.384478
_cell_length_b 22.159710
_cell_length_c 10.869717
_cell_angle_alpha 90.000000
_cell_angle_beta 90.000000
_cell_angle_gamma 90.000000
_cell_volume 2019.567342
_symmetry_space_group_name_H-M "A B A 2"
_symmetry_group_IT_number 41
_symmetry_cell_setting 'orthorhombic'
loop_
_space_group_symop_operation_xyz
x,y,z
-x,-y,z
1/2-x,y,1/2+z
1/2+x,-y,1/2+z
x,1/2+y,1/2+z
-x,1/2-y,1/2+z
1/2-x,1/2+y,z
1/2+x,1/2-y,z
loop_
_atom_site_type_symbol
_atom_site_label
_atom_site_fract_x
_atom_site_fract_y
_atom_site_fract_z
Si Si1 0.632288 0.446675 0.921170
Si Si2 0.510252 0.841998 0.567040
Si Si3 0.724762 0.784057 0.750013
Si Si4 0.389788 0.058711 0.142505
Si Si5 0.531874 0.727382 0.422152
Si Si6 0.328005 0.343607 0.624369
O O1 0.500000 0.500000 0.933778
O O2 0.689087 0.444477 0.779352
O O3 0.540670 0.384957 0.953299
O O4 0.768164 0.447317 0.027251
O O5 0.674571 0.830386 0.643135
O O6 0.469839 0.774042 0.524100
O O7 0.354002 0.867449 0.636915
O O8 0.886818 0.767749 0.817384
O O9 0.614426 0.805910 0.861663
O O10 0.674787 0.717413 0.703548
O O11 0.520090 0.113573 0.144812
O O12 0.500000 0.000000 0.133570
O O13 0.649421 0.680228 0.484337
#
# Coordination Sequence:
#
# PCOD9367774 Si02
#       6
#     8   8   8   8   8   8
#     4  11  27  49  75 107 140 190 251 313 374 446
#     4  11  24  39  68  98 142 190 241 299 364 445
#     4  11  23  39  61  99 144 189 238 291 362 441
#     4  11  27  50  76 104 146 190 250 316 376 450
#     4  11  23  39  62  99 143 191 236 294 360 440
#     4  11  24  42  64 101 141 192 240 299 372 440
#
# _framework density 23.767467
#
# number of rings (size 3 to 8) (size 9 to 14) (size 15 to 20)
#    0.000    1.000    3.333    2.000    7.000    0.667 
#    0.000    0.000    0.000    0.000    0.000    0.000 
#    0.000    0.000    0.000    0.000    0.000    0.000 
#
# Total GULP energy -133855.383176 kJ/mol
# GULP energy per Si atom -5577.307632 kJ/mol
# Density = 2.371337 g / cm^3
# Si number density = 23.767467 Si / 1000 Ang^3
#
#
#
# Elastic Constant Matrix: (Units=GPa)
#
#
# Indices 1 2 3 4 5 6 
#
# 1 116.0765 18.0453 60.8501 0.0000 0.0000 0.0000
# 2 18.0453 84.8234 32.0493 0.0000 0.0000 0.0000
# 3 60.8501 32.0493 136.1034 0.0000 0.0000 0.0000
# 4 0.0000 0.0000 0.0000 31.5680 0.0000 0.0000
# 5 0.0000 0.0000 0.0000 0.0000 46.5647 0.0000
# 6 0.0000 0.0000 0.0000 0.0000 0.0000 30.9019
#
#
#
# Elastic Compliance Matrix: (Units=1/GPa)
#
#
# Indices 1 2 3 4 5 6 
#
# 1 0.011275 -0.000542 -0.004913 0.000000 0.000000 0.000000
# 2 -0.000542 0.012967 -0.002811 0.000000 0.000000 0.000000
# 3 -0.004913 -0.002811 0.010206 0.000000 0.000000 0.000000
# 4 0.000000 0.000000 0.000000 0.031678 0.000000 0.000000
# 5 0.000000 0.000000 0.000000 0.000000 0.021475 0.000000
# 6 0.000000 0.000000 0.000000 0.000000 0.000000 0.032361
#
#
# Mechanical properties :
#
#
# Convention : Reuss Voigt Hill
#
# Bulk Modulus (GPa) = 55.82000 62.09919 58.95959
# Shear Modulus (GPa) = 35.09625 36.87748 35.98687
#
# Velocity S-wave (km/s) = 3.84689 3.94330 3.89539
# Velocity P-wave (km/s) = 6.57786 6.84963 6.71512
#
# Compressibility (1/GPa) = 0.01791473
#
# Stress axis : x y z
#
# Youngs Moduli (GPa) = 88.69242 77.12110 97.98263
#
# Poissons Ratio (x) = 0.04182 0.48141
# Poissons Ratio (y) = 0.04809 0.27542
# Poissons Ratio (z) = 0.43576 0.21678
#
# Static dielectric constant tensor:
#      x y z
#    x 2.002940 0.000000 0.000000 
#    y 0.000000 1.880380 0.000000 
#    z 0.000000 0.000000 1.942240 
# 
# From -- ./inp_files/4502.got.cif
#   From: 2010.05.17/outbox.cif.g08.bks.cpg/sg41_3_cif.got.tgz:4502.got - 2010.06.03 18:54:24.
