data_PCOD9367131
_publ_section_title
;
Structure prediction by ZEFSAII (Michael W. Deem and Ramdas Pophale) SiO2 
 PCOD9367131
Probable space group: A B A 2
;
_chemical_formula_sum "Si O2"
_cell_formula_units_Z 48
_cell_length_a 8.763499
_cell_length_b 25.315058
_cell_length_c 9.403010
_cell_angle_alpha 90.000000
_cell_angle_beta 90.000000
_cell_angle_gamma 90.000000
_cell_volume 2086.043527
_symmetry_space_group_name_H-M "A B A 2"
_symmetry_group_IT_number 41
_symmetry_cell_setting 'orthorhombic'
loop_
_space_group_symop_operation_xyz
x,y,z
-x,-y,z
1/2-x,y,1/2+z
1/2+x,-y,1/2+z
x,1/2+y,1/2+z
-x,1/2-y,1/2+z
1/2-x,1/2+y,z
1/2+x,1/2-y,z
loop_
_atom_site_type_symbol
_atom_site_label
_atom_site_fract_x
_atom_site_fract_y
_atom_site_fract_z
Si Si1 0.541524 0.176272 0.342750
Si Si2 0.963657 0.070286 0.956423
Si Si3 0.500000 0.000000 0.198386
Si Si4 0.032884 0.672437 0.040267
Si Si5 0.774976 0.250637 0.443147
Si Si6 0.500000 0.000000 0.710778
Si Si7 0.167678 0.565169 0.951730
O O1 0.591584 0.130265 0.449020
O O2 0.503395 0.149902 0.194305
O O3 0.663623 0.223070 0.329425
O O4 0.388163 0.204213 0.392908
O O5 0.149562 0.071044 0.956057
O O6 0.917429 0.038661 0.813598
O O7 0.918048 0.039929 0.099674
O O8 0.605727 0.965952 0.091304
O O9 0.160071 0.718901 0.048687
O O10 0.092973 0.623692 0.948147
O O11 0.882646 0.703011 0.991347
O O12 0.390470 0.033038 0.814613
#
# Coordination Sequence:
#
# PCOD9367131 Si02
#       7
#     8   8   4   8   8   4   8
#     4  11  22  44  70 101 133 181 218 277 334 408
#     4  11  22  44  69  96 132 177 221 279 343 398
#     4  10  22  42  64  94 126 174 224 276 330 400
#     4  11  22  44  70 101 133 181 218 277 334 408
#     4  10  24  42  66 104 138 168 226 276 334 396
#     4  10  26  42  60 102 126 174 224 276 326 400
#     4  11  22  44  69  96 132 177 221 279 343 398
#
# _framework density 23.010066999999999
#
# number of rings (size 3 to 8) (size 9 to 14) (size 15 to 20)
#    0.000    1.333    3.333    2.000    0.000    0.000 
#   33.000    0.000    0.000    0.000    0.000    0.000 
#    0.000    0.000    0.000    0.000    0.000    0.000 
#
# Total GULP energy -134061.257062 kJ/mol
# GULP energy per Si atom -5585.885711 kJ/mol
# Density = 2.295770 g / cm^3
# Si number density = 23.010067 Si / 1000 Ang^3
#
#
#
# Elastic Constant Matrix: (Units=GPa)
#
#
# Indices 1 2 3 4 5 6 
#
# 1 75.9540 35.4224 18.3418 0.0000 0.0000 0.0000
# 2 35.4224 139.7647 39.8822 0.0000 0.0000 0.0000
# 3 18.3418 39.8822 110.0591 0.0000 0.0000 0.0000
# 4 0.0000 0.0000 0.0000 37.3410 0.0000 0.0000
# 5 0.0000 0.0000 0.0000 0.0000 14.3634 0.0000
# 6 0.0000 0.0000 0.0000 0.0000 0.0000 -163.8413
#
#
#
# Elastic Compliance Matrix: (Units=1/GPa)
#
#
# Indices 1 2 3 4 5 6 
#
# 1 0.015085 -0.003464 -0.001259 0.000000 0.000000 0.000000
# 2 -0.003464 0.008776 -0.002603 0.000000 0.000000 0.000000
# 3 -0.001259 -0.002603 0.010239 0.000000 0.000000 0.000000
# 4 0.000000 0.000000 0.000000 0.026780 0.000000 0.000000
# 5 0.000000 0.000000 0.000000 0.000000 0.069622 0.000000
# 6 0.000000 0.000000 0.000000 0.000000 0.000000 -0.006103
#
#
# Mechanical properties :
#
#
# Convention : Reuss Voigt Hill
#
# Bulk Modulus (GPa) = 51.41717 57.00785 54.21251
# Shear Modulus (GPa) = 34.35667 -6.95196 13.70235
#
# Velocity S-wave (km/s) = 3.86828 -1.74007 2.44292
# Velocity P-wave (km/s) = 6.50734 4.55981 5.61860
#
# Compressibility (1/GPa) = 0.01944876
#
# Stress axis : x y z
#
# Youngs Moduli (GPa) = 66.28938 113.95343 97.66633
#
# Poissons Ratio (x) = 0.39475 0.12294
# Poissons Ratio (y) = 0.22963 0.25419
# Poissons Ratio (z) = 0.08344 0.29658
#
# Static dielectric constant tensor:
#      x y z
#    x 1.828900 0.000000 0.000000 
#    y 0.000000 1.840700 0.000000 
#    z 0.000000 0.000000 1.879230 
# 
# From -- ./inp_files/1817.got.cif
#   From: 2010.05.17/outbox.cif.g08.bks.cpg/sg41_1_cif.got.tgz:1817.got - 2010.06.03 18:54:24.
