data_PCOD9367278
_publ_section_title
;
Structure prediction by ZEFSAII (Michael W. Deem and Ramdas Pophale) SiO2 
 PCOD9367278
Probable space group: A B A 2
;
_chemical_formula_sum "Si O2"
_cell_formula_units_Z 48
_cell_length_a 12.466657
_cell_length_b 8.889395
_cell_length_c 20.504549
_cell_angle_alpha 90.000000
_cell_angle_beta 90.000000
_cell_angle_gamma 90.000000
_cell_volume 2272.335412
_symmetry_space_group_name_H-M "A B A 2"
_symmetry_group_IT_number 41
_symmetry_cell_setting 'orthorhombic'
loop_
_space_group_symop_operation_xyz
x,y,z
-x,-y,z
1/2-x,y,1/2+z
1/2+x,-y,1/2+z
x,1/2+y,1/2+z
-x,1/2-y,1/2+z
1/2-x,1/2+y,z
1/2+x,1/2-y,z
loop_
_atom_site_type_symbol
_atom_site_label
_atom_site_fract_x
_atom_site_fract_y
_atom_site_fract_z
Si Si1 0.000000 0.000000 0.778070
Si Si2 0.000000 0.500000 0.026140
Si Si3 0.202524 0.125216 0.853988
Si Si4 0.152520 0.765593 0.737911
Si Si5 0.152519 0.734408 0.066298
Si Si6 0.797476 0.125215 0.450221
Si Si7 0.793807 0.499999 0.652105
O O1 0.106395 0.046700 0.816154
O O2 0.961183 0.151630 0.743484
O O3 0.893605 0.546699 0.988057
O O4 0.961183 0.348369 0.060726
O O5 0.286509 0.206949 0.804052
O O6 0.156026 0.250001 0.902105
O O7 0.250001 0.000001 0.902105
O O8 0.141897 0.615609 0.695936
O O9 0.223796 0.890855 0.699482
O O10 0.223796 0.609147 0.104727
O O11 0.141897 0.884392 0.108273
O O12 0.213490 0.793052 0.000157
#
# Coordination Sequence:
#
# PCOD9367278 Si02
#       7
#     4   4   8   8   8   8   8
#     4  12  26  43  76 102 144 195 238 282 382 424
#     4  12  26  43  76 102 144 195 238 282 382 424
#     4  12  25  46  70 104 144 182 241 303 353 434
#     4  11  23  47  72 108 138 194 234 300 356 433
#     4  11  23  47  72 108 138 194 234 300 356 433
#     4  12  25  46  70 104 144 182 241 303 353 434
#     4  10  22  47  75  96 156 174 236 308 346 426
#
# _framework density 21.123642
#
# number of rings (size 3 to 8) (size 9 to 14) (size 15 to 20)
#    0.000    0.667    6.667    0.000    4.667    0.667 
#    0.000    1.667    0.000    0.000    0.000    0.000 
#    0.000    0.000    0.000    0.000    0.000    0.000 
#
# Total GULP energy -133896.913547 kJ/mol
# GULP energy per Si atom -5579.038064 kJ/mol
# Density = 2.107556 g / cm^3
# Si number density = 21.123642 Si / 1000 Ang^3
#
#
#
# Elastic Constant Matrix: (Units=GPa)
#
#
# Indices 1 2 3 4 5 6 
#
# 1 80.9917 47.6576 33.6479 0.0000 0.0000 0.0000
# 2 47.6576 172.9750 61.1414 0.0000 0.0000 0.0000
# 3 33.6479 61.1414 98.6823 0.0000 0.0000 0.0000
# 4 0.0000 0.0000 0.0000 67.6197 0.0000 0.0000
# 5 0.0000 0.0000 0.0000 0.0000 21.7939 0.0000
# 6 0.0000 0.0000 0.0000 0.0000 0.0000 46.2143
#
#
#
# Elastic Compliance Matrix: (Units=1/GPa)
#
#
# Indices 1 2 3 4 5 6 
#
# 1 0.015577 -0.003091 -0.003396 0.000000 0.000000 0.000000
# 2 -0.003091 0.008016 -0.003912 0.000000 0.000000 0.000000
# 3 -0.003396 -0.003912 0.013715 0.000000 0.000000 0.000000
# 4 0.000000 0.000000 0.000000 0.014789 0.000000 0.000000
# 5 0.000000 0.000000 0.000000 0.000000 0.045884 0.000000
# 6 0.000000 0.000000 0.000000 0.000000 0.000000 0.021638
#
#
# Mechanical properties :
#
#
# Convention : Reuss Voigt Hill
#
# Bulk Modulus (GPa) = 60.57364 70.83807 65.70586
# Shear Modulus (GPa) = 34.26497 41.13904 37.70201
#
# Velocity S-wave (km/s) = 4.03192 4.41788 4.22930
# Velocity P-wave (km/s) = 7.10022 7.72213 7.41770
#
# Compressibility (1/GPa) = 0.01650883
#
# Stress axis : x y z
#
# Youngs Moduli (GPa) = 64.19806 124.75365 72.91039
#
# Poissons Ratio (x) = 0.38565 0.24760
# Poissons Ratio (y) = 0.19846 0.28525
# Poissons Ratio (z) = 0.21801 0.48808
#
# Static dielectric constant tensor:
#      x y z
#    x 1.856380 0.000000 0.000000 
#    y 0.000000 1.731520 0.000000 
#    z 0.000000 0.000000 1.844320 
# 
# From -- ./inp_files/2079.got.cif
#   From: 2010.05.17/outbox.cif.g08.bks.cpg/sg41_2_cif.got.tgz:2079.got - 2010.06.03 18:54:24.
