data_PCOD9367622
_publ_section_title
;
Structure prediction by ZEFSAII (Michael W. Deem and Ramdas Pophale) SiO2 
 PCOD9367622
Probable space group: A B A 2
;
_chemical_formula_sum "Si O2"
_cell_formula_units_Z 40
_cell_length_a 9.118029
_cell_length_b 11.882009
_cell_length_c 15.008840
_cell_angle_alpha 90.000000
_cell_angle_beta 90.000000
_cell_angle_gamma 90.000000
_cell_volume 1626.065270
_symmetry_space_group_name_H-M "A B A 2"
_symmetry_group_IT_number 41
_symmetry_cell_setting 'orthorhombic'
loop_
_space_group_symop_operation_xyz
x,y,z
-x,-y,z
1/2-x,y,1/2+z
1/2+x,-y,1/2+z
x,1/2+y,1/2+z
-x,1/2-y,1/2+z
1/2-x,1/2+y,z
1/2+x,1/2-y,z
loop_
_atom_site_type_symbol
_atom_site_label
_atom_site_fract_x
_atom_site_fract_y
_atom_site_fract_z
Si Si1 0.500000 0.000000 0.611480
Si Si2 0.274268 0.180331 0.346283
Si Si3 0.774269 0.819669 0.047754
Si Si4 0.473632 0.879245 0.782301
Si Si5 0.500000 0.500000 0.782557
Si Si6 0.473634 0.879245 0.111736
O O1 0.618393 0.927349 0.558819
O O2 0.426720 0.914032 0.682469
O O3 0.216155 0.184450 0.447019
O O4 0.366922 0.292158 0.327614
O O5 0.381606 0.072651 0.335218
O O6 0.137321 0.170514 0.280399
O O7 0.637323 0.829487 0.113639
O O8 0.866923 0.707843 0.066423
O O9 0.500000 0.000000 0.829438
O O10 0.426721 0.414032 0.711568
O O11 0.500000 0.000000 0.064600
#
# Coordination Sequence:
#
# PCOD9367622 Si02
#       6
#     4   8   8   8   4   8
#     4  10  25  46  73 100 146 190 236 288 351 432
#     4  12  25  45  74 109 142 186 240 303 357 418
#     4  12  25  45  74 109 142 186 240 303 357 418
#     4  10  27  47  75  99 149 188 244 284 362 429
#     4  10  25  46  73 100 146 190 236 288 351 432
#     4  10  27  47  75  99 149 188 244 284 362 429
#
# _framework density 24.599260000000001
#
# number of rings (size 3 to 8) (size 9 to 14) (size 15 to 20)
#    1.200    0.000    0.000    4.200    5.600    3.200 
#    0.000    0.000    0.000    0.000    0.000    0.000 
#    0.000    0.000    0.000    0.000    0.000    0.000 
#
# Total GULP energy -111910.793932 kJ/mol
# GULP energy per Si atom -5595.539697 kJ/mol
# Density = 2.454327 g / cm^3
# Si number density = 24.599260 Si / 1000 Ang^3
#
#
#
# Elastic Constant Matrix: (Units=GPa)
#
#
# Indices 1 2 3 4 5 6 
#
# 1 84.5655 62.4141 -12.4981 0.0000 0.0000 0.0000
# 2 62.4141 171.4320 23.9817 0.0000 0.0000 0.0000
# 3 -12.4981 23.9817 60.2341 0.0000 0.0000 0.0000
# 4 0.0000 0.0000 0.0000 -3.0439 0.0000 0.0000
# 5 0.0000 0.0000 0.0000 0.0000 35.8609 0.0000
# 6 0.0000 0.0000 0.0000 0.0000 0.0000 36.6887
#
#
#
# Elastic Compliance Matrix: (Units=1/GPa)
#
#
# Indices 1 2 3 4 5 6 
#
# 1 0.018546 -0.007721 0.006922 0.000000 0.000000 0.000000
# 2 -0.007721 0.009391 -0.005341 0.000000 0.000000 0.000000
# 3 0.006922 -0.005341 0.020165 0.000000 0.000000 0.000000
# 4 0.000000 0.000000 0.000000 -0.328525 0.000000 0.000000
# 5 0.000000 0.000000 0.000000 0.000000 0.027885 0.000000
# 6 0.000000 0.000000 0.000000 0.000000 0.000000 0.027256
#
#
# Mechanical properties :
#
#
# Convention : Reuss Voigt Hill
#
# Bulk Modulus (GPa) = 27.91475 51.55857 39.73666
# Shear Modulus (GPa) = -24.86816 30.05675 2.59430
#
# Velocity S-wave (km/s) = -3.18296 3.49930 1.02806
# Velocity P-wave (km/s) = 1.46148 6.10997 4.19498
#
# Compressibility (1/GPa) = 0.03582336
#
# Stress axis : x y z
#
# Youngs Moduli (GPa) = 53.91863 106.48182 49.59170
#
# Poissons Ratio (x) = 0.82211 -0.34328
# Poissons Ratio (y) = 0.41629 0.26487
# Poissons Ratio (z) = -0.37323 0.56872
#
# Static dielectric constant tensor:
#      x y z
#    x 1.876830 0.000000 0.000000 
#    y 0.000000 2.006370 0.000000 
#    z 0.000000 0.000000 1.893830 
# 
# From -- ./inp_files/9576.got.cif
#   From: 2010.05.17/outbox.cif.g08.bks.cpg/sg41_5_cif.got.tgz:9576.got - 2010.06.03 18:54:24.
