data_PCOD9367486
_publ_section_title
;
Structure prediction by ZEFSAII (Michael W. Deem and Ramdas Pophale) SiO2 
 PCOD9367486
Probable space group: A B A 2
;
_chemical_formula_sum "Si O2"
_cell_formula_units_Z 64
_cell_length_a 7.876426
_cell_length_b 14.387222
_cell_length_c 22.371290
_cell_angle_alpha 90.000000
_cell_angle_beta 90.000000
_cell_angle_gamma 90.000000
_cell_volume 2535.112109
_symmetry_space_group_name_H-M "A B A 2"
_symmetry_group_IT_number 41
_symmetry_cell_setting 'orthorhombic'
loop_
_space_group_symop_operation_xyz
x,y,z
-x,-y,z
1/2-x,y,1/2+z
1/2+x,-y,1/2+z
x,1/2+y,1/2+z
-x,1/2-y,1/2+z
1/2-x,1/2+y,z
1/2+x,1/2-y,z
loop_
_atom_site_type_symbol
_atom_site_label
_atom_site_fract_x
_atom_site_fract_y
_atom_site_fract_z
Si Si1 0.231994 0.346733 0.860590
Si Si2 0.886808 0.670722 0.985441
Si Si3 0.226546 0.121578 0.971190
Si Si4 0.118058 0.131039 0.844543
Si Si5 0.152951 0.883307 0.623383
Si Si6 0.326190 0.056210 0.600289
Si Si7 0.060851 0.593335 0.775242
Si Si8 0.496145 0.786415 0.666807
O O1 0.233901 0.363766 0.931970
O O2 0.186370 0.237291 0.852422
O O3 0.417004 0.368218 0.833729
O O4 0.074723 0.398067 0.829138
O O5 0.869154 0.781987 0.986199
O O6 0.075369 0.645264 0.964570
O O7 0.856013 0.633793 0.051883
O O8 0.155394 0.084794 0.908923
O O9 0.213516 0.061385 0.030284
O O10 0.245730 0.087605 0.796657
O O11 0.317153 0.830665 0.649666
O O12 0.005652 0.822401 0.653225
O O13 0.184877 0.992457 0.631713
O O14 0.368243 0.156879 0.626427
O O15 0.500000 0.000000 0.605492
O O16 0.037065 0.683374 0.734035
O O17 0.000000 0.500000 0.741709
#
# Coordination Sequence:
#
# PCOD9367486 Si02
#       8
#     8   8   8   8   8   8   8   8
#     4  11  23  43  74 111 146 197 254 298 374 455
#     4  11  21  39  70 103 150 190 237 303 363 448
#     4  11  21  40  66 105 149 192 240 297 372 446
#     4  11  23  43  75 106 146 199 244 303 370 455
#     4  11  24  43  72 100 131 190 238 289 371 437
#     4  10  24  42  66 103 141 185 236 299 370 444
#     4  12  27  50  72 105 151 194 253 319 377 442
#     4  11  26  48  71  98 142 192 240 307 366 434
#
# _framework density 25.245432000000001
#
# number of rings (size 3 to 8) (size 9 to 14) (size 15 to 20)
#    0.000    1.000    3.750    4.125    7.000    2.000 
#    0.000    0.000    2.750    0.000    0.000    0.000 
#    0.000    0.000    0.000    0.000    0.000    0.000 
#
# Total GULP energy -179250.767677 kJ/mol
# GULP energy per Si atom -5601.586490 kJ/mol
# Density = 2.518797 g / cm^3
# Si number density = 25.245432 Si / 1000 Ang^3
#
#
#
# Elastic Constant Matrix: (Units=GPa)
#
#
# Indices 1 2 3 4 5 6 
#
# 1 144.9243 4.4247 20.5665 0.0000 0.0000 0.0000
# 2 4.4247 93.2255 9.3298 0.0000 0.0000 0.0000
# 3 20.5665 9.3298 93.5450 0.0000 0.0000 0.0000
# 4 0.0000 0.0000 0.0000 18.1758 0.0000 0.0000
# 5 0.0000 0.0000 0.0000 0.0000 35.4475 0.0000
# 6 0.0000 0.0000 0.0000 0.0000 0.0000 20.0286
#
#
#
# Elastic Compliance Matrix: (Units=1/GPa)
#
#
# Indices 1 2 3 4 5 6 
#
# 1 0.007125 -0.000183 -0.001548 0.000000 0.000000 0.000000
# 2 -0.000183 0.010840 -0.001041 0.000000 0.000000 0.000000
# 3 -0.001548 -0.001041 0.011134 0.000000 0.000000 0.000000
# 4 0.000000 0.000000 0.000000 0.055018 0.000000 0.000000
# 5 0.000000 0.000000 0.000000 0.000000 0.028211 0.000000
# 6 0.000000 0.000000 0.000000 0.000000 0.000000 0.049929
#
#
# Mechanical properties :
#
#
# Convention : Reuss Voigt Hill
#
# Bulk Modulus (GPa) = 42.45461 44.48185 43.46823
# Shear Modulus (GPa) = 28.46517 34.55529 31.51023
#
# Velocity S-wave (km/s) = 3.36153 3.70371 3.53676
# Velocity P-wave (km/s) = 5.64975 5.99566 5.82528
#
# Compressibility (1/GPa) = 0.02355457
#
# Stress axis : x y z
#
# Youngs Moduli (GPa) = 140.34163 92.25485 89.81292
#
# Poissons Ratio (x) = 0.01690 0.13906
# Poissons Ratio (y) = 0.02572 0.09348
# Poissons Ratio (z) = 0.21729 0.09602
#
# Static dielectric constant tensor:
#      x y z
#    x 1.771630 0.000000 0.000000 
#    y 0.000000 2.024640 0.000000 
#    z 0.000000 0.000000 1.975730 
# 
# From -- ./inp_files/12055.got.cif
#   From: 2010.05.17/outbox.cif.g08.bks.cpg/sg41_7_cif.got.tgz:12055.got - 2010.06.03 18:54:24.
