data_PCOD9367937
_publ_section_title
;
Structure prediction by ZEFSAII (Michael W. Deem and Ramdas Pophale) SiO2 
 PCOD9367937
Probable space group: A B A 2
;
_chemical_formula_sum "Si O2"
_cell_formula_units_Z 24
_cell_length_a 10.420589
_cell_length_b 17.602898
_cell_length_c 5.003704
_cell_angle_alpha 90.000000
_cell_angle_beta 90.000000
_cell_angle_gamma 90.000000
_cell_volume 917.842261
_symmetry_space_group_name_H-M "A B A 2"
_symmetry_group_IT_number 41
_symmetry_cell_setting 'orthorhombic'
loop_
_space_group_symop_operation_xyz
x,y,z
-x,-y,z
1/2-x,y,1/2+z
1/2+x,-y,1/2+z
x,1/2+y,1/2+z
-x,1/2-y,1/2+z
1/2-x,1/2+y,z
1/2+x,1/2-y,z
loop_
_atom_site_type_symbol
_atom_site_label
_atom_site_fract_x
_atom_site_fract_y
_atom_site_fract_z
Si Si1 0.845829 0.230092 0.808190
Si Si2 0.513912 0.627633 0.167279
Si Si3 0.181837 0.000329 0.342727
O O1 0.759269 0.235422 0.544785
O O2 0.946680 0.299875 0.802119
O O3 0.934237 0.157497 0.882560
O O4 0.410490 0.561420 0.204470
O O5 0.636024 0.585584 0.295353
O O6 0.193172 0.011667 0.657774
#
# Coordination Sequence:
#
# PCOD9367937 Si02
#       3
#     8   8   8
#     4  12  26  44  70 106 144 188 242 302 368 440
#     4  11  26  46  74 105 146 192 244 305 370 440
#     4  11  26  47  72 104 142 191 246 303 368 442
#
# _framework density 26.148282999999999
#
# number of rings (size 3 to 8) (size 9 to 14) (size 15 to 20)
#    0.000    0.667    0.000    6.000    0.000   16.000 
#    0.000    0.000    0.000    0.000    0.000    0.000 
#    0.000    0.000    0.000    0.000    0.000    0.000 
#
# Total GULP energy -67099.468292 kJ/mol
# GULP energy per Si atom -5591.622358 kJ/mol
# Density = 2.608877 g / cm^3
# Si number density = 26.148283 Si / 1000 Ang^3
#
#
#
# Elastic Constant Matrix: (Units=GPa)
#
#
# Indices 1 2 3 4 5 6 
#
# 1 92.4802 42.1071 40.5944 0.0000 0.0000 0.0000
# 2 42.1071 126.3008 38.6295 0.0000 0.0000 0.0000
# 3 40.5944 38.6295 153.1827 0.0000 0.0000 0.0000
# 4 0.0000 0.0000 0.0000 34.9393 0.0000 0.0000
# 5 0.0000 0.0000 0.0000 0.0000 47.3707 0.0000
# 6 0.0000 0.0000 0.0000 0.0000 0.0000 70.4430
#
#
#
# Elastic Compliance Matrix: (Units=1/GPa)
#
#
# Indices 1 2 3 4 5 6 
#
# 1 0.013697 -0.003745 -0.002685 0.000000 0.000000 0.000000
# 2 -0.003745 0.009603 -0.001429 0.000000 0.000000 0.000000
# 3 -0.002685 -0.001429 0.007600 0.000000 0.000000 0.000000
# 4 0.000000 0.000000 0.000000 0.028621 0.000000 0.000000
# 5 0.000000 0.000000 0.000000 0.000000 0.021110 0.000000
# 6 0.000000 0.000000 0.000000 0.000000 0.000000 0.014196
#
#
# Mechanical properties :
#
#
# Convention : Reuss Voigt Hill
#
# Bulk Modulus (GPa) = 65.87137 68.29175 67.08156
# Shear Modulus (GPa) = 43.24977 47.25944 45.25461
#
# Velocity S-wave (km/s) = 4.07138 4.25592 4.16467
# Velocity P-wave (km/s) = 6.88096 7.09396 6.98827
#
# Compressibility (1/GPa) = 0.01518110
#
# Stress axis : x y z
#
# Youngs Moduli (GPa) = 73.00835 104.13059 131.57502
#
# Poissons Ratio (x) = 0.38998 0.35333
# Poissons Ratio (y) = 0.27342 0.18806
# Poissons Ratio (z) = 0.19605 0.14883
#
# Static dielectric constant tensor:
#      x y z
#    x 2.164950 0.000000 0.000000 
#    y 0.000000 2.019990 0.000000 
#    z 0.000000 0.000000 2.015680 
# 
# From -- ./inp_files/58.got.cif
#   From: 2010.05.17/outbox.cif.g08.bks.cpg/sg41_1_cif.got.tgz:58.got - 2010.06.03 18:54:24.
