data_PCOD9367737
_publ_section_title
;
Structure prediction by ZEFSAII (Michael W. Deem and Ramdas Pophale) SiO2 
 PCOD9367737
Probable space group: A B A 2
;
_chemical_formula_sum "Si O2"
_cell_formula_units_Z 48
_cell_length_a 7.835810
_cell_length_b 15.125968
_cell_length_c 15.817207
_cell_angle_alpha 90.000000
_cell_angle_beta 90.000000
_cell_angle_gamma 90.000000
_cell_volume 1874.721985
_symmetry_space_group_name_H-M "A B A 2"
_symmetry_group_IT_number 41
_symmetry_cell_setting 'orthorhombic'
loop_
_space_group_symop_operation_xyz
x,y,z
-x,-y,z
1/2-x,y,1/2+z
1/2+x,-y,1/2+z
x,1/2+y,1/2+z
-x,1/2-y,1/2+z
1/2-x,1/2+y,z
1/2+x,1/2-y,z
loop_
_atom_site_type_symbol
_atom_site_label
_atom_site_fract_x
_atom_site_fract_y
_atom_site_fract_z
Si Si1 0.824587 0.798035 0.443900
Si Si2 0.680943 0.720285 0.129903
Si Si3 0.374207 0.633896 0.207951
Si Si4 0.851613 0.153520 0.358338
Si Si5 0.292032 0.506403 0.448100
Si Si6 0.693603 0.032815 0.139178
O O1 0.798012 0.756481 0.535605
O O2 0.778040 0.734159 0.366420
O O3 0.024743 0.820211 0.436754
O O4 0.735761 0.893428 0.433852
O O5 0.495377 0.675000 0.135171
O O6 0.712754 0.800518 0.195422
O O7 0.798403 0.637067 0.156791
O O8 0.508430 0.638853 0.285450
O O9 0.308495 0.534666 0.193331
O O10 0.744672 0.065428 0.378257
O O11 0.500000 0.500000 0.444662
O O12 0.243261 0.478255 0.542269
O O13 0.500000 0.000000 0.143543
#
# Coordination Sequence:
#
# PCOD9367737 Si02
#       6
#     8   8   8   8   8   8
#     4  11  22  41  70  99 138 193 242 298 374 449
#     4  12  24  42  71 106 145 192 252 311 374 463
#     4  12  26  44  71 110 152 191 251 314 380 448
#     4  11  24  45  68 104 146 191 240 308 377 434
#     4   9  20  39  68  96 136 190 240 295 367 443
#     4  11  23  43  71 107 143 197 249 308 373 450
#
# _framework density 25.603794000000001
#
# number of rings (size 3 to 8) (size 9 to 14) (size 15 to 20)
#    0.000    1.000    3.333    3.500    2.333    4.000 
#    0.000    0.833    0.000    0.000    0.000    0.000 
#    0.000    0.000    0.000    0.000    0.000    0.000 
#
# Total GULP energy -134103.133934 kJ/mol
# GULP energy per Si atom -5587.630581 kJ/mol
# Density = 2.554552 g / cm^3
# Si number density = 25.603794 Si / 1000 Ang^3
#
#
#
# Elastic Constant Matrix: (Units=GPa)
#
#
# Indices 1 2 3 4 5 6 
#
# 1 52.2530 22.9281 11.3856 0.0000 0.0000 0.0000
# 2 22.9281 204.6488 58.0858 0.0000 0.0000 0.0000
# 3 11.3856 58.0858 109.0257 0.0000 0.0000 0.0000
# 4 0.0000 0.0000 0.0000 31.2178 0.0000 0.0000
# 5 0.0000 0.0000 0.0000 0.0000 15.4600 0.0000
# 6 0.0000 0.0000 0.0000 0.0000 0.0000 35.4301
#
#
#
# Elastic Compliance Matrix: (Units=1/GPa)
#
#
# Indices 1 2 3 4 5 6 
#
# 1 0.020232 -0.001964 -0.001066 0.000000 0.000000 0.000000
# 2 -0.001964 0.005948 -0.002964 0.000000 0.000000 0.000000
# 3 -0.001066 -0.002964 0.010862 0.000000 0.000000 0.000000
# 4 0.000000 0.000000 0.000000 0.032033 0.000000 0.000000
# 5 0.000000 0.000000 0.000000 0.000000 0.064683 0.000000
# 6 0.000000 0.000000 0.000000 0.000000 0.000000 0.028225
#
#
# Mechanical properties :
#
#
# Convention : Reuss Voigt Hill
#
# Bulk Modulus (GPa) = 39.91423 61.19185 50.55304
# Shear Modulus (GPa) = 27.42405 34.65680 31.04042
#
# Velocity S-wave (km/s) = 3.27631 3.68310 3.48564
# Velocity P-wave (km/s) = 5.47131 6.48370 5.99890
#
# Compressibility (1/GPa) = 0.02505372
#
# Stress axis : x y z
#
# Youngs Moduli (GPa) = 49.42713 168.13421 92.06028
#
# Poissons Ratio (x) = 0.33022 0.09818
# Poissons Ratio (y) = 0.09708 0.27283
# Poissons Ratio (z) = 0.05271 0.49829
#
# Static dielectric constant tensor:
#      x y z
#    x 2.099800 0.000000 0.000000 
#    y 0.000000 2.162720 0.000000 
#    z 0.000000 0.000000 2.081150 
# 
# From -- ./inp_files/9651.got.cif
#   From: 2010.05.17/outbox.cif.g08.bks.cpg/sg41_5_cif.got.tgz:9651.got - 2010.06.03 18:54:24.
