data_PCOD9367949
_publ_section_title
;
Structure prediction by ZEFSAII (Michael W. Deem and Ramdas Pophale) SiO2 
 PCOD9367949
Probable space group: A B A 2
;
_chemical_formula_sum "Si O2"
_cell_formula_units_Z 48
_cell_length_a 5.016689
_cell_length_b 20.164120
_cell_length_c 19.628456
_cell_angle_alpha 90.000000
_cell_angle_beta 90.000000
_cell_angle_gamma 90.000000
_cell_volume 1985.558059
_symmetry_space_group_name_H-M "A B A 2"
_symmetry_group_IT_number 41
_symmetry_cell_setting 'orthorhombic'
loop_
_space_group_symop_operation_xyz
x,y,z
-x,-y,z
1/2-x,y,1/2+z
1/2+x,-y,1/2+z
x,1/2+y,1/2+z
-x,1/2-y,1/2+z
1/2-x,1/2+y,z
1/2+x,1/2-y,z
loop_
_atom_site_type_symbol
_atom_site_label
_atom_site_fract_x
_atom_site_fract_y
_atom_site_fract_z
Si Si1 0.500000 0.000000 0.998250
Si Si2 0.475700 0.203132 0.969261
Si Si3 0.560917 0.115191 0.094411
Si Si4 0.632190 0.613763 0.343999
Si Si5 0.733104 0.202696 0.213641
Si Si6 0.000000 0.500000 0.409750
Si Si7 0.000000 0.500000 0.765960
Si Si8 0.500000 0.500000 0.680464
O O1 0.748153 0.973691 0.954386
O O2 0.651097 0.056297 0.043093
O O3 0.252114 0.258175 0.965667
O O4 0.499214 0.153897 0.905368
O O5 0.436945 0.166179 0.041351
O O6 0.746464 0.155538 0.146589
O O7 0.390563 0.065657 0.142055
O O8 0.731250 0.662824 0.284388
O O9 0.859075 0.562292 0.371123
O O10 0.421327 0.563331 0.310095
O O11 0.449649 0.239094 0.210952
O O12 0.249849 0.477088 0.723024
#
# Coordination Sequence:
#
# PCOD9367949 Si02
#       8
#     4   8   8   8   8   4   4   4
#     4  11  27  47  80 115 151 191 250 323 379 437
#     4  12  29  49  76 107 152 205 251 302 365 454
#     4  11  26  52  76 110 150 198 252 312 374 444
#     4  12  28  50  80 112 154 192 258 306 388 440
#     4  12  29  49  76 107 152 205 251 302 365 454
#     4  12  27  48  78 116 147 198 240 330 373 450
#     4  12  27  48  78 116 147 198 240 330 373 450
#     4  11  27  47  80 115 151 191 250 323 379 437
#
# _framework density 24.174565000000001
#
# number of rings (size 3 to 8) (size 9 to 14) (size 15 to 20)
#    0.000    0.333    3.333    3.000    4.667    8.000 
#    0.000    0.000    0.000    0.000    0.000    0.000 
#    0.000    0.000    0.000    0.000    0.000    0.000 
#
# Total GULP energy -134050.381398 kJ/mol
# GULP energy per Si atom -5585.432558 kJ/mol
# Density = 2.411954 g / cm^3
# Si number density = 24.174565 Si / 1000 Ang^3
#
#
#
# Elastic Constant Matrix: (Units=GPa)
#
#
# Indices 1 2 3 4 5 6 
#
# 1 73.8147 22.1457 9.0168 0.0000 0.0000 0.0000
# 2 22.1457 146.8688 61.7038 0.0000 0.0000 0.0000
# 3 9.0168 61.7038 141.5079 0.0000 0.0000 0.0000
# 4 0.0000 0.0000 0.0000 99.4212 0.0000 0.0000
# 5 0.0000 0.0000 0.0000 0.0000 1.3353 0.0000
# 6 0.0000 0.0000 0.0000 0.0000 0.0000 35.7491
#
#
#
# Elastic Compliance Matrix: (Units=1/GPa)
#
#
# Indices 1 2 3 4 5 6 
#
# 1 0.014189 -0.002154 0.000035 0.000000 0.000000 0.000000
# 2 -0.002154 0.008663 -0.003640 0.000000 0.000000 0.000000
# 3 0.000035 -0.003640 0.008652 0.000000 0.000000 0.000000
# 4 0.000000 0.000000 0.000000 0.010058 0.000000 0.000000
# 5 0.000000 0.000000 0.000000 0.000000 0.748888 0.000000
# 6 0.000000 0.000000 0.000000 0.000000 0.000000 0.027973
#
#
# Mechanical properties :
#
#
# Convention : Reuss Voigt Hill
#
# Bulk Modulus (GPa) = 50.03588 60.88044 55.45816
# Shear Modulus (GPa) = 5.97655 45.25612 25.61633
#
# Velocity S-wave (km/s) = 1.57404 4.33142 3.25874
# Velocity P-wave (km/s) = 4.90369 7.08895 6.09506
#
# Compressibility (1/GPa) = 0.01998566
#
# Stress axis : x y z
#
# Youngs Moduli (GPa) = 70.47470 115.43356 115.58315
#
# Poissons Ratio (x) = 0.24869 -0.00408
# Poissons Ratio (y) = 0.15183 0.42074
# Poissons Ratio (z) = -0.00249 0.42020
#
# Static dielectric constant tensor:
#      x y z
#    x 1.811810 0.000000 0.000000 
#    y 0.000000 1.916820 0.000000 
#    z 0.000000 0.000000 2.061550 
# 
# From -- ./inp_files/10962.got.cif
#   From: 2010.05.17/outbox.cif.g08.bks.cpg/sg41_6_cif.got.tgz:10962.got - 2010.06.03 18:54:24.
