data_PCOD9367773
_publ_section_title
;
Structure prediction by ZEFSAII (Michael W. Deem and Ramdas Pophale) SiO2 
 PCOD9367773
Probable space group: A B A 2
;
_chemical_formula_sum "Si O2"
_cell_formula_units_Z 36
_cell_length_a 8.522856
_cell_length_b 23.910806
_cell_length_c 7.993394
_cell_angle_alpha 90.000000
_cell_angle_beta 90.000000
_cell_angle_gamma 90.000000
_cell_volume 1628.960625
_symmetry_space_group_name_H-M "A B A 2"
_symmetry_group_IT_number 41
_symmetry_cell_setting 'orthorhombic'
loop_
_space_group_symop_operation_xyz
x,y,z
-x,-y,z
1/2-x,y,1/2+z
1/2+x,-y,1/2+z
x,1/2+y,1/2+z
-x,1/2-y,1/2+z
1/2-x,1/2+y,z
1/2+x,1/2-y,z
loop_
_atom_site_type_symbol
_atom_site_label
_atom_site_fract_x
_atom_site_fract_y
_atom_site_fract_z
Si Si1 0.503344 0.308587 0.610290
Si Si2 0.489743 0.393123 0.079352
Si Si3 0.678475 0.292038 0.966274
Si Si4 0.000000 0.000000 0.885680
Si Si5 0.688789 0.095610 0.258988
O O1 0.595023 0.294159 0.784600
O O2 0.635836 0.301617 0.468554
O O3 0.369162 0.264549 0.561225
O O4 0.423512 0.368767 0.636876
O O5 0.610674 0.343578 0.075308
O O6 0.562163 0.450598 0.006789
O O7 0.360537 0.378690 0.936591
O O8 0.373950 0.401420 0.232888
O O9 0.871055 0.031662 0.774299
#
# Coordination Sequence:
#
# PCOD9367773 Si02
#       5
#     8   8   8   4   8
#     4  11  23  39  60  90 124 156 199 246 300 360
#     4   9  20  39  61  85 117 156 195 244 293 350
#     4  11  23  39  60  90 124 156 199 246 300 360
#     4   8  20  40  58  86 124 144 206 240 292 352
#     4   9  20  39  61  85 117 156 195 244 293 350
#
# _framework density 22.099981
#
# number of rings (size 3 to 8) (size 9 to 14) (size 15 to 20)
#    1.333    0.889    0.000    2.667    0.000    8.889 
#    0.000    1.111    0.000    0.000    0.000    0.000 
#    0.000    0.000    0.000    0.000    0.000    0.000 
#
# Total GULP energy -100241.518913 kJ/mol
# GULP energy per Si atom -5568.973273 kJ/mol
# Density = 2.204968 g / cm^3
# Si number density = 22.099981 Si / 1000 Ang^3
#
#
#
# Elastic Constant Matrix: (Units=GPa)
#
#
# Indices 1 2 3 4 5 6 
#
# 1 66.8440 34.3462 2.9652 0.0000 0.0000 0.0000
# 2 34.3462 95.8702 13.3717 0.0000 0.0000 0.0000
# 3 2.9652 13.3717 57.9486 0.0000 0.0000 0.0000
# 4 0.0000 0.0000 0.0000 22.2961 0.0000 0.0000
# 5 0.0000 0.0000 0.0000 0.0000 34.1766 0.0000
# 6 0.0000 0.0000 0.0000 0.0000 0.0000 4.8701
#
#
#
# Elastic Compliance Matrix: (Units=1/GPa)
#
#
# Indices 1 2 3 4 5 6 
#
# 1 0.018355 -0.006659 0.000597 0.000000 0.000000 0.000000
# 2 -0.006659 0.013194 -0.002704 0.000000 0.000000 0.000000
# 3 0.000597 -0.002704 0.017850 0.000000 0.000000 0.000000
# 4 0.000000 0.000000 0.000000 0.044851 0.000000 0.000000
# 5 0.000000 0.000000 0.000000 0.000000 0.029260 0.000000
# 6 0.000000 0.000000 0.000000 0.000000 0.000000 0.205336
#
#
# Mechanical properties :
#
#
# Convention : Reuss Voigt Hill
#
# Bulk Modulus (GPa) = 31.37957 35.78098 33.58028
# Shear Modulus (GPa) = 14.00561 23.60055 18.80308
#
# Velocity S-wave (km/s) = 2.52015 3.27142 2.92004
# Velocity P-wave (km/s) = 4.76423 5.52225 5.15719
#
# Compressibility (1/GPa) = 0.03186787
#
# Stress axis : x y z
#
# Youngs Moduli (GPa) = 54.47988 75.79432 56.02250
#
# Poissons Ratio (x) = 0.50473 -0.03347
# Poissons Ratio (y) = 0.36280 0.15147
# Poissons Ratio (z) = -0.03255 0.20492
#
# Static dielectric constant tensor:
#      x y z
#    x 1.804130 0.000000 0.000000 
#    y 0.000000 1.814140 0.000000 
#    z 0.000000 0.000000 1.942250 
# 
# From -- ./inp_files/1732.got.cif
#   From: 2010.05.17/outbox.cif.g08.bks.cpg/sg41_1_cif.got.tgz:1732.got - 2010.06.03 18:54:24.
