data_PCOD9367328
_publ_section_title
;
Structure prediction by ZEFSAII (Michael W. Deem and Ramdas Pophale) SiO2 
 PCOD9367328
Probable space group: A B A 2
;
_chemical_formula_sum "Si O2"
_cell_formula_units_Z 44
_cell_length_a 26.044915
_cell_length_b 13.553523
_cell_length_c 5.831006
_cell_angle_alpha 90.000000
_cell_angle_beta 90.000000
_cell_angle_gamma 90.000000
_cell_volume 2058.347185
_symmetry_space_group_name_H-M "A B A 2"
_symmetry_group_IT_number 41
_symmetry_cell_setting 'orthorhombic'
loop_
_space_group_symop_operation_xyz
x,y,z
-x,-y,z
1/2-x,y,1/2+z
1/2+x,-y,1/2+z
x,1/2+y,1/2+z
-x,1/2-y,1/2+z
1/2-x,1/2+y,z
1/2+x,1/2-y,z
loop_
_atom_site_type_symbol
_atom_site_label
_atom_site_fract_x
_atom_site_fract_y
_atom_site_fract_z
Si Si1 0.586775 0.993871 0.029510
Si Si2 0.000000 0.500000 0.692668
Si Si3 0.919134 0.701285 0.183652
Si Si4 0.466668 0.666330 0.843075
Si Si5 0.259396 0.567068 0.980954
Si Si6 0.664182 0.357099 0.295103
O O1 0.558191 0.901468 0.147208
O O2 0.596742 0.086935 0.191172
O O3 0.545723 0.036820 0.851139
O O4 0.635543 0.951585 0.900575
O O5 0.976694 0.412915 0.543270
O O6 0.875455 0.768212 0.296282
O O7 0.976867 0.707432 0.285401
O O8 0.928200 0.750615 0.933414
O O9 0.243989 0.516846 0.227806
O O10 0.314592 0.613509 0.042435
O O11 0.216344 0.652282 0.942009
#
# Coordination Sequence:
#
# PCOD9367328 Si02
#       6
#     8   4   8   8   8   8
#     4  12  24  42  63 101 135 178 226 271 340 419
#     4  12  20  44  60  90 150 178 214 274 322 418
#     4  12  23  40  66  98 129 189 220 273 347 405
#     4  12  24  42  62  94 151 176 220 278 326 416
#     4   8  20  43  68  91 131 175 223 299 349 400
#     4  10  23  41  69  93 133 176 227 289 353 400
#
# _framework density 21.376376
#
# number of rings (size 3 to 8) (size 9 to 14) (size 15 to 20)
#    1.091    0.000    5.455    2.182    2.545    0.000 
#    0.000    1.818    0.000    0.000    0.000    0.000 
#    0.000    0.000    0.000    0.000    0.000    0.000 
#
# Total GULP energy -122534.779849 kJ/mol
# GULP energy per Si atom -5569.762720 kJ/mol
# Density = 2.132772 g / cm^3
# Si number density = 21.376376 Si / 1000 Ang^3
#
#
#
# Elastic Constant Matrix: (Units=GPa)
#
#
# Indices 1 2 3 4 5 6 
#
# 1 78.4843 25.2342 -1.6283 0.0000 0.0000 0.0000
# 2 25.2342 72.0660 0.7573 0.0000 0.0000 0.0000
# 3 -1.6283 0.7573 69.3075 0.0000 0.0000 0.0000
# 4 0.0000 0.0000 0.0000 3.9831 0.0000 0.0000
# 5 0.0000 0.0000 0.0000 0.0000 -40.8943 0.0000
# 6 0.0000 0.0000 0.0000 0.0000 0.0000 1.5876
#
#
#
# Elastic Compliance Matrix: (Units=1/GPa)
#
#
# Indices 1 2 3 4 5 6 
#
# 1 0.014368 -0.005035 0.000393 0.000000 0.000000 0.000000
# 2 -0.005035 0.015642 -0.000289 0.000000 0.000000 0.000000
# 3 0.000393 -0.000289 0.014441 0.000000 0.000000 0.000000
# 4 0.000000 0.000000 0.000000 0.251063 0.000000 0.000000
# 5 0.000000 0.000000 0.000000 0.000000 -0.024453 0.000000
# 6 0.000000 0.000000 0.000000 0.000000 0.000000 0.629881
#
#
# Mechanical properties :
#
#
# Convention : Reuss Voigt Hill
#
# Bulk Modulus (GPa) = 28.91194 29.84270 29.37732
# Shear Modulus (GPa) = 5.42102 5.96824 5.69463
#
# Velocity S-wave (km/s) = 1.59421 1.67273 1.63394
# Velocity P-wave (km/s) = 4.11621 4.20971 4.16322
#
# Compressibility (1/GPa) = 0.03458778
#
# Stress axis : x y z
#
# Youngs Moduli (GPa) = 69.59669 63.92899 69.24803
#
# Poissons Ratio (x) = 0.32190 -0.02719
# Poissons Ratio (y) = 0.35044 0.02003
# Poissons Ratio (z) = -0.02732 0.01849
#
# Static dielectric constant tensor:
#      x y z
#    x 1.794040 0.000000 0.000000 
#    y 0.000000 1.800300 0.000000 
#    z 0.000000 0.000000 1.909590 
# 
# From -- ./inp_files/1127.got.cif
#   From: 2010.05.17/outbox.cif.g08.bks.cpg/sg41_1_cif.got.tgz:1127.got - 2010.06.03 18:54:24.
