data_PCOD9367274
_publ_section_title
;
Structure prediction by ZEFSAII (Michael W. Deem and Ramdas Pophale) SiO2 
 PCOD9367274
Probable space group: A B A 2
;
_chemical_formula_sum "Si O2"
_cell_formula_units_Z 36
_cell_length_a 16.453042
_cell_length_b 9.601859
_cell_length_c 9.278286
_cell_angle_alpha 90.000000
_cell_angle_beta 90.000000
_cell_angle_gamma 90.000000
_cell_volume 1465.781668
_symmetry_space_group_name_H-M "A B A 2"
_symmetry_group_IT_number 41
_symmetry_cell_setting 'orthorhombic'
loop_
_space_group_symop_operation_xyz
x,y,z
-x,-y,z
1/2-x,y,1/2+z
1/2+x,-y,1/2+z
x,1/2+y,1/2+z
-x,1/2-y,1/2+z
1/2-x,1/2+y,z
1/2+x,1/2-y,z
loop_
_atom_site_type_symbol
_atom_site_label
_atom_site_fract_x
_atom_site_fract_y
_atom_site_fract_z
Si Si1 0.000000 0.000000 0.543591
Si Si2 0.924034 0.201362 0.739214
Si Si3 0.146395 0.294629 0.549976
Si Si4 0.881465 0.498508 0.779923
Si Si5 0.221780 0.998420 0.637225
O O1 0.925203 0.012939 0.432505
O O2 0.002837 0.871873 0.654483
O O3 0.917772 0.363436 0.700376
O O4 0.847798 0.106699 0.689545
O O5 0.913455 0.202617 0.912836
O O6 0.106775 0.360151 0.692758
O O7 0.187212 0.145305 0.581534
O O8 0.220337 0.406837 0.531696
O O9 0.785344 0.468852 0.767066
#
# Coordination Sequence:
#
# PCOD9367274 Si02
#       5
#     4   8   8   8   8
#     4  12  30  46  70 110 158 198 242 302 378 448
#     4  12  26  46  76 110 147 193 246 307 368 443
#     4  10  24  43  76 108 144 186 245 307 364 433
#     4  10  25  48  72 104 150 198 242 304 368 445
#     4  10  22  46  77 111 141 185 252 308 365 425
#
# _framework density 24.560275000000001
#
# number of rings (size 3 to 8) (size 9 to 14) (size 15 to 20)
#    1.333    0.000    2.222    1.333    6.222    8.000 
#    0.000    0.000    0.000    0.000    0.000    0.000 
#    0.000    0.000    0.000    0.000    0.000    0.000 
#
# Total GULP energy -100425.593164 kJ/mol
# GULP energy per Si atom -5579.199620 kJ/mol
# Density = 2.450437 g / cm^3
# Si number density = 24.560275 Si / 1000 Ang^3
#
#
#
# Elastic Constant Matrix: (Units=GPa)
#
#
# Indices 1 2 3 4 5 6 
#
# 1 86.0197 44.2926 63.6043 0.0000 0.0000 0.0000
# 2 44.2926 201.9108 67.4136 0.0000 0.0000 0.0000
# 3 63.6043 67.4136 146.4022 0.0000 0.0000 0.0000
# 4 0.0000 0.0000 0.0000 37.4098 0.0000 0.0000
# 5 0.0000 0.0000 0.0000 0.0000 53.0992 0.0000
# 6 0.0000 0.0000 0.0000 0.0000 0.0000 52.8301
#
#
#
# Elastic Compliance Matrix: (Units=1/GPa)
#
#
# Indices 1 2 3 4 5 6 
#
# 1 0.017523 -0.001539 -0.006904 0.000000 0.000000 0.000000
# 2 -0.001539 0.005988 -0.002089 0.000000 0.000000 0.000000
# 3 -0.006904 -0.002089 0.010792 0.000000 0.000000 0.000000
# 4 0.000000 0.000000 0.000000 0.026731 0.000000 0.000000
# 5 0.000000 0.000000 0.000000 0.000000 0.018833 0.000000
# 6 0.000000 0.000000 0.000000 0.000000 0.000000 0.018929
#
#
# Mechanical properties :
#
#
# Convention : Reuss Voigt Hill
#
# Bulk Modulus (GPa) = 75.53463 87.21707 81.37585
# Shear Modulus (GPa) = 40.23498 45.93598 43.08548
#
# Velocity S-wave (km/s) = 4.05188 4.32943 4.19295
# Velocity P-wave (km/s) = 7.26029 7.78335 7.52636
#
# Compressibility (1/GPa) = 0.01323896
#
# Stress axis : x y z
#
# Youngs Moduli (GPa) = 57.06925 167.01296 92.66367
#
# Poissons Ratio (x) = 0.25699 0.63976
# Poissons Ratio (y) = 0.08781 0.19354
# Poissons Ratio (z) = 0.39401 0.34882
#
# Static dielectric constant tensor:
#      x y z
#    x 2.121930 0.000000 0.000000 
#    y 0.000000 1.914100 0.000000 
#    z 0.000000 0.000000 1.962710 
# 
# From -- ./inp_files/3296.got.cif
#   From: 2010.05.17/outbox.cif.g08.bks.cpg/sg41_2_cif.got.tgz:3296.got - 2010.06.03 18:54:24.
