data_PCOD9367452
_publ_section_title
;
Structure prediction by ZEFSAII (Michael W. Deem and Ramdas Pophale) SiO2 
 PCOD9367452
Probable space group: A B A 2
;
_chemical_formula_sum "Si O2"
_cell_formula_units_Z 60
_cell_length_a 26.750304
_cell_length_b 12.347436
_cell_length_c 8.470662
_cell_angle_alpha 90.000000
_cell_angle_beta 90.000000
_cell_angle_gamma 90.000000
_cell_volume 2797.839893
_symmetry_space_group_name_H-M "A B A 2"
_symmetry_group_IT_number 41
_symmetry_cell_setting 'orthorhombic'
loop_
_space_group_symop_operation_xyz
x,y,z
-x,-y,z
1/2-x,y,1/2+z
1/2+x,-y,1/2+z
x,1/2+y,1/2+z
-x,1/2-y,1/2+z
1/2-x,1/2+y,z
1/2+x,1/2-y,z
loop_
_atom_site_type_symbol
_atom_site_label
_atom_site_fract_x
_atom_site_fract_y
_atom_site_fract_z
Si Si1 0.839816 0.224902 0.169170
Si Si2 0.500000 0.500000 0.183009
Si Si3 0.421983 0.387905 0.960672
Si Si4 0.880493 0.383957 0.424632
Si Si5 0.761268 0.649108 0.193401
Si Si6 0.279468 0.005923 0.426289
Si Si7 0.919885 0.831780 0.257666
Si Si8 0.310468 0.158580 0.851637
O O1 0.871476 0.305134 0.278005
O O2 0.793550 0.176894 0.269092
O O3 0.876607 0.142269 0.080820
O O4 0.812188 0.286572 0.025153
O O5 0.537285 0.421915 0.279728
O O6 0.468803 0.418209 0.070761
O O7 0.407994 0.503192 0.882284
O O8 0.428363 0.284236 0.844557
O O9 0.825014 0.421287 0.481385
O O10 0.910001 0.327323 0.568558
O O11 0.797417 0.563255 0.277676
O O12 0.792762 0.757333 0.216992
O O13 0.741492 0.583883 0.043812
O O14 0.232550 0.071504 0.362684
O O15 0.867056 0.876393 0.323040
#
# Coordination Sequence:
#
# PCOD9367452 Si02
#       8
#     8   4   8   8   8   8   8   8
#     4  11  23  41  60  93 137 176 223 278 332 396
#     4  10  24  46  76 100 134 172 228 296 356 394
#     4  10  23  48  69 101 133 172 226 291 344 404
#     4  11  22  42  65  94 133 182 223 275 336 398
#     4  12  23  37  56  91 132 185 224 269 319 393
#     4  12  23  35  60  89 132 183 226 264 327 391
#     4  10  24  45  73  98 134 176 227 286 342 412
#     4  11  24  40  59  94 138 175 228 270 321 403
#
# _framework density 21.445114
#
# number of rings (size 3 to 8) (size 9 to 14) (size 15 to 20)
#    0.000    1.067    4.000    2.400    5.600    2.133 
#    0.000    4.000    0.000    1.600    0.000    0.000 
#    0.000    0.000    0.000    0.000    0.000    0.000 
#
# Total GULP energy -167285.509894 kJ/mol
# GULP energy per Si atom -5576.183663 kJ/mol
# Density = 2.139630 g / cm^3
# Si number density = 21.445114 Si / 1000 Ang^3
#
#
#
# Elastic Constant Matrix: (Units=GPa)
#
#
# Indices 1 2 3 4 5 6 
#
# 1 87.0961 33.4035 -3.9123 0.0000 0.0000 0.0000
# 2 33.4035 97.2148 18.4316 0.0000 0.0000 0.0000
# 3 -3.9123 18.4316 33.8991 0.0000 0.0000 0.0000
# 4 0.0000 0.0000 0.0000 36.0407 0.0000 0.0000
# 5 0.0000 0.0000 0.0000 0.0000 47.6754 0.0000
# 6 0.0000 0.0000 0.0000 0.0000 0.0000 475.4105
#
#
#
# Elastic Compliance Matrix: (Units=1/GPa)
#
#
# Indices 1 2 3 4 5 6 
#
# 1 0.013857 -0.005647 0.004669 0.000000 0.000000 0.000000
# 2 -0.005647 0.013770 -0.008139 0.000000 0.000000 0.000000
# 3 0.004669 -0.008139 0.034463 0.000000 0.000000 0.000000
# 4 0.000000 0.000000 0.000000 0.027746 0.000000 0.000000
# 5 0.000000 0.000000 0.000000 0.000000 0.020975 0.000000
# 6 0.000000 0.000000 0.000000 0.000000 0.000000 0.002103
#
#
# Mechanical properties :
#
#
# Convention : Reuss Voigt Hill
#
# Bulk Modulus (GPa) = 22.80061 34.89505 28.84783
# Shear Modulus (GPa) = 34.30155 123.17781 78.73968
#
# Velocity S-wave (km/s) = 4.00372 7.58705 6.06602
# Velocity P-wave (km/s) = 5.65934 9.64667 7.90843
#
# Compressibility (1/GPa) = 0.04385847
#
# Stress axis : x y z
#
# Youngs Moduli (GPa) = 72.16606 72.62301 29.01635
#
# Poissons Ratio (x) = 0.41007 -0.13549
# Poissons Ratio (y) = 0.40749 0.23615
# Poissons Ratio (z) = -0.33697 0.59105
#
# Static dielectric constant tensor:
#      x y z
#    x 1.791070 0.000000 0.000000 
#    y 0.000000 1.805440 0.000000 
#    z 0.000000 0.000000 1.836460 
# 
# From -- ./inp_files/3815.got.cif
#   From: 2010.05.17/outbox.cif.g08.bks.cpg/sg41_2_cif.got.tgz:3815.got - 2010.06.03 18:54:24.
