data_PCOD9367054
_publ_section_title
;
Structure prediction by ZEFSAII (Michael W. Deem and Ramdas Pophale) SiO2 
 PCOD9367054
Probable space group: A B A 2
;
_chemical_formula_sum "Si O2"
_cell_formula_units_Z 64
_cell_length_a 22.338953
_cell_length_b 8.796773
_cell_length_c 15.549022
_cell_angle_alpha 90.000000
_cell_angle_beta 90.000000
_cell_angle_gamma 90.000000
_cell_volume 3055.549176
_symmetry_space_group_name_H-M "A B A 2"
_symmetry_group_IT_number 41
_symmetry_cell_setting 'orthorhombic'
loop_
_space_group_symop_operation_xyz
x,y,z
-x,-y,z
1/2-x,y,1/2+z
1/2+x,-y,1/2+z
x,1/2+y,1/2+z
-x,1/2-y,1/2+z
1/2-x,1/2+y,z
1/2+x,1/2-y,z
loop_
_atom_site_type_symbol
_atom_site_label
_atom_site_fract_x
_atom_site_fract_y
_atom_site_fract_z
Si Si1 0.064070 0.458425 0.960020
Si Si2 0.064070 0.958425 0.178985
Si Si3 0.196358 0.900448 0.638928
Si Si4 0.612498 0.832944 0.535260
Si Si5 0.112498 0.667056 0.103745
Si Si6 0.696358 0.099552 0.500076
Si Si7 0.758479 0.235052 0.819502
Si Si8 0.661966 0.522651 0.319502
O O1 0.120044 0.502739 0.900974
O O2 0.000000 0.500000 0.921887
O O3 0.072663 0.280137 0.978712
O O4 0.071569 0.557397 0.046230
O O5 0.072663 0.780137 0.160292
O O6 0.071569 0.057397 0.092775
O O7 0.120044 0.002739 0.238031
O O8 0.000000 0.000000 0.217118
O O9 0.151993 0.778284 0.595425
O O10 0.250000 0.924163 0.569502
O O11 0.218118 0.837791 0.730196
O O12 0.159955 0.056995 0.650136
O O13 0.659955 0.943005 0.488869
O O14 0.151993 0.778283 0.043579
O O15 0.718118 0.162209 0.408808
O O16 0.782876 0.406049 0.819502
O O17 0.688634 0.192209 0.819502
#
# Coordination Sequence:
#
# PCOD9367054 Si02
#       8
#     8   8   8   8   8   8   8   8
#     4  11  23  44  67  92 130 171 223 272 321 391
#     4  11  23  44  67  92 130 171 223 272 321 391
#     4  11  23  39  64  94 136 171 211 269 329 401
#     4  10  22  40  64  97 124 168 224 257 334 389
#     4  10  22  40  64  97 124 168 224 257 334 389
#     4  11  23  39  64  94 136 171 211 269 329 401
#     4  12  26  42  65  94 140 166 217 273 335 401
#     4  12  27  42  63  98 126 175 216 268 339 389
#
# _framework density 20.945497
#
# number of rings (size 3 to 8) (size 9 to 14) (size 15 to 20)
#    0.000    1.000    2.500    4.875    7.000    0.000 
#    0.000    0.000    0.000    1.500    0.000    0.000 
#    0.000    0.000    0.000    0.000    0.000    0.000 
#
# Total GULP energy -178874.269699 kJ/mol
# GULP energy per Si atom -5589.820928 kJ/mol
# Density = 2.089782 g / cm^3
# Si number density = 20.945497 Si / 1000 Ang^3
#
#
#
# Elastic Constant Matrix: (Units=GPa)
#
#
# Indices 1 2 3 4 5 6 
#
# 1 86.8135 17.4521 -4.5247 0.0000 0.0000 0.0000
# 2 17.4521 93.9303 1.2483 0.0000 0.0000 0.0000
# 3 -4.5247 1.2483 48.2733 0.0000 0.0000 0.0000
# 4 0.0000 0.0000 0.0000 14.2664 0.0000 0.0000
# 5 0.0000 0.0000 0.0000 0.0000 12.7088 0.0000
# 6 0.0000 0.0000 0.0000 0.0000 0.0000 26.9264
#
#
#
# Elastic Compliance Matrix: (Units=1/GPa)
#
#
# Indices 1 2 3 4 5 6 
#
# 1 0.012033 -0.002252 0.001186 0.000000 0.000000 0.000000
# 2 -0.002252 0.011071 -0.000497 0.000000 0.000000 0.000000
# 3 0.001186 -0.000497 0.020839 0.000000 0.000000 0.000000
# 4 0.000000 0.000000 0.000000 0.070095 0.000000 0.000000
# 5 0.000000 0.000000 0.000000 0.000000 0.078685 0.000000
# 6 0.000000 0.000000 0.000000 0.000000 0.000000 0.037138
#
#
# Mechanical properties :
#
#
# Convention : Reuss Voigt Hill
#
# Bulk Modulus (GPa) = 24.49872 28.59648 26.54760
# Shear Modulus (GPa) = 20.27625 25.10309 22.68967
#
# Velocity S-wave (km/s) = 3.11472 3.46569 3.29488
# Velocity P-wave (km/s) = 4.96559 5.44950 5.21317
#
# Compressibility (1/GPa) = 0.04081846
#
# Stress axis : x y z
#
# Youngs Moduli (GPa) = 83.10202 90.32494 47.98601
#
# Poissons Ratio (x) = 0.20337 -0.05692
# Poissons Ratio (y) = 0.18711 0.02386
# Poissons Ratio (z) = -0.09857 0.04492
#
# Static dielectric constant tensor:
#      x y z
#    x 1.762580 0.000000 0.000000 
#    y 0.000000 1.755050 0.000000 
#    z 0.000000 0.000000 1.762620 
# 
# From -- ./inp_files/9156.got.cif
#   From: 2010.05.17/outbox.cif.g08.bks.cpg/sg41_5_cif.got.tgz:9156.got - 2010.06.03 18:54:24.
