data_PCOD9367226
_publ_section_title
;
Structure prediction by ZEFSAII (Michael W. Deem and Ramdas Pophale) SiO2 
 PCOD9367226
Probable space group: A B A 2
;
_chemical_formula_sum "Si O2"
_cell_formula_units_Z 40
_cell_length_a 7.969362
_cell_length_b 21.721086
_cell_length_c 8.806286
_cell_angle_alpha 90.000000
_cell_angle_beta 90.000000
_cell_angle_gamma 90.000000
_cell_volume 1524.396264
_symmetry_space_group_name_H-M "A B A 2"
_symmetry_group_IT_number 41
_symmetry_cell_setting 'orthorhombic'
loop_
_space_group_symop_operation_xyz
x,y,z
-x,-y,z
1/2-x,y,1/2+z
1/2+x,-y,1/2+z
x,1/2+y,1/2+z
-x,1/2-y,1/2+z
1/2-x,1/2+y,z
1/2+x,1/2-y,z
loop_
_atom_site_type_symbol
_atom_site_label
_atom_site_fract_x
_atom_site_fract_y
_atom_site_fract_z
Si Si1 0.500000 0.500000 0.850451
Si Si2 0.832073 0.795944 0.223746
Si Si3 0.097985 0.078945 0.121106
Si Si4 0.110510 0.287776 0.951753
Si Si5 0.500000 0.500000 0.376036
Si Si6 0.306357 0.914383 0.110369
O O1 0.404029 0.446391 0.752918
O O2 0.386968 0.540629 0.967493
O O3 0.786092 0.861165 0.145620
O O4 0.714056 0.748705 0.318781
O O5 0.957204 0.813782 0.357239
O O6 0.922750 0.762325 0.082533
O O7 0.895252 0.087721 0.129654
O O8 0.125103 0.035318 0.262976
O O9 0.170810 0.344351 0.053469
O O10 0.393944 0.453750 0.478052
#
# Coordination Sequence:
#
# PCOD9367226 Si02
#       6
#     4   8   8   8   4   8
#     4  10  26  42  76 112 140 216 250 326 406 482
#     4  12  27  51  78 115 152 215 266 341 410 489
#     4  11  23  48  70 110 153 191 266 330 401 475
#     4  12  27  49  80 111 157 208 274 335 414 487
#     4  10  22  44  70 108 140 202 256 320 404 482
#     4  11  23  47  77 104 154 206 261 327 413 474
#
# _framework density 26.239899000000001
#
# number of rings (size 3 to 8) (size 9 to 14) (size 15 to 20)
#    0.000    0.800    2.000    4.800    5.600    0.000 
#   14.400    0.000    0.000    0.000    0.000    0.000 
#    0.000    0.000    0.000    0.000    0.000    0.000 
#
# Total GULP energy -111598.301274 kJ/mol
# GULP energy per Si atom -5579.915064 kJ/mol
# Density = 2.618018 g / cm^3
# Si number density = 26.239899 Si / 1000 Ang^3
#
#
#
# Elastic Constant Matrix: (Units=GPa)
#
#
# Indices 1 2 3 4 5 6 
#
# 1 58.5633 26.6698 45.7484 0.0000 0.0000 0.0000
# 2 26.6698 178.0460 64.8982 0.0000 0.0000 0.0000
# 3 45.7484 64.8982 209.9133 0.0000 0.0000 0.0000
# 4 0.0000 0.0000 0.0000 49.2901 0.0000 0.0000
# 5 0.0000 0.0000 0.0000 0.0000 -55.0219 0.0000
# 6 0.0000 0.0000 0.0000 0.0000 0.0000 25.1103
#
#
#
# Elastic Compliance Matrix: (Units=1/GPa)
#
#
# Indices 1 2 3 4 5 6 
#
# 1 0.021008 -0.001666 -0.004064 0.000000 0.000000 0.000000
# 2 -0.001666 0.006462 -0.001635 0.000000 0.000000 0.000000
# 3 -0.004064 -0.001635 0.006155 0.000000 0.000000 0.000000
# 4 0.000000 0.000000 0.000000 0.020288 0.000000 0.000000
# 5 0.000000 0.000000 0.000000 0.000000 -0.018175 0.000000
# 6 0.000000 0.000000 0.000000 0.000000 0.000000 0.039824
#
#
# Mechanical properties :
#
#
# Convention : Reuss Voigt Hill
#
# Bulk Modulus (GPa) = 52.91804 80.12836 66.52320
# Shear Modulus (GPa) = 51.76504 24.48947 38.12726
#
# Velocity S-wave (km/s) = 4.44640 3.05830 3.81599
# Velocity P-wave (km/s) = 6.82432 6.56308 6.69498
#
# Compressibility (1/GPa) = 0.01889715
#
# Stress axis : x y z
#
# Youngs Moduli (GPa) = 47.59979 154.75283 162.47187
#
# Poissons Ratio (x) = 0.25777 0.66022
# Poissons Ratio (y) = 0.07929 0.26561
# Poissons Ratio (z) = 0.19343 0.25299
#
# Static dielectric constant tensor:
#      x y z
#    x 3.652140 0.000000 0.000000 
#    y 0.000000 2.271200 0.000000 
#    z 0.000000 0.000000 2.033930 
# 
# From -- ./inp_files/1724.got.cif
#   From: 2010.05.17/outbox.cif.g08.bks.cpg/sg41_1_cif.got.tgz:1724.got - 2010.06.03 18:54:24.
