data_PCOD9367894
_publ_section_title
;
Structure prediction by ZEFSAII (Michael W. Deem and Ramdas Pophale) SiO2 
 PCOD9367894
Probable space group: A B A 2
;
_chemical_formula_sum "Si O2"
_cell_formula_units_Z 32
_cell_length_a 12.178287
_cell_length_b 10.228708
_cell_length_c 8.920689
_cell_angle_alpha 90.000000
_cell_angle_beta 90.000000
_cell_angle_gamma 90.000000
_cell_volume 1111.233651
_symmetry_space_group_name_H-M "A B A 2"
_symmetry_group_IT_number 41
_symmetry_cell_setting 'orthorhombic'
loop_
_space_group_symop_operation_xyz
x,y,z
-x,-y,z
1/2-x,y,1/2+z
1/2+x,-y,1/2+z
x,1/2+y,1/2+z
-x,1/2-y,1/2+z
1/2-x,1/2+y,z
1/2+x,1/2-y,z
loop_
_atom_site_type_symbol
_atom_site_label
_atom_site_fract_x
_atom_site_fract_y
_atom_site_fract_z
Si Si1 0.757137 0.872858 0.557400
Si Si2 0.035260 0.128769 0.946031
Si Si3 0.320415 0.309338 0.813106
Si Si4 0.603410 0.081672 0.928399
O O1 0.663886 0.906782 0.433965
O O2 0.696213 0.812826 0.700457
O O3 0.819480 0.750820 0.482565
O O4 0.837247 0.996392 0.558523
O O5 0.053621 0.281226 0.983038
O O6 0.944094 0.133137 0.814084
O O7 0.000000 0.000000 0.039601
O O8 0.702553 0.115380 0.813272
O O9 0.500000 0.000000 0.872477
#
# Coordination Sequence:
#
# PCOD9367894 Si02
#       4
#     8   8   8   8
#     4  11  26  50  81 122 169 221 295 355 440 517
#     4  11  24  50  78 124 168 227 287 356 438 523
#     4  11  26  51  81 123 168 224 288 365 433 523
#     4  11  24  51  82 126 168 229 284 356 435 525
#
# _framework density 28.796825999999999
#
# number of rings (size 3 to 8) (size 9 to 14) (size 15 to 20)
#    0.000    1.000    5.000    0.000    0.000    8.000 
#    4.500    0.000    0.000    0.000    0.000    0.000 
#    0.000    0.000    0.000    0.000    0.000    0.000 
#
# Total GULP energy -89121.661653 kJ/mol
# GULP energy per Si atom -5570.103853 kJ/mol
# Density = 2.873128 g / cm^3
# Si number density = 28.796826 Si / 1000 Ang^3
#
#
#
# Elastic Constant Matrix: (Units=GPa)
#
#
# Indices 1 2 3 4 5 6 
#
# 1 256.6554 97.5690 65.1251 0.0000 0.0000 0.0000
# 2 97.5690 217.1360 42.7379 0.0000 0.0000 0.0000
# 3 65.1251 42.7379 110.5028 0.0000 0.0000 0.0000
# 4 0.0000 0.0000 0.0000 28.0860 0.0000 0.0000
# 5 0.0000 0.0000 0.0000 0.0000 26.0907 0.0000
# 6 0.0000 0.0000 0.0000 0.0000 0.0000 90.4733
#
#
#
# Elastic Compliance Matrix: (Units=1/GPa)
#
#
# Indices 1 2 3 4 5 6 
#
# 1 0.005204 -0.001878 -0.002341 0.000000 0.000000 0.000000
# 2 -0.001878 0.005662 -0.001083 0.000000 0.000000 0.000000
# 3 -0.002341 -0.001083 0.010848 0.000000 0.000000 0.000000
# 4 0.000000 0.000000 0.000000 0.035605 0.000000 0.000000
# 5 0.000000 0.000000 0.000000 0.000000 0.038328 0.000000
# 6 0.000000 0.000000 0.000000 0.000000 0.000000 0.011053
#
#
# Mechanical properties :
#
#
# Convention : Reuss Voigt Hill
#
# Bulk Modulus (GPa) = 90.00228 110.57315 100.28772
# Shear Modulus (GPa) = 41.31975 54.18750 47.75363
#
# Velocity S-wave (km/s) = 3.79208 4.34258 4.07663
# Velocity P-wave (km/s) = 7.10600 7.97653 7.55382
#
# Compressibility (1/GPa) = 0.01111083
#
# Stress axis : x y z
#
# Youngs Moduli (GPa) = 192.15772 176.60449 92.18198
#
# Poissons Ratio (x) = 0.33161 0.21578
# Poissons Ratio (y) = 0.36081 0.09987
# Poissons Ratio (z) = 0.44981 0.19132
#
# Static dielectric constant tensor:
#      x y z
#    x 2.241930 0.000000 0.000000 
#    y 0.000000 2.461680 0.000000 
#    z 0.000000 0.000000 2.248880 
# 
# From -- ./inp_files/4737.got.cif
#   From: 2010.05.17/outbox.cif.g08.bks.cpg/sg41_3_cif.got.tgz:4737.got - 2010.06.03 18:54:24.
