data_PCOD9367559
_publ_section_title
;
Structure prediction by ZEFSAII (Michael W. Deem and Ramdas Pophale) SiO2 
 PCOD9367559
Probable space group: A B A 2
;
_chemical_formula_sum "Si O2"
_cell_formula_units_Z 36
_cell_length_a 12.878836
_cell_length_b 19.147110
_cell_length_c 5.282628
_cell_angle_alpha 90.000000
_cell_angle_beta 90.000000
_cell_angle_gamma 90.000000
_cell_volume 1302.656390
_symmetry_space_group_name_H-M "A B A 2"
_symmetry_group_IT_number 41
_symmetry_cell_setting 'orthorhombic'
loop_
_space_group_symop_operation_xyz
x,y,z
-x,-y,z
1/2-x,y,1/2+z
1/2+x,-y,1/2+z
x,1/2+y,1/2+z
-x,1/2-y,1/2+z
1/2-x,1/2+y,z
1/2+x,1/2-y,z
loop_
_atom_site_type_symbol
_atom_site_label
_atom_site_fract_x
_atom_site_fract_y
_atom_site_fract_z
Si Si1 0.177837 0.551358 0.694360
Si Si2 0.500000 0.500000 0.906829
Si Si3 0.017120 0.128644 0.510555
Si Si4 0.277102 0.381992 0.480483
Si Si5 0.189258 0.730955 0.044423
O O1 0.256929 0.558347 0.457691
O O2 0.097838 0.491332 0.593788
O O3 0.082776 0.605133 0.764995
O O4 0.479158 0.565843 0.718338
O O5 0.076312 0.199316 0.590210
O O6 0.895992 0.140635 0.464811
O O7 0.265136 0.422509 0.741018
O O8 0.203255 0.314620 0.520503
O O9 0.241526 0.707716 0.781627
#
# Coordination Sequence:
#
# PCOD9367559 Si02
#       5
#     8   4   8   8   8
#     4  12  27  50  77 113 158 210 275 328 401 488
#     4  12  30  50  76 124 158 232 270 342 408 500
#     4  12  27  50  81 115 166 213 281 332 427 495
#     4  10  26  47  74 116 157 207 266 343 414 490
#     4  10  24  45  75 114 152 207 263 337 417 488
#
# _framework density 27.635836999999999
#
# number of rings (size 3 to 8) (size 9 to 14) (size 15 to 20)
#    0.000    0.889    2.222    2.000    6.222    8.889 
#    0.000    0.000    0.000    0.000    0.000    0.000 
#    0.000    0.000    0.000    0.000    0.000    0.000 
#
# Total GULP energy -100632.325562 kJ/mol
# GULP energy per Si atom -5590.684753 kJ/mol
# Density = 2.757294 g / cm^3
# Si number density = 27.635837 Si / 1000 Ang^3
#
#
#
# Elastic Constant Matrix: (Units=GPa)
#
#
# Indices 1 2 3 4 5 6 
#
# 1 178.6388 19.0260 80.8063 0.0000 0.0000 0.0000
# 2 19.0260 92.0745 26.5224 0.0000 0.0000 0.0000
# 3 80.8063 26.5224 215.7990 0.0000 0.0000 0.0000
# 4 0.0000 0.0000 0.0000 8.3329 0.0000 0.0000
# 5 0.0000 0.0000 0.0000 0.0000 59.6594 0.0000
# 6 0.0000 0.0000 0.0000 0.0000 0.0000 53.9920
#
#
#
# Elastic Compliance Matrix: (Units=1/GPa)
#
#
# Indices 1 2 3 4 5 6 
#
# 1 0.006782 -0.000694 -0.002454 0.000000 0.000000 0.000000
# 2 -0.000694 0.011330 -0.001133 0.000000 0.000000 0.000000
# 3 -0.002454 -0.001133 0.005692 0.000000 0.000000 0.000000
# 4 0.000000 0.000000 0.000000 0.120007 0.000000 0.000000
# 5 0.000000 0.000000 0.000000 0.000000 0.016762 0.000000
# 6 0.000000 0.000000 0.000000 0.000000 0.000000 0.018521
#
#
# Mechanical properties :
#
#
# Convention : Reuss Voigt Hill
#
# Bulk Modulus (GPa) = 65.60700 82.13573 73.87137
# Shear Modulus (GPa) = 25.94201 48.40736 37.17469
#
# Velocity S-wave (km/s) = 3.06716 4.18977 3.67162
# Velocity P-wave (km/s) = 6.02782 7.29320 6.69050
#
# Compressibility (1/GPa) = 0.01524228
#
# Stress axis : x y z
#
# Youngs Moduli (GPa) = 147.44941 88.25739 175.68214
#
# Poissons Ratio (x) = 0.06129 0.43115
# Poissons Ratio (y) = 0.10240 0.19896
# Poissons Ratio (z) = 0.36187 0.09995
#
# Static dielectric constant tensor:
#      x y z
#    x 2.085270 0.000000 0.000000 
#    y 0.000000 2.486200 0.000000 
#    z 0.000000 0.000000 2.325270 
# 
# From -- ./inp_files/112.got.cif
#   From: 2010.05.17/outbox.cif.g08.bks.cpg/sg41_1_cif.got.tgz:112.got - 2010.06.03 18:54:24.
