data_PCOD9367188
_publ_section_title
;
Structure prediction by ZEFSAII (Michael W. Deem and Ramdas Pophale) SiO2 
 PCOD9367188
Probable space group: A B A 2
;
_chemical_formula_sum "Si O2"
_cell_formula_units_Z 48
_cell_length_a 7.053183
_cell_length_b 22.964780
_cell_length_c 14.135323
_cell_angle_alpha 90.000000
_cell_angle_beta 90.000000
_cell_angle_gamma 90.000000
_cell_volume 2289.566058
_symmetry_space_group_name_H-M "A B A 2"
_symmetry_group_IT_number 41
_symmetry_cell_setting 'orthorhombic'
loop_
_space_group_symop_operation_xyz
x,y,z
-x,-y,z
1/2-x,y,1/2+z
1/2+x,-y,1/2+z
x,1/2+y,1/2+z
-x,1/2-y,1/2+z
1/2-x,1/2+y,z
1/2+x,1/2-y,z
loop_
_atom_site_type_symbol
_atom_site_label
_atom_site_fract_x
_atom_site_fract_y
_atom_site_fract_z
Si Si1 0.361915 0.639252 0.413780
Si Si2 0.761690 0.675183 0.718242
Si Si3 0.054619 0.065831 0.022163
Si Si4 0.499782 0.433132 0.240851
Si Si5 0.455380 0.723471 0.840913
Si Si6 0.725768 0.169943 0.498139
O O1 0.391924 0.601852 0.320050
O O2 0.558561 0.660656 0.462033
O O3 0.239397 0.596860 0.480347
O O4 0.232449 0.692293 0.378790
O O5 0.553896 0.687052 0.757247
O O6 0.597756 0.710815 0.930418
O O7 0.811718 0.607096 0.731379
O O8 0.780015 0.690268 0.607432
O O9 0.081121 0.066741 0.135224
O O10 0.878923 0.107573 0.995691
O O11 0.000000 0.000000 0.993470
O O12 0.500000 0.500000 0.270804
O O13 0.394694 0.782970 0.784626
#
# Coordination Sequence:
#
# PCOD9367188 Si02
#       6
#     8   8   8   8   8   8
#     4  11  23  42  72  99 140 186 237 289 350 420
#     4  11  24  46  69  99 141 181 228 291 351 419
#     4   9  22  41  66 101 143 182 235 292 347 418
#     4  10  22  43  69 101 138 181 228 283 346 414
#     4  11  25  46  67 103 139 177 237 287 346 422
#     4  10  24  45  68 101 138 185 236 281 359 421
#
# _framework density 20.964672
#
# number of rings (size 3 to 8) (size 9 to 14) (size 15 to 20)
#    0.000    1.667    1.667    1.000    4.667    1.333 
#    3.000    0.000    0.000    0.000    0.000    0.000 
#    0.000    0.000    0.000    0.000    0.000    0.000 
#
# Total GULP energy -133765.011360 kJ/mol
# GULP energy per Si atom -5573.542140 kJ/mol
# Density = 2.091696 g / cm^3
# Si number density = 20.964672 Si / 1000 Ang^3
#
#
#
# Elastic Constant Matrix: (Units=GPa)
#
#
# Indices 1 2 3 4 5 6 
#
# 1 144.5474 69.1640 66.5392 0.0000 0.0000 0.0000
# 2 69.1640 175.1156 82.6357 0.0000 0.0000 0.0000
# 3 66.5392 82.6357 115.8625 0.0000 0.0000 0.0000
# 4 0.0000 0.0000 0.0000 49.9819 0.0000 0.0000
# 5 0.0000 0.0000 0.0000 0.0000 32.8327 0.0000
# 6 0.0000 0.0000 0.0000 0.0000 0.0000 8.3489
#
#
#
# Elastic Compliance Matrix: (Units=1/GPa)
#
#
# Indices 1 2 3 4 5 6 
#
# 1 0.009777 -0.001827 -0.004312 0.000000 0.000000 0.000000
# 2 -0.001827 0.008949 -0.005333 0.000000 0.000000 0.000000
# 3 -0.004312 -0.005333 0.014911 0.000000 0.000000 0.000000
# 4 0.000000 0.000000 0.000000 0.020007 0.000000 0.000000
# 5 0.000000 0.000000 0.000000 0.000000 0.030457 0.000000
# 6 0.000000 0.000000 0.000000 0.000000 0.000000 0.119776
#
#
# Mechanical properties :
#
#
# Convention : Reuss Voigt Hill
#
# Bulk Modulus (GPa) = 93.52154 96.91147 95.21651
# Shear Modulus (GPa) = 21.70268 32.71182 27.20725
#
# Velocity S-wave (km/s) = 3.22095 3.95439 3.60636
# Velocity P-wave (km/s) = 7.65105 8.19610 7.92826
#
# Compressibility (1/GPa) = 0.01069272
#
# Stress axis : x y z
#
# Youngs Moduli (GPa) = 102.27862 111.74688 67.06363
#
# Poissons Ratio (x) = 0.20414 0.28919
# Poissons Ratio (y) = 0.18684 0.35768
# Poissons Ratio (z) = 0.44104 0.59599
#
# Static dielectric constant tensor:
#      x y z
#    x 1.819850 0.000000 0.000000 
#    y 0.000000 1.785490 0.000000 
#    z 0.000000 0.000000 1.758940 
# 
# From -- ./inp_files/7378.got.cif
#   From: 2010.05.17/outbox.cif.g08.bks.cpg/sg41_4_cif.got.tgz:7378.got - 2010.06.03 18:54:24.
