data_PCOD9367561
_publ_section_title
;
Structure prediction by ZEFSAII (Michael W. Deem and Ramdas Pophale) SiO2 
 PCOD9367561
Probable space group: A B A 2
;
_chemical_formula_sum "Si O2"
_cell_formula_units_Z 32
_cell_length_a 9.427765
_cell_length_b 16.091957
_cell_length_c 8.587965
_cell_angle_alpha 90.000000
_cell_angle_beta 90.000000
_cell_angle_gamma 90.000000
_cell_volume 1302.890381
_symmetry_space_group_name_H-M "A B A 2"
_symmetry_group_IT_number 41
_symmetry_cell_setting 'orthorhombic'
loop_
_space_group_symop_operation_xyz
x,y,z
-x,-y,z
1/2-x,y,1/2+z
1/2+x,-y,1/2+z
x,1/2+y,1/2+z
-x,1/2-y,1/2+z
1/2-x,1/2+y,z
1/2+x,1/2-y,z
loop_
_atom_site_type_symbol
_atom_site_label
_atom_site_fract_x
_atom_site_fract_y
_atom_site_fract_z
Si Si1 0.950114 0.357545 0.340790
Si Si2 0.200449 0.936314 0.004639
Si Si3 0.157530 0.051380 0.291923
Si Si4 0.469901 0.811900 0.667018
O O1 0.812288 0.408484 0.299282
O O2 0.963895 0.280660 0.226053
O O3 0.089904 0.414372 0.365037
O O4 0.933886 0.318336 0.513019
O O5 0.180533 0.851549 0.107020
O O6 0.145848 0.004467 0.127294
O O7 0.335306 0.980627 0.926365
O O8 0.954650 0.873522 0.290316
#
# Coordination Sequence:
#
# PCOD9367561 Si02
#       4
#     8   8   8   8
#     4  10  24  46  66 104 144 175 235 292 340 429
#     4  10  25  46  67 104 136 180 242 282 341 426
#     4  12  20  46  74  92 144 186 226 290 352 398
#     4  10  24  46  66 104 144 175 235 292 340 429
#
# _framework density 24.560777000000002
#
# number of rings (size 3 to 8) (size 9 to 14) (size 15 to 20)
#    1.500    0.000    2.500    3.000    3.500    2.000 
#   13.500    2.500    0.000    0.000    0.000    0.000 
#    0.000    0.000    0.000    0.000    0.000    0.000 
#
# Total GULP energy -89205.411455 kJ/mol
# GULP energy per Si atom -5575.338216 kJ/mol
# Density = 2.450488 g / cm^3
# Si number density = 24.560777 Si / 1000 Ang^3
#
#
#
# Elastic Constant Matrix: (Units=GPa)
#
#
# Indices 1 2 3 4 5 6 
#
# 1 80.8157 43.2859 33.0990 0.0000 0.0000 0.0000
# 2 43.2859 142.5596 47.5566 0.0000 0.0000 0.0000
# 3 33.0990 47.5566 70.2891 0.0000 0.0000 0.0000
# 4 0.0000 0.0000 0.0000 53.5113 0.0000 0.0000
# 5 0.0000 0.0000 0.0000 0.0000 25.1546 0.0000
# 6 0.0000 0.0000 0.0000 0.0000 0.0000 35.2324
#
#
#
# Elastic Compliance Matrix: (Units=1/GPa)
#
#
# Indices 1 2 3 4 5 6 
#
# 1 0.016320 -0.003089 -0.005595 0.000000 0.000000 0.000000
# 2 -0.003089 0.009644 -0.005070 0.000000 0.000000 0.000000
# 3 -0.005595 -0.005070 0.020292 0.000000 0.000000 0.000000
# 4 0.000000 0.000000 0.000000 0.018688 0.000000 0.000000
# 5 0.000000 0.000000 0.000000 0.000000 0.039754 0.000000
# 6 0.000000 0.000000 0.000000 0.000000 0.000000 0.028383
#
#
# Mechanical properties :
#
#
# Convention : Reuss Voigt Hill
#
# Bulk Modulus (GPa) = 53.34102 60.17192 56.75647
# Shear Modulus (GPa) = 29.96911 34.09453 32.03182
#
# Velocity S-wave (km/s) = 3.49693 3.72986 3.61527
# Velocity P-wave (km/s) = 6.17007 6.56517 6.37069
#
# Compressibility (1/GPa) = 0.01874730
#
# Stress axis : x y z
#
# Youngs Moduli (GPa) = 61.27546 103.69232 49.27980
#
# Poissons Ratio (x) = 0.32028 0.27573
# Poissons Ratio (y) = 0.18926 0.24987
# Poissons Ratio (z) = 0.34284 0.52577
#
# Static dielectric constant tensor:
#      x y z
#    x 1.979390 0.000000 0.000000 
#    y 0.000000 1.950600 0.000000 
#    z 0.000000 0.000000 1.991680 
# 
# From -- ./inp_files/1923.got.cif
#   From: 2010.05.17/outbox.cif.g08.bks.cpg/sg41_1_cif.got.tgz:1923.got - 2010.06.03 18:54:24.
