data_PCOD9367717
_publ_section_title
;
Structure prediction by ZEFSAII (Michael W. Deem and Ramdas Pophale) SiO2 
 PCOD9367717
Probable space group: A B A 2
;
_chemical_formula_sum "Si O2"
_cell_formula_units_Z 56
_cell_length_a 11.646092
_cell_length_b 14.549944
_cell_length_c 13.938329
_cell_angle_alpha 90.000000
_cell_angle_beta 90.000000
_cell_angle_gamma 90.000000
_cell_volume 2361.849660
_symmetry_space_group_name_H-M "A B A 2"
_symmetry_group_IT_number 41
_symmetry_cell_setting 'orthorhombic'
loop_
_space_group_symop_operation_xyz
x,y,z
-x,-y,z
1/2-x,y,1/2+z
1/2+x,-y,1/2+z
x,1/2+y,1/2+z
-x,1/2-y,1/2+z
1/2-x,1/2+y,z
1/2+x,1/2-y,z
loop_
_atom_site_type_symbol
_atom_site_label
_atom_site_fract_x
_atom_site_fract_y
_atom_site_fract_z
Si Si1 0.142875 0.374193 0.666310
Si Si2 0.050953 0.403624 0.332688
Si Si3 0.180950 0.309293 0.015417
Si Si4 0.522063 0.803232 0.148473
Si Si5 0.806552 0.876596 0.500246
Si Si6 0.186670 0.954698 0.366387
Si Si7 0.448737 0.595625 0.016383
O O1 0.248371 0.370998 0.592061
O O2 0.116574 0.267414 0.690550
O O3 0.152340 0.439436 0.756847
O O4 0.029501 0.394609 0.606540
O O5 0.179277 0.425360 0.367596
O O6 0.000000 0.500000 0.295155
O O7 0.046950 0.341427 0.238192
O O8 0.977139 0.351978 0.416225
O O9 0.075397 0.264897 0.074570
O O10 0.268762 0.229847 0.979046
O O11 0.132736 0.376851 0.934791
O O12 0.595973 0.872183 0.081321
O O13 0.684347 0.913808 0.538989
O O14 0.833121 0.944684 0.411815
O O15 0.500000 0.500000 0.975528
#
# Coordination Sequence:
#
# PCOD9367717 Si02
#       7
#     8   8   8   8   8   8   8
#     4  11  24  44  72 107 142 194 245 310 366 451
#     4  11  23  41  75 101 138 195 251 299 368 453
#     4  11  24  47  74 102 154 196 245 312 381 450
#     4  11  26  44  74 110 154 194 252 307 384 457
#     4  11  25  47  72 109 150 198 243 309 381 453
#     4  12  25  45  74 111 145 193 260 309 376 452
#     4  11  21  45  69  98 142 190 238 300 370 438
#
# _framework density 23.710229999999999
#
# number of rings (size 3 to 8) (size 9 to 14) (size 15 to 20)
#    0.000    0.857    7.143    0.000    4.000    1.143 
#    2.571    0.000    0.000    0.000    0.000    0.000 
#    0.000    0.000    0.000    0.000    0.000    0.000 
#
# Total GULP energy -156203.176919 kJ/mol
# GULP energy per Si atom -5578.684890 kJ/mol
# Density = 2.365626 g / cm^3
# Si number density = 23.710230 Si / 1000 Ang^3
#
#
#
# Elastic Constant Matrix: (Units=GPa)
#
#
# Indices 1 2 3 4 5 6 
#
# 1 62.5779 -2.3471 18.9730 0.0000 0.0000 0.0000
# 2 -2.3471 51.3459 48.5156 0.0000 0.0000 0.0000
# 3 18.9730 48.5156 141.8143 0.0000 0.0000 0.0000
# 4 0.0000 0.0000 0.0000 38.1296 0.0000 0.0000
# 5 0.0000 0.0000 0.0000 0.0000 37.9627 0.0000
# 6 0.0000 0.0000 0.0000 0.0000 0.0000 26.8225
#
#
#
# Elastic Compliance Matrix: (Units=1/GPa)
#
#
# Indices 1 2 3 4 5 6 
#
# 1 0.017304 0.004401 -0.003821 0.000000 0.000000 0.000000
# 2 0.004401 0.029898 -0.010817 0.000000 0.000000 0.000000
# 3 -0.003821 -0.010817 0.011263 0.000000 0.000000 0.000000
# 4 0.000000 0.000000 0.000000 0.026226 0.000000 0.000000
# 5 0.000000 0.000000 0.000000 0.000000 0.026342 0.000000
# 6 0.000000 0.000000 0.000000 0.000000 0.000000 0.037282
#
#
# Mechanical properties :
#
#
# Convention : Reuss Voigt Hill
#
# Bulk Modulus (GPa) = 26.32192 42.89123 34.60658
# Shear Modulus (GPa) = 27.55558 33.28940 30.42249
#
# Velocity S-wave (km/s) = 3.41278 3.75108 3.58592
# Velocity P-wave (km/s) = 5.16285 6.07370 5.63670
#
# Compressibility (1/GPa) = 0.03799115
#
# Stress axis : x y z
#
# Youngs Moduli (GPa) = 57.79170 33.44743 88.78478
#
# Poissons Ratio (x) = -0.14720 0.33921
# Poissons Ratio (y) = -0.25434 0.96038
# Poissons Ratio (z) = 0.22080 0.36180
#
# Static dielectric constant tensor:
#      x y z
#    x 1.925590 0.000000 0.000000 
#    y 0.000000 2.259830 0.000000 
#    z 0.000000 0.000000 1.979080 
# 
# From -- ./inp_files/7964.got.cif
#   From: 2010.05.17/outbox.cif.g08.bks.cpg/sg41_4_cif.got.tgz:7964.got - 2010.06.03 18:54:24.
