data_PCOD9367394
_publ_section_title
;
Structure prediction by ZEFSAII (Michael W. Deem and Ramdas Pophale) SiO2 
 PCOD9367394
Probable space group: A B A 2
;
_chemical_formula_sum "Si O2"
_cell_formula_units_Z 48
_cell_length_a 10.543788
_cell_length_b 21.008226
_cell_length_c 8.864028
_cell_angle_alpha 90.000000
_cell_angle_beta 90.000000
_cell_angle_gamma 90.000000
_cell_volume 1963.437879
_symmetry_space_group_name_H-M "A B A 2"
_symmetry_group_IT_number 41
_symmetry_cell_setting 'orthorhombic'
loop_
_space_group_symop_operation_xyz
x,y,z
-x,-y,z
1/2-x,y,1/2+z
1/2+x,-y,1/2+z
x,1/2+y,1/2+z
-x,1/2-y,1/2+z
1/2-x,1/2+y,z
1/2+x,1/2-y,z
loop_
_atom_site_type_symbol
_atom_site_label
_atom_site_fract_x
_atom_site_fract_y
_atom_site_fract_z
Si Si1 0.830752 0.063216 0.502750
Si Si2 0.500000 0.500000 0.757026
Si Si3 0.173311 0.555367 0.480780
Si Si4 0.086030 0.243726 0.379779
Si Si5 0.500000 0.000000 0.750565
Si Si6 0.855842 0.889052 0.240231
Si Si7 0.333148 0.286378 0.551155
O O1 0.821146 0.138739 0.512072
O O2 0.916677 0.045423 0.357376
O O3 0.703198 0.021746 0.503736
O O4 0.900640 0.033950 0.647574
O O5 0.439317 0.555584 0.857322
O O6 0.220498 0.617715 0.587888
O O7 0.292187 0.567987 0.362748
O O8 0.088049 0.172233 0.311519
O O9 0.196670 0.257311 0.502405
O O10 0.946782 0.248330 0.456023
O O11 0.126136 0.282090 0.227749
O O12 0.433144 0.053806 0.648228
#
# Coordination Sequence:
#
# PCOD9367394 Si02
#       7
#     8   4   8   8   4   8   8
#     4  10  23  44  69 105 145 181 241 306 375 443
#     4  11  23  42  70 110 148 188 232 308 388 450
#     4  11  23  40  70 107 135 186 232 305 376 442
#     4  12  28  50  75 109 150 209 261 315 375 456
#     4   9  19  40  72  90 132 178 222 304 362 422
#     4  11  22  43  67 100 141 179 243 297 368 438
#     4  12  28  51  76 109 153 207 261 316 377 459
#
# _framework density 24.446914
#
# number of rings (size 3 to 8) (size 9 to 14) (size 15 to 20)
#    0.000    1.000    3.333    2.500    2.333    4.000 
#    6.000    0.000    0.000    0.000    0.000    0.000 
#    0.000    0.000    0.000    0.000    0.000    0.000 
#
# Total GULP energy -133663.214414 kJ/mol
# GULP energy per Si atom -5569.300601 kJ/mol
# Density = 2.439127 g / cm^3
# Si number density = 24.446914 Si / 1000 Ang^3
#
#
#
# Elastic Constant Matrix: (Units=GPa)
#
#
# Indices 1 2 3 4 5 6 
#
# 1 82.0486 8.1918 0.9226 0.0000 0.0000 0.0000
# 2 8.1918 75.9301 -13.7669 0.0000 0.0000 0.0000
# 3 0.9226 -13.7669 89.4753 0.0000 0.0000 0.0000
# 4 0.0000 0.0000 0.0000 24.1397 0.0000 0.0000
# 5 0.0000 0.0000 0.0000 0.0000 35.6183 0.0000
# 6 0.0000 0.0000 0.0000 0.0000 0.0000 14.0690
#
#
#
# Elastic Compliance Matrix: (Units=1/GPa)
#
#
# Indices 1 2 3 4 5 6 
#
# 1 0.012331 -0.001392 -0.000341 0.000000 0.000000 0.000000
# 2 -0.001392 0.013705 0.002123 0.000000 0.000000 0.000000
# 3 -0.000341 0.002123 0.011506 0.000000 0.000000 0.000000
# 4 0.000000 0.000000 0.000000 0.041426 0.000000 0.000000
# 5 0.000000 0.000000 0.000000 0.000000 0.028075 0.000000
# 6 0.000000 0.000000 0.000000 0.000000 0.000000 0.071078
#
#
# Mechanical properties :
#
#
# Convention : Reuss Voigt Hill
#
# Bulk Modulus (GPa) = 26.09513 26.46101 26.27807
# Shear Modulus (GPa) = 26.29969 31.57249 28.93609
#
# Velocity S-wave (km/s) = 3.28348 3.59760 3.44412
# Velocity P-wave (km/s) = 5.00723 5.30135 5.15639
#
# Compressibility (1/GPa) = 0.03832132
#
# Stress axis : x y z
#
# Youngs Moduli (GPa) = 81.09813 72.96535 86.90783
#
# Poissons Ratio (x) = 0.10158 0.02967
# Poissons Ratio (y) = 0.11291 -0.18451
# Poissons Ratio (z) = 0.02768 -0.15491
#
# Static dielectric constant tensor:
#      x y z
#    x 2.819730 0.000000 0.000000 
#    y 0.000000 2.165650 0.000000 
#    z 0.000000 0.000000 1.991990 
# 
# From -- ./inp_files/2120.got.cif
#   From: 2010.05.17/outbox.cif.g08.bks.cpg/sg41_2_cif.got.tgz:2120.got - 2010.06.03 18:54:24.
