data_PCOD9367482
_publ_section_title
;
Structure prediction by ZEFSAII (Michael W. Deem and Ramdas Pophale) SiO2 
 PCOD9367482
Probable space group: A B A 2
;
_chemical_formula_sum "Si O2"
_cell_formula_units_Z 60
_cell_length_a 26.615825
_cell_length_b 18.888453
_cell_length_c 4.970809
_cell_angle_alpha 90.000000
_cell_angle_beta 90.000000
_cell_angle_gamma 90.000000
_cell_volume 2498.983555
_symmetry_space_group_name_H-M "A B A 2"
_symmetry_group_IT_number 41
_symmetry_cell_setting 'orthorhombic'
loop_
_space_group_symop_operation_xyz
x,y,z
-x,-y,z
1/2-x,y,1/2+z
1/2+x,-y,1/2+z
x,1/2+y,1/2+z
-x,1/2-y,1/2+z
1/2-x,1/2+y,z
1/2+x,1/2-y,z
loop_
_atom_site_type_symbol
_atom_site_label
_atom_site_fract_x
_atom_site_fract_y
_atom_site_fract_z
Si Si1 0.370281 0.666917 0.035580
Si Si2 0.948135 0.896140 0.391037
Si Si3 0.010165 0.293328 0.161355
Si Si4 0.000000 0.000000 0.030598
Si Si5 0.845830 0.629861 0.277861
Si Si6 0.609358 0.481413 0.771144
Si Si7 0.218432 0.739062 0.864687
Si Si8 0.394397 0.308859 0.282877
O O1 0.420393 0.662839 0.217179
O O2 0.326189 0.692997 0.232654
O O3 0.368142 0.588727 0.911171
O O4 0.378597 0.726685 0.809849
O O5 0.991571 0.933338 0.224296
O O6 0.906482 0.953961 0.474654
O O7 0.972833 0.860399 0.650636
O O8 0.056902 0.314508 0.974041
O O9 0.984927 0.233894 0.964262
O O10 0.946472 0.004536 0.878588
O O11 0.852519 0.545996 0.299029
O O12 0.798061 0.678380 0.350458
O O13 0.887866 0.662011 0.483888
O O14 0.855249 0.647602 0.966177
O O15 0.265455 0.724327 0.668337
#
# Coordination Sequence:
#
# PCOD9367482 Si02
#       8
#     8   8   8   4   8   8   8   8
#     4  10  24  44  69 102 135 178 233 291 364 420
#     4  11  24  40  64  96 145 191 238 294 337 415
#     4  12  24  37  59  94 135 183 238 289 326 384
#     4  10  24  42  58  98 140 198 240 270 336 396
#     4  11  26  44  72 102 135 184 226 282 360 423
#     4  11  25  42  70  99 147 195 234 289 338 423
#     4  11  25  49  78 103 134 171 228 299 372 442
#     4  11  23  42  66  98 140 185 237 285 336 411
#
# _framework density 24.009764000000001
#
# number of rings (size 3 to 8) (size 9 to 14) (size 15 to 20)
#    0.000    1.067    1.333    4.400   16.800    0.000 
#    0.000    1.333    0.000    0.000    0.000    0.000 
#    0.000    0.000    0.000    0.000    0.000    0.000 
#
# Total GULP energy -167683.593704 kJ/mol
# GULP energy per Si atom -5589.453123 kJ/mol
# Density = 2.395512 g / cm^3
# Si number density = 24.009764 Si / 1000 Ang^3
#
#
#
# Elastic Constant Matrix: (Units=GPa)
#
#
# Indices 1 2 3 4 5 6 
#
# 1 57.7499 28.1794 5.9536 0.0000 0.0000 0.0000
# 2 28.1794 148.3042 31.5102 0.0000 0.0000 0.0000
# 3 5.9536 31.5102 112.6626 0.0000 0.0000 0.0000
# 4 0.0000 0.0000 0.0000 31.8296 0.0000 0.0000
# 5 0.0000 0.0000 0.0000 0.0000 32.8198 0.0000
# 6 0.0000 0.0000 0.0000 0.0000 0.0000 41.2360
#
#
#
# Elastic Compliance Matrix: (Units=1/GPa)
#
#
# Indices 1 2 3 4 5 6 
#
# 1 0.019086 -0.003628 0.000006 0.000000 0.000000 0.000000
# 2 -0.003628 0.007858 -0.002006 0.000000 0.000000 0.000000
# 3 0.000006 -0.002006 0.009437 0.000000 0.000000 0.000000
# 4 0.000000 0.000000 0.000000 0.031417 0.000000 0.000000
# 5 0.000000 0.000000 0.000000 0.000000 0.030469 0.000000
# 6 0.000000 0.000000 0.000000 0.000000 0.000000 0.024251
#
#
# Mechanical properties :
#
#
# Convention : Reuss Voigt Hill
#
# Bulk Modulus (GPa) = 39.80078 50.00034 44.90056
# Shear Modulus (GPa) = 35.17433 38.04864 36.61149
#
# Velocity S-wave (km/s) = 3.83169 3.98517 3.90918
# Velocity P-wave (km/s) = 6.01570 6.48426 6.25437
#
# Compressibility (1/GPa) = 0.02512513
#
# Stress axis : x y z
#
# Youngs Moduli (GPa) = 52.39550 127.25122 105.96758
#
# Poissons Ratio (x) = 0.46164 -0.00064
# Poissons Ratio (y) = 0.19008 0.21259
# Poissons Ratio (z) = -0.00032 0.25529
#
# Static dielectric constant tensor:
#      x y z
#    x 1.995080 0.000000 0.000000 
#    y 0.000000 1.935650 0.000000 
#    z 0.000000 0.000000 1.901140 
# 
# From -- ./inp_files/1200.got.cif
#   From: 2010.05.17/outbox.cif.g08.bks.cpg/sg41_1_cif.got.tgz:1200.got - 2010.06.03 18:54:24.
