data_PCOD9367809
_publ_section_title
;
Structure prediction by ZEFSAII (Michael W. Deem and Ramdas Pophale) SiO2 
 PCOD9367809
Probable space group: A B A 2
;
_chemical_formula_sum "Si O2"
_cell_formula_units_Z 44
_cell_length_a 14.960456
_cell_length_b 13.563953
_cell_length_c 8.640634
_cell_angle_alpha 90.000000
_cell_angle_beta 90.000000
_cell_angle_gamma 90.000000
_cell_volume 1753.382700
_symmetry_space_group_name_H-M "A B A 2"
_symmetry_group_IT_number 41
_symmetry_cell_setting 'orthorhombic'
loop_
_space_group_symop_operation_xyz
x,y,z
-x,-y,z
1/2-x,y,1/2+z
1/2+x,-y,1/2+z
x,1/2+y,1/2+z
-x,1/2-y,1/2+z
1/2-x,1/2+y,z
1/2+x,1/2-y,z
loop_
_atom_site_type_symbol
_atom_site_label
_atom_site_fract_x
_atom_site_fract_y
_atom_site_fract_z
Si Si1 0.156740 0.825593 0.698070
Si Si2 0.000000 0.500000 0.945774
Si Si3 0.143193 0.630880 0.499856
Si Si4 0.267702 0.435914 0.978607
Si Si5 0.952137 0.114311 0.143629
Si Si6 0.046378 0.160740 0.685765
O O1 0.168351 0.718241 0.619772
O O2 0.179922 0.902762 0.564679
O O3 0.055377 0.844148 0.749649
O O4 0.220087 0.862522 0.834601
O O5 0.042311 0.422460 0.821446
O O6 0.053888 0.573137 0.061815
O O7 0.222347 0.553308 0.464860
O O8 0.113581 0.661902 0.328358
O O9 0.049591 0.586923 0.570365
O O10 0.356692 0.416652 0.078722
O O11 0.950195 0.231625 0.113987
#
# Coordination Sequence:
#
# PCOD9367809 Si02
#       6
#     8   4   8   8   8   8
#     4  11  28  45  74 113 155 202 250 333 403 462
#     4  12  24  40  78 112 140 194 256 312 388 442
#     4  11  24  50  76 105 151 209 262 316 391 478
#     4  12  26  47  73 109 160 195 254 326 405 471
#     4  11  23  44  76 107 145 200 262 317 375 482
#     4  11  25  46  76 110 146 197 268 317 379 475
#
# _framework density 25.094351
#
# number of rings (size 3 to 8) (size 9 to 14) (size 15 to 20)
#    0.000    0.727    3.636    3.273    7.636    1.455 
#    3.273    0.000    0.000    0.000    0.000    0.000 
#    0.000    0.000    0.000    0.000    0.000    0.000 
#
# Total GULP energy -122880.834627 kJ/mol
# GULP energy per Si atom -5585.492483 kJ/mol
# Density = 2.503724 g / cm^3
# Si number density = 25.094351 Si / 1000 Ang^3
#
#
#
# Elastic Constant Matrix: (Units=GPa)
#
#
# Indices 1 2 3 4 5 6 
#
# 1 24.6751 29.9067 12.9053 0.0000 0.0000 0.0000
# 2 29.9067 129.3002 28.1214 0.0000 0.0000 0.0000
# 3 12.9053 28.1214 111.7275 0.0000 0.0000 0.0000
# 4 0.0000 0.0000 0.0000 37.8870 0.0000 0.0000
# 5 0.0000 0.0000 0.0000 0.0000 -2.5728 0.0000
# 6 0.0000 0.0000 0.0000 0.0000 0.0000 11.4751
#
#
#
# Elastic Compliance Matrix: (Units=1/GPa)
#
#
# Indices 1 2 3 4 5 6 
#
# 1 0.057571 -0.012557 -0.003489 0.000000 0.000000 0.000000
# 2 -0.012557 0.010921 -0.001298 0.000000 0.000000 0.000000
# 3 -0.003489 -0.001298 0.009680 0.000000 0.000000 0.000000
# 4 0.000000 0.000000 0.000000 0.026394 0.000000 0.000000
# 5 0.000000 0.000000 0.000000 0.000000 -0.388679 0.000000
# 6 0.000000 0.000000 0.000000 0.000000 0.000000 0.087145
#
#
# Mechanical properties :
#
#
# Convention : Reuss Voigt Hill
#
# Bulk Modulus (GPa) = 22.99771 45.28554 34.14162
# Shear Modulus (GPa) = -33.83322 22.34248 -5.74537
#
# Velocity S-wave (km/s) = -3.67582 2.98709 -1.51475
# Velocity P-wave (km/s) = 2.97173 5.47560 3.25200
#
# Compressibility (1/GPa) = 0.04348260
#
# Stress axis : x y z
#
# Youngs Moduli (GPa) = 17.36982 91.56901 103.30414
#
# Poissons Ratio (x) = 1.14984 0.36046
# Poissons Ratio (y) = 0.21812 0.13412
# Poissons Ratio (z) = 0.06061 0.11888
#
# Static dielectric constant tensor:
#      x y z
#    x 1.965110 0.000000 0.000000 
#    y 0.000000 2.061480 0.000000 
#    z 0.000000 0.000000 2.025660 
# 
# From -- ./inp_files/3000.got.cif
#   From: 2010.05.17/outbox.cif.g08.bks.cpg/sg41_2_cif.got.tgz:3000.got - 2010.06.03 18:54:24.
