data_PCOD9367575
_publ_section_title
;
Structure prediction by ZEFSAII (Michael W. Deem and Ramdas Pophale) SiO2 
 PCOD9367575
Probable space group: A B A 2
;
_chemical_formula_sum "Si O2"
_cell_formula_units_Z 60
_cell_length_a 9.381343
_cell_length_b 10.602182
_cell_length_c 26.661560
_cell_angle_alpha 90.000000
_cell_angle_beta 90.000000
_cell_angle_gamma 90.000000
_cell_volume 2651.830901
_symmetry_space_group_name_H-M "A B A 2"
_symmetry_group_IT_number 41
_symmetry_cell_setting 'orthorhombic'
loop_
_space_group_symop_operation_xyz
x,y,z
-x,-y,z
1/2-x,y,1/2+z
1/2+x,-y,1/2+z
x,1/2+y,1/2+z
-x,1/2-y,1/2+z
1/2-x,1/2+y,z
1/2+x,1/2-y,z
loop_
_atom_site_type_symbol
_atom_site_label
_atom_site_fract_x
_atom_site_fract_y
_atom_site_fract_z
Si Si1 0.839276 0.493138 0.160990
Si Si2 0.501896 0.851280 0.588096
Si Si3 0.500000 0.000000 0.986399
Si Si4 0.808415 0.116548 0.357706
Si Si5 0.122863 0.650941 0.896411
Si Si6 0.196267 0.348842 0.059723
Si Si7 0.833749 0.121701 0.240549
Si Si8 0.365521 0.163400 0.691122
O O1 0.829247 0.585274 0.114506
O O2 0.712684 0.498963 0.205558
O O3 0.766940 0.363940 0.146888
O O4 0.000000 0.500000 0.180756
O O5 0.620340 0.783955 0.556177
O O6 0.360509 0.823658 0.557694
O O7 0.517668 0.809706 0.645996
O O8 0.500000 0.000000 0.592885
O O9 0.568025 0.890354 0.951455
O O10 0.376231 0.941755 0.020428
O O11 0.710686 0.222171 0.384661
O O12 0.790542 0.107627 0.297880
O O13 0.973697 0.154514 0.366085
O O14 0.791365 0.974485 0.378629
O O15 0.726099 0.225685 0.218280
O O16 0.001716 0.141064 0.232927
#
# Coordination Sequence:
#
# PCOD9367575 Si02
#       8
#     8   8   4   8   8   8   8   8
#     4  12  25  39  61  97 148 192 251 304 355 446
#     4  12  25  45  64 102 149 201 243 304 354 437
#     4  10  26  50  84 102 144 192 248 328 394 438
#     4  10  24  46  76 111 148 191 245 319 391 453
#     4  10  25  52  77 110 149 185 253 330 391 451
#     4  12  26  43  72 102 144 194 252 299 371 447
#     4  12  24  39  68 101 146 203 246 302 370 464
#     4  12  23  41  62  98 149 204 250 294 364 435
#
# _framework density 22.625875000000001
#
# number of rings (size 3 to 8) (size 9 to 14) (size 15 to 20)
#    0.000    0.800    4.667    2.000    9.333    2.667 
#    0.000    0.000    0.000    0.000    0.000    0.000 
#    0.000    0.000    0.000    0.000    0.000    0.000 
#
# Total GULP energy -167053.567766 kJ/mol
# GULP energy per Si atom -5568.452259 kJ/mol
# Density = 2.257438 g / cm^3
# Si number density = 22.625875 Si / 1000 Ang^3
#
#
#
# Elastic Constant Matrix: (Units=GPa)
#
#
# Indices 1 2 3 4 5 6 
#
# 1 145.3452 46.7960 43.0495 0.0000 0.0000 0.0000
# 2 46.7960 86.0868 39.8791 0.0000 0.0000 0.0000
# 3 43.0495 39.8791 100.4130 0.0000 0.0000 0.0000
# 4 0.0000 0.0000 0.0000 29.8368 0.0000 0.0000
# 5 0.0000 0.0000 0.0000 0.0000 30.1838 0.0000
# 6 0.0000 0.0000 0.0000 0.0000 0.0000 -17.9389
#
#
#
# Elastic Compliance Matrix: (Units=1/GPa)
#
#
# Indices 1 2 3 4 5 6 
#
# 1 0.008746 -0.003698 -0.002281 0.000000 0.000000 0.000000
# 2 -0.003698 0.015798 -0.004689 0.000000 0.000000 0.000000
# 3 -0.002281 -0.004689 0.012799 0.000000 0.000000 0.000000
# 4 0.000000 0.000000 0.000000 0.033516 0.000000 0.000000
# 5 0.000000 0.000000 0.000000 0.000000 0.033130 0.000000
# 6 0.000000 0.000000 0.000000 0.000000 0.000000 -0.055745
#
#
# Mechanical properties :
#
#
# Convention : Reuss Voigt Hill
#
# Bulk Modulus (GPa) = 62.46896 65.69935 64.08415
# Shear Modulus (GPa) = 66.74052 21.89104 44.31578
#
# Velocity S-wave (km/s) = 5.43705 3.11388 4.43045
# Velocity P-wave (km/s) = 8.19053 6.48295 7.38625
#
# Compressibility (1/GPa) = 0.01600795
#
# Stress axis : x y z
#
# Youngs Moduli (GPa) = 114.33320 63.29759 78.13018
#
# Poissons Ratio (x) = 0.23405 0.17823
# Poissons Ratio (y) = 0.42277 0.36636
# Poissons Ratio (z) = 0.26082 0.29681
#
# Static dielectric constant tensor:
#      x y z
#    x 1.940630 0.000000 0.000000 
#    y 0.000000 2.030050 0.000000 
#    z 0.000000 0.000000 1.914410 
# 
# From -- ./inp_files/12466.got.cif
#   From: 2010.05.17/outbox.cif.g08.bks.cpg/sg41_7_cif.got.tgz:12466.got - 2010.06.03 18:54:24.
