data_PCOD9367327
_publ_section_title
;
Structure prediction by ZEFSAII (Michael W. Deem and Ramdas Pophale) SiO2 
 PCOD9367327
Probable space group: A B A 2
;
_chemical_formula_sum "Si O2"
_cell_formula_units_Z 56
_cell_length_a 14.938625
_cell_length_b 11.268397
_cell_length_c 14.130510
_cell_angle_alpha 90.000000
_cell_angle_beta 90.000000
_cell_angle_gamma 90.000000
_cell_volume 2378.650317
_symmetry_space_group_name_H-M "A B A 2"
_symmetry_group_IT_number 41
_symmetry_cell_setting 'orthorhombic'
loop_
_space_group_symop_operation_xyz
x,y,z
-x,-y,z
1/2-x,y,1/2+z
1/2+x,-y,1/2+z
x,1/2+y,1/2+z
-x,1/2-y,1/2+z
1/2-x,1/2+y,z
1/2+x,1/2-y,z
loop_
_atom_site_type_symbol
_atom_site_label
_atom_site_fract_x
_atom_site_fract_y
_atom_site_fract_z
Si Si1 0.408495 0.469009 0.541740
Si Si2 0.202085 0.055651 0.849447
Si Si3 0.646483 0.821186 0.164402
Si Si4 0.327678 0.284689 0.861464
Si Si5 0.274208 0.860124 0.555079
Si Si6 0.546719 0.233080 0.185198
Si Si7 0.598043 0.441359 0.046446
O O1 0.500000 0.500000 0.485071
O O2 0.368746 0.592399 0.576391
O O3 0.321474 0.394089 0.510128
O O4 0.441400 0.392392 0.631785
O O5 0.156299 0.095373 0.753434
O O6 0.278535 0.156892 0.858220
O O7 0.138260 0.076452 0.940878
O O8 0.219496 0.913630 0.837818
O O9 0.728147 0.734950 0.138719
O O10 0.559155 0.743334 0.185793
O O11 0.409687 0.273821 0.788644
O O12 0.339823 0.309364 0.973449
O O13 0.325530 0.975200 0.591986
O O14 0.587433 0.329071 0.113722
O O15 0.500000 0.500000 0.039103
#
# Coordination Sequence:
#
# PCOD9367327 Si02
#       7
#     8   8   8   8   8   8   8
#     4  10  23  41  69 103 143 188 251 312 378 451
#     4  11  26  44  74 105 148 195 252 311 383 454
#     4  11  24  40  71 106 142 197 243 316 380 458
#     4  11  26  45  72 106 149 196 253 312 378 464
#     4  11  25  44  73 106 143 198 252 312 388 463
#     4  11  23  44  69 105 147 191 250 306 380 460
#     4  11  25  46  73 108 147 193 253 314 382 457
#
# _framework density 23.542763000000001
#
# number of rings (size 3 to 8) (size 9 to 14) (size 15 to 20)
#    0.000    1.143    2.857    1.714   12.000    0.000 
#    0.000    0.000    0.000    0.857    0.000    0.000 
#    0.000    0.000    0.000    0.000    0.000    0.000 
#
# Total GULP energy -156151.494158 kJ/mol
# GULP energy per Si atom -5576.839077 kJ/mol
# Density = 2.348918 g / cm^3
# Si number density = 23.542763 Si / 1000 Ang^3
#
#
#
# Elastic Constant Matrix: (Units=GPa)
#
#
# Indices 1 2 3 4 5 6 
#
# 1 123.2795 34.9680 25.9714 0.0000 0.0000 0.0000
# 2 34.9680 128.6010 31.0544 0.0000 0.0000 0.0000
# 3 25.9714 31.0544 73.1974 0.0000 0.0000 0.0000
# 4 0.0000 0.0000 0.0000 36.8267 0.0000 0.0000
# 5 0.0000 0.0000 0.0000 0.0000 23.5486 0.0000
# 6 0.0000 0.0000 0.0000 0.0000 0.0000 40.0216
#
#
#
# Elastic Compliance Matrix: (Units=1/GPa)
#
#
# Indices 1 2 3 4 5 6 
#
# 1 0.009166 -0.001902 -0.002445 0.000000 0.000000 0.000000
# 2 -0.001902 0.009058 -0.003168 0.000000 0.000000 0.000000
# 3 -0.002445 -0.003168 0.015873 0.000000 0.000000 0.000000
# 4 0.000000 0.000000 0.000000 0.027154 0.000000 0.000000
# 5 0.000000 0.000000 0.000000 0.000000 0.042465 0.000000
# 6 0.000000 0.000000 0.000000 0.000000 0.000000 0.024986
#
#
# Mechanical properties :
#
#
# Convention : Reuss Voigt Hill
#
# Bulk Modulus (GPa) = 52.44676 56.56285 54.50480
# Shear Modulus (GPa) = 33.31318 35.61831 34.46575
#
# Velocity S-wave (km/s) = 3.76574 3.89385 3.83033
# Velocity P-wave (km/s) = 6.42132 6.65536 6.53938
#
# Compressibility (1/GPa) = 0.01906695
#
# Stress axis : x y z
#
# Youngs Moduli (GPa) = 109.09519 110.39738 62.99817
#
# Poissons Ratio (x) = 0.20996 0.15406
# Poissons Ratio (y) = 0.20749 0.19959
# Poissons Ratio (z) = 0.26679 0.34976
#
# Static dielectric constant tensor:
#      x y z
#    x 1.974890 0.000000 0.000000 
#    y 0.000000 1.918980 0.000000 
#    z 0.000000 0.000000 1.883210 
# 
# From -- ./inp_files/8404.got.cif
#   From: 2010.05.17/outbox.cif.g08.bks.cpg/sg41_5_cif.got.tgz:8404.got - 2010.06.03 18:54:24.
