data_PCOD9367662
_publ_section_title
;
Structure prediction by ZEFSAII (Michael W. Deem and Ramdas Pophale) SiO2 
 PCOD9367662
Probable space group: A B A 2
;
_chemical_formula_sum "Si O2"
_cell_formula_units_Z 56
_cell_length_a 14.315520
_cell_length_b 10.425562
_cell_length_c 15.167927
_cell_angle_alpha 90.000000
_cell_angle_beta 90.000000
_cell_angle_gamma 90.000000
_cell_volume 2263.772778
_symmetry_space_group_name_H-M "A B A 2"
_symmetry_group_IT_number 41
_symmetry_cell_setting 'orthorhombic'
loop_
_space_group_symop_operation_xyz
x,y,z
-x,-y,z
1/2-x,y,1/2+z
1/2+x,-y,1/2+z
x,1/2+y,1/2+z
-x,1/2-y,1/2+z
1/2-x,1/2+y,z
1/2+x,1/2-y,z
loop_
_atom_site_type_symbol
_atom_site_label
_atom_site_fract_x
_atom_site_fract_y
_atom_site_fract_z
Si Si1 0.579763 0.367202 0.734240
Si Si2 0.699996 0.115039 0.739808
Si Si3 0.147716 0.935203 0.427058
Si Si4 0.802538 0.968024 0.052477
Si Si5 0.396585 0.380516 0.819764
Si Si6 0.617816 0.858198 0.055960
Si Si7 0.973728 0.311111 0.484000
O O1 0.641060 0.242849 0.728418
O O2 0.608107 0.464099 0.811743
O O3 0.597854 0.440102 0.643164
O O4 0.473108 0.335538 0.749068
O O5 0.700539 0.036692 0.648241
O O6 0.797529 0.162152 0.783562
O O7 0.544380 0.244118 0.557692
O O8 0.156486 0.959337 0.323312
O O9 0.096978 0.056134 0.471161
O O10 0.094235 0.802844 0.447797
O O11 0.748858 0.055382 0.978288
O O12 0.949007 0.154577 0.909565
O O13 0.903589 0.918456 0.022242
O O14 0.730119 0.846124 0.055916
#
# Coordination Sequence:
#
# PCOD9367662 Si02
#       7
#     8   8   8   8   8   8   8
#     4  11  26  49  76 120 150 210 270 334 407 489
#     4  12  26  52  83 112 163 212 271 342 414 493
#     4  10  26  48  77 112 157 208 274 333 414 485
#     4  10  28  47  83 117 162 212 273 333 418 494
#     4  11  27  46  83 111 154 208 270 325 416 493
#     4  10  26  49  79 110 163 209 267 340 412 485
#     4  12  26  51  79 118 158 214 271 345 408 494
#
# _framework density 24.737465
#
# number of rings (size 3 to 8) (size 9 to 14) (size 15 to 20)
#    0.857    0.286    2.857    0.429   14.000    1.143 
#    2.571    0.000    0.000    0.000    0.000    0.000 
#    0.000    0.000    0.000    0.000    0.000    0.000 
#
# Total GULP energy -156285.442566 kJ/mol
# GULP energy per Si atom -5581.622949 kJ/mol
# Density = 2.468116 g / cm^3
# Si number density = 24.737465 Si / 1000 Ang^3
#
#
#
# Elastic Constant Matrix: (Units=GPa)
#
#
# Indices 1 2 3 4 5 6 
#
# 1 180.6293 63.9807 53.0090 0.0000 0.0000 0.0000
# 2 63.9807 93.7801 51.7310 0.0000 0.0000 0.0000
# 3 53.0090 51.7310 161.4116 0.0000 0.0000 0.0000
# 4 0.0000 0.0000 0.0000 31.4660 0.0000 0.0000
# 5 0.0000 0.0000 0.0000 0.0000 37.0240 0.0000
# 6 0.0000 0.0000 0.0000 0.0000 0.0000 47.0539
#
#
#
# Elastic Compliance Matrix: (Units=1/GPa)
#
#
# Indices 1 2 3 4 5 6 
#
# 1 0.007428 -0.004522 -0.000990 0.000000 0.000000 0.000000
# 2 -0.004522 0.015706 -0.003549 0.000000 0.000000 0.000000
# 3 -0.000990 -0.003549 0.007658 0.000000 0.000000 0.000000
# 4 0.000000 0.000000 0.000000 0.031780 0.000000 0.000000
# 5 0.000000 0.000000 0.000000 0.000000 0.027009 0.000000
# 6 0.000000 0.000000 0.000000 0.000000 0.000000 0.021252
#
#
# Mechanical properties :
#
#
# Convention : Reuss Voigt Hill
#
# Bulk Modulus (GPa) = 78.92254 85.91803 82.42029
# Shear Modulus (GPa) = 37.54352 40.91548 39.22950
#
# Velocity S-wave (km/s) = 3.89997 4.07134 3.98657
# Velocity P-wave (km/s) = 7.22862 7.54377 7.38787
#
# Compressibility (1/GPa) = 0.01267065
#
# Stress axis : x y z
#
# Youngs Moduli (GPa) = 134.61698 63.67169 130.58445
#
# Poissons Ratio (x) = 0.28790 0.12933
# Poissons Ratio (y) = 0.60870 0.46338
# Poissons Ratio (z) = 0.13333 0.22594
#
# Static dielectric constant tensor:
#      x y z
#    x 2.001850 0.000000 0.000000 
#    y 0.000000 2.018080 0.000000 
#    z 0.000000 0.000000 2.057320 
# 
# From -- ./inp_files/8852.got.cif
#   From: 2010.05.17/outbox.cif.g08.bks.cpg/sg41_5_cif.got.tgz:8852.got - 2010.06.03 18:54:24.
