data_PCOD9367026
_publ_section_title
;
Structure prediction by ZEFSAII (Michael W. Deem and Ramdas Pophale) SiO2 
 PCOD9367026
Probable space group: A B A 2
;
_chemical_formula_sum "Si O2"
_cell_formula_units_Z 48
_cell_length_a 11.897381
_cell_length_b 16.639160
_cell_length_c 10.844724
_cell_angle_alpha 90.000000
_cell_angle_beta 90.000000
_cell_angle_gamma 90.000000
_cell_volume 2146.847873
_symmetry_space_group_name_H-M "A B A 2"
_symmetry_group_IT_number 41
_symmetry_cell_setting 'orthorhombic'
loop_
_space_group_symop_operation_xyz
x,y,z
-x,-y,z
1/2-x,y,1/2+z
1/2+x,-y,1/2+z
x,1/2+y,1/2+z
-x,1/2-y,1/2+z
1/2-x,1/2+y,z
1/2+x,1/2-y,z
loop_
_atom_site_type_symbol
_atom_site_label
_atom_site_fract_x
_atom_site_fract_y
_atom_site_fract_z
Si Si1 0.152159 0.551392 0.555210
Si Si2 0.343302 0.297374 0.976401
Si Si3 0.449041 0.894775 0.667011
Si Si4 0.395193 0.349820 0.429091
Si Si5 0.880695 0.371690 0.067253
Si Si6 0.446645 0.166245 0.345462
O O1 0.106189 0.462336 0.579194
O O2 0.285359 0.560253 0.560061
O O3 0.102887 0.597056 0.435302
O O4 0.083832 0.596666 0.666100
O O5 0.418493 0.313853 0.097238
O O6 0.329010 0.201680 0.984981
O O7 0.227015 0.343950 0.987161
O O8 0.417277 0.329498 0.861906
O O9 0.398021 0.898012 0.801325
O O10 0.495772 0.383898 0.511174
O O11 0.417089 0.256150 0.392280
O O12 0.900502 0.349833 0.209951
#
# Coordination Sequence:
#
# PCOD9367026 Si02
#       6
#     8   8   8   8   8   8
#     4  10  23  44  66  95 135 184 223 278 354 411
#     4  10  22  40  64  96 137 176 230 287 344 397
#     4  10  23  44  67  91 139 180 220 282 360 402
#     4  11  23  39  67 103 130 176 232 287 339 402
#     4  11  23  38  70 102 132 177 239 280 336 420
#     4  10  22  39  66  98 132 179 226 286 341 403
#
# _framework density 22.358362
#
# number of rings (size 3 to 8) (size 9 to 14) (size 15 to 20)
#    0.000    1.667    3.333    0.000    4.667    1.333 
#    3.000    0.000    0.000    0.000    0.000    0.000 
#    0.000    0.000    0.000    0.000    0.000    0.000 
#
# Total GULP energy -133844.269104 kJ/mol
# GULP energy per Si atom -5576.844546 kJ/mol
# Density = 2.230747 g / cm^3
# Si number density = 22.358362 Si / 1000 Ang^3
#
#
#
# Elastic Constant Matrix: (Units=GPa)
#
#
# Indices 1 2 3 4 5 6 
#
# 1 137.3992 15.7056 16.0744 0.0000 0.0000 0.0000
# 2 15.7056 58.9037 24.7773 0.0000 0.0000 0.0000
# 3 16.0744 24.7773 71.3147 0.0000 0.0000 0.0000
# 4 0.0000 0.0000 0.0000 22.9963 0.0000 0.0000
# 5 0.0000 0.0000 0.0000 0.0000 18.2836 0.0000
# 6 0.0000 0.0000 0.0000 0.0000 0.0000 34.8314
#
#
#
# Elastic Compliance Matrix: (Units=1/GPa)
#
#
# Indices 1 2 3 4 5 6 
#
# 1 0.007591 -0.001527 -0.001180 0.000000 0.000000 0.000000
# 2 -0.001527 0.020190 -0.006670 0.000000 0.000000 0.000000
# 3 -0.001180 -0.006670 0.016606 0.000000 0.000000 0.000000
# 4 0.000000 0.000000 0.000000 0.043485 0.000000 0.000000
# 5 0.000000 0.000000 0.000000 0.000000 0.054694 0.000000
# 6 0.000000 0.000000 0.000000 0.000000 0.000000 0.028710
#
#
# Mechanical properties :
#
#
# Convention : Reuss Voigt Hill
#
# Bulk Modulus (GPa) = 39.01625 42.30356 40.65990
# Shear Modulus (GPa) = 25.17936 29.29294 27.23615
#
# Velocity S-wave (km/s) = 3.35949 3.62353 3.49401
# Velocity P-wave (km/s) = 5.70408 6.03891 5.87388
#
# Compressibility (1/GPa) = 0.02563035
#
# Stress axis : x y z
#
# Youngs Moduli (GPa) = 131.73948 49.52947 60.21937
#
# Poissons Ratio (x) = 0.07565 0.07107
# Poissons Ratio (y) = 0.20123 0.40169
# Poissons Ratio (z) = 0.15549 0.33038
#
# Static dielectric constant tensor:
#      x y z
#    x 1.861550 0.000000 0.000000 
#    y 0.000000 1.879070 0.000000 
#    z 0.000000 0.000000 1.793990 
# 
# From -- ./inp_files/4977.got.cif
#   From: 2010.05.17/outbox.cif.g08.bks.cpg/sg41_3_cif.got.tgz:4977.got - 2010.06.03 18:54:24.
