data_PCOD9367667
_publ_section_title
;
Structure prediction by ZEFSAII (Michael W. Deem and Ramdas Pophale) SiO2 
 PCOD9367667
Probable space group: A B A 2
;
_chemical_formula_sum "Si O2"
_cell_formula_units_Z 32
_cell_length_a 7.905743
_cell_length_b 9.856692
_cell_length_c 16.736425
_cell_angle_alpha 90.000000
_cell_angle_beta 90.000000
_cell_angle_gamma 90.000000
_cell_volume 1304.177111
_symmetry_space_group_name_H-M "A B A 2"
_symmetry_group_IT_number 41
_symmetry_cell_setting 'orthorhombic'
loop_
_space_group_symop_operation_xyz
x,y,z
-x,-y,z
1/2-x,y,1/2+z
1/2+x,-y,1/2+z
x,1/2+y,1/2+z
-x,1/2-y,1/2+z
1/2-x,1/2+y,z
1/2+x,1/2-y,z
loop_
_atom_site_type_symbol
_atom_site_label
_atom_site_fract_x
_atom_site_fract_y
_atom_site_fract_z
Si Si1 0.343931 0.412069 0.579190
Si Si2 0.679621 0.507722 0.337065
Si Si3 0.000000 0.000000 0.016613
Si Si4 0.184319 0.218927 0.938024
Si Si5 0.500000 0.500000 0.729390
O O1 0.500000 0.500000 0.544412
O O2 0.166613 0.490854 0.571229
O O3 0.303099 0.283539 0.525730
O O4 0.418846 0.389587 0.667926
O O5 0.500000 0.500000 0.293357
O O6 0.685729 0.657523 0.375613
O O7 0.685783 0.394409 0.406875
O O8 0.840220 0.467282 0.283872
O O9 0.017883 0.126214 0.954995
#
# Coordination Sequence:
#
# PCOD9367667 Si02
#       5
#     8   8   4   8   4
#     4  10  26  49  76 117 160 207 271 334 396 498
#     4  12  28  50  82 118 167 217 266 352 407 499
#     4  12  25  44  86 115 156 210 276 336 401 482
#     4  12  26  51  84 121 157 214 286 329 409 495
#     4  10  29  54  74 125 166 212 276 330 433 480
#
# _framework density 24.536546000000001
#
# number of rings (size 3 to 8) (size 9 to 14) (size 15 to 20)
#    0.750    0.000    2.500    3.000    8.750    0.000 
#    9.000    0.000    0.000    0.000    0.000    0.000 
#    0.000    0.000    0.000    0.000    0.000    0.000 
#
# Total GULP energy -89195.974629 kJ/mol
# GULP energy per Si atom -5574.748414 kJ/mol
# Density = 2.448070 g / cm^3
# Si number density = 24.536546 Si / 1000 Ang^3
#
#
#
# Elastic Constant Matrix: (Units=GPa)
#
#
# Indices 1 2 3 4 5 6 
#
# 1 229.1659 26.7585 60.8727 0.0000 0.0000 0.0000
# 2 26.7585 137.9185 28.5907 0.0000 0.0000 0.0000
# 3 60.8727 28.5907 118.0515 0.0000 0.0000 0.0000
# 4 0.0000 0.0000 0.0000 12.4235 0.0000 0.0000
# 5 0.0000 0.0000 0.0000 0.0000 30.3464 0.0000
# 6 0.0000 0.0000 0.0000 0.0000 0.0000 22.8252
#
#
#
# Elastic Compliance Matrix: (Units=1/GPa)
#
#
# Indices 1 2 3 4 5 6 
#
# 1 0.005085 -0.000466 -0.002509 0.000000 0.000000 0.000000
# 2 -0.000466 0.007677 -0.001619 0.000000 0.000000 0.000000
# 3 -0.002509 -0.001619 0.010157 0.000000 0.000000 0.000000
# 4 0.000000 0.000000 0.000000 0.080493 0.000000 0.000000
# 5 0.000000 0.000000 0.000000 0.000000 0.032953 0.000000
# 6 0.000000 0.000000 0.000000 0.000000 0.000000 0.043811
#
#
# Mechanical properties :
#
#
# Convention : Reuss Voigt Hill
#
# Bulk Modulus (GPa) = 72.83376 79.73108 76.28242
# Shear Modulus (GPa) = 25.78127 37.71328 31.74728
#
# Velocity S-wave (km/s) = 3.24501 3.92474 3.60095
# Velocity P-wave (km/s) = 6.61728 7.28722 6.96031
#
# Compressibility (1/GPa) = 0.01372990
#
# Stress axis : x y z
#
# Youngs Moduli (GPa) = 196.67499 130.26420 98.45820
#
# Poissons Ratio (x) = 0.06075 0.24702
# Poissons Ratio (y) = 0.09173 0.15938
# Poissons Ratio (z) = 0.49343 0.21086
#
# Static dielectric constant tensor:
#      x y z
#    x 2.070040 0.000000 0.000000 
#    y 0.000000 2.028420 0.000000 
#    z 0.000000 0.000000 1.995150 
# 
# From -- ./inp_files/11064.got.cif
#   From: 2010.05.17/outbox.cif.g08.bks.cpg/sg41_6_cif.got.tgz:11064.got - 2010.06.03 18:54:24.
