data_PCOD9367155
_publ_section_title
;
Structure prediction by ZEFSAII (Michael W. Deem and Ramdas Pophale) SiO2 
 PCOD9367155
Probable space group: A B A 2
;
_chemical_formula_sum "Si O2"
_cell_formula_units_Z 60
_cell_length_a 23.164376
_cell_length_b 12.113702
_cell_length_c 9.181425
_cell_angle_alpha 90.000000
_cell_angle_beta 90.000000
_cell_angle_gamma 90.000000
_cell_volume 2576.366138
_symmetry_space_group_name_H-M "A B A 2"
_symmetry_group_IT_number 41
_symmetry_cell_setting 'orthorhombic'
loop_
_space_group_symop_operation_xyz
x,y,z
-x,-y,z
1/2-x,y,1/2+z
1/2+x,-y,1/2+z
x,1/2+y,1/2+z
-x,1/2-y,1/2+z
1/2-x,1/2+y,z
1/2+x,1/2-y,z
loop_
_atom_site_type_symbol
_atom_site_label
_atom_site_fract_x
_atom_site_fract_y
_atom_site_fract_z
Si Si1 0.266518 0.760107 0.228280
Si Si2 0.845598 0.993785 0.945613
Si Si3 0.936302 0.342265 0.466091
Si Si4 0.988135 0.241478 0.740021
Si Si5 0.219201 0.413779 0.959334
Si Si6 0.500000 0.500000 0.767856
Si Si7 0.829336 0.409048 0.130487
Si Si8 0.377186 0.763993 0.441294
O O1 0.228980 0.654714 0.181169
O O2 0.319326 0.743985 0.341910
O O3 0.223964 0.847377 0.310123
O O4 0.286931 0.822463 0.084398
O O5 0.871535 0.878627 0.007614
O O6 0.779041 0.019349 0.981099
O O7 0.845988 0.979430 0.770480
O O8 0.874960 0.108881 0.989642
O O9 0.976520 0.318691 0.603550
O O10 0.954863 0.253297 0.342544
O O11 0.953175 0.453782 0.380788
O O12 0.933807 0.256237 0.847248
O O13 0.983970 0.112452 0.686305
O O14 0.173730 0.508464 0.993509
O O15 0.873050 0.314820 0.080130
#
# Coordination Sequence:
#
# PCOD9367155 Si02
#       8
#     8   8   8   8   8   4   8   8
#     4  11  23  40  61  91 127 166 212 252 305 372
#     4  11  22  40  65  92 126 167 207 255 318 370
#     4  10  22  42  70  92 124 164 207 262 320 374
#     4  10  22  42  70  92 124 164 207 262 320 374
#     4  11  23  40  61  91 127 166 212 252 305 372
#     4   8  20  40  66  82 132 152 194 260 316 346
#     4  12  24  40  64  90 132 168 206 260 308 370
#     4  11  22  40  65  92 126 167 207 255 318 370
#
# _framework density 23.288616000000001
#
# number of rings (size 3 to 8) (size 9 to 14) (size 15 to 20)
#    0.800    0.533    6.667    0.800    3.733    0.000 
#    0.000    0.667    0.000    0.000    0.000    0.000 
#    0.000    0.000    0.000    0.000    0.000    0.000 
#
# Total GULP energy -167211.044103 kJ/mol
# GULP energy per Si atom -5573.701470 kJ/mol
# Density = 2.323561 g / cm^3
# Si number density = 23.288616 Si / 1000 Ang^3
#
#
#
# Elastic Constant Matrix: (Units=GPa)
#
#
# Indices 1 2 3 4 5 6 
#
# 1 33.5467 8.5071 3.7149 0.0000 0.0000 0.0000
# 2 8.5071 73.5904 16.5413 0.0000 0.0000 0.0000
# 3 3.7149 16.5413 29.4159 0.0000 0.0000 0.0000
# 4 0.0000 0.0000 0.0000 33.4786 0.0000 0.0000
# 5 0.0000 0.0000 0.0000 0.0000 31.7526 0.0000
# 6 0.0000 0.0000 0.0000 0.0000 0.0000 28.0129
#
#
#
# Elastic Compliance Matrix: (Units=1/GPa)
#
#
# Indices 1 2 3 4 5 6 
#
# 1 0.030829 -0.003078 -0.002163 0.000000 0.000000 0.000000
# 2 -0.003078 0.015862 -0.008531 0.000000 0.000000 0.000000
# 3 -0.002163 -0.008531 0.039065 0.000000 0.000000 0.000000
# 4 0.000000 0.000000 0.000000 0.029870 0.000000 0.000000
# 5 0.000000 0.000000 0.000000 0.000000 0.031493 0.000000
# 6 0.000000 0.000000 0.000000 0.000000 0.000000 0.035698
#
#
# Mechanical properties :
#
#
# Convention : Reuss Voigt Hill
#
# Bulk Modulus (GPa) = 17.17800 21.56440 19.37120
# Shear Modulus (GPa) = 21.76133 25.83479 23.79806
#
# Velocity S-wave (km/s) = 3.06014 3.33428 3.20015
# Velocity P-wave (km/s) = 4.45849 4.90947 4.68941
#
# Compressibility (1/GPa) = 0.05821398
#
# Stress axis : x y z
#
# Youngs Moduli (GPa) = 32.43678 63.04343 25.59806
#
# Poissons Ratio (x) = 0.19403 0.05536
# Poissons Ratio (y) = 0.09983 0.21838
# Poissons Ratio (z) = 0.07015 0.53782
#
# Static dielectric constant tensor:
#      x y z
#    x 2.150620 0.000000 0.000000 
#    y 0.000000 1.886500 0.000000 
#    z 0.000000 0.000000 1.852320 
# 
# From -- ./inp_files/3840.got.cif
#   From: 2010.05.17/outbox.cif.g08.bks.cpg/sg41_2_cif.got.tgz:3840.got - 2010.06.03 18:54:24.
