data_PCOD9367459
_publ_section_title
;
Structure prediction by ZEFSAII (Michael W. Deem and Ramdas Pophale) SiO2 
 PCOD9367459
Probable space group: A B A 2
;
_chemical_formula_sum "Si O2"
_cell_formula_units_Z 48
_cell_length_a 11.311783
_cell_length_b 9.773322
_cell_length_c 20.482753
_cell_angle_alpha 90.000000
_cell_angle_beta 90.000000
_cell_angle_gamma 90.000000
_cell_volume 2264.444082
_symmetry_space_group_name_H-M "A B A 2"
_symmetry_group_IT_number 41
_symmetry_cell_setting 'orthorhombic'
loop_
_space_group_symop_operation_xyz
x,y,z
-x,-y,z
1/2-x,y,1/2+z
1/2+x,-y,1/2+z
x,1/2+y,1/2+z
-x,1/2-y,1/2+z
1/2-x,1/2+y,z
1/2+x,1/2-y,z
loop_
_atom_site_type_symbol
_atom_site_label
_atom_site_fract_x
_atom_site_fract_y
_atom_site_fract_z
Si Si1 0.312031 0.645092 0.407830
Si Si2 0.456462 0.263353 0.788859
Si Si3 0.000000 0.500000 0.999894
Si Si4 0.624292 0.472520 0.820480
Si Si5 0.130652 0.495821 0.577193
Si Si6 0.500000 0.500000 0.203463
Si Si7 0.185512 0.783332 0.523447
O O1 0.397311 0.725086 0.358140
O O2 0.395969 0.565267 0.457058
O O3 0.237494 0.539547 0.364084
O O4 0.218133 0.734069 0.449742
O O5 0.590032 0.324318 0.791774
O O6 0.381285 0.400555 0.770239
O O7 0.459404 0.128981 0.745679
O O8 0.934497 0.628803 0.033294
O O9 0.500000 0.500000 0.859308
O O10 0.182615 0.646014 0.566057
O O11 0.210007 0.382293 0.544981
O O12 0.000000 0.500000 0.545646
O O13 0.104964 0.464048 0.652893
#
# Coordination Sequence:
#
# PCOD9367459 Si02
#       7
#     8   8   4   8   8   4   8
#     4  12  21  40  72 103 145 179 224 302 363 431
#     4   9  21  41  65 102 131 180 229 282 361 408
#     4  12  25  36  70 106 140 179 230 296 356 444
#     4   8  22  42  63 101 138 179 218 281 365 427
#     4  10  26  47  71  99 139 193 242 302 348 420
#     4  10  23  50  70  96 146 183 250 298 334 436
#     4  12  24  46  69 107 139 190 243 298 369 424
#
# _framework density 21.197255999999999
#
# number of rings (size 3 to 8) (size 9 to 14) (size 15 to 20)
#    1.500    0.000    1.667    3.500    0.000    2.000 
#    6.000    3.333    0.000    0.000    0.000    0.000 
#    0.000    0.000    0.000    0.000    0.000    0.000 
#
# Total GULP energy -133612.449246 kJ/mol
# GULP energy per Si atom -5567.185385 kJ/mol
# Density = 2.114901 g / cm^3
# Si number density = 21.197256 Si / 1000 Ang^3
#
#
#
# Elastic Constant Matrix: (Units=GPa)
#
#
# Indices 1 2 3 4 5 6 
#
# 1 73.1038 36.2003 2.1007 0.0000 0.0000 0.0000
# 2 36.2003 112.1078 25.5921 0.0000 0.0000 0.0000
# 3 2.1007 25.5921 48.3710 0.0000 0.0000 0.0000
# 4 0.0000 0.0000 0.0000 8.3150 0.0000 0.0000
# 5 0.0000 0.0000 0.0000 0.0000 20.2658 0.0000
# 6 0.0000 0.0000 0.0000 0.0000 0.0000 43.5415
#
#
#
# Elastic Compliance Matrix: (Units=1/GPa)
#
#
# Indices 1 2 3 4 5 6 
#
# 1 0.016523 -0.005882 0.002394 0.000000 0.000000 0.000000
# 2 -0.005882 0.012239 -0.006220 0.000000 0.000000 0.000000
# 3 0.002394 -0.006220 0.023860 0.000000 0.000000 0.000000
# 4 0.000000 0.000000 0.000000 0.120265 0.000000 0.000000
# 5 0.000000 0.000000 0.000000 0.000000 0.049344 0.000000
# 6 0.000000 0.000000 0.000000 0.000000 0.000000 0.022967
#
#
# Mechanical properties :
#
#
# Convention : Reuss Voigt Hill
#
# Bulk Modulus (GPa) = 30.11362 40.15208 35.13285
# Shear Modulus (GPa) = 18.13679 25.73709 21.93694
#
# Velocity S-wave (km/s) = 2.92827 3.48828 3.22047
# Velocity P-wave (km/s) = 5.06658 5.93358 5.51714
#
# Compressibility (1/GPa) = 0.03320756
#
# Stress axis : x y z
#
# Youngs Moduli (GPa) = 60.52140 81.70427 41.91031
#
# Poissons Ratio (x) = 0.48059 -0.10035
# Poissons Ratio (y) = 0.35599 0.26069
# Poissons Ratio (z) = -0.14492 0.50821
#
# Static dielectric constant tensor:
#      x y z
#    x 1.786320 0.000000 0.000000 
#    y 0.000000 1.879540 0.000000 
#    z 0.000000 0.000000 1.766800 
# 
# From -- ./inp_files/12117.got.cif
#   From: 2010.05.17/outbox.cif.g08.bks.cpg/sg41_7_cif.got.tgz:12117.got - 2010.06.03 18:54:24.
