data_PCOD9367623
_publ_section_title
;
Structure prediction by ZEFSAII (Michael W. Deem and Ramdas Pophale) SiO2 
 PCOD9367623
Probable space group: A B A 2
;
_chemical_formula_sum "Si O2"
_cell_formula_units_Z 60
_cell_length_a 28.429147
_cell_length_b 15.514064
_cell_length_c 5.738770
_cell_angle_alpha 90.000000
_cell_angle_beta 90.000000
_cell_angle_gamma 90.000000
_cell_volume 2531.093725
_symmetry_space_group_name_H-M "A B A 2"
_symmetry_group_IT_number 41
_symmetry_cell_setting 'orthorhombic'
loop_
_space_group_symop_operation_xyz
x,y,z
-x,-y,z
1/2-x,y,1/2+z
1/2+x,-y,1/2+z
x,1/2+y,1/2+z
-x,1/2-y,1/2+z
1/2-x,1/2+y,z
1/2+x,1/2-y,z
loop_
_atom_site_type_symbol
_atom_site_label
_atom_site_fract_x
_atom_site_fract_y
_atom_site_fract_z
Si Si1 0.772081 0.084051 0.881670
Si Si2 0.372348 0.625331 0.396088
Si Si3 0.927391 0.427912 0.283361
Si Si4 0.125347 0.951783 0.075280
Si Si5 0.227981 0.707954 0.854530
Si Si6 0.455938 0.714599 0.152997
Si Si7 0.500000 0.500000 0.434283
Si Si8 0.444521 0.843099 0.791001
O O1 0.757055 0.054880 0.617479
O O2 0.768775 0.188075 0.865416
O O3 0.825122 0.059540 0.949690
O O4 0.379432 0.605770 0.667687
O O5 0.372722 0.533388 0.256857
O O6 0.325410 0.675604 0.339643
O O7 0.418084 0.684904 0.343322
O O8 0.913682 0.518775 0.390726
O O9 0.946319 0.360242 0.465383
O O10 0.966553 0.443245 0.092158
O O11 0.106332 0.862249 0.184542
O O12 0.252027 0.678733 0.609214
O O13 0.439859 0.805135 0.048554
O O14 0.512163 0.714173 0.192744
O O15 0.467965 0.436842 0.289978
#
# Coordination Sequence:
#
# PCOD9367623 Si02
#       8
#     8   8   8   8   8   8   4   8
#     4  10  25  47  73 105 143 184 238 302 371 438
#     4  11  25  45  69 102 137 183 235 294 356 429
#     4  11  23  43  65  98 135 188 229 293 351 429
#     4  11  26  43  70 103 138 182 237 295 366 427
#     4  10  25  46  73 103 140 187 237 297 367 437
#     4  11  26  42  66  99 141 183 242 285 352 431
#     4  12  20  42  68  90 146 180 234 288 354 420
#     4  12  24  44  66 102 138 188 235 291 357 425
#
# _framework density 23.705166999999999
#
# number of rings (size 3 to 8) (size 9 to 14) (size 15 to 20)
#    0.000    1.067    2.667    2.400    7.467    4.267 
#    0.000    0.000    0.000    0.000    0.000    0.000 
#    0.000    0.000    0.000    0.000    0.000    0.000 
#
# Total GULP energy -167513.918356 kJ/mol
# GULP energy per Si atom -5583.797279 kJ/mol
# Density = 2.365121 g / cm^3
# Si number density = 23.705167 Si / 1000 Ang^3
#
#
#
# Elastic Constant Matrix: (Units=GPa)
#
#
# Indices 1 2 3 4 5 6 
#
# 1 102.9270 18.9003 37.7979 0.0000 0.0000 0.0000
# 2 18.9003 52.3295 21.0654 0.0000 0.0000 0.0000
# 3 37.7979 21.0654 90.7726 0.0000 0.0000 0.0000
# 4 0.0000 0.0000 0.0000 36.7229 0.0000 0.0000
# 5 0.0000 0.0000 0.0000 0.0000 28.6526 0.0000
# 6 0.0000 0.0000 0.0000 0.0000 0.0000 41.3793
#
#
#
# Elastic Compliance Matrix: (Units=1/GPa)
#
#
# Indices 1 2 3 4 5 6 
#
# 1 0.011761 -0.002511 -0.004315 0.000000 0.000000 0.000000
# 2 -0.002511 0.021615 -0.003971 0.000000 0.000000 0.000000
# 3 -0.004315 -0.003971 0.013735 0.000000 0.000000 0.000000
# 4 0.000000 0.000000 0.000000 0.027231 0.000000 0.000000
# 5 0.000000 0.000000 0.000000 0.000000 0.034901 0.000000
# 6 0.000000 0.000000 0.000000 0.000000 0.000000 0.024167
#
#
# Mechanical properties :
#
#
# Convention : Reuss Voigt Hill
#
# Bulk Modulus (GPa) = 39.18752 44.61736 41.90244
# Shear Modulus (GPa) = 30.57961 32.56868 31.57415
#
# Velocity S-wave (km/s) = 3.59555 3.71065 3.65355
# Velocity P-wave (km/s) = 5.81416 6.10092 5.95926
#
# Compressibility (1/GPa) = 0.02551833
#
# Stress axis : x y z
#
# Youngs Moduli (GPa) = 85.02544 46.26427 72.80883
#
# Poissons Ratio (x) = 0.11617 0.31414
# Poissons Ratio (y) = 0.21350 0.28909
# Poissons Ratio (z) = 0.36686 0.18369
#
# Static dielectric constant tensor:
#      x y z
#    x 1.881490 0.000000 0.000000 
#    y 0.000000 1.915870 0.000000 
#    z 0.000000 0.000000 1.986520 
# 
# From -- ./inp_files/1205.got.cif
#   From: 2010.05.17/outbox.cif.g08.bks.cpg/sg41_1_cif.got.tgz:1205.got - 2010.06.03 18:54:24.
