data_PCOD9367277
_publ_section_title
;
Structure prediction by ZEFSAII (Michael W. Deem and Ramdas Pophale) SiO2 
 PCOD9367277
Probable space group: A B A 2
;
_chemical_formula_sum "Si O2"
_cell_formula_units_Z 48
_cell_length_a 5.386788
_cell_length_b 16.529066
_cell_length_c 26.571695
_cell_angle_alpha 90.000000
_cell_angle_beta 90.000000
_cell_angle_gamma 90.000000
_cell_volume 2365.905842
_symmetry_space_group_name_H-M "A B A 2"
_symmetry_group_IT_number 41
_symmetry_cell_setting 'orthorhombic'
loop_
_space_group_symop_operation_xyz
x,y,z
-x,-y,z
1/2-x,y,1/2+z
1/2+x,-y,1/2+z
x,1/2+y,1/2+z
-x,1/2-y,1/2+z
1/2-x,1/2+y,z
1/2+x,1/2-y,z
loop_
_atom_site_type_symbol
_atom_site_label
_atom_site_fract_x
_atom_site_fract_y
_atom_site_fract_z
Si Si1 0.500000 0.000000 0.522220
Si Si2 0.628146 0.086232 0.783087
Si Si3 0.315405 0.071427 0.942045
Si Si4 0.929561 0.801454 0.368028
Si Si5 0.739945 0.696564 0.187421
Si Si6 0.000000 0.000000 0.852418
Si Si7 0.245792 0.954895 0.120833
O O1 0.612526 0.930707 0.486105
O O2 0.297560 0.964067 0.560901
O O3 0.457454 0.140598 0.819359
O O4 0.712985 0.137073 0.735243
O O5 0.500000 0.000000 0.770617
O O6 0.861757 0.063535 0.817652
O O7 0.445523 0.151567 0.921746
O O8 0.500000 0.000000 0.956923
O O9 0.188704 0.041558 0.890513
O O10 0.165300 0.742329 0.365676
O O11 0.495691 0.753082 0.188178
O O12 0.744711 0.636525 0.139694
O O13 0.500000 0.000000 0.135396
O O14 0.000000 0.000000 0.142393
#
# Coordination Sequence:
#
# PCOD9367277 Si02
#       7
#     4   8   8   8   8   4   8
#     4   9  24  40  80  96 132 170 252 291 334 404
#     4  12  25  41  68 100 136 193 242 277 328 415
#     4  11  21  42  67 101 132 183 238 279 337 399
#     4  12  25  41  61  97 147 182 218 276 344 401
#     4  12  28  46  70 106 148 181 220 293 364 417
#     4  11  20  38  68  96 136 172 246 283 308 392
#     4  10  22  47  74 105 126 183 237 292 343 418
#
# _framework density 20.288211
#
# number of rings (size 3 to 8) (size 9 to 14) (size 15 to 20)
#    0.500    0.333    3.333    4.000    5.833    0.000 
#    0.000    1.667    0.000    0.000    0.000    0.000 
#    0.000    0.000    0.000    0.000    0.000    0.000 
#
# Total GULP energy -133999.929285 kJ/mol
# GULP energy per Si atom -5583.330387 kJ/mol
# Density = 2.024203 g / cm^3
# Si number density = 20.288211 Si / 1000 Ang^3
#
#
#
# Elastic Constant Matrix: (Units=GPa)
#
#
# Indices 1 2 3 4 5 6 
#
# 1 123.0587 51.0971 24.8721 0.0000 0.0000 0.0000
# 2 51.0971 108.5908 47.8998 0.0000 0.0000 0.0000
# 3 24.8721 47.8998 105.4088 0.0000 0.0000 0.0000
# 4 0.0000 0.0000 0.0000 2.4323 0.0000 0.0000
# 5 0.0000 0.0000 0.0000 0.0000 24.4109 0.0000
# 6 0.0000 0.0000 0.0000 0.0000 0.0000 51.6152
#
#
#
# Elastic Compliance Matrix: (Units=1/GPa)
#
#
# Indices 1 2 3 4 5 6 
#
# 1 0.010106 -0.004632 -0.000280 0.000000 0.000000 0.000000
# 2 -0.004632 0.013641 -0.005106 0.000000 0.000000 0.000000
# 3 -0.000280 -0.005106 0.011873 0.000000 0.000000 0.000000
# 4 0.000000 0.000000 0.000000 0.411142 0.000000 0.000000
# 5 0.000000 0.000000 0.000000 0.000000 0.040965 0.000000
# 6 0.000000 0.000000 0.000000 0.000000 0.000000 0.019374
#
#
# Mechanical properties :
#
#
# Convention : Reuss Voigt Hill
#
# Bulk Modulus (GPa) = 64.16446 64.97737 64.57091
# Shear Modulus (GPa) = 9.39266 29.90429 19.64848
#
# Velocity S-wave (km/s) = 2.15399 3.84340 3.11540
# Velocity P-wave (km/s) = 6.15478 7.19669 6.69603
#
# Compressibility (1/GPa) = 0.01558495
#
# Stress axis : x y z
#
# Youngs Moduli (GPa) = 98.95049 73.31089 84.22497
#
# Poissons Ratio (x) = 0.33957 0.02356
# Poissons Ratio (y) = 0.45834 0.43002
# Poissons Ratio (z) = 0.02768 0.37429
#
# Static dielectric constant tensor:
#      x y z
#    x 1.761510 0.000000 0.000000 
#    y 0.000000 1.781820 0.000000 
#    z 0.000000 0.000000 1.715220 
# 
# From -- ./inp_files/12396.got.cif
#   From: 2010.05.17/outbox.cif.g08.bks.cpg/sg41_7_cif.got.tgz:12396.got - 2010.06.03 18:54:24.
