data_PCOD9367517
_publ_section_title
;
Structure prediction by ZEFSAII (Michael W. Deem and Ramdas Pophale) SiO2 
 PCOD9367517
Probable space group: A B A 2
;
_chemical_formula_sum "Si O2"
_cell_formula_units_Z 60
_cell_length_a 8.186805
_cell_length_b 10.253487
_cell_length_c 29.280251
_cell_angle_alpha 90.000000
_cell_angle_beta 90.000000
_cell_angle_gamma 90.000000
_cell_volume 2457.880854
_symmetry_space_group_name_H-M "A B A 2"
_symmetry_group_IT_number 41
_symmetry_cell_setting 'orthorhombic'
loop_
_space_group_symop_operation_xyz
x,y,z
-x,-y,z
1/2-x,y,1/2+z
1/2+x,-y,1/2+z
x,1/2+y,1/2+z
-x,1/2-y,1/2+z
1/2-x,1/2+y,z
1/2+x,1/2-y,z
loop_
_atom_site_type_symbol
_atom_site_label
_atom_site_fract_x
_atom_site_fract_y
_atom_site_fract_z
Si Si1 0.736405 0.644222 0.734760
Si Si2 0.972393 0.817231 0.299165
Si Si3 0.500000 0.500000 0.674508
Si Si4 0.149463 0.096110 0.845981
Si Si5 0.208717 0.219037 0.642586
Si Si6 0.412118 0.791771 0.485420
Si Si7 0.489109 0.358705 0.081447
Si Si8 0.270059 0.054335 0.450769
O O1 0.611685 0.700693 0.771208
O O2 0.903647 0.624363 0.761749
O O3 0.652381 0.527592 0.707701
O O4 0.750435 0.751696 0.694717
O O5 0.075928 0.743150 0.338986
O O6 0.820116 0.901366 0.317802
O O7 0.445396 0.621337 0.644001
O O8 0.200913 0.053036 0.896581
O O9 0.000000 0.000000 0.833061
O O10 0.346302 0.167993 0.608925
O O11 0.147212 0.353513 0.620562
O O12 0.431510 0.769161 0.539779
O O13 0.579072 0.859496 0.469717
O O14 0.378090 0.652013 0.462502
O O15 0.282359 0.907893 0.471722
O O16 0.500000 0.500000 0.059882
#
# Coordination Sequence:
#
# PCOD9367517 Si02
#       8
#     8   8   4   8   8   8   8   8
#     4  11  22  46  69 107 149 199 251 308 394 458
#     4  10  24  43  73 109 149 189 260 321 384 463
#     4  12  24  44  80 102 146 208 248 322 382 480
#     4  11  23  44  75 109 149 199 255 327 389 470
#     4  12  25  45  71 108 145 196 251 306 386 459
#     4  11  24  46  73 107 148 199 253 322 384 466
#     4  12  25  44  70 107 148 189 254 317 374 456
#     4  11  23  47  74 105 152 200 253 317 395 465
#
# _framework density 24.411272
#
# number of rings (size 3 to 8) (size 9 to 14) (size 15 to 20)
#    0.000    0.800    5.333    2.400    0.933    0.533 
#    0.000    8.000    0.000    0.000    0.000    0.000 
#    0.000    0.000    0.000    0.000    0.000    0.000 
#
# Total GULP energy -167588.404016 kJ/mol
# GULP energy per Si atom -5586.280134 kJ/mol
# Density = 2.435571 g / cm^3
# Si number density = 24.411272 Si / 1000 Ang^3
#
#
#
# Elastic Constant Matrix: (Units=GPa)
#
#
# Indices 1 2 3 4 5 6 
#
# 1 123.7445 31.8982 49.7365 0.0000 0.0000 0.0000
# 2 31.8982 84.3081 35.6116 0.0000 0.0000 0.0000
# 3 49.7365 35.6116 144.1882 0.0000 0.0000 0.0000
# 4 0.0000 0.0000 0.0000 28.5460 0.0000 0.0000
# 5 0.0000 0.0000 0.0000 0.0000 55.1034 0.0000
# 6 0.0000 0.0000 0.0000 0.0000 0.0000 39.0617
#
#
#
# Elastic Compliance Matrix: (Units=1/GPa)
#
#
# Indices 1 2 3 4 5 6 
#
# 1 0.009853 -0.002559 -0.002767 0.000000 0.000000 0.000000
# 2 -0.002559 0.013908 -0.002552 0.000000 0.000000 0.000000
# 3 -0.002767 -0.002552 0.008520 0.000000 0.000000 0.000000
# 4 0.000000 0.000000 0.000000 0.035031 0.000000 0.000000
# 5 0.000000 0.000000 0.000000 0.000000 0.018148 0.000000
# 6 0.000000 0.000000 0.000000 0.000000 0.000000 0.025601
#
#
# Mechanical properties :
#
#
# Convention : Reuss Voigt Hill
#
# Bulk Modulus (GPa) = 60.51597 65.19259 62.85428
# Shear Modulus (GPa) = 37.78608 40.20852 38.99730
#
# Velocity S-wave (km/s) = 3.93860 4.06289 4.00122
# Velocity P-wave (km/s) = 6.74740 6.98379 6.86661
#
# Compressibility (1/GPa) = 0.01652456
#
# Stress axis : x y z
#
# Youngs Moduli (GPa) = 101.49352 71.90340 117.37083
#
# Poissons Ratio (x) = 0.18402 0.32471
# Poissons Ratio (y) = 0.25975 0.29954
# Poissons Ratio (z) = 0.28079 0.18350
#
# Static dielectric constant tensor:
#      x y z
#    x 1.993040 0.000000 0.000000 
#    y 0.000000 2.081720 0.000000 
#    z 0.000000 0.000000 1.913870 
# 
# From -- ./inp_files/12451.got.cif
#   From: 2010.05.17/outbox.cif.g08.bks.cpg/sg41_7_cif.got.tgz:12451.got - 2010.06.03 18:54:24.
