data_PCOD9367775
_publ_section_title
;
Structure prediction by ZEFSAII (Michael W. Deem and Ramdas Pophale) SiO2 
 PCOD9367775
Probable space group: A B A 2
;
_chemical_formula_sum "Si O2"
_cell_formula_units_Z 44
_cell_length_a 22.063936
_cell_length_b 5.346386
_cell_length_c 17.270565
_cell_angle_alpha 90.000000
_cell_angle_beta 90.000000
_cell_angle_gamma 90.000000
_cell_volume 2037.275890
_symmetry_space_group_name_H-M "A B A 2"
_symmetry_group_IT_number 41
_symmetry_cell_setting 'orthorhombic'
loop_
_space_group_symop_operation_xyz
x,y,z
-x,-y,z
1/2-x,y,1/2+z
1/2+x,-y,1/2+z
x,1/2+y,1/2+z
-x,1/2-y,1/2+z
1/2-x,1/2+y,z
1/2+x,1/2-y,z
loop_
_atom_site_type_symbol
_atom_site_label
_atom_site_fract_x
_atom_site_fract_y
_atom_site_fract_z
Si Si1 0.500000 0.000000 0.829960
Si Si2 0.403828 0.339550 0.893795
Si Si3 0.777102 0.358690 0.233556
Si Si4 0.000000 0.500000 0.105449
Si Si5 0.500000 0.500000 0.005455
Si Si6 0.913815 0.874681 0.737359
Si Si7 0.272505 0.012263 0.416514
O O1 0.446155 0.097894 0.885561
O O2 0.535011 0.192795 0.773549
O O3 0.402875 0.427125 0.805173
O O4 0.335562 0.360057 0.921903
O O5 0.442606 0.517449 0.948816
O O6 0.764606 0.636188 0.200823
O O7 0.846510 0.267466 0.224867
O O8 0.763420 0.415013 0.325134
O O9 0.058505 0.504194 0.161234
O O10 0.003298 0.752481 0.056574
O O11 0.227276 0.797130 0.448854
#
# Coordination Sequence:
#
# PCOD9367775 Si02
#       7
#     4   8   8   4   4   8   8
#     4  12  20  36  64  96 124 162 210 256 306 378
#     4  11  23  39  65  92 126 166 209 260 311 378
#     4   9  20  34  57  90 122 154 201 258 309 357
#     4  12  26  42  61  93 132 166 208 260 322 376
#     4  12  26  42  61  93 132 166 208 260 322 376
#     4  11  23  39  65  92 126 166 209 260 311 378
#     4   9  20  34  57  90 122 154 201 258 309 357
#
# _framework density 21.597469
#
# number of rings (size 3 to 8) (size 9 to 14) (size 15 to 20)
#    0.000    1.455    3.636    1.091   12.727    0.000 
#    0.000    0.000    0.000    6.545    0.000    0.000 
#    0.000    0.000    0.000    0.000    0.000    0.000 
#
# Total GULP energy -122531.551806 kJ/mol
# GULP energy per Si atom -5569.615991 kJ/mol
# Density = 2.154831 g / cm^3
# Si number density = 21.597469 Si / 1000 Ang^3
#
#
#
# Elastic Constant Matrix: (Units=GPa)
#
#
# Indices 1 2 3 4 5 6 
#
# 1 81.6079 19.1841 1.6539 0.0000 0.0000 0.0000
# 2 19.1841 107.0292 4.8411 0.0000 0.0000 0.0000
# 3 1.6539 4.8411 49.5036 0.0000 0.0000 0.0000
# 4 0.0000 0.0000 0.0000 20.6318 0.0000 0.0000
# 5 0.0000 0.0000 0.0000 0.0000 -19.5971 0.0000
# 6 0.0000 0.0000 0.0000 0.0000 0.0000 28.0868
#
#
#
# Elastic Compliance Matrix: (Units=1/GPa)
#
#
# Indices 1 2 3 4 5 6 
#
# 1 0.012795 -0.002284 -0.000204 0.000000 0.000000 0.000000
# 2 -0.002284 0.009793 -0.000881 0.000000 0.000000 0.000000
# 3 -0.000204 -0.000881 0.020294 0.000000 0.000000 0.000000
# 4 0.000000 0.000000 0.000000 0.048469 0.000000 0.000000
# 5 0.000000 0.000000 0.000000 0.000000 -0.051028 0.000000
# 6 0.000000 0.000000 0.000000 0.000000 0.000000 0.035604
#
#
# Mechanical properties :
#
#
# Convention : Reuss Voigt Hill
#
# Bulk Modulus (GPa) = 27.66882 32.16656 29.91769
# Shear Modulus (GPa) = 52.79163 19.98842 36.39002
#
# Velocity S-wave (km/s) = 4.94939 3.04550 4.10923
# Velocity P-wave (km/s) = 6.74544 5.22425 6.03298
#
# Compressibility (1/GPa) = 0.03614176
#
# Stress axis : x y z
#
# Youngs Moduli (GPa) = 78.15680 102.11880 49.27671
#
# Poissons Ratio (x) = 0.23325 0.01006
# Poissons Ratio (y) = 0.17852 0.04343
# Poissons Ratio (z) = 0.01595 0.09000
#
# Static dielectric constant tensor:
#      x y z
#    x 1.913220 0.000000 0.000000 
#    y 0.000000 1.994480 0.000000 
#    z 0.000000 0.000000 1.791220 
# 
# From -- ./inp_files/10728.got.cif
#   From: 2010.05.17/outbox.cif.g08.bks.cpg/sg41_6_cif.got.tgz:10728.got - 2010.06.03 18:54:24.
