data_PCOD9367805
_publ_section_title
;
Structure prediction by ZEFSAII (Michael W. Deem and Ramdas Pophale) SiO2 
 PCOD9367805
Probable space group: A B A 2
;
_chemical_formula_sum "Si O2"
_cell_formula_units_Z 48
_cell_length_a 11.339388
_cell_length_b 16.337903
_cell_length_c 11.701192
_cell_angle_alpha 90.000000
_cell_angle_beta 90.000000
_cell_angle_gamma 90.000000
_cell_volume 2167.784140
_symmetry_space_group_name_H-M "A B A 2"
_symmetry_group_IT_number 41
_symmetry_cell_setting 'orthorhombic'
loop_
_space_group_symop_operation_xyz
x,y,z
-x,-y,z
1/2-x,y,1/2+z
1/2+x,-y,1/2+z
x,1/2+y,1/2+z
-x,1/2-y,1/2+z
1/2-x,1/2+y,z
1/2+x,1/2-y,z
loop_
_atom_site_type_symbol
_atom_site_label
_atom_site_fract_x
_atom_site_fract_y
_atom_site_fract_z
Si Si1 0.527141 0.588704 0.341110
Si Si2 0.073871 0.290986 0.185660
Si Si3 0.935911 0.913419 0.850511
Si Si4 0.208214 0.180499 0.351923
Si Si5 0.967189 0.632495 0.583418
Si Si6 0.719210 0.163296 0.982986
O O1 0.500000 0.500000 0.388452
O O2 0.421319 0.647221 0.382718
O O3 0.523653 0.587898 0.203927
O O4 0.654173 0.620496 0.378307
O O5 0.178730 0.238100 0.243382
O O6 0.131595 0.345898 0.089082
O O7 0.007469 0.342512 0.282588
O O8 0.990485 0.226283 0.120986
O O9 0.798826 0.892788 0.823499
O O10 0.000000 0.000000 0.824042
O O11 0.944643 0.899345 0.986891
O O12 0.260629 0.242217 0.446326
O O13 0.842236 0.626055 0.520940
#
# Coordination Sequence:
#
# PCOD9367805 Si02
#       6
#     8   8   8   8   8   8
#     4  11  27  46  68 108 145 186 234 303 374 419
#     4  11  23  44  71 106 137 191 249 290 356 439
#     4  12  26  44  72 114 145 188 244 308 375 418
#     4  11  23  44  70  99 142 190 240 291 349 445
#     4  11  24  43  74 100 141 193 241 288 360 443
#     4  12  22  43  74  99 138 186 248 288 354 437
#
# _framework density 22.142426
#
# number of rings (size 3 to 8) (size 9 to 14) (size 15 to 20)
#    0.000    0.667    3.333    5.500    2.333    0.667 
#    0.000    0.000    0.000    0.000    0.000    0.000 
#    0.000    0.000    0.000    0.000    0.000    0.000 
#
# Total GULP energy -134126.493743 kJ/mol
# GULP energy per Si atom -5588.603906 kJ/mol
# Density = 2.209203 g / cm^3
# Si number density = 22.142426 Si / 1000 Ang^3
#
#
#
# Elastic Constant Matrix: (Units=GPa)
#
#
# Indices 1 2 3 4 5 6 
#
# 1 97.8276 25.0146 19.4359 0.0000 0.0000 0.0000
# 2 25.0146 83.5607 2.7802 0.0000 0.0000 0.0000
# 3 19.4359 2.7802 74.7628 0.0000 0.0000 0.0000
# 4 0.0000 0.0000 0.0000 12.0768 0.0000 0.0000
# 5 0.0000 0.0000 0.0000 0.0000 18.4886 0.0000
# 6 0.0000 0.0000 0.0000 0.0000 0.0000 16.1525
#
#
#
# Elastic Compliance Matrix: (Units=1/GPa)
#
#
# Indices 1 2 3 4 5 6 
#
# 1 0.011668 -0.003396 -0.002907 0.000000 0.000000 0.000000
# 2 -0.003396 0.012971 0.000401 0.000000 0.000000 0.000000
# 3 -0.002907 0.000401 0.014116 0.000000 0.000000 0.000000
# 4 0.000000 0.000000 0.000000 0.082803 0.000000 0.000000
# 5 0.000000 0.000000 0.000000 0.000000 0.054087 0.000000
# 6 0.000000 0.000000 0.000000 0.000000 0.000000 0.061910
#
#
# Mechanical properties :
#
#
# Convention : Reuss Voigt Hill
#
# Bulk Modulus (GPa) = 37.10591 38.95696 38.03143
# Shear Modulus (GPa) = 19.35403 23.27162 21.31282
#
# Velocity S-wave (km/s) = 2.95967 3.24543 3.10584
# Velocity P-wave (km/s) = 5.33608 5.62812 5.48404
#
# Compressibility (1/GPa) = 0.02694988
#
# Stress axis : x y z
#
# Youngs Moduli (GPa) = 85.70433 77.09687 70.83921
#
# Poissons Ratio (x) = 0.26184 0.20593
# Poissons Ratio (y) = 0.29107 -0.02838
# Poissons Ratio (z) = 0.24914 -0.03088
#
# Static dielectric constant tensor:
#      x y z
#    x 1.836880 0.000000 0.000000 
#    y 0.000000 1.827940 0.000000 
#    z 0.000000 0.000000 1.792530 
# 
# From -- ./inp_files/4965.got.cif
#   From: 2010.05.17/outbox.cif.g08.bks.cpg/sg41_3_cif.got.tgz:4965.got - 2010.06.03 18:54:24.
