data_PCOD9367576
_publ_section_title
;
Structure prediction by ZEFSAII (Michael W. Deem and Ramdas Pophale) SiO2 
 PCOD9367576
Probable space group: A B A 2
;
_chemical_formula_sum "Si O2"
_cell_formula_units_Z 48
_cell_length_a 7.738468
_cell_length_b 26.137786
_cell_length_c 8.907963
_cell_angle_alpha 90.000000
_cell_angle_beta 90.000000
_cell_angle_gamma 90.000000
_cell_volume 1801.781790
_symmetry_space_group_name_H-M "A B A 2"
_symmetry_group_IT_number 41
_symmetry_cell_setting 'orthorhombic'
loop_
_space_group_symop_operation_xyz
x,y,z
-x,-y,z
1/2-x,y,1/2+z
1/2+x,-y,1/2+z
x,1/2+y,1/2+z
-x,1/2-y,1/2+z
1/2-x,1/2+y,z
1/2+x,1/2-y,z
loop_
_atom_site_type_symbol
_atom_site_label
_atom_site_fract_x
_atom_site_fract_y
_atom_site_fract_z
Si Si1 0.841159 0.693538 0.385200
Si Si2 0.944400 0.078027 0.891290
Si Si3 0.154164 0.068573 0.410554
Si Si4 0.045397 0.176276 0.438374
Si Si5 0.500000 0.000000 0.648331
Si Si6 0.000000 0.500000 0.147637
Si Si7 0.863544 0.280268 0.629413
O O1 0.858382 0.632753 0.366161
O O2 0.982817 0.708038 0.510871
O O3 0.863366 0.728451 0.235620
O O4 0.855679 0.701654 0.940209
O O5 0.150945 0.087636 0.893697
O O6 0.907597 0.040658 0.753877
O O7 0.913751 0.042449 0.036348
O O8 0.037791 0.116056 0.464262
O O9 0.134213 0.028303 0.542562
O O10 0.095183 0.038813 0.263316
O O11 0.109411 0.180154 0.266842
O O12 0.187072 0.202590 0.545877
#
# Coordination Sequence:
#
# PCOD9367576 Si02
#       7
#     8   8   8   8   4   4   8
#     4  12  32  58  94 130 177 244 305 378 469 543
#     4  11  24  50  83 124 175 227 293 366 439 534
#     4  11  24  48  83 124 174 232 287 366 439 530
#     4  12  32  56  93 126 180 239 301 379 466 541
#     4  10  24  46  80 126 180 230 284 360 444 538
#     4  10  26  42  82 126 180 232 284 358 444 532
#     4  12  33  58  86 135 176 233 310 387 448 548
#
# _framework density 26.640295999999999
#
# number of rings (size 3 to 8) (size 9 to 14) (size 15 to 20)
#    0.000    0.667    1.667    2.000    7.000   13.333 
#    0.000    0.000    0.000    0.000    0.000    0.000 
#    0.000    0.000    0.000    0.000    0.000    0.000 
#
# Total GULP energy -134507.394887 kJ/mol
# GULP energy per Si atom -5604.474787 kJ/mol
# Density = 2.657966 g / cm^3
# Si number density = 26.640296 Si / 1000 Ang^3
#
#
#
# Elastic Constant Matrix: (Units=GPa)
#
#
# Indices 1 2 3 4 5 6 
#
# 1 172.5687 55.2265 79.0730 0.0000 0.0000 0.0000
# 2 55.2265 212.0465 77.2964 0.0000 0.0000 0.0000
# 3 79.0730 77.2964 236.2190 0.0000 0.0000 0.0000
# 4 0.0000 0.0000 0.0000 26.6121 0.0000 0.0000
# 5 0.0000 0.0000 0.0000 0.0000 49.0818 0.0000
# 6 0.0000 0.0000 0.0000 0.0000 0.0000 63.1499
#
#
#
# Elastic Compliance Matrix: (Units=1/GPa)
#
#
# Indices 1 2 3 4 5 6 
#
# 1 0.007068 -0.001111 -0.002002 0.000000 0.000000 0.000000
# 2 -0.001111 0.005529 -0.001437 0.000000 0.000000 0.000000
# 3 -0.002002 -0.001437 0.005374 0.000000 0.000000 0.000000
# 4 0.000000 0.000000 0.000000 0.037577 0.000000 0.000000
# 5 0.000000 0.000000 0.000000 0.000000 0.020374 0.000000
# 6 0.000000 0.000000 0.000000 0.000000 0.000000 0.015835
#
#
# Mechanical properties :
#
#
# Convention : Reuss Voigt Hill
#
# Bulk Modulus (GPa) = 112.74382 116.00289 114.37336
# Shear Modulus (GPa) = 48.16241 55.05132 51.60686
#
# Velocity S-wave (km/s) = 4.25653 4.55077 4.40611
# Velocity P-wave (km/s) = 8.15905 8.44105 8.30125
#
# Compressibility (1/GPa) = 0.00886967
#
# Stress axis : x y z
#
# Youngs Moduli (GPa) = 141.48626 180.85634 186.08026
#
# Poissons Ratio (x) = 0.20090 0.37261
# Poissons Ratio (y) = 0.15717 0.26748
# Poissons Ratio (z) = 0.28331 0.25997
#
# Static dielectric constant tensor:
#      x y z
#    x 2.495180 0.000000 0.000000 
#    y 0.000000 2.080980 0.000000 
#    z 0.000000 0.000000 2.046450 
# 
# From -- ./inp_files/2135.got.cif
#   From: 2010.05.17/outbox.cif.g08.bks.cpg/sg41_2_cif.got.tgz:2135.got - 2010.06.03 18:54:24.
