data_PCOD9367793
_publ_section_title
;
Structure prediction by ZEFSAII (Michael W. Deem and Ramdas Pophale) SiO2 
 PCOD9367793
Probable space group: A B A 2
;
_chemical_formula_sum "Si O2"
_cell_formula_units_Z 48
_cell_length_a 9.264771
_cell_length_b 23.805010
_cell_length_c 9.887662
_cell_angle_alpha 90.000000
_cell_angle_beta 90.000000
_cell_angle_gamma 90.000000
_cell_volume 2180.703746
_symmetry_space_group_name_H-M "A B A 2"
_symmetry_group_IT_number 41
_symmetry_cell_setting 'orthorhombic'
loop_
_space_group_symop_operation_xyz
x,y,z
-x,-y,z
1/2-x,y,1/2+z
1/2+x,-y,1/2+z
x,1/2+y,1/2+z
-x,1/2-y,1/2+z
1/2-x,1/2+y,z
1/2+x,1/2-y,z
loop_
_atom_site_type_symbol
_atom_site_label
_atom_site_fract_x
_atom_site_fract_y
_atom_site_fract_z
Si Si1 0.791126 0.200712 0.965980
Si Si2 0.836438 0.980377 0.552522
Si Si3 0.821127 0.864085 0.720820
Si Si4 0.130550 0.182551 0.008761
Si Si5 0.343856 0.470362 0.811626
Si Si6 0.864016 0.152985 0.705713
O O1 0.720985 0.260391 0.996953
O O2 0.776531 0.193511 0.804669
O O3 0.961416 0.195149 0.995699
O O4 0.709642 0.154736 0.059606
O O5 0.842118 0.921192 0.632347
O O6 0.746702 0.996042 0.421571
O O7 0.768356 0.019195 0.668293
O O8 0.000000 0.000000 0.525542
O O9 0.820449 0.859243 0.884620
O O10 0.675273 0.841173 0.654793
O O11 0.968652 0.830374 0.687133
O O12 0.500000 0.500000 0.813964
O O13 0.367273 0.403657 0.798817
#
# Coordination Sequence:
#
# PCOD9367793 Si02
#       6
#     8   8   8   8   8   8
#     4  11  25  43  69  99 136 176 225 281 340 407
#     4  11  23  43  66  97 136 179 224 281 334 399
#     4  11  23  43  68  98 134 178 226 275 339 401
#     4  11  25  44  68 101 133 180 224 282 341 408
#     4  11  23  44  67  97 138 177 225 280 335 397
#     4  11  23  43  68  98 135 178 224 277 337 404
#
# _framework density 22.011244000000001
#
# number of rings (size 3 to 8) (size 9 to 14) (size 15 to 20)
#    0.000    1.000    3.333    4.000    2.333    6.000 
#    3.000    0.000    0.000    0.000    0.000    0.000 
#    0.000    0.000    0.000    0.000    0.000    0.000 
#
# Total GULP energy -133667.592290 kJ/mol
# GULP energy per Si atom -5569.483012 kJ/mol
# Density = 2.196115 g / cm^3
# Si number density = 22.011244 Si / 1000 Ang^3
#
#
#
# Elastic Constant Matrix: (Units=GPa)
#
#
# Indices 1 2 3 4 5 6 
#
# 1 71.3538 8.5407 47.2749 0.0000 0.0000 0.0000
# 2 8.5407 61.7898 -8.1092 0.0000 0.0000 0.0000
# 3 47.2749 -8.1092 98.0167 0.0000 0.0000 0.0000
# 4 0.0000 0.0000 0.0000 30.9023 0.0000 0.0000
# 5 0.0000 0.0000 0.0000 0.0000 41.7214 0.0000
# 6 0.0000 0.0000 0.0000 0.0000 0.0000 19.8818
#
#
#
# Elastic Compliance Matrix: (Units=1/GPa)
#
#
# Indices 1 2 3 4 5 6 
#
# 1 0.021732 -0.004427 -0.010848 0.000000 0.000000 0.000000
# 2 -0.004427 0.017264 0.003564 0.000000 0.000000 0.000000
# 3 -0.010848 0.003564 0.015729 0.000000 0.000000 0.000000
# 4 0.000000 0.000000 0.000000 0.032360 0.000000 0.000000
# 5 0.000000 0.000000 0.000000 0.000000 0.023969 0.000000
# 6 0.000000 0.000000 0.000000 0.000000 0.000000 0.050297
#
#
# Mechanical properties :
#
#
# Convention : Reuss Voigt Hill
#
# Bulk Modulus (GPa) = 31.94749 36.28589 34.11669
# Shear Modulus (GPa) = 25.61377 30.73135 28.17256
#
# Velocity S-wave (km/s) = 3.41496 3.74058 3.58147
# Velocity P-wave (km/s) = 5.48588 5.93101 5.71279
#
# Compressibility (1/GPa) = 0.03130136
#
# Stress axis : x y z
#
# Youngs Moduli (GPa) = 46.01555 57.92544 63.57579
#
# Poissons Ratio (x) = 0.25646 0.68966
# Poissons Ratio (y) = 0.20373 -0.22656
# Poissons Ratio (z) = 0.49917 -0.20643
#
# Static dielectric constant tensor:
#      x y z
#    x 1.773320 0.000000 0.000000 
#    y 0.000000 1.933850 0.000000 
#    z 0.000000 0.000000 1.812810 
# 
# From -- ./inp_files/1802.got.cif
#   From: 2010.05.17/outbox.cif.g08.bks.cpg/sg41_1_cif.got.tgz:1802.got - 2010.06.03 18:54:24.
