data_PCOD9367991
_publ_section_title
;
Structure prediction by ZEFSAII (Michael W. Deem and Ramdas Pophale) SiO2 
 PCOD9367991
Probable space group: A B A 2
;
_chemical_formula_sum "Si O2"
_cell_formula_units_Z 36
_cell_length_a 14.819774
_cell_length_b 17.996767
_cell_length_c 5.459386
_cell_angle_alpha 90.000000
_cell_angle_beta 90.000000
_cell_angle_gamma 90.000000
_cell_volume 1456.062029
_symmetry_space_group_name_H-M "A B A 2"
_symmetry_group_IT_number 41
_symmetry_cell_setting 'orthorhombic'
loop_
_space_group_symop_operation_xyz
x,y,z
-x,-y,z
1/2-x,y,1/2+z
1/2+x,-y,1/2+z
x,1/2+y,1/2+z
-x,1/2-y,1/2+z
1/2-x,1/2+y,z
1/2+x,1/2-y,z
loop_
_atom_site_type_symbol
_atom_site_label
_atom_site_fract_x
_atom_site_fract_y
_atom_site_fract_z
Si Si1 0.202158 0.949039 0.043150
Si Si2 0.872374 0.399353 0.464909
Si Si3 0.000000 0.000000 0.629771
Si Si4 0.305081 0.758211 0.831977
Si Si5 0.545806 0.124303 0.756996
O O1 0.247149 0.926046 0.298478
O O2 0.104436 0.910595 0.036430
O O3 0.194000 0.038124 0.068587
O O4 0.826462 0.329450 0.340640
O O5 0.942945 0.368742 0.668780
O O6 0.930451 0.449539 0.278558
O O7 0.050115 0.940815 0.456824
O O8 0.252436 0.774180 0.578048
O O9 0.400267 0.802566 0.835250
#
# Coordination Sequence:
#
# PCOD9367991 Si02
#       5
#     8   8   4   8   8
#     4  12  24  44  73 109 152 196 246 314 380 452
#     4  12  27  48  78 114 154 207 266 321 387 472
#     4  12  24  48  80 116 152 196 270 318 386 446
#     4  12  32  54  78 116 162 210 258 326 406 468
#     4  12  27  48  78 114 154 207 266 321 387 472
#
# _framework density 24.724219999999999
#
# number of rings (size 3 to 8) (size 9 to 14) (size 15 to 20)
#    0.000    0.000    4.444    4.000    9.333    0.000 
#    0.000    0.000    0.000    0.000    0.000    0.000 
#    0.000    0.000    0.000    0.000    0.000    0.000 
#
# Total GULP energy -100888.282323 kJ/mol
# GULP energy per Si atom -5604.904573 kJ/mol
# Density = 2.466795 g / cm^3
# Si number density = 24.724220 Si / 1000 Ang^3
#
#
#
# Elastic Constant Matrix: (Units=GPa)
#
#
# Indices 1 2 3 4 5 6 
#
# 1 40.7150 0.8127 47.2418 0.0000 0.0000 0.0000
# 2 0.8127 123.6938 26.9788 0.0000 0.0000 0.0000
# 3 47.2418 26.9788 148.4067 0.0000 0.0000 0.0000
# 4 0.0000 0.0000 0.0000 39.3592 0.0000 0.0000
# 5 0.0000 0.0000 0.0000 0.0000 43.4317 0.0000
# 6 0.0000 0.0000 0.0000 0.0000 0.0000 59.7565
#
#
#
# Elastic Compliance Matrix: (Units=1/GPa)
#
#
# Indices 1 2 3 4 5 6 
#
# 1 0.039733 0.002601 -0.013121 0.000000 0.000000 0.000000
# 2 0.002601 0.008588 -0.002389 0.000000 0.000000 0.000000
# 3 -0.013121 -0.002389 0.011349 0.000000 0.000000 0.000000
# 4 0.000000 0.000000 0.000000 0.025407 0.000000 0.000000
# 5 0.000000 0.000000 0.000000 0.000000 0.023025 0.000000
# 6 0.000000 0.000000 0.000000 0.000000 0.000000 0.016735
#
#
# Mechanical properties :
#
#
# Convention : Reuss Voigt Hill
#
# Bulk Modulus (GPa) = 29.54004 51.43137 40.48570
# Shear Modulus (GPa) = 30.87553 44.36163 37.61858
#
# Velocity S-wave (km/s) = 3.53767 4.24046 3.90491
# Velocity P-wave (km/s) = 5.35355 6.69496 6.06148
#
# Compressibility (1/GPa) = 0.03385236
#
# Stress axis : x y z
#
# Youngs Moduli (GPa) = 25.16773 116.43478 88.11084
#
# Poissons Ratio (x) = -0.30282 1.15610
# Poissons Ratio (y) = -0.06545 0.21051
# Poissons Ratio (z) = 0.33023 0.27818
#
# Static dielectric constant tensor:
#      x y z
#    x 2.017980 0.000000 0.000000 
#    y 0.000000 1.965080 0.000000 
#    z 0.000000 0.000000 1.969890 
# 
# From -- ./inp_files/192.got.cif
#   From: 2010.05.17/outbox.cif.g08.bks.cpg/sg41_1_cif.got.tgz:192.got - 2010.06.03 18:54:24.
