data_PCOD9367569
_publ_section_title
;
Structure prediction by ZEFSAII (Michael W. Deem and Ramdas Pophale) SiO2 
 PCOD9367569
Probable space group: A B A 2
;
_chemical_formula_sum "Si O2"
_cell_formula_units_Z 40
_cell_length_a 17.505367
_cell_length_b 7.484811
_cell_length_c 12.308515
_cell_angle_alpha 90.000000
_cell_angle_beta 90.000000
_cell_angle_gamma 90.000000
_cell_volume 1612.715343
_symmetry_space_group_name_H-M "A B A 2"
_symmetry_group_IT_number 41
_symmetry_cell_setting 'orthorhombic'
loop_
_space_group_symop_operation_xyz
x,y,z
-x,-y,z
1/2-x,y,1/2+z
1/2+x,-y,1/2+z
x,1/2+y,1/2+z
-x,1/2-y,1/2+z
1/2-x,1/2+y,z
1/2+x,1/2-y,z
loop_
_atom_site_type_symbol
_atom_site_label
_atom_site_fract_x
_atom_site_fract_y
_atom_site_fract_z
Si Si1 0.854419 0.383300 0.160110
Si Si2 0.189791 0.226616 0.105406
Si Si3 0.470023 0.705130 0.492891
Si Si4 0.378020 0.179690 0.394360
Si Si5 0.911808 0.446997 0.789135
O O1 0.840521 0.570792 0.099649
O O2 0.774656 0.280217 0.152254
O O3 0.920081 0.270056 0.099978
O O4 0.875712 0.430076 0.283702
O O5 0.134586 0.123339 0.187679
O O6 0.185999 0.146374 0.984144
O O7 0.500000 0.500000 0.503893
O O8 0.456846 0.676886 0.962881
O O9 0.417647 0.698697 0.385724
O O10 0.373837 0.379055 0.343295
O O11 0.000000 0.500000 0.763942
#
# Coordination Sequence:
#
# PCOD9367569 Si02
#       5
#     8   8   8   8   8
#     4  12  26  45  75 105 147 191 240 297 368 435
#     4  12  26  46  71 106 150 189 240 300 367 432
#     4   9  20  44  74  94 140 181 234 297 346 414
#     4  10  24  46  72 104 137 192 237 298 361 419
#     4   9  21  46  72  99 144 183 237 303 348 418
#
# _framework density 24.802889
#
# number of rings (size 3 to 8) (size 9 to 14) (size 15 to 20)
#    0.000    2.000    4.000    1.200    8.400    1.600 
#    3.600    1.000    0.000    0.000    0.000    0.000 
#    0.000    0.000    0.000    0.000    0.000    0.000 
#
# Total GULP energy -111927.187518 kJ/mol
# GULP energy per Si atom -5596.359376 kJ/mol
# Density = 2.474644 g / cm^3
# Si number density = 24.802889 Si / 1000 Ang^3
#
#
#
# Elastic Constant Matrix: (Units=GPa)
#
#
# Indices 1 2 3 4 5 6 
#
# 1 111.8810 11.3952 82.0726 0.0000 0.0000 0.0000
# 2 11.3952 37.2942 10.9485 0.0000 0.0000 0.0000
# 3 82.0726 10.9485 173.7144 0.0000 0.0000 0.0000
# 4 0.0000 0.0000 0.0000 28.8658 0.0000 0.0000
# 5 0.0000 0.0000 0.0000 0.0000 38.3209 0.0000
# 6 0.0000 0.0000 0.0000 0.0000 0.0000 17.6492
#
#
#
# Elastic Compliance Matrix: (Units=1/GPa)
#
#
# Indices 1 2 3 4 5 6 
#
# 1 0.013880 -0.002359 -0.006409 0.000000 0.000000 0.000000
# 2 -0.002359 0.027720 -0.000632 0.000000 0.000000 0.000000
# 3 -0.006409 -0.000632 0.008824 0.000000 0.000000 0.000000
# 4 0.000000 0.000000 0.000000 0.034643 0.000000 0.000000
# 5 0.000000 0.000000 0.000000 0.000000 0.026095 0.000000
# 6 0.000000 0.000000 0.000000 0.000000 0.000000 0.056660
#
#
# Mechanical properties :
#
#
# Convention : Reuss Voigt Hill
#
# Bulk Modulus (GPa) = 31.62247 59.08023 45.35135
# Shear Modulus (GPa) = 25.35946 31.53208 28.44577
#
# Velocity S-wave (km/s) = 3.20103 3.56941 3.39023
# Velocity P-wave (km/s) = 5.14192 6.39212 5.80080
#
# Compressibility (1/GPa) = 0.03162308
#
# Stress axis : x y z
#
# Youngs Moduli (GPa) = 72.04748 36.07455 113.32287
#
# Poissons Ratio (x) = 0.08512 0.72627
# Poissons Ratio (y) = 0.16999 0.07166
# Poissons Ratio (z) = 0.46174 0.02281
#
# Static dielectric constant tensor:
#      x y z
#    x 1.949300 0.000000 0.000000 
#    y 0.000000 2.010640 0.000000 
#    z 0.000000 0.000000 1.969600 
# 
# From -- ./inp_files/6149.got.cif
#   From: 2010.05.17/outbox.cif.g08.bks.cpg/sg41_4_cif.got.tgz:6149.got - 2010.06.03 18:54:24.
