data_PCOD9367433
_publ_section_title
;
Structure prediction by ZEFSAII (Michael W. Deem and Ramdas Pophale) SiO2 
 PCOD9367433
Probable space group: A B A 2
;
_chemical_formula_sum "Si O2"
_cell_formula_units_Z 40
_cell_length_a 8.367488
_cell_length_b 13.523949
_cell_length_c 13.864696
_cell_angle_alpha 90.000000
_cell_angle_beta 90.000000
_cell_angle_gamma 90.000000
_cell_volume 1568.949533
_symmetry_space_group_name_H-M "A B A 2"
_symmetry_group_IT_number 41
_symmetry_cell_setting 'orthorhombic'
loop_
_space_group_symop_operation_xyz
x,y,z
-x,-y,z
1/2-x,y,1/2+z
1/2+x,-y,1/2+z
x,1/2+y,1/2+z
-x,1/2-y,1/2+z
1/2-x,1/2+y,z
1/2+x,1/2-y,z
loop_
_atom_site_type_symbol
_atom_site_label
_atom_site_fract_x
_atom_site_fract_y
_atom_site_fract_z
Si Si1 0.106229 0.810743 0.966840
Si Si2 0.065939 0.610132 0.069026
Si Si3 0.743047 0.145248 0.667382
Si Si4 0.679914 0.783500 0.334730
Si Si5 0.172771 0.551480 0.718227
O O1 0.262471 0.806701 0.901690
O O2 0.960827 0.834781 0.895458
O O3 0.096059 0.693480 0.990779
O O4 0.139394 0.864857 0.068010
O O5 0.235404 0.595192 0.124336
O O6 0.000000 0.500000 0.042958
O O7 0.922105 0.661707 0.129683
O O8 0.657077 0.225694 0.733605
O O9 0.772466 0.048257 0.731860
O O10 0.805224 0.867747 0.300541
O O11 0.000000 0.500000 0.708267
#
# Coordination Sequence:
#
# PCOD9367433 Si02
#       5
#     8   8   8   8   8
#     4  12  25  44  77 111 157 213 274 344 418 501
#     4  10  23  46  73 107 154 212 269 341 416 493
#     4  11  25  49  74 108 162 211 267 351 421 493
#     4  12  26  44  77 115 155 210 279 336 419 507
#     4  11  25  45  79 110 157 211 264 340 416 498
#
# _framework density 25.494762999999999
#
# number of rings (size 3 to 8) (size 9 to 14) (size 15 to 20)
#    0.000    0.800    4.000    2.400    5.600    2.400 
#    0.000    0.000    0.000    0.000    0.000    0.000 
#    0.000    0.000    0.000    0.000    0.000    0.000 
#
# Total GULP energy -111384.515193 kJ/mol
# GULP energy per Si atom -5569.225760 kJ/mol
# Density = 2.543674 g / cm^3
# Si number density = 25.494763 Si / 1000 Ang^3
#
#
#
# Elastic Constant Matrix: (Units=GPa)
#
#
# Indices 1 2 3 4 5 6 
#
# 1 108.7286 -11.5575 37.0445 0.0000 0.0000 0.0000
# 2 -11.5575 75.7148 43.4020 0.0000 0.0000 0.0000
# 3 37.0445 43.4020 111.8766 0.0000 0.0000 0.0000
# 4 0.0000 0.0000 0.0000 36.5729 0.0000 0.0000
# 5 0.0000 0.0000 0.0000 0.0000 31.3424 0.0000
# 6 0.0000 0.0000 0.0000 0.0000 0.0000 32.5093
#
#
#
# Elastic Compliance Matrix: (Units=1/GPa)
#
#
# Indices 1 2 3 4 5 6 
#
# 1 0.011759 0.005178 -0.005902 0.000000 0.000000 0.000000
# 2 0.005178 0.019265 -0.009188 0.000000 0.000000 0.000000
# 3 -0.005902 -0.009188 0.014457 0.000000 0.000000 0.000000
# 4 0.000000 0.000000 0.000000 0.027343 0.000000 0.000000
# 5 0.000000 0.000000 0.000000 0.000000 0.031906 0.000000
# 6 0.000000 0.000000 0.000000 0.000000 0.000000 0.030760
#
#
# Mechanical properties :
#
#
# Convention : Reuss Voigt Hill
#
# Bulk Modulus (GPa) = 38.97712 48.23312 43.60512
# Shear Modulus (GPa) = 30.51259 35.24700 32.87980
#
# Velocity S-wave (km/s) = 3.46326 3.72226 3.59509
# Velocity P-wave (km/s) = 5.59586 6.11829 5.86290
#
# Compressibility (1/GPa) = 0.02565608
#
# Stress axis : x y z
#
# Youngs Moduli (GPa) = 85.04373 51.90763 69.16855
#
# Poissons Ratio (x) = -0.26880 0.40826
# Poissons Ratio (y) = -0.44039 0.63555
# Poissons Ratio (z) = 0.50197 0.47695
#
# Static dielectric constant tensor:
#      x y z
#    x 2.360760 0.000000 0.000000 
#    y 0.000000 2.086790 0.000000 
#    z 0.000000 0.000000 2.144910 
# 
# From -- ./inp_files/7194.got.cif
#   From: 2010.05.17/outbox.cif.g08.bks.cpg/sg41_4_cif.got.tgz:7194.got - 2010.06.03 18:54:24.
