data_PCOD9367665
_publ_section_title
;
Structure prediction by ZEFSAII (Michael W. Deem and Ramdas Pophale) SiO2 
 PCOD9367665
Probable space group: A B A 2
;
_chemical_formula_sum "Si O2"
_cell_formula_units_Z 36
_cell_length_a 8.458097
_cell_length_b 9.614134
_cell_length_c 19.429638
_cell_angle_alpha 90.000000
_cell_angle_beta 90.000000
_cell_angle_gamma 90.000000
_cell_volume 1579.965274
_symmetry_space_group_name_H-M "A B A 2"
_symmetry_group_IT_number 41
_symmetry_cell_setting 'orthorhombic'
loop_
_space_group_symop_operation_xyz
x,y,z
-x,-y,z
1/2-x,y,1/2+z
1/2+x,-y,1/2+z
x,1/2+y,1/2+z
-x,1/2-y,1/2+z
1/2-x,1/2+y,z
1/2+x,1/2-y,z
loop_
_atom_site_type_symbol
_atom_site_label
_atom_site_fract_x
_atom_site_fract_y
_atom_site_fract_z
Si Si1 0.600878 0.632456 0.950540
Si Si2 0.000000 0.500000 0.585496
Si Si3 0.260275 0.065466 0.198589
Si Si4 0.067274 0.852828 0.374348
Si Si5 0.047593 0.307156 0.248181
O O1 0.500000 0.500000 0.922975
O O2 0.541791 0.785434 0.932598
O O3 0.766606 0.623931 0.911485
O O4 0.571192 0.613240 0.031986
O O5 0.152631 0.529721 0.633183
O O6 0.144114 0.168172 0.237725
O O7 0.421307 0.154514 0.188793
O O8 0.326103 0.934215 0.243139
O O9 0.054190 0.732152 0.315820
O O10 0.000000 0.000000 0.350526
#
# Coordination Sequence:
#
# PCOD9367665 Si02
#       5
#     8   4   8   8   8
#     4  10  26  49  74 113 152 209 259 321 403 472
#     4  10  26  50  78 108 162 210 274 312 392 498
#     4  11  25  49  73 118 158 209 262 328 405 479
#     4  12  26  47  79 115 156 198 266 335 402 480
#     4  11  27  44  82 114 157 205 260 337 414 471
#
# _framework density 22.785309000000002
#
# number of rings (size 3 to 8) (size 9 to 14) (size 15 to 20)
#    0.667    0.444    0.000    4.000   10.889    3.556 
#    4.000    0.000    0.000    0.000    0.000    0.000 
#    0.000    0.000    0.000    0.000    0.000    0.000 
#
# Total GULP energy -100243.631580 kJ/mol
# GULP energy per Si atom -5569.090643 kJ/mol
# Density = 2.273345 g / cm^3
# Si number density = 22.785309 Si / 1000 Ang^3
#
#
#
# Elastic Constant Matrix: (Units=GPa)
#
#
# Indices 1 2 3 4 5 6 
#
# 1 157.8388 72.2741 70.6192 0.0000 0.0000 0.0000
# 2 72.2741 135.7108 67.6914 0.0000 0.0000 0.0000
# 3 70.6192 67.6914 106.9815 0.0000 0.0000 0.0000
# 4 0.0000 0.0000 0.0000 -53.0844 0.0000 0.0000
# 5 0.0000 0.0000 0.0000 0.0000 34.8866 0.0000
# 6 0.0000 0.0000 0.0000 0.0000 0.0000 51.0137
#
#
#
# Elastic Compliance Matrix: (Units=1/GPa)
#
#
# Indices 1 2 3 4 5 6 
#
# 1 0.009706 -0.002883 -0.004583 0.000000 0.000000 0.000000
# 2 -0.002883 0.011623 -0.005451 0.000000 0.000000 0.000000
# 3 -0.004583 -0.005451 0.015822 0.000000 0.000000 0.000000
# 4 0.000000 0.000000 0.000000 -0.018838 0.000000 0.000000
# 5 0.000000 0.000000 0.000000 0.000000 0.028664 0.000000
# 6 0.000000 0.000000 0.000000 0.000000 0.000000 0.019603
#
#
# Mechanical properties :
#
#
# Convention : Reuss Voigt Hill
#
# Bulk Modulus (GPa) = 88.36549 91.30006 89.83278
# Shear Modulus (GPa) = 51.98231 19.22627 35.60429
#
# Velocity S-wave (km/s) = 4.78158 2.90798 3.95726
# Velocity P-wave (km/s) = 8.32770 7.17160 7.77118
#
# Compressibility (1/GPa) = 0.01131663
#
# Stress axis : x y z
#
# Youngs Moduli (GPa) = 103.02666 86.03549 63.20443
#
# Poissons Ratio (x) = 0.24807 0.28965
# Poissons Ratio (y) = 0.29706 0.34453
# Poissons Ratio (z) = 0.47215 0.46899
#
# Static dielectric constant tensor:
#      x y z
#    x 1.793910 0.000000 0.000000 
#    y 0.000000 1.894890 0.000000 
#    z 0.000000 0.000000 1.971170 
# 
# From -- ./inp_files/11091.got.cif
#   From: 2010.05.17/outbox.cif.g08.bks.cpg/sg41_6_cif.got.tgz:11091.got - 2010.06.03 18:54:24.
