data_PCOD9367089
_publ_section_title
;
Structure prediction by ZEFSAII (Michael W. Deem and Ramdas Pophale) SiO2 
 PCOD9367089
Probable space group: A B A 2
;
_chemical_formula_sum "Si O2"
_cell_formula_units_Z 40
_cell_length_a 8.542749
_cell_length_b 21.913439
_cell_length_c 8.246126
_cell_angle_alpha 90.000000
_cell_angle_beta 90.000000
_cell_angle_gamma 90.000000
_cell_volume 1543.683108
_symmetry_space_group_name_H-M "A B A 2"
_symmetry_group_IT_number 41
_symmetry_cell_setting 'orthorhombic'
loop_
_space_group_symop_operation_xyz
x,y,z
-x,-y,z
1/2-x,y,1/2+z
1/2+x,-y,1/2+z
x,1/2+y,1/2+z
-x,1/2-y,1/2+z
1/2-x,1/2+y,z
1/2+x,1/2-y,z
loop_
_atom_site_type_symbol
_atom_site_label
_atom_site_fract_x
_atom_site_fract_y
_atom_site_fract_z
Si Si1 0.676670 0.218953 0.954160
Si Si2 0.570906 0.597663 0.578443
Si Si3 0.347618 0.472679 0.885515
Si Si4 0.487572 0.316692 0.113387
Si Si5 0.896043 0.939689 0.283757
O O1 0.589996 0.169260 0.065213
O O2 0.598562 0.210323 0.776296
O O3 0.639280 0.282878 0.040243
O O4 0.856212 0.197354 0.975525
O O5 0.586802 0.575477 0.758487
O O6 0.717657 0.562472 0.490141
O O7 0.422104 0.582874 0.468807
O O8 0.500000 0.500000 0.970474
O O9 0.273160 0.529268 0.784577
O O10 0.541934 0.384776 0.169705
O O11 0.000000 0.000000 0.277533
#
# Coordination Sequence:
#
# PCOD9367089 Si02
#       5
#     8   8   8   8   8
#     4  11  23  43  65  96 130 179 227 279 341 406
#     4  10  22  41  62  90 134 172 213 269 331 402
#     4  11  22  38  65  98 131 171 220 273 331 396
#     4  11  24  43  70  96 136 179 230 285 342 408
#     4   9  20  41  65  94 132 169 212 272 334 400
#
# _framework density 25.912054000000001
#
# number of rings (size 3 to 8) (size 9 to 14) (size 15 to 20)
#    0.000    1.600    0.000    6.600    0.000    5.600 
#    0.000    8.000    0.000    0.000    0.000    0.000 
#    0.000    0.000    0.000    0.000    0.000    0.000 
#
# Total GULP energy -111708.779319 kJ/mol
# GULP energy per Si atom -5585.438966 kJ/mol
# Density = 2.585308 g / cm^3
# Si number density = 25.912054 Si / 1000 Ang^3
#
#
#
# Elastic Constant Matrix: (Units=GPa)
#
#
# Indices 1 2 3 4 5 6 
#
# 1 55.4815 18.3167 -17.5868 0.0000 0.0000 0.0000
# 2 18.3167 134.3857 10.7311 0.0000 0.0000 0.0000
# 3 -17.5868 10.7311 66.2270 0.0000 0.0000 0.0000
# 4 0.0000 0.0000 0.0000 43.6342 0.0000 0.0000
# 5 0.0000 0.0000 0.0000 0.0000 23.1388 0.0000
# 6 0.0000 0.0000 0.0000 0.0000 0.0000 16.7320
#
#
#
# Elastic Compliance Matrix: (Units=1/GPa)
#
#
# Indices 1 2 3 4 5 6 
#
# 1 0.021082 -0.003364 0.006143 0.000000 0.000000 0.000000
# 2 -0.003364 0.008076 -0.002202 0.000000 0.000000 0.000000
# 3 0.006143 -0.002202 0.017088 0.000000 0.000000 0.000000
# 4 0.000000 0.000000 0.000000 0.022918 0.000000 0.000000
# 5 0.000000 0.000000 0.000000 0.000000 0.043217 0.000000
# 6 0.000000 0.000000 0.000000 0.000000 0.000000 0.059766
#
#
# Mechanical properties :
#
#
# Convention : Reuss Voigt Hill
#
# Bulk Modulus (GPa) = 21.09679 31.00180 26.04929
# Shear Modulus (GPa) = 26.76784 33.00989 29.88886
#
# Velocity S-wave (km/s) = 3.21756 3.57307 3.39997
# Velocity P-wave (km/s) = 4.68646 5.38634 5.04855
#
# Compressibility (1/GPa) = 0.04740058
#
# Stress axis : x y z
#
# Youngs Moduli (GPa) = 47.43379 123.82971 58.52138
#
# Poissons Ratio (x) = 0.41657 -0.35953
# Poissons Ratio (y) = 0.15957 0.12886
# Poissons Ratio (z) = -0.29141 0.27266
#
# Static dielectric constant tensor:
#      x y z
#    x 2.190330 0.000000 0.000000 
#    y 0.000000 1.992150 0.000000 
#    z 0.000000 0.000000 2.047380 
# 
# From -- ./inp_files/1704.got.cif
#   From: 2010.05.17/outbox.cif.g08.bks.cpg/sg41_1_cif.got.tgz:1704.got - 2010.06.03 18:54:24.
