data_PCOD9367046
_publ_section_title
;
Structure prediction by ZEFSAII (Michael W. Deem and Ramdas Pophale) SiO2 
 PCOD9367046
Probable space group: A B A 2
;
_chemical_formula_sum "Si O2"
_cell_formula_units_Z 36
_cell_length_a 20.449783
_cell_length_b 12.946740
_cell_length_c 4.945220
_cell_angle_alpha 90.000000
_cell_angle_beta 90.000000
_cell_angle_gamma 90.000000
_cell_volume 1309.286673
_symmetry_space_group_name_H-M "A B A 2"
_symmetry_group_IT_number 41
_symmetry_cell_setting 'orthorhombic'
loop_
_space_group_symop_operation_xyz
x,y,z
-x,-y,z
1/2-x,y,1/2+z
1/2+x,-y,1/2+z
x,1/2+y,1/2+z
-x,1/2-y,1/2+z
1/2-x,1/2+y,z
1/2+x,1/2-y,z
loop_
_atom_site_type_symbol
_atom_site_label
_atom_site_fract_x
_atom_site_fract_y
_atom_site_fract_z
Si Si1 0.538429 0.705892 0.813240
Si Si2 0.882690 0.884189 0.360162
Si Si3 0.500000 0.000000 0.585664
Si Si4 0.799410 0.782062 0.750464
Si Si5 0.792207 0.559157 0.633869
O O1 0.490001 0.731196 0.569366
O O2 0.605317 0.767440 0.746663
O O3 0.535688 0.586783 0.900567
O O4 0.855824 0.862066 0.662359
O O5 0.830535 0.958925 0.222685
O O6 0.948426 0.943695 0.279093
O O7 0.756139 0.791275 0.016451
O O8 0.826981 0.665605 0.718893
O O9 0.772853 0.560234 0.321200
#
# Coordination Sequence:
#
# PCOD9367046 Si02
#       5
#     8   8   4   8   8
#     4  10  24  43  64  92 128 173 222 271 329 396
#     4  11  22  42  66  95 132 176 223 279 336 401
#     4  10  24  44  66  96 134 180 230 278 336 404
#     4  10  22  40  63  94 129 169 219 275 340 406
#     4  10  22  40  66  98 130 170 219 275 339 401
#
# _framework density 27.495885999999999
#
# number of rings (size 3 to 8) (size 9 to 14) (size 15 to 20)
#    0.000    1.778    0.000    2.667    0.000   10.667 
#    0.000   17.778    0.000    0.000    0.000    0.000 
#    0.000    0.000    0.000    0.000    0.000    0.000 
#
# Total GULP energy -100831.900085 kJ/mol
# GULP energy per Si atom -5601.772227 kJ/mol
# Density = 2.743330 g / cm^3
# Si number density = 27.495886 Si / 1000 Ang^3
#
#
#
# Elastic Constant Matrix: (Units=GPa)
#
#
# Indices 1 2 3 4 5 6 
#
# 1 41.2387 39.6089 14.8555 0.0000 0.0000 0.0000
# 2 39.6089 204.5880 54.2069 0.0000 0.0000 0.0000
# 3 14.8555 54.2069 129.6357 0.0000 0.0000 0.0000
# 4 0.0000 0.0000 0.0000 60.6687 0.0000 0.0000
# 5 0.0000 0.0000 0.0000 0.0000 26.2918 0.0000
# 6 0.0000 0.0000 0.0000 0.0000 0.0000 48.3294
#
#
#
# Elastic Compliance Matrix: (Units=1/GPa)
#
#
# Indices 1 2 3 4 5 6 
#
# 1 0.029935 -0.005496 -0.001132 0.000000 0.000000 0.000000
# 2 -0.005496 0.006506 -0.002091 0.000000 0.000000 0.000000
# 3 -0.001132 -0.002091 0.008718 0.000000 0.000000 0.000000
# 4 0.000000 0.000000 0.000000 0.016483 0.000000 0.000000
# 5 0.000000 0.000000 0.000000 0.000000 0.038035 0.000000
# 6 0.000000 0.000000 0.000000 0.000000 0.000000 0.020691
#
#
# Mechanical properties :
#
#
# Convention : Reuss Voigt Hill
#
# Bulk Modulus (GPa) = 36.07273 65.86723 50.96998
# Shear Modulus (GPa) = 34.00299 44.84404 39.42351
#
# Velocity S-wave (km/s) = 3.52043 4.04287 3.79066
# Velocity P-wave (km/s) = 5.44723 6.76759 6.14299
#
# Compressibility (1/GPa) = 0.02772177
#
# Stress axis : x y z
#
# Youngs Moduli (GPa) = 33.40526 153.71025 114.70676
#
# Poissons Ratio (x) = 0.84472 0.12990
# Poissons Ratio (y) = 0.18358 0.23981
# Poissons Ratio (z) = 0.03783 0.32135
#
# Static dielectric constant tensor:
#      x y z
#    x 2.254690 0.000000 0.000000 
#    y 0.000000 2.196990 0.000000 
#    z 0.000000 0.000000 2.149420 
# 
# From -- ./inp_files/655.got.cif
#   From: 2010.05.17/outbox.cif.g08.bks.cpg/sg41_1_cif.got.tgz:655.got - 2010.06.03 18:54:24.
