data_PCOD9367297
_publ_section_title
;
Structure prediction by ZEFSAII (Michael W. Deem and Ramdas Pophale) SiO2 
 PCOD9367297
Probable space group: A B A 2
;
_chemical_formula_sum "Si O2"
_cell_formula_units_Z 48
_cell_length_a 5.168685
_cell_length_b 27.780982
_cell_length_c 14.124444
_cell_angle_alpha 90.000000
_cell_angle_beta 90.000000
_cell_angle_gamma 90.000000
_cell_volume 2028.145086
_symmetry_space_group_name_H-M "A B A 2"
_symmetry_group_IT_number 41
_symmetry_cell_setting 'orthorhombic'
loop_
_space_group_symop_operation_xyz
x,y,z
-x,-y,z
1/2-x,y,1/2+z
1/2+x,-y,1/2+z
x,1/2+y,1/2+z
-x,1/2-y,1/2+z
1/2-x,1/2+y,z
1/2+x,1/2-y,z
loop_
_atom_site_type_symbol
_atom_site_label
_atom_site_fract_x
_atom_site_fract_y
_atom_site_fract_z
Si Si1 0.641579 0.234029 0.027010
Si Si2 0.995831 0.057130 0.337803
Si Si3 0.241932 0.633999 0.706596
Si Si4 0.601496 0.775189 0.317236
Si Si5 0.503972 0.942687 0.450860
Si Si6 0.760935 0.634429 0.585585
O O1 0.373987 0.240517 0.080130
O O2 0.686712 0.177499 0.013639
O O3 0.599139 0.264749 0.930661
O O4 0.699970 0.068374 0.365702
O O5 0.115077 0.086399 0.251602
O O6 0.200147 0.068534 0.422744
O O7 0.000000 0.000000 0.321027
O O8 0.315503 0.671750 0.788619
O O9 0.502127 0.624765 0.646185
O O10 0.001992 0.654364 0.646201
O O11 0.317975 0.762124 0.282641
O O12 0.383659 0.911752 0.534952
O O13 0.500000 0.000000 0.469203
#
# Coordination Sequence:
#
# PCOD9367297 Si02
#       6
#     8   8   8   8   8   8
#     4  10  23  40  64  94 130 189 229 275 332 414
#     4  10  23  44  72  99 131 180 232 277 334 423
#     4  12  26  42  68 105 140 176 226 294 357 410
#     4  10  23  40  64  94 130 189 229 275 332 414
#     4  10  23  44  72  99 131 180 232 277 334 423
#     4  12  26  42  68 105 140 176 226 294 357 410
#
# _framework density 23.666948000000001
#
# number of rings (size 3 to 8) (size 9 to 14) (size 15 to 20)
#    0.000    1.333    0.000    4.000    9.333    4.667 
#    0.000    1.667    0.000    0.000    0.000    0.000 
#    0.000    0.000    0.000    0.000    0.000    0.000 
#
# Total GULP energy -134150.791446 kJ/mol
# GULP energy per Si atom -5589.616310 kJ/mol
# Density = 2.361308 g / cm^3
# Si number density = 23.666948 Si / 1000 Ang^3
#
#
#
# Elastic Constant Matrix: (Units=GPa)
#
#
# Indices 1 2 3 4 5 6 
#
# 1 150.4440 46.8660 25.5956 0.0000 0.0000 0.0000
# 2 46.8660 108.9223 52.8372 0.0000 0.0000 0.0000
# 3 25.5956 52.8372 83.0110 0.0000 0.0000 0.0000
# 4 0.0000 0.0000 0.0000 27.5289 0.0000 0.0000
# 5 0.0000 0.0000 0.0000 0.0000 42.1611 0.0000
# 6 0.0000 0.0000 0.0000 0.0000 0.0000 38.4599
#
#
#
# Elastic Compliance Matrix: (Units=1/GPa)
#
#
# Indices 1 2 3 4 5 6 
#
# 1 0.007684 -0.003120 -0.000383 0.000000 0.000000 0.000000
# 2 -0.003120 0.014549 -0.008298 0.000000 0.000000 0.000000
# 3 -0.000383 -0.008298 0.017447 0.000000 0.000000 0.000000
# 4 0.000000 0.000000 0.000000 0.036325 0.000000 0.000000
# 5 0.000000 0.000000 0.000000 0.000000 0.023719 0.000000
# 6 0.000000 0.000000 0.000000 0.000000 0.000000 0.026001
#
#
# Mechanical properties :
#
#
# Convention : Reuss Voigt Hill
#
# Bulk Modulus (GPa) = 62.20464 65.88607 64.04535
# Shear Modulus (GPa) = 32.32320 36.10189 34.21254
#
# Velocity S-wave (km/s) = 3.69962 3.90989 3.80621
# Velocity P-wave (km/s) = 6.67757 6.94855 6.81441
#
# Compressibility (1/GPa) = 0.01607597
#
# Stress axis : x y z
#
# Youngs Moduli (GPa) = 130.13633 68.73350 57.31729
#
# Poissons Ratio (x) = 0.21448 0.02196
# Poissons Ratio (y) = 0.40608 0.47564
# Poissons Ratio (z) = 0.04987 0.57038
#
# Static dielectric constant tensor:
#      x y z
#    x 2.011520 0.000000 0.000000 
#    y 0.000000 1.852210 0.000000 
#    z 0.000000 0.000000 1.971710 
# 
# From -- ./inp_files/6881.got.cif
#   From: 2010.05.17/outbox.cif.g08.bks.cpg/sg41_4_cif.got.tgz:6881.got - 2010.06.03 18:54:24.
