data_PCOD9367590
_publ_section_title
;
Structure prediction by ZEFSAII (Michael W. Deem and Ramdas Pophale) SiO2 
 PCOD9367590
Probable space group: A B A 2
;
_chemical_formula_sum "Si O2"
_cell_formula_units_Z 44
_cell_length_a 16.682458
_cell_length_b 23.558531
_cell_length_c 5.329403
_cell_angle_alpha 90.000000
_cell_angle_beta 90.000000
_cell_angle_gamma 90.000000
_cell_volume 2094.531078
_symmetry_space_group_name_H-M "A B A 2"
_symmetry_group_IT_number 41
_symmetry_cell_setting 'orthorhombic'
loop_
_space_group_symop_operation_xyz
x,y,z
-x,-y,z
1/2-x,y,1/2+z
1/2+x,-y,1/2+z
x,1/2+y,1/2+z
-x,1/2-y,1/2+z
1/2-x,1/2+y,z
1/2+x,1/2-y,z
loop_
_atom_site_type_symbol
_atom_site_label
_atom_site_fract_x
_atom_site_fract_y
_atom_site_fract_z
Si Si1 0.697855 0.688957 0.115640
Si Si2 0.587583 0.588596 0.245638
Si Si3 0.000000 0.000000 0.887946
Si Si4 0.928135 0.913642 0.532889
Si Si5 0.198296 0.514502 0.805458
Si Si6 0.802506 0.321422 0.162856
O O1 0.757375 0.679161 0.351750
O O2 0.624208 0.646125 0.140308
O O3 0.674307 0.755091 0.140657
O O4 0.518138 0.600533 0.447743
O O5 0.660504 0.548362 0.332031
O O6 0.543950 0.548142 0.045644
O O7 0.063284 0.032964 0.716997
O O8 0.873714 0.939798 0.311500
O O9 0.879357 0.861680 0.645720
O O10 0.246685 0.522556 0.549566
O O11 0.754801 0.331783 0.421527
#
# Coordination Sequence:
#
# PCOD9367590 Si02
#       6
#     8   8   4   8   8   8
#     4  10  24  48  73 101 134 178 233 284 338 407
#     4  12  25  43  66 100 140 182 222 288 342 406
#     4  12  24  44  64  96 152 174 226 276 342 414
#     4  12  25  43  66 100 140 182 222 288 342 406
#     4  12  24  40  65  95 130 178 228 266 332 398
#     4  10  24  48  73 101 134 178 233 284 338 407
#
# _framework density 21.007089000000001
#
# number of rings (size 3 to 8) (size 9 to 14) (size 15 to 20)
#    0.000    0.727    3.636    3.273    5.091    0.000 
#    3.273    0.000    0.000    0.000    0.000    0.000 
#    0.000    0.000    0.000    0.000    0.000    0.000 
#
# Total GULP energy -123109.073149 kJ/mol
# GULP energy per Si atom -5595.866961 kJ/mol
# Density = 2.095928 g / cm^3
# Si number density = 21.007089 Si / 1000 Ang^3
#
#
#
# Elastic Constant Matrix: (Units=GPa)
#
#
# Indices 1 2 3 4 5 6 
#
# 1 74.7657 54.4678 29.3618 0.0000 0.0000 0.0000
# 2 54.4678 122.9511 27.8068 0.0000 0.0000 0.0000
# 3 29.3618 27.8068 101.3481 0.0000 0.0000 0.0000
# 4 0.0000 0.0000 0.0000 18.1502 0.0000 0.0000
# 5 0.0000 0.0000 0.0000 0.0000 22.7517 0.0000
# 6 0.0000 0.0000 0.0000 0.0000 0.0000 55.8012
#
#
#
# Elastic Compliance Matrix: (Units=1/GPa)
#
#
# Indices 1 2 3 4 5 6 
#
# 1 0.021017 -0.008458 -0.003768 0.000000 0.000000 0.000000
# 2 -0.008458 0.012076 -0.000863 0.000000 0.000000 0.000000
# 3 -0.003768 -0.000863 0.011195 0.000000 0.000000 0.000000
# 4 0.000000 0.000000 0.000000 0.055096 0.000000 0.000000
# 5 0.000000 0.000000 0.000000 0.000000 0.043953 0.000000
# 6 0.000000 0.000000 0.000000 0.000000 0.000000 0.017921
#
#
# Mechanical properties :
#
#
# Convention : Reuss Voigt Hill
#
# Bulk Modulus (GPa) = 55.21981 58.03754 56.62867
# Shear Modulus (GPa) = 25.84352 31.83584 28.83968
#
# Velocity S-wave (km/s) = 3.51127 3.89714 3.70923
# Velocity P-wave (km/s) = 6.54079 6.92372 6.73498
#
# Compressibility (1/GPa) = 0.01810944
#
# Stress axis : x y z
#
# Youngs Moduli (GPa) = 47.58055 82.81217 89.32281
#
# Poissons Ratio (x) = 0.70046 0.33658
# Poissons Ratio (y) = 0.40246 0.07705
# Poissons Ratio (z) = 0.17929 0.07144
#
# Static dielectric constant tensor:
#      x y z
#    x 1.768940 0.000000 0.000000 
#    y 0.000000 1.752990 0.000000 
#    z 0.000000 0.000000 1.794810 
# 
# From -- ./inp_files/272.got.cif
#   From: 2010.05.17/outbox.cif.g08.bks.cpg/sg41_1_cif.got.tgz:272.got - 2010.06.03 18:54:24.
