data_PCOD9367171
_publ_section_title
;
Structure prediction by ZEFSAII (Michael W. Deem and Ramdas Pophale) SiO2 
 PCOD9367171
Probable space group: A B A 2
;
_chemical_formula_sum "Si O2"
_cell_formula_units_Z 52
_cell_length_a 22.725284
_cell_length_b 20.503818
_cell_length_c 5.218255
_cell_angle_alpha 90.000000
_cell_angle_beta 90.000000
_cell_angle_gamma 90.000000
_cell_volume 2431.472463
_symmetry_space_group_name_H-M "A B A 2"
_symmetry_group_IT_number 41
_symmetry_cell_setting 'orthorhombic'
loop_
_space_group_symop_operation_xyz
x,y,z
-x,-y,z
1/2-x,y,1/2+z
1/2+x,-y,1/2+z
x,1/2+y,1/2+z
-x,1/2-y,1/2+z
1/2-x,1/2+y,z
1/2+x,1/2-y,z
loop_
_atom_site_type_symbol
_atom_site_label
_atom_site_fract_x
_atom_site_fract_y
_atom_site_fract_z
Si Si1 0.790003 0.918349 0.955420
Si Si2 0.025194 0.281926 0.427067
Si Si3 0.000000 0.000000 0.581380
Si Si4 0.460933 0.396002 0.252949
Si Si5 0.212045 0.227911 0.891176
Si Si6 0.374911 0.329380 0.633472
Si Si7 0.618271 0.034428 0.386273
O O1 0.740635 0.923943 0.732799
O O2 0.814992 0.844467 0.930802
O O3 0.836555 0.975770 0.911381
O O4 0.013017 0.356137 0.516090
O O5 0.094034 0.284623 0.349956
O O6 0.010822 0.240279 0.679057
O O7 0.008499 0.062140 0.399090
O O8 0.940939 0.013027 0.737902
O O9 0.428467 0.347913 0.446069
O O10 0.408464 0.442393 0.156267
O O11 0.234854 0.231590 0.599966
O O12 0.171158 0.287625 0.975027
O O13 0.356111 0.398943 0.756171
#
# Coordination Sequence:
#
# PCOD9367171 Si02
#       7
#     8   8   4   8   8   8   8
#     4  10  24  47  69  98 136 175 231 288 345 415
#     4  11  22  42  64  94 134 173 216 275 326 401
#     4  10  22  44  66  96 142 184 222 286 344 412
#     4  10  22  43  63  95 143 171 229 280 332 408
#     4  10  24  45  68  96 134 173 222 284 346 405
#     4  10  23  42  68  97 137 173 225 282 335 404
#     4  10  23  42  69 101 138 183 233 284 342 420
#
# _framework density 21.386216999999998
#
# number of rings (size 3 to 8) (size 9 to 14) (size 15 to 20)
#    0.000    1.846    1.538    0.462    8.615    1.231 
#   13.846    0.000    0.000    0.000    0.000    0.000 
#    0.000    0.000    0.000    0.000    0.000    0.000 
#
# Total GULP energy -145114.618891 kJ/mol
# GULP energy per Si atom -5581.331496 kJ/mol
# Density = 2.133754 g / cm^3
# Si number density = 21.386217 Si / 1000 Ang^3
#
#
#
# Elastic Constant Matrix: (Units=GPa)
#
#
# Indices 1 2 3 4 5 6 
#
# 1 29.6614 54.4521 5.6531 0.0000 0.0000 0.0000
# 2 54.4521 121.6026 15.5070 0.0000 0.0000 0.0000
# 3 5.6531 15.5070 79.6430 0.0000 0.0000 0.0000
# 4 0.0000 0.0000 0.0000 40.6405 0.0000 0.0000
# 5 0.0000 0.0000 0.0000 0.0000 13.0693 0.0000
# 6 0.0000 0.0000 0.0000 0.0000 0.0000 46.0580
#
#
#
# Elastic Compliance Matrix: (Units=1/GPa)
#
#
# Indices 1 2 3 4 5 6 
#
# 1 0.190224 -0.085583 0.003161 0.000000 0.000000 0.000000
# 2 -0.085583 0.046937 -0.003064 0.000000 0.000000 0.000000
# 3 0.003161 -0.003064 0.012928 0.000000 0.000000 0.000000
# 4 0.000000 0.000000 0.000000 0.024606 0.000000 0.000000
# 5 0.000000 0.000000 0.000000 0.000000 0.076515 0.000000
# 6 0.000000 0.000000 0.000000 0.000000 0.000000 0.021712
#
#
# Mechanical properties :
#
#
# Convention : Reuss Voigt Hill
#
# Bulk Modulus (GPa) = 12.63939 42.45905 27.54922
# Shear Modulus (GPa) = 8.76782 30.30655 19.53718
#
# Velocity S-wave (km/s) = 2.02698 3.76853 3.02576
# Velocity P-wave (km/s) = 3.37655 6.23156 5.01166
#
# Compressibility (1/GPa) = 0.07911772
#
# Stress axis : x y z
#
# Youngs Moduli (GPa) = 5.25696 21.30500 77.34992
#
# Poissons Ratio (x) = 1.82335 -0.24454
# Poissons Ratio (y) = 0.44991 0.23702
# Poissons Ratio (z) = -0.01662 0.06528
#
# Static dielectric constant tensor:
#      x y z
#    x 1.734420 0.000000 0.000000 
#    y 0.000000 2.017450 0.000000 
#    z 0.000000 0.000000 1.835950 
# 
# From -- ./inp_files/712.got.cif
#   From: 2010.05.17/outbox.cif.g08.bks.cpg/sg41_1_cif.got.tgz:712.got - 2010.06.03 18:54:24.
