data_PCOD9367649
_publ_section_title
;
Structure prediction by ZEFSAII (Michael W. Deem and Ramdas Pophale) SiO2 
 PCOD9367649
Probable space group: A B A 2
;
_chemical_formula_sum "Si O2"
_cell_formula_units_Z 40
_cell_length_a 6.904446
_cell_length_b 11.202293
_cell_length_c 21.948390
_cell_angle_alpha 90.000000
_cell_angle_beta 90.000000
_cell_angle_gamma 90.000000
_cell_volume 1697.611988
_symmetry_space_group_name_H-M "A B A 2"
_symmetry_group_IT_number 41
_symmetry_cell_setting 'orthorhombic'
loop_
_space_group_symop_operation_xyz
x,y,z
-x,-y,z
1/2-x,y,1/2+z
1/2+x,-y,1/2+z
x,1/2+y,1/2+z
-x,1/2-y,1/2+z
1/2-x,1/2+y,z
1/2+x,1/2-y,z
loop_
_atom_site_type_symbol
_atom_site_label
_atom_site_fract_x
_atom_site_fract_y
_atom_site_fract_z
Si Si1 0.558782 0.270430 0.450470
Si Si2 0.225077 0.015907 0.114361
Si Si3 0.000000 0.000000 0.724943
Si Si4 0.795429 0.233361 0.543761
Si Si5 0.623584 0.607506 0.842113
Si Si6 0.000000 0.000000 0.392699
O O1 0.542562 0.234500 0.525101
O O2 0.302513 0.277279 0.465534
O O3 0.557950 0.216027 0.382806
O O4 0.602668 0.409277 0.438997
O O5 0.236564 0.142104 0.079956
O O6 0.328169 0.027636 0.179191
O O7 0.304056 0.896144 0.078670
O O8 0.000000 0.000000 0.124333
O O9 0.059151 0.894665 0.771878
O O10 0.500000 0.500000 0.871201
O O11 0.843094 0.566341 0.851238
#
# Coordination Sequence:
#
# PCOD9367649 Si02
#       6
#     8   8   4   8   8   4
#     4  12  23  43  73 113 146 177 237 301 375 441
#     4  12  27  51  72 109 146 203 244 302 365 428
#     4  10  28  51  68 104 149 192 260 292 350 440
#     4  12  25  45  78 109 150 184 241 304 369 444
#     4  10  26  46  70 104 142 191 237 301 353 429
#     4  12  24  45  72 110 145 194 226 290 398 426
#
# _framework density 23.562508999999999
#
# number of rings (size 3 to 8) (size 9 to 14) (size 15 to 20)
#    0.600    0.000    4.000    3.600    4.200    0.000 
#    7.200    0.000    0.000    0.000    0.000    0.000 
#    0.000    0.000    0.000    0.000    0.000    0.000 
#
# Total GULP energy -111345.032200 kJ/mol
# GULP energy per Si atom -5567.251610 kJ/mol
# Density = 2.350888 g / cm^3
# Si number density = 23.562509 Si / 1000 Ang^3
#
#
#
# Elastic Constant Matrix: (Units=GPa)
#
#
# Indices 1 2 3 4 5 6 
#
# 1 163.4526 26.8736 76.7578 0.0000 0.0000 0.0000
# 2 26.8736 134.6395 91.0942 0.0000 0.0000 0.0000
# 3 76.7578 91.0942 209.2950 0.0000 0.0000 0.0000
# 4 0.0000 0.0000 0.0000 26.6860 0.0000 0.0000
# 5 0.0000 0.0000 0.0000 0.0000 56.7851 0.0000
# 6 0.0000 0.0000 0.0000 0.0000 0.0000 40.3250
#
#
#
# Elastic Compliance Matrix: (Units=1/GPa)
#
#
# Indices 1 2 3 4 5 6 
#
# 1 0.007416 0.000510 -0.002942 0.000000 0.000000 0.000000
# 2 0.000510 0.010562 -0.004784 0.000000 0.000000 0.000000
# 3 -0.002942 -0.004784 0.007939 0.000000 0.000000 0.000000
# 4 0.000000 0.000000 0.000000 0.037473 0.000000 0.000000
# 5 0.000000 0.000000 0.000000 0.000000 0.017610 0.000000
# 6 0.000000 0.000000 0.000000 0.000000 0.000000 0.024799
#
#
# Mechanical properties :
#
#
# Convention : Reuss Voigt Hill
#
# Bulk Modulus (GPa) = 87.06701 99.64870 93.35786
# Shear Modulus (GPa) = 40.30354 45.60332 42.95343
#
# Velocity S-wave (km/s) = 4.14030 4.40411 4.27424
# Velocity P-wave (km/s) = 7.73872 8.26103 8.00414
#
# Compressibility (1/GPa) = 0.01148541
#
# Stress axis : x y z
#
# Youngs Moduli (GPa) = 134.85250 94.67582 125.95894
#
# Poissons Ratio (x) = -0.04830 0.37052
# Poissons Ratio (y) = -0.06879 0.60262
# Poissons Ratio (z) = 0.39669 0.45296
#
# Static dielectric constant tensor:
#      x y z
#    x 2.321470 0.000000 0.000000 
#    y 0.000000 1.913320 0.000000 
#    z 0.000000 0.000000 1.805750 
# 
# From -- ./inp_files/11117.got.cif
#   From: 2010.05.17/outbox.cif.g08.bks.cpg/sg41_6_cif.got.tgz:11117.got - 2010.06.03 18:54:24.
