data_PCOD9367820
_publ_section_title
;
Structure prediction by ZEFSAII (Michael W. Deem and Ramdas Pophale) SiO2 
 PCOD9367820
Probable space group: A B A 2
;
_chemical_formula_sum "Si O2"
_cell_formula_units_Z 48
_cell_length_a 14.205516
_cell_length_b 15.832718
_cell_length_c 8.128351
_cell_angle_alpha 90.000000
_cell_angle_beta 90.000000
_cell_angle_gamma 90.000000
_cell_volume 1828.163102
_symmetry_space_group_name_H-M "A B A 2"
_symmetry_group_IT_number 41
_symmetry_cell_setting 'orthorhombic'
loop_
_space_group_symop_operation_xyz
x,y,z
-x,-y,z
1/2-x,y,1/2+z
1/2+x,-y,1/2+z
x,1/2+y,1/2+z
-x,1/2-y,1/2+z
1/2-x,1/2+y,z
1/2+x,1/2-y,z
loop_
_atom_site_type_symbol
_atom_site_label
_atom_site_fract_x
_atom_site_fract_y
_atom_site_fract_z
Si Si1 0.629472 0.575390 0.968260
Si Si2 0.432080 0.882096 0.116516
Si Si3 0.243788 0.271908 0.593315
Si Si4 0.832665 0.898189 0.063656
Si Si5 0.919163 0.285990 0.291630
Si Si6 0.997883 0.390248 0.783392
O O1 0.589620 0.566994 0.783839
O O2 0.685756 0.662976 0.981455
O O3 0.690626 0.492070 0.005777
O O4 0.555336 0.581886 0.119123
O O5 0.346871 0.813615 0.109082
O O6 0.532911 0.838368 0.147068
O O7 0.445849 0.926296 0.941091
O O8 0.252286 0.171906 0.560507
O O9 0.177129 0.263635 0.754097
O O10 0.889266 0.904320 0.235336
O O11 0.904005 0.852327 0.936036
O O12 0.991735 0.209996 0.315570
#
# Coordination Sequence:
#
# PCOD9367820 Si02
#       6
#     8   8   8   8   8   8
#     4  11  28  49  77 112 165 203 263 340 389 468
#     4  12  25  48  78 108 159 211 266 323 399 468
#     4  11  26  47  82 116 159 214 265 328 403 479
#     4  12  24  51  78 114 161 210 265 333 397 472
#     4  11  23  45  77 113 152 213 261 320 401 464
#     4  11  23  46  77 113 150 207 260 321 394 473
#
# _framework density 26.255862
#
# number of rings (size 3 to 8) (size 9 to 14) (size 15 to 20)
#    0.000    0.667    5.000    1.500    4.667    2.667 
#    6.000    0.000    0.000    0.000    0.000    0.000 
#    0.000    0.000    0.000    0.000    0.000    0.000 
#
# Total GULP energy -134047.243641 kJ/mol
# GULP energy per Si atom -5585.301818 kJ/mol
# Density = 2.619610 g / cm^3
# Si number density = 26.255862 Si / 1000 Ang^3
#
#
#
# Elastic Constant Matrix: (Units=GPa)
#
#
# Indices 1 2 3 4 5 6 
#
# 1 93.0849 35.0390 36.8989 0.0000 0.0000 0.0000
# 2 35.0390 134.8480 39.3999 0.0000 0.0000 0.0000
# 3 36.8989 39.3999 175.8581 0.0000 0.0000 0.0000
# 4 0.0000 0.0000 0.0000 17.3219 0.0000 0.0000
# 5 0.0000 0.0000 0.0000 0.0000 22.4422 0.0000
# 6 0.0000 0.0000 0.0000 0.0000 0.0000 42.1504
#
#
#
# Elastic Compliance Matrix: (Units=1/GPa)
#
#
# Indices 1 2 3 4 5 6 
#
# 1 0.012554 -0.002667 -0.002037 0.000000 0.000000 0.000000
# 2 -0.002667 0.008502 -0.001345 0.000000 0.000000 0.000000
# 3 -0.002037 -0.001345 0.006415 0.000000 0.000000 0.000000
# 4 0.000000 0.000000 0.000000 0.057731 0.000000 0.000000
# 5 0.000000 0.000000 0.000000 0.000000 0.044559 0.000000
# 6 0.000000 0.000000 0.000000 0.000000 0.000000 0.023725
#
#
# Mechanical properties :
#
#
# Convention : Reuss Voigt Hill
#
# Bulk Modulus (GPa) = 65.04732 69.60740 67.32736
# Shear Modulus (GPa) = 29.28993 35.87976 32.58484
#
# Velocity S-wave (km/s) = 3.34362 3.70069 3.52668
# Velocity P-wave (km/s) = 6.30354 6.69544 6.50244
#
# Compressibility (1/GPa) = 0.01537342
#
# Stress axis : x y z
#
# Youngs Moduli (GPa) = 79.65519 117.62226 155.88218
#
# Poissons Ratio (x) = 0.31370 0.31747
# Poissons Ratio (y) = 0.21244 0.20969
# Poissons Ratio (z) = 0.16223 0.15822
#
# Static dielectric constant tensor:
#      x y z
#    x 2.084650 0.000000 0.000000 
#    y 0.000000 2.069190 0.000000 
#    z 0.000000 0.000000 2.165330 
# 
# From -- ./inp_files/2508.got.cif
#   From: 2010.05.17/outbox.cif.g08.bks.cpg/sg41_2_cif.got.tgz:2508.got - 2010.06.03 18:54:24.
