data_PCOD9367929
_publ_section_title
;
Structure prediction by ZEFSAII (Michael W. Deem and Ramdas Pophale) SiO2 
 PCOD9367929
Probable space group: A B A 2
;
_chemical_formula_sum "Si O2"
_cell_formula_units_Z 64
_cell_length_a 26.275069
_cell_length_b 10.844361
_cell_length_c 9.484099
_cell_angle_alpha 90.000000
_cell_angle_beta 90.000000
_cell_angle_gamma 90.000000
_cell_volume 2702.364396
_symmetry_space_group_name_H-M "A B A 2"
_symmetry_group_IT_number 41
_symmetry_cell_setting 'orthorhombic'
loop_
_space_group_symop_operation_xyz
x,y,z
-x,-y,z
1/2-x,y,1/2+z
1/2+x,-y,1/2+z
x,1/2+y,1/2+z
-x,1/2-y,1/2+z
1/2-x,1/2+y,z
1/2+x,1/2-y,z
loop_
_atom_site_type_symbol
_atom_site_label
_atom_site_fract_x
_atom_site_fract_y
_atom_site_fract_z
Si Si1 0.361627 0.353386 0.741140
Si Si2 0.277729 0.631346 0.550999
Si Si3 0.973093 0.123764 0.653315
Si Si4 0.657050 0.198917 0.713133
Si Si5 0.675175 0.808153 0.503378
Si Si6 0.882463 0.532484 0.511415
Si Si7 0.250749 0.469377 0.293988
Si Si8 0.477669 0.127910 0.468586
O O1 0.412253 0.404944 0.662603
O O2 0.348564 0.234856 0.649801
O O3 0.306379 0.416726 0.762784
O O4 0.382806 0.357848 0.898928
O O5 0.330168 0.694163 0.598691
O O6 0.235050 0.724136 0.490072
O O7 0.276441 0.518238 0.440579
O O8 0.253107 0.591334 0.698678
O O9 0.981470 0.247868 0.560730
O O10 0.000000 0.000000 0.597012
O O11 0.997452 0.142634 0.812167
O O12 0.615264 0.102125 0.659019
O O13 0.709476 0.124034 0.726262
O O14 0.648327 0.250754 0.867561
O O15 0.669890 0.955565 0.500589
O O16 0.920450 0.424677 0.466453
O O17 0.500000 0.000000 0.534182
#
# Coordination Sequence:
#
# PCOD9367929 Si02
#       8
#     8   8   8   8   8   8   8   8
#     4  12  23  45  74 100 145 191 236 308 372 436
#     4  12  24  42  63  99 142 193 242 300 344 425
#     4  11  25  50  80 110 146 190 245 316 389 454
#     4  12  27  42  66 102 141 192 244 292 356 432
#     4  12  25  43  68 103 140 187 251 297 355 439
#     4  12  25  47  72 101 144 191 238 305 370 439
#     4  12  24  40  67  96 141 192 238 290 359 425
#     4  11  25  51  78 109 148 187 246 313 384 464
#
# _framework density 23.682964999999999
#
# number of rings (size 3 to 8) (size 9 to 14) (size 15 to 20)
#    0.000    0.250    8.750    0.750    3.500    1.500 
#    4.500    0.000    0.000    0.000    0.000    0.000 
#    0.000    0.000    0.000    0.000    0.000    0.000 
#
# Total GULP energy -178142.258308 kJ/mol
# GULP energy per Si atom -5566.945572 kJ/mol
# Density = 2.362906 g / cm^3
# Si number density = 23.682965 Si / 1000 Ang^3
#
#
#
# Elastic Constant Matrix: (Units=GPa)
#
#
# Indices 1 2 3 4 5 6 
#
# 1 73.4872 23.0771 -0.1255 0.0000 0.0000 0.0000
# 2 23.0771 108.1753 63.5598 0.0000 0.0000 0.0000
# 3 -0.1255 63.5598 103.7090 0.0000 0.0000 0.0000
# 4 0.0000 0.0000 0.0000 52.4452 0.0000 0.0000
# 5 0.0000 0.0000 0.0000 0.0000 13.1777 0.0000
# 6 0.0000 0.0000 0.0000 0.0000 0.0000 34.8715
#
#
#
# Elastic Compliance Matrix: (Units=1/GPa)
#
#
# Indices 1 2 3 4 5 6 
#
# 1 0.015211 -0.005088 0.003137 0.000000 0.000000 0.000000
# 2 -0.005088 0.016148 -0.009903 0.000000 0.000000 0.000000
# 3 0.003137 -0.009903 0.015715 0.000000 0.000000 0.000000
# 4 0.000000 0.000000 0.000000 0.019068 0.000000 0.000000
# 5 0.000000 0.000000 0.000000 0.000000 0.075886 0.000000
# 6 0.000000 0.000000 0.000000 0.000000 0.000000 0.028677
#
#
# Mechanical properties :
#
#
# Convention : Reuss Voigt Hill
#
# Bulk Modulus (GPa) = 42.79698 50.93268 46.86483
# Shear Modulus (GPa) = 24.72782 33.35621 29.04202
#
# Velocity S-wave (km/s) = 3.23479 3.75700 3.50563
# Velocity P-wave (km/s) = 5.66232 6.35396 6.01808
#
# Compressibility (1/GPa) = 0.02336613
#
# Stress axis : x y z
#
# Youngs Moduli (GPa) = 65.74218 61.92625 63.63220
#
# Poissons Ratio (x) = 0.31508 -0.19959
# Poissons Ratio (y) = 0.33449 0.63014
# Poissons Ratio (z) = -0.20621 0.61325
#
# Static dielectric constant tensor:
#      x y z
#    x 2.326250 0.000000 0.000000 
#    y 0.000000 1.926610 0.000000 
#    z 0.000000 0.000000 1.954530 
# 
# From -- ./inp_files/3992.got.cif
#   From: 2010.05.17/outbox.cif.g08.bks.cpg/sg41_2_cif.got.tgz:3992.got - 2010.06.03 18:54:24.
