data_PCOD9367853
_publ_section_title
;
Structure prediction by ZEFSAII (Michael W. Deem and Ramdas Pophale) SiO2 
 PCOD9367853
Probable space group: A B A 2
;
_chemical_formula_sum "Si O2"
_cell_formula_units_Z 32
_cell_length_a 8.160034
_cell_length_b 9.529417
_cell_length_c 15.775566
_cell_angle_alpha 90.000000
_cell_angle_beta 90.000000
_cell_angle_gamma 90.000000
_cell_volume 1226.713797
_symmetry_space_group_name_H-M "A B A 2"
_symmetry_group_IT_number 41
_symmetry_cell_setting 'orthorhombic'
loop_
_space_group_symop_operation_xyz
x,y,z
-x,-y,z
1/2-x,y,1/2+z
1/2+x,-y,1/2+z
x,1/2+y,1/2+z
-x,1/2-y,1/2+z
1/2-x,1/2+y,z
1/2+x,1/2-y,z
loop_
_atom_site_type_symbol
_atom_site_label
_atom_site_fract_x
_atom_site_fract_y
_atom_site_fract_z
Si Si1 0.898018 0.131102 0.186570
Si Si2 0.838368 0.807708 0.448237
Si Si3 0.417382 0.138555 0.326243
Si Si4 0.401207 0.342458 0.572670
O O1 0.862967 0.249522 0.256462
O O2 0.727164 0.091733 0.140047
O O3 0.024032 0.205139 0.120989
O O4 0.000000 0.000000 0.221944
O O5 0.734051 0.904649 0.385820
O O6 0.715335 0.704432 0.496292
O O7 0.955737 0.717203 0.388195
O O8 0.929977 0.886260 0.524698
O O9 0.500000 0.000000 0.289382
#
# Coordination Sequence:
#
# PCOD9367853 Si02
#       4
#     8   8   8   8
#     4  11  24  43  68 103 144 186 233 285 350 424
#     4   9  21  42  66  98 136 180 232 291 349 409
#     4  11  24  43  68 103 144 186 233 285 350 424
#     4   9  21  42  66  98 136 180 232 291 349 409
#
# _framework density 26.085953
#
# number of rings (size 3 to 8) (size 9 to 14) (size 15 to 20)
#    0.000    2.000    0.000    1.500    0.000   17.000 
#    0.000   20.000    0.000    0.000    0.000    3.500 
#    0.000    0.000    0.000    0.000    0.000    0.000 
#
# Total GULP energy -89439.538995 kJ/mol
# GULP energy per Si atom -5589.971187 kJ/mol
# Density = 2.602658 g / cm^3
# Si number density = 26.085953 Si / 1000 Ang^3
#
#
#
# Elastic Constant Matrix: (Units=GPa)
#
#
# Indices 1 2 3 4 5 6 
#
# 1 149.3180 31.4379 69.6992 0.0000 0.0000 0.0000
# 2 31.4379 77.2338 40.3422 0.0000 0.0000 0.0000
# 3 69.6992 40.3422 137.6511 0.0000 0.0000 0.0000
# 4 0.0000 0.0000 0.0000 0.2643 0.0000 0.0000
# 5 0.0000 0.0000 0.0000 0.0000 77.8586 0.0000
# 6 0.0000 0.0000 0.0000 0.0000 0.0000 30.0612
#
#
#
# Elastic Compliance Matrix: (Units=1/GPa)
#
#
# Indices 1 2 3 4 5 6 
#
# 1 0.008915 -0.001501 -0.004074 0.000000 0.000000 0.000000
# 2 -0.001501 0.015541 -0.003795 0.000000 0.000000 0.000000
# 3 -0.004074 -0.003795 0.010440 0.000000 0.000000 0.000000
# 4 0.000000 0.000000 0.000000 3.783543 0.000000 0.000000
# 5 0.000000 0.000000 0.000000 0.000000 0.012844 0.000000
# 6 0.000000 0.000000 0.000000 0.000000 0.000000 0.033265
#
#
# Mechanical properties :
#
#
# Convention : Reuss Voigt Hill
#
# Bulk Modulus (GPa) = 61.89586 71.90683 66.90135
# Shear Modulus (GPa) = 1.28579 36.48507 18.88543
#
# Velocity S-wave (km/s) = 0.70283 3.74391 2.69359
# Velocity P-wave (km/s) = 4.94346 6.80546 5.94778
#
# Compressibility (1/GPa) = 0.01615617
#
# Stress axis : x y z
#
# Youngs Moduli (GPa) = 112.17257 64.34730 95.78688
#
# Poissons Ratio (x) = 0.09656 0.39025
# Poissons Ratio (y) = 0.16833 0.36349
# Poissons Ratio (z) = 0.45701 0.24418
#
# Static dielectric constant tensor:
#      x y z
#    x 2.057020 0.000000 0.000000 
#    y 0.000000 2.064390 0.000000 
#    z 0.000000 0.000000 2.025840 
# 
# From -- ./inp_files/4292.got.cif
#   From: 2010.05.17/outbox.cif.g08.bks.cpg/sg41_3_cif.got.tgz:4292.got - 2010.06.03 18:54:24.
