data_PCOD9367641
_publ_section_title
;
Structure prediction by ZEFSAII (Michael W. Deem and Ramdas Pophale) SiO2 
 PCOD9367641
Probable space group: A B A 2
;
_chemical_formula_sum "Si O2"
_cell_formula_units_Z 40
_cell_length_a 18.489799
_cell_length_b 6.797305
_cell_length_c 11.482220
_cell_angle_alpha 90.000000
_cell_angle_beta 90.000000
_cell_angle_gamma 90.000000
_cell_volume 1443.094632
_symmetry_space_group_name_H-M "A B A 2"
_symmetry_group_IT_number 41
_symmetry_cell_setting 'orthorhombic'
loop_
_space_group_symop_operation_xyz
x,y,z
-x,-y,z
1/2-x,y,1/2+z
1/2+x,-y,1/2+z
x,1/2+y,1/2+z
-x,1/2-y,1/2+z
1/2-x,1/2+y,z
1/2+x,1/2-y,z
loop_
_atom_site_type_symbol
_atom_site_label
_atom_site_fract_x
_atom_site_fract_y
_atom_site_fract_z
Si Si1 0.070173 0.749457 0.569310
Si Si2 0.627510 0.008735 0.877887
Si Si3 0.698320 0.006127 0.155663
Si Si4 0.273600 0.376061 0.918030
Si Si5 0.913196 0.151987 0.133352
O O1 0.068798 0.907725 0.466096
O O2 0.139525 0.822354 0.641227
O O3 0.084237 0.519830 0.535213
O O4 0.992036 0.749934 0.630290
O O5 0.688656 0.176125 0.902124
O O6 0.596609 0.027235 0.750655
O O7 0.667017 0.799864 0.906923
O O8 0.722425 0.018464 0.289389
O O9 0.850201 0.312145 0.138519
O O10 0.758802 0.027635 0.050675
#
# Coordination Sequence:
#
# PCOD9367641 Si02
#       5
#     8   8   8   8   8
#     4  10  25  54  85 124 167 224 291 354 432 517
#     4  11  25  53  84 122 170 223 283 361 432 520
#     4  11  25  55  81 128 169 231 283 362 437 521
#     4  11  26  51  85 121 179 224 287 355 441 522
#     4  11  24  55  88 120 169 226 292 359 434 522
#
# _framework density 27.718212000000001
#
# number of rings (size 3 to 8) (size 9 to 14) (size 15 to 20)
#    0.000    1.200    2.000    1.800    0.000    6.400 
#   54.000    0.000    0.000    0.000    0.000    0.000 
#    0.000    0.000    0.000    0.000    0.000    0.000 
#
# Total GULP energy -111406.561126 kJ/mol
# GULP energy per Si atom -5570.328056 kJ/mol
# Density = 2.765512 g / cm^3
# Si number density = 27.718212 Si / 1000 Ang^3
#
#
#
# Elastic Constant Matrix: (Units=GPa)
#
#
# Indices 1 2 3 4 5 6 
#
# 1 172.7364 100.5181 82.3268 0.0000 0.0000 0.0000
# 2 100.5181 143.8896 99.6261 0.0000 0.0000 0.0000
# 3 82.3268 99.6261 217.5020 0.0000 0.0000 0.0000
# 4 0.0000 0.0000 0.0000 41.3710 0.0000 0.0000
# 5 0.0000 0.0000 0.0000 0.0000 43.9636 0.0000
# 6 0.0000 0.0000 0.0000 0.0000 0.0000 72.3536
#
#
#
# Elastic Compliance Matrix: (Units=1/GPa)
#
#
# Indices 1 2 3 4 5 6 
#
# 1 0.009859 -0.006302 -0.000845 0.000000 0.000000 0.000000
# 2 -0.006302 0.014206 -0.004122 0.000000 0.000000 0.000000
# 3 -0.000845 -0.004122 0.006805 0.000000 0.000000 0.000000
# 4 0.000000 0.000000 0.000000 0.024172 0.000000 0.000000
# 5 0.000000 0.000000 0.000000 0.000000 0.022746 0.000000
# 6 0.000000 0.000000 0.000000 0.000000 0.000000 0.013821
#
#
# Mechanical properties :
#
#
# Convention : Reuss Voigt Hill
#
# Bulk Modulus (GPa) = 120.00713 122.11889 121.06301
# Shear Modulus (GPa) = 42.76226 48.31479 45.53852
#
# Velocity S-wave (km/s) = 3.93205 4.17954 4.05768
# Velocity P-wave (km/s) = 8.00025 8.21245 8.10704
#
# Compressibility (1/GPa) = 0.00833284
#
# Stress axis : x y z
#
# Youngs Moduli (GPa) = 101.42549 70.39163 146.94227
#
# Poissons Ratio (x) = 0.44364 0.12418
# Poissons Ratio (y) = 0.63923 0.60563
# Poissons Ratio (z) = 0.08571 0.29012
#
# Static dielectric constant tensor:
#      x y z
#    x 2.163460 0.000000 0.000000 
#    y 0.000000 2.316950 0.000000 
#    z 0.000000 0.000000 2.338180 
# 
# From -- ./inp_files/5844.got.cif
#   From: 2010.05.17/outbox.cif.g08.bks.cpg/sg41_3_cif.got.tgz:5844.got - 2010.06.03 18:54:24.
