data_PCOD9367583
_publ_section_title
;
Structure prediction by ZEFSAII (Michael W. Deem and Ramdas Pophale) SiO2 
 PCOD9367583
Probable space group: A B A 2
;
_chemical_formula_sum "Si O2"
_cell_formula_units_Z 28
_cell_length_a 12.692586
_cell_length_b 10.692196
_cell_length_c 7.771041
_cell_angle_alpha 90.000000
_cell_angle_beta 90.000000
_cell_angle_gamma 90.000000
_cell_volume 1054.620542
_symmetry_space_group_name_H-M "A B A 2"
_symmetry_group_IT_number 41
_symmetry_cell_setting 'orthorhombic'
loop_
_space_group_symop_operation_xyz
x,y,z
-x,-y,z
1/2-x,y,1/2+z
1/2+x,-y,1/2+z
x,1/2+y,1/2+z
-x,1/2-y,1/2+z
1/2-x,1/2+y,z
1/2+x,1/2-y,z
loop_
_atom_site_type_symbol
_atom_site_label
_atom_site_fract_x
_atom_site_fract_y
_atom_site_fract_z
Si Si1 0.333165 0.572251 0.393540
Si Si2 0.523055 0.759501 0.675129
Si Si3 0.329436 0.796988 0.853692
Si Si4 0.500000 0.500000 0.684078
O O1 0.416405 0.622648 0.253178
O O2 0.248418 0.682918 0.386905
O O3 0.283653 0.436525 0.356045
O O4 0.402875 0.545916 0.563652
O O5 0.399383 0.790229 0.680711
O O6 0.582403 0.718454 0.502534
O O7 0.531461 0.626755 0.780582
#
# Coordination Sequence:
#
# PCOD9367583 Si02
#       4
#     8   8   8   4
#     4  11  24  49  70 110 149 194 253 307 374 453
#     4  11  23  48  73 105 156 190 246 316 369 447
#     4  11  27  46  79 106 152 199 252 311 380 450
#     4  10  24  48  66 112 156 188 248 320 366 458
#
# _framework density 26.549831999999999
#
# number of rings (size 3 to 8) (size 9 to 14) (size 15 to 20)
#    0.000    1.143    5.714    0.000    8.000    2.286 
#   10.286    0.000    0.000    0.000    0.000    0.000 
#    0.000    0.000    0.000    0.000    0.000    0.000 
#
# Total GULP energy -78213.487348 kJ/mol
# GULP energy per Si atom -5586.677668 kJ/mol
# Density = 2.648940 g / cm^3
# Si number density = 26.549832 Si / 1000 Ang^3
#
#
#
# Elastic Constant Matrix: (Units=GPa)
#
#
# Indices 1 2 3 4 5 6 
#
# 1 153.3174 95.8776 21.3530 0.0000 0.0000 0.0000
# 2 95.8776 300.7351 36.3559 0.0000 0.0000 0.0000
# 3 21.3530 36.3559 45.8578 0.0000 0.0000 0.0000
# 4 0.0000 0.0000 0.0000 37.2182 0.0000 0.0000
# 5 0.0000 0.0000 0.0000 0.0000 29.0619 0.0000
# 6 0.0000 0.0000 0.0000 0.0000 0.0000 54.9793
#
#
#
# Elastic Compliance Matrix: (Units=1/GPa)
#
#
# Indices 1 2 3 4 5 6 
#
# 1 0.008302 -0.002410 -0.001955 0.000000 0.000000 0.000000
# 2 -0.002410 0.004378 -0.002348 0.000000 0.000000 0.000000
# 3 -0.001955 -0.002348 0.024578 0.000000 0.000000 0.000000
# 4 0.000000 0.000000 0.000000 0.026869 0.000000 0.000000
# 5 0.000000 0.000000 0.000000 0.000000 0.034409 0.000000
# 6 0.000000 0.000000 0.000000 0.000000 0.000000 0.018189
#
#
# Mechanical properties :
#
#
# Convention : Reuss Voigt Hill
#
# Bulk Modulus (GPa) = 41.96160 89.67593 65.81877
# Shear Modulus (GPa) = 36.20700 47.34010 41.77355
#
# Velocity S-wave (km/s) = 3.69689 4.22722 3.97092
# Velocity P-wave (km/s) = 5.83625 7.59445 6.77264
#
# Compressibility (1/GPa) = 0.02383131
#
# Stress axis : x y z
#
# Youngs Moduli (GPa) = 120.45201 228.43908 40.68632
#
# Poissons Ratio (x) = 0.55065 0.07953
# Poissons Ratio (y) = 0.29035 0.09554
# Poissons Ratio (z) = 0.23545 0.53640
#
# Static dielectric constant tensor:
#      x y z
#    x 2.115460 0.000000 0.000000 
#    y 0.000000 2.102160 0.000000 
#    z 0.000000 0.000000 2.173280 
# 
# From -- ./inp_files/2271.got.cif
#   From: 2010.05.17/outbox.cif.g08.bks.cpg/sg41_2_cif.got.tgz:2271.got - 2010.06.03 18:54:24.
