data_PCOD9367258
_publ_section_title
;
Structure prediction by ZEFSAII (Michael W. Deem and Ramdas Pophale) SiO2 
 PCOD9367258
Probable space group: A B A 2
;
_chemical_formula_sum "Si O2"
_cell_formula_units_Z 60
_cell_length_a 10.622019
_cell_length_b 25.213973
_cell_length_c 9.312065
_cell_angle_alpha 90.000000
_cell_angle_beta 90.000000
_cell_angle_gamma 90.000000
_cell_volume 2493.987981
_symmetry_space_group_name_H-M "A B A 2"
_symmetry_group_IT_number 41
_symmetry_cell_setting 'orthorhombic'
loop_
_space_group_symop_operation_xyz
x,y,z
-x,-y,z
1/2-x,y,1/2+z
1/2+x,-y,1/2+z
x,1/2+y,1/2+z
-x,1/2-y,1/2+z
1/2-x,1/2+y,z
1/2+x,1/2-y,z
loop_
_atom_site_type_symbol
_atom_site_label
_atom_site_fract_x
_atom_site_fract_y
_atom_site_fract_z
Si Si1 0.401139 0.328858 0.224720
Si Si2 0.500000 0.500000 0.224246
Si Si3 0.089156 0.409518 0.188911
Si Si4 0.892490 0.893840 0.097527
Si Si5 0.976024 0.764897 0.915273
Si Si6 0.837515 0.869463 0.791802
Si Si7 0.201193 0.433650 0.887585
Si Si8 0.851611 0.213609 0.684155
O O1 0.487176 0.354452 0.101405
O O2 0.464387 0.293171 0.344367
O O3 0.345792 0.378907 0.312184
O O4 0.296632 0.289409 0.161243
O O5 0.553860 0.450701 0.137083
O O6 0.382994 0.479180 0.317371
O O7 0.154156 0.432591 0.333830
O O8 0.111931 0.347286 0.160842
O O9 0.938536 0.406729 0.207437
O O10 0.163569 0.434909 0.054678
O O11 0.793657 0.870062 0.210585
O O12 0.824178 0.895335 0.946964
O O13 0.892002 0.810569 0.833553
O O14 0.114941 0.777856 0.852175
O O15 0.924737 0.752328 0.075331
#
# Coordination Sequence:
#
# PCOD9367258 Si02
#       8
#     8   4   8   8   8   8   8   8
#     4  10  23  41  72  97 146 194 247 299 361 442
#     4  10  26  48  82 104 144 194 250 304 396 426
#     4  10  23  45  71 108 145 191 240 308 373 439
#     4  11  27  52  72 108 148 196 250 320 367 455
#     4  11  23  40  69 104 143 196 243 296 367 432
#     4  11  28  45  73 107 155 191 248 308 380 437
#     4  10  22  45  74 106 143 185 242 307 365 452
#     4  10  23  41  64 105 142 196 248 297 361 438
#
# _framework density 24.057853999999999
#
# number of rings (size 3 to 8) (size 9 to 14) (size 15 to 20)
#    0.000    1.600    1.333    0.800   13.067    3.200 
#    0.000    0.000    0.000    0.000    0.000    0.000 
#    0.000    0.000    0.000    0.000    0.000    0.000 
#
# Total GULP energy -167395.181673 kJ/mol
# GULP energy per Si atom -5579.839389 kJ/mol
# Density = 2.400310 g / cm^3
# Si number density = 24.057854 Si / 1000 Ang^3
#
#
#
# Elastic Constant Matrix: (Units=GPa)
#
#
# Indices 1 2 3 4 5 6 
#
# 1 103.2700 23.9204 47.4193 0.0000 0.0000 0.0000
# 2 23.9204 84.1250 18.0006 0.0000 0.0000 0.0000
# 3 47.4193 18.0006 140.7565 0.0000 0.0000 0.0000
# 4 0.0000 0.0000 0.0000 12.3854 0.0000 0.0000
# 5 0.0000 0.0000 0.0000 0.0000 31.6010 0.0000
# 6 0.0000 0.0000 0.0000 0.0000 0.0000 23.4011
#
#
#
# Elastic Compliance Matrix: (Units=1/GPa)
#
#
# Indices 1 2 3 4 5 6 
#
# 1 0.011991 -0.002617 -0.003705 0.000000 0.000000 0.000000
# 2 -0.002617 0.012793 -0.000754 0.000000 0.000000 0.000000
# 3 -0.003705 -0.000754 0.008449 0.000000 0.000000 0.000000
# 4 0.000000 0.000000 0.000000 0.080740 0.000000 0.000000
# 5 0.000000 0.000000 0.000000 0.000000 0.031645 0.000000
# 6 0.000000 0.000000 0.000000 0.000000 0.000000 0.042733
#
#
# Mechanical properties :
#
#
# Convention : Reuss Voigt Hill
#
# Bulk Modulus (GPa) = 52.41024 56.31467 54.36246
# Shear Modulus (GPa) = 23.93921 29.39823 26.66872
#
# Velocity S-wave (km/s) = 3.15789 3.49948 3.33306
# Velocity P-wave (km/s) = 5.92695 6.30772 6.12030
#
# Compressibility (1/GPa) = 0.01908024
#
# Stress axis : x y z
#
# Youngs Moduli (GPa) = 83.39824 78.17050 118.35602
#
# Poissons Ratio (x) = 0.20455 0.43850
# Poissons Ratio (y) = 0.21823 0.08929
# Poissons Ratio (z) = 0.30898 0.05897
#
# Static dielectric constant tensor:
#      x y z
#    x 2.034010 0.000000 0.000000 
#    y 0.000000 1.893460 0.000000 
#    z 0.000000 0.000000 1.981690 
# 
# From -- ./inp_files/2164.got.cif
#   From: 2010.05.17/outbox.cif.g08.bks.cpg/sg41_2_cif.got.tgz:2164.got - 2010.06.03 18:54:24.
