data_PCOD9367866
_publ_section_title
;
Structure prediction by ZEFSAII (Michael W. Deem and Ramdas Pophale) SiO2 
 PCOD9367866
Probable space group: A B A 2
;
_chemical_formula_sum "Si O2"
_cell_formula_units_Z 48
_cell_length_a 14.873545
_cell_length_b 11.165047
_cell_length_c 13.521588
_cell_angle_alpha 90.000000
_cell_angle_beta 90.000000
_cell_angle_gamma 90.000000
_cell_volume 2245.446677
_symmetry_space_group_name_H-M "A B A 2"
_symmetry_group_IT_number 41
_symmetry_cell_setting 'orthorhombic'
loop_
_space_group_symop_operation_xyz
x,y,z
-x,-y,z
1/2-x,y,1/2+z
1/2+x,-y,1/2+z
x,1/2+y,1/2+z
-x,1/2-y,1/2+z
1/2-x,1/2+y,z
1/2+x,1/2-y,z
loop_
_atom_site_type_symbol
_atom_site_label
_atom_site_fract_x
_atom_site_fract_y
_atom_site_fract_z
Si Si1 0.439282 0.398923 0.402280
Si Si2 0.607743 0.737986 0.942785
Si Si3 0.290231 0.723843 0.831724
Si Si4 0.273184 0.704110 0.600202
Si Si5 0.604037 0.512375 0.808042
Si Si6 0.173909 0.945003 0.586511
O O1 0.500000 0.500000 0.348225
O O2 0.512219 0.294884 0.418694
O O3 0.350080 0.342855 0.352256
O O4 0.404851 0.457198 0.505383
O O5 0.697450 0.793902 0.891386
O O6 0.612315 0.607509 0.895717
O O7 0.629155 0.757467 0.057994
O O8 0.267434 0.718034 0.716713
O O9 0.353553 0.609844 0.846784
O O10 0.210866 0.812216 0.561951
O O11 0.262661 0.562983 0.574966
O O12 0.500000 0.500000 0.784740
O O13 0.647309 0.550378 0.702525
#
# Coordination Sequence:
#
# PCOD9367866 Si02
#       6
#     8   8   8   8   8   8
#     4  12  25  42  70 101 135 185 228 287 342 423
#     4  12  25  42  69 100 135 180 231 280 354 411
#     4  11  26  46  68 100 139 179 235 285 350 417
#     4  11  25  44  71 102 139 183 228 291 347 417
#     4  11  24  45  69  99 138 183 228 291 348 419
#     4  11  24  45  71 102 140 181 235 281 355 413
#
# _framework density 21.376591999999999
#
# number of rings (size 3 to 8) (size 9 to 14) (size 15 to 20)
#    0.000    0.667    6.667    0.500    7.000    0.000 
#    0.000    0.833    0.000    0.000    0.000    0.000 
#    0.000    0.000    0.000    0.000    0.000    0.000 
#
# Total GULP energy -133788.367809 kJ/mol
# GULP energy per Si atom -5574.515325 kJ/mol
# Density = 2.132794 g / cm^3
# Si number density = 21.376592 Si / 1000 Ang^3
#
#
#
# Elastic Constant Matrix: (Units=GPa)
#
#
# Indices 1 2 3 4 5 6 
#
# 1 82.1166 24.1150 0.1733 0.0000 0.0000 0.0000
# 2 24.1150 113.7659 9.3051 0.0000 0.0000 0.0000
# 3 0.1733 9.3051 54.0587 0.0000 0.0000 0.0000
# 4 0.0000 0.0000 0.0000 33.4909 0.0000 0.0000
# 5 0.0000 0.0000 0.0000 0.0000 15.3882 0.0000
# 6 0.0000 0.0000 0.0000 0.0000 0.0000 40.2124
#
#
#
# Elastic Compliance Matrix: (Units=1/GPa)
#
#
# Indices 1 2 3 4 5 6 
#
# 1 0.012996 -0.002791 0.000439 0.000000 0.000000 0.000000
# 2 -0.002791 0.009515 -0.001629 0.000000 0.000000 0.000000
# 3 0.000439 -0.001629 0.018777 0.000000 0.000000 0.000000
# 4 0.000000 0.000000 0.000000 0.029859 0.000000 0.000000
# 5 0.000000 0.000000 0.000000 0.000000 0.064985 0.000000
# 6 0.000000 0.000000 0.000000 0.000000 0.000000 0.024868
#
#
# Mechanical properties :
#
#
# Convention : Reuss Voigt Hill
#
# Bulk Modulus (GPa) = 30.00585 35.23645 32.62115
# Shear Modulus (GPa) = 27.76683 32.24149 30.00416
#
# Velocity S-wave (km/s) = 3.60799 3.88785 3.75053
# Velocity P-wave (km/s) = 5.60571 6.05584 5.83512
#
# Compressibility (1/GPa) = 0.03332683
#
# Stress axis : x y z
#
# Youngs Moduli (GPa) = 76.94423 105.09986 53.25559
#
# Poissons Ratio (x) = 0.29331 -0.02336
# Poissons Ratio (y) = 0.21473 0.08674
# Poissons Ratio (z) = -0.03376 0.17119
#
# Static dielectric constant tensor:
#      x y z
#    x 1.828960 0.000000 0.000000 
#    y 0.000000 1.819980 0.000000 
#    z 0.000000 0.000000 1.776420 
# 
# From -- ./inp_files/8328.got.cif
#   From: 2010.05.17/outbox.cif.g08.bks.cpg/sg41_5_cif.got.tgz:8328.got - 2010.06.03 18:54:24.
