data_PCOD9367183
_publ_section_title
;
Structure prediction by ZEFSAII (Michael W. Deem and Ramdas Pophale) SiO2 
 PCOD9367183
Probable space group: A B A 2
;
_chemical_formula_sum "Si O2"
_cell_formula_units_Z 64
_cell_length_a 12.733064
_cell_length_b 11.203978
_cell_length_c 18.083986
_cell_angle_alpha 90.000000
_cell_angle_beta 90.000000
_cell_angle_gamma 90.000000
_cell_volume 2579.878965
_symmetry_space_group_name_H-M "A B A 2"
_symmetry_group_IT_number 41
_symmetry_cell_setting 'orthorhombic'
loop_
_space_group_symop_operation_xyz
x,y,z
-x,-y,z
1/2-x,y,1/2+z
1/2+x,-y,1/2+z
x,1/2+y,1/2+z
-x,1/2-y,1/2+z
1/2-x,1/2+y,z
1/2+x,1/2-y,z
loop_
_atom_site_type_symbol
_atom_site_label
_atom_site_fract_x
_atom_site_fract_y
_atom_site_fract_z
Si Si1 0.115044 0.461884 0.466600
Si Si2 0.859056 0.770955 0.684857
Si Si3 0.411019 0.593339 0.288423
Si Si4 0.663874 0.940072 0.311534
Si Si5 0.949426 0.732017 0.082281
Si Si6 0.247957 0.592541 0.562915
Si Si7 0.418140 0.689683 0.448679
Si Si8 0.355218 0.343313 0.714571
O O1 0.140996 0.550931 0.398472
O O2 0.199011 0.470501 0.532601
O O3 0.110971 0.328068 0.436829
O O4 0.000000 0.500000 0.493880
O O5 0.881801 0.827496 0.765746
O O6 0.807684 0.882102 0.639145
O O7 0.768329 0.675225 0.700151
O O8 0.947476 0.724377 0.628112
O O9 0.500000 0.500000 0.260970
O O10 0.289611 0.553024 0.297682
O O11 0.441555 0.629198 0.371572
O O12 0.398673 0.713785 0.240314
O O13 0.619360 0.058831 0.274349
O O14 0.855344 0.824400 0.071717
O O15 0.908132 0.629433 0.136422
O O16 0.983203 0.686489 0.003041
O O17 0.324423 0.634065 0.497052
#
# Coordination Sequence:
#
# PCOD9367183 Si02
#       8
#     8   8   8   8   8   8   8   8
#     4  12  24  42  72 100 131 184 226 274 341 410
#     4   9  23  41  66  98 137 178 224 278 340 402
#     4  11  25  46  70 101 135 184 229 280 353 412
#     4  11  24  44  68 100 138 175 228 286 338 413
#     4  10  22  43  66  97 135 179 224 274 338 403
#     4  10  22  45  65 101 136 179 228 278 337 404
#     4  11  23  45  67 101 140 173 227 287 335 405
#     4  10  23  44  66 101 133 178 225 286 339 399
#
# _framework density 24.807364
#
# number of rings (size 3 to 8) (size 9 to 14) (size 15 to 20)
#    0.000    1.500    3.750    0.000    3.500    4.000 
#   11.250    0.000    0.000    0.000    0.000    0.000 
#    0.000    0.000    0.000    0.000    0.000    0.000 
#
# Total GULP energy -178974.380609 kJ/mol
# GULP energy per Si atom -5592.949394 kJ/mol
# Density = 2.475090 g / cm^3
# Si number density = 24.807364 Si / 1000 Ang^3
#
#
#
# Elastic Constant Matrix: (Units=GPa)
#
#
# Indices 1 2 3 4 5 6 
#
# 1 81.6173 8.5222 -6.1658 0.0000 0.0000 0.0000
# 2 8.5222 37.0213 0.2164 0.0000 0.0000 0.0000
# 3 -6.1658 0.2164 96.0597 0.0000 0.0000 0.0000
# 4 0.0000 0.0000 0.0000 28.9776 0.0000 0.0000
# 5 0.0000 0.0000 0.0000 0.0000 35.5104 0.0000
# 6 0.0000 0.0000 0.0000 0.0000 0.0000 33.5924
#
#
#
# Elastic Compliance Matrix: (Units=1/GPa)
#
#
# Indices 1 2 3 4 5 6 
#
# 1 0.012618 -0.002909 0.000816 0.000000 0.000000 0.000000
# 2 -0.002909 0.027683 -0.000249 0.000000 0.000000 0.000000
# 3 0.000816 -0.000249 0.010463 0.000000 0.000000 0.000000
# 4 0.000000 0.000000 0.000000 0.034509 0.000000 0.000000
# 5 0.000000 0.000000 0.000000 0.000000 0.028161 0.000000
# 6 0.000000 0.000000 0.000000 0.000000 0.000000 0.029769
#
#
# Mechanical properties :
#
#
# Convention : Reuss Voigt Hill
#
# Bulk Modulus (GPa) = 21.70158 24.42710 23.06434
# Shear Modulus (GPa) = 30.62857 33.75779 32.19318
#
# Velocity S-wave (km/s) = 3.51758 3.69290 3.60631
# Velocity P-wave (km/s) = 5.02642 5.29636 5.16315
#
# Compressibility (1/GPa) = 0.04607960
#
# Stress axis : x y z
#
# Youngs Moduli (GPa) = 79.25335 36.12368 95.57342
#
# Poissons Ratio (x) = 0.10510 -0.07803
# Poissons Ratio (y) = 0.23058 0.02381
# Poissons Ratio (z) = -0.06471 0.00900
#
# Static dielectric constant tensor:
#      x y z
#    x 2.043040 0.000000 0.000000 
#    y 0.000000 1.979610 0.000000 
#    z 0.000000 0.000000 1.931220 
# 
# From -- ./inp_files/10400.got.cif
#   From: 2010.05.17/outbox.cif.g08.bks.cpg/sg41_6_cif.got.tgz:10400.got - 2010.06.03 18:54:24.
