data_PCOD9367315
_publ_section_title
;
Structure prediction by ZEFSAII (Michael W. Deem and Ramdas Pophale) SiO2 
 PCOD9367315
Probable space group: A B A 2
;
_chemical_formula_sum "Si O2"
_cell_formula_units_Z 36
_cell_length_a 23.001522
_cell_length_b 5.047948
_cell_length_c 12.851049
_cell_angle_alpha 90.000000
_cell_angle_beta 90.000000
_cell_angle_gamma 90.000000
_cell_volume 1492.141558
_symmetry_space_group_name_H-M "A B A 2"
_symmetry_group_IT_number 41
_symmetry_cell_setting 'orthorhombic'
loop_
_space_group_symop_operation_xyz
x,y,z
-x,-y,z
1/2-x,y,1/2+z
1/2+x,-y,1/2+z
x,1/2+y,1/2+z
-x,1/2-y,1/2+z
1/2-x,1/2+y,z
1/2+x,1/2-y,z
loop_
_atom_site_type_symbol
_atom_site_label
_atom_site_fract_x
_atom_site_fract_y
_atom_site_fract_z
Si Si1 0.347360 0.113528 0.143700
Si Si2 0.000000 0.000000 0.219300
Si Si3 0.285810 0.188674 0.942722
Si Si4 0.410195 0.619498 0.073577
Si Si5 0.886764 0.155261 0.350852
O O1 0.396243 0.312354 0.094559
O O2 0.349786 0.190105 0.263539
O O3 0.362052 0.806891 0.126758
O O4 0.294149 0.177137 0.067974
O O5 0.031440 0.193971 0.135968
O O6 0.946664 0.077241 0.293644
O O7 0.263848 0.477470 0.915074
O O8 0.345355 0.082464 0.891288
O O9 0.405736 0.681017 0.952410
#
# Coordination Sequence:
#
# PCOD9367315 Si02
#       5
#     8   4   8   8   8
#     4  10  23  43  65  94 131 174 226 278 331 392
#     4  10  24  42  70 106 140 180 224 276 338 410
#     4  11  24  43  68 100 137 177 228 283 331 398
#     4  10  23  41  63  97 135 171 222 277 326 397
#     4  10  24  44  71  99 137 183 224 275 347 406
#
# _framework density 24.126398999999999
#
# number of rings (size 3 to 8) (size 9 to 14) (size 15 to 20)
#    0.000    1.778    0.000    2.667    0.000   24.889 
#    0.000    0.000    0.000    0.000    0.000    0.000 
#    0.000    0.000    0.000    0.000    0.000    0.000 
#
# Total GULP energy -100501.677714 kJ/mol
# GULP energy per Si atom -5583.426540 kJ/mol
# Density = 2.407149 g / cm^3
# Si number density = 24.126399 Si / 1000 Ang^3
#
#
#
# Elastic Constant Matrix: (Units=GPa)
#
#
# Indices 1 2 3 4 5 6 
#
# 1 115.7569 21.9224 63.5172 0.0000 0.0000 0.0000
# 2 21.9224 37.5451 32.3654 0.0000 0.0000 0.0000
# 3 63.5172 32.3654 207.5058 0.0000 0.0000 0.0000
# 4 0.0000 0.0000 0.0000 22.2290 0.0000 0.0000
# 5 0.0000 0.0000 0.0000 0.0000 63.8282 0.0000
# 6 0.0000 0.0000 0.0000 0.0000 0.0000 23.7250
#
#
#
# Elastic Compliance Matrix: (Units=1/GPa)
#
#
# Indices 1 2 3 4 5 6 
#
# 1 0.010885 -0.004025 -0.002704 0.000000 0.000000 0.000000
# 2 -0.004025 0.032260 -0.003800 0.000000 0.000000 0.000000
# 3 -0.002704 -0.003800 0.006240 0.000000 0.000000 0.000000
# 4 0.000000 0.000000 0.000000 0.044986 0.000000 0.000000
# 5 0.000000 0.000000 0.000000 0.000000 0.015667 0.000000
# 6 0.000000 0.000000 0.000000 0.000000 0.000000 0.042150
#
#
# Mechanical properties :
#
#
# Convention : Reuss Voigt Hill
#
# Bulk Modulus (GPa) = 35.30135 66.26864 50.78499
# Shear Modulus (GPa) = 27.36926 38.15663 32.76295
#
# Velocity S-wave (km/s) = 3.37176 3.98116 3.68906
# Velocity P-wave (km/s) = 5.46095 6.97565 6.26425
#
# Compressibility (1/GPa) = 0.02832753
#
# Stress axis : x y z
#
# Youngs Moduli (GPa) = 91.87180 30.99804 160.26857
#
# Poissons Ratio (x) = 0.12475 0.43338
# Poissons Ratio (y) = 0.36974 0.60899
# Poissons Ratio (z) = 0.24843 0.11779
#
# Static dielectric constant tensor:
#      x y z
#    x 1.984100 0.000000 0.000000 
#    y 0.000000 1.950680 0.000000 
#    z 0.000000 0.000000 1.939540 
# 
# From -- ./inp_files/6359.got.cif
#   From: 2010.05.17/outbox.cif.g08.bks.cpg/sg41_4_cif.got.tgz:6359.got - 2010.06.03 18:54:24.
