data_PCOD9367002
_publ_section_title
;
Structure prediction by ZEFSAII (Michael W. Deem and Ramdas Pophale) SiO2 
 PCOD9367002
Probable space group: A B A 2
;
_chemical_formula_sum "Si O2"
_cell_formula_units_Z 52
_cell_length_a 16.694662
_cell_length_b 9.909537
_cell_length_c 14.350913
_cell_angle_alpha 90.000000
_cell_angle_beta 90.000000
_cell_angle_gamma 90.000000
_cell_volume 2374.162964
_symmetry_space_group_name_H-M "A B A 2"
_symmetry_group_IT_number 41
_symmetry_cell_setting 'orthorhombic'
loop_
_space_group_symop_operation_xyz
x,y,z
-x,-y,z
1/2-x,y,1/2+z
1/2+x,-y,1/2+z
x,1/2+y,1/2+z
-x,1/2-y,1/2+z
1/2-x,1/2+y,z
1/2+x,1/2-y,z
loop_
_atom_site_type_symbol
_atom_site_label
_atom_site_fract_x
_atom_site_fract_y
_atom_site_fract_z
Si Si1 0.730181 0.933320 0.586530
Si Si2 0.998393 0.845133 0.531960
Si Si3 0.179114 0.518556 0.799231
Si Si4 0.314638 0.318371 0.828492
Si Si5 0.000000 0.000000 0.349292
Si Si6 0.917547 0.084582 0.992892
Si Si7 0.333311 0.335486 0.606502
O O1 0.712320 0.959098 0.695673
O O2 0.654651 0.999249 0.536164
O O3 0.809685 0.018442 0.567181
O O4 0.732318 0.773611 0.573941
O O5 0.082674 0.789281 0.566495
O O6 0.998255 0.874354 0.421160
O O7 0.934327 0.726766 0.546900
O O8 0.000000 0.000000 0.572142
O O9 0.231270 0.398271 0.842463
O O10 0.194079 0.660166 0.850977
O O11 0.083798 0.494854 0.795946
O O12 0.384755 0.380221 0.890332
O O13 0.335866 0.331942 0.718632
O O14 0.000000 0.000000 0.991726
#
# Coordination Sequence:
#
# PCOD9367002 Si02
#       7
#     8   8   8   8   4   8   8
#     4  10  24  38  67  89 127 163 213 262 325 384
#     4  10  23  40  60  90 127 162 215 260 328 384
#     4  10  22  44  64  94 123 170 212 266 326 395
#     4  10  23  42  64  91 131 166 221 262 329 391
#     4  10  22  38  68  90 122 162 214 258 328 380
#     4  12  24  41  62  99 127 168 215 274 326 382
#     4  10  22  43  62  91 125 173 211 268 320 399
#
# _framework density 21.902453999999999
#
# number of rings (size 3 to 8) (size 9 to 14) (size 15 to 20)
#    0.462    1.231    3.077    0.000    5.385    3.077 
#    0.000    0.000    0.000    0.000    0.000    0.000 
#    0.000    0.000    0.000    0.000    0.000    0.000 
#
# Total GULP energy -145072.781769 kJ/mol
# GULP energy per Si atom -5579.722376 kJ/mol
# Density = 2.185260 g / cm^3
# Si number density = 21.902454 Si / 1000 Ang^3
#
#
#
# Elastic Constant Matrix: (Units=GPa)
#
#
# Indices 1 2 3 4 5 6 
#
# 1 97.2416 17.4721 -2.5423 0.0000 0.0000 0.0000
# 2 17.4721 103.8736 5.9660 0.0000 0.0000 0.0000
# 3 -2.5423 5.9660 27.0848 0.0000 0.0000 0.0000
# 4 0.0000 0.0000 0.0000 13.9699 0.0000 0.0000
# 5 0.0000 0.0000 0.0000 0.0000 20.8730 0.0000
# 6 0.0000 0.0000 0.0000 0.0000 0.0000 41.5691
#
#
#
# Elastic Compliance Matrix: (Units=1/GPa)
#
#
# Indices 1 2 3 4 5 6 
#
# 1 0.010657 -0.001874 0.001413 0.000000 0.000000 0.000000
# 2 -0.001874 0.010080 -0.002396 0.000000 0.000000 0.000000
# 3 0.001413 -0.002396 0.037581 0.000000 0.000000 0.000000
# 4 0.000000 0.000000 0.000000 0.071582 0.000000 0.000000
# 5 0.000000 0.000000 0.000000 0.000000 0.047909 0.000000
# 6 0.000000 0.000000 0.000000 0.000000 0.000000 0.024056
#
#
# Mechanical properties :
#
#
# Convention : Reuss Voigt Hill
#
# Bulk Modulus (GPa) = 19.00964 29.99906 24.50435
# Shear Modulus (GPa) = 22.21090 29.10270 25.65680
#
# Velocity S-wave (km/s) = 3.18792 3.64915 3.42630
# Velocity P-wave (km/s) = 4.71683 5.61083 5.18314
#
# Compressibility (1/GPa) = 0.05260489
#
# Stress axis : x y z
#
# Youngs Moduli (GPa) = 93.83253 99.20751 26.60887
#
# Poissons Ratio (x) = 0.18589 -0.03760
# Poissons Ratio (y) = 0.17582 0.06376
# Poissons Ratio (z) = -0.13259 0.23772
#
# Static dielectric constant tensor:
#      x y z
#    x 1.764050 0.000000 0.000000 
#    y 0.000000 1.870640 0.000000 
#    z 0.000000 0.000000 1.790970 
# 
# From -- ./inp_files/10567.got.cif
#   From: 2010.05.17/outbox.cif.g08.bks.cpg/sg41_6_cif.got.tgz:10567.got - 2010.06.03 18:54:24.
