data_PCOD9367756
_publ_section_title
;
Structure prediction by ZEFSAII (Michael W. Deem and Ramdas Pophale) SiO2 
 PCOD9367756
Probable space group: A B A 2
;
_chemical_formula_sum "Si O2"
_cell_formula_units_Z 56
_cell_length_a 14.480324
_cell_length_b 10.903149
_cell_length_c 16.587143
_cell_angle_alpha 90.000000
_cell_angle_beta 90.000000
_cell_angle_gamma 90.000000
_cell_volume 2618.796883
_symmetry_space_group_name_H-M "A B A 2"
_symmetry_group_IT_number 41
_symmetry_cell_setting 'orthorhombic'
loop_
_space_group_symop_operation_xyz
x,y,z
-x,-y,z
1/2-x,y,1/2+z
1/2+x,-y,1/2+z
x,1/2+y,1/2+z
-x,1/2-y,1/2+z
1/2-x,1/2+y,z
1/2+x,1/2-y,z
loop_
_atom_site_type_symbol
_atom_site_label
_atom_site_fract_x
_atom_site_fract_y
_atom_site_fract_z
Si Si1 0.841060 0.650131 0.634470
Si Si2 0.149918 0.574808 0.436507
Si Si3 0.500000 0.000000 0.549951
Si Si4 0.104862 0.181800 0.781461
Si Si5 0.395138 0.318201 0.847430
Si Si6 0.000000 0.000000 0.578940
Si Si7 0.350082 0.925193 0.192384
Si Si8 0.658940 0.349868 0.494421
O O1 0.871615 0.712859 0.718408
O O2 0.746907 0.575434 0.647508
O O3 0.823472 0.750000 0.564446
O O4 0.925290 0.569675 0.602623
O O5 0.061387 0.591437 0.494326
O O6 0.158775 0.675802 0.366161
O O7 0.128183 0.444473 0.394471
O O8 0.246907 0.575435 0.481383
O O9 1.000000 0.181555 0.814445
O O10 0.128184 0.055529 0.734420
O O11 0.341224 0.324199 0.762730
O O12 0.371614 0.212861 0.910483
O O13 0.061388 0.908564 0.634565
O O14 0.925290 0.930325 0.526268
#
# Coordination Sequence:
#
# PCOD9367756 Si02
#       8
#     8   8   4   8   8   4   8   8
#     4  12  26  43  70 106 136 180 235 294 352 403
#     4  11  22  45  71  96 137 181 235 274 347 428
#     4  12  24  47  69 104 144 178 228 298 347 420
#     4  11  22  46  70  97 138 190 227 282 352 416
#     4  11  22  46  70  97 138 190 227 282 352 416
#     4  12  24  47  69 104 144 178 228 298 347 420
#     4  11  22  45  71  96 137 181 235 274 347 428
#     4  12  26  43  70 106 136 180 235 294 352 403
#
# _framework density 21.383865
#
# number of rings (size 3 to 8) (size 9 to 14) (size 15 to 20)
#    0.000    0.571    5.714    2.571    0.000    3.429 
#   10.286    0.000    0.000    0.000    0.000    0.000 
#    0.000    0.000    0.000    0.000    0.000    0.000 
#
# Total GULP energy -156500.696784 kJ/mol
# GULP energy per Si atom -5589.310599 kJ/mol
# Density = 2.133519 g / cm^3
# Si number density = 21.383865 Si / 1000 Ang^3
#
#
#
# Elastic Constant Matrix: (Units=GPa)
#
#
# Indices 1 2 3 4 5 6 
#
# 1 200.1699 42.7229 92.4542 0.0000 0.0000 0.0000
# 2 42.7229 28.9199 42.4278 0.0000 0.0000 0.0000
# 3 92.4542 42.4278 149.5364 0.0000 0.0000 0.0000
# 4 0.0000 0.0000 0.0000 15.5133 0.0000 0.0000
# 5 0.0000 0.0000 0.0000 0.0000 122.8278 0.0000
# 6 0.0000 0.0000 0.0000 0.0000 0.0000 27.3110
#
#
#
# Elastic Compliance Matrix: (Units=1/GPa)
#
#
# Indices 1 2 3 4 5 6 
#
# 1 0.007880 -0.007698 -0.002688 0.000000 0.000000 0.000000
# 2 -0.007698 0.066754 -0.014181 0.000000 0.000000 0.000000
# 3 -0.002688 -0.014181 0.012373 0.000000 0.000000 0.000000
# 4 0.000000 0.000000 0.000000 0.064461 0.000000 0.000000
# 5 0.000000 0.000000 0.000000 0.000000 0.008141 0.000000
# 6 0.000000 0.000000 0.000000 0.000000 0.000000 0.036615
#
#
# Mechanical properties :
#
#
# Convention : Reuss Voigt Hill
#
# Bulk Modulus (GPa) = 26.40328 81.53732 53.97030
# Shear Modulus (GPa) = 19.38111 46.53183 32.95647
#
# Velocity S-wave (km/s) = 3.01382 4.66985 3.93005
# Velocity P-wave (km/s) = 4.94822 8.20303 6.77402
#
# Compressibility (1/GPa) = 0.03787408
#
# Stress axis : x y z
#
# Youngs Moduli (GPa) = 126.89909 14.98031 80.82244
#
# Poissons Ratio (x) = 0.11531 0.21726
# Poissons Ratio (y) = 0.97684 1.14613
# Poissons Ratio (z) = 0.34111 0.21243
#
# Static dielectric constant tensor:
#      x y z
#    x 1.751090 0.000000 0.000000 
#    y 0.000000 1.766310 0.000000 
#    z 0.000000 0.000000 1.838610 
# 
# From -- ./inp_files/8411.got.cif
#   From: 2010.05.17/outbox.cif.g08.bks.cpg/sg41_5_cif.got.tgz:8411.got - 2010.06.03 18:54:24.
