data_PCOD9367111
_publ_section_title
;
Structure prediction by ZEFSAII (Michael W. Deem and Ramdas Pophale) SiO2 
 PCOD9367111
Probable space group: A B A 2
;
_chemical_formula_sum "Si O2"
_cell_formula_units_Z 40
_cell_length_a 5.358104
_cell_length_b 22.625796
_cell_length_c 14.706376
_cell_angle_alpha 90.000000
_cell_angle_beta 90.000000
_cell_angle_gamma 90.000000
_cell_volume 1782.874082
_symmetry_space_group_name_H-M "A B A 2"
_symmetry_group_IT_number 41
_symmetry_cell_setting 'orthorhombic'
loop_
_space_group_symop_operation_xyz
x,y,z
-x,-y,z
1/2-x,y,1/2+z
1/2+x,-y,1/2+z
x,1/2+y,1/2+z
-x,1/2-y,1/2+z
1/2-x,1/2+y,z
1/2+x,1/2-y,z
loop_
_atom_site_type_symbol
_atom_site_label
_atom_site_fract_x
_atom_site_fract_y
_atom_site_fract_z
Si Si1 0.214463 0.713346 0.717030
Si Si2 0.251297 0.943421 0.841683
Si Si3 0.500000 0.000000 0.499171
Si Si4 0.739924 0.369354 0.375710
Si Si5 0.000000 0.500000 0.180014
Si Si6 0.243271 0.104316 0.082326
O O1 0.470367 0.747906 0.698148
O O2 0.225703 0.691692 0.821434
O O3 0.200572 0.654403 0.655976
O O4 0.503483 0.907132 0.841838
O O5 0.006532 0.900442 0.851960
O O6 0.215146 0.980951 0.750587
O O7 0.223648 0.986862 0.928611
O O8 0.476270 0.058043 0.559237
O O9 0.707018 0.366365 0.484359
O O10 0.942943 0.442625 0.120268
#
# Coordination Sequence:
#
# PCOD9367111 Si02
#       6
#     8   8   4   8   4   8
#     4  12  29  50  74 101 139 195 254 299 346 413
#     4  10  22  41  70 103 152 186 222 280 371 434
#     4   9  22  40  67 116 146 182 227 288 375 450
#     4  11  24  48  69 101 144 192 235 294 354 425
#     4  11  22  38  71 118 148 188 223 300 365 456
#     4  11  25  43  75 112 146 190 237 299 365 440
#
# _framework density 22.435686
#
# number of rings (size 3 to 8) (size 9 to 14) (size 15 to 20)
#    0.000    1.200    2.000    2.400    2.800   11.200 
#    0.000    0.000    0.000    0.000    0.000    0.000 
#    0.000    0.000    0.000    0.000    0.000    0.000 
#
# Total GULP energy -111835.798956 kJ/mol
# GULP energy per Si atom -5591.789948 kJ/mol
# Density = 2.238462 g / cm^3
# Si number density = 22.435686 Si / 1000 Ang^3
#
#
#
# Elastic Constant Matrix: (Units=GPa)
#
#
# Indices 1 2 3 4 5 6 
#
# 1 140.5749 36.8154 22.5823 0.0000 0.0000 0.0000
# 2 36.8154 109.4719 52.1530 0.0000 0.0000 0.0000
# 3 22.5823 52.1530 146.9868 0.0000 0.0000 0.0000
# 4 0.0000 0.0000 0.0000 51.9407 0.0000 0.0000
# 5 0.0000 0.0000 0.0000 0.0000 17.1905 0.0000
# 6 0.0000 0.0000 0.0000 0.0000 0.0000 36.0869
#
#
#
# Elastic Compliance Matrix: (Units=1/GPa)
#
#
# Indices 1 2 3 4 5 6 
#
# 1 0.007813 -0.002474 -0.000323 0.000000 0.000000 0.000000
# 2 -0.002474 0.011776 -0.003798 0.000000 0.000000 0.000000
# 3 -0.000323 -0.003798 0.008201 0.000000 0.000000 0.000000
# 4 0.000000 0.000000 0.000000 0.019253 0.000000 0.000000
# 5 0.000000 0.000000 0.000000 0.000000 0.058172 0.000000
# 6 0.000000 0.000000 0.000000 0.000000 0.000000 0.027711
#
#
# Mechanical properties :
#
#
# Convention : Reuss Voigt Hill
#
# Bulk Modulus (GPa) = 68.49071 68.90387 68.69729
# Shear Modulus (GPa) = 33.11654 40.07582 36.59618
#
# Velocity S-wave (km/s) = 3.84613 4.23099 4.04314
# Velocity P-wave (km/s) = 7.09348 7.39235 7.24446
#
# Compressibility (1/GPa) = 0.01460052
#
# Stress axis : x y z
#
# Youngs Moduli (GPa) = 127.98564 84.91637 121.94236
#
# Poissons Ratio (x) = 0.21008 0.03934
# Poissons Ratio (y) = 0.31663 0.46318
# Poissons Ratio (z) = 0.04129 0.32254
#
# Static dielectric constant tensor:
#      x y z
#    x 1.932320 0.000000 0.000000 
#    y 0.000000 1.820470 0.000000 
#    z 0.000000 0.000000 1.869870 
# 
# From -- ./inp_files/6833.got.cif
#   From: 2010.05.17/outbox.cif.g08.bks.cpg/sg41_4_cif.got.tgz:6833.got - 2010.06.03 18:54:24.
