data_PCOD9367751
_publ_section_title
;
Structure prediction by ZEFSAII (Michael W. Deem and Ramdas Pophale) SiO2 
 PCOD9367751
Probable space group: A B A 2
;
_chemical_formula_sum "Si O2"
_cell_formula_units_Z 64
_cell_length_a 26.570375
_cell_length_b 11.182685
_cell_length_c 9.812170
_cell_angle_alpha 90.000000
_cell_angle_beta 90.000000
_cell_angle_gamma 90.000000
_cell_volume 2915.471762
_symmetry_space_group_name_H-M "A B A 2"
_symmetry_group_IT_number 41
_symmetry_cell_setting 'orthorhombic'
loop_
_space_group_symop_operation_xyz
x,y,z
-x,-y,z
1/2-x,y,1/2+z
1/2+x,-y,1/2+z
x,1/2+y,1/2+z
-x,1/2-y,1/2+z
1/2-x,1/2+y,z
1/2+x,1/2-y,z
loop_
_atom_site_type_symbol
_atom_site_label
_atom_site_fract_x
_atom_site_fract_y
_atom_site_fract_z
Si Si1 0.664561 0.003991 0.819970
Si Si2 0.197975 0.202663 0.505745
Si Si3 0.013742 0.358933 0.631118
Si Si4 0.213736 0.740390 0.318821
Si Si5 0.657667 0.909153 0.533351
Si Si6 0.443942 0.446487 0.385036
Si Si7 0.102518 0.856959 0.942689
Si Si8 0.413525 0.295967 0.635513
O O1 0.677812 0.143474 0.830232
O O2 0.603926 0.980088 0.826574
O O3 0.689305 0.928151 0.941062
O O4 0.682902 0.960250 0.671136
O O5 0.218529 0.208762 0.659403
O O6 0.234456 0.268689 0.397648
O O7 0.144562 0.269322 0.503041
O O8 0.046662 0.347029 0.768701
O O9 0.048474 0.324975 0.504908
O O10 0.000000 0.500000 0.619741
O O11 0.964132 0.282137 0.643426
O O12 0.191926 0.629567 0.406681
O O13 0.629668 0.789593 0.579662
O O14 0.618219 0.010113 0.487411
O O15 0.500000 0.500000 0.403119
O O16 0.424660 0.398792 0.527546
O O17 0.101104 0.845263 0.781649
#
# Coordination Sequence:
#
# PCOD9367751 Si02
#       8
#     8   8   8   8   8   8   8   8
#     4  12  25  51  76 106 154 191 247 307 367 443
#     4  12  29  48  79 108 143 194 242 310 373 440
#     4  11  22  44  69 101 149 198 239 298 365 424
#     4  12  29  50  76 111 142 196 247 303 383 437
#     4  12  24  49  73 106 149 188 247 305 362 433
#     4  11  24  44  69 104 150 200 240 303 367 431
#     4  12  26  46  75 108 147 195 247 302 368 436
#     4  12  25  43  70 111 147 195 247 299 361 444
#
# _framework density 21.951851000000001
#
# number of rings (size 3 to 8) (size 9 to 14) (size 15 to 20)
#    0.000    0.250    6.250    2.250    5.250    1.500 
#    2.250    0.000    0.000    0.000    0.000    0.000 
#    0.000    0.000    0.000    0.000    0.000    0.000 
#
# Total GULP energy -178997.201488 kJ/mol
# GULP energy per Si atom -5593.662546 kJ/mol
# Density = 2.190189 g / cm^3
# Si number density = 21.951851 Si / 1000 Ang^3
#
#
#
# Elastic Constant Matrix: (Units=GPa)
#
#
# Indices 1 2 3 4 5 6 
#
# 1 65.6746 6.4968 23.0838 0.0000 0.0000 0.0000
# 2 6.4968 52.4169 40.8552 0.0000 0.0000 0.0000
# 3 23.0838 40.8552 166.9951 0.0000 0.0000 0.0000
# 4 0.0000 0.0000 0.0000 36.3038 0.0000 0.0000
# 5 0.0000 0.0000 0.0000 0.0000 39.9899 0.0000
# 6 0.0000 0.0000 0.0000 0.0000 0.0000 32.0280
#
#
#
# Elastic Compliance Matrix: (Units=1/GPa)
#
#
# Indices 1 2 3 4 5 6 
#
# 1 0.016009 -0.000321 -0.002134 0.000000 0.000000 0.000000
# 2 -0.000321 0.023579 -0.005724 0.000000 0.000000 0.000000
# 3 -0.002134 -0.005724 0.007684 0.000000 0.000000 0.000000
# 4 0.000000 0.000000 0.000000 0.027545 0.000000 0.000000
# 5 0.000000 0.000000 0.000000 0.000000 0.025006 0.000000
# 6 0.000000 0.000000 0.000000 0.000000 0.000000 0.031223
#
#
# Mechanical properties :
#
#
# Convention : Reuss Voigt Hill
#
# Bulk Modulus (GPa) = 32.34902 47.32869 39.83885
# Shear Modulus (GPa) = 31.70402 35.97439 33.83920
#
# Velocity S-wave (km/s) = 3.80446 4.05258 3.93048
# Velocity P-wave (km/s) = 5.83668 6.59583 6.22783
#
# Compressibility (1/GPa) = 0.03091284
#
# Stress axis : x y z
#
# Youngs Moduli (GPa) = 62.46675 42.41018 130.14569
#
# Poissons Ratio (x) = 0.01359 0.27779
# Poissons Ratio (y) = 0.02002 0.74500
# Poissons Ratio (z) = 0.13333 0.24277
#
# Static dielectric constant tensor:
#      x y z
#    x 1.843390 0.000000 0.000000 
#    y 0.000000 1.802020 0.000000 
#    z 0.000000 0.000000 1.794670 
# 
# From -- ./inp_files/3971.got.cif
#   From: 2010.05.17/outbox.cif.g08.bks.cpg/sg41_2_cif.got.tgz:3971.got - 2010.06.03 18:54:24.
