data_PCOD9367612
_publ_section_title
;
Structure prediction by ZEFSAII (Michael W. Deem and Ramdas Pophale) SiO2 
 PCOD9367612
Probable space group: A B A 2
;
_chemical_formula_sum "Si O2"
_cell_formula_units_Z 48
_cell_length_a 23.228958
_cell_length_b 8.617154
_cell_length_c 11.652182
_cell_angle_alpha 90.000000
_cell_angle_beta 90.000000
_cell_angle_gamma 90.000000
_cell_volume 2332.388238
_symmetry_space_group_name_H-M "A B A 2"
_symmetry_group_IT_number 41
_symmetry_cell_setting 'orthorhombic'
loop_
_space_group_symop_operation_xyz
x,y,z
-x,-y,z
1/2-x,y,1/2+z
1/2+x,-y,1/2+z
x,1/2+y,1/2+z
-x,1/2-y,1/2+z
1/2-x,1/2+y,z
1/2+x,1/2-y,z
loop_
_atom_site_type_symbol
_atom_site_label
_atom_site_fract_x
_atom_site_fract_y
_atom_site_fract_z
Si Si1 0.175683 0.254957 0.257230
Si Si2 0.869174 0.080012 0.979198
Si Si3 0.609415 0.254936 0.849723
Si Si4 0.045350 0.225391 0.629362
Si Si5 0.582866 0.620741 0.581866
Si Si6 0.204184 0.909221 0.204096
O O1 0.151685 0.305952 0.379711
O O2 0.126426 0.289454 0.164260
O O3 0.230745 0.355441 0.218774
O O4 0.193845 0.076662 0.259161
O O5 0.883934 0.919474 0.914289
O O6 0.923401 0.148185 0.049690
O O7 0.818424 0.071246 0.073817
O O8 0.555253 0.240598 0.763858
O O9 0.663800 0.214971 0.769629
O O10 0.603474 0.133094 0.951765
O O11 0.979532 0.199956 0.595626
O O12 0.076595 0.058905 0.614474
#
# Coordination Sequence:
#
# PCOD9367612 Si02
#       6
#     8   8   8   8   8   8
#     4  12  25  44  71  98 136 181 226 285 344 406
#     4  11  24  45  72  97 136 182 225 283 341 406
#     4  11  23  47  67 100 138 175 230 281 340 411
#     4  10  25  44  68 101 136 183 228 281 344 412
#     4  11  24  43  69 100 138 179 227 285 343 403
#     4  11  27  44  67 103 133 181 231 280 348 411
#
# _framework density 20.579764999999998
#
# number of rings (size 3 to 8) (size 9 to 14) (size 15 to 20)
#    0.000    1.000    3.333    2.000    7.000    2.000 
#    0.000    0.000    0.000    0.000    0.000    0.000 
#    0.000    0.000    0.000    0.000    0.000    0.000 
#
# Total GULP energy -134234.734886 kJ/mol
# GULP energy per Si atom -5593.113954 kJ/mol
# Density = 2.053292 g / cm^3
# Si number density = 20.579765 Si / 1000 Ang^3
#
#
#
# Elastic Constant Matrix: (Units=GPa)
#
#
# Indices 1 2 3 4 5 6 
#
# 1 71.9006 27.2164 21.0780 0.0000 0.0000 0.0000
# 2 27.2164 75.8682 5.1233 0.0000 0.0000 0.0000
# 3 21.0780 5.1233 117.4818 0.0000 0.0000 0.0000
# 4 0.0000 0.0000 0.0000 26.7558 0.0000 0.0000
# 5 0.0000 0.0000 0.0000 0.0000 3.9996 0.0000
# 6 0.0000 0.0000 0.0000 0.0000 0.0000 23.9359
#
#
#
# Elastic Compliance Matrix: (Units=1/GPa)
#
#
# Indices 1 2 3 4 5 6 
#
# 1 0.016956 -0.005895 -0.002785 0.000000 0.000000 0.000000
# 2 -0.005895 0.015269 0.000392 0.000000 0.000000 0.000000
# 3 -0.002785 0.000392 0.008995 0.000000 0.000000 0.000000
# 4 0.000000 0.000000 0.000000 0.037375 0.000000 0.000000
# 5 0.000000 0.000000 0.000000 0.000000 0.250023 0.000000
# 6 0.000000 0.000000 0.000000 0.000000 0.000000 0.041778
#
#
# Mechanical properties :
#
#
# Convention : Reuss Voigt Hill
#
# Bulk Modulus (GPa) = 40.57875 41.34288 40.96081
# Shear Modulus (GPa) = 12.65226 25.06046 18.85636
#
# Velocity S-wave (km/s) = 2.48219 3.49338 3.03026
# Velocity P-wave (km/s) = 5.28920 6.03359 5.67362
#
# Compressibility (1/GPa) = 0.02464344
#
# Stress axis : x y z
#
# Youngs Moduli (GPa) = 58.97694 65.49278 111.17842
#
# Poissons Ratio (x) = 0.38605 0.30964
# Poissons Ratio (y) = 0.34764 -0.04355
# Poissons Ratio (z) = 0.16425 -0.02565
#
# Static dielectric constant tensor:
#      x y z
#    x 1.718790 0.000000 0.000000 
#    y 0.000000 1.742050 0.000000 
#    z 0.000000 0.000000 1.708700 
# 
# From -- ./inp_files/6382.got.cif
#   From: 2010.05.17/outbox.cif.g08.bks.cpg/sg41_4_cif.got.tgz:6382.got - 2010.06.03 18:54:24.
