data_PCOD9367739
_publ_section_title
;
Structure prediction by ZEFSAII (Michael W. Deem and Ramdas Pophale) SiO2 
 PCOD9367739
Probable space group: A B A 2
;
_chemical_formula_sum "Si O2"
_cell_formula_units_Z 48
_cell_length_a 8.517746
_cell_length_b 13.958805
_cell_length_c 16.377943
_cell_angle_alpha 90.000000
_cell_angle_beta 90.000000
_cell_angle_gamma 90.000000
_cell_volume 1947.297386
_symmetry_space_group_name_H-M "A B A 2"
_symmetry_group_IT_number 41
_symmetry_cell_setting 'orthorhombic'
loop_
_space_group_symop_operation_xyz
x,y,z
-x,-y,z
1/2-x,y,1/2+z
1/2+x,-y,1/2+z
x,1/2+y,1/2+z
-x,1/2-y,1/2+z
1/2-x,1/2+y,z
1/2+x,1/2-y,z
loop_
_atom_site_type_symbol
_atom_site_label
_atom_site_fract_x
_atom_site_fract_y
_atom_site_fract_z
Si Si1 0.122854 0.841873 0.050390
Si Si2 0.967628 0.762229 0.378287
Si Si3 0.693435 0.813067 0.618677
Si Si4 0.651459 0.545807 0.338904
Si Si5 0.318746 0.126558 0.291996
Si Si6 0.825235 0.981611 0.523196
O O1 0.276984 0.792589 0.086931
O O2 0.179170 0.949597 0.041824
O O3 0.989438 0.833054 0.118222
O O4 0.061584 0.786968 0.967890
O O5 0.105301 0.844037 0.361713
O O6 0.018681 0.672104 0.322695
O O7 0.813773 0.818860 0.347701
O O8 0.778109 0.838623 0.701713
O O9 0.772424 0.877927 0.549395
O O10 0.500000 0.500000 0.293906
O O11 0.795569 0.488960 0.296456
O O12 0.659211 0.497812 0.427643
O O13 0.000000 0.000000 0.558400
#
# Coordination Sequence:
#
# PCOD9367739 Si02
#       6
#     8   8   8   8   8   8
#     4  12  24  43  71  96 131 181 238 290 345 425
#     4  11  22  42  68  94 126 177 232 280 340 417
#     4  12  25  41  63  99 136 177 226 289 365 426
#     4   9  19  38  63  88 122 166 216 275 338 407
#     4  11  24  40  63  95 135 175 221 286 359 421
#     4  11  23  42  67  96 131 174 228 290 351 420
#
# _framework density 24.649546000000001
#
# number of rings (size 3 to 8) (size 9 to 14) (size 15 to 20)
#    0.000    1.000    0.000    9.500    0.000    5.333 
#    0.000    4.167    0.000    0.000    0.000    0.000 
#    0.000    0.000    0.000    0.000    0.000    0.000 
#
# Total GULP energy -133879.757901 kJ/mol
# GULP energy per Si atom -5578.323246 kJ/mol
# Density = 2.459344 g / cm^3
# Si number density = 24.649546 Si / 1000 Ang^3
#
#
#
# Elastic Constant Matrix: (Units=GPa)
#
#
# Indices 1 2 3 4 5 6 
#
# 1 69.9529 16.7501 -15.5725 0.0000 0.0000 0.0000
# 2 16.7501 76.1753 -8.2091 0.0000 0.0000 0.0000
# 3 -15.5725 -8.2091 46.2492 0.0000 0.0000 0.0000
# 4 0.0000 0.0000 0.0000 -8.4265 0.0000 0.0000
# 5 0.0000 0.0000 0.0000 0.0000 21.7937 0.0000
# 6 0.0000 0.0000 0.0000 0.0000 0.0000 55.7511
#
#
#
# Elastic Compliance Matrix: (Units=1/GPa)
#
#
# Indices 1 2 3 4 5 6 
#
# 1 0.016105 -0.003015 0.004888 0.000000 0.000000 0.000000
# 2 -0.003015 0.013948 0.001461 0.000000 0.000000 0.000000
# 3 0.004888 0.001461 0.023527 0.000000 0.000000 0.000000
# 4 0.000000 0.000000 0.000000 -0.118674 0.000000 0.000000
# 5 0.000000 0.000000 0.000000 0.000000 0.045885 0.000000
# 6 0.000000 0.000000 0.000000 0.000000 0.000000 0.017937
#
#
# Mechanical properties :
#
#
# Convention : Reuss Voigt Hill
#
# Bulk Modulus (GPa) = 16.59820 19.81272 18.20546
# Shear Modulus (GPa) = 411.74868 27.11760 219.43314
#
# Velocity S-wave (km/s) = 12.93846 3.32041 9.44534
# Velocity P-wave (km/s) = 15.16421 4.77026 11.24074
#
# Compressibility (1/GPa) = 0.06024750
#
# Stress axis : x y z
#
# Youngs Moduli (GPa) = 62.09159 71.69529 42.50441
#
# Poissons Ratio (x) = 0.21614 -0.20775
# Poissons Ratio (y) = 0.18718 -0.06208
# Poissons Ratio (z) = -0.30348 -0.10472
#
# Static dielectric constant tensor:
#      x y z
#    x 2.066710 0.000000 0.000000 
#    y 0.000000 2.048400 0.000000 
#    z 0.000000 0.000000 1.963190 
# 
# From -- ./inp_files/9666.got.cif
#   From: 2010.05.17/outbox.cif.g08.bks.cpg/sg41_5_cif.got.tgz:9666.got - 2010.06.03 18:54:24.
