data_PCOD9367112
_publ_section_title
;
Structure prediction by ZEFSAII (Michael W. Deem and Ramdas Pophale) SiO2 
 PCOD9367112
Probable space group: A B A 2
;
_chemical_formula_sum "Si O2"
_cell_formula_units_Z 44
_cell_length_a 9.664774
_cell_length_b 21.298223
_cell_length_c 9.585345
_cell_angle_alpha 90.000000
_cell_angle_beta 90.000000
_cell_angle_gamma 90.000000
_cell_volume 1973.071492
_symmetry_space_group_name_H-M "A B A 2"
_symmetry_group_IT_number 41
_symmetry_cell_setting 'orthorhombic'
loop_
_space_group_symop_operation_xyz
x,y,z
-x,-y,z
1/2-x,y,1/2+z
1/2+x,-y,1/2+z
x,1/2+y,1/2+z
-x,1/2-y,1/2+z
1/2-x,1/2+y,z
1/2+x,1/2-y,z
loop_
_atom_site_type_symbol
_atom_site_label
_atom_site_fract_x
_atom_site_fract_y
_atom_site_fract_z
Si Si1 0.290487 0.088807 0.968410
Si Si2 0.807153 0.696843 0.601580
Si Si3 0.482153 0.909842 0.571217
Si Si4 0.000000 0.000000 0.316780
Si Si5 0.636973 0.649048 0.833067
Si Si6 0.662188 0.830524 0.230725
O O1 0.382639 0.032530 0.909769
O O2 0.265822 0.137524 0.840849
O O3 0.136308 0.072702 0.024054
O O4 0.359266 0.122295 0.100899
O O5 0.711303 0.648829 0.686473
O O6 0.776386 0.693925 0.437381
O O7 0.793903 0.764746 0.665357
O O8 0.959075 0.664064 0.609037
O O9 0.387940 0.912185 0.430487
O O10 0.442936 0.948533 0.707221
O O11 0.484758 0.676257 0.806585
#
# Coordination Sequence:
#
# PCOD9367112 Si02
#       6
#     8   8   8   4   8   8
#     4  11  24  47  73 111 142 199 249 319 377 441
#     4  10  22  41  70 105 150 194 238 308 384 449
#     4   9  24  44  66 109 144 186 254 309 366 454
#     4  12  24  48  80 100 146 210 252 310 376 452
#     4   9  23  41  63 108 138 195 239 301 369 457
#     4  11  23  43  73 106 151 186 250 314 381 455
#
# _framework density 22.300256000000001
#
# number of rings (size 3 to 8) (size 9 to 14) (size 15 to 20)
#    1.091    0.727    1.818    1.091    2.545    5.818 
#    3.273    3.636    0.000    0.000    0.000    0.000 
#    0.000    0.000    0.000    0.000    0.000    0.000 
#
# Total GULP energy -122572.688843 kJ/mol
# GULP energy per Si atom -5571.485856 kJ/mol
# Density = 2.224950 g / cm^3
# Si number density = 22.300256 Si / 1000 Ang^3
#
#
#
# Elastic Constant Matrix: (Units=GPa)
#
#
# Indices 1 2 3 4 5 6 
#
# 1 64.7109 8.8287 16.2083 0.0000 0.0000 0.0000
# 2 8.8287 45.1124 0.6722 0.0000 0.0000 0.0000
# 3 16.2083 0.6722 96.3703 0.0000 0.0000 0.0000
# 4 0.0000 0.0000 0.0000 29.0344 0.0000 0.0000
# 5 0.0000 0.0000 0.0000 0.0000 34.1242 0.0000
# 6 0.0000 0.0000 0.0000 0.0000 0.0000 21.1757
#
#
#
# Elastic Compliance Matrix: (Units=1/GPa)
#
#
# Indices 1 2 3 4 5 6 
#
# 1 0.016584 -0.003204 -0.002767 0.000000 0.000000 0.000000
# 2 -0.003204 0.022788 0.000380 0.000000 0.000000 0.000000
# 3 -0.002767 0.000380 0.010839 0.000000 0.000000 0.000000
# 4 0.000000 0.000000 0.000000 0.034442 0.000000 0.000000
# 5 0.000000 0.000000 0.000000 0.000000 0.029305 0.000000
# 6 0.000000 0.000000 0.000000 0.000000 0.000000 0.047224
#
#
# Mechanical properties :
#
#
# Convention : Reuss Voigt Hill
#
# Bulk Modulus (GPa) = 25.62200 28.62356 27.12278
# Shear Modulus (GPa) = 26.97255 28.89914 27.93584
#
# Velocity S-wave (km/s) = 3.48158 3.60378 3.54321
# Velocity P-wave (km/s) = 5.26084 5.49361 5.37848
#
# Compressibility (1/GPa) = 0.03902896
#
# Stress axis : x y z
#
# Youngs Moduli (GPa) = 60.30077 43.88223 92.25660
#
# Poissons Ratio (x) = 0.14061 0.25526
# Poissons Ratio (y) = 0.19322 -0.03506
# Poissons Ratio (z) = 0.16684 -0.01667
#
# Static dielectric constant tensor:
#      x y z
#    x 1.842640 0.000000 0.000000 
#    y 0.000000 1.869330 0.000000 
#    z 0.000000 0.000000 1.843950 
# 
# From -- ./inp_files/2072.got.cif
#   From: 2010.05.17/outbox.cif.g08.bks.cpg/sg41_2_cif.got.tgz:2072.got - 2010.06.03 18:54:24.
