data_PCOD9367267
_publ_section_title
;
Structure prediction by ZEFSAII (Michael W. Deem and Ramdas Pophale) SiO2 
 PCOD9367267
Probable space group: A B A 2
;
_chemical_formula_sum "Si O2"
_cell_formula_units_Z 36
_cell_length_a 14.751659
_cell_length_b 11.180493
_cell_length_c 9.776441
_cell_angle_alpha 90.000000
_cell_angle_beta 90.000000
_cell_angle_gamma 90.000000
_cell_volume 1612.436433
_symmetry_space_group_name_H-M "A B A 2"
_symmetry_group_IT_number 41
_symmetry_cell_setting 'orthorhombic'
loop_
_space_group_symop_operation_xyz
x,y,z
-x,-y,z
1/2-x,y,1/2+z
1/2+x,-y,1/2+z
x,1/2+y,1/2+z
-x,1/2-y,1/2+z
1/2-x,1/2+y,z
1/2+x,1/2-y,z
loop_
_atom_site_type_symbol
_atom_site_label
_atom_site_fract_x
_atom_site_fract_y
_atom_site_fract_z
Si Si1 0.680459 0.501392 0.477570
Si Si2 0.908525 0.779193 0.336907
Si Si3 0.248151 0.372126 0.221759
Si Si4 0.000000 0.000000 0.602377
Si Si5 0.062334 0.758968 0.140864
O O1 0.658986 0.376605 0.404718
O O2 0.731818 0.582803 0.372188
O O3 0.733630 0.516153 0.619384
O O4 0.580161 0.549852 0.508912
O O5 0.845297 0.699342 0.239177
O O6 0.948991 0.721164 0.476987
O O7 0.989602 0.823901 0.238794
O O8 0.335076 0.296457 0.174590
O O9 0.043948 0.116688 0.672352
#
# Coordination Sequence:
#
# PCOD9367267 Si02
#       5
#     8   8   8   4   8
#     4  11  25  44  71 102 144 188 243 306 371 443
#     4  11  26  45  73 106 144 192 244 312 367 453
#     4  12  24  45  70 106 144 192 244 302 380 442
#     4  10  22  46  70 102 142 190 240 312 362 442
#     4  11  24  45  73 103 145 194 241 306 377 437
#
# _framework density 22.326461999999999
#
# number of rings (size 3 to 8) (size 9 to 14) (size 15 to 20)
#    0.000    0.889    4.444    2.667    6.222    0.000 
#    0.000    0.000    0.000    0.000    0.000    0.000 
#    0.000    0.000    0.000    0.000    0.000    0.000 
#
# Total GULP energy -100346.073047 kJ/mol
# GULP energy per Si atom -5574.781836 kJ/mol
# Density = 2.227565 g / cm^3
# Si number density = 22.326462 Si / 1000 Ang^3
#
#
#
# Elastic Constant Matrix: (Units=GPa)
#
#
# Indices 1 2 3 4 5 6 
#
# 1 107.2604 7.4465 40.1316 0.0000 0.0000 0.0000
# 2 7.4465 49.9531 -1.1920 0.0000 0.0000 0.0000
# 3 40.1316 -1.1920 70.4613 0.0000 0.0000 0.0000
# 4 0.0000 0.0000 0.0000 25.3907 0.0000 0.0000
# 5 0.0000 0.0000 0.0000 0.0000 27.5573 0.0000
# 6 0.0000 0.0000 0.0000 0.0000 0.0000 34.2681
#
#
#
# Elastic Compliance Matrix: (Units=1/GPa)
#
#
# Indices 1 2 3 4 5 6 
#
# 1 0.012036 -0.001959 -0.006889 0.000000 0.000000 0.000000
# 2 -0.001959 0.020346 0.001460 0.000000 0.000000 0.000000
# 3 -0.006889 0.001460 0.018140 0.000000 0.000000 0.000000
# 4 0.000000 0.000000 0.000000 0.039384 0.000000 0.000000
# 5 0.000000 0.000000 0.000000 0.000000 0.036288 0.000000
# 6 0.000000 0.000000 0.000000 0.000000 0.000000 0.029182
#
#
# Mechanical properties :
#
#
# Convention : Reuss Voigt Hill
#
# Bulk Modulus (GPa) = 27.97405 35.60522 31.78964
# Shear Modulus (GPa) = 27.46239 29.52914 28.49577
#
# Velocity S-wave (km/s) = 3.51099 3.64071 3.57644
# Velocity P-wave (km/s) = 5.38450 5.80131 5.59679
#
# Compressibility (1/GPa) = 0.03574742
#
# Stress axis : x y z
#
# Youngs Moduli (GPa) = 83.08100 49.15069 55.12588
#
# Poissons Ratio (x) = 0.09627 0.37974
# Poissons Ratio (y) = 0.16273 -0.08047
# Poissons Ratio (z) = 0.57231 -0.07175
#
# Static dielectric constant tensor:
#      x y z
#    x 1.824110 0.000000 0.000000 
#    y 0.000000 1.887270 0.000000 
#    z 0.000000 0.000000 1.826720 
# 
# From -- ./inp_files/2363.got.cif
#   From: 2010.05.17/outbox.cif.g08.bks.cpg/sg41_2_cif.got.tgz:2363.got - 2010.06.03 18:54:24.
