data_PCOD9367798
_publ_section_title
;
Structure prediction by ZEFSAII (Michael W. Deem and Ramdas Pophale) SiO2 
 PCOD9367798
Probable space group: A B A 2
;
_chemical_formula_sum "Si O2"
_cell_formula_units_Z 64
_cell_length_a 22.096553
_cell_length_b 9.043078
_cell_length_c 14.153148
_cell_angle_alpha 90.000000
_cell_angle_beta 90.000000
_cell_angle_gamma 90.000000
_cell_volume 2828.094096
_symmetry_space_group_name_H-M "A B A 2"
_symmetry_group_IT_number 41
_symmetry_cell_setting 'orthorhombic'
loop_
_space_group_symop_operation_xyz
x,y,z
-x,-y,z
1/2-x,y,1/2+z
1/2+x,-y,1/2+z
x,1/2+y,1/2+z
-x,1/2-y,1/2+z
1/2-x,1/2+y,z
1/2+x,1/2-y,z
loop_
_atom_site_type_symbol
_atom_site_label
_atom_site_fract_x
_atom_site_fract_y
_atom_site_fract_z
Si Si1 0.748080 0.983570 0.605030
Si Si2 0.347659 0.802755 0.842736
Si Si3 0.630947 0.937284 0.505155
Si Si4 0.447119 0.278589 0.984301
Si Si5 0.326692 0.123143 0.931698
Si Si6 0.726026 0.236768 0.244242
Si Si7 0.030452 0.164180 0.138635
Si Si8 0.515755 0.668331 0.325685
O O1 0.689517 0.028184 0.542596
O O2 0.788240 0.892535 0.528860
O O3 0.716313 0.881134 0.682748
O O4 0.784153 0.102270 0.669566
O O5 0.297637 0.766862 0.765710
O O6 0.414268 0.821360 0.798946
O O7 0.327707 0.957825 0.889016
O O8 0.349598 0.674734 0.922535
O O9 0.593842 0.846784 0.585529
O O10 0.583152 0.061849 0.476416
O O11 0.394823 0.165796 0.957788
O O12 0.503434 0.269243 0.914380
O O13 0.478835 0.247198 0.083535
O O14 0.303780 0.235649 0.848125
O O15 0.031515 0.216082 0.245489
O O16 0.000000 0.000000 0.144816
O O17 0.500000 0.500000 0.351835
#
# Coordination Sequence:
#
# PCOD9367798 Si02
#       8
#     8   8   8   8   8   8   8   8
#     4  12  27  46  71 100 143 184 237 293 362 425
#     4  12  25  46  72  98 145 185 232 294 361 424
#     4  11  24  45  73  98 139 186 235 297 358 420
#     4  11  24  43  73 101 139 183 238 293 352 424
#     4  12  27  47  68 103 143 188 234 296 358 430
#     4  12  28  45  70 106 137 187 239 290 356 435
#     4   9  22  40  66 102 135 179 231 281 343 418
#     4  11  23  43  71 103 140 190 233 287 357 425
#
# _framework density 22.630082999999999
#
# number of rings (size 3 to 8) (size 9 to 14) (size 15 to 20)
#    0.000    0.750    5.000    1.500   12.250    0.000 
#    0.000    0.000    5.500    0.000    0.000    0.000 
#    0.000    0.000    0.000    0.000    0.000    0.000 
#
# Total GULP energy -178606.042352 kJ/mol
# GULP energy per Si atom -5581.438824 kJ/mol
# Density = 2.257858 g / cm^3
# Si number density = 22.630083 Si / 1000 Ang^3
#
#
#
# Elastic Constant Matrix: (Units=GPa)
#
#
# Indices 1 2 3 4 5 6 
#
# 1 75.2179 0.2403 10.5021 0.0000 0.0000 0.0000
# 2 0.2403 56.5835 22.5658 0.0000 0.0000 0.0000
# 3 10.5021 22.5658 100.6293 0.0000 0.0000 0.0000
# 4 0.0000 0.0000 0.0000 32.0433 0.0000 0.0000
# 5 0.0000 0.0000 0.0000 0.0000 26.7171 0.0000
# 6 0.0000 0.0000 0.0000 0.0000 0.0000 26.0258
#
#
#
# Elastic Compliance Matrix: (Units=1/GPa)
#
#
# Indices 1 2 3 4 5 6 
#
# 1 0.013507 0.000554 -0.001534 0.000000 0.000000 0.000000
# 2 0.000554 0.019431 -0.004415 0.000000 0.000000 0.000000
# 3 -0.001534 -0.004415 0.011088 0.000000 0.000000 0.000000
# 4 0.000000 0.000000 0.000000 0.031208 0.000000 0.000000
# 5 0.000000 0.000000 0.000000 0.000000 0.037429 0.000000
# 6 0.000000 0.000000 0.000000 0.000000 0.000000 0.038423
#
#
# Mechanical properties :
#
#
# Convention : Reuss Voigt Hill
#
# Bulk Modulus (GPa) = 30.08741 33.22746 31.65744
# Shear Modulus (GPa) = 28.90921 30.23209 29.57065
#
# Velocity S-wave (km/s) = 3.57805 3.65900 3.61875
# Velocity P-wave (km/s) = 5.51308 5.70664 5.61070
#
# Compressibility (1/GPa) = 0.03323649
#
# Stress axis : x y z
#
# Youngs Moduli (GPa) = 74.03508 51.46286 90.19019
#
# Poissons Ratio (x) = -0.02853 0.13835
# Poissons Ratio (y) = -0.04105 0.39822
# Poissons Ratio (z) = 0.11357 0.22722
#
# Static dielectric constant tensor:
#      x y z
#    x 1.807340 0.000000 0.000000 
#    y 0.000000 1.854470 0.000000 
#    z 0.000000 0.000000 1.929850 
# 
# From -- ./inp_files/9155.got.cif
#   From: 2010.05.17/outbox.cif.g08.bks.cpg/sg41_5_cif.got.tgz:9155.got - 2010.06.03 18:54:24.
