data_PCOD9367664
_publ_section_title
;
Structure prediction by ZEFSAII (Michael W. Deem and Ramdas Pophale) SiO2 
 PCOD9367664
Probable space group: A B A 2
;
_chemical_formula_sum "Si O2"
_cell_formula_units_Z 52
_cell_length_a 14.200885
_cell_length_b 8.350640
_cell_length_c 18.565767
_cell_angle_alpha 90.000000
_cell_angle_beta 90.000000
_cell_angle_gamma 90.000000
_cell_volume 2201.648926
_symmetry_space_group_name_H-M "A B A 2"
_symmetry_group_IT_number 41
_symmetry_cell_setting 'orthorhombic'
loop_
_space_group_symop_operation_xyz
x,y,z
-x,-y,z
1/2-x,y,1/2+z
1/2+x,-y,1/2+z
x,1/2+y,1/2+z
-x,1/2-y,1/2+z
1/2-x,1/2+y,z
1/2+x,1/2-y,z
loop_
_atom_site_type_symbol
_atom_site_label
_atom_site_fract_x
_atom_site_fract_y
_atom_site_fract_z
Si Si1 0.956681 0.173435 0.260040
Si Si2 0.842835 0.695401 0.251526
Si Si3 0.529226 0.176912 0.994020
Si Si4 0.000000 0.500000 0.410199
Si Si5 0.303201 0.861096 0.089856
Si Si6 0.818365 0.878312 0.824878
Si Si7 0.378429 0.716500 0.610204
O O1 0.880672 0.216075 0.319672
O O2 0.900793 0.213172 0.187782
O O3 0.045795 0.289781 0.263961
O O4 0.000000 0.000000 0.261293
O O5 0.823048 0.731737 0.166318
O O6 0.786091 0.802434 0.310609
O O7 0.815397 0.511225 0.262053
O O8 0.637310 0.188124 0.019364
O O9 0.475986 0.192438 0.070227
O O10 0.500000 0.000000 0.964599
O O11 0.494425 0.329879 0.950726
O O12 0.107264 0.523536 0.376291
O O13 0.193785 0.838048 0.073589
O O14 0.330680 0.043498 0.105040
#
# Coordination Sequence:
#
# PCOD9367664 Si02
#       7
#     8   8   8   4   8   8   8
#     4  12  24  38  71 109 149 190 237 313 400 461
#     4  12  22  43  70 106 145 181 240 314 397 455
#     4  10  26  49  72 104 148 205 253 312 381 456
#     4  12  28  54  74  96 156 212 266 306 378 462
#     4  11  22  40  71 110 147 181 246 316 397 463
#     4  12  26  48  71 106 148 199 251 317 388 475
#     4  11  24  40  70 111 152 185 236 317 391 468
#
# _framework density 23.618660999999999
#
# number of rings (size 3 to 8) (size 9 to 14) (size 15 to 20)
#    0.000    0.615    6.154    0.923    5.385    0.615 
#    5.538    0.000    0.000    0.000    0.000    0.000 
#    0.000    0.000    0.000    0.000    0.000    0.000 
#
# Total GULP energy -144746.199124 kJ/mol
# GULP energy per Si atom -5567.161505 kJ/mol
# Density = 2.356490 g / cm^3
# Si number density = 23.618661 Si / 1000 Ang^3
#
#
#
# Elastic Constant Matrix: (Units=GPa)
#
#
# Indices 1 2 3 4 5 6 
#
# 1 104.7665 13.1124 -2.0238 0.0000 0.0000 0.0000
# 2 13.1124 96.3123 33.9660 0.0000 0.0000 0.0000
# 3 -2.0238 33.9660 32.8335 0.0000 0.0000 0.0000
# 4 0.0000 0.0000 0.0000 18.1358 0.0000 0.0000
# 5 0.0000 0.0000 0.0000 0.0000 33.2915 0.0000
# 6 0.0000 0.0000 0.0000 0.0000 0.0000 41.8414
#
#
#
# Elastic Compliance Matrix: (Units=1/GPa)
#
#
# Indices 1 2 3 4 5 6 
#
# 1 0.009915 -0.002464 0.003161 0.000000 0.000000 0.000000
# 2 -0.002464 0.016959 -0.017696 0.000000 0.000000 0.000000
# 3 0.003161 -0.017696 0.048958 0.000000 0.000000 0.000000
# 4 0.000000 0.000000 0.000000 0.055140 0.000000 0.000000
# 5 0.000000 0.000000 0.000000 0.000000 0.030038 0.000000
# 6 0.000000 0.000000 0.000000 0.000000 0.000000 0.023900
#
#
# Mechanical properties :
#
#
# Convention : Reuss Voigt Hill
#
# Bulk Modulus (GPa) = 23.90524 36.00240 29.95382
# Shear Modulus (GPa) = 21.47277 31.24422 26.35850
#
# Velocity S-wave (km/s) = 3.01847 3.64106 3.34429
# Velocity P-wave (km/s) = 4.72139 5.74045 5.25568
#
# Compressibility (1/GPa) = 0.04183183
#
# Stress axis : x y z
#
# Youngs Moduli (GPa) = 100.86199 58.96491 20.42563
#
# Poissons Ratio (x) = 0.14532 -0.06456
# Poissons Ratio (y) = 0.24857 0.36145
# Poissons Ratio (z) = -0.31878 1.04345
#
# Static dielectric constant tensor:
#      x y z
#    x 1.963100 0.000000 0.000000 
#    y 0.000000 1.912810 0.000000 
#    z 0.000000 0.000000 2.018830 
# 
# From -- ./inp_files/11509.got.cif
#   From: 2010.05.17/outbox.cif.g08.bks.cpg/sg41_6_cif.got.tgz:11509.got - 2010.06.03 18:54:24.
