data_PCOD9367342
_publ_section_title
;
Structure prediction by ZEFSAII (Michael W. Deem and Ramdas Pophale) SiO2 
 PCOD9367342
Probable space group: A B A 2
;
_chemical_formula_sum "Si O2"
_cell_formula_units_Z 48
_cell_length_a 15.925167
_cell_length_b 7.962536
_cell_length_c 13.998181
_cell_angle_alpha 90.000000
_cell_angle_beta 90.000000
_cell_angle_gamma 90.000000
_cell_volume 1775.035360
_symmetry_space_group_name_H-M "A B A 2"
_symmetry_group_IT_number 41
_symmetry_cell_setting 'orthorhombic'
loop_
_space_group_symop_operation_xyz
x,y,z
-x,-y,z
1/2-x,y,1/2+z
1/2+x,-y,1/2+z
x,1/2+y,1/2+z
-x,1/2-y,1/2+z
1/2-x,1/2+y,z
1/2+x,1/2-y,z
loop_
_atom_site_type_symbol
_atom_site_label
_atom_site_fract_x
_atom_site_fract_y
_atom_site_fract_z
Si Si1 0.691552 0.168366 0.702030
Si Si2 0.815394 0.326982 0.823071
Si Si3 0.033481 0.185713 0.790735
Si Si4 0.388142 0.335868 0.000134
Si Si5 0.355984 0.716569 0.948726
Si Si6 0.458235 0.815135 0.107102
O O1 0.784944 0.207935 0.737242
O O2 0.622524 0.310586 0.732381
O O3 0.678633 0.169524 0.588258
O O4 0.672785 0.001441 0.765813
O O5 0.732326 0.293818 0.893641
O O6 0.881396 0.280303 0.905408
O O7 0.068071 0.282398 0.881858
O O8 0.964831 0.252641 0.715900
O O9 0.000000 0.000000 0.813973
O O10 0.475914 0.301242 0.051040
O O11 0.376131 0.522717 0.964171
O O12 0.372203 0.810463 0.048167
O O13 0.500000 0.000000 0.108511
#
# Coordination Sequence:
#
# PCOD9367342 Si02
#       6
#     8   8   8   8   8   8
#     4  10  24  43  67 103 139 189 248 302 382 454
#     4  11  24  45  67 104 144 190 245 307 370 461
#     4   9  20  43  67  98 140 182 240 303 374 445
#     4  11  24  44  69 100 139 192 241 302 380 442
#     4  11  23  45  69  98 144 185 241 304 371 444
#     4  10  23  42  67 101 137 183 240 301 373 444
#
# _framework density 27.041713000000001
#
# number of rings (size 3 to 8) (size 9 to 14) (size 15 to 20)
#    0.000    1.667    1.667    1.500    7.000    0.000 
#   21.000    0.000    0.000    0.000    0.000    0.000 
#    0.000    0.000    0.000    0.000    0.000    0.000 
#
# Total GULP energy -133816.669143 kJ/mol
# GULP energy per Si atom -5575.694548 kJ/mol
# Density = 2.698017 g / cm^3
# Si number density = 27.041713 Si / 1000 Ang^3
#
#
#
# Elastic Constant Matrix: (Units=GPa)
#
#
# Indices 1 2 3 4 5 6 
#
# 1 95.0324 -11.1046 20.4762 0.0000 0.0000 0.0000
# 2 -11.1046 75.3253 5.9070 0.0000 0.0000 0.0000
# 3 20.4762 5.9070 196.5869 0.0000 0.0000 0.0000
# 4 0.0000 0.0000 0.0000 26.6581 0.0000 0.0000
# 5 0.0000 0.0000 0.0000 0.0000 45.2455 0.0000
# 6 0.0000 0.0000 0.0000 0.0000 0.0000 37.0241
#
#
#
# Elastic Compliance Matrix: (Units=1/GPa)
#
#
# Indices 1 2 3 4 5 6 
#
# 1 0.010980 0.001712 -0.001195 0.000000 0.000000 0.000000
# 2 0.001712 0.013574 -0.000586 0.000000 0.000000 0.000000
# 3 -0.001195 -0.000586 0.005229 0.000000 0.000000 0.000000
# 4 0.000000 0.000000 0.000000 0.037512 0.000000 0.000000
# 5 0.000000 0.000000 0.000000 0.000000 0.022102 0.000000
# 6 0.000000 0.000000 0.000000 0.000000 0.000000 0.027009
#
#
# Mechanical properties :
#
#
# Convention : Reuss Voigt Hill
#
# Bulk Modulus (GPa) = 33.73184 44.16686 38.94935
# Shear Modulus (GPa) = 39.54874 45.22994 42.38934
#
# Velocity S-wave (km/s) = 3.82842 4.09418 3.96353
# Velocity P-wave (km/s) = 5.66070 6.22238 5.94818
#
# Compressibility (1/GPa) = 0.02964558
#
# Stress axis : x y z
#
# Youngs Moduli (GPa) = 91.07183 73.66930 191.24446
#
# Poissons Ratio (x) = -0.12616 0.22857
# Poissons Ratio (y) = -0.15596 0.11212
# Poissons Ratio (z) = 0.10884 0.04319
#
# Static dielectric constant tensor:
#      x y z
#    x 2.244750 0.000000 0.000000 
#    y 0.000000 2.072540 0.000000 
#    z 0.000000 0.000000 2.233870 
# 
# From -- ./inp_files/8717.got.cif
#   From: 2010.05.17/outbox.cif.g08.bks.cpg/sg41_5_cif.got.tgz:8717.got - 2010.06.03 18:54:24.
