data_PCOD9367241
_publ_section_title
;
Structure prediction by ZEFSAII (Michael W. Deem and Ramdas Pophale) SiO2 
 PCOD9367241
Probable space group: A B A 2
;
_chemical_formula_sum "Si O2"
_cell_formula_units_Z 52
_cell_length_a 16.720502
_cell_length_b 17.694817
_cell_length_c 8.242051
_cell_angle_alpha 90.000000
_cell_angle_beta 90.000000
_cell_angle_gamma 90.000000
_cell_volume 2438.544499
_symmetry_space_group_name_H-M "A B A 2"
_symmetry_group_IT_number 41
_symmetry_cell_setting 'orthorhombic'
loop_
_space_group_symop_operation_xyz
x,y,z
-x,-y,z
1/2-x,y,1/2+z
1/2+x,-y,1/2+z
x,1/2+y,1/2+z
-x,1/2-y,1/2+z
1/2-x,1/2+y,z
1/2+x,1/2-y,z
loop_
_atom_site_type_symbol
_atom_site_label
_atom_site_fract_x
_atom_site_fract_y
_atom_site_fract_z
Si Si1 0.665535 0.804447 0.816520
Si Si2 0.349828 0.028258 0.784586
Si Si3 0.663008 0.773806 0.173615
Si Si4 0.549511 0.395966 0.795005
Si Si5 0.500000 0.500000 0.509045
Si Si6 0.894726 0.659220 0.429919
Si Si7 0.680516 0.012318 0.424278
O O1 0.640019 0.882871 0.738715
O O2 0.751489 0.775026 0.758123
O O3 0.605631 0.733294 0.813716
O O4 0.673318 0.822151 0.008105
O O5 0.337979 0.986505 0.614981
O O6 0.267496 0.018693 0.883298
O O7 0.422645 0.999677 0.893771
O O8 0.596637 0.817773 0.274105
O O9 0.632392 0.694382 0.101872
O O10 0.509426 0.427810 0.629309
O O11 0.479204 0.382413 0.923520
O O12 0.614479 0.458498 0.843251
O O13 0.831098 0.598254 0.367196
#
# Coordination Sequence:
#
# PCOD9367241 Si02
#       7
#     8   8   8   8   4   8   8
#     4  10  22  45  66  96 137 177 240 263 354 415
#     4  12  26  44  73 105 137 191 233 288 358 431
#     4  10  23  44  68  98 133 189 224 286 347 421
#     4  12  23  47  70 100 147 185 236 296 359 422
#     4  12  24  44  72 104 142 176 246 290 352 424
#     4  10  26  42  67 105 134 178 230 295 348 402
#     4  12  26  44  75 101 142 183 238 288 358 419
#
# _framework density 21.324196000000001
#
# number of rings (size 3 to 8) (size 9 to 14) (size 15 to 20)
#    0.923    0.000    4.615    1.846    4.308    1.231 
#    2.769    0.000    0.000    0.000    0.000    0.000 
#    0.000    0.000    0.000    0.000    0.000    0.000 
#
# Total GULP energy -145096.863261 kJ/mol
# GULP energy per Si atom -5580.648587 kJ/mol
# Density = 2.127566 g / cm^3
# Si number density = 21.324196 Si / 1000 Ang^3
#
#
#
# Elastic Constant Matrix: (Units=GPa)
#
#
# Indices 1 2 3 4 5 6 
#
# 1 118.7342 34.4355 25.9886 0.0000 0.0000 0.0000
# 2 34.4355 102.1726 -3.0640 0.0000 0.0000 0.0000
# 3 25.9886 -3.0640 45.0117 0.0000 0.0000 0.0000
# 4 0.0000 0.0000 0.0000 26.8437 0.0000 0.0000
# 5 0.0000 0.0000 0.0000 0.0000 43.7132 0.0000
# 6 0.0000 0.0000 0.0000 0.0000 0.0000 20.0401
#
#
#
# Elastic Compliance Matrix: (Units=1/GPa)
#
#
# Indices 1 2 3 4 5 6 
#
# 1 0.011004 -0.003907 -0.006620 0.000000 0.000000 0.000000
# 2 -0.003907 0.011195 0.003018 0.000000 0.000000 0.000000
# 3 -0.006620 0.003018 0.026244 0.000000 0.000000 0.000000
# 4 0.000000 0.000000 0.000000 0.037253 0.000000 0.000000
# 5 0.000000 0.000000 0.000000 0.000000 0.022876 0.000000
# 6 0.000000 0.000000 0.000000 0.000000 0.000000 0.049900
#
#
# Mechanical properties :
#
#
# Convention : Reuss Voigt Hill
#
# Bulk Modulus (GPa) = 29.91757 42.29318 36.10538
# Shear Modulus (GPa) = 27.08099 32.02329 29.55214
#
# Velocity S-wave (km/s) = 3.56752 3.87943 3.72674
# Velocity P-wave (km/s) = 5.57045 6.32005 5.95706
#
# Compressibility (1/GPa) = 0.03342517
#
# Stress axis : x y z
#
# Youngs Moduli (GPa) = 90.87386 89.32752 38.10420
#
# Poissons Ratio (x) = 0.34903 0.25223
# Poissons Ratio (y) = 0.35507 -0.11500
# Poissons Ratio (z) = 0.60154 -0.26959
#
# Static dielectric constant tensor:
#      x y z
#    x 1.802240 0.000000 0.000000 
#    y 0.000000 1.774570 0.000000 
#    z 0.000000 0.000000 1.771460 
# 
# From -- ./inp_files/2628.got.cif
#   From: 2010.05.17/outbox.cif.g08.bks.cpg/sg41_2_cif.got.tgz:2628.got - 2010.06.03 18:54:24.
