data_PCOD9367073
_publ_section_title
;
Structure prediction by ZEFSAII (Michael W. Deem and Ramdas Pophale) SiO2 
 PCOD9367073
Probable space group: A B A 2
;
_chemical_formula_sum "Si O2"
_cell_formula_units_Z 52
_cell_length_a 23.528889
_cell_length_b 11.639439
_cell_length_c 7.678842
_cell_angle_alpha 90.000000
_cell_angle_beta 90.000000
_cell_angle_gamma 90.000000
_cell_volume 2102.951231
_symmetry_space_group_name_H-M "A B A 2"
_symmetry_group_IT_number 41
_symmetry_cell_setting 'orthorhombic'
loop_
_space_group_symop_operation_xyz
x,y,z
-x,-y,z
1/2-x,y,1/2+z
1/2+x,-y,1/2+z
x,1/2+y,1/2+z
-x,1/2-y,1/2+z
1/2-x,1/2+y,z
1/2+x,1/2-y,z
loop_
_atom_site_type_symbol
_atom_site_label
_atom_site_fract_x
_atom_site_fract_y
_atom_site_fract_z
Si Si1 0.327201 0.412035 0.580320
Si Si2 0.702213 0.638638 0.953961
Si Si3 0.911013 0.051714 0.101212
Si Si4 0.500000 0.500000 0.804253
Si Si5 0.369286 0.656946 0.496525
Si Si6 0.948577 0.272633 0.277816
Si Si7 0.914555 0.788098 0.155459
O O1 0.312327 0.432762 0.781722
O O2 0.267058 0.382805 0.496031
O O3 0.358541 0.521065 0.497830
O O4 0.367076 0.300850 0.591411
O O5 0.687878 0.774909 0.940979
O O6 0.652671 0.599989 0.085302
O O7 0.949556 0.139643 0.216103
O O8 0.901797 0.922795 0.162413
O O9 0.945407 0.030232 0.921913
O O10 0.511789 0.378686 0.709166
O O11 0.389206 0.685451 0.693132
O O12 0.416134 0.720453 0.368490
O O13 0.954964 0.279450 0.485812
#
# Coordination Sequence:
#
# PCOD9367073 Si02
#       7
#     8   8   8   4   8   8   8
#     4  11  23  38  62  99 131 181 221 274 334 414
#     4  10  25  38  63  93 137 172 227 277 334 413
#     4  10  22  46  67  99 136 173 227 290 341 410
#     4  10  22  46  70 104 132 184 238 290 356 416
#     4  10  23  42  62  97 130 175 228 268 341 409
#     4  10  22  46  71  92 137 175 216 293 344 395
#     4  10  22  40  67  94 130 174 220 272 335 411
#
# _framework density 24.727153000000001
#
# number of rings (size 3 to 8) (size 9 to 14) (size 15 to 20)
#    0.000    1.846    0.000    2.769    8.615    1.231 
#   24.923    0.769    0.000    0.000    0.000    0.000 
#    0.000    0.000    0.000    0.000    0.000    0.000 
#
# Total GULP energy -144780.138340 kJ/mol
# GULP energy per Si atom -5568.466859 kJ/mol
# Density = 2.467087 g / cm^3
# Si number density = 24.727153 Si / 1000 Ang^3
#
#
#
# Elastic Constant Matrix: (Units=GPa)
#
#
# Indices 1 2 3 4 5 6 
#
# 1 87.5889 43.4110 33.8179 0.0000 0.0000 0.0000
# 2 43.4110 195.6732 57.5824 0.0000 0.0000 0.0000
# 3 33.8179 57.5824 101.3780 0.0000 0.0000 0.0000
# 4 0.0000 0.0000 0.0000 41.6770 0.0000 0.0000
# 5 0.0000 0.0000 0.0000 0.0000 30.6830 0.0000
# 6 0.0000 0.0000 0.0000 0.0000 0.0000 30.8987
#
#
#
# Elastic Compliance Matrix: (Units=1/GPa)
#
#
# Indices 1 2 3 4 5 6 
#
# 1 0.013753 -0.002042 -0.003428 0.000000 0.000000 0.000000
# 2 -0.002042 0.006440 -0.002976 0.000000 0.000000 0.000000
# 3 -0.003428 -0.002976 0.012698 0.000000 0.000000 0.000000
# 4 0.000000 0.000000 0.000000 0.023994 0.000000 0.000000
# 5 0.000000 0.000000 0.000000 0.000000 0.032591 0.000000
# 6 0.000000 0.000000 0.000000 0.000000 0.000000 0.032364
#
#
# Mechanical properties :
#
#
# Convention : Reuss Voigt Hill
#
# Bulk Modulus (GPa) = 62.50953 72.69586 67.60270
# Shear Modulus (GPa) = 34.70670 37.30700 36.00685
#
# Velocity S-wave (km/s) = 3.75051 3.88847 3.82011
# Velocity P-wave (km/s) = 6.64001 7.04438 6.84518
#
# Compressibility (1/GPa) = 0.01599756
#
# Stress axis : x y z
#
# Youngs Moduli (GPa) = 72.71351 155.29029 78.75263
#
# Poissons Ratio (x) = 0.31717 0.26993
# Poissons Ratio (y) = 0.14851 0.23439
# Poissons Ratio (z) = 0.24923 0.46220
#
# Static dielectric constant tensor:
#      x y z
#    x 2.104810 0.000000 0.000000 
#    y 0.000000 2.012290 0.000000 
#    z 0.000000 0.000000 2.079270 
# 
# From -- ./inp_files/3788.got.cif
#   From: 2010.05.17/outbox.cif.g08.bks.cpg/sg41_2_cif.got.tgz:3788.got - 2010.06.03 18:54:24.
