data_PCOD9367393
_publ_section_title
;
Structure prediction by ZEFSAII (Michael W. Deem and Ramdas Pophale) SiO2 
 PCOD9367393
Probable space group: A B A 2
;
_chemical_formula_sum "Si O2"
_cell_formula_units_Z 40
_cell_length_a 4.918926
_cell_length_b 17.911444
_cell_length_c 17.014758
_cell_angle_alpha 90.000000
_cell_angle_beta 90.000000
_cell_angle_gamma 90.000000
_cell_volume 1499.086404
_symmetry_space_group_name_H-M "A B A 2"
_symmetry_group_IT_number 41
_symmetry_cell_setting 'orthorhombic'
loop_
_space_group_symop_operation_xyz
x,y,z
-x,-y,z
1/2-x,y,1/2+z
1/2+x,-y,1/2+z
x,1/2+y,1/2+z
-x,1/2-y,1/2+z
1/2-x,1/2+y,z
1/2+x,1/2-y,z
loop_
_atom_site_type_symbol
_atom_site_label
_atom_site_fract_x
_atom_site_fract_y
_atom_site_fract_z
Si Si1 0.000000 0.500000 0.070791
Si Si2 0.747401 0.699831 0.550473
Si Si3 0.057958 0.084446 0.316417
Si Si4 0.300643 0.298806 0.737426
Si Si5 0.000000 0.500000 0.672761
Si Si6 0.385049 0.583620 0.960375
O O1 0.747733 0.528675 0.121729
O O2 0.857464 0.434960 0.021204
O O3 0.944684 0.771207 0.534343
O O4 0.752205 0.685190 0.644882
O O5 0.886279 0.635783 0.498139
O O6 0.803253 0.136303 0.295262
O O7 0.255700 0.116138 0.381343
O O8 0.000000 0.000000 0.347816
O O9 0.147836 0.060872 0.228494
O O10 0.106961 0.226937 0.751190
O O11 0.500000 0.500000 0.944279
#
# Coordination Sequence:
#
# PCOD9367393 Si02
#       6
#     4   8   8   8   4   8
#     4  12  23  44  69 104 138 184 240 294 353 412
#     4  10  25  46  70 102 140 188 245 295 351 427
#     4  10  25  46  66 109 145 187 233 295 359 434
#     4  10  23  44  69 100 137 186 242 292 346 421
#     4  10  25  42  71  98 138 188 236 294 351 414
#     4  12  27  45  73 110 152 190 237 302 366 437
#
# _framework density 26.682918000000001
#
# number of rings (size 3 to 8) (size 9 to 14) (size 15 to 20)
#    0.600    0.800    2.000    1.200    4.200    8.000 
#    0.000    0.000    0.000    0.000    0.000    0.000 
#    0.000    0.000    0.000    0.000    0.000    0.000 
#
# Total GULP energy -111916.361491 kJ/mol
# GULP energy per Si atom -5595.818075 kJ/mol
# Density = 2.662219 g / cm^3
# Si number density = 26.682918 Si / 1000 Ang^3
#
#
#
# Elastic Constant Matrix: (Units=GPa)
#
#
# Indices 1 2 3 4 5 6 
#
# 1 100.4158 -7.0156 35.4208 0.0000 0.0000 0.0000
# 2 -7.0156 100.0175 15.6375 0.0000 0.0000 0.0000
# 3 35.4208 15.6375 112.5409 0.0000 0.0000 0.0000
# 4 0.0000 0.0000 0.0000 13.1871 0.0000 0.0000
# 5 0.0000 0.0000 0.0000 0.0000 11.3338 0.0000
# 6 0.0000 0.0000 0.0000 0.0000 0.0000 34.2985
#
#
#
# Elastic Compliance Matrix: (Units=1/GPa)
#
#
# Indices 1 2 3 4 5 6 
#
# 1 0.011388 0.001389 -0.003777 0.000000 0.000000 0.000000
# 2 0.001389 0.010390 -0.001881 0.000000 0.000000 0.000000
# 3 -0.003777 -0.001881 0.010336 0.000000 0.000000 0.000000
# 4 0.000000 0.000000 0.000000 0.075832 0.000000 0.000000
# 5 0.000000 0.000000 0.000000 0.000000 0.088232 0.000000
# 6 0.000000 0.000000 0.000000 0.000000 0.000000 0.029156
#
#
# Mechanical properties :
#
#
# Convention : Reuss Voigt Hill
#
# Bulk Modulus (GPa) = 42.41604 44.56219 43.48911
# Shear Modulus (GPa) = 20.68428 29.69264 25.18846
#
# Velocity S-wave (km/s) = 2.78724 3.33948 3.07578
# Velocity P-wave (km/s) = 5.12729 5.62196 5.38031
#
# Compressibility (1/GPa) = 0.02357599
#
# Stress axis : x y z
#
# Youngs Moduli (GPa) = 87.81118 96.24834 96.75046
#
# Poissons Ratio (x) = -0.13372 0.36546
# Poissons Ratio (y) = -0.12200 0.18198
# Poissons Ratio (z) = 0.33169 0.18104
#
# Static dielectric constant tensor:
#      x y z
#    x 2.037630 0.000000 0.000000 
#    y 0.000000 2.263200 0.000000 
#    z 0.000000 0.000000 2.076430 
# 
# From -- ./inp_files/9373.got.cif
#   From: 2010.05.17/outbox.cif.g08.bks.cpg/sg41_5_cif.got.tgz:9373.got - 2010.06.03 18:54:24.
