data_PCOD9367401
_publ_section_title
;
Structure prediction by ZEFSAII (Michael W. Deem and Ramdas Pophale) SiO2 
 PCOD9367401
Probable space group: A B A 2
;
_chemical_formula_sum "Si O2"
_cell_formula_units_Z 48
_cell_length_a 10.187549
_cell_length_b 11.868664
_cell_length_c 15.223259
_cell_angle_alpha 90.000000
_cell_angle_beta 90.000000
_cell_angle_gamma 90.000000
_cell_volume 1840.683766
_symmetry_space_group_name_H-M "A B A 2"
_symmetry_group_IT_number 41
_symmetry_cell_setting 'orthorhombic'
loop_
_space_group_symop_operation_xyz
x,y,z
-x,-y,z
1/2-x,y,1/2+z
1/2+x,-y,1/2+z
x,1/2+y,1/2+z
-x,1/2-y,1/2+z
1/2-x,1/2+y,z
1/2+x,1/2-y,z
loop_
_atom_site_type_symbol
_atom_site_label
_atom_site_fract_x
_atom_site_fract_y
_atom_site_fract_z
Si Si1 0.791113 0.023131 0.804120
Si Si2 0.500000 0.000000 0.077889
Si Si3 0.275128 0.669264 0.671294
Si Si4 0.000000 0.000000 0.944534
Si Si5 0.889966 0.122227 0.426079
Si Si6 0.030433 0.799848 0.717709
Si Si7 0.368804 0.769704 0.485221
O O1 0.648616 0.049498 0.841941
O O2 0.884987 0.130913 0.787167
O O3 0.780772 0.955690 0.713158
O O4 0.877959 0.963834 0.880758
O O5 0.495386 0.893127 0.141757
O O6 0.386913 0.964753 0.008972
O O7 0.380845 0.734219 0.735031
O O8 0.125677 0.705381 0.683604
O O9 0.266055 0.796048 0.935889
O O10 0.055386 0.890524 0.996177
O O11 0.026093 0.188932 0.436492
O O12 0.815716 0.787462 0.574698
#
# Coordination Sequence:
#
# PCOD9367401 Si02
#       7
#     8   4   8   4   8   8   8
#     4  11  24  48  75 113 160 213 256 348 420 496
#     4  12  21  50  74 115 154 218 266 334 403 494
#     4  12  23  48  76 114 151 220 265 335 410 503
#     4  10  23  44  72 107 160 204 262 332 411 480
#     4  11  26  44  79 114 158 206 272 336 419 475
#     4  12  24  46  82 108 161 212 271 336 416 492
#     4  11  23  46  75 118 154 214 268 342 404 502
#
# _framework density 26.077265000000001
#
# number of rings (size 3 to 8) (size 9 to 14) (size 15 to 20)
#    0.000    0.667    6.667    0.000    2.333    2.667 
#   18.000    0.000    0.000    0.000    0.000    0.000 
#    0.000    0.000    0.000    0.000    0.000    0.000 
#
# Total GULP energy -133905.257455 kJ/mol
# GULP energy per Si atom -5579.385727 kJ/mol
# Density = 2.601791 g / cm^3
# Si number density = 26.077265 Si / 1000 Ang^3
#
#
#
# Elastic Constant Matrix: (Units=GPa)
#
#
# Indices 1 2 3 4 5 6 
#
# 1 138.0770 32.1054 23.0178 0.0000 0.0000 0.0000
# 2 32.1054 78.0484 36.7337 0.0000 0.0000 0.0000
# 3 23.0178 36.7337 106.0741 0.0000 0.0000 0.0000
# 4 0.0000 0.0000 0.0000 37.0556 0.0000 0.0000
# 5 0.0000 0.0000 0.0000 0.0000 41.8772 0.0000
# 6 0.0000 0.0000 0.0000 0.0000 0.0000 51.3026
#
#
#
# Elastic Compliance Matrix: (Units=1/GPa)
#
#
# Indices 1 2 3 4 5 6 
#
# 1 0.008054 -0.002975 -0.000717 0.000000 0.000000 0.000000
# 2 -0.002975 0.016407 -0.005036 0.000000 0.000000 0.000000
# 3 -0.000717 -0.005036 0.011327 0.000000 0.000000 0.000000
# 4 0.000000 0.000000 0.000000 0.026986 0.000000 0.000000
# 5 0.000000 0.000000 0.000000 0.000000 0.023879 0.000000
# 6 0.000000 0.000000 0.000000 0.000000 0.000000 0.019492
#
#
# Mechanical properties :
#
#
# Convention : Reuss Voigt Hill
#
# Bulk Modulus (GPa) = 54.55495 56.21260 55.38378
# Shear Modulus (GPa) = 38.54670 41.40326 39.97498
#
# Velocity S-wave (km/s) = 3.84887 3.98894 3.91953
# Velocity P-wave (km/s) = 6.38104 6.54358 6.46282
#
# Compressibility (1/GPa) = 0.01833014
#
# Stress axis : x y z
#
# Youngs Moduli (GPa) = 124.16610 60.95067 88.28451
#
# Poissons Ratio (x) = 0.18135 0.06332
# Poissons Ratio (y) = 0.36944 0.44460
# Poissons Ratio (z) = 0.08906 0.30695
#
# Static dielectric constant tensor:
#      x y z
#    x 2.336080 0.000000 0.000000 
#    y 0.000000 2.191160 0.000000 
#    z 0.000000 0.000000 2.111470 
# 
# From -- ./inp_files/7941.got.cif
#   From: 2010.05.17/outbox.cif.g08.bks.cpg/sg41_4_cif.got.tgz:7941.got - 2010.06.03 18:54:24.
