data_PCOD9367732
_publ_section_title
;
Structure prediction by ZEFSAII (Michael W. Deem and Ramdas Pophale) SiO2 
 PCOD9367732
Probable space group: A B A 2
;
_chemical_formula_sum "Si O2"
_cell_formula_units_Z 52
_cell_length_a 17.560155
_cell_length_b 16.459217
_cell_length_c 8.568082
_cell_angle_alpha 90.000000
_cell_angle_beta 90.000000
_cell_angle_gamma 90.000000
_cell_volume 2476.401910
_symmetry_space_group_name_H-M "A B A 2"
_symmetry_group_IT_number 41
_symmetry_cell_setting 'orthorhombic'
loop_
_space_group_symop_operation_xyz
x,y,z
-x,-y,z
1/2-x,y,1/2+z
1/2+x,-y,1/2+z
x,1/2+y,1/2+z
-x,1/2-y,1/2+z
1/2-x,1/2+y,z
1/2+x,1/2-y,z
loop_
_atom_site_type_symbol
_atom_site_label
_atom_site_fract_x
_atom_site_fract_y
_atom_site_fract_z
Si Si1 0.325154 0.762874 0.307060
Si Si2 0.172926 0.495272 0.194489
Si Si3 0.000000 0.000000 0.696289
Si Si4 0.970040 0.186121 0.622082
Si Si5 0.794729 0.823645 0.618768
Si Si6 0.905097 0.213024 0.282035
Si Si7 0.208468 0.905148 0.381423
O O1 0.403165 0.802776 0.249943
O O2 0.287469 0.714542 0.161082
O O3 0.329977 0.704219 0.454976
O O4 0.268931 0.831906 0.374818
O O5 0.195950 0.581354 0.125080
O O6 0.240065 0.476324 0.314385
O O7 0.086932 0.498006 0.263428
O O8 0.177950 0.429833 0.051772
O O9 0.000265 0.092127 0.620330
O O10 0.938510 0.207554 0.453359
O O11 0.030268 0.256523 0.665709
O O12 0.843731 0.784075 0.758671
O O13 0.859246 0.127666 0.268862
#
# Coordination Sequence:
#
# PCOD9367732 Si02
#       7
#     8   8   4   8   8   8   8
#     4  11  22  41  67 100 129 180 220 287 329 418
#     4  12  24  43  69  98 137 181 222 290 339 415
#     4  12  24  46  66 102 132 186 214 294 348 414
#     4  12  24  44  72  95 139 176 230 281 361 403
#     4  11  23  40  66  98 134 167 235 270 343 401
#     4  11  23  41  66 100 127 178 224 286 331 428
#     4  11  22  42  67  95 132 176 231 269 344 405
#
# _framework density 20.998208999999999
#
# number of rings (size 3 to 8) (size 9 to 14) (size 15 to 20)
#    0.000    0.615    4.615    5.538    0.000    0.000 
#    0.000    0.000    0.000    4.615    0.000    0.000 
#    0.000    0.000    0.000    0.000    0.000    0.000 
#
# Total GULP energy -144836.807680 kJ/mol
# GULP energy per Si atom -5570.646449 kJ/mol
# Density = 2.095042 g / cm^3
# Si number density = 20.998209 Si / 1000 Ang^3
#
#
#
# Elastic Constant Matrix: (Units=GPa)
#
#
# Indices 1 2 3 4 5 6 
#
# 1 118.4594 25.1230 26.7743 0.0000 0.0000 0.0000
# 2 25.1230 24.6343 4.9739 0.0000 0.0000 0.0000
# 3 26.7743 4.9739 61.2327 0.0000 0.0000 0.0000
# 4 0.0000 0.0000 0.0000 32.4773 0.0000 0.0000
# 5 0.0000 0.0000 0.0000 0.0000 34.4611 0.0000
# 6 0.0000 0.0000 0.0000 0.0000 0.0000 26.1895
#
#
#
# Elastic Compliance Matrix: (Units=1/GPa)
#
#
# Indices 1 2 3 4 5 6 
#
# 1 0.011762 -0.011140 -0.004238 0.000000 0.000000 0.000000
# 2 -0.011140 0.051821 0.000662 0.000000 0.000000 0.000000
# 3 -0.004238 0.000662 0.018131 0.000000 0.000000 0.000000
# 4 0.000000 0.000000 0.000000 0.030791 0.000000 0.000000
# 5 0.000000 0.000000 0.000000 0.000000 0.029018 0.000000
# 6 0.000000 0.000000 0.000000 0.000000 0.000000 0.038183
#
#
# Mechanical properties :
#
#
# Convention : Reuss Voigt Hill
#
# Bulk Modulus (GPa) = 19.12746 35.34098 27.23422
# Shear Modulus (GPa) = 22.06863 28.45591 25.26227
#
# Velocity S-wave (km/s) = 3.24539 3.68524 3.47229
# Velocity P-wave (km/s) = 4.81376 5.91397 5.39200
#
# Compressibility (1/GPa) = 0.05228086
#
# Stress axis : x y z
#
# Youngs Moduli (GPa) = 85.01838 19.29719 55.15547
#
# Poissons Ratio (x) = 0.21497 0.23376
# Poissons Ratio (y) = 0.94709 -0.03649
# Poissons Ratio (z) = 0.36032 -0.01277
#
# Static dielectric constant tensor:
#      x y z
#    x 1.888580 0.000000 0.000000 
#    y 0.000000 1.809100 0.000000 
#    z 0.000000 0.000000 1.762410 
# 
# From -- ./inp_files/3110.got.cif
#   From: 2010.05.17/outbox.cif.g08.bks.cpg/sg41_2_cif.got.tgz:3110.got - 2010.06.03 18:54:24.
