data_PCOD9367402
_publ_section_title
;
Structure prediction by ZEFSAII (Michael W. Deem and Ramdas Pophale) SiO2 
 PCOD9367402
Probable space group: A B A 2
;
_chemical_formula_sum "Si O2"
_cell_formula_units_Z 56
_cell_length_a 13.377698
_cell_length_b 16.749433
_cell_length_c 11.585212
_cell_angle_alpha 90.000000
_cell_angle_beta 90.000000
_cell_angle_gamma 90.000000
_cell_volume 2595.885203
_symmetry_space_group_name_H-M "A B A 2"
_symmetry_group_IT_number 41
_symmetry_cell_setting 'orthorhombic'
loop_
_space_group_symop_operation_xyz
x,y,z
-x,-y,z
1/2-x,y,1/2+z
1/2+x,-y,1/2+z
x,1/2+y,1/2+z
-x,1/2-y,1/2+z
1/2-x,1/2+y,z
1/2+x,1/2-y,z
loop_
_atom_site_type_symbol
_atom_site_label
_atom_site_fract_x
_atom_site_fract_y
_atom_site_fract_z
Si Si1 0.000000 0.500000 0.998680
Si Si2 0.671824 0.932947 0.514783
Si Si3 0.363895 0.803492 0.494642
Si Si4 0.000000 0.500000 0.666040
Si Si5 0.366718 0.634946 0.606769
Si Si6 0.287446 0.431537 0.406024
Si Si7 0.086864 0.855500 0.249145
Si Si8 0.440835 0.191123 0.357789
O O1 0.898250 0.540329 0.945507
O O2 0.950634 0.426434 0.066319
O O3 0.759163 0.907241 0.601649
O O4 0.620379 0.856453 0.455514
O O5 0.593098 0.987176 0.582748
O O6 0.719394 0.990745 0.418434
O O7 0.352442 0.708625 0.516059
O O8 0.266731 0.858360 0.472921
O O9 0.411082 0.826506 0.618121
O O10 0.943314 0.679071 0.392803
O O11 0.998008 0.577584 0.745979
O O12 0.400541 0.661531 0.734051
O O13 0.308821 0.398560 0.278489
O O14 0.072967 0.786264 0.342439
#
# Coordination Sequence:
#
# PCOD9367402 Si02
#       8
#     4   8   8   4   8   8   8   8
#     4  10  23  45  64 100 148 182 239 307 356 444
#     4  11  23  44  70 100 142 182 244 300 354 444
#     4  11  23  45  66 103 141 186 242 303 359 439
#     4  12  23  47  72 102 144 184 239 307 358 426
#     4  10  25  42  69 101 138 189 239 296 369 432
#     4  11  23  41  70 101 138 191 239 296 373 433
#     4  11  24  42  68 101 138 185 237 297 368 425
#     4  11  24  45  67 101 142 189 237 302 376 425
#
# _framework density 21.572603000000001
#
# number of rings (size 3 to 8) (size 9 to 14) (size 15 to 20)
#    0.000    1.143    2.857    2.143    2.000    4.000 
#    5.143    0.000    0.000    0.000    0.000    0.000 
#    0.000    0.000    0.000    0.000    0.000    0.000 
#
# Total GULP energy -156069.834433 kJ/mol
# GULP energy per Si atom -5573.922658 kJ/mol
# Density = 2.152350 g / cm^3
# Si number density = 21.572603 Si / 1000 Ang^3
#
#
#
# Elastic Constant Matrix: (Units=GPa)
#
#
# Indices 1 2 3 4 5 6 
#
# 1 119.0218 44.4226 26.4355 0.0000 0.0000 0.0000
# 2 44.4226 119.6239 23.1923 0.0000 0.0000 0.0000
# 3 26.4355 23.1923 50.6951 0.0000 0.0000 0.0000
# 4 0.0000 0.0000 0.0000 24.4958 0.0000 0.0000
# 5 0.0000 0.0000 0.0000 0.0000 22.1072 0.0000
# 6 0.0000 0.0000 0.0000 0.0000 0.0000 37.8260
#
#
#
# Elastic Compliance Matrix: (Units=1/GPa)
#
#
# Indices 1 2 3 4 5 6 
#
# 1 0.010455 -0.003100 -0.004033 0.000000 0.000000 0.000000
# 2 -0.003100 0.010093 -0.003000 0.000000 0.000000 0.000000
# 3 -0.004033 -0.003000 0.023202 0.000000 0.000000 0.000000
# 4 0.000000 0.000000 0.000000 0.040823 0.000000 0.000000
# 5 0.000000 0.000000 0.000000 0.000000 0.045234 0.000000
# 6 0.000000 0.000000 0.000000 0.000000 0.000000 0.026437
#
#
# Mechanical properties :
#
#
# Convention : Reuss Voigt Hill
#
# Bulk Modulus (GPa) = 42.58842 53.04907 47.81875
# Shear Modulus (GPa) = 27.12393 29.90514 28.51454
#
# Velocity S-wave (km/s) = 3.54974 3.72728 3.63959
# Velocity P-wave (km/s) = 6.04860 6.57023 6.31480
#
# Compressibility (1/GPa) = 0.02348056
#
# Stress axis : x y z
#
# Youngs Moduli (GPa) = 95.64948 99.08234 43.10031
#
# Poissons Ratio (x) = 0.30720 0.17384
# Poissons Ratio (y) = 0.29656 0.12932
# Poissons Ratio (z) = 0.38579 0.29729
#
# Static dielectric constant tensor:
#      x y z
#    x 1.771970 0.000000 0.000000 
#    y 0.000000 1.890920 0.000000 
#    z 0.000000 0.000000 1.815930 
# 
# From -- ./inp_files/8052.got.cif
#   From: 2010.05.17/outbox.cif.g08.bks.cpg/sg41_5_cif.got.tgz:8052.got - 2010.06.03 18:54:24.
