data_PCOD9367474
_publ_section_title
;
Structure prediction by ZEFSAII (Michael W. Deem and Ramdas Pophale) SiO2 
 PCOD9367474
Probable space group: A B A 2
;
_chemical_formula_sum "Si O2"
_cell_formula_units_Z 52
_cell_length_a 8.477806
_cell_length_b 10.242799
_cell_length_c 26.634065
_cell_angle_alpha 90.000000
_cell_angle_beta 90.000000
_cell_angle_gamma 90.000000
_cell_volume 2312.807995
_symmetry_space_group_name_H-M "A B A 2"
_symmetry_group_IT_number 41
_symmetry_cell_setting 'orthorhombic'
loop_
_space_group_symop_operation_xyz
x,y,z
-x,-y,z
1/2-x,y,1/2+z
1/2+x,-y,1/2+z
x,1/2+y,1/2+z
-x,1/2-y,1/2+z
1/2-x,1/2+y,z
1/2+x,1/2-y,z
loop_
_atom_site_type_symbol
_atom_site_label
_atom_site_fract_x
_atom_site_fract_y
_atom_site_fract_z
Si Si1 0.414561 0.777101 0.577570
Si Si2 0.417139 0.634842 0.715914
Si Si3 0.673138 0.067083 0.486379
Si Si4 0.780355 0.074545 0.867781
Si Si5 0.844289 0.299928 0.647523
Si Si6 0.106187 0.692210 0.328019
Si Si7 0.500000 0.500000 0.540627
O O1 0.353771 0.809670 0.522584
O O2 0.278555 0.792579 0.618467
O O3 0.559751 0.858382 0.600567
O O4 0.473637 0.627856 0.574529
O O5 0.500000 0.500000 0.728694
O O6 0.263610 0.609684 0.681885
O O7 0.537438 0.723388 0.683969
O O8 0.371105 0.700523 0.768354
O O9 0.697308 0.085650 0.427414
O O10 0.838310 0.009764 0.507992
O O11 0.500000 0.000000 0.491193
O O12 0.637313 0.166938 0.851836
O O13 0.931723 0.141088 0.841063
O O14 0.782473 0.923114 0.850882
#
# Coordination Sequence:
#
# PCOD9367474 Si02
#       7
#     8   8   8   8   8   8   4
#     4  11  24  46  67 104 145 187 243 298 367 442
#     4  11  23  44  72  98 141 187 241 301 372 434
#     4  12  27  46  75 109 146 193 255 304 366 453
#     4  11  26  45  74 106 145 189 246 302 380 435
#     4  10  24  40  69 103 135 186 236 296 366 434
#     4  11  24  48  72 104 145 189 239 318 362 451
#     4  12  28  44  74 100 154 200 236 306 368 428
#
# _framework density 22.48349
#
# number of rings (size 3 to 8) (size 9 to 14) (size 15 to 20)
#    0.000    0.923    4.615    1.846    8.615    1.846 
#    0.000    2.308    0.000    0.000    0.000    0.000 
#    0.000    0.000    0.000    0.000    0.000    0.000 
#
# Total GULP energy -145145.688099 kJ/mol
# GULP energy per Si atom -5582.526465 kJ/mol
# Density = 2.243232 g / cm^3
# Si number density = 22.483490 Si / 1000 Ang^3
#
#
#
# Elastic Constant Matrix: (Units=GPa)
#
#
# Indices 1 2 3 4 5 6 
#
# 1 107.4663 15.1348 33.9931 0.0000 0.0000 0.0000
# 2 15.1348 50.7725 20.1521 0.0000 0.0000 0.0000
# 3 33.9931 20.1521 161.6650 0.0000 0.0000 0.0000
# 4 0.0000 0.0000 0.0000 34.5543 0.0000 0.0000
# 5 0.0000 0.0000 0.0000 0.0000 8.0781 0.0000
# 6 0.0000 0.0000 0.0000 0.0000 0.0000 20.7270
#
#
#
# Elastic Compliance Matrix: (Units=1/GPa)
#
#
# Indices 1 2 3 4 5 6 
#
# 1 0.010219 -0.002307 -0.001861 0.000000 0.000000 0.000000
# 2 -0.002307 0.021242 -0.002163 0.000000 0.000000 0.000000
# 3 -0.001861 -0.002163 0.006847 0.000000 0.000000 0.000000
# 4 0.000000 0.000000 0.000000 0.028940 0.000000 0.000000
# 5 0.000000 0.000000 0.000000 0.000000 0.123792 0.000000
# 6 0.000000 0.000000 0.000000 0.000000 0.000000 0.048246
#
#
# Mechanical properties :
#
#
# Convention : Reuss Voigt Hill
#
# Bulk Modulus (GPa) = 38.99412 50.94042 44.96727
# Shear Modulus (GPa) = 19.19411 29.38011 24.28711
#
# Velocity S-wave (km/s) = 2.92498 3.61881 3.29024
# Velocity P-wave (km/s) = 5.36549 6.33775 5.87178
#
# Compressibility (1/GPa) = 0.02564489
#
# Stress axis : x y z
#
# Youngs Moduli (GPa) = 97.85787 47.07667 146.05911
#
# Poissons Ratio (x) = 0.10863 0.27183
# Poissons Ratio (y) = 0.22581 0.31588
# Poissons Ratio (z) = 0.18212 0.10181
#
# Static dielectric constant tensor:
#      x y z
#    x 1.908210 0.000000 0.000000 
#    y 0.000000 1.662930 0.000000 
#    z 0.000000 0.000000 1.797710 
# 
# From -- ./inp_files/12437.got.cif
#   From: 2010.05.17/outbox.cif.g08.bks.cpg/sg41_7_cif.got.tgz:12437.got - 2010.06.03 18:54:24.
