data_PCOD9367951
_publ_section_title
;
Structure prediction by ZEFSAII (Michael W. Deem and Ramdas Pophale) SiO2 
 PCOD9367951
Probable space group: A B A 2
;
_chemical_formula_sum "Si O2"
_cell_formula_units_Z 32
_cell_length_a 12.099365
_cell_length_b 9.212854
_cell_length_c 9.595492
_cell_angle_alpha 90.000000
_cell_angle_beta 90.000000
_cell_angle_gamma 90.000000
_cell_volume 1069.606454
_symmetry_space_group_name_H-M "A B A 2"
_symmetry_group_IT_number 41
_symmetry_cell_setting 'orthorhombic'
loop_
_space_group_symop_operation_xyz
x,y,z
-x,-y,z
1/2-x,y,1/2+z
1/2+x,-y,1/2+z
x,1/2+y,1/2+z
-x,1/2-y,1/2+z
1/2-x,1/2+y,z
1/2+x,1/2-y,z
loop_
_atom_site_type_symbol
_atom_site_label
_atom_site_fract_x
_atom_site_fract_y
_atom_site_fract_z
Si Si1 0.238485 0.046404 0.794060
Si Si2 0.620630 0.572521 0.056725
Si Si3 0.500068 0.173287 0.936422
Si Si4 0.120312 0.298667 0.194712
O O1 0.276379 0.208149 0.757175
O O2 0.398983 0.760141 0.513439
O O3 0.134105 0.968876 0.721942
O O4 0.211243 0.999768 0.951913
O O5 0.662017 0.535316 0.211010
O O6 0.397061 0.779043 0.031261
O O7 0.500000 0.000000 0.938598
O O8 0.482881 0.237506 0.782813
O O9 0.000000 0.000000 0.034203
#
# Coordination Sequence:
#
# PCOD9367951 Si02
#       4
#     8   8   8   8
#     4  11  28  50  82 123 163 221 274 348 418 499
#     4  11  26  55  83 121 172 218 280 348 418 502
#     4  11  28  51  85 121 164 229 272 348 426 490
#     4  11  28  52  84 119 171 214 284 341 421 500
#
# _framework density 29.917543999999999
#
# number of rings (size 3 to 8) (size 9 to 14) (size 15 to 20)
#    0.000    1.000    2.500    0.000   10.500    8.000 
#    0.000    0.000    0.000    0.000    0.000    0.000 
#    0.000    0.000    0.000    0.000    0.000    0.000 
#
# Total GULP energy -89521.231669 kJ/mol
# GULP energy per Si atom -5595.076979 kJ/mol
# Density = 2.984945 g / cm^3
# Si number density = 29.917544 Si / 1000 Ang^3
#
#
#
# Elastic Constant Matrix: (Units=GPa)
#
#
# Indices 1 2 3 4 5 6 
#
# 1 137.7097 64.1696 109.3887 0.0000 0.0000 0.0000
# 2 64.1696 205.6733 88.1842 0.0000 0.0000 0.0000
# 3 109.3887 88.1842 130.6083 0.0000 0.0000 0.0000
# 4 0.0000 0.0000 0.0000 34.0902 0.0000 0.0000
# 5 0.0000 0.0000 0.0000 0.0000 77.7544 0.0000
# 6 0.0000 0.0000 0.0000 0.0000 0.0000 79.5633
#
#
#
# Elastic Compliance Matrix: (Units=1/GPa)
#
#
# Indices 1 2 3 4 5 6 
#
# 1 0.022002 0.001459 -0.019412 0.000000 0.000000 0.000000
# 2 0.001459 0.006940 -0.005907 0.000000 0.000000 0.000000
# 3 -0.019412 -0.005907 0.027903 0.000000 0.000000 0.000000
# 4 0.000000 0.000000 0.000000 0.029334 0.000000 0.000000
# 5 0.000000 0.000000 0.000000 0.000000 0.012861 0.000000
# 6 0.000000 0.000000 0.000000 0.000000 0.000000 0.012569
#
#
# Mechanical properties :
#
#
# Convention : Reuss Voigt Hill
#
# Bulk Modulus (GPa) = 109.60857 110.83071 110.21964
# Shear Modulus (GPa) = 30.79382 52.43152 41.61267
#
# Velocity S-wave (km/s) = 3.21173 4.19087 3.73354
# Velocity P-wave (km/s) = 7.10423 7.78098 7.45029
#
# Compressibility (1/GPa) = 0.00912337
#
# Stress axis : x y z
#
# Youngs Moduli (GPa) = 45.45099 144.09695 35.83843
#
# Poissons Ratio (x) = -0.21017 0.69569
# Poissons Ratio (y) = -0.06629 0.21170
# Poissons Ratio (z) = 0.88229 0.85121
#
# Static dielectric constant tensor:
#      x y z
#    x 2.391420 0.000000 0.000000 
#    y 0.000000 2.346600 0.000000 
#    z 0.000000 0.000000 2.294800 
# 
# From -- ./inp_files/5313.got.cif
#   From: 2010.05.17/outbox.cif.g08.bks.cpg/sg41_3_cif.got.tgz:5313.got - 2010.06.03 18:54:24.
