data_PCOD9367172
_publ_section_title
;
Structure prediction by ZEFSAII (Michael W. Deem and Ramdas Pophale) SiO2 
 PCOD9367172
Probable space group: A B A 2
;
_chemical_formula_sum "Si O2"
_cell_formula_units_Z 32
_cell_length_a 11.929394
_cell_length_b 11.743894
_cell_length_c 8.732380
_cell_angle_alpha 90.000000
_cell_angle_beta 90.000000
_cell_angle_gamma 90.000000
_cell_volume 1223.384944
_symmetry_space_group_name_H-M "A B A 2"
_symmetry_group_IT_number 41
_symmetry_cell_setting 'orthorhombic'
loop_
_space_group_symop_operation_xyz
x,y,z
-x,-y,z
1/2-x,y,1/2+z
1/2+x,-y,1/2+z
x,1/2+y,1/2+z
-x,1/2-y,1/2+z
1/2-x,1/2+y,z
1/2+x,1/2-y,z
loop_
_atom_site_type_symbol
_atom_site_label
_atom_site_fract_x
_atom_site_fract_y
_atom_site_fract_z
Si Si1 0.607207 0.378963 0.230810
Si Si2 0.154344 0.541387 0.231061
Si Si3 0.969729 0.790217 0.915205
Si Si4 0.821719 0.580943 0.915187
O O1 0.741103 0.371669 0.198650
O O2 0.569063 0.294563 0.367109
O O3 0.609616 0.509402 0.288632
O O4 0.535808 0.346051 0.082112
O O5 0.050308 0.614554 0.286979
O O6 0.145374 0.468954 0.078671
O O7 0.196857 0.458216 0.368872
O O8 0.859436 0.709349 0.910733
#
# Coordination Sequence:
#
# PCOD9367172 Si02
#       4
#     8   8   8   8
#     4  10  23  41  63 100 125 168 226 260 325 405
#     4  10  22  43  64  95 128 166 229 257 321 407
#     4  12  23  43  69  90 137 173 206 288 322 379
#     4  10  23  42  64  93 129 170 215 271 326 388
#
# _framework density 26.156934
#
# number of rings (size 3 to 8) (size 9 to 14) (size 15 to 20)
#    1.500    0.000    2.500    2.250    3.500    0.000 
#    0.000    5.000    0.000    0.000    0.000    0.000 
#    0.000    0.000    0.000    0.000    0.000    0.000 
#
# Total GULP energy -89482.175289 kJ/mol
# GULP energy per Si atom -5592.635956 kJ/mol
# Density = 2.609740 g / cm^3
# Si number density = 26.156934 Si / 1000 Ang^3
#
#
#
# Elastic Constant Matrix: (Units=GPa)
#
#
# Indices 1 2 3 4 5 6 
#
# 1 64.7800 2.8886 6.0426 0.0000 0.0000 0.0000
# 2 2.8886 118.0105 66.1990 0.0000 0.0000 0.0000
# 3 6.0426 66.1990 162.7938 0.0000 0.0000 0.0000
# 4 0.0000 0.0000 0.0000 54.8628 0.0000 0.0000
# 5 0.0000 0.0000 0.0000 0.0000 38.6662 0.0000
# 6 0.0000 0.0000 0.0000 0.0000 0.0000 29.1741
#
#
#
# Elastic Compliance Matrix: (Units=1/GPa)
#
#
# Indices 1 2 3 4 5 6 
#
# 1 0.015491 -0.000073 -0.000545 0.000000 0.000000 0.000000
# 2 -0.000073 0.010978 -0.004462 0.000000 0.000000 0.000000
# 3 -0.000545 -0.004462 0.007977 0.000000 0.000000 0.000000
# 4 0.000000 0.000000 0.000000 0.018227 0.000000 0.000000
# 5 0.000000 0.000000 0.000000 0.000000 0.025862 0.000000
# 6 0.000000 0.000000 0.000000 0.000000 0.000000 0.034277
#
#
# Mechanical properties :
#
#
# Convention : Reuss Voigt Hill
#
# Bulk Modulus (GPa) = 41.17528 55.09386 48.13457
# Shear Modulus (GPa) = 38.14790 42.57090 40.35940
#
# Velocity S-wave (km/s) = 3.82307 4.03863 3.93233
# Velocity P-wave (km/s) = 5.93832 6.54644 6.24978
#
# Compressibility (1/GPa) = 0.02428642
#
# Stress axis : x y z
#
# Youngs Moduli (GPa) = 64.55365 91.08824 125.35671
#
# Poissons Ratio (x) = 0.00668 0.06834
# Poissons Ratio (y) = 0.00474 0.55929
# Poissons Ratio (z) = 0.03519 0.40640
#
# Static dielectric constant tensor:
#      x y z
#    x 2.282310 0.000000 0.000000 
#    y 0.000000 1.986950 0.000000 
#    z 0.000000 0.000000 1.971090 
# 
# From -- ./inp_files/2298.got.cif
#   From: 2010.05.17/outbox.cif.g08.bks.cpg/sg41_2_cif.got.tgz:2298.got - 2010.06.03 18:54:24.
