data_PCOD9367499
_publ_section_title
;
Structure prediction by ZEFSAII (Michael W. Deem and Ramdas Pophale) SiO2 
 PCOD9367499
Probable space group: A B A 2
;
_chemical_formula_sum "Si O2"
_cell_formula_units_Z 40
_cell_length_a 10.716191
_cell_length_b 9.029217
_cell_length_c 18.034031
_cell_angle_alpha 90.000000
_cell_angle_beta 90.000000
_cell_angle_gamma 90.000000
_cell_volume 1744.951450
_symmetry_space_group_name_H-M "A B A 2"
_symmetry_group_IT_number 41
_symmetry_cell_setting 'orthorhombic'
loop_
_space_group_symop_operation_xyz
x,y,z
-x,-y,z
1/2-x,y,1/2+z
1/2+x,-y,1/2+z
x,1/2+y,1/2+z
-x,1/2-y,1/2+z
1/2-x,1/2+y,z
1/2+x,1/2-y,z
loop_
_atom_site_type_symbol
_atom_site_label
_atom_site_fract_x
_atom_site_fract_y
_atom_site_fract_z
Si Si1 0.855003 0.344810 0.987300
Si Si2 0.294470 0.322947 0.264503
Si Si3 0.620573 0.672745 0.430545
Si Si4 0.535985 0.828342 0.144874
Si Si5 0.618678 0.396458 0.214120
O O1 0.860671 0.521372 0.976223
O O2 0.723300 0.287418 0.958688
O O3 0.976460 0.283396 0.942857
O O4 0.880602 0.304576 0.072429
O O5 0.347416 0.358862 0.344961
O O6 0.388502 0.220339 0.217779
O O7 0.279612 0.471689 0.215269
O O8 0.168958 0.226439 0.270813
O O9 0.422194 0.707400 0.145393
O O10 0.500000 0.000000 0.146726
O O11 0.500000 0.500000 0.232148
#
# Coordination Sequence:
#
# PCOD9367499 Si02
#       5
#     8   8   8   8   8
#     4  11  27  49  73 108 157 201 254 307 401 464
#     4  11  24  43  78 108 147 198 262 315 382 452
#     4  11  26  49  77 107 155 203 251 319 388 467
#     4  11  24  45  73 109 151 195 254 316 382 464
#     4  10  24  42  71 111 149 190 251 319 383 446
#
# _framework density 22.923273999999999
#
# number of rings (size 3 to 8) (size 9 to 14) (size 15 to 20)
#    0.000    1.200    2.000    2.400   16.800    4.000 
#    3.600    0.000    0.000    0.000    0.000    0.000 
#    0.000    0.000    0.000    0.000    0.000    0.000 
#
# Total GULP energy -111595.383710 kJ/mol
# GULP energy per Si atom -5579.769185 kJ/mol
# Density = 2.287110 g / cm^3
# Si number density = 22.923274 Si / 1000 Ang^3
#
#
#
# Elastic Constant Matrix: (Units=GPa)
#
#
# Indices 1 2 3 4 5 6 
#
# 1 65.1577 26.4309 -11.5230 0.0000 0.0000 0.0000
# 2 26.4309 116.2115 -1.6773 0.0000 0.0000 0.0000
# 3 -11.5230 -1.6773 66.7779 0.0000 0.0000 0.0000
# 4 0.0000 0.0000 0.0000 22.3383 0.0000 0.0000
# 5 0.0000 0.0000 0.0000 0.0000 41.0617 0.0000
# 6 0.0000 0.0000 0.0000 0.0000 0.0000 50.0909
#
#
#
# Elastic Compliance Matrix: (Units=1/GPa)
#
#
# Indices 1 2 3 4 5 6 
#
# 1 0.017456 -0.003928 0.002913 0.000000 0.000000 0.000000
# 2 -0.003928 0.009492 -0.000439 0.000000 0.000000 0.000000
# 3 0.002913 -0.000439 0.015467 0.000000 0.000000 0.000000
# 4 0.000000 0.000000 0.000000 0.044766 0.000000 0.000000
# 5 0.000000 0.000000 0.000000 0.000000 0.024354 0.000000
# 6 0.000000 0.000000 0.000000 0.000000 0.000000 0.019964
#
#
# Mechanical properties :
#
#
# Convention : Reuss Voigt Hill
#
# Bulk Modulus (GPa) = 25.31211 30.51204 27.91207
# Shear Modulus (GPa) = 33.88104 38.35930 36.12017
#
# Velocity S-wave (km/s) = 3.84867 4.09513 3.97381
# Velocity P-wave (km/s) = 5.55120 5.97491 5.76695
#
# Compressibility (1/GPa) = 0.03950678
#
# Stress axis : x y z
#
# Youngs Moduli (GPa) = 57.28676 105.35121 64.65492
#
# Poissons Ratio (x) = 0.41383 -0.18837
# Poissons Ratio (y) = 0.22503 0.02841
# Poissons Ratio (z) = -0.16690 0.04629
#
# Static dielectric constant tensor:
#      x y z
#    x 2.093870 0.000000 0.000000 
#    y 0.000000 1.850320 0.000000 
#    z 0.000000 0.000000 1.812980 
# 
# From -- ./inp_files/9902.got.cif
#   From: 2010.05.17/outbox.cif.g08.bks.cpg/sg41_5_cif.got.tgz:9902.got - 2010.06.03 18:54:24.
