data_PCOD9367404
_publ_section_title
;
Structure prediction by ZEFSAII (Michael W. Deem and Ramdas Pophale) SiO2 
 PCOD9367404
Probable space group: A B A 2
;
_chemical_formula_sum "Si O2"
_cell_formula_units_Z 56
_cell_length_a 21.093171
_cell_length_b 9.103260
_cell_length_c 13.394591
_cell_angle_alpha 90.000000
_cell_angle_beta 90.000000
_cell_angle_gamma 90.000000
_cell_volume 2571.984088
_symmetry_space_group_name_H-M "A B A 2"
_symmetry_group_IT_number 41
_symmetry_cell_setting 'orthorhombic'
loop_
_space_group_symop_operation_xyz
x,y,z
-x,-y,z
1/2-x,y,1/2+z
1/2+x,-y,1/2+z
x,1/2+y,1/2+z
-x,1/2-y,1/2+z
1/2-x,1/2+y,z
1/2+x,1/2-y,z
loop_
_atom_site_type_symbol
_atom_site_label
_atom_site_fract_x
_atom_site_fract_y
_atom_site_fract_z
Si Si1 0.255885 0.998301 0.261530
Si Si2 0.332652 0.575076 0.081398
Si Si3 0.719627 0.255123 0.897396
Si Si4 0.462877 0.137984 0.678505
Si Si5 0.051674 0.613376 0.095494
Si Si6 0.387496 0.403887 0.762144
Si Si7 0.145603 0.794385 0.964678
O O1 0.216823 0.902324 0.342914
O O2 0.314504 0.897781 0.223451
O O3 0.211749 0.069576 0.178715
O O4 0.297385 0.124202 0.315210
O O5 0.407119 0.583797 0.105691
O O6 0.314161 0.699630 0.000271
O O7 0.322734 0.411466 0.038617
O O8 0.794600 0.280780 0.912941
O O9 0.514866 0.239571 0.626034
O O10 0.424407 0.251258 0.745861
O O11 0.500000 0.000000 0.724193
O O12 0.079015 0.527807 0.193462
O O13 0.000000 0.500000 0.051166
O O14 0.104421 0.671951 0.019575
O O15 0.387314 0.400798 0.882652
#
# Coordination Sequence:
#
# PCOD9367404 Si02
#       7
#     8   8   8   8   8   8   8
#     4  11  25  41  68 101 139 171 226 279 356 419
#     4  12  24  41  71  95 144 177 219 294 338 412
#     4  11  24  42  65 107 133 174 223 277 350 425
#     4  11  24  45  66  98 134 183 233 278 343 412
#     4  10  23  45  69  96 136 183 233 284 345 399
#     4  10  23  45  68 100 135 176 226 288 348 413
#     4  11  23  42  69 102 133 173 232 276 352 418
#
# _framework density 21.773074999999999
#
# number of rings (size 3 to 8) (size 9 to 14) (size 15 to 20)
#    0.000    1.143    4.286    2.571    6.000    2.857 
#    7.714    0.000    0.000    0.000    0.000    0.000 
#    0.000    0.000    0.000    0.000    0.000    0.000 
#
# Total GULP energy -156038.047274 kJ/mol
# GULP energy per Si atom -5572.787403 kJ/mol
# Density = 2.172352 g / cm^3
# Si number density = 21.773075 Si / 1000 Ang^3
#
#
#
# Elastic Constant Matrix: (Units=GPa)
#
#
# Indices 1 2 3 4 5 6 
#
# 1 75.5716 34.2608 28.9093 0.0000 0.0000 0.0000
# 2 34.2608 50.8947 28.4056 0.0000 0.0000 0.0000
# 3 28.9093 28.4056 86.4234 0.0000 0.0000 0.0000
# 4 0.0000 0.0000 0.0000 8.1796 0.0000 0.0000
# 5 0.0000 0.0000 0.0000 0.0000 19.0124 0.0000
# 6 0.0000 0.0000 0.0000 0.0000 0.0000 35.2903
#
#
#
# Elastic Compliance Matrix: (Units=1/GPa)
#
#
# Indices 1 2 3 4 5 6 
#
# 1 0.019550 -0.011647 -0.002711 0.000000 0.000000 0.000000
# 2 -0.011647 0.031002 -0.006293 0.000000 0.000000 0.000000
# 3 -0.002711 -0.006293 0.014546 0.000000 0.000000 0.000000
# 4 0.000000 0.000000 0.000000 0.122256 0.000000 0.000000
# 5 0.000000 0.000000 0.000000 0.000000 0.052597 0.000000
# 6 0.000000 0.000000 0.000000 0.000000 0.000000 0.028336
#
#
# Mechanical properties :
#
#
# Convention : Reuss Voigt Hill
#
# Bulk Modulus (GPa) = 42.02775 44.00454 43.01614
# Shear Modulus (GPa) = 15.74688 20.58406 18.16547
#
# Velocity S-wave (km/s) = 2.69221 3.07806 2.89157
# Velocity P-wave (km/s) = 5.38595 5.73472 5.56307
#
# Compressibility (1/GPa) = 0.02379381
#
# Stress axis : x y z
#
# Youngs Moduli (GPa) = 51.15078 32.25649 68.74516
#
# Poissons Ratio (x) = 0.37570 0.18640
# Poissons Ratio (y) = 0.59576 0.43265
# Poissons Ratio (z) = 0.13869 0.20301
#
# Static dielectric constant tensor:
#      x y z
#    x 1.789710 0.000000 0.000000 
#    y 0.000000 1.879560 0.000000 
#    z 0.000000 0.000000 1.876600 
# 
# From -- ./inp_files/9008.got.cif
#   From: 2010.05.17/outbox.cif.g08.bks.cpg/sg41_5_cif.got.tgz:9008.got - 2010.06.03 18:54:24.
