data_PCOD9367816
_publ_section_title
;
Structure prediction by ZEFSAII (Michael W. Deem and Ramdas Pophale) SiO2 
 PCOD9367816
Probable space group: A B A 2
;
_chemical_formula_sum "Si O2"
_cell_formula_units_Z 60
_cell_length_a 16.730296
_cell_length_b 18.594274
_cell_length_c 8.380437
_cell_angle_alpha 90.000000
_cell_angle_beta 90.000000
_cell_angle_gamma 90.000000
_cell_volume 2607.050938
_symmetry_space_group_name_H-M "A B A 2"
_symmetry_group_IT_number 41
_symmetry_cell_setting 'orthorhombic'
loop_
_space_group_symop_operation_xyz
x,y,z
-x,-y,z
1/2-x,y,1/2+z
1/2+x,-y,1/2+z
x,1/2+y,1/2+z
-x,1/2-y,1/2+z
1/2-x,1/2+y,z
1/2+x,1/2-y,z
loop_
_atom_site_type_symbol
_atom_site_label
_atom_site_fract_x
_atom_site_fract_y
_atom_site_fract_z
Si Si1 0.615264 0.780388 0.539040
Si Si2 0.500000 0.000000 0.524042
Si Si3 0.225551 0.349812 0.929822
Si Si4 0.284587 0.107431 0.724494
Si Si5 0.335150 0.446921 0.165893
Si Si6 0.978608 0.373858 0.306385
Si Si7 0.881290 0.711662 0.349143
Si Si8 0.365401 0.157154 0.056032
O O1 0.667964 0.711868 0.494987
O O2 0.668042 0.848388 0.589717
O O3 0.556996 0.805108 0.400716
O O4 0.578137 0.758639 0.709499
O O5 0.572157 0.036927 0.622429
O O6 0.456959 0.056456 0.407205
O O7 0.172348 0.405098 0.831653
O O8 0.288441 0.305058 0.821632
O O9 0.284175 0.396364 0.044649
O O10 0.196062 0.139873 0.700299
O O11 0.290900 0.023576 0.685576
O O12 0.326156 0.123615 0.895588
O O13 0.947411 0.374641 0.126304
O O14 0.072591 0.362852 0.332445
O O15 0.880259 0.759518 0.509497
#
# Coordination Sequence:
#
# PCOD9367816 Si02
#       8
#     8   4   8   8   8   8   8   8
#     4  11  24  44  73 107 141 192 247 313 373 461
#     4  12  28  50  72 106 160 212 246 310 404 466
#     4  12  25  45  77 109 147 191 261 314 384 447
#     4  11  23  45  72 109 144 191 252 300 381 455
#     4  12  27  49  74 109 153 200 246 323 383 467
#     4  12  26  46  74 103 153 196 248 307 391 456
#     4  11  24  44  70 108 145 189 246 317 377 448
#     4  11  25  42  75 107 142 193 251 309 372 453
#
# _framework density 23.014510000000001
#
# number of rings (size 3 to 8) (size 9 to 14) (size 15 to 20)
#    0.000    0.533    5.333    2.400    5.600    1.067 
#    4.800    0.000    0.000    0.000    0.000    0.000 
#    0.000    0.000    0.000    0.000    0.000    0.000 
#
# Total GULP energy -167468.419096 kJ/mol
# GULP energy per Si atom -5582.280637 kJ/mol
# Density = 2.296213 g / cm^3
# Si number density = 23.014510 Si / 1000 Ang^3
#
#
#
# Elastic Constant Matrix: (Units=GPa)
#
#
# Indices 1 2 3 4 5 6 
#
# 1 74.2599 26.9331 45.9304 0.0000 0.0000 0.0000
# 2 26.9331 110.5312 44.1475 0.0000 0.0000 0.0000
# 3 45.9304 44.1475 94.9967 0.0000 0.0000 0.0000
# 4 0.0000 0.0000 0.0000 34.0256 0.0000 0.0000
# 5 0.0000 0.0000 0.0000 0.0000 18.5547 0.0000
# 6 0.0000 0.0000 0.0000 0.0000 0.0000 38.4431
#
#
#
# Elastic Compliance Matrix: (Units=1/GPa)
#
#
# Indices 1 2 3 4 5 6 
#
# 1 0.019340 -0.001201 -0.008793 0.000000 0.000000 0.000000
# 2 -0.001201 0.011184 -0.004617 0.000000 0.000000 0.000000
# 3 -0.008793 -0.004617 0.016924 0.000000 0.000000 0.000000
# 4 0.000000 0.000000 0.000000 0.029390 0.000000 0.000000
# 5 0.000000 0.000000 0.000000 0.000000 0.053895 0.000000
# 6 0.000000 0.000000 0.000000 0.000000 0.000000 0.026012
#
#
# Mechanical properties :
#
#
# Convention : Reuss Voigt Hill
#
# Bulk Modulus (GPa) = 54.86458 57.08997 55.97728
# Shear Modulus (GPa) = 26.03614 29.05648 27.54631
#
# Velocity S-wave (km/s) = 3.36712 3.55706 3.46339
# Velocity P-wave (km/s) = 6.24560 6.45989 6.35365
#
# Compressibility (1/GPa) = 0.01822669
#
# Stress axis : x y z
#
# Youngs Moduli (GPa) = 51.70596 89.41485 59.08907
#
# Poissons Ratio (x) = 0.10735 0.51956
# Poissons Ratio (y) = 0.06208 0.27281
# Poissons Ratio (z) = 0.45464 0.41282
#
# Static dielectric constant tensor:
#      x y z
#    x 1.992160 0.000000 0.000000 
#    y 0.000000 1.868240 0.000000 
#    z 0.000000 0.000000 1.939310 
# 
# From -- ./inp_files/3154.got.cif
#   From: 2010.05.17/outbox.cif.g08.bks.cpg/sg41_2_cif.got.tgz:3154.got - 2010.06.03 18:54:24.
