data_PCOD9367736
_publ_section_title
;
Structure prediction by ZEFSAII (Michael W. Deem and Ramdas Pophale) SiO2 
 PCOD9367736
Probable space group: A B A 2
;
_chemical_formula_sum "Si O2"
_cell_formula_units_Z 60
_cell_length_a 11.203274
_cell_length_b 9.440459
_cell_length_c 25.447033
_cell_angle_alpha 90.000000
_cell_angle_beta 90.000000
_cell_angle_gamma 90.000000
_cell_volume 2691.381242
_symmetry_space_group_name_H-M "A B A 2"
_symmetry_group_IT_number 41
_symmetry_cell_setting 'orthorhombic'
loop_
_space_group_symop_operation_xyz
x,y,z
-x,-y,z
1/2-x,y,1/2+z
1/2+x,-y,1/2+z
x,1/2+y,1/2+z
-x,1/2-y,1/2+z
1/2-x,1/2+y,z
1/2+x,1/2-y,z
loop_
_atom_site_type_symbol
_atom_site_label
_atom_site_fract_x
_atom_site_fract_y
_atom_site_fract_z
Si Si1 0.364181 0.490056 0.675030
Si Si2 0.540378 0.835638 0.912515
Si Si3 0.364492 0.959715 0.054083
Si Si4 0.714161 0.878725 0.819432
Si Si5 0.767272 0.296633 0.996907
Si Si6 0.119153 0.086627 0.904567
Si Si7 0.821582 0.219818 0.222478
Si Si8 0.500000 0.500000 0.250507
O O1 0.500000 0.500000 0.694209
O O2 0.363359 0.429123 0.616002
O O3 0.317890 0.650247 0.681772
O O4 0.282426 0.390015 0.709657
O O5 0.635533 0.810581 0.866001
O O6 0.423775 0.748272 0.896795
O O7 0.500000 0.000000 0.917147
O O8 0.608284 0.775503 0.964559
O O9 0.307031 0.838623 0.017015
O O10 0.500000 0.000000 0.039381
O O11 0.293233 0.105229 0.046441
O O12 0.807257 0.967508 0.854604
O O13 0.791912 0.784806 0.779657
O O14 0.613419 0.956512 0.785481
O O15 0.696461 0.398941 0.956764
O O16 0.000000 0.000000 0.912136
O O17 0.947347 0.135366 0.219748
#
# Coordination Sequence:
#
# PCOD9367736 Si02
#       8
#     8   8   8   8   8   8   8   4
#     4  11  26  46  73 102 137 179 238 301 361 432
#     4  11  23  41  65  98 140 185 230 277 339 412
#     4  11  24  45  70  99 134 177 228 292 355 419
#     4  11  25  41  69  96 143 186 234 279 347 413
#     4  11  22  41  69  96 136 183 225 281 351 416
#     4  11  25  39  63 102 138 177 233 281 334 409
#     4  12  25  47  71 104 139 186 236 295 359 428
#     4  12  24  46  68 100 144 190 230 292 356 416
#
# _framework density 22.293385000000001
#
# number of rings (size 3 to 8) (size 9 to 14) (size 15 to 20)
#    0.000    0.800    2.000    5.200    1.867    2.667 
#    0.000    0.000    0.000    0.000    0.000    0.000 
#    0.000    0.000    0.000    0.000    0.000    0.000 
#
# Total GULP energy -167557.317202 kJ/mol
# GULP energy per Si atom -5585.243907 kJ/mol
# Density = 2.224264 g / cm^3
# Si number density = 22.293385 Si / 1000 Ang^3
#
#
#
# Elastic Constant Matrix: (Units=GPa)
#
#
# Indices 1 2 3 4 5 6 
#
# 1 109.2384 42.9604 29.0577 0.0000 0.0000 0.0000
# 2 42.9604 111.1482 22.7565 0.0000 0.0000 0.0000
# 3 29.0577 22.7565 78.4882 0.0000 0.0000 0.0000
# 4 0.0000 0.0000 0.0000 9.2128 0.0000 0.0000
# 5 0.0000 0.0000 0.0000 0.0000 17.2726 0.0000
# 6 0.0000 0.0000 0.0000 0.0000 0.0000 50.4434
#
#
#
# Elastic Compliance Matrix: (Units=1/GPa)
#
#
# Indices 1 2 3 4 5 6 
#
# 1 0.011485 -0.003794 -0.003152 0.000000 0.000000 0.000000
# 2 -0.003794 0.010818 -0.001732 0.000000 0.000000 0.000000
# 3 -0.003152 -0.001732 0.014410 0.000000 0.000000 0.000000
# 4 0.000000 0.000000 0.000000 0.108544 0.000000 0.000000
# 5 0.000000 0.000000 0.000000 0.000000 0.057895 0.000000
# 6 0.000000 0.000000 0.000000 0.000000 0.000000 0.019824
#
#
# Mechanical properties :
#
#
# Convention : Reuss Voigt Hill
#
# Bulk Modulus (GPa) = 51.66026 54.26933 52.96480
# Shear Modulus (GPa) = 20.26068 28.99244 24.62656
#
# Velocity S-wave (km/s) = 3.01794 3.61015 3.32725
# Velocity P-wave (km/s) = 5.94703 6.46326 6.21051
#
# Compressibility (1/GPa) = 0.01935724
#
# Stress axis : x y z
#
# Youngs Moduli (GPa) = 87.07275 92.43928 69.39708
#
# Poissons Ratio (x) = 0.35068 0.21873
# Poissons Ratio (y) = 0.33032 0.12020
# Poissons Ratio (z) = 0.27444 0.16011
#
# Static dielectric constant tensor:
#      x y z
#    x 1.837660 0.000000 0.000000 
#    y 0.000000 1.867670 0.000000 
#    z 0.000000 0.000000 1.829700 
# 
# From -- ./inp_files/12539.got.cif
#   From: 2010.05.17/outbox.cif.g08.bks.cpg/sg41_7_cif.got.tgz:12539.got - 2010.06.03 18:54:24.
