data_PCOD9367216
_publ_section_title
;
Structure prediction by ZEFSAII (Michael W. Deem and Ramdas Pophale) SiO2 
 PCOD9367216
Probable space group: A B A 2
;
_chemical_formula_sum "Si O2"
_cell_formula_units_Z 60
_cell_length_a 11.619324
_cell_length_b 28.151142
_cell_length_c 8.062319
_cell_angle_alpha 90.000000
_cell_angle_beta 90.000000
_cell_angle_gamma 90.000000
_cell_volume 2637.162292
_symmetry_space_group_name_H-M "A B A 2"
_symmetry_group_IT_number 41
_symmetry_cell_setting 'orthorhombic'
loop_
_space_group_symop_operation_xyz
x,y,z
-x,-y,z
1/2-x,y,1/2+z
1/2+x,-y,1/2+z
x,1/2+y,1/2+z
-x,1/2-y,1/2+z
1/2-x,1/2+y,z
1/2+x,1/2-y,z
loop_
_atom_site_type_symbol
_atom_site_label
_atom_site_fract_x
_atom_site_fract_y
_atom_site_fract_z
Si Si1 0.757480 0.210974 0.199320
Si Si2 0.363407 0.385840 0.656482
Si Si3 0.362444 0.918537 0.784117
Si Si4 0.181988 0.638102 0.821579
Si Si5 0.500000 0.500000 0.468784
Si Si6 0.525077 0.658751 0.068411
Si Si7 0.658156 0.280618 0.958143
Si Si8 0.610387 0.916194 0.141811
O O1 0.678175 0.165031 0.221055
O O2 0.829326 0.233876 0.347086
O O3 0.861904 0.191035 0.088717
O O4 0.683380 0.254708 0.131338
O O5 0.361742 0.386896 0.454727
O O6 0.269327 0.422936 0.725522
O O7 0.490026 0.398864 0.720207
O O8 0.422250 0.892539 0.625727
O O9 0.427481 0.964980 0.849995
O O10 0.086619 0.655629 0.692295
O O11 0.242766 0.682025 0.912087
O O12 0.279175 0.603052 0.741762
O O13 0.119868 0.609099 0.964466
O O14 0.586487 0.470544 0.588815
O O15 0.456631 0.689085 0.929367
#
# Coordination Sequence:
#
# PCOD9367216 Si02
#       8
#     8   8   8   8   4   8   8   8
#     4  11  25  39  65  95 132 180 239 280 325 404
#     4  10  22  44  66  98 141 178 227 289 355 397
#     4  10  22  44  71  97 135 179 221 288 358 418
#     4  12  23  45  62  93 138 180 218 278 363 390
#     4  10  22  44  76 104 130 176 232 290 346 434
#     4  11  23  42  63  92 137 177 223 280 353 393
#     4  12  25  40  62  99 128 185 233 279 325 412
#     4  11  25  43  71  96 135 178 224 287 347 423
#
# _framework density 22.751728
#
# number of rings (size 3 to 8) (size 9 to 14) (size 15 to 20)
#    0.000    1.067    5.333    1.600    1.867    6.400 
#    0.000    0.000    0.000    6.400    0.000    0.000 
#    0.000    0.000    0.000    0.000    0.000    0.000 
#
# Total GULP energy -167051.731413 kJ/mol
# GULP energy per Si atom -5568.391047 kJ/mol
# Density = 2.269994 g / cm^3
# Si number density = 22.751728 Si / 1000 Ang^3
#
#
#
# Elastic Constant Matrix: (Units=GPa)
#
#
# Indices 1 2 3 4 5 6 
#
# 1 140.4058 46.8657 10.1429 0.0000 0.0000 0.0000
# 2 46.8657 133.5670 20.7343 0.0000 0.0000 0.0000
# 3 10.1429 20.7343 39.1595 0.0000 0.0000 0.0000
# 4 0.0000 0.0000 0.0000 25.0185 0.0000 0.0000
# 5 0.0000 0.0000 0.0000 0.0000 28.2894 0.0000
# 6 0.0000 0.0000 0.0000 0.0000 0.0000 27.6752
#
#
#
# Elastic Compliance Matrix: (Units=1/GPa)
#
#
# Indices 1 2 3 4 5 6 
#
# 1 0.008082 -0.002736 -0.000645 0.000000 0.000000 0.000000
# 2 -0.002736 0.009083 -0.004101 0.000000 0.000000 0.000000
# 3 -0.000645 -0.004101 0.027875 0.000000 0.000000 0.000000
# 4 0.000000 0.000000 0.000000 0.039970 0.000000 0.000000
# 5 0.000000 0.000000 0.000000 0.000000 0.035349 0.000000
# 6 0.000000 0.000000 0.000000 0.000000 0.000000 0.036133
#
#
# Mechanical properties :
#
#
# Convention : Reuss Voigt Hill
#
# Bulk Modulus (GPa) = 33.24752 52.06866 42.65809
# Shear Modulus (GPa) = 27.55098 31.88925 29.72012
#
# Velocity S-wave (km/s) = 3.48363 3.74788 3.61817
# Velocity P-wave (km/s) = 5.55210 6.45477 6.02038
#
# Compressibility (1/GPa) = 0.03007743
#
# Stress axis : x y z
#
# Youngs Moduli (GPa) = 123.73291 110.09136 35.87447
#
# Poissons Ratio (x) = 0.30117 0.02313
# Poissons Ratio (y) = 0.33849 0.14712
# Poissons Ratio (z) = 0.07979 0.45148
#
# Static dielectric constant tensor:
#      x y z
#    x 1.884610 0.000000 0.000000 
#    y 0.000000 1.858960 0.000000 
#    z 0.000000 0.000000 2.070470 
# 
# From -- ./inp_files/2207.got.cif
#   From: 2010.05.17/outbox.cif.g08.bks.cpg/sg41_2_cif.got.tgz:2207.got - 2010.06.03 18:54:24.
