data_PCOD9367334
_publ_section_title
;
Structure prediction by ZEFSAII (Michael W. Deem and Ramdas Pophale) SiO2 
 PCOD9367334
Probable space group: A B A 2
;
_chemical_formula_sum "Si O2"
_cell_formula_units_Z 56
_cell_length_a 13.383842
_cell_length_b 13.333360
_cell_length_c 13.066396
_cell_angle_alpha 90.000000
_cell_angle_beta 90.000000
_cell_angle_gamma 90.000000
_cell_volume 2331.719058
_symmetry_space_group_name_H-M "A B A 2"
_symmetry_group_IT_number 41
_symmetry_cell_setting 'orthorhombic'
loop_
_space_group_symop_operation_xyz
x,y,z
-x,-y,z
1/2-x,y,1/2+z
1/2+x,-y,1/2+z
x,1/2+y,1/2+z
-x,1/2-y,1/2+z
1/2-x,1/2+y,z
1/2+x,1/2-y,z
loop_
_atom_site_type_symbol
_atom_site_label
_atom_site_fract_x
_atom_site_fract_y
_atom_site_fract_z
Si Si1 0.988110 0.734455 0.752930
Si Si2 0.249028 0.752968 0.387810
Si Si3 0.315962 0.623611 0.211332
Si Si4 0.862647 0.062627 0.344172
Si Si5 0.261162 0.005536 0.518642
Si Si6 0.926423 0.364715 0.431085
Si Si7 0.115131 0.816468 0.052819
O O1 0.954104 0.637810 0.822063
O O2 0.977677 0.832511 0.823862
O O3 0.911851 0.736237 0.658079
O O4 0.096035 0.706379 0.707840
O O5 0.248026 0.670888 0.299443
O O6 0.232660 0.861803 0.339737
O O7 0.150024 0.727646 0.452494
O O8 0.344899 0.748383 0.459606
O O9 0.361036 0.521379 0.258083
O O10 0.262399 0.588147 0.108247
O O11 0.839729 0.009760 0.453333
O O12 0.352417 0.041300 0.443915
O O13 0.298130 0.899388 0.563597
O O14 0.013499 0.368592 0.514153
#
# Coordination Sequence:
#
# PCOD9367334 Si02
#       7
#     8   8   8   8   8   8   8
#     4  11  23  40  67  96 132 176 227 278 339 404
#     4  10  24  42  64  98 136 170 220 286 335 395
#     4  12  21  42  68  96 128 183 222 273 338 409
#     4  10  23  42  61  99 130 168 222 283 324 403
#     4  11  23  40  69  94 127 177 224 271 341 400
#     4  11  22  39  61  99 127 166 222 281 324 400
#     4  11  22  43  66  94 128 180 229 276 335 412
#
# _framework density 24.016617
#
# number of rings (size 3 to 8) (size 9 to 14) (size 15 to 20)
#    0.000    1.143    5.714    0.857    0.000    2.286 
#    2.571    0.000    0.000    0.000    0.000    0.000 
#    0.000    0.000    0.000    0.000    0.000    0.000 
#
# Total GULP energy -156246.312746 kJ/mol
# GULP energy per Si atom -5580.225455 kJ/mol
# Density = 2.396195 g / cm^3
# Si number density = 24.016617 Si / 1000 Ang^3
#
#
#
# Elastic Constant Matrix: (Units=GPa)
#
#
# Indices 1 2 3 4 5 6 
#
# 1 60.8182 -14.8571 14.7778 0.0000 0.0000 0.0000
# 2 -14.8571 57.3270 14.0911 0.0000 0.0000 0.0000
# 3 14.7778 14.0911 110.2205 0.0000 0.0000 0.0000
# 4 0.0000 0.0000 0.0000 40.5657 0.0000 0.0000
# 5 0.0000 0.0000 0.0000 0.0000 35.8023 0.0000
# 6 0.0000 0.0000 0.0000 0.0000 0.0000 25.3580
#
#
#
# Elastic Compliance Matrix: (Units=1/GPa)
#
#
# Indices 1 2 3 4 5 6 
#
# 1 0.018592 0.005607 -0.003210 0.000000 0.000000 0.000000
# 2 0.005607 0.019701 -0.003270 0.000000 0.000000 0.000000
# 3 -0.003210 -0.003270 0.009921 0.000000 0.000000 0.000000
# 4 0.000000 0.000000 0.000000 0.024651 0.000000 0.000000
# 5 0.000000 0.000000 0.000000 0.000000 0.027931 0.000000
# 6 0.000000 0.000000 0.000000 0.000000 0.000000 0.039435
#
#
# Mechanical properties :
#
#
# Convention : Reuss Voigt Hill
#
# Bulk Modulus (GPa) = 21.51986 28.48771 25.00378
# Shear Modulus (GPa) = 31.75268 34.63547 33.19407
#
# Velocity S-wave (km/s) = 3.64003 3.80168 3.72173
# Velocity P-wave (km/s) = 5.16201 5.58191 5.37606
#
# Compressibility (1/GPa) = 0.04646871
#
# Stress axis : x y z
#
# Youngs Moduli (GPa) = 53.78624 50.75916 100.79465
#
# Poissons Ratio (x) = -0.28462 0.32351
# Poissons Ratio (y) = -0.30160 0.32964
# Poissons Ratio (z) = 0.17263 0.16601
#
# Static dielectric constant tensor:
#      x y z
#    x 1.958400 0.000000 0.000000 
#    y 0.000000 1.971220 0.000000 
#    z 0.000000 0.000000 2.011110 
# 
# From -- ./inp_files/5588.got.cif
#   From: 2010.05.17/outbox.cif.g08.bks.cpg/sg41_3_cif.got.tgz:5588.got - 2010.06.03 18:54:24.
