data_PCOD9367631
_publ_section_title
;
Structure prediction by ZEFSAII (Michael W. Deem and Ramdas Pophale) SiO2 
 PCOD9367631
Probable space group: A B A 2
;
_chemical_formula_sum "Si O2"
_cell_formula_units_Z 24
_cell_length_a 18.976905
_cell_length_b 9.088642
_cell_length_c 5.258609
_cell_angle_alpha 90.000000
_cell_angle_beta 90.000000
_cell_angle_gamma 90.000000
_cell_volume 906.974884
_symmetry_space_group_name_H-M "A B A 2"
_symmetry_group_IT_number 41
_symmetry_cell_setting 'orthorhombic'
loop_
_space_group_symop_operation_xyz
x,y,z
-x,-y,z
1/2-x,y,1/2+z
1/2+x,-y,1/2+z
x,1/2+y,1/2+z
-x,1/2-y,1/2+z
1/2-x,1/2+y,z
1/2+x,1/2-y,z
loop_
_atom_site_type_symbol
_atom_site_label
_atom_site_fract_x
_atom_site_fract_y
_atom_site_fract_z
Si Si1 0.365983 0.993315 0.512060
Si Si2 0.769687 0.155395 0.346109
Si Si3 0.044186 0.266826 0.194659
O O1 0.289412 0.974144 0.376753
O O2 0.345801 0.902456 0.768991
O O3 0.401248 0.143226 0.596413
O O4 0.418141 0.906744 0.324248
O O5 0.759128 0.240488 0.603789
O O6 0.002426 0.202332 0.442877
#
# Coordination Sequence:
#
# PCOD9367631 Si02
#       3
#     8   8   8
#     4  10  25  48  70 112 145 194 264 308 396 446
#     4   8  20  40  74 102 144 186 244 336 374 446
#     4  12  30  44  76 104 162 208 254 310 378 476
#
# _framework density 26.461590999999999
#
# number of rings (size 3 to 8) (size 9 to 14) (size 15 to 20)
#    2.000    0.000    0.000    1.000    9.333    5.333 
#    0.000    0.000    0.000    0.000    0.000    0.000 
#    0.000    0.000    0.000    0.000    0.000    0.000 
#
# Total GULP energy -66937.579669 kJ/mol
# GULP energy per Si atom -5578.131639 kJ/mol
# Density = 2.640136 g / cm^3
# Si number density = 26.461591 Si / 1000 Ang^3
#
#
#
# Elastic Constant Matrix: (Units=GPa)
#
#
# Indices 1 2 3 4 5 6 
#
# 1 124.7723 59.1149 44.4826 0.0000 0.0000 0.0000
# 2 59.1149 108.7058 58.0066 0.0000 0.0000 0.0000
# 3 44.4826 58.0066 194.6008 0.0000 0.0000 0.0000
# 4 0.0000 0.0000 0.0000 31.6738 0.0000 0.0000
# 5 0.0000 0.0000 0.0000 0.0000 55.1734 0.0000
# 6 0.0000 0.0000 0.0000 0.0000 0.0000 28.4430
#
#
#
# Elastic Compliance Matrix: (Units=1/GPa)
#
#
# Indices 1 2 3 4 5 6 
#
# 1 0.010917 -0.005476 -0.000863 0.000000 0.000000 0.000000
# 2 -0.005476 0.013686 -0.002828 0.000000 0.000000 0.000000
# 3 -0.000863 -0.002828 0.006179 0.000000 0.000000 0.000000
# 4 0.000000 0.000000 0.000000 0.031572 0.000000 0.000000
# 5 0.000000 0.000000 0.000000 0.000000 0.018125 0.000000
# 6 0.000000 0.000000 0.000000 0.000000 0.000000 0.035158
#
#
# Mechanical properties :
#
#
# Convention : Reuss Voigt Hill
#
# Bulk Modulus (GPa) = 80.33539 83.47635 81.90587
# Shear Modulus (GPa) = 36.20056 40.82301 38.51179
#
# Velocity S-wave (km/s) = 3.70272 3.93202 3.81909
# Velocity P-wave (km/s) = 6.97892 7.22697 7.10403
#
# Compressibility (1/GPa) = 0.01244781
#
# Stress axis : x y z
#
# Youngs Moduli (GPa) = 91.60237 73.06749 161.84056
#
# Poissons Ratio (x) = 0.40012 0.13968
# Poissons Ratio (y) = 0.50162 0.45765
# Poissons Ratio (z) = 0.07906 0.20662
#
# Static dielectric constant tensor:
#      x y z
#    x 2.260600 0.000000 0.000000 
#    y 0.000000 2.015580 0.000000 
#    z 0.000000 0.000000 2.199760 
# 
# From -- ./inp_files/588.got.cif
#   From: 2010.05.17/outbox.cif.g08.bks.cpg/sg41_1_cif.got.tgz:588.got - 2010.06.03 18:54:24.
