data_PCOD9367655
_publ_section_title
;
Structure prediction by ZEFSAII (Michael W. Deem and Ramdas Pophale) SiO2 
 PCOD9367655
Probable space group: A B A 2
;
_chemical_formula_sum "Si O2"
_cell_formula_units_Z 40
_cell_length_a 8.850195
_cell_length_b 10.202130
_cell_length_c 19.503769
_cell_angle_alpha 90.000000
_cell_angle_beta 90.000000
_cell_angle_gamma 90.000000
_cell_volume 1761.011685
_symmetry_space_group_name_H-M "A B A 2"
_symmetry_group_IT_number 41
_symmetry_cell_setting 'orthorhombic'
loop_
_space_group_symop_operation_xyz
x,y,z
-x,-y,z
1/2-x,y,1/2+z
1/2+x,-y,1/2+z
x,1/2+y,1/2+z
-x,1/2-y,1/2+z
1/2-x,1/2+y,z
1/2+x,1/2-y,z
loop_
_atom_site_type_symbol
_atom_site_label
_atom_site_fract_x
_atom_site_fract_y
_atom_site_fract_z
Si Si1 0.670298 0.983024 0.904160
Si Si2 0.195467 0.788043 0.987603
Si Si3 0.500000 0.500000 0.039690
Si Si4 0.038606 0.641291 0.199277
Si Si5 0.500000 0.000000 0.329676
Si Si6 0.679113 0.828208 0.626011
O O1 0.675045 0.843556 0.943688
O O2 0.833609 0.989567 0.864340
O O3 0.500000 0.000000 0.871922
O O4 0.688287 0.107958 0.954912
O O5 0.244233 0.749791 0.064028
O O6 0.041816 0.874128 0.994852
O O7 0.635530 0.463366 0.089897
O O8 0.988734 0.624364 0.277526
O O9 0.215599 0.655715 0.191275
O O10 0.000000 0.500000 0.166557
O O11 0.963989 0.753234 0.155046
#
# Coordination Sequence:
#
# PCOD9367655 Si02
#       6
#     8   8   4   8   4   8
#     4  12  29  50  78 112 156 213 256 323 387 459
#     4  12  26  45  78 119 155 192 254 323 407 469
#     4  12  23  40  74 120 158 187 250 320 400 494
#     4  10  26  47  68 105 146 197 253 313 371 463
#     4  10  29  56  70 108 154 207 280 306 360 472
#     4  12  23  44  77 110 150 196 243 324 410 453
#
# _framework density 22.714217999999999
#
# number of rings (size 3 to 8) (size 9 to 14) (size 15 to 20)
#    0.600    0.000    4.000    3.000    2.800    1.600 
#    5.400    0.000    0.000    0.000    0.000    0.000 
#    0.000    0.000    0.000    0.000    0.000    0.000 
#
# Total GULP energy -111507.480889 kJ/mol
# GULP energy per Si atom -5575.374044 kJ/mol
# Density = 2.266252 g / cm^3
# Si number density = 22.714218 Si / 1000 Ang^3
#
#
#
# Elastic Constant Matrix: (Units=GPa)
#
#
# Indices 1 2 3 4 5 6 
#
# 1 149.1148 39.1771 57.2789 0.0000 0.0000 0.0000
# 2 39.1771 130.5525 36.1159 0.0000 0.0000 0.0000
# 3 57.2789 36.1159 85.9102 0.0000 0.0000 0.0000
# 4 0.0000 0.0000 0.0000 -99.0104 0.0000 0.0000
# 5 0.0000 0.0000 0.0000 0.0000 29.7571 0.0000
# 6 0.0000 0.0000 0.0000 0.0000 0.0000 39.5460
#
#
#
# Elastic Compliance Matrix: (Units=1/GPa)
#
#
# Indices 1 2 3 4 5 6 
#
# 1 0.009179 -0.001201 -0.005615 0.000000 0.000000 0.000000
# 2 -0.001201 0.008825 -0.002909 0.000000 0.000000 0.000000
# 3 -0.005615 -0.002909 0.016606 0.000000 0.000000 0.000000
# 4 0.000000 0.000000 0.000000 -0.010100 0.000000 0.000000
# 5 0.000000 0.000000 0.000000 0.000000 0.033605 0.000000
# 6 0.000000 0.000000 0.000000 0.000000 0.000000 0.025287
#
#
# Mechanical properties :
#
#
# Convention : Reuss Voigt Hill
#
# Bulk Modulus (GPa) = 65.96223 70.08015 68.02119
# Shear Modulus (GPa) = 46.33672 9.59224 27.96448
#
# Velocity S-wave (km/s) = 4.52152 2.05723 3.51257
# Velocity P-wave (km/s) = 7.50746 6.04672 6.81634
#
# Compressibility (1/GPa) = 0.01516019
#
# Stress axis : x y z
#
# Youngs Moduli (GPa) = 108.94958 113.31476 60.21740
#
# Poissons Ratio (x) = 0.13611 0.33810
# Poissons Ratio (y) = 0.13086 0.17518
# Poissons Ratio (z) = 0.61172 0.32965
#
# Static dielectric constant tensor:
#      x y z
#    x 1.974960 0.000000 0.000000 
#    y 0.000000 2.038480 0.000000 
#    z 0.000000 0.000000 1.842480 
# 
# From -- ./inp_files/11121.got.cif
#   From: 2010.05.17/outbox.cif.g08.bks.cpg/sg41_6_cif.got.tgz:11121.got - 2010.06.03 18:54:24.
