data_PCOD9367154
_publ_section_title
;
Structure prediction by ZEFSAII (Michael W. Deem and Ramdas Pophale) SiO2 
 PCOD9367154
Probable space group: A B A 2
;
_chemical_formula_sum "Si O2"
_cell_formula_units_Z 60
_cell_length_a 10.799309
_cell_length_b 23.787803
_cell_length_c 8.988865
_cell_angle_alpha 90.000000
_cell_angle_beta 90.000000
_cell_angle_gamma 90.000000
_cell_volume 2309.166025
_symmetry_space_group_name_H-M "A B A 2"
_symmetry_group_IT_number 41
_symmetry_cell_setting 'orthorhombic'
loop_
_space_group_symop_operation_xyz
x,y,z
-x,-y,z
1/2-x,y,1/2+z
1/2+x,-y,1/2+z
x,1/2+y,1/2+z
-x,1/2-y,1/2+z
1/2-x,1/2+y,z
1/2+x,1/2-y,z
loop_
_atom_site_type_symbol
_atom_site_label
_atom_site_fract_x
_atom_site_fract_y
_atom_site_fract_z
Si Si1 0.636444 0.899389 0.750000
Si Si2 0.278681 0.479189 0.247397
Si Si3 0.896668 0.382832 0.092115
Si Si4 0.050994 0.742813 0.267065
Si Si5 0.000000 0.500000 0.210334
Si Si6 0.967147 0.668257 0.526509
Si Si7 0.901875 0.698541 0.074200
Si Si8 0.754664 0.096857 0.484212
O O1 0.770808 0.886417 0.681672
O O2 0.539116 0.871605 0.639960
O O3 0.636904 0.966882 0.759673
O O4 0.625545 0.879005 0.917508
O O5 0.270317 0.458327 0.079984
O O6 0.325908 0.426733 0.342990
O O7 0.133502 0.491358 0.289875
O O8 0.972828 0.440661 0.124751
O O9 0.959468 0.322333 0.129609
O O10 0.053375 0.693856 0.399150
O O11 0.901258 0.743913 0.207377
O O12 0.098069 0.781271 0.121217
O O13 0.092133 0.787773 0.400733
O O14 0.868574 0.629523 0.442741
O O15 0.825129 0.642215 0.083597
#
# Coordination Sequence:
#
# PCOD9367154 Si02
#       8
#     8   8   8   8   4   8   8   8
#     4  11  26  44  69 107 141 187 234 288 358 431
#     4  11  24  41  70 107 140 192 232 285 361 433
#     4  11  24  45  70  98 144 185 229 294 349 434
#     4  10  24  48  67 101 138 186 243 300 354 415
#     4  10  22  42  70 100 150 184 234 288 358 422
#     4  11  25  47  70 105 142 186 248 298 359 426
#     4  11  23  48  70 103 139 184 239 295 368 412
#     4  12  25  45  75 103 144 188 235 291 357 448
#
# _framework density 25.983405999999999
#
# number of rings (size 3 to 8) (size 9 to 14) (size 15 to 20)
#    0.000    1.067    2.667    3.200    1.867    2.667 
#   14.400    0.000    0.000    0.000    0.000    0.000 
#    0.000    0.000    0.000    0.000    0.000    0.000 
#
# Total GULP energy -167180.530165 kJ/mol
# GULP energy per Si atom -5572.684339 kJ/mol
# Density = 2.592427 g / cm^3
# Si number density = 25.983406 Si / 1000 Ang^3
#
#
#
# Elastic Constant Matrix: (Units=GPa)
#
#
# Indices 1 2 3 4 5 6 
#
# 1 28.4739 41.5298 3.5090 0.0000 0.0000 0.0000
# 2 41.5298 131.8161 29.2095 0.0000 0.0000 0.0000
# 3 3.5090 29.2095 171.0407 0.0000 0.0000 0.0000
# 4 0.0000 0.0000 0.0000 47.3386 0.0000 0.0000
# 5 0.0000 0.0000 0.0000 0.0000 23.3489 0.0000
# 6 0.0000 0.0000 0.0000 0.0000 0.0000 35.5634
#
#
#
# Elastic Compliance Matrix: (Units=1/GPa)
#
#
# Indices 1 2 3 4 5 6 
#
# 1 0.065821 -0.021242 0.002277 0.000000 0.000000 0.000000
# 2 -0.021242 0.014740 -0.002081 0.000000 0.000000 0.000000
# 3 0.002277 -0.002081 0.006155 0.000000 0.000000 0.000000
# 4 0.000000 0.000000 0.000000 0.021124 0.000000 0.000000
# 5 0.000000 0.000000 0.000000 0.000000 0.042829 0.000000
# 6 0.000000 0.000000 0.000000 0.000000 0.000000 0.028119
#
#
# Mechanical properties :
#
#
# Convention : Reuss Voigt Hill
#
# Bulk Modulus (GPa) = 22.40944 53.31412 37.86178
# Shear Modulus (GPa) = 21.20838 38.38903 29.79870
#
# Velocity S-wave (km/s) = 2.86007 3.84792 3.39017
# Velocity P-wave (km/s) = 4.42153 6.34863 5.47060
#
# Compressibility (1/GPa) = 0.04462405
#
# Stress axis : x y z
#
# Youngs Moduli (GPa) = 15.19263 67.84216 162.46158
#
# Poissons Ratio (x) = 1.44112 -0.36997
# Poissons Ratio (y) = 0.32273 0.33816
# Poissons Ratio (z) = -0.03460 0.14121
#
# Static dielectric constant tensor:
#      x y z
#    x 2.221440 0.000000 0.000000 
#    y 0.000000 2.268580 0.000000 
#    z 0.000000 0.000000 2.004710 
# 
# From -- ./inp_files/2187.got.cif
#   From: 2010.05.17/outbox.cif.g08.bks.cpg/sg41_2_cif.got.tgz:2187.got - 2010.06.03 18:54:24.
