data_PCOD9367770
_publ_section_title
;
Structure prediction by ZEFSAII (Michael W. Deem and Ramdas Pophale) SiO2 
 PCOD9367770
Probable space group: A B A 2
;
_chemical_formula_sum "Si O2"
_cell_formula_units_Z 64
_cell_length_a 9.808997
_cell_length_b 16.329705
_cell_length_c 17.641248
_cell_angle_alpha 90.000000
_cell_angle_beta 90.000000
_cell_angle_gamma 90.000000
_cell_volume 2825.740305
_symmetry_space_group_name_H-M "A B A 2"
_symmetry_group_IT_number 41
_symmetry_cell_setting 'orthorhombic'
loop_
_space_group_symop_operation_xyz
x,y,z
-x,-y,z
1/2-x,y,1/2+z
1/2+x,-y,1/2+z
x,1/2+y,1/2+z
-x,1/2-y,1/2+z
1/2-x,1/2+y,z
1/2+x,1/2-y,z
loop_
_atom_site_type_symbol
_atom_site_label
_atom_site_fract_x
_atom_site_fract_y
_atom_site_fract_z
Si Si1 0.158401 0.017895 0.913290
Si Si2 0.808665 0.446744 0.586067
Si Si3 0.153069 0.187785 0.838925
Si Si4 0.062146 0.273651 0.995986
Si Si5 0.698933 0.278239 0.588293
Si Si6 0.545521 0.311637 0.287865
Si Si7 0.094205 0.922094 0.414214
Si Si8 0.082798 0.389747 0.645200
O O1 0.164534 0.092015 0.854553
O O2 0.256964 0.945921 0.884268
O O3 0.220331 0.037315 0.996930
O O4 0.000000 0.000000 0.922880
O O5 0.708775 0.373334 0.614609
O O6 0.817996 0.530972 0.635425
O O7 0.964500 0.412789 0.585657
O O8 0.113063 0.223186 0.922596
O O9 0.298723 0.210753 0.803660
O O10 0.038803 0.227037 0.785264
O O11 0.110192 0.367186 0.988030
O O12 0.146495 0.239598 0.065751
O O13 0.902530 0.273496 0.015312
O O14 0.653599 0.197988 0.634142
O O15 0.488706 0.361821 0.359605
O O16 0.507079 0.373809 0.220562
O O17 0.000000 0.000000 0.424301
#
# Coordination Sequence:
#
# PCOD9367770 Si02
#       8
#     8   8   8   8   8   8   8   8
#     4  12  23  40  68 104 137 168 230 294 371 422
#     4  11  24  43  71 101 141 187 232 295 360 436
#     4  11  24  43  68 100 139 188 230 296 370 435
#     4  11  23  37  68  96 144 168 231 296 373 425
#     4  12  22  42  68 107 138 187 233 300 362 437
#     4  11  27  45  67  98 139 189 241 286 352 439
#     4  11  23  40  62  97 131 176 223 289 354 424
#     4  11  25  45  70  99 139 195 248 281 352 435
#
# _framework density 22.648933
#
# number of rings (size 3 to 8) (size 9 to 14) (size 15 to 20)
#    0.000    0.750    5.000    3.000    8.750    0.000 
#    0.000    0.000    0.000    0.000    0.000    0.000 
#    0.000    0.000    0.000    0.000    0.000    0.000 
#
# Total GULP energy -178394.562081 kJ/mol
# GULP energy per Si atom -5574.830065 kJ/mol
# Density = 2.259738 g / cm^3
# Si number density = 22.648933 Si / 1000 Ang^3
#
#
#
# Elastic Constant Matrix: (Units=GPa)
#
#
# Indices 1 2 3 4 5 6 
#
# 1 102.6128 24.3826 3.1352 0.0000 0.0000 0.0000
# 2 24.3826 98.3344 7.9351 0.0000 0.0000 0.0000
# 3 3.1352 7.9351 26.5028 0.0000 0.0000 0.0000
# 4 0.0000 0.0000 0.0000 32.6860 0.0000 0.0000
# 5 0.0000 0.0000 0.0000 0.0000 12.2133 0.0000
# 6 0.0000 0.0000 0.0000 0.0000 0.0000 34.7355
#
#
#
# Elastic Compliance Matrix: (Units=1/GPa)
#
#
# Indices 1 2 3 4 5 6 
#
# 1 0.010361 -0.002531 -0.000468 0.000000 0.000000 0.000000
# 2 -0.002531 0.011040 -0.003006 0.000000 0.000000 0.000000
# 3 -0.000468 -0.003006 0.038687 0.000000 0.000000 0.000000
# 4 0.000000 0.000000 0.000000 0.030594 0.000000 0.000000
# 5 0.000000 0.000000 0.000000 0.000000 0.081878 0.000000
# 6 0.000000 0.000000 0.000000 0.000000 0.000000 0.028789
#
#
# Mechanical properties :
#
#
# Convention : Reuss Voigt Hill
#
# Bulk Modulus (GPa) = 20.79957 33.15063 26.97510
# Shear Modulus (GPa) = 21.79741 28.72676 25.26209
#
# Velocity S-wave (km/s) = 3.10563 3.56525 3.34335
# Velocity P-wave (km/s) = 4.69716 5.62286 5.18073
#
# Compressibility (1/GPa) = 0.04807791
#
# Stress axis : x y z
#
# Youngs Moduli (GPa) = 96.51427 90.58296 25.84836
#
# Poissons Ratio (x) = 0.22930 0.01209
# Poissons Ratio (y) = 0.24431 0.07770
# Poissons Ratio (z) = 0.04515 0.27228
#
# Static dielectric constant tensor:
#      x y z
#    x 1.894880 0.000000 0.000000 
#    y 0.000000 1.921270 0.000000 
#    z 0.000000 0.000000 1.964990 
# 
# From -- ./inp_files/11281.got.cif
#   From: 2010.05.17/outbox.cif.g08.bks.cpg/sg41_6_cif.got.tgz:11281.got - 2010.06.03 18:54:24.
