data_PCOD9367807
_publ_section_title
;
Structure prediction by ZEFSAII (Michael W. Deem and Ramdas Pophale) SiO2 
 PCOD9367807
Probable space group: A B A 2
;
_chemical_formula_sum "Si O2"
_cell_formula_units_Z 60
_cell_length_a 18.773785
_cell_length_b 24.361767
_cell_length_c 5.694232
_cell_angle_alpha 90.000000
_cell_angle_beta 90.000000
_cell_angle_gamma 90.000000
_cell_volume 2604.328615
_symmetry_space_group_name_H-M "A B A 2"
_symmetry_group_IT_number 41
_symmetry_cell_setting 'orthorhombic'
loop_
_space_group_symop_operation_xyz
x,y,z
-x,-y,z
1/2-x,y,1/2+z
1/2+x,-y,1/2+z
x,1/2+y,1/2+z
-x,1/2-y,1/2+z
1/2-x,1/2+y,z
1/2+x,1/2-y,z
loop_
_atom_site_type_symbol
_atom_site_label
_atom_site_fract_x
_atom_site_fract_y
_atom_site_fract_z
Si Si1 0.979112 0.408478 0.737810
Si Si2 0.012923 0.805328 0.517671
Si Si3 0.882439 0.234527 0.178088
Si Si4 0.214598 0.950742 0.838918
Si Si5 0.371499 0.556122 0.866894
Si Si6 0.208216 0.156482 0.682086
Si Si7 0.000000 0.000000 0.612216
Si Si8 0.907444 0.128986 0.899095
O O1 0.904727 0.425439 0.617101
O O2 0.044245 0.410005 0.557780
O O3 0.979765 0.345920 0.824519
O O4 0.004851 0.448051 0.942269
O O5 0.954204 0.760268 0.566906
O O6 0.088475 0.780954 0.434770
O O7 0.034058 0.842028 0.737052
O O8 0.824220 0.282026 0.180392
O O9 0.868245 0.177831 0.042776
O O10 0.264708 0.940166 0.612629
O O11 0.149859 0.909667 0.780420
O O12 0.195409 0.015510 0.852208
O O13 0.353463 0.610479 0.716483
O O14 0.432823 0.517603 0.762518
O O15 0.246799 0.149359 0.427630
#
# Coordination Sequence:
#
# PCOD9367807 Si02
#       8
#     8   8   8   8   8   8   4   8
#     4  11  24  41  75 109 144 180 235 315 390 447
#     4  11  23  44  74 111 144 184 241 324 386 448
#     4  11  25  43  77 107 149 189 251 310 392 448
#     4  12  30  50  73 101 146 203 257 302 359 446
#     4  12  27  48  74 109 145 195 251 317 383 454
#     4  12  31  51  75 109 156 212 259 308 371 473
#     4  12  24  42  78 108 146 182 238 322 388 454
#     4  11  25  46  71 109 144 191 245 312 381 451
#
# _framework density 23.038568999999999
#
# number of rings (size 3 to 8) (size 9 to 14) (size 15 to 20)
#    0.000    0.533    1.333    6.000   14.933    1.067 
#    0.000    0.000    0.000    0.000    0.000    0.000 
#    0.000    0.000    0.000    0.000    0.000    0.000 
#
# Total GULP energy -167589.335313 kJ/mol
# GULP energy per Si atom -5586.311177 kJ/mol
# Density = 2.298613 g / cm^3
# Si number density = 23.038569 Si / 1000 Ang^3
#
#
#
# Elastic Constant Matrix: (Units=GPa)
#
#
# Indices 1 2 3 4 5 6 
#
# 1 37.6256 20.8458 20.7537 0.0000 0.0000 0.0000
# 2 20.8458 102.4327 14.8236 0.0000 0.0000 0.0000
# 3 20.7537 14.8236 82.7169 0.0000 0.0000 0.0000
# 4 0.0000 0.0000 0.0000 26.2706 0.0000 0.0000
# 5 0.0000 0.0000 0.0000 0.0000 23.4375 0.0000
# 6 0.0000 0.0000 0.0000 0.0000 0.0000 56.9029
#
#
#
# Elastic Compliance Matrix: (Units=1/GPa)
#
#
# Indices 1 2 3 4 5 6 
#
# 1 0.033923 -0.005823 -0.007468 0.000000 0.000000 0.000000
# 2 -0.005823 0.011022 -0.000514 0.000000 0.000000 0.000000
# 3 -0.007468 -0.000514 0.014055 0.000000 0.000000 0.000000
# 4 0.000000 0.000000 0.000000 0.038065 0.000000 0.000000
# 5 0.000000 0.000000 0.000000 0.000000 0.042667 0.000000
# 6 0.000000 0.000000 0.000000 0.000000 0.000000 0.017574
#
#
# Mechanical properties :
#
#
# Convention : Reuss Voigt Hill
#
# Bulk Modulus (GPa) = 31.85703 37.29127 34.57415
# Shear Modulus (GPa) = 25.59133 32.41235 29.00184
#
# Velocity S-wave (km/s) = 3.33649 3.75490 3.55186
# Velocity P-wave (km/s) = 5.35729 5.91782 5.64452
#
# Compressibility (1/GPa) = 0.03139024
#
# Stress axis : x y z
#
# Youngs Moduli (GPa) = 29.47877 90.72832 71.14786
#
# Poissons Ratio (x) = 0.52830 0.53131
# Poissons Ratio (y) = 0.17165 0.03659
# Poissons Ratio (z) = 0.22014 0.04666
#
# Static dielectric constant tensor:
#      x y z
#    x 1.869040 0.000000 0.000000 
#    y 0.000000 1.848560 0.000000 
#    z 0.000000 0.000000 1.960020 
# 
# From -- ./inp_files/551.got.cif
#   From: 2010.05.17/outbox.cif.g08.bks.cpg/sg41_1_cif.got.tgz:551.got - 2010.06.03 18:54:24.
