data_PCOD9367680
_publ_section_title
;
Structure prediction by ZEFSAII (Michael W. Deem and Ramdas Pophale) SiO2 
 PCOD9367680
Probable space group: A B A 2
;
_chemical_formula_sum "Si O2"
_cell_formula_units_Z 52
_cell_length_a 14.002545
_cell_length_b 16.045497
_cell_length_c 9.092129
_cell_angle_alpha 90.000000
_cell_angle_beta 90.000000
_cell_angle_gamma 90.000000
_cell_volume 2042.799485
_symmetry_space_group_name_H-M "A B A 2"
_symmetry_group_IT_number 41
_symmetry_cell_setting 'orthorhombic'
loop_
_space_group_symop_operation_xyz
x,y,z
-x,-y,z
1/2-x,y,1/2+z
1/2+x,-y,1/2+z
x,1/2+y,1/2+z
-x,1/2-y,1/2+z
1/2-x,1/2+y,z
1/2+x,1/2-y,z
loop_
_atom_site_type_symbol
_atom_site_label
_atom_site_fract_x
_atom_site_fract_y
_atom_site_fract_z
Si Si1 0.575021 0.708903 0.519030
Si Si2 0.854590 0.017530 0.826892
Si Si3 0.272173 0.193093 0.669643
Si Si4 0.943649 0.887550 0.324399
Si Si5 0.430058 0.170879 0.282512
Si Si6 0.000000 0.500000 0.559103
Si Si7 0.189052 0.021371 0.531082
O O1 0.681020 0.735829 0.568164
O O2 0.543160 0.647360 0.387007
O O3 0.540131 0.794237 0.439997
O O4 0.509736 0.686333 0.659433
O O5 0.897535 0.924701 0.797283
O O6 0.837411 0.043726 0.659326
O O7 0.753088 0.016143 0.903688
O O8 0.925757 0.047272 0.952343
O O9 0.355071 0.175582 0.791282
O O10 0.169195 0.215806 0.734833
O O11 0.248615 0.103211 0.590363
O O12 0.904811 0.944798 0.454534
O O13 0.953348 0.936029 0.172643
#
# Coordination Sequence:
#
# PCOD9367680 Si02
#       7
#     8   8   8   8   8   4   8
#     4  12  22  36  65 103 134 168 214 282 343 395
#     4  11  21  39  64  97 119 172 220 282 320 385
#     4  11  20  39  67  99 133 170 225 274 328 407
#     4  12  22  40  66 100 132 174 225 279 333 396
#     4  11  23  37  69 101 135 170 225 275 336 407
#     4  12  26  40  62  90 134 170 228 288 320 382
#     4  11  19  39  70  96 120 168 237 267 322 397
#
# _framework density 25.455262999999999
#
# number of rings (size 3 to 8) (size 9 to 14) (size 15 to 20)
#    0.000    0.615   10.769    0.000    0.000    0.615 
#    0.000    0.000    6.769    0.000    0.000    0.000 
#    0.000    0.000    0.000    0.000    0.000    0.000 
#
# Total GULP energy -145212.905674 kJ/mol
# GULP energy per Si atom -5585.111757 kJ/mol
# Density = 2.539733 g / cm^3
# Si number density = 25.455263 Si / 1000 Ang^3
#
#
#
# Elastic Constant Matrix: (Units=GPa)
#
#
# Indices 1 2 3 4 5 6 
#
# 1 127.0272 41.7549 36.7773 0.0000 0.0000 0.0000
# 2 41.7549 47.0050 20.5118 0.0000 0.0000 0.0000
# 3 36.7773 20.5118 132.5887 0.0000 0.0000 0.0000
# 4 0.0000 0.0000 0.0000 13.0064 0.0000 0.0000
# 5 0.0000 0.0000 0.0000 0.0000 58.6303 0.0000
# 6 0.0000 0.0000 0.0000 0.0000 0.0000 29.2160
#
#
#
# Elastic Compliance Matrix: (Units=1/GPa)
#
#
# Indices 1 2 3 4 5 6 
#
# 1 0.011474 -0.009441 -0.001722 0.000000 0.000000 0.000000
# 2 -0.009441 0.030583 -0.002112 0.000000 0.000000 0.000000
# 3 -0.001722 -0.002112 0.008347 0.000000 0.000000 0.000000
# 4 0.000000 0.000000 0.000000 0.076885 0.000000 0.000000
# 5 0.000000 0.000000 0.000000 0.000000 0.017056 0.000000
# 6 0.000000 0.000000 0.000000 0.000000 0.000000 0.034228
#
#
# Mechanical properties :
#
#
# Convention : Reuss Voigt Hill
#
# Bulk Modulus (GPa) = 41.92495 56.07876 49.00186
# Shear Modulus (GPa) = 23.46588 34.00899 28.73743
#
# Velocity S-wave (km/s) = 3.03949 3.65914 3.36361
# Velocity P-wave (km/s) = 5.36878 6.31906 5.86321
#
# Compressibility (1/GPa) = 0.02385214
#
# Stress axis : x y z
#
# Youngs Moduli (GPa) = 87.15095 32.69802 119.80912
#
# Poissons Ratio (x) = 0.30871 0.20633
# Poissons Ratio (y) = 0.82281 0.25309
# Poissons Ratio (z) = 0.15009 0.06907
#
# Static dielectric constant tensor:
#      x y z
#    x 2.009310 0.000000 0.000000 
#    y 0.000000 2.148640 0.000000 
#    z 0.000000 0.000000 2.049580 
# 
# From -- ./inp_files/2637.got.cif
#   From: 2010.05.17/outbox.cif.g08.bks.cpg/sg41_2_cif.got.tgz:2637.got - 2010.06.03 18:54:24.
