data_PCOD9367275
_publ_section_title
;
Structure prediction by ZEFSAII (Michael W. Deem and Ramdas Pophale) SiO2 
 PCOD9367275
Probable space group: A B A 2
;
_chemical_formula_sum "Si O2"
_cell_formula_units_Z 48
_cell_length_a 7.474489
_cell_length_b 22.528693
_cell_length_c 11.213838
_cell_angle_alpha 90.000000
_cell_angle_beta 90.000000
_cell_angle_gamma 90.000000
_cell_volume 1888.303429
_symmetry_space_group_name_H-M "A B A 2"
_symmetry_group_IT_number 41
_symmetry_cell_setting 'orthorhombic'
loop_
_space_group_symop_operation_xyz
x,y,z
-x,-y,z
1/2-x,y,1/2+z
1/2+x,-y,1/2+z
x,1/2+y,1/2+z
-x,1/2-y,1/2+z
1/2-x,1/2+y,z
1/2+x,1/2-y,z
loop_
_atom_site_type_symbol
_atom_site_label
_atom_site_fract_x
_atom_site_fract_y
_atom_site_fract_z
Si Si1 0.492374 0.355173 0.327830
Si Si2 0.410837 0.251594 0.711998
Si Si3 0.402153 0.858114 0.394883
Si Si4 0.542499 0.569063 0.116786
Si Si5 0.037127 0.931834 0.670362
Si Si6 0.361437 0.171368 0.060241
O O1 0.311550 0.370498 0.398080
O O2 0.542479 0.409540 0.242411
O O3 0.007331 0.379816 0.517256
O O4 0.643422 0.329345 0.416831
O O5 0.558551 0.201167 0.744918
O O6 0.415390 0.293454 0.831693
O O7 0.268464 0.206619 0.649394
O O8 0.456340 0.295558 0.603394
O O9 0.483434 0.902592 0.298676
O O10 0.500000 0.500000 0.087712
O O11 0.755224 0.574772 0.137111
O O12 0.896183 0.897112 0.589206
O O13 0.000000 0.000000 0.670509
#
# Coordination Sequence:
#
# PCOD9367275 Si02
#       6
#     8   8   8   8   8   8
#     4  11  25  43  68 108 146 191 247 316 381 465
#     4  11  25  42  72 105 143 193 249 302 397 461
#     4  10  22  47  71 103 144 192 244 318 378 458
#     4  11  25  47  73 104 150 201 258 315 388 457
#     4  10  23  44  68 100 142 191 254 312 376 453
#     4  11  25  45  70 104 149 194 243 322 382 467
#
# _framework density 25.419644000000002
#
# number of rings (size 3 to 8) (size 9 to 14) (size 15 to 20)
#    0.000    1.333    3.333    0.500    7.000    0.667 
#    3.000    0.000    0.000    0.000    0.000    0.000 
#    0.000    0.000    0.000    0.000    0.000    0.000 
#
# Total GULP energy -133890.753408 kJ/mol
# GULP energy per Si atom -5578.781392 kJ/mol
# Density = 2.536179 g / cm^3
# Si number density = 25.419644 Si / 1000 Ang^3
#
#
#
# Elastic Constant Matrix: (Units=GPa)
#
#
# Indices 1 2 3 4 5 6 
#
# 1 54.3759 25.9569 26.8933 0.0000 0.0000 0.0000
# 2 25.9569 195.6633 64.9296 0.0000 0.0000 0.0000
# 3 26.8933 64.9296 142.4507 0.0000 0.0000 0.0000
# 4 0.0000 0.0000 0.0000 19.0938 0.0000 0.0000
# 5 0.0000 0.0000 0.0000 0.0000 35.6311 0.0000
# 6 0.0000 0.0000 0.0000 0.0000 0.0000 37.3647
#
#
#
# Elastic Compliance Matrix: (Units=1/GPa)
#
#
# Indices 1 2 3 4 5 6 
#
# 1 0.020760 -0.001713 -0.003139 0.000000 0.000000 0.000000
# 2 -0.001713 0.006163 -0.002486 0.000000 0.000000 0.000000
# 3 -0.003139 -0.002486 0.008746 0.000000 0.000000 0.000000
# 4 0.000000 0.000000 0.000000 0.052373 0.000000 0.000000
# 5 0.000000 0.000000 0.000000 0.000000 0.028065 0.000000
# 6 0.000000 0.000000 0.000000 0.000000 0.000000 0.026763
#
#
# Mechanical properties :
#
#
# Convention : Reuss Voigt Hill
#
# Bulk Modulus (GPa) = 47.63106 69.78327 58.70717
# Shear Modulus (GPa) = 30.38722 36.73192 33.55957
#
# Velocity S-wave (km/s) = 3.46124 3.80547 3.63743
# Velocity P-wave (km/s) = 5.89510 6.84258 6.38643
#
# Compressibility (1/GPa) = 0.02099470
#
# Stress axis : x y z
#
# Youngs Moduli (GPa) = 48.16873 162.26161 114.34367
#
# Poissons Ratio (x) = 0.27787 0.35890
# Poissons Ratio (y) = 0.08249 0.28423
# Poissons Ratio (z) = 0.15119 0.40334
#
# Static dielectric constant tensor:
#      x y z
#    x 2.210450 0.000000 0.000000 
#    y 0.000000 1.947690 0.000000 
#    z 0.000000 0.000000 2.053240 
# 
# From -- ./inp_files/7519.got.cif
#   From: 2010.05.17/outbox.cif.g08.bks.cpg/sg41_4_cif.got.tgz:7519.got - 2010.06.03 18:54:24.
