data_PCOD9367289
_publ_section_title
;
Structure prediction by ZEFSAII (Michael W. Deem and Ramdas Pophale) SiO2 
 PCOD9367289
Probable space group: A B A 2
;
_chemical_formula_sum "Si O2"
_cell_formula_units_Z 48
_cell_length_a 22.620149
_cell_length_b 10.691920
_cell_length_c 9.684400
_cell_angle_alpha 90.000000
_cell_angle_beta 90.000000
_cell_angle_gamma 90.000000
_cell_volume 2342.199484
_symmetry_space_group_name_H-M "A B A 2"
_symmetry_group_IT_number 41
_symmetry_cell_setting 'orthorhombic'
loop_
_space_group_symop_operation_xyz
x,y,z
-x,-y,z
1/2-x,y,1/2+z
1/2+x,-y,1/2+z
x,1/2+y,1/2+z
-x,1/2-y,1/2+z
1/2-x,1/2+y,z
1/2+x,1/2-y,z
loop_
_atom_site_type_symbol
_atom_site_label
_atom_site_fract_x
_atom_site_fract_y
_atom_site_fract_z
Si Si1 0.706731 0.427084 0.837700
Si Si2 0.361058 0.190311 0.100380
Si Si3 0.920975 0.877069 0.316074
Si Si4 0.557112 0.168573 0.815433
Si Si5 0.742424 0.185030 0.453005
Si Si6 0.137730 0.225716 0.047427
O O1 0.675404 0.409676 0.691161
O O2 0.751406 0.310035 0.858404
O O3 0.735818 0.559236 0.866635
O O4 0.658712 0.395842 0.958176
O O5 0.409945 0.249716 0.200242
O O6 0.391283 0.137451 0.964617
O O7 0.313291 0.293198 0.051518
O O8 0.882710 0.811112 0.198100
O O9 0.986681 0.818565 0.316698
O O10 0.928065 0.023988 0.286824
O O11 0.585605 0.209406 0.960981
O O12 0.803886 0.188431 0.537010
#
# Coordination Sequence:
#
# PCOD9367289 Si02
#       6
#     8   8   8   8   8   8
#     4   9  23  42  62  96 135 173 216 271 337 407
#     4  11  24  39  68  96 130 174 227 274 341 403
#     4  11  23  41  68  94 127 183 225 281 334 400
#     4  10  23  43  63  95 136 173 230 280 337 395
#     4  10  23  38  68  95 133 174 219 270 344 402
#     4   9  22  39  67  92 138 169 222 273 338 399
#
# _framework density 20.493559000000001
#
# number of rings (size 3 to 8) (size 9 to 14) (size 15 to 20)
#    1.000    1.000    0.000    2.000    4.667    2.667 
#    0.000    0.000    0.000    8.000    0.000    0.000 
#    0.000    0.000    0.000    0.000    0.000    0.000 
#
# Total GULP energy -134058.888506 kJ/mol
# GULP energy per Si atom -5585.787021 kJ/mol
# Density = 2.044691 g / cm^3
# Si number density = 20.493559 Si / 1000 Ang^3
#
#
#
# Elastic Constant Matrix: (Units=GPa)
#
#
# Indices 1 2 3 4 5 6 
#
# 1 108.0638 57.2233 64.2913 0.0000 0.0000 0.0000
# 2 57.2233 111.8680 51.7893 0.0000 0.0000 0.0000
# 3 64.2913 51.7893 129.2943 0.0000 0.0000 0.0000
# 4 0.0000 0.0000 0.0000 17.8970 0.0000 0.0000
# 5 0.0000 0.0000 0.0000 0.0000 16.0120 0.0000
# 6 0.0000 0.0000 0.0000 0.0000 0.0000 10.1403
#
#
#
# Elastic Compliance Matrix: (Units=1/GPa)
#
#
# Indices 1 2 3 4 5 6 
#
# 1 0.015331 -0.005295 -0.005503 0.000000 0.000000 0.000000
# 2 -0.005295 0.012803 -0.002495 0.000000 0.000000 0.000000
# 3 -0.005503 -0.002495 0.011470 0.000000 0.000000 0.000000
# 4 0.000000 0.000000 0.000000 0.055875 0.000000 0.000000
# 5 0.000000 0.000000 0.000000 0.000000 0.062453 0.000000
# 6 0.000000 0.000000 0.000000 0.000000 0.000000 0.098617
#
#
# Mechanical properties :
#
#
# Convention : Reuss Voigt Hill
#
# Bulk Modulus (GPa) = 76.81416 77.31490 77.06453
# Shear Modulus (GPa) = 17.39285 20.53798 18.96542
#
# Velocity S-wave (km/s) = 2.91640 3.16914 3.04539
# Velocity P-wave (km/s) = 6.99314 7.15539 7.07473
#
# Compressibility (1/GPa) = 0.01301843
#
# Stress axis : x y z
#
# Youngs Moduli (GPa) = 65.22594 78.10778 87.18443
#
# Poissons Ratio (x) = 0.41358 0.47974
# Poissons Ratio (y) = 0.34537 0.21755
# Poissons Ratio (z) = 0.35891 0.19490
#
# Static dielectric constant tensor:
#      x y z
#    x 1.732130 0.000000 0.000000 
#    y 0.000000 1.722480 0.000000 
#    z 0.000000 0.000000 1.718940 
# 
# From -- ./inp_files/3606.got.cif
#   From: 2010.05.17/outbox.cif.g08.bks.cpg/sg41_2_cif.got.tgz:3606.got - 2010.06.03 18:54:24.
