data_PCOD9367316
_publ_section_title
;
Structure prediction by ZEFSAII (Michael W. Deem and Ramdas Pophale) SiO2 
 PCOD9367316
Probable space group: A B A 2
;
_chemical_formula_sum "Si O2"
_cell_formula_units_Z 48
_cell_length_a 23.457980
_cell_length_b 12.856522
_cell_length_c 7.748248
_cell_angle_alpha 90.000000
_cell_angle_beta 90.000000
_cell_angle_gamma 90.000000
_cell_volume 2336.778896
_symmetry_space_group_name_H-M "A B A 2"
_symmetry_group_IT_number 41
_symmetry_cell_setting 'orthorhombic'
loop_
_space_group_symop_operation_xyz
x,y,z
-x,-y,z
1/2-x,y,1/2+z
1/2+x,-y,1/2+z
x,1/2+y,1/2+z
-x,1/2-y,1/2+z
1/2-x,1/2+y,z
1/2+x,1/2-y,z
loop_
_atom_site_type_symbol
_atom_site_label
_atom_site_fract_x
_atom_site_fract_y
_atom_site_fract_z
Si Si1 0.568051 0.274843 0.349430
Si Si2 0.193515 0.239582 0.221663
Si Si3 0.021312 0.114975 0.002619
Si Si4 0.938750 0.446100 0.147055
Si Si5 0.227767 0.101352 0.930088
Si Si6 0.819315 0.531837 0.126410
O O1 0.634627 0.250532 0.324358
O O2 0.530796 0.177327 0.412933
O O3 0.563213 0.357711 0.503035
O O4 0.544471 0.322114 0.168280
O O5 0.246804 0.203000 0.335856
O O6 0.201964 0.350614 0.132966
O O7 0.190334 0.144929 0.085863
O O8 0.065026 0.098898 0.842379
O O9 0.000000 0.000000 0.056776
O O10 0.886990 0.523573 0.103175
O O11 0.000000 0.500000 0.138244
O O12 0.193938 0.025873 0.805712
O O13 0.282915 0.036585 0.993070
#
# Coordination Sequence:
#
# PCOD9367316 Si02
#       6
#     8   8   8   8   8   8
#     4  12  23  42  66  94 129 170 219 263 324 393
#     4  11  22  40  65  91 124 168 206 266 325 378
#     4  11  24  42  63  92 129 168 214 264 319 387
#     4  11  23  43  67  96 133 174 215 271 330 388
#     4  10  23  41  64  95 126 162 219 263 325 386
#     4  11  22  42  65  94 129 166 213 269 322 384
#
# _framework density 20.541096
#
# number of rings (size 3 to 8) (size 9 to 14) (size 15 to 20)
#    0.000    1.000    3.333    4.500    0.000    0.000 
#    0.000    0.000    0.000    0.000    0.000    0.000 
#    0.000    0.000    0.000    0.000    0.000    0.000 
#
# Total GULP energy -134068.636523 kJ/mol
# GULP energy per Si atom -5586.193188 kJ/mol
# Density = 2.049434 g / cm^3
# Si number density = 20.541096 Si / 1000 Ang^3
#
#
#
# Elastic Constant Matrix: (Units=GPa)
#
#
# Indices 1 2 3 4 5 6 
#
# 1 59.9206 10.5788 0.5170 0.0000 0.0000 0.0000
# 2 10.5788 95.8783 16.4469 0.0000 0.0000 0.0000
# 3 0.5170 16.4469 49.1228 0.0000 0.0000 0.0000
# 4 0.0000 0.0000 0.0000 18.7180 0.0000 0.0000
# 5 0.0000 0.0000 0.0000 0.0000 0.5508 0.0000
# 6 0.0000 0.0000 0.0000 0.0000 0.0000 9.8479
#
#
#
# Elastic Compliance Matrix: (Units=1/GPa)
#
#
# Indices 1 2 3 4 5 6 
#
# 1 0.017031 -0.001961 0.000477 0.000000 0.000000 0.000000
# 2 -0.001961 0.011291 -0.003760 0.000000 0.000000 0.000000
# 3 0.000477 -0.003760 0.021611 0.000000 0.000000 0.000000
# 4 0.000000 0.000000 0.000000 0.053425 0.000000 0.000000
# 5 0.000000 0.000000 0.000000 0.000000 1.815511 0.000000
# 6 0.000000 0.000000 0.000000 0.000000 0.000000 0.101545
#
#
# Mechanical properties :
#
#
# Convention : Reuss Voigt Hill
#
# Bulk Modulus (GPa) = 25.35108 28.88968 27.12038
# Shear Modulus (GPa) = 2.44613 17.64860 10.04736
#
# Velocity S-wave (km/s) = 1.09244 2.93437 2.21404
# Velocity P-wave (km/s) = 3.73626 5.05723 4.44608
#
# Compressibility (1/GPa) = 0.03944605
#
# Stress axis : x y z
#
# Youngs Moduli (GPa) = 58.71704 88.56444 46.27283
#
# Poissons Ratio (x) = 0.17367 -0.02209
# Poissons Ratio (y) = 0.11514 0.17398
# Poissons Ratio (z) = -0.02803 0.33298
#
# Static dielectric constant tensor:
#      x y z
#    x 1.730520 0.000000 0.000000 
#    y 0.000000 1.737590 0.000000 
#    z 0.000000 0.000000 1.758970 
# 
# From -- ./inp_files/3597.got.cif
#   From: 2010.05.17/outbox.cif.g08.bks.cpg/sg41_2_cif.got.tgz:3597.got - 2010.06.03 18:54:24.
