data_PCOD9367992
_publ_section_title
;
Structure prediction by ZEFSAII (Michael W. Deem and Ramdas Pophale) SiO2 
 PCOD9367992
Probable space group: A B A 2
;
_chemical_formula_sum "Si O2"
_cell_formula_units_Z 40
_cell_length_a 17.625073
_cell_length_b 6.475921
_cell_length_c 14.636529
_cell_angle_alpha 90.000000
_cell_angle_beta 90.000000
_cell_angle_gamma 90.000000
_cell_volume 1670.592642
_symmetry_space_group_name_H-M "A B A 2"
_symmetry_group_IT_number 41
_symmetry_cell_setting 'orthorhombic'
loop_
_space_group_symop_operation_xyz
x,y,z
-x,-y,z
1/2-x,y,1/2+z
1/2+x,-y,1/2+z
x,1/2+y,1/2+z
-x,1/2-y,1/2+z
1/2-x,1/2+y,z
1/2+x,1/2-y,z
loop_
_atom_site_type_symbol
_atom_site_label
_atom_site_fract_x
_atom_site_fract_y
_atom_site_fract_z
Si Si1 0.274060 0.137268 0.295240
Si Si2 0.077950 0.096641 0.702788
Si Si3 0.774060 0.137268 0.939747
Si Si4 0.815893 0.250000 0.617493
Si Si5 0.577950 0.096640 0.532198
O O1 0.363909 0.186776 0.277997
O O2 0.236051 0.376410 0.319997
O O3 0.233506 0.136228 0.194875
O O4 0.263949 0.123590 0.414990
O O5 0.062687 0.250000 0.617493
O O6 0.127486 0.911513 0.663061
O O7 0.000000 0.000000 0.738838
O O8 0.733506 0.136228 0.040112
O O9 0.863909 0.186776 0.956990
O O10 0.872514 0.411512 0.571926
O O11 0.500000 0.000000 0.496148
#
# Coordination Sequence:
#
# PCOD9367992 Si02
#       5
#     8   8   8   8   8
#     4  12  24  44  74 104 139 191 247 296 365 441
#     4  12  25  45  72 105 147 192 239 305 381 435
#     4  12  24  44  74 104 139 191 247 296 365 441
#     4  12  24  48  74 100 148 188 244 312 354 448
#     4  12  25  45  72 105 147 192 239 305 381 435
#
# _framework density 23.943598000000001
#
# number of rings (size 3 to 8) (size 9 to 14) (size 15 to 20)
#    0.000    0.000    8.000    3.600    0.000    0.800 
#    0.000    0.000    0.000    0.000    0.000    0.000 
#    0.000    0.000    0.000    0.000    0.000    0.000 
#
# Total GULP energy -111677.673899 kJ/mol
# GULP energy per Si atom -5583.883695 kJ/mol
# Density = 2.388910 g / cm^3
# Si number density = 23.943598 Si / 1000 Ang^3
#
#
#
# Elastic Constant Matrix: (Units=GPa)
#
#
# Indices 1 2 3 4 5 6 
#
# 1 215.6480 28.8598 65.2081 0.0000 0.0000 0.0000
# 2 28.8598 98.8421 50.9315 0.0000 0.0000 0.0000
# 3 65.2081 50.9315 166.0715 0.0000 0.0000 0.0000
# 4 0.0000 0.0000 0.0000 82.3641 0.0000 0.0000
# 5 0.0000 0.0000 0.0000 0.0000 10.4075 0.0000
# 6 0.0000 0.0000 0.0000 0.0000 0.0000 12.7669
#
#
#
# Elastic Compliance Matrix: (Units=1/GPa)
#
#
# Indices 1 2 3 4 5 6 
#
# 1 0.005288 -0.000563 -0.001904 0.000000 0.000000 0.000000
# 2 -0.000563 0.012076 -0.003482 0.000000 0.000000 0.000000
# 3 -0.001904 -0.003482 0.007837 0.000000 0.000000 0.000000
# 4 0.000000 0.000000 0.000000 0.012141 0.000000 0.000000
# 5 0.000000 0.000000 0.000000 0.000000 0.096085 0.000000
# 6 0.000000 0.000000 0.000000 0.000000 0.000000 0.078328
#
#
# Mechanical properties :
#
#
# Convention : Reuss Voigt Hill
#
# Bulk Modulus (GPa) = 75.17257 85.61783 80.39520
# Shear Modulus (GPa) = 21.92140 43.47850 32.69995
#
# Velocity S-wave (km/s) = 3.02908 4.26593 3.69956
# Velocity P-wave (km/s) = 6.61042 7.75242 7.20408
#
# Compressibility (1/GPa) = 0.01330272
#
# Stress axis : x y z
#
# Youngs Moduli (GPa) = 189.10040 82.80904 127.59979
#
# Poissons Ratio (x) = 0.04663 0.24291
# Poissons Ratio (y) = 0.10648 0.44436
# Poissons Ratio (z) = 0.36000 0.28838
#
# Static dielectric constant tensor:
#      x y z
#    x 1.879640 0.000000 0.000000 
#    y 0.000000 2.149290 0.000000 
#    z 0.000000 0.000000 1.971510 
# 
# From -- ./inp_files/2416.got.cif
#   From: 2010.05.17/outbox.cif.g08.bks.cpg/sg41_2_cif.got.tgz:2416.got - 2010.06.03 18:54:24.
