data_PCOD9367747
_publ_section_title
;
Structure prediction by ZEFSAII (Michael W. Deem and Ramdas Pophale) SiO2 
 PCOD9367747
Probable space group: A B A 2
;
_chemical_formula_sum "Si O2"
_cell_formula_units_Z 60
_cell_length_a 10.484171
_cell_length_b 10.125877
_cell_length_c 22.655089
_cell_angle_alpha 90.000000
_cell_angle_beta 90.000000
_cell_angle_gamma 90.000000
_cell_volume 2405.096554
_symmetry_space_group_name_H-M "A B A 2"
_symmetry_group_IT_number 41
_symmetry_cell_setting 'orthorhombic'
loop_
_space_group_symop_operation_xyz
x,y,z
-x,-y,z
1/2-x,y,1/2+z
1/2+x,-y,1/2+z
x,1/2+y,1/2+z
-x,1/2-y,1/2+z
1/2-x,1/2+y,z
1/2+x,1/2-y,z
loop_
_atom_site_type_symbol
_atom_site_label
_atom_site_fract_x
_atom_site_fract_y
_atom_site_fract_z
Si Si1 0.300211 0.239654 0.839850
Si Si2 0.863030 0.929269 0.776646
Si Si3 0.804478 0.454316 0.664896
Si Si4 0.545720 0.734576 0.721013
Si Si5 0.000000 0.000000 0.625749
Si Si6 0.407473 0.334299 0.532063
Si Si7 0.837953 0.223059 0.090683
Si Si8 0.450910 0.859049 0.894372
O O1 0.227619 0.098619 0.831408
O O2 0.350673 0.273296 0.773759
O O3 0.430729 0.236066 0.876959
O O4 0.187058 0.323323 0.868491
O O5 0.913054 0.784337 0.754991
O O6 0.777236 0.985550 0.723740
O O7 0.000000 0.000000 0.787390
O O8 0.575794 0.869625 0.688015
O O9 0.531100 0.620307 0.671052
O O10 0.717169 0.340267 0.632938
O O11 0.834906 0.584766 0.627017
O O12 0.897548 0.037215 0.574351
O O13 0.523136 0.252063 0.562742
O O14 0.267658 0.273857 0.539079
O O15 0.438598 0.360868 0.464942
O O16 0.500000 0.000000 0.871889
#
# Coordination Sequence:
#
# PCOD9367747 Si02
#       8
#     8   8   8   8   4   8   8   8
#     4  11  27  50  75 119 152 211 281 339 403 486
#     4  11  22  43  78 105 163 213 251 321 427 478
#     4  11  26  42  73 114 159 206 256 322 399 504
#     4  11  22  44  76 116 157 210 258 335 408 504
#     4  12  22  48  78 114 158 216 254 318 440 490
#     4  12  26  50  79 109 157 216 260 334 407 483
#     4  12  26  47  75 112 157 205 267 319 403 481
#     4  12  28  52  81 112 158 211 281 341 405 487
#
# _framework density 24.947023999999999
#
# number of rings (size 3 to 8) (size 9 to 14) (size 15 to 20)
#    0.000    0.533    4.000    4.000    3.733    0.533 
#    2.400    0.000    2.933    0.000    0.000    0.000 
#    0.000    0.000    0.000    0.000    0.000    0.000 
#
# Total GULP energy -167273.870782 kJ/mol
# GULP energy per Si atom -5575.795693 kJ/mol
# Density = 2.489024 g / cm^3
# Si number density = 24.947024 Si / 1000 Ang^3
#
#
#
# Elastic Constant Matrix: (Units=GPa)
#
#
# Indices 1 2 3 4 5 6 
#
# 1 196.0743 59.3909 60.4951 0.0000 0.0000 0.0000
# 2 59.3909 140.6046 51.1059 0.0000 0.0000 0.0000
# 3 60.4951 51.1059 125.4552 0.0000 0.0000 0.0000
# 4 0.0000 0.0000 0.0000 14.1259 0.0000 0.0000
# 5 0.0000 0.0000 0.0000 0.0000 47.2452 0.0000
# 6 0.0000 0.0000 0.0000 0.0000 0.0000 51.4040
#
#
#
# Elastic Compliance Matrix: (Units=1/GPa)
#
#
# Indices 1 2 3 4 5 6 
#
# 1 0.006377 -0.001850 -0.002321 0.000000 0.000000 0.000000
# 2 -0.001850 0.008885 -0.002727 0.000000 0.000000 0.000000
# 3 -0.002321 -0.002727 0.010201 0.000000 0.000000 0.000000
# 4 0.000000 0.000000 0.000000 0.070792 0.000000 0.000000
# 5 0.000000 0.000000 0.000000 0.000000 0.021166 0.000000
# 6 0.000000 0.000000 0.000000 0.000000 0.000000 0.019454
#
#
# Mechanical properties :
#
#
# Convention : Reuss Voigt Hill
#
# Bulk Modulus (GPa) = 85.72006 89.34646 87.53326
# Shear Modulus (GPa) = 32.34985 41.96449 37.15717
#
# Velocity S-wave (km/s) = 3.60494 4.10584 3.86352
# Velocity P-wave (km/s) = 7.19464 7.63999 7.42066
#
# Compressibility (1/GPa) = 0.01166588
#
# Stress axis : x y z
#
# Youngs Moduli (GPa) = 156.82381 112.55193 98.02609
#
# Poissons Ratio (x) = 0.20819 0.22755
# Poissons Ratio (y) = 0.29008 0.26736
# Poissons Ratio (z) = 0.36404 0.30697
#
# Static dielectric constant tensor:
#      x y z
#    x 2.200570 0.000000 0.000000 
#    y 0.000000 2.366460 0.000000 
#    z 0.000000 0.000000 1.942980 
# 
# From -- ./inp_files/11416.got.cif
#   From: 2010.05.17/outbox.cif.g08.bks.cpg/sg41_6_cif.got.tgz:11416.got - 2010.06.03 18:54:24.
