data_PCOD9367213
_publ_section_title
;
Structure prediction by ZEFSAII (Michael W. Deem and Ramdas Pophale) SiO2 
 PCOD9367213
Probable space group: A B A 2
;
_chemical_formula_sum "Si O2"
_cell_formula_units_Z 64
_cell_length_a 8.442404
_cell_length_b 28.625907
_cell_length_c 13.430382
_cell_angle_alpha 90.000000
_cell_angle_beta 90.000000
_cell_angle_gamma 90.000000
_cell_volume 3245.740184
_symmetry_space_group_name_H-M "A B A 2"
_symmetry_group_IT_number 41
_symmetry_cell_setting 'orthorhombic'
loop_
_space_group_symop_operation_xyz
x,y,z
-x,-y,z
1/2-x,y,1/2+z
1/2+x,-y,1/2+z
x,1/2+y,1/2+z
-x,1/2-y,1/2+z
1/2-x,1/2+y,z
1/2+x,1/2-y,z
loop_
_atom_site_type_symbol
_atom_site_label
_atom_site_fract_x
_atom_site_fract_y
_atom_site_fract_z
Si Si1 0.169197 0.065857 0.108140
Si Si2 0.180858 0.893390 0.459451
Si Si3 0.677346 0.793284 0.577441
Si Si4 0.845269 0.356833 0.220651
Si Si5 0.467165 0.807489 0.066268
Si Si6 0.044854 0.630638 0.441749
Si Si7 0.835352 0.027271 0.627040
Si Si8 0.083079 0.450677 0.774925
O O1 0.304442 0.094009 0.168421
O O2 0.018039 0.067948 0.181163
O O3 0.214157 0.012651 0.088961
O O4 0.138374 0.092497 0.006489
O O5 0.114468 0.843307 0.492111
O O6 0.364946 0.886287 0.432938
O O7 0.162091 0.929785 0.550934
O O8 0.088378 0.915736 0.366696
O O9 0.707186 0.821380 0.681341
O O10 0.623505 0.740363 0.585990
O O11 0.558707 0.822620 0.508680
O O12 0.853740 0.796129 0.530777
O O13 0.871878 0.361649 0.336475
O O14 0.001312 0.335119 0.169424
O O15 0.760065 0.041481 0.732921
O O16 0.000000 0.000000 0.635021
O O17 0.000000 0.500000 0.803159
#
# Coordination Sequence:
#
# PCOD9367213 Si02
#       8
#     8   8   8   8   8   8   8   8
#     4  10  22  44  66  89 142 171 214 271 323 386
#     4  12  25  39  68  97 132 171 228 268 322 394
#     4   9  22  45  66  92 134 166 209 270 333 390
#     4   9  23  39  70  94 127 170 217 261 333 384
#     4  10  22  45  66  93 131 170 211 271 330 388
#     4  11  23  42  67 100 126 168 223 264 327 388
#     4  11  24  41  63  93 133 174 220 270 323 381
#     4  10  24  43  60  97 131 182 218 267 327 384
#
# _framework density 19.718153000000001
#
# number of rings (size 3 to 8) (size 9 to 14) (size 15 to 20)
#    0.750    1.000    1.250    1.875    5.250    2.000 
#    4.500    0.000    0.000    0.000    0.000    0.000 
#    0.000    0.000    0.000    0.000    0.000    0.000 
#
# Total GULP energy -178564.706809 kJ/mol
# GULP energy per Si atom -5580.147088 kJ/mol
# Density = 1.967327 g / cm^3
# Si number density = 19.718153 Si / 1000 Ang^3
#
#
#
# Elastic Constant Matrix: (Units=GPa)
#
#
# Indices 1 2 3 4 5 6 
#
# 1 63.8983 22.7136 29.3035 0.0000 0.0000 0.0000
# 2 22.7136 112.4029 44.5579 0.0000 0.0000 0.0000
# 3 29.3035 44.5579 100.0985 0.0000 0.0000 0.0000
# 4 0.0000 0.0000 0.0000 10.5989 0.0000 0.0000
# 5 0.0000 0.0000 0.0000 0.0000 15.3732 0.0000
# 6 0.0000 0.0000 0.0000 0.0000 0.0000 28.7266
#
#
#
# Elastic Compliance Matrix: (Units=1/GPa)
#
#
# Indices 1 2 3 4 5 6 
#
# 1 0.018413 -0.001923 -0.004534 0.000000 0.000000 0.000000
# 2 -0.001923 0.011004 -0.004335 0.000000 0.000000 0.000000
# 3 -0.004534 -0.004335 0.013247 0.000000 0.000000 0.000000
# 4 0.000000 0.000000 0.000000 0.094349 0.000000 0.000000
# 5 0.000000 0.000000 0.000000 0.000000 0.065048 0.000000
# 6 0.000000 0.000000 0.000000 0.000000 0.000000 0.034811
#
#
# Mechanical properties :
#
#
# Convention : Reuss Voigt Hill
#
# Bulk Modulus (GPa) = 47.44151 52.17218 49.80684
# Shear Modulus (GPa) = 18.83355 22.92806 20.88080
#
# Velocity S-wave (km/s) = 3.09388 3.41367 3.25770
# Velocity P-wave (km/s) = 6.07247 6.48490 6.28207
#
# Compressibility (1/GPa) = 0.02107859
#
# Stress axis : x y z
#
# Youngs Moduli (GPa) = 54.30972 90.87828 75.48724
#
# Poissons Ratio (x) = 0.17479 0.34227
# Poissons Ratio (y) = 0.10446 0.32725
# Poissons Ratio (z) = 0.24625 0.39397
#
# Static dielectric constant tensor:
#      x y z
#    x 1.742370 0.000000 0.000000 
#    y 0.000000 1.695610 0.000000 
#    z 0.000000 0.000000 1.662670 
# 
# From -- ./inp_files/4641.got.cif
#   From: 2010.05.17/outbox.cif.g08.bks.cpg/sg41_3_cif.got.tgz:4641.got - 2010.06.03 18:54:24.
