data_PCOD9367645
_publ_section_title
;
Structure prediction by ZEFSAII (Michael W. Deem and Ramdas Pophale) SiO2 
 PCOD9367645
Probable space group: A B A 2
;
_chemical_formula_sum "Si O2"
_cell_formula_units_Z 44
_cell_length_a 15.698454
_cell_length_b 24.875395
_cell_length_c 5.058394
_cell_angle_alpha 90.000000
_cell_angle_beta 90.000000
_cell_angle_gamma 90.000000
_cell_volume 1975.329384
_symmetry_space_group_name_H-M "A B A 2"
_symmetry_group_IT_number 41
_symmetry_cell_setting 'orthorhombic'
loop_
_space_group_symop_operation_xyz
x,y,z
-x,-y,z
1/2-x,y,1/2+z
1/2+x,-y,1/2+z
x,1/2+y,1/2+z
-x,1/2-y,1/2+z
1/2-x,1/2+y,z
1/2+x,1/2-y,z
loop_
_atom_site_type_symbol
_atom_site_label
_atom_site_fract_x
_atom_site_fract_y
_atom_site_fract_z
Si Si1 0.000000 0.500000 0.767370
Si Si2 0.350133 0.882491 0.563951
Si Si3 0.708364 0.735984 0.994090
Si Si4 0.458772 0.890151 0.061467
Si Si5 0.304260 0.001576 0.562150
Si Si6 0.035837 0.220689 0.413700
O O1 0.989889 0.552616 0.952098
O O2 0.907462 0.491477 0.615172
O O3 0.309254 0.827492 0.466692
O O4 0.380120 0.876873 0.865492
O O5 0.297036 0.936716 0.545957
O O6 0.429840 0.892021 0.364639
O O7 0.786865 0.747854 0.802951
O O8 0.633895 0.769410 0.863340
O O9 0.518816 0.839344 0.011192
O O10 0.257947 0.021615 0.296517
O O11 0.012509 0.262383 0.648141
#
# Coordination Sequence:
#
# PCOD9367645 Si02
#       6
#     4   8   8   8   8   8
#     4  10  26  44  70 100 136 182 240 278 344 414
#     4  11  21  38  64  95 131 165 215 282 349 385
#     4  12  23  36  59  95 131 166 211 272 336 399
#     4  11  22  41  66  95 127 178 221 278 324 405
#     4  11  23  41  64  97 135 174 224 283 343 400
#     4  12  22  42  64  90 128 176 217 263 330 409
#
# _framework density 22.274766
#
# number of rings (size 3 to 8) (size 9 to 14) (size 15 to 20)
#    0.000    0.727    3.636    5.455    0.000    6.545 
#    0.000    1.818    0.000    0.000    0.000    0.000 
#    0.000    0.000    0.000    0.000    0.000    0.000 
#
# Total GULP energy -122817.230075 kJ/mol
# GULP energy per Si atom -5582.601367 kJ/mol
# Density = 2.222407 g / cm^3
# Si number density = 22.274766 Si / 1000 Ang^3
#
#
#
# Elastic Constant Matrix: (Units=GPa)
#
#
# Indices 1 2 3 4 5 6 
#
# 1 89.5114 25.0956 20.3906 0.0000 0.0000 0.0000
# 2 25.0956 53.6877 19.4117 0.0000 0.0000 0.0000
# 3 20.3906 19.4117 90.3417 0.0000 0.0000 0.0000
# 4 0.0000 0.0000 0.0000 11.1757 0.0000 0.0000
# 5 0.0000 0.0000 0.0000 0.0000 29.9648 0.0000
# 6 0.0000 0.0000 0.0000 0.0000 0.0000 31.8273
#
#
#
# Elastic Compliance Matrix: (Units=1/GPa)
#
#
# Indices 1 2 3 4 5 6 
#
# 1 0.013116 -0.005487 -0.001781 0.000000 0.000000 0.000000
# 2 -0.005487 0.022490 -0.003594 0.000000 0.000000 0.000000
# 3 -0.001781 -0.003594 0.012243 0.000000 0.000000 0.000000
# 4 0.000000 0.000000 0.000000 0.089480 0.000000 0.000000
# 5 0.000000 0.000000 0.000000 0.000000 0.033372 0.000000
# 6 0.000000 0.000000 0.000000 0.000000 0.000000 0.031420
#
#
# Mechanical properties :
#
#
# Convention : Reuss Voigt Hill
#
# Bulk Modulus (GPa) = 38.27718 40.37073 39.32395
# Shear Modulus (GPa) = 21.50035 25.83644 23.66839
#
# Velocity S-wave (km/s) = 3.11019 3.40942 3.26324
# Velocity P-wave (km/s) = 5.48809 5.80191 5.64718
#
# Compressibility (1/GPa) = 0.02612523
#
# Stress axis : x y z
#
# Youngs Moduli (GPa) = 76.24380 44.46327 81.67649
#
# Poissons Ratio (x) = 0.24396 0.14550
# Poissons Ratio (y) = 0.41833 0.29356
# Poissons Ratio (z) = 0.13582 0.15981
#
# Static dielectric constant tensor:
#      x y z
#    x 1.872450 0.000000 0.000000 
#    y 0.000000 1.773030 0.000000 
#    z 0.000000 0.000000 1.807200 
# 
# From -- ./inp_files/275.got.cif
#   From: 2010.05.17/outbox.cif.g08.bks.cpg/sg41_1_cif.got.tgz:275.got - 2010.06.03 18:54:24.
