data_PCOD9367890
_publ_section_title
;
Structure prediction by ZEFSAII (Michael W. Deem and Ramdas Pophale) SiO2 
 PCOD9367890
Probable space group: A B A 2
;
_chemical_formula_sum "Si O2"
_cell_formula_units_Z 40
_cell_length_a 14.660676
_cell_length_b 9.162196
_cell_length_c 13.489942
_cell_angle_alpha 90.000000
_cell_angle_beta 90.000000
_cell_angle_gamma 90.000000
_cell_volume 1812.022794
_symmetry_space_group_name_H-M "A B A 2"
_symmetry_group_IT_number 41
_symmetry_cell_setting 'orthorhombic'
loop_
_space_group_symop_operation_xyz
x,y,z
-x,-y,z
1/2-x,y,1/2+z
1/2+x,-y,1/2+z
x,1/2+y,1/2+z
-x,1/2-y,1/2+z
1/2-x,1/2+y,z
1/2+x,1/2-y,z
loop_
_atom_site_type_symbol
_atom_site_label
_atom_site_fract_x
_atom_site_fract_y
_atom_site_fract_z
Si Si1 0.374996 0.904907 0.168700
Si Si2 0.660208 0.505738 0.979632
Si Si3 0.500000 0.500000 0.498778
Si Si4 0.500000 0.000000 0.340263
Si Si5 0.663216 0.339600 0.404998
Si Si6 0.290615 0.605493 0.179191
O O1 0.303674 0.775211 0.155066
O O2 0.436173 0.908367 0.072043
O O3 0.443099 0.897885 0.263278
O O4 0.313163 0.048968 0.179244
O O5 0.577194 0.438412 0.914826
O O6 0.753981 0.421217 0.959602
O O7 0.669925 0.670129 0.937408
O O8 0.651071 0.486259 0.098406
O O9 0.565348 0.396400 0.438024
O O10 0.675463 0.391625 0.291956
#
# Coordination Sequence:
#
# PCOD9367890 Si02
#       6
#     8   8   4   4   8   8
#     4  11  25  48  76 103 153 195 255 308 387 465
#     4  12  27  45  79 109 154 200 259 321 391 461
#     4  11  28  47  72 110 150 193 246 319 384 448
#     4  11  24  47  70 108 150 199 246 327 376 452
#     4  12  26  50  74 110 152 201 255 326 384 463
#     4  12  24  48  76 108 140 207 249 305 387 465
#
# _framework density 22.074777999999998
#
# number of rings (size 3 to 8) (size 9 to 14) (size 15 to 20)
#    0.000    0.400    6.000    1.200    2.800    0.800 
#    3.600    0.000    0.000    0.000    0.000    0.000 
#    0.000    0.000    0.000    0.000    0.000    0.000 
#
# Total GULP energy -111668.100029 kJ/mol
# GULP energy per Si atom -5583.405001 kJ/mol
# Density = 2.202453 g / cm^3
# Si number density = 22.074778 Si / 1000 Ang^3
#
#
#
# Elastic Constant Matrix: (Units=GPa)
#
#
# Indices 1 2 3 4 5 6 
#
# 1 130.9265 61.6106 40.0392 0.0000 0.0000 0.0000
# 2 61.6106 97.2083 31.1094 0.0000 0.0000 0.0000
# 3 40.0392 31.1094 162.7784 0.0000 0.0000 0.0000
# 4 0.0000 0.0000 0.0000 6.9855 0.0000 0.0000
# 5 0.0000 0.0000 0.0000 0.0000 109.7419 0.0000
# 6 0.0000 0.0000 0.0000 0.0000 0.0000 15.3616
#
#
#
# Elastic Compliance Matrix: (Units=1/GPa)
#
#
# Indices 1 2 3 4 5 6 
#
# 1 0.011214 -0.006630 -0.001491 0.000000 0.000000 0.000000
# 2 -0.006630 0.014877 -0.001212 0.000000 0.000000 0.000000
# 3 -0.001491 -0.001212 0.006742 0.000000 0.000000 0.000000
# 4 0.000000 0.000000 0.000000 0.143154 0.000000 0.000000
# 5 0.000000 0.000000 0.000000 0.000000 0.009112 0.000000
# 6 0.000000 0.000000 0.000000 0.000000 0.000000 0.065097
#
#
# Mechanical properties :
#
#
# Convention : Reuss Voigt Hill
#
# Bulk Modulus (GPa) = 70.59393 72.93686 71.76539
# Shear Modulus (GPa) = 18.27581 43.62806 30.95194
#
# Velocity S-wave (km/s) = 2.88045 4.45047 3.74858
# Velocity P-wave (km/s) = 6.56594 7.71501 7.16355
#
# Compressibility (1/GPa) = 0.01416552
#
# Stress axis : x y z
#
# Youngs Moduli (GPa) = 89.17532 67.21616 148.32751
#
# Poissons Ratio (x) = 0.44565 0.22119
# Poissons Ratio (y) = 0.59124 0.17984
# Poissons Ratio (z) = 0.13298 0.08150
#
# Static dielectric constant tensor:
#      x y z
#    x 1.768370 0.000000 0.000000 
#    y 0.000000 1.833610 0.000000 
#    z 0.000000 0.000000 1.895420 
# 
# From -- ./inp_files/8243.got.cif
#   From: 2010.05.17/outbox.cif.g08.bks.cpg/sg41_5_cif.got.tgz:8243.got - 2010.06.03 18:54:24.
