data_PCOD9367600
_publ_section_title
;
Structure prediction by ZEFSAII (Michael W. Deem and Ramdas Pophale) SiO2 
 PCOD9367600
Probable space group: A B A 2
;
_chemical_formula_sum "Si O2"
_cell_formula_units_Z 36
_cell_length_a 22.757957
_cell_length_b 5.320902
_cell_length_c 12.922949
_cell_angle_alpha 90.000000
_cell_angle_beta 90.000000
_cell_angle_gamma 90.000000
_cell_volume 1564.876840
_symmetry_space_group_name_H-M "A B A 2"
_symmetry_group_IT_number 41
_symmetry_cell_setting 'orthorhombic'
loop_
_space_group_symop_operation_xyz
x,y,z
-x,-y,z
1/2-x,y,1/2+z
1/2+x,-y,1/2+z
x,1/2+y,1/2+z
-x,1/2-y,1/2+z
1/2-x,1/2+y,z
1/2+x,1/2-y,z
loop_
_atom_site_type_symbol
_atom_site_label
_atom_site_fract_x
_atom_site_fract_y
_atom_site_fract_z
Si Si1 0.500000 0.500000 0.259331
Si Si2 0.394987 0.957335 0.604962
Si Si3 0.784834 0.263484 0.224045
Si Si4 0.140003 0.743455 0.409963
Si Si5 0.429335 0.262756 0.898575
O O1 0.442773 0.532706 0.189262
O O2 0.490397 0.725657 0.340679
O O3 0.343731 0.801073 0.659955
O O4 0.364581 0.169837 0.531581
O O5 0.433528 0.804801 0.521043
O O6 0.739908 0.037873 0.199903
O O7 0.799576 0.245716 0.347024
O O8 0.107513 0.500858 0.359710
O O9 0.108163 0.006675 0.390192
#
# Coordination Sequence:
#
# PCOD9367600 Si02
#       5
#     4   8   8   8   8
#     4  12  24  50  78 114 152 200 236 310 370 456
#     4  10  28  46  77 109 150 193 250 298 382 441
#     4  12  27  47  77 106 143 198 253 310 368 437
#     4  10  24  50  68 106 148 186 243 306 359 436
#     4  10  25  46  73 106 151 187 239 299 362 445
#
# _framework density 23.005005000000001
#
# number of rings (size 3 to 8) (size 9 to 14) (size 15 to 20)
#    1.333    0.000    2.222    1.333    6.222    2.667 
#    4.000    0.000    0.000    0.000    0.000    0.000 
#    0.000    0.000    0.000    0.000    0.000    0.000 
#
# Total GULP energy -100328.054635 kJ/mol
# GULP energy per Si atom -5573.780813 kJ/mol
# Density = 2.295264 g / cm^3
# Si number density = 23.005005 Si / 1000 Ang^3
#
#
#
# Elastic Constant Matrix: (Units=GPa)
#
#
# Indices 1 2 3 4 5 6 
#
# 1 77.7602 17.2309 39.0203 0.0000 0.0000 0.0000
# 2 17.2309 131.4487 11.6528 0.0000 0.0000 0.0000
# 3 39.0203 11.6528 126.6201 0.0000 0.0000 0.0000
# 4 0.0000 0.0000 0.0000 -103.3354 0.0000 0.0000
# 5 0.0000 0.0000 0.0000 0.0000 24.1320 0.0000
# 6 0.0000 0.0000 0.0000 0.0000 0.0000 36.5680
#
#
#
# Elastic Compliance Matrix: (Units=1/GPa)
#
#
# Indices 1 2 3 4 5 6 
#
# 1 0.015550 -0.001627 -0.004642 0.000000 0.000000 0.000000
# 2 -0.001627 0.007840 -0.000220 0.000000 0.000000 0.000000
# 3 -0.004642 -0.000220 0.009349 0.000000 0.000000 0.000000
# 4 0.000000 0.000000 0.000000 -0.009677 0.000000 0.000000
# 5 0.000000 0.000000 0.000000 0.000000 0.041439 0.000000
# 6 0.000000 0.000000 0.000000 0.000000 0.000000 0.027346
#
#
# Mechanical properties :
#
#
# Convention : Reuss Voigt Hill
#
# Bulk Modulus (GPa) = 50.60686 52.40414 51.50550
# Shear Modulus (GPa) = 44.87842 9.33460 27.10651
#
# Velocity S-wave (km/s) = 4.42159 2.01654 3.43634
# Velocity P-wave (km/s) = 6.93637 5.31515 6.17916
#
# Compressibility (1/GPa) = 0.01976017
#
# Stress axis : x y z
#
# Youngs Moduli (GPa) = 64.30844 127.54607 106.96884
#
# Poissons Ratio (x) = 0.20750 0.49658
# Poissons Ratio (y) = 0.10462 0.02355
# Poissons Ratio (z) = 0.29854 0.02809
#
# Static dielectric constant tensor:
#      x y z
#    x 1.894970 0.000000 0.000000 
#    y 0.000000 1.876790 0.000000 
#    z 0.000000 0.000000 1.903790 
# 
# From -- ./inp_files/6357.got.cif
#   From: 2010.05.17/outbox.cif.g08.bks.cpg/sg41_4_cif.got.tgz:6357.got - 2010.06.03 18:54:24.
