data_PCOD9367409
_publ_section_title
;
Structure prediction by ZEFSAII (Michael W. Deem and Ramdas Pophale) SiO2 
 PCOD9367409
Probable space group: A B A 2
;
_chemical_formula_sum "Si O2"
_cell_formula_units_Z 48
_cell_length_a 7.755231
_cell_length_b 22.975614
_cell_length_c 11.683276
_cell_angle_alpha 90.000000
_cell_angle_beta 90.000000
_cell_angle_gamma 90.000000
_cell_volume 2081.740067
_symmetry_space_group_name_H-M "A B A 2"
_symmetry_group_IT_number 41
_symmetry_cell_setting 'orthorhombic'
loop_
_space_group_symop_operation_xyz
x,y,z
-x,-y,z
1/2-x,y,1/2+z
1/2+x,-y,1/2+z
x,1/2+y,1/2+z
-x,1/2-y,1/2+z
1/2-x,1/2+y,z
1/2+x,1/2-y,z
loop_
_atom_site_type_symbol
_atom_site_label
_atom_site_fract_x
_atom_site_fract_y
_atom_site_fract_z
Si Si1 0.408944 0.352481 0.406240
Si Si2 0.103362 0.774866 0.195005
Si Si3 0.427429 0.065308 0.312728
Si Si4 0.461190 0.065168 0.727531
Si Si5 0.528516 0.145434 0.512292
Si Si6 0.033094 0.839154 0.657921
O O1 0.460714 0.303666 0.313320
O O2 0.443645 0.412818 0.341872
O O3 0.209913 0.348035 0.445559
O O4 0.507912 0.348439 0.525425
O O5 0.998952 0.793076 0.078384
O O6 0.289926 0.803753 0.176460
O O7 0.106678 0.705672 0.207888
O O8 0.241463 0.066839 0.253432
O O9 0.416831 0.108378 0.422422
O O10 0.546463 0.099909 0.222283
O O11 0.500000 0.000000 0.336111
O O12 0.527361 0.104758 0.624270
O O13 0.500000 0.000000 0.697111
#
# Coordination Sequence:
#
# PCOD9367409 Si02
#       6
#     8   8   8   8   8   8
#     4  10  23  45  70 101 141 186 235 301 365 421
#     4  10  24  43  71 104 137 187 238 302 361 425
#     4  12  27  46  71 104 149 193 241 299 367 432
#     4  11  26  43  74 103 140 192 247 291 358 437
#     4  10  23  48  69 100 144 187 241 298 360 426
#     4  11  26  43  71 103 143 186 237 298 363 434
#
# _framework density 23.057635000000001
#
# number of rings (size 3 to 8) (size 9 to 14) (size 15 to 20)
#    0.000    1.333    1.667    1.500   14.000    0.667 
#    0.000    0.000    0.000    0.000    0.000    0.000 
#    0.000    0.000    0.000    0.000    0.000    0.000 
#
# Total GULP energy -133988.762154 kJ/mol
# GULP energy per Si atom -5582.865090 kJ/mol
# Density = 2.300516 g / cm^3
# Si number density = 23.057635 Si / 1000 Ang^3
#
#
#
# Elastic Constant Matrix: (Units=GPa)
#
#
# Indices 1 2 3 4 5 6 
#
# 1 50.1005 9.7918 5.1774 0.0000 0.0000 0.0000
# 2 9.7918 87.8680 27.8117 0.0000 0.0000 0.0000
# 3 5.1774 27.8117 132.5762 0.0000 0.0000 0.0000
# 4 0.0000 0.0000 0.0000 25.1663 0.0000 0.0000
# 5 0.0000 0.0000 0.0000 0.0000 23.2319 0.0000
# 6 0.0000 0.0000 0.0000 0.0000 0.0000 33.8324
#
#
#
# Elastic Compliance Matrix: (Units=1/GPa)
#
#
# Indices 1 2 3 4 5 6 
#
# 1 0.020419 -0.002167 -0.000343 0.000000 0.000000 0.000000
# 2 -0.002167 0.012420 -0.002521 0.000000 0.000000 0.000000
# 3 -0.000343 -0.002521 0.008085 0.000000 0.000000 0.000000
# 4 0.000000 0.000000 0.000000 0.039736 0.000000 0.000000
# 5 0.000000 0.000000 0.000000 0.000000 0.043044 0.000000
# 6 0.000000 0.000000 0.000000 0.000000 0.000000 0.029557
#
#
# Mechanical properties :
#
#
# Convention : Reuss Voigt Hill
#
# Bulk Modulus (GPa) = 32.40151 39.56738 35.98445
# Shear Modulus (GPa) = 28.80016 31.63037 30.21526
#
# Velocity S-wave (km/s) = 3.53803 3.70779 3.62390
# Velocity P-wave (km/s) = 5.54735 5.96052 5.75764
#
# Compressibility (1/GPa) = 0.03086276
#
# Stress axis : x y z
#
# Youngs Moduli (GPa) = 48.97441 80.51487 123.68520
#
# Poissons Ratio (x) = 0.17447 0.04240
# Poissons Ratio (y) = 0.10612 0.31179
# Poissons Ratio (z) = 0.01679 0.20297
#
# Static dielectric constant tensor:
#      x y z
#    x 1.917800 0.000000 0.000000 
#    y 0.000000 1.886780 0.000000 
#    z 0.000000 0.000000 1.870580 
# 
# From -- ./inp_files/4505.got.cif
#   From: 2010.05.17/outbox.cif.g08.bks.cpg/sg41_3_cif.got.tgz:4505.got - 2010.06.03 18:54:24.
