data_PCOD9367450
_publ_section_title
;
Structure prediction by ZEFSAII (Michael W. Deem and Ramdas Pophale) SiO2 
 PCOD9367450
Probable space group: A B A 2
;
_chemical_formula_sum "Si O2"
_cell_formula_units_Z 52
_cell_length_a 5.468485
_cell_length_b 15.533427
_cell_length_c 26.990784
_cell_angle_alpha 90.000000
_cell_angle_beta 90.000000
_cell_angle_gamma 90.000000
_cell_volume 2292.713592
_symmetry_space_group_name_H-M "A B A 2"
_symmetry_group_IT_number 41
_symmetry_cell_setting 'orthorhombic'
loop_
_space_group_symop_operation_xyz
x,y,z
-x,-y,z
1/2-x,y,1/2+z
1/2+x,-y,1/2+z
x,1/2+y,1/2+z
-x,1/2-y,1/2+z
1/2-x,1/2+y,z
1/2+x,1/2-y,z
loop_
_atom_site_type_symbol
_atom_site_label
_atom_site_fract_x
_atom_site_fract_y
_atom_site_fract_z
Si Si1 0.249192 0.943619 0.424490
Si Si2 0.500000 0.500000 0.613114
Si Si3 0.973503 0.702325 0.617795
Si Si4 0.365813 0.580575 0.192522
Si Si5 0.351178 0.350200 0.327191
Si Si6 0.647029 0.847996 0.288454
Si Si7 0.667644 0.085166 0.537012
O O1 0.225243 0.868841 0.383517
O O2 0.261368 0.906273 0.480157
O O3 0.500000 0.000000 0.417024
O O4 0.000000 0.000000 0.421447
O O5 0.305683 0.542881 0.649498
O O6 0.610280 0.569227 0.574905
O O7 0.746295 0.764301 0.624477
O O8 0.968135 0.663712 0.562576
O O9 0.936349 0.633681 0.661716
O O10 0.500000 0.500000 0.217824
O O11 0.225938 0.639470 0.231815
O O12 0.373718 0.250804 0.308338
O O13 0.622207 0.387163 0.318128
O O14 0.120647 0.387452 0.296796
O O15 0.500000 0.000000 0.540656
#
# Coordination Sequence:
#
# PCOD9367450 Si02
#       7
#     8   4   8   8   8   8   8
#     4  11  24  42  78 107 137 190 244 301 363 430
#     4  12  20  46  74 100 152 180 250 298 352 428
#     4  12  27  43  68 106 150 189 237 296 364 444
#     4  12  27  43  74 105 139 200 249 296 363 441
#     4  10  23  48  66 100 139 183 236 299 365 425
#     4  10  25  44  71  97 139 189 231 300 363 427
#     4  11  23  46  72 107 146 192 241 299 361 433
#
# _framework density 22.680547000000001
#
# number of rings (size 3 to 8) (size 9 to 14) (size 15 to 20)
#    0.000    0.923    3.846    1.846    6.462    1.846 
#    5.538    0.000    0.000    0.000    0.000    0.000 
#    0.000    0.000    0.000    0.000    0.000    0.000 
#
# Total GULP energy -145223.618264 kJ/mol
# GULP energy per Si atom -5585.523779 kJ/mol
# Density = 2.262892 g / cm^3
# Si number density = 22.680547 Si / 1000 Ang^3
#
#
#
# Elastic Constant Matrix: (Units=GPa)
#
#
# Indices 1 2 3 4 5 6 
#
# 1 112.1464 8.9833 4.6664 0.0000 0.0000 0.0000
# 2 8.9833 57.6520 32.6271 0.0000 0.0000 0.0000
# 3 4.6664 32.6271 130.3013 0.0000 0.0000 0.0000
# 4 0.0000 0.0000 0.0000 -77.6552 0.0000 0.0000
# 5 0.0000 0.0000 0.0000 0.0000 29.6946 0.0000
# 6 0.0000 0.0000 0.0000 0.0000 0.0000 39.1737
#
#
#
# Elastic Compliance Matrix: (Units=1/GPa)
#
#
# Indices 1 2 3 4 5 6 
#
# 1 0.009030 -0.001426 0.000034 0.000000 0.000000 0.000000
# 2 -0.001426 0.020434 -0.005066 0.000000 0.000000 0.000000
# 3 0.000034 -0.005066 0.008942 0.000000 0.000000 0.000000
# 4 0.000000 0.000000 0.000000 -0.012877 0.000000 0.000000
# 5 0.000000 0.000000 0.000000 0.000000 0.033676 0.000000
# 6 0.000000 0.000000 0.000000 0.000000 0.000000 0.025527
#
#
# Mechanical properties :
#
#
# Convention : Reuss Voigt Hill
#
# Bulk Modulus (GPa) = 39.23121 43.62811 41.42966
# Shear Modulus (GPa) = 47.10549 15.16415 31.13482
#
# Velocity S-wave (km/s) = 4.56226 2.58853 3.70909
# Velocity P-wave (km/s) = 6.71469 5.31146 6.05387
#
# Compressibility (1/GPa) = 0.02548991
#
# Stress axis : x y z
#
# Youngs Moduli (GPa) = 110.74508 48.93687 111.83501
#
# Poissons Ratio (x) = 0.06979 -0.00377
# Poissons Ratio (y) = 0.15793 0.56652
# Poissons Ratio (z) = -0.00373 0.24790
#
# Static dielectric constant tensor:
#      x y z
#    x 1.910120 0.000000 0.000000 
#    y 0.000000 2.423960 0.000000 
#    z 0.000000 0.000000 1.809790 
# 
# From -- ./inp_files/12406.got.cif
#   From: 2010.05.17/outbox.cif.g08.bks.cpg/sg41_7_cif.got.tgz:12406.got - 2010.06.03 18:54:24.
