data_PCOD9367799
_publ_section_title
;
Structure prediction by ZEFSAII (Michael W. Deem and Ramdas Pophale) SiO2 
 PCOD9367799
Probable space group: A B A 2
;
_chemical_formula_sum "Si O2"
_cell_formula_units_Z 56
_cell_length_a 18.504317
_cell_length_b 12.230296
_cell_length_c 11.822709
_cell_angle_alpha 90.000000
_cell_angle_beta 90.000000
_cell_angle_gamma 90.000000
_cell_volume 2675.635984
_symmetry_space_group_name_H-M "A B A 2"
_symmetry_group_IT_number 41
_symmetry_cell_setting 'orthorhombic'
loop_
_space_group_symop_operation_xyz
x,y,z
-x,-y,z
1/2-x,y,1/2+z
1/2+x,-y,1/2+z
x,1/2+y,1/2+z
-x,1/2-y,1/2+z
1/2-x,1/2+y,z
1/2+x,1/2-y,z
loop_
_atom_site_type_symbol
_atom_site_label
_atom_site_fract_x
_atom_site_fract_y
_atom_site_fract_z
Si Si1 0.612780 0.240451 0.229340
Si Si2 0.301914 0.132099 0.915242
Si Si3 0.007961 0.619238 0.347703
Si Si4 0.007321 0.381907 0.609706
Si Si5 0.666956 0.850431 0.279334
Si Si6 0.810766 0.542357 0.097043
Si Si7 0.174656 0.320458 0.601303
O O1 0.660537 0.330147 0.297185
O O2 0.568456 0.175237 0.325233
O O3 0.547192 0.298477 0.165598
O O4 0.650301 0.153640 0.143028
O O5 0.216833 0.123892 0.886508
O O6 0.312706 0.231961 0.002437
O O7 0.329445 0.021772 0.979269
O O8 0.082445 0.668156 0.302426
O O9 0.000000 0.500000 0.293459
O O10 0.018341 0.609303 0.480749
O O11 0.090822 0.349646 0.607622
O O12 0.000000 0.500000 0.666577
O O13 0.694616 0.741481 0.217486
O O14 0.676233 0.951729 0.193487
O O15 0.727153 0.577214 0.086573
#
# Coordination Sequence:
#
# PCOD9367799 Si02
#       7
#     8   8   8   8   8   8   8
#     4  12  24  50  68 102 146 181 229 299 355 411
#     4  11  27  44  69 104 137 181 238 286 352 426
#     4  11  23  43  74  97 133 184 227 280 359 419
#     4  11  27  43  70 101 140 178 235 284 351 435
#     4  11  24  44  70 100 134 181 232 287 351 423
#     4  11  27  43  72 100 138 182 238 287 350 435
#     4  11  24  46  66 102 135 181 231 287 349 423
#
# _framework density 20.929603
#
# number of rings (size 3 to 8) (size 9 to 14) (size 15 to 20)
#    0.000    0.857    5.714    0.000   10.000    0.000 
#    2.571    0.000    0.000    0.000    0.000    0.000 
#    0.000    0.000    0.000    0.000    0.000    0.000 
#
# Total GULP energy -156174.744705 kJ/mol
# GULP energy per Si atom -5577.669454 kJ/mol
# Density = 2.088197 g / cm^3
# Si number density = 20.929603 Si / 1000 Ang^3
#
#
#
# Elastic Constant Matrix: (Units=GPa)
#
#
# Indices 1 2 3 4 5 6 
#
# 1 115.5832 30.7648 29.3985 0.0000 0.0000 0.0000
# 2 30.7648 70.9253 24.8955 0.0000 0.0000 0.0000
# 3 29.3985 24.8955 54.6582 0.0000 0.0000 0.0000
# 4 0.0000 0.0000 0.0000 12.6430 0.0000 0.0000
# 5 0.0000 0.0000 0.0000 0.0000 13.5845 0.0000
# 6 0.0000 0.0000 0.0000 0.0000 0.0000 33.8275
#
#
#
# Elastic Compliance Matrix: (Units=1/GPa)
#
#
# Indices 1 2 3 4 5 6 
#
# 1 0.010559 -0.003079 -0.004277 0.000000 0.000000 0.000000
# 2 -0.003079 0.017680 -0.006397 0.000000 0.000000 0.000000
# 3 -0.004277 -0.006397 0.023510 0.000000 0.000000 0.000000
# 4 0.000000 0.000000 0.000000 0.079095 0.000000 0.000000
# 5 0.000000 0.000000 0.000000 0.000000 0.073614 0.000000
# 6 0.000000 0.000000 0.000000 0.000000 0.000000 0.029562
#
#
# Mechanical properties :
#
#
# Convention : Reuss Voigt Hill
#
# Bulk Modulus (GPa) = 41.24837 45.69824 43.47331
# Shear Modulus (GPa) = 18.54557 22.41818 20.48188
#
# Velocity S-wave (km/s) = 2.97996 3.27635 3.13166
# Velocity P-wave (km/s) = 5.62060 6.01617 5.82175
#
# Compressibility (1/GPa) = 0.02424338
#
# Stress axis : x y z
#
# Youngs Moduli (GPa) = 94.70478 56.56032 42.53595
#
# Poissons Ratio (x) = 0.17414 0.18192
# Poissons Ratio (y) = 0.29159 0.27210
# Poissons Ratio (z) = 0.40505 0.36181
#
# Static dielectric constant tensor:
#      x y z
#    x 1.751920 0.000000 0.000000 
#    y 0.000000 1.847900 0.000000 
#    z 0.000000 0.000000 1.781150 
# 
# From -- ./inp_files/6222.got.cif
#   From: 2010.05.17/outbox.cif.g08.bks.cpg/sg41_4_cif.got.tgz:6222.got - 2010.06.03 18:54:24.
