data_PCOD9367179
_publ_section_title
;
Structure prediction by ZEFSAII (Michael W. Deem and Ramdas Pophale) SiO2 
 PCOD9367179
Probable space group: A B A 2
;
_chemical_formula_sum "Si O2"
_cell_formula_units_Z 64
_cell_length_a 9.197171
_cell_length_b 15.009525
_cell_length_c 21.832790
_cell_angle_alpha 90.000000
_cell_angle_beta 90.000000
_cell_angle_gamma 90.000000
_cell_volume 3013.911165
_symmetry_space_group_name_H-M "A B A 2"
_symmetry_group_IT_number 41
_symmetry_cell_setting 'orthorhombic'
loop_
_space_group_symop_operation_xyz
x,y,z
-x,-y,z
1/2-x,y,1/2+z
1/2+x,-y,1/2+z
x,1/2+y,1/2+z
-x,1/2-y,1/2+z
1/2-x,1/2+y,z
1/2+x,1/2-y,z
loop_
_atom_site_type_symbol
_atom_site_label
_atom_site_fract_x
_atom_site_fract_y
_atom_site_fract_z
Si Si1 0.882767 0.657074 0.566790
Si Si2 0.423282 0.596776 0.311212
Si Si3 0.655797 0.999132 0.368577
Si Si4 0.916410 0.905451 0.173362
Si Si5 0.366906 0.145652 0.469376
Si Si6 0.094326 0.412151 0.040191
Si Si7 0.646894 0.665787 0.406762
Si Si8 0.681289 0.347538 0.587112
O O1 0.761577 0.580859 0.559909
O O2 0.787056 0.742675 0.582987
O O3 0.989340 0.644697 0.622904
O O4 0.980972 0.664475 0.505490
O O5 0.500000 0.500000 0.311168
O O6 0.265713 0.566655 0.333770
O O7 0.418517 0.632063 0.242008
O O8 0.515803 0.657575 0.357696
O O9 0.625441 0.943625 0.430276
O O10 0.500000 0.000000 0.335756
O O11 0.727253 0.097069 0.381624
O O12 0.756264 0.898803 0.143089
O O13 0.000000 0.000000 0.176478
O O14 0.324274 0.231495 0.427178
O O15 0.249377 0.124938 0.521888
O O16 0.000000 0.500000 0.041212
O O17 0.992695 0.352471 0.083801
O O18 0.097823 0.376247 0.971225
#
# Coordination Sequence:
#
# PCOD9367179 Si02
#       8
#     8   8   8   8   8   8   8   8
#     4  11  22  40  61  93 130 167 209 266 325 390
#     4   9  21  43  64  84 122 174 219 264 316 382
#     4  11  24  38  64  99 130 164 216 266 326 398
#     4  10  22  43  66  84 121 177 224 261 318 384
#     4  11  23  39  65  94 135 170 206 261 338 394
#     4  12  21  33  60  95 125 158 205 261 326 381
#     4  11  21  41  63  92 131 171 209 263 326 393
#     4  11  21  39  59  91 130 160 206 267 319 381
#
# _framework density 21.234864999999999
#
# number of rings (size 3 to 8) (size 9 to 14) (size 15 to 20)
#    0.000    1.250    2.500    4.875    0.000    3.000 
#    2.250    4.375    2.750    0.000    0.000    0.000 
#    0.000    0.000    0.000    0.000    0.000    0.000 
#
# Total GULP energy -178428.721299 kJ/mol
# GULP energy per Si atom -5575.897541 kJ/mol
# Density = 2.118653 g / cm^3
# Si number density = 21.234865 Si / 1000 Ang^3
#
#
#
# Elastic Constant Matrix: (Units=GPa)
#
#
# Indices 1 2 3 4 5 6 
#
# 1 140.6246 21.8415 41.7893 0.0000 0.0000 0.0000
# 2 21.8415 72.3906 6.0344 0.0000 0.0000 0.0000
# 3 41.7893 6.0344 104.5319 0.0000 0.0000 0.0000
# 4 0.0000 0.0000 0.0000 9.0715 0.0000 0.0000
# 5 0.0000 0.0000 0.0000 0.0000 9.4889 0.0000
# 6 0.0000 0.0000 0.0000 0.0000 0.0000 23.2342
#
#
#
# Elastic Compliance Matrix: (Units=1/GPa)
#
#
# Indices 1 2 3 4 5 6 
#
# 1 0.008426 -0.002272 -0.003237 0.000000 0.000000 0.000000
# 2 -0.002272 0.014494 0.000072 0.000000 0.000000 0.000000
# 3 -0.003237 0.000072 0.010857 0.000000 0.000000 0.000000
# 4 0.000000 0.000000 0.000000 0.110235 0.000000 0.000000
# 5 0.000000 0.000000 0.000000 0.000000 0.105386 0.000000
# 6 0.000000 0.000000 0.000000 0.000000 0.000000 0.043040
#
#
# Mechanical properties :
#
#
# Convention : Reuss Voigt Hill
#
# Bulk Modulus (GPa) = 43.66774 50.76414 47.21594
# Shear Modulus (GPa) = 16.07991 24.88439 20.48215
#
# Velocity S-wave (km/s) = 2.75479 3.42696 3.10909
# Velocity P-wave (km/s) = 5.54322 6.29418 5.93060
#
# Compressibility (1/GPa) = 0.02290020
#
# Stress axis : x y z
#
# Youngs Moduli (GPa) = 118.67843 68.99595 92.11037
#
# Poissons Ratio (x) = 0.15679 0.29820
# Poissons Ratio (y) = 0.26969 -0.00661
# Poissons Ratio (z) = 0.38421 -0.00495
#
# Static dielectric constant tensor:
#      x y z
#    x 1.913190 0.000000 0.000000 
#    y 0.000000 1.865450 0.000000 
#    z 0.000000 0.000000 1.742760 
# 
# From -- ./inp_files/12044.got.cif
#   From: 2010.05.17/outbox.cif.g08.bks.cpg/sg41_7_cif.got.tgz:12044.got - 2010.06.03 18:54:24.
