data_PCOD9367814
_publ_section_title
;
Structure prediction by ZEFSAII (Michael W. Deem and Ramdas Pophale) SiO2 
 PCOD9367814
Probable space group: A B A 2
;
_chemical_formula_sum "Si O2"
_cell_formula_units_Z 52
_cell_length_a 26.627756
_cell_length_b 7.566879
_cell_length_c 12.644736
_cell_angle_alpha 90.000000
_cell_angle_beta 90.000000
_cell_angle_gamma 90.000000
_cell_volume 2547.775309
_symmetry_space_group_name_H-M "A B A 2"
_symmetry_group_IT_number 41
_symmetry_cell_setting 'orthorhombic'
loop_
_space_group_symop_operation_xyz
x,y,z
-x,-y,z
1/2-x,y,1/2+z
1/2+x,-y,1/2+z
x,1/2+y,1/2+z
-x,1/2-y,1/2+z
1/2-x,1/2+y,z
1/2+x,1/2-y,z
loop_
_atom_site_type_symbol
_atom_site_label
_atom_site_fract_x
_atom_site_fract_y
_atom_site_fract_z
Si Si1 0.575942 0.173337 0.493510
Si Si2 0.155765 0.133632 0.988863
Si Si3 0.581486 0.765413 0.753391
Si Si4 0.688232 0.944636 0.713959
Si Si5 0.500000 0.000000 0.638099
Si Si6 0.871674 0.011932 0.594360
Si Si7 0.201258 0.648058 0.261327
O O1 0.566569 0.208741 0.370544
O O2 0.607877 0.334855 0.541396
O O3 0.607735 0.992491 0.501838
O O4 0.526564 0.143164 0.562688
O O5 0.179319 0.098181 0.875315
O O6 0.191057 0.084713 0.087638
O O7 0.141488 0.338153 0.008234
O O8 0.637341 0.851305 0.752900
O O9 0.542103 0.905622 0.708387
O O10 0.587659 0.600505 0.673385
O O11 0.738879 0.867983 0.763125
O O12 0.686025 0.150997 0.738309
O O13 0.823725 0.968489 0.668558
#
# Coordination Sequence:
#
# PCOD9367814 Si02
#       7
#     8   8   8   8   4   8   8
#     4  12  25  46  74  98 141 180 230 292 349 403
#     4  11  24  45  69 102 141 179 233 278 342 414
#     4  11  25  47  70 104 138 181 237 289 348 416
#     4  11  24  45  68 104 144 179 235 282 339 426
#     4  12  26  48  70 104 136 182 240 294 340 424
#     4  11  23  45  72 104 141 181 228 288 342 416
#     4  12  24  42  72 104 142 187 222 283 350 411
#
# _framework density 20.409963000000001
#
# number of rings (size 3 to 8) (size 9 to 14) (size 15 to 20)
#    0.000    0.615    6.154    2.769    0.000    6.769 
#    2.769    0.000    0.000    0.000    0.000    0.000 
#    0.000    0.000    0.000    0.000    0.000    0.000 
#
# Total GULP energy -145444.917763 kJ/mol
# GULP energy per Si atom -5594.035299 kJ/mol
# Density = 2.036351 g / cm^3
# Si number density = 20.409963 Si / 1000 Ang^3
#
#
#
# Elastic Constant Matrix: (Units=GPa)
#
#
# Indices 1 2 3 4 5 6 
#
# 1 88.3123 24.6655 34.6409 0.0000 0.0000 0.0000
# 2 24.6655 76.1687 12.9248 0.0000 0.0000 0.0000
# 3 34.6409 12.9248 87.1578 0.0000 0.0000 0.0000
# 4 0.0000 0.0000 0.0000 24.7973 0.0000 0.0000
# 5 0.0000 0.0000 0.0000 0.0000 19.5042 0.0000
# 6 0.0000 0.0000 0.0000 0.0000 0.0000 17.5941
#
#
#
# Elastic Compliance Matrix: (Units=1/GPa)
#
#
# Indices 1 2 3 4 5 6 
#
# 1 0.014408 -0.003789 -0.005164 0.000000 0.000000 0.000000
# 2 -0.003789 0.014464 -0.000639 0.000000 0.000000 0.000000
# 3 -0.005164 -0.000639 0.013621 0.000000 0.000000 0.000000
# 4 0.000000 0.000000 0.000000 0.040327 0.000000 0.000000
# 5 0.000000 0.000000 0.000000 0.000000 0.051271 0.000000
# 6 0.000000 0.000000 0.000000 0.000000 0.000000 0.056837
#
#
# Mechanical properties :
#
#
# Convention : Reuss Voigt Hill
#
# Bulk Modulus (GPa) = 42.90459 44.01124 43.45791
# Shear Modulus (GPa) = 22.94823 24.33963 23.64393
#
# Velocity S-wave (km/s) = 3.35679 3.45706 3.40729
# Velocity P-wave (km/s) = 6.00759 6.12743 6.06781
#
# Compressibility (1/GPa) = 0.02330753
#
# Stress axis : x y z
#
# Youngs Moduli (GPa) = 69.40822 69.13613 73.41731
#
# Poissons Ratio (x) = 0.26197 0.37915
# Poissons Ratio (y) = 0.26300 0.04691
# Poissons Ratio (z) = 0.35845 0.04417
#
# Static dielectric constant tensor:
#      x y z
#    x 1.702060 0.000000 0.000000 
#    y 0.000000 1.730080 0.000000 
#    z 0.000000 0.000000 1.710090 
# 
# From -- ./inp_files/6551.got.cif
#   From: 2010.05.17/outbox.cif.g08.bks.cpg/sg41_4_cif.got.tgz:6551.got - 2010.06.03 18:54:24.
