data_PCOD9367280
_publ_section_title
;
Structure prediction by ZEFSAII (Michael W. Deem and Ramdas Pophale) SiO2 
 PCOD9367280
Probable space group: A B A 2
;
_chemical_formula_sum "Si O2"
_cell_formula_units_Z 32
_cell_length_a 6.733309
_cell_length_b 11.813078
_cell_length_c 14.579488
_cell_angle_alpha 90.000000
_cell_angle_beta 90.000000
_cell_angle_gamma 90.000000
_cell_volume 1159.668577
_symmetry_space_group_name_H-M "A B A 2"
_symmetry_group_IT_number 41
_symmetry_cell_setting 'orthorhombic'
loop_
_space_group_symop_operation_xyz
x,y,z
-x,-y,z
1/2-x,y,1/2+z
1/2+x,-y,1/2+z
x,1/2+y,1/2+z
-x,1/2-y,1/2+z
1/2-x,1/2+y,z
1/2+x,1/2-y,z
loop_
_atom_site_type_symbol
_atom_site_label
_atom_site_fract_x
_atom_site_fract_y
_atom_site_fract_z
Si Si1 0.359486 0.889860 0.730270
Si Si2 0.014370 0.155986 0.831629
Si Si3 0.959348 0.659186 0.528855
Si Si4 0.355818 0.602858 0.468228
O O1 0.440732 0.779748 0.787051
O O2 0.353228 0.855788 0.623684
O O3 0.500000 0.000000 0.740739
O O4 0.131231 0.904803 0.760779
O O5 0.228956 0.124629 0.875148
O O6 0.112511 0.870933 0.926232
O O7 0.828501 0.403481 0.538974
O O8 0.983998 0.792026 0.505745
O O9 0.500000 0.500000 0.461575
#
# Coordination Sequence:
#
# PCOD9367280 Si02
#       4
#     8   8   8   8
#     4  12  26  50  90 133 182 236 302 378 458 540
#     4  10  23  52  80 133 183 236 302 372 444 558
#     4  10  23  47  82 138 181 224 310 372 444 550
#     4  10  22  47  88 128 182 240 292 376 463 526
#
# _framework density 27.594090999999999
#
# number of rings (size 3 to 8) (size 9 to 14) (size 15 to 20)
#    1.500    0.000    2.500    1.500    0.000    5.000 
#    0.000    8.750    0.000    0.000    6.500    0.000 
#    0.000    0.000    0.000    0.000    0.000    0.000 
#
# Total GULP energy -89308.203027 kJ/mol
# GULP energy per Si atom -5581.762689 kJ/mol
# Density = 2.753129 g / cm^3
# Si number density = 27.594091 Si / 1000 Ang^3
#
#
#
# Elastic Constant Matrix: (Units=GPa)
#
#
# Indices 1 2 3 4 5 6 
#
# 1 188.9748 97.8340 110.3974 0.0000 0.0000 0.0000
# 2 97.8340 209.8609 94.5892 0.0000 0.0000 0.0000
# 3 110.3974 94.5892 223.4185 0.0000 0.0000 0.0000
# 4 0.0000 0.0000 0.0000 35.3837 0.0000 0.0000
# 5 0.0000 0.0000 0.0000 0.0000 44.7291 0.0000
# 6 0.0000 0.0000 0.0000 0.0000 0.0000 57.0990
#
#
#
# Elastic Compliance Matrix: (Units=1/GPa)
#
#
# Indices 1 2 3 4 5 6 
#
# 1 0.008400 -0.002527 -0.003081 0.000000 0.000000 0.000000
# 2 -0.002527 0.006649 -0.001566 0.000000 0.000000 0.000000
# 3 -0.003081 -0.001566 0.006661 0.000000 0.000000 0.000000
# 4 0.000000 0.000000 0.000000 0.028262 0.000000 0.000000
# 5 0.000000 0.000000 0.000000 0.000000 0.022357 0.000000
# 6 0.000000 0.000000 0.000000 0.000000 0.000000 0.017513
#
#
# Mechanical properties :
#
#
# Convention : Reuss Voigt Hill
#
# Bulk Modulus (GPa) = 135.83526 136.43282 136.13404
# Shear Modulus (GPa) = 46.88480 48.73794 47.81137
#
# Velocity S-wave (km/s) = 4.12647 4.20723 4.16705
# Velocity P-wave (km/s) = 8.48745 8.55285 8.52021
#
# Compressibility (1/GPa) = 0.00736186
#
# Stress axis : x y z
#
# Youngs Moduli (GPa) = 119.05059 150.39320 150.12307
#
# Poissons Ratio (x) = 0.38010 0.46246
# Poissons Ratio (y) = 0.30089 0.23513
# Poissons Ratio (z) = 0.36674 0.23555
#
# Static dielectric constant tensor:
#      x y z
#    x 2.242470 0.000000 0.000000 
#    y 0.000000 2.426310 0.000000 
#    z 0.000000 0.000000 2.089580 
# 
# From -- ./inp_files/7658.got.cif
#   From: 2010.05.17/outbox.cif.g08.bks.cpg/sg41_4_cif.got.tgz:7658.got - 2010.06.03 18:54:24.
