data_PCOD9367478
_publ_section_title
;
Structure prediction by ZEFSAII (Michael W. Deem and Ramdas Pophale) SiO2 
 PCOD9367478
Probable space group: A B A 2
;
_chemical_formula_sum "Si O2"
_cell_formula_units_Z 64
_cell_length_a 33.228895
_cell_length_b 10.530657
_cell_length_c 9.187286
_cell_angle_alpha 90.000000
_cell_angle_beta 90.000000
_cell_angle_gamma 90.000000
_cell_volume 3214.834371
_symmetry_space_group_name_H-M "A B A 2"
_symmetry_group_IT_number 41
_symmetry_cell_setting 'orthorhombic'
loop_
_space_group_symop_operation_xyz
x,y,z
-x,-y,z
1/2-x,y,1/2+z
1/2+x,-y,1/2+z
x,1/2+y,1/2+z
-x,1/2-y,1/2+z
1/2-x,1/2+y,z
1/2+x,1/2-y,z
loop_
_atom_site_type_symbol
_atom_site_label
_atom_site_fract_x
_atom_site_fract_y
_atom_site_fract_z
Si Si1 0.578171 0.766864 0.959700
Si Si2 0.509128 0.138337 0.276749
Si Si3 0.457743 0.964823 0.974828
Si Si4 0.790258 0.592768 0.261454
Si Si5 0.577330 0.228559 0.769649
Si Si6 0.837391 0.334359 0.265721
Si Si7 0.834245 0.323115 0.915814
Si Si8 0.204464 0.407530 0.911840
O O1 0.542890 0.711810 0.863729
O O2 0.619897 0.787210 0.878337
O O3 0.564075 0.905035 0.016485
O O4 0.583801 0.683171 0.104052
O O5 0.467029 0.210836 0.277345
O O6 0.500000 0.000000 0.341845
O O7 0.526819 0.111673 0.115634
O O8 0.426297 0.885564 0.882102
O O9 0.500000 0.000000 0.894615
O O10 0.818935 0.472496 0.298466
O O11 0.806514 0.722258 0.333366
O O12 0.746424 0.569963 0.329160
O O13 0.788941 0.602835 0.085973
O O14 0.614991 0.320698 0.799441
O O15 0.815294 0.221491 0.351781
O O16 0.831170 0.311806 0.092027
O O17 0.822897 0.468368 0.882235
#
# Coordination Sequence:
#
# PCOD9367478 Si02
#       8
#     8   8   8   8   8   8   8   8
#     4  11  23  41  60  89 125 164 209 257 307 364
#     4  11  22  38  62  86 122 167 208 257 308 360
#     4  11  21  40  60  84 121 164 210 258 307 360
#     4  11  24  42  69  95 125 163 207 253 313 381
#     4  11  21  40  61  88 124 163 207 256 306 360
#     4  10  24  41  63  94 130 163 206 261 311 368
#     4  10  24  41  64  94 128 164 208 259 310 371
#     4  11  23  44  67  95 127 164 204 253 317 380
#
# _framework density 19.907713999999999
#
# number of rings (size 3 to 8) (size 9 to 14) (size 15 to 20)
#    0.000    1.250    3.750    2.250    1.750    6.500 
#    2.250    0.000    0.000    0.000    0.000    0.000 
#    0.000    0.000    0.000    0.000    0.000    0.000 
#
# Total GULP energy -178671.830686 kJ/mol
# GULP energy per Si atom -5583.494709 kJ/mol
# Density = 1.986240 g / cm^3
# Si number density = 19.907714 Si / 1000 Ang^3
#
#
#
# Elastic Constant Matrix: (Units=GPa)
#
#
# Indices 1 2 3 4 5 6 
#
# 1 81.3858 -2.5336 11.3623 0.0000 0.0000 0.0000
# 2 -2.5336 71.9890 31.5221 0.0000 0.0000 0.0000
# 3 11.3623 31.5221 42.4507 0.0000 0.0000 0.0000
# 4 0.0000 0.0000 0.0000 23.3783 0.0000 0.0000
# 5 0.0000 0.0000 0.0000 0.0000 28.0747 0.0000
# 6 0.0000 0.0000 0.0000 0.0000 0.0000 29.6296
#
#
#
# Elastic Compliance Matrix: (Units=1/GPa)
#
#
# Indices 1 2 3 4 5 6 
#
# 1 0.013181 0.002976 -0.005738 0.000000 0.000000 0.000000
# 2 0.002976 0.021256 -0.016580 0.000000 0.000000 0.000000
# 3 -0.005738 -0.016580 0.037404 0.000000 0.000000 0.000000
# 4 0.000000 0.000000 0.000000 0.042775 0.000000 0.000000
# 5 0.000000 0.000000 0.000000 0.000000 0.035619 0.000000
# 6 0.000000 0.000000 0.000000 0.000000 0.000000 0.033750
#
#
# Mechanical properties :
#
#
# Convention : Reuss Voigt Hill
#
# Bulk Modulus (GPa) = 30.15945 30.72524 30.44235
# Shear Modulus (GPa) = 21.39296 26.58150 23.98723
#
# Velocity S-wave (km/s) = 3.28168 3.65805 3.47496
# Velocity P-wave (km/s) = 5.43523 5.77141 5.60584
#
# Compressibility (1/GPa) = 0.03315710
#
# Stress axis : x y z
#
# Youngs Moduli (GPa) = 75.86724 47.04585 26.73479
#
# Poissons Ratio (x) = -0.14003 0.15341
# Poissons Ratio (y) = -0.22582 0.44327
# Poissons Ratio (z) = 0.43534 0.78004
#
# Static dielectric constant tensor:
#      x y z
#    x 1.713400 0.000000 0.000000 
#    y 0.000000 1.710480 0.000000 
#    z 0.000000 0.000000 1.696320 
# 
# From -- ./inp_files/3994.got.cif
#   From: 2010.05.17/outbox.cif.g08.bks.cpg/sg41_2_cif.got.tgz:3994.got - 2010.06.03 18:54:24.
