data_PCOD9367724
_publ_section_title
;
Structure prediction by ZEFSAII (Michael W. Deem and Ramdas Pophale) SiO2 
 PCOD9367724
Probable space group: A B A 2
;
_chemical_formula_sum "Si O2"
_cell_formula_units_Z 48
_cell_length_a 7.873821
_cell_length_b 22.979670
_cell_length_c 11.803023
_cell_angle_alpha 90.000000
_cell_angle_beta 90.000000
_cell_angle_gamma 90.000000
_cell_volume 2135.613112
_symmetry_space_group_name_H-M "A B A 2"
_symmetry_group_IT_number 41
_symmetry_cell_setting 'orthorhombic'
loop_
_space_group_symop_operation_xyz
x,y,z
-x,-y,z
1/2-x,y,1/2+z
1/2+x,-y,1/2+z
x,1/2+y,1/2+z
-x,1/2-y,1/2+z
1/2-x,1/2+y,z
1/2+x,1/2-y,z
loop_
_atom_site_type_symbol
_atom_site_label
_atom_site_fract_x
_atom_site_fract_y
_atom_site_fract_z
Si Si1 0.605285 0.195935 0.002060
Si Si2 0.016053 0.323916 0.549607
Si Si3 0.955023 0.829672 0.738700
Si Si4 0.350878 0.048686 0.553223
Si Si5 0.926067 0.791545 0.282308
Si Si6 0.646881 0.952932 0.296671
O O1 0.594605 0.267015 0.012994
O O2 0.798486 0.176424 0.995330
O O3 0.517536 0.167949 0.110766
O O4 0.491650 0.179988 0.895584
O O5 0.923491 0.385483 0.546917
O O6 0.049600 0.309878 0.681557
O O7 0.760652 0.809472 0.747600
O O8 0.951848 0.891377 0.796863
O O9 0.063412 0.777759 0.791641
O O10 0.270040 0.040326 0.424355
O O11 0.252114 0.045274 0.676181
O O12 0.500000 0.000000 0.559205
O O13 0.500000 0.000000 0.288117
#
# Coordination Sequence:
#
# PCOD9367724 Si02
#       6
#     8   8   8   8   8   8
#     4  11  24  39  68 103 143 188 228 291 363 423
#     4  11  23  43  66 105 143 182 238 286 360 433
#     4  11  23  40  67 104 140 184 237 279 362 424
#     4  11  27  51  72 106 141 187 241 301 349 426
#     4  11  22  40  65 103 143 185 224 293 352 429
#     4  11  27  49  76 101 142 190 241 297 354 425
#
# _framework density 22.475981000000001
#
# number of rings (size 3 to 8) (size 9 to 14) (size 15 to 20)
#    0.000    1.000    1.667    6.000    4.667    2.000 
#    3.000    0.000    0.000    0.000    0.000    0.000 
#    0.000    0.000    0.000    0.000    0.000    0.000 
#
# Total GULP energy -133997.765784 kJ/mol
# GULP energy per Si atom -5583.240241 kJ/mol
# Density = 2.242482 g / cm^3
# Si number density = 22.475981 Si / 1000 Ang^3
#
#
#
# Elastic Constant Matrix: (Units=GPa)
#
#
# Indices 1 2 3 4 5 6 
#
# 1 87.0203 16.8397 38.3095 0.0000 0.0000 0.0000
# 2 16.8397 79.0542 -0.8325 0.0000 0.0000 0.0000
# 3 38.3095 -0.8325 210.4343 0.0000 0.0000 0.0000
# 4 0.0000 0.0000 0.0000 -485.4393 0.0000 0.0000
# 5 0.0000 0.0000 0.0000 0.0000 28.6331 0.0000
# 6 0.0000 0.0000 0.0000 0.0000 0.0000 31.6232
#
#
#
# Elastic Compliance Matrix: (Units=1/GPa)
#
#
# Indices 1 2 3 4 5 6 
#
# 1 0.013090 -0.002814 -0.002394 0.000000 0.000000 0.000000
# 2 -0.002814 0.013255 0.000565 0.000000 0.000000 0.000000
# 3 -0.002394 0.000565 0.005190 0.000000 0.000000 0.000000
# 4 0.000000 0.000000 0.000000 -0.002060 0.000000 0.000000
# 5 0.000000 0.000000 0.000000 0.000000 0.034925 0.000000
# 6 0.000000 0.000000 0.000000 0.000000 0.000000 0.031622
#
#
# Mechanical properties :
#
#
# Convention : Reuss Voigt Hill
#
# Bulk Modulus (GPa) = 44.94616 53.90468 49.42542
# Shear Modulus (GPa) = 44.35593 -63.55712 -9.60059
#
# Velocity S-wave (km/s) = 4.44721 -5.32346 -2.06900
# Velocity P-wave (km/s) = 6.81256 3.70814 4.04109
#
# Compressibility (1/GPa) = 0.02224884
#
# Stress axis : x y z
#
# Youngs Moduli (GPa) = 76.39391 75.44414 192.67200
#
# Poissons Ratio (x) = 0.21227 0.46129
# Poissons Ratio (y) = 0.21494 -0.10879
# Poissons Ratio (z) = 0.18290 -0.04260
#
# Static dielectric constant tensor:
#      x y z
#    x 1.811450 0.000000 0.000000 
#    y 0.000000 2.284930 0.000000 
#    z 0.000000 0.000000 1.947510 
# 
# From -- ./inp_files/4500.got.cif
#   From: 2010.05.17/outbox.cif.g08.bks.cpg/sg41_3_cif.got.tgz:4500.got - 2010.06.03 18:54:24.
