data_PCOD9367604
_publ_section_title
;
Structure prediction by ZEFSAII (Michael W. Deem and Ramdas Pophale) SiO2 
 PCOD9367604
Probable space group: A B A 2
;
_chemical_formula_sum "Si O2"
_cell_formula_units_Z 48
_cell_length_a 21.548959
_cell_length_b 12.190526
_cell_length_c 8.069638
_cell_angle_alpha 90.000000
_cell_angle_beta 90.000000
_cell_angle_gamma 90.000000
_cell_volume 2119.838585
_symmetry_space_group_name_H-M "A B A 2"
_symmetry_group_IT_number 41
_symmetry_cell_setting 'orthorhombic'
loop_
_space_group_symop_operation_xyz
x,y,z
-x,-y,z
1/2-x,y,1/2+z
1/2+x,-y,1/2+z
x,1/2+y,1/2+z
-x,1/2-y,1/2+z
1/2-x,1/2+y,z
1/2+x,1/2-y,z
loop_
_atom_site_type_symbol
_atom_site_label
_atom_site_fract_x
_atom_site_fract_y
_atom_site_fract_z
Si Si1 0.031580 0.883662 0.933400
Si Si2 0.527234 0.167159 0.811612
Si Si3 0.225232 0.500469 0.696044
Si Si4 0.436433 0.019779 0.007918
Si Si5 0.669810 0.623616 0.888149
Si Si6 0.681346 0.871400 0.005317
O O1 0.097757 0.889924 0.840610
O O2 0.986773 0.791410 0.857858
O O3 0.044789 0.842956 0.121501
O O4 0.000000 0.000000 0.954686
O O5 0.463721 0.099499 0.860056
O O6 0.575535 0.099462 0.926582
O O7 0.279502 0.417032 0.754941
O O8 0.184233 0.448227 0.552151
O O9 0.260949 0.605988 0.622958
O O10 0.188120 0.543059 0.853673
O O11 0.500000 0.000000 0.110556
O O12 0.381877 0.086804 0.090008
O O13 0.678709 0.749769 0.937821
#
# Coordination Sequence:
#
# PCOD9367604 Si02
#       6
#     8   8   8   8   8   8
#     4  12  23  41  64  95 130 162 205 259 319 379
#     4   9  21  39  60  91 123 163 198 246 316 368
#     4  10  25  38  64  93 116 167 213 251 310 367
#     4   8  17  39  61  84 117 165 190 242 316 354
#     4  11  23  43  63  91 126 162 210 263 307 372
#     4  11  20  43  64  85 128 159 204 260 306 370
#
# _framework density 22.643235000000001
#
# number of rings (size 3 to 8) (size 9 to 14) (size 15 to 20)
#    1.000    0.667    3.333    2.000    0.000    2.667 
#    3.000    6.667    0.000    0.000    0.000    0.000 
#    0.000    0.000    0.000    0.000    0.000    0.000 
#
# Total GULP energy -134024.642271 kJ/mol
# GULP energy per Si atom -5584.360095 kJ/mol
# Density = 2.259170 g / cm^3
# Si number density = 22.643235 Si / 1000 Ang^3
#
#
#
# Elastic Constant Matrix: (Units=GPa)
#
#
# Indices 1 2 3 4 5 6 
#
# 1 63.9723 35.8256 -7.9510 0.0000 0.0000 0.0000
# 2 35.8256 143.6025 -9.1702 0.0000 0.0000 0.0000
# 3 -7.9510 -9.1702 47.3132 0.0000 0.0000 0.0000
# 4 0.0000 0.0000 0.0000 20.2894 0.0000 0.0000
# 5 0.0000 0.0000 0.0000 0.0000 19.0408 0.0000
# 6 0.0000 0.0000 0.0000 0.0000 0.0000 24.3007
#
#
#
# Elastic Compliance Matrix: (Units=1/GPa)
#
#
# Indices 1 2 3 4 5 6 
#
# 1 0.018400 -0.004448 0.002230 0.000000 0.000000 0.000000
# 2 -0.004448 0.008126 0.000828 0.000000 0.000000 0.000000
# 3 0.002230 0.000828 0.021671 0.000000 0.000000 0.000000
# 4 0.000000 0.000000 0.000000 0.049287 0.000000 0.000000
# 5 0.000000 0.000000 0.000000 0.000000 0.052519 0.000000
# 6 0.000000 0.000000 0.000000 0.000000 0.000000 0.041151
#
#
# Mechanical properties :
#
#
# Convention : Reuss Voigt Hill
#
# Bulk Modulus (GPa) = 22.01862 32.47743 27.24802
# Shear Modulus (GPa) = 23.91505 28.47174 26.19340
#
# Velocity S-wave (km/s) = 3.25340 3.54984 3.40485
# Velocity P-wave (km/s) = 4.88447 5.58355 5.24567
#
# Compressibility (1/GPa) = 0.04541610
#
# Stress axis : x y z
#
# Youngs Moduli (GPa) = 54.34823 123.05909 46.14483
#
# Poissons Ratio (x) = 0.54736 -0.10290
# Poissons Ratio (y) = 0.24174 -0.03819
# Poissons Ratio (z) = -0.12120 -0.10184
#
# Static dielectric constant tensor:
#      x y z
#    x 1.936610 0.000000 0.000000 
#    y 0.000000 1.810270 0.000000 
#    z 0.000000 0.000000 1.842110 
# 
# From -- ./inp_files/3617.got.cif
#   From: 2010.05.17/outbox.cif.g08.bks.cpg/sg41_2_cif.got.tgz:3617.got - 2010.06.03 18:54:24.
