data_PCOD9367302
_publ_section_title
;
Structure prediction by ZEFSAII (Michael W. Deem and Ramdas Pophale) SiO2 
 PCOD9367302
Probable space group: A B A 2
;
_chemical_formula_sum "Si O2"
_cell_formula_units_Z 48
_cell_length_a 19.199016
_cell_length_b 10.838993
_cell_length_c 9.689750
_cell_angle_alpha 90.000000
_cell_angle_beta 90.000000
_cell_angle_gamma 90.000000
_cell_volume 2016.417596
_symmetry_space_group_name_H-M "A B A 2"
_symmetry_group_IT_number 41
_symmetry_cell_setting 'orthorhombic'
loop_
_space_group_symop_operation_xyz
x,y,z
-x,-y,z
1/2-x,y,1/2+z
1/2+x,-y,1/2+z
x,1/2+y,1/2+z
-x,1/2-y,1/2+z
1/2-x,1/2+y,z
1/2+x,1/2-y,z
loop_
_atom_site_type_symbol
_atom_site_label
_atom_site_fract_x
_atom_site_fract_y
_atom_site_fract_z
Si Si1 0.733377 0.832239 0.823900
Si Si2 0.562719 0.679297 0.298026
Si Si3 0.377223 0.822820 0.204120
Si Si4 0.475397 0.692055 0.550620
Si Si5 0.303896 0.913142 0.938061
Si Si6 0.624806 0.423715 0.744868
O O1 0.659030 0.799377 0.758383
O O2 0.756500 0.701391 0.888423
O O3 0.797319 0.872803 0.725712
O O4 0.727807 0.952078 0.919815
O O5 0.493423 0.669955 0.391211
O O6 0.555691 0.687794 0.131670
O O7 0.625021 0.593494 0.347690
O O8 0.588951 0.818438 0.337738
O O9 0.450403 0.811866 0.128214
O O10 0.382987 0.940099 0.305947
O O11 0.323444 0.880125 0.093472
O O12 0.422052 0.588389 0.606249
#
# Coordination Sequence:
#
# PCOD9367302 Si02
#       6
#     8   8   8   8   8   8
#     4  11  22  42  64  99 135 177 228 285 350 416
#     4   8  19  39  67  98 131 175 234 284 339 416
#     4  11  22  39  66  96 133 182 228 284 349 419
#     4   9  19  39  67  96 132 177 232 282 343 410
#     4  10  23  40  66  98 136 177 233 286 349 420
#     4   9  20  38  65  93 134 172 228 280 341 414
#
# _framework density 23.804593000000001
#
# number of rings (size 3 to 8) (size 9 to 14) (size 15 to 20)
#    1.000    1.333    1.667    0.500    2.333    1.333 
#    0.000    2.500   18.333    0.000    0.000    0.000 
#    0.000    0.000    0.000    0.000    0.000    0.000 
#
# Total GULP energy -133632.058824 kJ/mol
# GULP energy per Si atom -5568.002451 kJ/mol
# Density = 2.375041 g / cm^3
# Si number density = 23.804593 Si / 1000 Ang^3
#
#
#
# Elastic Constant Matrix: (Units=GPa)
#
#
# Indices 1 2 3 4 5 6 
#
# 1 67.7394 11.8119 18.3344 0.0000 0.0000 0.0000
# 2 11.8119 101.6670 28.6099 0.0000 0.0000 0.0000
# 3 18.3344 28.6099 39.6254 0.0000 0.0000 0.0000
# 4 0.0000 0.0000 0.0000 25.7311 0.0000 0.0000
# 5 0.0000 0.0000 0.0000 0.0000 24.2964 0.0000
# 6 0.0000 0.0000 0.0000 0.0000 0.0000 15.0323
#
#
#
# Elastic Compliance Matrix: (Units=1/GPa)
#
#
# Indices 1 2 3 4 5 6 
#
# 1 0.016883 0.000297 -0.008026 0.000000 0.000000 0.000000
# 2 0.000297 0.012349 -0.009054 0.000000 0.000000 0.000000
# 3 -0.008026 -0.009054 0.035487 0.000000 0.000000 0.000000
# 4 0.000000 0.000000 0.000000 0.038863 0.000000 0.000000
# 5 0.000000 0.000000 0.000000 0.000000 0.041158 0.000000
# 6 0.000000 0.000000 0.000000 0.000000 0.000000 0.066524
#
#
# Mechanical properties :
#
#
# Convention : Reuss Voigt Hill
#
# Bulk Modulus (GPa) = 32.09908 36.28270 34.19089
# Shear Modulus (GPa) = 19.59134 23.03034 21.31084
#
# Velocity S-wave (km/s) = 2.87192 3.11380 2.99530
# Velocity P-wave (km/s) = 4.95085 5.31062 5.13389
#
# Compressibility (1/GPa) = 0.03115354
#
# Stress axis : x y z
#
# Youngs Moduli (GPa) = 59.23111 80.97611 28.17941
#
# Poissons Ratio (x) = -0.02406 0.22617
# Poissons Ratio (y) = -0.01760 0.25513
# Poissons Ratio (z) = 0.47540 0.73314
#
# Static dielectric constant tensor:
#      x y z
#    x 1.984510 0.000000 0.000000 
#    y 0.000000 1.969780 0.000000 
#    z 0.000000 0.000000 1.978600 
# 
# From -- ./inp_files/6188.got.cif
#   From: 2010.05.17/outbox.cif.g08.bks.cpg/sg41_4_cif.got.tgz:6188.got - 2010.06.03 18:54:24.
