data_PCOD9367752
_publ_section_title
;
Structure prediction by ZEFSAII (Michael W. Deem and Ramdas Pophale) SiO2 
 PCOD9367752
Probable space group: A B A 2
;
_chemical_formula_sum "Si O2"
_cell_formula_units_Z 60
_cell_length_a 11.065634
_cell_length_b 16.415085
_cell_length_c 14.598542
_cell_angle_alpha 90.000000
_cell_angle_beta 90.000000
_cell_angle_gamma 90.000000
_cell_volume 2651.727675
_symmetry_space_group_name_H-M "A B A 2"
_symmetry_group_IT_number 41
_symmetry_cell_setting 'orthorhombic'
loop_
_space_group_symop_operation_xyz
x,y,z
-x,-y,z
1/2-x,y,1/2+z
1/2+x,-y,1/2+z
x,1/2+y,1/2+z
-x,1/2-y,1/2+z
1/2-x,1/2+y,z
1/2+x,1/2-y,z
loop_
_atom_site_type_symbol
_atom_site_label
_atom_site_fract_x
_atom_site_fract_y
_atom_site_fract_z
Si Si1 0.863009 0.415445 0.459140
Si Si2 0.000000 0.500000 0.991020
Si Si3 0.592194 0.122238 0.878460
Si Si4 0.588098 0.813241 0.744789
Si Si5 0.441668 0.327666 0.061803
Si Si6 0.260074 0.523815 0.288078
Si Si7 0.785598 0.751888 0.419748
Si Si8 0.259343 0.957440 0.095179
O O1 0.843435 0.455660 0.360686
O O2 0.787074 0.332406 0.446768
O O3 0.813937 0.474031 0.538605
O O4 0.994201 0.389392 0.491397
O O5 0.112373 0.463929 0.045271
O O6 0.977606 0.418169 0.931207
O O7 0.536958 0.176817 0.799230
O O8 0.693043 0.175999 0.928038
O O9 0.655046 0.042490 0.836925
O O10 0.539880 0.801552 0.640009
O O11 0.663150 0.897816 0.753163
O O12 0.664588 0.754939 0.814271
O O13 0.326005 0.377548 0.100270
O O14 0.390809 0.258260 0.995090
O O15 0.212165 0.482868 0.197521
#
# Coordination Sequence:
#
# PCOD9367752 Si02
#       8
#     8   4   8   8   8   8   8   8
#     4  11  24  44  71 101 144 177 242 311 359 439
#     4  12  22  42  70 104 142 186 246 314 356 438
#     4  12  21  43  75  96 140 196 245 295 366 443
#     4  11  23  42  74  99 139 190 242 298 363 452
#     4  12  24  45  75 105 143 197 246 302 376 452
#     4  11  22  44  70 103 132 186 247 297 360 429
#     4  11  26  45  65 108 150 190 237 300 385 445
#     4  12  24  44  72 104 134 189 247 298 365 441
#
# _framework density 22.626757000000001
#
# number of rings (size 3 to 8) (size 9 to 14) (size 15 to 20)
#    0.000    0.533    6.667    2.000    0.000    1.067 
#    7.200    0.000    0.000    0.000    0.000    0.000 
#    0.000    0.000    0.000    0.000    0.000    0.000 
#
# Total GULP energy -167351.043249 kJ/mol
# GULP energy per Si atom -5578.368108 kJ/mol
# Density = 2.257526 g / cm^3
# Si number density = 22.626757 Si / 1000 Ang^3
#
#
#
# Elastic Constant Matrix: (Units=GPa)
#
#
# Indices 1 2 3 4 5 6 
#
# 1 64.4422 14.1929 19.3731 0.0000 0.0000 0.0000
# 2 14.1929 62.7654 24.6093 0.0000 0.0000 0.0000
# 3 19.3731 24.6093 107.0743 0.0000 0.0000 0.0000
# 4 0.0000 0.0000 0.0000 20.2400 0.0000 0.0000
# 5 0.0000 0.0000 0.0000 0.0000 18.2722 0.0000
# 6 0.0000 0.0000 0.0000 0.0000 0.0000 25.6504
#
#
#
# Elastic Compliance Matrix: (Units=1/GPa)
#
#
# Indices 1 2 3 4 5 6 
#
# 1 0.016870 -0.002877 -0.002391 0.000000 0.000000 0.000000
# 2 -0.002877 0.018001 -0.003617 0.000000 0.000000 0.000000
# 3 -0.002391 -0.003617 0.010603 0.000000 0.000000 0.000000
# 4 0.000000 0.000000 0.000000 0.049407 0.000000 0.000000
# 5 0.000000 0.000000 0.000000 0.000000 0.054728 0.000000
# 6 0.000000 0.000000 0.000000 0.000000 0.000000 0.038986
#
#
# Mechanical properties :
#
#
# Convention : Reuss Voigt Hill
#
# Bulk Modulus (GPa) = 36.09532 38.95916 37.52724
# Shear Modulus (GPa) = 23.19108 24.57295 23.88201
#
# Velocity S-wave (km/s) = 3.20494 3.29905 3.25233
# Velocity P-wave (km/s) = 5.44818 5.63624 5.54301
#
# Compressibility (1/GPa) = 0.02770442
#
# Stress axis : x y z
#
# Youngs Moduli (GPa) = 59.27568 55.55240 94.31154
#
# Poissons Ratio (x) = 0.15984 0.22551
# Poissons Ratio (y) = 0.17056 0.34109
# Poissons Ratio (z) = 0.14173 0.20091
#
# Static dielectric constant tensor:
#      x y z
#    x 1.864090 0.000000 0.000000 
#    y 0.000000 1.848990 0.000000 
#    z 0.000000 0.000000 1.945890 
# 
# From -- ./inp_files/8076.got.cif
#   From: 2010.05.17/outbox.cif.g08.bks.cpg/sg41_5_cif.got.tgz:8076.got - 2010.06.03 18:54:24.
