data_PCOD9367778
_publ_section_title
;
Structure prediction by ZEFSAII (Michael W. Deem and Ramdas Pophale) SiO2 
 PCOD9367778
Probable space group: A B A 2
;
_chemical_formula_sum "Si O2"
_cell_formula_units_Z 40
_cell_length_a 11.525149
_cell_length_b 7.389917
_cell_length_c 17.912918
_cell_angle_alpha 90.000000
_cell_angle_beta 90.000000
_cell_angle_gamma 90.000000
_cell_volume 1525.641337
_symmetry_space_group_name_H-M "A B A 2"
_symmetry_group_IT_number 41
_symmetry_cell_setting 'orthorhombic'
loop_
_space_group_symop_operation_xyz
x,y,z
-x,-y,z
1/2-x,y,1/2+z
1/2+x,-y,1/2+z
x,1/2+y,1/2+z
-x,1/2-y,1/2+z
1/2-x,1/2+y,z
1/2+x,1/2-y,z
loop_
_atom_site_type_symbol
_atom_site_label
_atom_site_fract_x
_atom_site_fract_y
_atom_site_fract_z
Si Si1 0.628379 0.476991 0.156430
Si Si2 0.151026 0.940643 0.317478
Si Si3 0.542914 0.705478 0.461238
Si Si4 0.407835 0.356704 0.848650
Si Si5 0.121678 0.890232 0.615147
O O1 0.500000 0.500000 0.120448
O O2 0.625139 0.600185 0.231177
O O3 0.629417 0.264945 0.177046
O O4 0.753754 0.511116 0.118014
O O5 0.114736 0.805581 0.384276
O O6 0.287264 0.944897 0.328246
O O7 0.098816 0.142021 0.329550
O O8 0.500000 0.500000 0.470505
O O9 0.437056 0.835985 0.438311
O O10 0.613119 0.723936 0.537249
O O11 0.500000 0.500000 0.816839
O O12 0.000000 0.000000 0.623792
#
# Coordination Sequence:
#
# PCOD9367778 Si02
#       5
#     8   8   8   8   8
#     4  12  26  44  70 105 148 195 246 310 383 460
#     4  11  24  42  68 102 137 184 245 304 373 450
#     4   9  22  45  69  97 134 180 241 307 369 441
#     4  11  23  40  67 101 140 183 238 309 376 442
#     4  11  26  47  71 103 147 200 255 312 382 461
#
# _framework density 26.218482999999999
#
# number of rings (size 3 to 8) (size 9 to 14) (size 15 to 20)
#    0.000    1.200    0.000    5.400    0.000   13.600 
#    0.000    0.000    0.000    0.000    0.000    0.000 
#    0.000    0.000    0.000    0.000    0.000    0.000 
#
# Total GULP energy -111466.743946 kJ/mol
# GULP energy per Si atom -5573.337197 kJ/mol
# Density = 2.615881 g / cm^3
# Si number density = 26.218483 Si / 1000 Ang^3
#
#
#
# Elastic Constant Matrix: (Units=GPa)
#
#
# Indices 1 2 3 4 5 6 
#
# 1 232.1831 32.2305 48.9149 0.0000 0.0000 0.0000
# 2 32.2305 80.6941 11.6090 0.0000 0.0000 0.0000
# 3 48.9149 11.6090 123.7388 0.0000 0.0000 0.0000
# 4 0.0000 0.0000 0.0000 18.6159 0.0000 0.0000
# 5 0.0000 0.0000 0.0000 0.0000 32.7696 0.0000
# 6 0.0000 0.0000 0.0000 0.0000 0.0000 52.0101
#
#
#
# Elastic Compliance Matrix: (Units=1/GPa)
#
#
# Indices 1 2 3 4 5 6 
#
# 1 0.004920 -0.001708 -0.001785 0.000000 0.000000 0.000000
# 2 -0.001708 0.013155 -0.000559 0.000000 0.000000 0.000000
# 3 -0.001785 -0.000559 0.008839 0.000000 0.000000 0.000000
# 4 0.000000 0.000000 0.000000 0.053718 0.000000 0.000000
# 5 0.000000 0.000000 0.000000 0.000000 0.030516 0.000000
# 6 0.000000 0.000000 0.000000 0.000000 0.000000 0.019227
#
#
# Mechanical properties :
#
#
# Convention : Reuss Voigt Hill
#
# Bulk Modulus (GPa) = 53.16057 69.12496 61.14276
# Shear Modulus (GPa) = 34.54240 43.60322 39.07281
#
# Velocity S-wave (km/s) = 3.63365 4.08250 3.86460
# Velocity P-wave (km/s) = 6.15829 6.97457 6.57910
#
# Compressibility (1/GPa) = 0.01881093
#
# Stress axis : x y z
#
# Youngs Moduli (GPa) = 203.24869 76.01528 113.12901
#
# Poissons Ratio (x) = 0.12987 0.20190
# Poissons Ratio (y) = 0.34723 0.06322
# Poissons Ratio (z) = 0.36273 0.04248
#
# Static dielectric constant tensor:
#      x y z
#    x 2.288910 0.000000 0.000000 
#    y 0.000000 2.120740 0.000000 
#    z 0.000000 0.000000 2.158510 
# 
# From -- ./inp_files/9897.got.cif
#   From: 2010.05.17/outbox.cif.g08.bks.cpg/sg41_5_cif.got.tgz:9897.got - 2010.06.03 18:54:24.
