data_PCOD9367279
_publ_section_title
;
Structure prediction by ZEFSAII (Michael W. Deem and Ramdas Pophale) SiO2 
 PCOD9367279
Probable space group: A B A 2
;
_chemical_formula_sum "Si O2"
_cell_formula_units_Z 32
_cell_length_a 9.369835
_cell_length_b 10.537566
_cell_length_c 14.137450
_cell_angle_alpha 90.000000
_cell_angle_beta 90.000000
_cell_angle_gamma 90.000000
_cell_volume 1395.864727
_symmetry_space_group_name_H-M "A B A 2"
_symmetry_group_IT_number 41
_symmetry_cell_setting 'orthorhombic'
loop_
_space_group_symop_operation_xyz
x,y,z
-x,-y,z
1/2-x,y,1/2+z
1/2+x,-y,1/2+z
x,1/2+y,1/2+z
-x,1/2-y,1/2+z
1/2-x,1/2+y,z
1/2+x,1/2-y,z
loop_
_atom_site_type_symbol
_atom_site_label
_atom_site_fract_x
_atom_site_fract_y
_atom_site_fract_z
Si Si1 0.463061 0.852137 0.736160
Si Si2 0.722560 0.769190 0.851404
Si Si3 0.288647 0.303304 0.052316
Si Si4 0.657202 0.941768 0.494294
O O1 0.607439 0.786207 0.770595
O O2 0.346152 0.825196 0.818096
O O3 0.389058 0.797634 0.642476
O O4 0.500000 0.000000 0.724557
O O5 0.796177 0.899542 0.888871
O O6 0.645065 0.723617 0.947719
O O7 0.175342 0.189005 0.052488
O O8 0.241835 0.449769 0.040013
O O9 0.500000 0.000000 0.499786
#
# Coordination Sequence:
#
# PCOD9367279 Si02
#       4
#     8   8   8   8
#     4  12  26  45  79 114 159 207 271 330 411 485
#     4  10  26  46  76 117 155 208 262 338 401 489
#     4  10  25  44  79 110 160 203 256 340 395 486
#     4  10  22  47  79 111 160 206 264 331 413 476
#
# _framework density 22.924856999999999
#
# number of rings (size 3 to 8) (size 9 to 14) (size 15 to 20)
#    1.500    0.000    0.000    3.750    7.000    0.000 
#    0.000    1.250    0.000    0.000    0.000    0.000 
#    0.000    0.000    0.000    0.000    0.000    0.000 
#
# Total GULP energy -89198.904939 kJ/mol
# GULP energy per Si atom -5574.931559 kJ/mol
# Density = 2.287268 g / cm^3
# Si number density = 22.924857 Si / 1000 Ang^3
#
#
#
# Elastic Constant Matrix: (Units=GPa)
#
#
# Indices 1 2 3 4 5 6 
#
# 1 121.4798 70.7310 59.7981 0.0000 0.0000 0.0000
# 2 70.7310 147.7829 31.7728 0.0000 0.0000 0.0000
# 3 59.7981 31.7728 136.6483 0.0000 0.0000 0.0000
# 4 0.0000 0.0000 0.0000 27.6789 0.0000 0.0000
# 5 0.0000 0.0000 0.0000 0.0000 36.3484 0.0000
# 6 0.0000 0.0000 0.0000 0.0000 0.0000 46.0669
#
#
#
# Elastic Compliance Matrix: (Units=1/GPa)
#
#
# Indices 1 2 3 4 5 6 
#
# 1 0.013829 -0.005598 -0.004750 0.000000 0.000000 0.000000
# 2 -0.005598 0.009388 0.000267 0.000000 0.000000 0.000000
# 3 -0.004750 0.000267 0.009335 0.000000 0.000000 0.000000
# 4 0.000000 0.000000 0.000000 0.036129 0.000000 0.000000
# 5 0.000000 0.000000 0.000000 0.000000 0.027512 0.000000
# 6 0.000000 0.000000 0.000000 0.000000 0.000000 0.021708
#
#
# Mechanical properties :
#
#
# Convention : Reuss Voigt Hill
#
# Bulk Modulus (GPa) = 80.71011 81.16829 80.93920
# Shear Modulus (GPa) = 35.16351 38.25944 36.71148
#
# Velocity S-wave (km/s) = 3.92070 4.08966 4.00607
# Velocity P-wave (km/s) = 7.46851 7.60155 7.53532
#
# Compressibility (1/GPa) = 0.01239002
#
# Stress axis : x y z
#
# Youngs Moduli (GPa) = 72.31019 106.51363 107.12594
#
# Poissons Ratio (x) = 0.59622 0.50888
# Poissons Ratio (y) = 0.40476 -0.02856
# Poissons Ratio (z) = 0.34349 -0.02840
#
# Static dielectric constant tensor:
#      x y z
#    x 1.895360 0.000000 0.000000 
#    y 0.000000 1.948350 0.000000 
#    z 0.000000 0.000000 1.906510 
# 
# From -- ./inp_files/7081.got.cif
#   From: 2010.05.17/outbox.cif.g08.bks.cpg/sg41_4_cif.got.tgz:7081.got - 2010.06.03 18:54:24.
