data_PCOD9367105
_publ_section_title
;
Structure prediction by ZEFSAII (Michael W. Deem and Ramdas Pophale) SiO2 
 PCOD9367105
Probable space group: A B A 2
;
_chemical_formula_sum "Si O2"
_cell_formula_units_Z 56
_cell_length_a 19.168060
_cell_length_b 13.252167
_cell_length_c 8.631339
_cell_angle_alpha 90.000000
_cell_angle_beta 90.000000
_cell_angle_gamma 90.000000
_cell_volume 2192.518337
_symmetry_space_group_name_H-M "A B A 2"
_symmetry_group_IT_number 41
_symmetry_cell_setting 'orthorhombic'
loop_
_space_group_symop_operation_xyz
x,y,z
-x,-y,z
1/2-x,y,1/2+z
1/2+x,-y,1/2+z
x,1/2+y,1/2+z
-x,1/2-y,1/2+z
1/2-x,1/2+y,z
1/2+x,1/2-y,z
loop_
_atom_site_type_symbol
_atom_site_label
_atom_site_fract_x
_atom_site_fract_y
_atom_site_fract_z
Si Si1 0.967914 0.799088 0.050640
Si Si2 0.715563 0.433804 0.253205
Si Si3 0.607272 0.979231 0.987485
Si Si4 0.819687 0.817182 0.953912
Si Si5 0.209403 0.870118 0.668323
Si Si6 0.000000 0.500000 0.233235
Si Si7 0.084544 0.322373 0.342149
Si Si8 0.500000 0.500000 0.235992
O O1 0.902602 0.799780 0.931192
O O2 0.942083 0.725583 0.183287
O O3 0.976159 0.906345 0.134705
O O4 0.042160 0.769869 0.978057
O O5 0.658910 0.410566 0.386984
O O6 0.781631 0.365483 0.305548
O O7 0.687438 0.401269 0.087577
O O8 0.731940 0.553699 0.234525
O O9 0.561856 0.032243 0.852751
O O10 0.552201 0.942539 0.115320
O O11 0.657622 0.053467 0.079975
O O12 0.784806 0.720824 0.043544
O O13 0.166579 0.829241 0.817874
O O14 0.950278 0.567228 0.338279
#
# Coordination Sequence:
#
# PCOD9367105 Si02
#       8
#     8   8   8   8   8   4   8   4
#     4  11  25  42  67 103 133 171 227 277 340 401
#     4  12  24  45  67  95 133 185 219 280 332 407
#     4  10  22  41  67  95 133 172 218 274 339 393
#     4  11  27  43  69  98 138 177 230 277 337 412
#     4  10  25  46  66 100 139 173 232 277 339 409
#     4   9  21  40  68  92 130 172 212 278 336 392
#     4  10  24  42  68  97 135 174 218 282 336 398
#     4  11  23  40  70  96 138 170 218 280 332 404
#
# _framework density 25.541405000000001
#
# number of rings (size 3 to 8) (size 9 to 14) (size 15 to 20)
#    0.000    1.429    2.857    0.429   16.000    0.000 
#    0.000    1.429    0.000    0.000    0.000    0.000 
#    0.000    0.000    0.000    0.000    0.000    0.000 
#
# Total GULP energy -156449.930073 kJ/mol
# GULP energy per Si atom -5587.497503 kJ/mol
# Density = 2.548327 g / cm^3
# Si number density = 25.541405 Si / 1000 Ang^3
#
#
#
# Elastic Constant Matrix: (Units=GPa)
#
#
# Indices 1 2 3 4 5 6 
#
# 1 76.4880 10.2735 24.8506 0.0000 0.0000 0.0000
# 2 10.2735 59.9506 -4.0769 0.0000 0.0000 0.0000
# 3 24.8506 -4.0769 57.7558 0.0000 0.0000 0.0000
# 4 0.0000 0.0000 0.0000 32.3223 0.0000 0.0000
# 5 0.0000 0.0000 0.0000 0.0000 36.5253 0.0000
# 6 0.0000 0.0000 0.0000 0.0000 0.0000 13.0447
#
#
#
# Elastic Compliance Matrix: (Units=1/GPa)
#
#
# Indices 1 2 3 4 5 6 
#
# 1 0.015780 -0.003181 -0.007014 0.000000 0.000000 0.000000
# 2 -0.003181 0.017402 0.002597 0.000000 0.000000 0.000000
# 3 -0.007014 0.002597 0.020516 0.000000 0.000000 0.000000
# 4 0.000000 0.000000 0.000000 0.030938 0.000000 0.000000
# 5 0.000000 0.000000 0.000000 0.000000 0.027378 0.000000
# 6 0.000000 0.000000 0.000000 0.000000 0.000000 0.076659
#
#
# Mechanical properties :
#
#
# Convention : Reuss Voigt Hill
#
# Bulk Modulus (GPa) = 25.97313 28.47654 27.22483
# Shear Modulus (GPa) = 23.07291 27.25495 25.16393
#
# Velocity S-wave (km/s) = 3.00884 3.27018 3.14223
# Velocity P-wave (km/s) = 4.71826 5.04303 4.88334
#
# Compressibility (1/GPa) = 0.03850133
#
# Stress axis : x y z
#
# Youngs Moduli (GPa) = 63.37086 57.46411 48.74332
#
# Poissons Ratio (x) = 0.18280 0.34190
# Poissons Ratio (y) = 0.20159 -0.12659
# Poissons Ratio (z) = 0.44450 -0.14924
#
# Static dielectric constant tensor:
#      x y z
#    x 2.121270 0.000000 0.000000 
#    y 0.000000 2.119040 0.000000 
#    z 0.000000 0.000000 1.982260 
# 
# From -- ./inp_files/3453.got.cif
#   From: 2010.05.17/outbox.cif.g08.bks.cpg/sg41_2_cif.got.tgz:3453.got - 2010.06.03 18:54:24.
