data_PCOD9367936
_publ_section_title
;
Structure prediction by ZEFSAII (Michael W. Deem and Ramdas Pophale) SiO2 
 PCOD9367936
Probable space group: A B A 2
;
_chemical_formula_sum "Si O2"
_cell_formula_units_Z 40
_cell_length_a 9.565901
_cell_length_b 9.131579
_cell_length_c 19.646638
_cell_angle_alpha 90.000000
_cell_angle_beta 90.000000
_cell_angle_gamma 90.000000
_cell_volume 1716.168814
_symmetry_space_group_name_H-M "A B A 2"
_symmetry_group_IT_number 41
_symmetry_cell_setting 'orthorhombic'
loop_
_space_group_symop_operation_xyz
x,y,z
-x,-y,z
1/2-x,y,1/2+z
1/2+x,-y,1/2+z
x,1/2+y,1/2+z
-x,1/2-y,1/2+z
1/2-x,1/2+y,z
1/2+x,1/2-y,z
loop_
_atom_site_type_symbol
_atom_site_label
_atom_site_fract_x
_atom_site_fract_y
_atom_site_fract_z
Si Si1 0.843787 0.061549 0.651260
Si Si2 0.119265 0.620782 0.594649
Si Si3 0.997039 0.326923 0.449944
Si Si4 0.750728 0.708863 0.868570
Si Si5 0.162950 0.541631 0.780767
O O1 0.852419 0.237048 0.641607
O O2 0.750324 0.010600 0.715538
O O3 0.759782 0.977377 0.590554
O O4 0.000000 0.000000 0.657295
O O5 0.063491 0.693626 0.524991
O O6 0.000000 0.500000 0.614445
O O7 0.900992 0.262614 0.391326
O O8 0.000000 0.500000 0.441636
O O9 0.150926 0.270571 0.433321
O O10 0.772113 0.543388 0.845375
O O11 0.688321 0.792257 0.803232
O O12 0.000000 0.500000 0.773654
#
# Coordination Sequence:
#
# PCOD9367936 Si02
#       5
#     8   8   8   8   8
#     4  12  28  47  78 107 150 204 263 325 387 461
#     4  11  27  51  74 112 154 201 256 317 393 471
#     4  11  26  45  74 109 153 191 249 309 381 467
#     4  12  25  45  73 108 146 193 244 309 383 452
#     4  12  27  47  72 107 148 194 249 315 383 456
#
# _framework density 23.307729999999999
#
# number of rings (size 3 to 8) (size 9 to 14) (size 15 to 20)
#    0.000    0.400    4.000    3.000   11.200    3.200 
#    0.000    0.000    0.000    0.000    0.000    0.000 
#    0.000    0.000    0.000    0.000    0.000    0.000 
#
# Total GULP energy -111802.737456 kJ/mol
# GULP energy per Si atom -5590.136873 kJ/mol
# Density = 2.325468 g / cm^3
# Si number density = 23.307730 Si / 1000 Ang^3
#
#
#
# Elastic Constant Matrix: (Units=GPa)
#
#
# Indices 1 2 3 4 5 6 
#
# 1 154.8926 27.4176 22.1287 0.0000 0.0000 0.0000
# 2 27.4176 111.9883 5.8686 0.0000 0.0000 0.0000
# 3 22.1287 5.8686 86.5635 0.0000 0.0000 0.0000
# 4 0.0000 0.0000 0.0000 21.2542 0.0000 0.0000
# 5 0.0000 0.0000 0.0000 0.0000 43.0717 0.0000
# 6 0.0000 0.0000 0.0000 0.0000 0.0000 26.1654
#
#
#
# Elastic Compliance Matrix: (Units=1/GPa)
#
#
# Indices 1 2 3 4 5 6 
#
# 1 0.006982 -0.001622 -0.001675 0.000000 0.000000 0.000000
# 2 -0.001622 0.009338 -0.000219 0.000000 0.000000 0.000000
# 3 -0.001675 -0.000219 0.011995 0.000000 0.000000 0.000000
# 4 0.000000 0.000000 0.000000 0.047050 0.000000 0.000000
# 5 0.000000 0.000000 0.000000 0.000000 0.023217 0.000000
# 6 0.000000 0.000000 0.000000 0.000000 0.000000 0.038218
#
#
# Mechanical properties :
#
#
# Convention : Reuss Voigt Hill
#
# Bulk Modulus (GPa) = 46.98100 51.58602 49.28351
# Shear Modulus (GPa) = 33.12877 37.96690 35.54784
#
# Velocity S-wave (km/s) = 3.77419 4.04039 3.90956
# Velocity P-wave (km/s) = 6.26045 6.62925 6.44749
#
# Compressibility (1/GPa) = 0.02128520
#
# Stress axis : x y z
#
# Youngs Moduli (GPa) = 143.21633 107.08946 83.36651
#
# Poissons Ratio (x) = 0.17367 0.13964
# Poissons Ratio (y) = 0.23225 0.01822
# Poissons Ratio (z) = 0.23989 0.02340
#
# Static dielectric constant tensor:
#      x y z
#    x 1.827430 0.000000 0.000000 
#    y 0.000000 1.851950 0.000000 
#    z 0.000000 0.000000 1.963550 
# 
# From -- ./inp_files/11922.got.cif
#   From: 2010.05.17/outbox.cif.g08.bks.cpg/sg41_6_cif.got.tgz:11922.got - 2010.06.03 18:54:24.
