data_PCOD9367224
_publ_section_title
;
Structure prediction by ZEFSAII (Michael W. Deem and Ramdas Pophale) SiO2 
 PCOD9367224
Probable space group: A B A 2
;
_chemical_formula_sum "Si O2"
_cell_formula_units_Z 36
_cell_length_a 16.799330
_cell_length_b 12.304036
_cell_length_c 7.817959
_cell_angle_alpha 90.000000
_cell_angle_beta 90.000000
_cell_angle_gamma 90.000000
_cell_volume 1615.968694
_symmetry_space_group_name_H-M "A B A 2"
_symmetry_group_IT_number 41
_symmetry_cell_setting 'orthorhombic'
loop_
_space_group_symop_operation_xyz
x,y,z
-x,-y,z
1/2-x,y,1/2+z
1/2+x,-y,1/2+z
x,1/2+y,1/2+z
-x,1/2-y,1/2+z
1/2-x,1/2+y,z
1/2+x,1/2-y,z
loop_
_atom_site_type_symbol
_atom_site_label
_atom_site_fract_x
_atom_site_fract_y
_atom_site_fract_z
Si Si1 0.401331 0.316731 0.824800
Si Si2 0.958852 0.847791 0.082780
Si Si3 0.500000 0.500000 0.375915
Si Si4 0.177768 0.040279 0.892566
Si Si5 0.652337 0.896104 0.027477
O O1 0.425908 0.268854 0.641019
O O2 0.344394 0.419931 0.829687
O O3 0.362784 0.216896 0.929936
O O4 0.482218 0.346855 0.924128
O O5 0.005276 0.898148 0.245238
O O6 0.883552 0.923395 0.039786
O O7 0.576765 0.472463 0.487940
O O8 0.267091 0.051172 0.956733
O O9 0.162556 0.117765 0.729864
#
# Coordination Sequence:
#
# PCOD9367224 Si02
#       5
#     8   8   4   8   8
#     4  11  25  44  73 105 138 192 227 295 351 422
#     4  11  23  44  72 105 141 181 243 278 356 421
#     4  10  22  44  70 100 142 178 228 294 332 428
#     4  12  26  48  70 103 147 183 232 306 343 417
#     4  11  27  45  69 106 139 183 241 279 360 418
#
# _framework density 22.277659
#
# number of rings (size 3 to 8) (size 9 to 14) (size 15 to 20)
#    0.000    0.889    2.222    4.000    9.333    3.556 
#    0.000    0.000    0.000    0.000    0.000    0.000 
#    0.000    0.000    0.000    0.000    0.000    0.000 
#
# Total GULP energy -100768.224075 kJ/mol
# GULP energy per Si atom -5598.234671 kJ/mol
# Density = 2.222695 g / cm^3
# Si number density = 22.277659 Si / 1000 Ang^3
#
#
#
# Elastic Constant Matrix: (Units=GPa)
#
#
# Indices 1 2 3 4 5 6 
#
# 1 141.6067 24.5141 11.6962 0.0000 0.0000 0.0000
# 2 24.5141 61.8541 -24.3318 0.0000 0.0000 0.0000
# 3 11.6962 -24.3318 51.0054 0.0000 0.0000 0.0000
# 4 0.0000 0.0000 0.0000 36.0152 0.0000 0.0000
# 5 0.0000 0.0000 0.0000 0.0000 26.1720 0.0000
# 6 0.0000 0.0000 0.0000 0.0000 0.0000 19.8310
#
#
#
# Elastic Compliance Matrix: (Units=1/GPa)
#
#
# Indices 1 2 3 4 5 6 
#
# 1 0.008271 -0.004954 -0.004260 0.000000 0.000000 0.000000
# 2 -0.004954 0.022869 0.012045 0.000000 0.000000 0.000000
# 3 -0.004260 0.012045 0.026329 0.000000 0.000000 0.000000
# 4 0.000000 0.000000 0.000000 0.027766 0.000000 0.000000
# 5 0.000000 0.000000 0.000000 0.000000 0.038209 0.000000
# 6 0.000000 0.000000 0.000000 0.000000 0.000000 0.050426
#
#
# Mechanical properties :
#
#
# Convention : Reuss Voigt Hill
#
# Bulk Modulus (GPa) = 15.83985 30.91370 23.37677
# Shear Modulus (GPa) = 26.42002 32.57613 29.49808
#
# Velocity S-wave (km/s) = 3.44749 3.82812 3.64278
# Velocity P-wave (km/s) = 4.79297 5.78326 5.31124
#
# Compressibility (1/GPa) = 0.06313193
#
# Stress axis : x y z
#
# Youngs Moduli (GPa) = 120.90087 43.72790 37.98134
#
# Poissons Ratio (x) = 0.21662 0.16180
# Poissons Ratio (y) = 0.59892 -0.45750
# Poissons Ratio (z) = 0.51502 -0.52672
#
# Static dielectric constant tensor:
#      x y z
#    x 1.779840 0.000000 0.000000 
#    y 0.000000 1.838550 0.000000 
#    z 0.000000 0.000000 1.832120 
# 
# From -- ./inp_files/2371.got.cif
#   From: 2010.05.17/outbox.cif.g08.bks.cpg/sg41_2_cif.got.tgz:2371.got - 2010.06.03 18:54:24.
