data_PCOD9367935
_publ_section_title
;
Structure prediction by ZEFSAII (Michael W. Deem and Ramdas Pophale) SiO2 
 PCOD9367935
Probable space group: A B A 2
;
_chemical_formula_sum "Si O2"
_cell_formula_units_Z 40
_cell_length_a 9.232878
_cell_length_b 9.591635
_cell_length_c 19.740158
_cell_angle_alpha 90.000000
_cell_angle_beta 90.000000
_cell_angle_gamma 90.000000
_cell_volume 1748.156725
_symmetry_space_group_name_H-M "A B A 2"
_symmetry_group_IT_number 41
_symmetry_cell_setting 'orthorhombic'
loop_
_space_group_symop_operation_xyz
x,y,z
-x,-y,z
1/2-x,y,1/2+z
1/2+x,-y,1/2+z
x,1/2+y,1/2+z
-x,1/2-y,1/2+z
1/2-x,1/2+y,z
1/2+x,1/2-y,z
loop_
_atom_site_type_symbol
_atom_site_label
_atom_site_fract_x
_atom_site_fract_y
_atom_site_fract_z
Si Si1 0.431241 0.652305 0.702540
Si Si2 0.689772 0.246285 0.421285
Si Si3 0.386307 0.120612 0.643769
Si Si4 0.438106 0.343723 0.334473
Si Si5 0.333862 0.009771 0.494980
O O1 0.500000 0.500000 0.711146
O O2 0.520330 0.737078 0.644774
O O3 0.259975 0.638354 0.687202
O O4 0.454009 0.749704 0.767996
O O5 0.529008 0.274244 0.395467
O O6 0.773742 0.171792 0.359639
O O7 0.749467 0.395342 0.442632
O O8 0.715635 0.148712 0.486362
O O9 0.332878 0.071065 0.569962
O O10 0.500000 0.000000 0.666205
O O11 0.500000 0.500000 0.325233
O O12 0.500000 0.000000 0.473536
#
# Coordination Sequence:
#
# PCOD9367935 Si02
#       5
#     8   8   8   8   8
#     4  12  28  47  78 107 149 202 257 318 376 447
#     4  12  25  45  73 108 146 193 241 304 378 444
#     4  11  27  51  74 112 151 196 253 310 385 457
#     4  12  27  47  72 107 148 193 246 308 372 447
#     4  11  26  45  74 109 153 189 246 305 376 458
#
# _framework density 22.881242
#
# number of rings (size 3 to 8) (size 9 to 14) (size 15 to 20)
#    0.000    0.400    4.000    3.000   11.200    3.200 
#    0.000    0.000    0.000    0.000    0.000    0.000 
#    0.000    0.000    0.000    0.000    0.000    0.000 
#
# Total GULP energy -111833.037325 kJ/mol
# GULP energy per Si atom -5591.651866 kJ/mol
# Density = 2.282916 g / cm^3
# Si number density = 22.881242 Si / 1000 Ang^3
#
#
#
# Elastic Constant Matrix: (Units=GPa)
#
#
# Indices 1 2 3 4 5 6 
#
# 1 104.0562 29.1005 3.5067 0.0000 0.0000 0.0000
# 2 29.1005 166.1106 37.2509 0.0000 0.0000 0.0000
# 3 3.5067 37.2509 77.1793 0.0000 0.0000 0.0000
# 4 0.0000 0.0000 0.0000 28.8841 0.0000 0.0000
# 5 0.0000 0.0000 0.0000 0.0000 31.0026 0.0000
# 6 0.0000 0.0000 0.0000 0.0000 0.0000 35.6456
#
#
#
# Elastic Compliance Matrix: (Units=1/GPa)
#
#
# Indices 1 2 3 4 5 6 
#
# 1 0.010119 -0.001872 0.000444 0.000000 0.000000 0.000000
# 2 -0.001872 0.007097 -0.003340 0.000000 0.000000 0.000000
# 3 0.000444 -0.003340 0.014549 0.000000 0.000000 0.000000
# 4 0.000000 0.000000 0.000000 0.034621 0.000000 0.000000
# 5 0.000000 0.000000 0.000000 0.000000 0.032255 0.000000
# 6 0.000000 0.000000 0.000000 0.000000 0.000000 0.028054
#
#
# Mechanical properties :
#
#
# Convention : Reuss Voigt Hill
#
# Bulk Modulus (GPa) = 44.98951 54.11803 49.55377
# Shear Modulus (GPa) = 34.80876 37.60567 36.20722
#
# Velocity S-wave (km/s) = 3.90459 4.05843 3.98225
# Velocity P-wave (km/s) = 6.32713 6.75753 6.54587
#
# Compressibility (1/GPa) = 0.02222741
#
# Stress axis : x y z
#
# Youngs Moduli (GPa) = 98.82576 140.90109 68.73357
#
# Poissons Ratio (x) = 0.26380 -0.03051
# Poissons Ratio (y) = 0.18502 0.22960
# Poissons Ratio (z) = -0.04387 0.47067
#
# Static dielectric constant tensor:
#      x y z
#    x 1.847460 0.000000 0.000000 
#    y 0.000000 1.867050 0.000000 
#    z 0.000000 0.000000 1.865500 
# 
# From -- ./inp_files/11921.got.cif
#   From: 2010.05.17/outbox.cif.g08.bks.cpg/sg41_6_cif.got.tgz:11921.got - 2010.06.03 18:54:24.
