data_PCOD9367344
_publ_section_title
;
Structure prediction by ZEFSAII (Michael W. Deem and Ramdas Pophale) SiO2 
 PCOD9367344
Probable space group: A B A 2
;
_chemical_formula_sum "Si O2"
_cell_formula_units_Z 56
_cell_length_a 12.099471
_cell_length_b 14.286803
_cell_length_c 14.946396
_cell_angle_alpha 90.000000
_cell_angle_beta 90.000000
_cell_angle_gamma 90.000000
_cell_volume 2583.675243
_symmetry_space_group_name_H-M "A B A 2"
_symmetry_group_IT_number 41
_symmetry_cell_setting 'orthorhombic'
loop_
_space_group_symop_operation_xyz
x,y,z
-x,-y,z
1/2-x,y,1/2+z
1/2+x,-y,1/2+z
x,1/2+y,1/2+z
-x,1/2-y,1/2+z
1/2-x,1/2+y,z
1/2+x,1/2-y,z
loop_
_atom_site_type_symbol
_atom_site_label
_atom_site_fract_x
_atom_site_fract_y
_atom_site_fract_z
Si Si1 0.918998 0.909377 0.655990
Si Si2 0.972974 0.610332 0.977257
Si Si3 0.307113 0.658681 0.167903
Si Si4 0.638231 0.278491 0.361280
Si Si5 0.499668 0.889631 0.541457
Si Si6 0.741976 0.195322 0.525056
Si Si7 0.508474 0.887071 0.345197
O O1 0.786967 0.919161 0.644950
O O2 0.965914 0.856831 0.569172
O O3 0.930930 0.861734 0.752965
O O4 0.000000 0.000000 0.659057
O O5 0.000000 0.500000 0.966007
O O6 0.029584 0.667141 0.897082
O O7 0.844261 0.630994 0.993650
O O8 0.317878 0.671880 0.273371
O O9 0.425388 0.641761 0.123185
O O10 0.267657 0.752168 0.117266
O O11 0.719668 0.269496 0.445175
O O12 0.604992 0.171351 0.337899
O O13 0.373563 0.857037 0.539227
O O14 0.550371 0.860834 0.444441
O O15 0.500000 0.000000 0.544079
O O16 0.500000 0.000000 0.346279
#
# Coordination Sequence:
#
# PCOD9367344 Si02
#       7
#     8   8   8   8   8   8   8
#     4  10  23  42  68 102 136 189 236 285 352 427
#     4  11  25  46  72 103 144 185 239 291 355 436
#     4  12  26  42  71 101 144 184 235 302 351 423
#     4  11  25  43  68 106 139 186 237 301 355 417
#     4  10  25  44  68 101 136 180 234 291 355 414
#     4  11  24  45  71  99 136 187 235 290 357 424
#     4   9  20  42  68  98 136 181 238 282 350 432
#
# _framework density 21.674548999999999
#
# number of rings (size 3 to 8) (size 9 to 14) (size 15 to 20)
#    0.000    1.429    1.429    2.571   10.000    0.571 
#   10.286    0.000    0.000    0.000    0.000    0.000 
#    0.000    0.000    0.000    0.000    0.000    0.000 
#
# Total GULP energy -156181.175170 kJ/mol
# GULP energy per Si atom -5577.899113 kJ/mol
# Density = 2.162522 g / cm^3
# Si number density = 21.674549 Si / 1000 Ang^3
#
#
#
# Elastic Constant Matrix: (Units=GPa)
#
#
# Indices 1 2 3 4 5 6 
#
# 1 173.2352 53.2821 53.3100 0.0000 0.0000 0.0000
# 2 53.2821 81.4965 13.6039 0.0000 0.0000 0.0000
# 3 53.3100 13.6039 134.6959 0.0000 0.0000 0.0000
# 4 0.0000 0.0000 0.0000 15.8016 0.0000 0.0000
# 5 0.0000 0.0000 0.0000 0.0000 27.8730 0.0000
# 6 0.0000 0.0000 0.0000 0.0000 0.0000 34.7637
#
#
#
# Elastic Compliance Matrix: (Units=1/GPa)
#
#
# Indices 1 2 3 4 5 6 
#
# 1 0.008097 -0.004840 -0.002716 0.000000 0.000000 0.000000
# 2 -0.004840 0.015375 0.000363 0.000000 0.000000 0.000000
# 3 -0.002716 0.000363 0.008462 0.000000 0.000000 0.000000
# 4 0.000000 0.000000 0.000000 0.063285 0.000000 0.000000
# 5 0.000000 0.000000 0.000000 0.000000 0.035877 0.000000
# 6 0.000000 0.000000 0.000000 0.000000 0.000000 0.028766
#
#
# Mechanical properties :
#
#
# Convention : Reuss Voigt Hill
#
# Bulk Modulus (GPa) = 56.98858 69.97995 63.48427
# Shear Modulus (GPa) = 27.76282 33.63643 30.69963
#
# Velocity S-wave (km/s) = 3.58284 3.94367 3.76758
# Velocity P-wave (km/s) = 6.59285 7.28653 6.94835
#
# Compressibility (1/GPa) = 0.01754737
#
# Stress axis : x y z
#
# Youngs Moduli (GPa) = 123.50233 65.04257 118.17093
#
# Poissons Ratio (x) = 0.31484 0.32092
# Poissons Ratio (y) = 0.59781 -0.04289
# Poissons Ratio (z) = 0.33540 -0.02361
#
# Static dielectric constant tensor:
#      x y z
#    x 1.682510 0.000000 0.000000 
#    y 0.000000 1.834970 0.000000 
#    z 0.000000 0.000000 1.812040 
# 
# From -- ./inp_files/7946.got.cif
#   From: 2010.05.17/outbox.cif.g08.bks.cpg/sg41_4_cif.got.tgz:7946.got - 2010.06.03 18:54:24.
