data_PCOD9367863
_publ_section_title
;
Structure prediction by ZEFSAII (Michael W. Deem and Ramdas Pophale) SiO2 
 PCOD9367863
Probable space group: A B A 2
;
_chemical_formula_sum "Si O2"
_cell_formula_units_Z 48
_cell_length_a 14.177725
_cell_length_b 17.146728
_cell_length_c 8.661790
_cell_angle_alpha 90.000000
_cell_angle_beta 90.000000
_cell_angle_gamma 90.000000
_cell_volume 2105.694958
_symmetry_space_group_name_H-M "A B A 2"
_symmetry_group_IT_number 41
_symmetry_cell_setting 'orthorhombic'
loop_
_space_group_symop_operation_xyz
x,y,z
-x,-y,z
1/2-x,y,1/2+z
1/2+x,-y,1/2+z
x,1/2+y,1/2+z
-x,1/2-y,1/2+z
1/2-x,1/2+y,z
1/2+x,1/2-y,z
loop_
_atom_site_type_symbol
_atom_site_label
_atom_site_fract_x
_atom_site_fract_y
_atom_site_fract_z
Si Si1 0.863038 0.045510 0.606570
Si Si2 0.040443 0.369251 0.570515
Si Si3 0.673435 0.773583 0.066002
Si Si4 0.460670 0.610859 0.731153
Si Si5 0.850156 0.335747 0.723326
Si Si6 0.329992 0.482185 0.245606
O O1 0.765514 0.060451 0.692982
O O2 0.845201 0.027949 0.427680
O O3 0.943435 0.110324 0.630081
O O4 0.905749 0.967943 0.686179
O O5 0.127854 0.310856 0.547771
O O6 0.083362 0.443501 0.656348
O O7 0.993119 0.388889 0.407436
O O8 0.958492 0.329949 0.672627
O O9 0.608816 0.819339 0.189623
O O10 0.780227 0.781929 0.124029
O O11 0.662787 0.815866 0.902081
O O12 0.822482 0.426769 0.701850
#
# Coordination Sequence:
#
# PCOD9367863 Si02
#       6
#     8   8   8   8   8   8
#     4  11  25  41  74 103 144 186 246 305 360 434
#     4  12  29  43  77 108 150 191 250 308 371 445
#     4  12  26  49  71 106 147 200 241 306 379 447
#     4  11  24  45  68 107 145 192 244 302 369 434
#     4  12  25  46  74 102 142 193 246 299 372 447
#     4  12  24  46  72 113 141 193 243 307 365 442
#
# _framework density 22.795324000000001
#
# number of rings (size 3 to 8) (size 9 to 14) (size 15 to 20)
#    0.000    0.333    3.333    4.500    9.333    4.000 
#    0.000    0.000    0.000    0.000    0.000    0.000 
#    0.000    0.000    0.000    0.000    0.000    0.000 
#
# Total GULP energy -134507.809038 kJ/mol
# GULP energy per Si atom -5604.492043 kJ/mol
# Density = 2.274344 g / cm^3
# Si number density = 22.795324 Si / 1000 Ang^3
#
#
#
# Elastic Constant Matrix: (Units=GPa)
#
#
# Indices 1 2 3 4 5 6 
#
# 1 145.0904 27.4713 43.5777 0.0000 0.0000 0.0000
# 2 27.4713 48.4809 21.1354 0.0000 0.0000 0.0000
# 3 43.5777 21.1354 141.1778 0.0000 0.0000 0.0000
# 4 0.0000 0.0000 0.0000 2.3694 0.0000 0.0000
# 5 0.0000 0.0000 0.0000 0.0000 21.1855 0.0000
# 6 0.0000 0.0000 0.0000 0.0000 0.0000 30.5485
#
#
#
# Elastic Compliance Matrix: (Units=1/GPa)
#
#
# Indices 1 2 3 4 5 6 
#
# 1 0.008200 -0.003790 -0.001964 0.000000 0.000000 0.000000
# 2 -0.003790 0.023819 -0.002396 0.000000 0.000000 0.000000
# 3 -0.001964 -0.002396 0.008048 0.000000 0.000000 0.000000
# 4 0.000000 0.000000 0.000000 0.422040 0.000000 0.000000
# 5 0.000000 0.000000 0.000000 0.000000 0.047202 0.000000
# 6 0.000000 0.000000 0.000000 0.000000 0.000000 0.032735
#
#
# Mechanical properties :
#
#
# Convention : Reuss Voigt Hill
#
# Bulk Modulus (GPa) = 42.07494 57.67976 49.87735
# Shear Modulus (GPa) = 8.82978 26.99168 17.91073
#
# Velocity S-wave (km/s) = 1.97026 3.44479 2.80611
# Velocity P-wave (km/s) = 4.86556 6.41719 5.69447
#
# Compressibility (1/GPa) = 0.02376712
#
# Stress axis : x y z
#
# Youngs Moduli (GPa) = 121.95638 41.98346 124.25354
#
# Poissons Ratio (x) = 0.15913 0.24398
# Poissons Ratio (y) = 0.46224 0.29770
# Poissons Ratio (z) = 0.23947 0.10059
#
# Static dielectric constant tensor:
#      x y z
#    x 1.853460 0.000000 0.000000 
#    y 0.000000 1.899590 0.000000 
#    z 0.000000 0.000000 1.781700 
# 
# From -- ./inp_files/2553.got.cif
#   From: 2010.05.17/outbox.cif.g08.bks.cpg/sg41_2_cif.got.tgz:2553.got - 2010.06.03 18:54:24.
