data_PCOD9367893
_publ_section_title
;
Structure prediction by ZEFSAII (Michael W. Deem and Ramdas Pophale) SiO2 
 PCOD9367893
Probable space group: A B A 2
;
_chemical_formula_sum "Si O2"
_cell_formula_units_Z 56
_cell_length_a 13.416675
_cell_length_b 13.057795
_cell_length_c 13.335031
_cell_angle_alpha 90.000000
_cell_angle_beta 90.000000
_cell_angle_gamma 90.000000
_cell_volume 2336.193308
_symmetry_space_group_name_H-M "A B A 2"
_symmetry_group_IT_number 41
_symmetry_cell_setting 'orthorhombic'
loop_
_space_group_symop_operation_xyz
x,y,z
-x,-y,z
1/2-x,y,1/2+z
1/2+x,-y,1/2+z
x,1/2+y,1/2+z
-x,1/2-y,1/2+z
1/2-x,1/2+y,z
1/2+x,1/2-y,z
loop_
_atom_site_type_symbol
_atom_site_label
_atom_site_fract_x
_atom_site_fract_y
_atom_site_fract_z
Si Si1 0.616425 0.825123 0.466280
Si Si2 0.245573 0.866463 0.913362
Si Si3 0.120562 0.372564 0.219894
Si Si4 0.609278 0.897256 0.246190
Si Si5 0.070743 0.900306 0.067100
Si Si6 0.204313 0.173715 0.157735
Si Si7 0.110148 0.992491 0.281105
O O1 0.673377 0.722632 0.431148
O O2 0.690293 0.873958 0.548561
O O3 0.508385 0.816730 0.522076
O O4 0.354048 0.491888 0.707458
O O5 0.166187 0.837915 0.826161
O O6 0.391564 0.606741 0.866436
O O7 0.173553 0.890783 0.006537
O O8 0.161475 0.287186 0.147111
O O9 0.002287 0.372884 0.216871
O O10 0.685004 0.819040 0.197573
O O11 0.689503 0.543503 0.362707
O O12 0.097354 0.914547 0.185338
O O13 0.000000 0.000000 0.046816
O O14 0.143594 0.100979 0.233508
O O15 0.000000 0.000000 0.326131
#
# Coordination Sequence:
#
# PCOD9367893 Si02
#       7
#     8   8   8   8   8   8   8
#     4  12  26  44  75 112 141 203 250 306 376 461
#     4  12  26  42  78 111 148 193 258 314 371 457
#     4  11  25  45  75 104 146 195 244 311 376 451
#     4  11  25  49  72 105 152 195 246 311 385 445
#     4  11  24  50  77 104 152 209 251 302 393 468
#     4  12  26  44  75 110 143 195 258 307 372 449
#     4  11  26  46  76 108 153 198 249 317 384 451
#
# _framework density 23.970618000000002
#
# number of rings (size 3 to 8) (size 9 to 14) (size 15 to 20)
#    0.000    0.571    7.143    0.857    4.000    1.143 
#    0.000    0.000    6.286    0.857    0.000    0.000 
#    0.000    0.000    0.000    0.000    0.000    0.000 
#
# Total GULP energy -156525.578274 kJ/mol
# GULP energy per Si atom -5590.199224 kJ/mol
# Density = 2.391606 g / cm^3
# Si number density = 23.970618 Si / 1000 Ang^3
#
#
#
# Elastic Constant Matrix: (Units=GPa)
#
#
# Indices 1 2 3 4 5 6 
#
# 1 139.0672 49.6169 33.4599 0.0000 0.0000 0.0000
# 2 49.6169 108.2413 13.8882 0.0000 0.0000 0.0000
# 3 33.4599 13.8882 58.6743 0.0000 0.0000 0.0000
# 4 0.0000 0.0000 0.0000 27.1431 0.0000 0.0000
# 5 0.0000 0.0000 0.0000 0.0000 43.8494 0.0000
# 6 0.0000 0.0000 0.0000 0.0000 0.0000 30.9159
#
#
#
# Elastic Compliance Matrix: (Units=1/GPa)
#
#
# Indices 1 2 3 4 5 6 
#
# 1 0.009669 -0.003841 -0.004605 0.000000 0.000000 0.000000
# 2 -0.003841 0.011054 -0.000426 0.000000 0.000000 0.000000
# 3 -0.004605 -0.000426 0.019770 0.000000 0.000000 0.000000
# 4 0.000000 0.000000 0.000000 0.036842 0.000000 0.000000
# 5 0.000000 0.000000 0.000000 0.000000 0.022805 0.000000
# 6 0.000000 0.000000 0.000000 0.000000 0.000000 0.032346
#
#
# Mechanical properties :
#
#
# Convention : Reuss Voigt Hill
#
# Bulk Modulus (GPa) = 43.95760 55.54588 49.75174
# Shear Modulus (GPa) = 31.68294 34.31620 32.99957
#
# Velocity S-wave (km/s) = 3.63952 3.78775 3.71437
# Velocity P-wave (km/s) = 6.00328 6.50785 6.26065
#
# Compressibility (1/GPa) = 0.02274920
#
# Stress axis : x y z
#
# Youngs Moduli (GPa) = 103.42046 90.46370 50.58176
#
# Poissons Ratio (x) = 0.34751 0.23292
# Poissons Ratio (y) = 0.39729 0.02154
# Poissons Ratio (z) = 0.47623 0.03852
#
# Static dielectric constant tensor:
#      x y z
#    x 1.924600 0.000000 0.000000 
#    y 0.000000 2.021230 0.000000 
#    z 0.000000 0.000000 1.918750 
# 
# From -- ./inp_files/8490.got.cif
#   From: 2010.05.17/outbox.cif.g08.bks.cpg/sg41_5_cif.got.tgz:8490.got - 2010.06.03 18:54:24.
