data_PCOD9367785
_publ_section_title
;
Structure prediction by ZEFSAII (Michael W. Deem and Ramdas Pophale) SiO2 
 PCOD9367785
Probable space group: A B A 2
;
_chemical_formula_sum "Si O2"
_cell_formula_units_Z 60
_cell_length_a 17.054645
_cell_length_b 8.370280
_cell_length_c 18.109365
_cell_angle_alpha 90.000000
_cell_angle_beta 90.000000
_cell_angle_gamma 90.000000
_cell_volume 2585.150860
_symmetry_space_group_name_H-M "A B A 2"
_symmetry_group_IT_number 41
_symmetry_cell_setting 'orthorhombic'
loop_
_space_group_symop_operation_xyz
x,y,z
-x,-y,z
1/2-x,y,1/2+z
1/2+x,-y,1/2+z
x,1/2+y,1/2+z
-x,1/2-y,1/2+z
1/2-x,1/2+y,z
1/2+x,1/2-y,z
loop_
_atom_site_type_symbol
_atom_site_label
_atom_site_fract_x
_atom_site_fract_y
_atom_site_fract_z
Si Si1 0.361180 0.698849 0.500000
Si Si2 0.500000 0.000000 0.074691
Si Si3 0.568639 0.604146 0.878661
Si Si4 0.290082 0.016798 0.569237
Si Si5 0.616439 0.233838 0.156940
Si Si6 0.501522 0.663752 0.264039
Si Si7 0.802298 0.008657 0.776109
Si Si8 0.176760 0.333732 0.720995
O O1 0.440523 0.620197 0.532686
O O2 0.387813 0.745641 0.417217
O O3 0.289524 0.581515 0.528229
O O4 0.335810 0.880526 0.523450
O O5 0.557676 0.106241 0.123272
O O6 0.500000 0.500000 0.919390
O O7 0.519961 0.683748 0.811904
O O8 0.639363 0.497753 0.845007
O O9 0.336139 0.178189 0.592371
O O10 0.291925 0.921358 0.647816
O O11 0.563417 0.359213 0.200878
O O12 0.662579 0.144052 0.222082
O O13 0.500000 0.500000 0.309842
O O14 0.584532 0.685688 0.226043
O O15 0.714137 0.069013 0.789772
O O16 0.796446 0.847226 0.730578
#
# Coordination Sequence:
#
# PCOD9367785 Si02
#       8
#     8   4   8   8   8   8   8   8
#     4  12  29  48  73 101 154 209 257 309 372 476
#     4  12  26  42  70 108 140 192 250 312 374 460
#     4  11  27  51  69 100 146 202 261 306 371 466
#     4  12  25  48  70 109 151 196 247 314 399 466
#     4  11  23  41  71 107 145 181 242 315 397 457
#     4  11  23  43  74 110 139 186 238 317 387 454
#     4  11  24  41  69 108 143 190 238 318 392 455
#     4  12  22  41  72 107 147 178 236 321 401 454
#
# _framework density 23.209475000000001
#
# number of rings (size 3 to 8) (size 9 to 14) (size 15 to 20)
#    0.000    0.533    2.667    6.400    6.533    1.067 
#    0.000    0.000    0.000    0.000    0.000    0.000 
#    0.000    0.000    0.000    0.000    0.000    0.000 
#
# Total GULP energy -167183.262245 kJ/mol
# GULP energy per Si atom -5572.775408 kJ/mol
# Density = 2.315665 g / cm^3
# Si number density = 23.209475 Si / 1000 Ang^3
#
#
#
# Elastic Constant Matrix: (Units=GPa)
#
#
# Indices 1 2 3 4 5 6 
#
# 1 105.6229 22.3378 36.0519 0.0000 0.0000 0.0000
# 2 22.3378 105.9144 17.7937 0.0000 0.0000 0.0000
# 3 36.0519 17.7937 45.9873 0.0000 0.0000 0.0000
# 4 0.0000 0.0000 0.0000 24.3248 0.0000 0.0000
# 5 0.0000 0.0000 0.0000 0.0000 9.5745 0.0000
# 6 0.0000 0.0000 0.0000 0.0000 0.0000 43.9399
#
#
#
# Elastic Compliance Matrix: (Units=1/GPa)
#
#
# Indices 1 2 3 4 5 6 
#
# 1 0.013046 -0.001105 -0.009800 0.000000 0.000000 0.000000
# 2 -0.001105 0.010192 -0.003077 0.000000 0.000000 0.000000
# 3 -0.009800 -0.003077 0.030619 0.000000 0.000000 0.000000
# 4 0.000000 0.000000 0.000000 0.041110 0.000000 0.000000
# 5 0.000000 0.000000 0.000000 0.000000 0.104444 0.000000
# 6 0.000000 0.000000 0.000000 0.000000 0.000000 0.022758
#
#
# Mechanical properties :
#
#
# Convention : Reuss Voigt Hill
#
# Bulk Modulus (GPa) = 38.62207 45.54350 42.08278
# Shear Modulus (GPa) = 19.32259 27.65727 23.48993
#
# Velocity S-wave (km/s) = 2.88849 3.45575 3.18478
# Velocity P-wave (km/s) = 5.27269 5.96560 5.62982
#
# Compressibility (1/GPa) = 0.02589193
#
# Stress axis : x y z
#
# Youngs Moduli (GPa) = 76.64945 98.11995 32.65992
#
# Poissons Ratio (x) = 0.10843 0.32007
# Poissons Ratio (y) = 0.08471 0.10050
# Poissons Ratio (z) = 0.75118 0.30192
#
# Static dielectric constant tensor:
#      x y z
#    x 2.002220 0.000000 0.000000 
#    y 0.000000 2.021750 0.000000 
#    z 0.000000 0.000000 1.935320 
# 
# From -- ./inp_files/10598.got.cif
#   From: 2010.05.17/outbox.cif.g08.bks.cpg/sg41_6_cif.got.tgz:10598.got - 2010.06.03 18:54:24.
