data_PCOD9367822
_publ_section_title
;
Structure prediction by ZEFSAII (Michael W. Deem and Ramdas Pophale) SiO2 
 PCOD9367822
Probable space group: A B A 2
;
_chemical_formula_sum "Si O2"
_cell_formula_units_Z 64
_cell_length_a 31.005307
_cell_length_b 8.131367
_cell_length_c 11.337515
_cell_angle_alpha 90.000000
_cell_angle_beta 90.000000
_cell_angle_gamma 90.000000
_cell_volume 2858.363605
_symmetry_space_group_name_H-M "A B A 2"
_symmetry_group_IT_number 41
_symmetry_cell_setting 'orthorhombic'
loop_
_space_group_symop_operation_xyz
x,y,z
-x,-y,z
1/2-x,y,1/2+z
1/2+x,-y,1/2+z
x,1/2+y,1/2+z
-x,1/2-y,1/2+z
1/2-x,1/2+y,z
1/2+x,1/2-y,z
loop_
_atom_site_type_symbol
_atom_site_label
_atom_site_fract_x
_atom_site_fract_y
_atom_site_fract_z
Si Si1 0.517365 0.682643 0.674600
Si Si2 0.764245 0.048399 0.633986
Si Si3 0.182726 0.286119 0.672999
Si Si4 0.678758 0.585329 0.425547
Si Si5 0.477855 0.321335 0.933468
Si Si6 0.118215 0.404494 0.493043
Si Si7 0.886442 0.734240 0.093811
Si Si8 0.179453 0.768712 0.808429
O O1 0.500000 0.500000 0.686228
O O2 0.511192 0.761528 0.805897
O O3 0.494324 0.751931 0.558088
O O4 0.567900 0.680674 0.644175
O O5 0.789491 0.875910 0.642757
O O6 0.782485 0.128656 0.514354
O O7 0.712906 0.058727 0.634471
O O8 0.778748 0.152515 0.748610
O O9 0.175820 0.300068 0.811867
O O10 0.138117 0.303184 0.603186
O O11 0.635657 0.606905 0.503324
O O12 0.685804 0.401065 0.377496
O O13 0.500000 0.500000 0.929305
O O14 0.426114 0.332075 0.943219
O O15 0.109050 0.590301 0.530840
O O16 0.155639 0.393108 0.395977
O O17 0.853484 0.757940 0.201165
#
# Coordination Sequence:
#
# PCOD9367822 Si02
#       8
#     8   8   8   8   8   8   8   8
#     4  11  26  44  70 106 141 186 236 296 358 424
#     4  11  27  44  68  98 141 182 230 288 354 412
#     4  12  26  44  70 105 134 190 234 293 357 427
#     4  11  25  44  69 100 137 180 232 282 348 423
#     4  11  25  47  70 103 144 190 238 296 359 426
#     4  12  24  44  74  99 140 187 236 289 360 420
#     4  11  24  44  70 100 138 182 230 285 355 422
#     4  11  23  46  68  99 140 179 230 291 339 425
#
# _framework density 22.390433999999999
#
# number of rings (size 3 to 8) (size 9 to 14) (size 15 to 20)
#    0.000    0.750    5.000    1.500    5.250    2.500 
#    0.000    0.000    0.000    0.000    0.000    0.000 
#    0.000    0.000    0.000    0.000    0.000    0.000 
#
# Total GULP energy -178949.892693 kJ/mol
# GULP energy per Si atom -5592.184147 kJ/mol
# Density = 2.233947 g / cm^3
# Si number density = 22.390434 Si / 1000 Ang^3
#
#
#
# Elastic Constant Matrix: (Units=GPa)
#
#
# Indices 1 2 3 4 5 6 
#
# 1 74.8008 -1.1609 42.0111 0.0000 0.0000 0.0000
# 2 -1.1609 62.3825 32.1966 0.0000 0.0000 0.0000
# 3 42.0111 32.1966 186.2901 0.0000 0.0000 0.0000
# 4 0.0000 0.0000 0.0000 35.6711 0.0000 0.0000
# 5 0.0000 0.0000 0.0000 0.0000 28.4097 0.0000
# 6 0.0000 0.0000 0.0000 0.0000 0.0000 24.7717
#
#
#
# Elastic Compliance Matrix: (Units=1/GPa)
#
#
# Indices 1 2 3 4 5 6 
#
# 1 0.015606 0.002313 -0.003919 0.000000 0.000000 0.000000
# 2 0.002313 0.017943 -0.003623 0.000000 0.000000 0.000000
# 3 -0.003919 -0.003623 0.006878 0.000000 0.000000 0.000000
# 4 0.000000 0.000000 0.000000 0.028034 0.000000 0.000000
# 5 0.000000 0.000000 0.000000 0.000000 0.035199 0.000000
# 6 0.000000 0.000000 0.000000 0.000000 0.000000 0.040369
#
#
# Mechanical properties :
#
#
# Convention : Reuss Voigt Hill
#
# Bulk Modulus (GPa) = 33.36748 52.17411 42.77079
# Shear Modulus (GPa) = 30.39963 34.46561 32.43262
#
# Velocity S-wave (km/s) = 3.68870 3.92765 3.81005
# Velocity P-wave (km/s) = 5.75126 6.62730 6.20476
#
# Compressibility (1/GPa) = 0.02996930
#
# Stress axis : x y z
#
# Youngs Moduli (GPa) = 64.07843 55.73221 145.39294
#
# Poissons Ratio (x) = -0.12892 0.56981
# Poissons Ratio (y) = -0.14822 0.52672
# Poissons Ratio (z) = 0.25113 0.20190
#
# Static dielectric constant tensor:
#      x y z
#    x 1.780360 0.000000 0.000000 
#    y 0.000000 1.857510 0.000000 
#    z 0.000000 0.000000 1.875930 
# 
# From -- ./inp_files/6685.got.cif
#   From: 2010.05.17/outbox.cif.g08.bks.cpg/sg41_4_cif.got.tgz:6685.got - 2010.06.03 18:54:24.
