data_PCOD9367165
_publ_section_title
;
Structure prediction by ZEFSAII (Michael W. Deem and Ramdas Pophale) SiO2 
 PCOD9367165
Probable space group: A B A 2
;
_chemical_formula_sum "Si O2"
_cell_formula_units_Z 40
_cell_length_a 14.489453
_cell_length_b 10.342323
_cell_length_c 10.723316
_cell_angle_alpha 90.000000
_cell_angle_beta 90.000000
_cell_angle_gamma 90.000000
_cell_volume 1606.938262
_symmetry_space_group_name_H-M "A B A 2"
_symmetry_group_IT_number 41
_symmetry_cell_setting 'orthorhombic'
loop_
_space_group_symop_operation_xyz
x,y,z
-x,-y,z
1/2-x,y,1/2+z
1/2+x,-y,1/2+z
x,1/2+y,1/2+z
-x,1/2-y,1/2+z
1/2-x,1/2+y,z
1/2+x,1/2-y,z
loop_
_atom_site_type_symbol
_atom_site_label
_atom_site_fract_x
_atom_site_fract_y
_atom_site_fract_z
Si Si1 0.219491 0.904235 0.971470
Si Si2 0.884614 0.393942 0.337668
Si Si3 0.500000 0.500000 0.243566
Si Si4 0.819999 0.644398 0.724259
Si Si5 0.000000 0.000000 0.641658
Si Si6 0.451734 0.713138 0.437925
O O1 0.295042 0.901303 0.863079
O O2 0.144554 0.788766 0.951852
O O3 0.171879 0.041577 0.947558
O O4 0.249755 0.887475 0.113511
O O5 0.830205 0.295478 0.249625
O O6 0.917660 0.504411 0.242316
O O7 0.968671 0.314588 0.399272
O O8 0.582915 0.579717 0.180496
O O9 0.449855 0.608159 0.327446
O O10 0.983386 0.873865 0.556655
#
# Coordination Sequence:
#
# PCOD9367165 Si02
#       6
#     8   8   4   8   4   8
#     4  12  26  45  73 108 147 195 246 314 376 445
#     4  11  24  45  71 109 142 196 250 310 379 452
#     4   9  24  47  70 104 144 198 240 310 366 454
#     4  11  28  47  72 108 153 196 254 312 382 449
#     4  11  20  41  78 102 144 190 242 306 372 450
#     4  10  22  42  73 106 142 185 251 307 372 449
#
# _framework density 24.892057000000001
#
# number of rings (size 3 to 8) (size 9 to 14) (size 15 to 20)
#    0.000    1.200    4.000    0.000    5.600    6.400 
#    0.000    0.000    0.000    0.000    0.000    0.000 
#    0.000    0.000    0.000    0.000    0.000    0.000 
#
# Total GULP energy -111786.305815 kJ/mol
# GULP energy per Si atom -5589.315291 kJ/mol
# Density = 2.483540 g / cm^3
# Si number density = 24.892057 Si / 1000 Ang^3
#
#
#
# Elastic Constant Matrix: (Units=GPa)
#
#
# Indices 1 2 3 4 5 6 
#
# 1 55.2032 32.2792 30.2321 0.0000 0.0000 0.0000
# 2 32.2792 98.6329 19.6944 0.0000 0.0000 0.0000
# 3 30.2321 19.6944 135.6893 0.0000 0.0000 0.0000
# 4 0.0000 0.0000 0.0000 23.4351 0.0000 0.0000
# 5 0.0000 0.0000 0.0000 0.0000 24.2263 0.0000
# 6 0.0000 0.0000 0.0000 0.0000 0.0000 21.9598
#
#
#
# Elastic Compliance Matrix: (Units=1/GPa)
#
#
# Indices 1 2 3 4 5 6 
#
# 1 0.024786 -0.007218 -0.004475 0.000000 0.000000 0.000000
# 2 -0.007218 0.012543 -0.000212 0.000000 0.000000 0.000000
# 3 -0.004475 -0.000212 0.008398 0.000000 0.000000 0.000000
# 4 0.000000 0.000000 0.000000 0.042671 0.000000 0.000000
# 5 0.000000 0.000000 0.000000 0.000000 0.041277 0.000000
# 6 0.000000 0.000000 0.000000 0.000000 0.000000 0.045538
#
#
# Mechanical properties :
#
#
# Convention : Reuss Voigt Hill
#
# Bulk Modulus (GPa) = 45.62779 50.43742 48.03261
# Shear Modulus (GPa) = 24.23305 27.74553 25.98929
#
# Velocity S-wave (km/s) = 3.12352 3.34224 3.23473
# Velocity P-wave (km/s) = 5.60166 5.93300 5.76971
#
# Compressibility (1/GPa) = 0.02191647
#
# Stress axis : x y z
#
# Youngs Moduli (GPa) = 40.34489 79.72399 119.08162
#
# Poissons Ratio (x) = 0.57547 0.53287
# Poissons Ratio (y) = 0.29122 0.02528
# Poissons Ratio (z) = 0.18054 0.01693
#
# Static dielectric constant tensor:
#      x y z
#    x 2.108610 0.000000 0.000000 
#    y 0.000000 1.969920 0.000000 
#    z 0.000000 0.000000 2.007460 
# 
# From -- ./inp_files/5429.got.cif
#   From: 2010.05.17/outbox.cif.g08.bks.cpg/sg41_3_cif.got.tgz:5429.got - 2010.06.03 18:54:24.
