data_PCOD9367368
_publ_section_title
;
Structure prediction by ZEFSAII (Michael W. Deem and Ramdas Pophale) SiO2 
 PCOD9367368
Probable space group: A B A 2
;
_chemical_formula_sum "Si O2"
_cell_formula_units_Z 32
_cell_length_a 11.375800
_cell_length_b 22.954936
_cell_length_c 4.919389
_cell_angle_alpha 90.000000
_cell_angle_beta 90.000000
_cell_angle_gamma 90.000000
_cell_volume 1284.603793
_symmetry_space_group_name_H-M "A B A 2"
_symmetry_group_IT_number 41
_symmetry_cell_setting 'orthorhombic'
loop_
_space_group_symop_operation_xyz
x,y,z
-x,-y,z
1/2-x,y,1/2+z
1/2+x,-y,1/2+z
x,1/2+y,1/2+z
-x,1/2-y,1/2+z
1/2-x,1/2+y,z
1/2+x,1/2-y,z
loop_
_atom_site_type_symbol
_atom_site_label
_atom_site_fract_x
_atom_site_fract_y
_atom_site_fract_z
Si Si1 0.494150 0.156720 0.903990
Si Si2 0.829534 0.556798 0.994666
Si Si3 0.839378 0.760586 0.069599
Si Si4 0.678897 0.929564 0.148243
O O1 0.576951 0.100754 0.871168
O O2 0.430591 0.188400 0.652448
O O3 0.576318 0.204033 0.052951
O O4 0.389671 0.128359 0.076627
O O5 0.716679 0.566156 0.800431
O O6 0.871525 0.489772 0.025507
O O7 0.737611 0.760365 0.297293
O O8 0.701271 0.929548 0.469130
#
# Coordination Sequence:
#
# PCOD9367368 Si02
#       4
#     8   8   8   8
#     4  12  25  46  72  98 137 192 234 286 364 424
#     4  10  23  43  69 103 138 174 227 291 352 426
#     4  12  28  46  66 100 140 182 240 298 346 418
#     4  10  23  43  69 103 138 174 227 291 352 426
#
# _framework density 24.910404
#
# number of rings (size 3 to 8) (size 9 to 14) (size 15 to 20)
#    0.000    1.000    0.000    5.250    0.000   10.000 
#    0.000    7.500    0.000    0.000    0.000    0.000 
#    0.000    0.000    0.000    0.000    0.000    0.000 
#
# Total GULP energy -89372.204392 kJ/mol
# GULP energy per Si atom -5585.762775 kJ/mol
# Density = 2.485371 g / cm^3
# Si number density = 24.910404 Si / 1000 Ang^3
#
#
#
# Elastic Constant Matrix: (Units=GPa)
#
#
# Indices 1 2 3 4 5 6 
#
# 1 88.0466 70.5665 20.3145 0.0000 0.0000 0.0000
# 2 70.5665 169.6215 33.8499 0.0000 0.0000 0.0000
# 3 20.3145 33.8499 102.0705 0.0000 0.0000 0.0000
# 4 0.0000 0.0000 0.0000 27.7900 0.0000 0.0000
# 5 0.0000 0.0000 0.0000 0.0000 21.7349 0.0000
# 6 0.0000 0.0000 0.0000 0.0000 0.0000 73.2889
#
#
#
# Elastic Compliance Matrix: (Units=1/GPa)
#
#
# Indices 1 2 3 4 5 6 
#
# 1 0.017158 -0.006914 -0.001122 0.000000 0.000000 0.000000
# 2 -0.006914 0.009100 -0.001642 0.000000 0.000000 0.000000
# 3 -0.001122 -0.001642 0.010565 0.000000 0.000000 0.000000
# 4 0.000000 0.000000 0.000000 0.035984 0.000000 0.000000
# 5 0.000000 0.000000 0.000000 0.000000 0.046009 0.000000
# 6 0.000000 0.000000 0.000000 0.000000 0.000000 0.013645
#
#
# Mechanical properties :
#
#
# Convention : Reuss Voigt Hill
#
# Bulk Modulus (GPa) = 57.25094 67.68892 62.46993
# Shear Modulus (GPa) = 31.71828 40.22995 35.97411
#
# Velocity S-wave (km/s) = 3.57220 4.02305 3.80431
# Velocity P-wave (km/s) = 6.32825 6.98655 6.66553
#
# Compressibility (1/GPa) = 0.01746696
#
# Stress axis : x y z
#
# Youngs Moduli (GPa) = 58.28185 109.89537 94.65362
#
# Poissons Ratio (x) = 0.75984 0.10619
# Poissons Ratio (y) = 0.40297 0.15538
# Poissons Ratio (z) = 0.06538 0.18041
#
# Static dielectric constant tensor:
#      x y z
#    x 2.021450 0.000000 0.000000 
#    y 0.000000 2.014620 0.000000 
#    z 0.000000 0.000000 1.925490 
# 
# From -- ./inp_files/83.got.cif
#   From: 2010.05.17/outbox.cif.g08.bks.cpg/sg41_1_cif.got.tgz:83.got - 2010.06.03 18:54:24.
