data_PCOD9367252
_publ_section_title
;
Structure prediction by ZEFSAII (Michael W. Deem and Ramdas Pophale) SiO2 
 PCOD9367252
Probable space group: A B A 2
;
_chemical_formula_sum "Si O2"
_cell_formula_units_Z 40
_cell_length_a 15.734679
_cell_length_b 14.161861
_cell_length_c 7.412418
_cell_angle_alpha 90.000000
_cell_angle_beta 90.000000
_cell_angle_gamma 90.000000
_cell_volume 1651.726425
_symmetry_space_group_name_H-M "A B A 2"
_symmetry_group_IT_number 41
_symmetry_cell_setting 'orthorhombic'
loop_
_space_group_symop_operation_xyz
x,y,z
-x,-y,z
1/2-x,y,1/2+z
1/2+x,-y,1/2+z
x,1/2+y,1/2+z
-x,1/2-y,1/2+z
1/2-x,1/2+y,z
1/2+x,1/2-y,z
loop_
_atom_site_type_symbol
_atom_site_label
_atom_site_fract_x
_atom_site_fract_y
_atom_site_fract_z
Si Si1 0.657679 0.621555 0.323890
Si Si2 0.833395 0.718456 0.207970
Si Si3 0.955058 0.147270 0.984121
Si Si4 0.733761 0.930405 0.692461
Si Si5 0.881876 0.444661 0.379420
O O1 0.752593 0.658292 0.277814
O O2 0.641094 0.665470 0.521409
O O3 0.586363 0.657118 0.181104
O O4 0.670037 0.510372 0.277738
O O5 0.911806 0.717966 0.345823
O O6 0.796464 0.823317 0.214467
O O7 0.055703 0.134531 0.957411
O O8 0.922089 0.045867 0.909177
O O9 0.837647 0.934249 0.687838
O O10 0.708242 0.943887 0.480327
#
# Coordination Sequence:
#
# PCOD9367252 Si02
#       5
#     8   8   8   8   8
#     4  11  22  43  70 100 141 184 234 294 360 429
#     4  12  22  42  71 102 137 191 233 291 364 431
#     4  10  23  45  69  99 145 182 238 297 356 431
#     4  11  23  43  70 101 136 184 239 290 363 426
#     4  10  22  45  69  99 141 185 230 304 353 429
#
# _framework density 24.217086999999999
#
# number of rings (size 3 to 8) (size 9 to 14) (size 15 to 20)
#    0.000    1.200    4.000    2.400    0.000    0.000 
#   10.800    2.000    0.000    0.000    0.000    0.000 
#    0.000    0.000    0.000    0.000    0.000    0.000 
#
# Total GULP energy -111469.834490 kJ/mol
# GULP energy per Si atom -5573.491724 kJ/mol
# Density = 2.416197 g / cm^3
# Si number density = 24.217087 Si / 1000 Ang^3
#
#
#
# Elastic Constant Matrix: (Units=GPa)
#
#
# Indices 1 2 3 4 5 6 
#
# 1 103.4453 -33.3565 15.9261 0.0000 0.0000 0.0000
# 2 -33.3565 80.7779 -7.6557 0.0000 0.0000 0.0000
# 3 15.9261 -7.6557 68.0567 0.0000 0.0000 0.0000
# 4 0.0000 0.0000 0.0000 17.4383 0.0000 0.0000
# 5 0.0000 0.0000 0.0000 0.0000 23.9661 0.0000
# 6 0.0000 0.0000 0.0000 0.0000 0.0000 28.0817
#
#
#
# Elastic Compliance Matrix: (Units=1/GPa)
#
#
# Indices 1 2 3 4 5 6 
#
# 1 0.011461 0.004527 -0.002173 0.000000 0.000000 0.000000
# 2 0.004527 0.014301 0.000549 0.000000 0.000000 0.000000
# 3 -0.002173 0.000549 0.015264 0.000000 0.000000 0.000000
# 4 0.000000 0.000000 0.000000 0.057345 0.000000 0.000000
# 5 0.000000 0.000000 0.000000 0.000000 0.041726 0.000000
# 6 0.000000 0.000000 0.000000 0.000000 0.000000 0.035610
#
#
# Mechanical properties :
#
#
# Convention : Reuss Voigt Hill
#
# Bulk Modulus (GPa) = 21.35252 22.45642 21.90447
# Shear Modulus (GPa) = 26.95257 32.38830 29.67044
#
# Velocity S-wave (km/s) = 3.33972 3.66104 3.50406
# Velocity P-wave (km/s) = 4.86908 5.21191 5.04341
#
# Compressibility (1/GPa) = 0.04683289
#
# Stress axis : x y z
#
# Youngs Moduli (GPa) = 87.25111 69.92516 65.51406
#
# Poissons Ratio (x) = -0.31654 0.14235
# Poissons Ratio (y) = -0.39497 -0.03599
# Poissons Ratio (z) = 0.18958 -0.03842
#
# Static dielectric constant tensor:
#      x y z
#    x 1.758290 0.000000 0.000000 
#    y 0.000000 1.948540 0.000000 
#    z 0.000000 0.000000 2.171980 
# 
# From -- ./inp_files/2398.got.cif
#   From: 2010.05.17/outbox.cif.g08.bks.cpg/sg41_2_cif.got.tgz:2398.got - 2010.06.03 18:54:24.
