data_PCOD9367975
_publ_section_title
;
Structure prediction by ZEFSAII (Michael W. Deem and Ramdas Pophale) SiO2 
 PCOD9367975
Probable space group: A B A 2
;
_chemical_formula_sum "Si O2"
_cell_formula_units_Z 48
_cell_length_a 15.808853
_cell_length_b 8.912838
_cell_length_c 18.738684
_cell_angle_alpha 90.000000
_cell_angle_beta 90.000000
_cell_angle_gamma 90.000000
_cell_volume 2640.313289
_symmetry_space_group_name_H-M "A B A 2"
_symmetry_group_IT_number 41
_symmetry_cell_setting 'orthorhombic'
loop_
_space_group_symop_operation_xyz
x,y,z
-x,-y,z
1/2-x,y,1/2+z
1/2+x,-y,1/2+z
x,1/2+y,1/2+z
-x,1/2-y,1/2+z
1/2-x,1/2+y,z
1/2+x,1/2-y,z
loop_
_atom_site_type_symbol
_atom_site_label
_atom_site_fract_x
_atom_site_fract_y
_atom_site_fract_z
Si Si1 0.097746 0.170856 0.402700
Si Si2 0.338145 0.677297 0.768977
Si Si3 1.000000 0.678698 0.691807
Si Si4 0.000001 0.320336 0.037767
Si Si5 0.161854 0.322704 0.268977
Si Si6 0.402253 0.829145 0.902700
O O1 0.148325 0.281449 0.352539
O O2 0.080761 0.209567 0.485634
O O3 1.000000 0.168824 0.375277
O O4 0.130212 0.000001 0.396657
O O5 0.416450 0.751078 0.727531
O O6 0.337930 0.500000 0.758781
O O7 0.249999 0.749999 0.745539
O O8 0.351674 0.718554 0.852539
O O9 0.000000 0.500000 0.700336
O O10 0.000000 0.726380 0.608902
O O11 0.083548 0.748923 0.727532
O O12 0.000000 0.500000 0.051970
O O13 0.080763 0.290435 0.985633
#
# Coordination Sequence:
#
# PCOD9367975 Si02
#       6
#     8   8   8   8   8   8
#     4   8  16  34  59  84 113 145 185 232 279 334
#     4  12  24  38  60  87 117 153 196 240 288 343
#     4  12  23  38  59  85 121 155 191 238 289 346
#     4   8  17  34  59  85 113 153 191 230 285 342
#     4  12  24  38  60  87 117 153 196 240 288 343
#     4   8  16  34  59  84 113 145 185 232 279 334
#
# _framework density 18.179660999999999
#
# number of rings (size 3 to 8) (size 9 to 14) (size 15 to 20)
#    1.000    1.000    1.667    4.500    0.000    1.333 
#    0.000    1.667    0.000    8.000    0.000    0.000 
#    0.000    0.000    0.000    0.000    0.000    0.000 
#
# Total GULP energy -133696.708720 kJ/mol
# GULP energy per Si atom -5570.696197 kJ/mol
# Density = 1.813828 g / cm^3
# Si number density = 18.179661 Si / 1000 Ang^3
#
#
#
# Elastic Constant Matrix: (Units=GPa)
#
#
# Indices 1 2 3 4 5 6 
#
# 1 117.6840 74.0849 47.2355 0.0000 0.0000 0.0000
# 2 74.0849 165.7434 70.6069 0.0000 0.0000 0.0000
# 3 47.2355 70.6069 95.1100 0.0000 0.0000 0.0000
# 4 0.0000 0.0000 0.0000 35.5662 0.0000 0.0000
# 5 0.0000 0.0000 0.0000 0.0000 6.8076 0.0000
# 6 0.0000 0.0000 0.0000 0.0000 0.0000 26.4544
#
#
#
# Elastic Compliance Matrix: (Units=1/GPa)
#
#
# Indices 1 2 3 4 5 6 
#
# 1 0.012378 -0.004262 -0.002984 0.000000 0.000000 0.000000
# 2 -0.004262 0.010291 -0.005523 0.000000 0.000000 0.000000
# 3 -0.002984 -0.005523 0.016096 0.000000 0.000000 0.000000
# 4 0.000000 0.000000 0.000000 0.028117 0.000000 0.000000
# 5 0.000000 0.000000 0.000000 0.000000 0.146894 0.000000
# 6 0.000000 0.000000 0.000000 0.000000 0.000000 0.037801
#
#
# Mechanical properties :
#
#
# Convention : Reuss Voigt Hill
#
# Bulk Modulus (GPa) = 75.59703 84.71023 80.15363
# Shear Modulus (GPa) = 17.76052 26.20633 21.98343
#
# Velocity S-wave (km/s) = 3.12900 3.80085 3.48117
# Velocity P-wave (km/s) = 7.39782 8.12153 7.76811
#
# Compressibility (1/GPa) = 0.01322803
#
# Stress axis : x y z
#
# Youngs Moduli (GPa) = 80.79073 97.16933 62.12592
#
# Poissons Ratio (x) = 0.41410 0.18535
# Poissons Ratio (y) = 0.34430 0.34315
# Poissons Ratio (z) = 0.24104 0.53671
#
# Static dielectric constant tensor:
#      x y z
#    x 1.627480 0.000000 0.000000 
#    y 0.000000 1.598300 0.000000 
#    z 0.000000 0.000000 1.660190 
# 
# From -- ./inp_files/11483.got.cif
#   From: 2010.05.17/outbox.cif.g08.bks.cpg/sg41_6_cif.got.tgz:11483.got - 2010.06.03 18:54:24.
