data_PCOD9367032
_publ_section_title
;
Structure prediction by ZEFSAII (Michael W. Deem and Ramdas Pophale) SiO2 
 PCOD9367032
Probable space group: A B A 2
;
_chemical_formula_sum "Si O2"
_cell_formula_units_Z 60
_cell_length_a 27.966318
_cell_length_b 19.200933
_cell_length_c 5.059646
_cell_angle_alpha 90.000000
_cell_angle_beta 90.000000
_cell_angle_gamma 90.000000
_cell_volume 2716.925664
_symmetry_space_group_name_H-M "A B A 2"
_symmetry_group_IT_number 41
_symmetry_cell_setting 'orthorhombic'
loop_
_space_group_symop_operation_xyz
x,y,z
-x,-y,z
1/2-x,y,1/2+z
1/2+x,-y,1/2+z
x,1/2+y,1/2+z
-x,1/2-y,1/2+z
1/2-x,1/2+y,z
1/2+x,1/2-y,z
loop_
_atom_site_type_symbol
_atom_site_label
_atom_site_fract_x
_atom_site_fract_y
_atom_site_fract_z
Si Si1 0.148680 0.934082 0.682600
Si Si2 0.354897 0.526488 0.149195
Si Si3 0.451922 0.104371 0.500610
Si Si4 0.531789 0.746325 0.412929
Si Si5 0.218300 0.307331 0.217793
Si Si6 0.282932 0.650032 0.161017
Si Si7 0.500000 0.500000 0.381674
Si Si8 0.451204 0.896031 0.163698
O O1 0.182059 0.867862 0.643906
O O2 0.098864 0.903892 0.810464
O O3 0.142245 0.976437 0.406980
O O4 0.168926 0.984493 0.908130
O O5 0.323084 0.593308 0.217814
O O6 0.404634 0.557230 0.023452
O O7 0.438093 0.185794 0.498200
O O8 0.483581 0.068114 0.726952
O O9 0.495343 0.107115 0.285962
O O10 0.485405 0.752797 0.609170
O O11 0.554072 0.671982 0.482692
O O12 0.237072 0.313260 0.516798
O O13 0.198296 0.229205 0.184044
O O14 0.240192 0.642109 0.372354
O O15 0.455194 0.472672 0.539482
#
# Coordination Sequence:
#
# PCOD9367032 Si02
#       8
#     8   8   8   8   8   8   4   8
#     4  12  26  42  67 103 134 174 228 275 336 398
#     4  12  26  42  67 103 134 174 228 275 336 398
#     4  11  24  40  63  93 133 180 220 275 322 395
#     4  10  22  40  60  88 120 166 226 266 318 374
#     4  10  23  46  72 100 135 176 218 275 346 408
#     4  10  23  46  72 100 135 176 218 275 346 408
#     4  12  18  40  64  82 132 174 210 272 322 372
#     4  11  24  40  63  93 133 180 220 275 322 395
#
# _framework density 22.083783
#
# number of rings (size 3 to 8) (size 9 to 14) (size 15 to 20)
#    0.000    1.067    2.667    3.600    1.867    3.200 
#    0.000    0.000    2.933    0.000    0.000    0.000 
#    0.000    0.000    0.000    0.000    0.000    0.000 
#
# Total GULP energy -167104.244822 kJ/mol
# GULP energy per Si atom -5570.141494 kJ/mol
# Density = 2.203352 g / cm^3
# Si number density = 22.083783 Si / 1000 Ang^3
#
#
#
# Elastic Constant Matrix: (Units=GPa)
#
#
# Indices 1 2 3 4 5 6 
#
# 1 54.7956 50.9200 0.5199 0.0000 0.0000 0.0000
# 2 50.9200 124.3829 15.1663 0.0000 0.0000 0.0000
# 3 0.5199 15.1663 69.0872 0.0000 0.0000 0.0000
# 4 0.0000 0.0000 0.0000 30.9187 0.0000 0.0000
# 5 0.0000 0.0000 0.0000 0.0000 10.7712 0.0000
# 6 0.0000 0.0000 0.0000 0.0000 0.0000 32.1650
#
#
#
# Elastic Compliance Matrix: (Units=1/GPa)
#
#
# Indices 1 2 3 4 5 6 
#
# 1 0.029879 -0.012540 0.002528 0.000000 0.000000 0.000000
# 2 -0.012540 0.013524 -0.002874 0.000000 0.000000 0.000000
# 3 0.002528 -0.002874 0.015086 0.000000 0.000000 0.000000
# 4 0.000000 0.000000 0.000000 0.032343 0.000000 0.000000
# 5 0.000000 0.000000 0.000000 0.000000 0.092840 0.000000
# 6 0.000000 0.000000 0.000000 0.000000 0.000000 0.031090
#
#
# Mechanical properties :
#
#
# Convention : Reuss Voigt Hill
#
# Bulk Modulus (GPa) = 30.56600 42.38645 36.47622
# Shear Modulus (GPa) = 19.88545 26.88161 23.38353
#
# Velocity S-wave (km/s) = 3.00401 3.49270 3.25754
# Velocity P-wave (km/s) = 5.08951 5.95823 5.54092
#
# Compressibility (1/GPa) = 0.03271609
#
# Stress axis : x y z
#
# Youngs Moduli (GPa) = 33.46857 73.94352 66.28462
#
# Poissons Ratio (x) = 0.92726 -0.16757
# Poissons Ratio (y) = 0.41970 0.19053
# Poissons Ratio (z) = -0.08461 0.21255
#
# Static dielectric constant tensor:
#      x y z
#    x 1.821720 0.000000 0.000000 
#    y 0.000000 1.828290 0.000000 
#    z 0.000000 0.000000 1.892610 
# 
# From -- ./inp_files/1191.got.cif
#   From: 2010.05.17/outbox.cif.g08.bks.cpg/sg41_1_cif.got.tgz:1191.got - 2010.06.03 18:54:24.
