data_PCOD9367121
_publ_section_title
;
Structure prediction by ZEFSAII (Michael W. Deem and Ramdas Pophale) SiO2 
 PCOD9367121
Probable space group: A B A 2
;
_chemical_formula_sum "Si O2"
_cell_formula_units_Z 48
_cell_length_a 28.648175
_cell_length_b 14.452376
_cell_length_c 5.005940
_cell_angle_alpha 90.000000
_cell_angle_beta 90.000000
_cell_angle_gamma 90.000000
_cell_volume 2072.630347
_symmetry_space_group_name_H-M "A B A 2"
_symmetry_group_IT_number 41
_symmetry_cell_setting 'orthorhombic'
loop_
_space_group_symop_operation_xyz
x,y,z
-x,-y,z
1/2-x,y,1/2+z
1/2+x,-y,1/2+z
x,1/2+y,1/2+z
-x,1/2-y,1/2+z
1/2-x,1/2+y,z
1/2+x,1/2-y,z
loop_
_atom_site_type_symbol
_atom_site_label
_atom_site_fract_x
_atom_site_fract_y
_atom_site_fract_z
Si Si1 0.992456 0.310079 0.394520
Si Si2 0.087774 0.897237 0.861905
Si Si3 0.854572 0.619878 0.865574
Si Si4 0.777938 0.238398 0.048329
Si Si5 0.392166 0.613042 0.865664
Si Si6 0.835431 0.400857 0.878815
O O1 0.033562 0.379600 0.307603
O O2 0.011830 0.260341 0.653394
O O3 0.941047 0.346225 0.456566
O O4 0.123694 0.850484 0.650614
O O5 0.098548 0.004753 0.836112
O O6 0.101379 0.878258 0.166359
O O7 0.818154 0.683159 0.704128
O O8 0.834814 0.513481 0.888210
O O9 0.734345 0.214654 0.242184
O O10 0.791353 0.346978 0.005670
O O11 0.376459 0.639199 0.568946
O O12 0.350365 0.625622 0.078305
#
# Coordination Sequence:
#
# PCOD9367121 Si02
#       6
#     8   8   8   8   8   8
#     4  12  25  36  59 100 130 168 214 266 313 366
#     4  10  22  42  63  89 128 176 215 257 314 378
#     4  10  23  42  67  92 125 172 214 262 324 391
#     4  12  26  42  66  98 126 164 208 274 342 394
#     4  10  22  42  63  89 128 176 215 257 314 378
#     4  10  23  42  67  92 125 172 214 262 324 391
#
# _framework density 23.15898
#
# number of rings (size 3 to 8) (size 9 to 14) (size 15 to 20)
#    0.000    1.333    0.000    4.500    7.000    1.333 
#    0.000    6.667    0.000    0.000    0.000    0.000 
#    0.000    0.000    0.000    0.000    0.000    0.000 
#
# Total GULP energy -133897.113351 kJ/mol
# GULP energy per Si atom -5579.046390 kJ/mol
# Density = 2.310627 g / cm^3
# Si number density = 23.158980 Si / 1000 Ang^3
#
#
#
# Elastic Constant Matrix: (Units=GPa)
#
#
# Indices 1 2 3 4 5 6 
#
# 1 28.3950 18.6266 2.6410 0.0000 0.0000 0.0000
# 2 18.6266 80.6073 22.6130 0.0000 0.0000 0.0000
# 3 2.6410 22.6130 116.9298 0.0000 0.0000 0.0000
# 4 0.0000 0.0000 0.0000 20.2900 0.0000 0.0000
# 5 0.0000 0.0000 0.0000 0.0000 33.5608 0.0000
# 6 0.0000 0.0000 0.0000 0.0000 0.0000 20.9890
#
#
#
# Elastic Compliance Matrix: (Units=1/GPa)
#
#
# Indices 1 2 3 4 5 6 
#
# 1 0.041614 -0.009889 0.000972 0.000000 0.000000 0.000000
# 2 -0.009889 0.015467 -0.002768 0.000000 0.000000 0.000000
# 3 0.000972 -0.002768 0.009065 0.000000 0.000000 0.000000
# 4 0.000000 0.000000 0.000000 0.049285 0.000000 0.000000
# 5 0.000000 0.000000 0.000000 0.000000 0.029797 0.000000
# 6 0.000000 0.000000 0.000000 0.000000 0.000000 0.047644
#
#
# Mechanical properties :
#
#
# Convention : Reuss Voigt Hill
#
# Bulk Modulus (GPa) = 23.37639 34.85482 29.11560
# Shear Modulus (GPa) = 21.69191 27.10474 24.39832
#
# Velocity S-wave (km/s) = 3.06380 3.42479 3.24931
# Velocity P-wave (km/s) = 4.75727 5.54273 5.16495
#
# Compressibility (1/GPa) = 0.04277821
#
# Stress axis : x y z
#
# Youngs Moduli (GPa) = 24.03044 64.65208 110.30886
#
# Poissons Ratio (x) = 0.63934 -0.10727
# Poissons Ratio (y) = 0.23763 0.30532
# Poissons Ratio (z) = -0.02337 0.17895
#
# Static dielectric constant tensor:
#      x y z
#    x 1.875250 0.000000 0.000000 
#    y 0.000000 1.913620 0.000000 
#    z 0.000000 0.000000 1.865550 
# 
# From -- ./inp_files/1137.got.cif
#   From: 2010.05.17/outbox.cif.g08.bks.cpg/sg41_1_cif.got.tgz:1137.got - 2010.06.03 18:54:24.
