data_PCOD9367201
_publ_section_title
;
Structure prediction by ZEFSAII (Michael W. Deem and Ramdas Pophale) SiO2 
 PCOD9367201
Probable space group: A B A 2
;
_chemical_formula_sum "Si O2"
_cell_formula_units_Z 40
_cell_length_a 17.727304
_cell_length_b 12.958268
_cell_length_c 7.050843
_cell_angle_alpha 90.000000
_cell_angle_beta 90.000000
_cell_angle_gamma 90.000000
_cell_volume 1619.685501
_symmetry_space_group_name_H-M "A B A 2"
_symmetry_group_IT_number 41
_symmetry_cell_setting 'orthorhombic'
loop_
_space_group_symop_operation_xyz
x,y,z
-x,-y,z
1/2-x,y,1/2+z
1/2+x,-y,1/2+z
x,1/2+y,1/2+z
-x,1/2-y,1/2+z
1/2-x,1/2+y,z
1/2+x,1/2-y,z
loop_
_atom_site_type_symbol
_atom_site_label
_atom_site_fract_x
_atom_site_fract_y
_atom_site_fract_z
Si Si1 0.843573 0.553722 0.798860
Si Si2 0.475124 0.383240 0.728561
Si Si3 0.677699 0.623236 0.895879
Si Si4 0.891819 0.834186 0.451442
Si Si5 0.487900 0.376928 0.176688
O O1 0.762884 0.601654 0.841898
O O2 0.843069 0.543481 0.566263
O O3 0.855216 0.446393 0.911606
O O4 0.914289 0.632606 0.811225
O O5 0.500000 0.500000 0.686803
O O6 0.382785 0.386248 0.724702
O O7 0.543411 0.328760 0.613052
O O8 0.484533 0.363413 0.953333
O O9 0.666371 0.740645 0.970830
O O10 0.941090 0.817695 0.260362
O O11 0.000000 0.000000 0.205664
#
# Coordination Sequence:
#
# PCOD9367201 Si02
#       5
#     8   8   8   8   8
#     4  10  24  47  68 107 154 187 249 319 386 457
#     4  10  22  43  73 103 137 193 251 303 379 456
#     4  11  27  45  72 115 147 196 262 314 385 475
#     4  11  24  46  76 101 147 207 241 318 382 450
#     4   8  18  41  71 101 136 184 248 302 365 465
#
# _framework density 24.696152000000001
#
# number of rings (size 3 to 8) (size 9 to 14) (size 15 to 20)
#    0.000    2.000    0.000    3.000   11.200    1.600 
#    3.600    0.000    0.000    0.000    0.000    0.000 
#    0.000    0.000    0.000    0.000    0.000    0.000 
#
# Total GULP energy -111564.367758 kJ/mol
# GULP energy per Si atom -5578.218388 kJ/mol
# Density = 2.463994 g / cm^3
# Si number density = 24.696152 Si / 1000 Ang^3
#
#
#
# Elastic Constant Matrix: (Units=GPa)
#
#
# Indices 1 2 3 4 5 6 
#
# 1 207.7102 74.8706 39.8183 0.0000 0.0000 0.0000
# 2 74.8706 110.5044 27.9012 0.0000 0.0000 0.0000
# 3 39.8183 27.9012 91.3691 0.0000 0.0000 0.0000
# 4 0.0000 0.0000 0.0000 34.3852 0.0000 0.0000
# 5 0.0000 0.0000 0.0000 0.0000 47.3294 0.0000
# 6 0.0000 0.0000 0.0000 0.0000 0.0000 46.0890
#
#
#
# Elastic Compliance Matrix: (Units=1/GPa)
#
#
# Indices 1 2 3 4 5 6 
#
# 1 0.006588 -0.004051 -0.001634 0.000000 0.000000 0.000000
# 2 -0.004051 0.012296 -0.001990 0.000000 0.000000 0.000000
# 3 -0.001634 -0.001990 0.012264 0.000000 0.000000 0.000000
# 4 0.000000 0.000000 0.000000 0.029082 0.000000 0.000000
# 5 0.000000 0.000000 0.000000 0.000000 0.021129 0.000000
# 6 0.000000 0.000000 0.000000 0.000000 0.000000 0.021697
#
#
# Mechanical properties :
#
#
# Convention : Reuss Voigt Hill
#
# Bulk Modulus (GPa) = 63.29259 77.19601 70.24430
# Shear Modulus (GPa) = 40.42963 43.36030 41.89496
#
# Velocity S-wave (km/s) = 4.05048 4.19471 4.12323
# Velocity P-wave (km/s) = 6.89633 7.40182 7.15354
#
# Compressibility (1/GPa) = 0.01579964
#
# Stress axis : x y z
#
# Youngs Moduli (GPa) = 151.79560 81.32468 81.53796
#
# Poissons Ratio (x) = 0.32944 0.13323
# Poissons Ratio (y) = 0.61491 0.16222
# Poissons Ratio (z) = 0.24802 0.16180
#
# Static dielectric constant tensor:
#      x y z
#    x 2.050360 0.000000 0.000000 
#    y 0.000000 2.194990 0.000000 
#    z 0.000000 0.000000 2.041760 
# 
# From -- ./inp_files/2913.got.cif
#   From: 2010.05.17/outbox.cif.g08.bks.cpg/sg41_2_cif.got.tgz:2913.got - 2010.06.03 18:54:24.
