data_PCOD9367974
_publ_section_title
;
Structure prediction by ZEFSAII (Michael W. Deem and Ramdas Pophale) SiO2 
 PCOD9367974
Probable space group: A B A 2
;
_chemical_formula_sum "Si O2"
_cell_formula_units_Z 60
_cell_length_a 10.929898
_cell_length_b 17.668850
_cell_length_c 13.428109
_cell_angle_alpha 90.000000
_cell_angle_beta 90.000000
_cell_angle_gamma 90.000000
_cell_volume 2593.219333
_symmetry_space_group_name_H-M "A B A 2"
_symmetry_group_IT_number 41
_symmetry_cell_setting 'orthorhombic'
loop_
_space_group_symop_operation_xyz
x,y,z
-x,-y,z
1/2-x,y,1/2+z
1/2+x,-y,1/2+z
x,1/2+y,1/2+z
-x,1/2-y,1/2+z
1/2-x,1/2+y,z
1/2+x,1/2-y,z
loop_
_atom_site_type_symbol
_atom_site_label
_atom_site_fract_x
_atom_site_fract_y
_atom_site_fract_z
Si Si1 0.452885 0.762989 0.980610
Si Si2 0.111996 0.947385 0.288630
Si Si3 0.312576 0.568901 0.768354
Si Si4 0.703063 0.313215 0.404746
Si Si5 0.065453 0.867729 0.086283
Si Si6 0.309197 0.395570 0.499348
Si Si7 0.620382 0.948027 0.052013
Si Si8 0.500000 0.000000 0.430411
O O1 0.325714 0.733940 0.932035
O O2 0.573399 0.767996 0.909132
O O3 0.429763 0.846939 0.023761
O O4 0.483160 0.704669 0.067330
O O5 0.065043 0.896415 0.198628
O O6 0.174640 0.903251 0.380006
O O7 0.212222 0.004886 0.248742
O O8 0.000000 0.000000 0.324750
O O9 0.240903 0.643320 0.804304
O O10 0.383082 0.579368 0.665441
O O11 0.398697 0.535339 0.855512
O O12 0.674061 0.382634 0.481364
O O13 0.202379 0.848521 0.051239
O O14 0.029451 0.931262 0.005185
O O15 0.287665 0.480357 0.537542
O O16 0.500000 0.000000 0.031185
#
# Coordination Sequence:
#
# PCOD9367974 Si02
#       8
#     8   8   8   8   8   8   8   4
#     4  12  27  48  71 105 158 211 244 313 405 465
#     4  12  25  42  72 112 138 188 254 313 377 450
#     4  12  25  42  74 113 138 192 259 322 385 453
#     4  12  26  50  72 109 158 207 257 319 390 476
#     4  12  25  45  73 105 149 193 248 311 380 460
#     4  12  24  48  73 105 151 195 244 319 389 455
#     4  12  24  45  78 109 149 194 267 333 386 463
#     4  12  22  46  74 104 152 186 248 324 374 444
#
# _framework density 23.137263000000001
#
# number of rings (size 3 to 8) (size 9 to 14) (size 15 to 20)
#    0.000    0.000    9.333    1.200    1.867    0.000 
#    2.400    2.667    0.000    0.000    0.000    0.000 
#    0.000    0.000    0.000    0.000    0.000    0.000 
#
# Total GULP energy -167469.230313 kJ/mol
# GULP energy per Si atom -5582.307677 kJ/mol
# Density = 2.308460 g / cm^3
# Si number density = 23.137263 Si / 1000 Ang^3
#
#
#
# Elastic Constant Matrix: (Units=GPa)
#
#
# Indices 1 2 3 4 5 6 
#
# 1 112.2559 25.2067 27.7506 0.0000 0.0000 0.0000
# 2 25.2067 85.7672 34.7872 0.0000 0.0000 0.0000
# 3 27.7506 34.7872 146.3813 0.0000 0.0000 0.0000
# 4 0.0000 0.0000 0.0000 7.4295 0.0000 0.0000
# 5 0.0000 0.0000 0.0000 0.0000 27.1277 0.0000
# 6 0.0000 0.0000 0.0000 0.0000 0.0000 46.6350
#
#
#
# Elastic Compliance Matrix: (Units=1/GPa)
#
#
# Indices 1 2 3 4 5 6 
#
# 1 0.009754 -0.002342 -0.001292 0.000000 0.000000 0.000000
# 2 -0.002342 0.013466 -0.002756 0.000000 0.000000 0.000000
# 3 -0.001292 -0.002756 0.007731 0.000000 0.000000 0.000000
# 4 0.000000 0.000000 0.000000 0.134598 0.000000 0.000000
# 5 0.000000 0.000000 0.000000 0.000000 0.036863 0.000000
# 6 0.000000 0.000000 0.000000 0.000000 0.000000 0.021443
#
#
# Mechanical properties :
#
#
# Convention : Reuss Voigt Hill
#
# Bulk Modulus (GPa) = 55.03818 57.76595 56.40206
# Shear Modulus (GPa) = 20.60214 33.34909 26.97561
#
# Velocity S-wave (km/s) = 2.98725 3.80064 3.41822
# Velocity P-wave (km/s) = 5.97809 6.65437 6.32527
#
# Compressibility (1/GPa) = 0.01816921
#
# Stress axis : x y z
#
# Youngs Moduli (GPa) = 102.52538 74.26258 129.34170
#
# Poissons Ratio (x) = 0.17395 0.16716
# Poissons Ratio (y) = 0.24015 0.35647
# Poissons Ratio (z) = 0.13251 0.20467
#
# Static dielectric constant tensor:
#      x y z
#    x 1.870070 0.000000 0.000000 
#    y 0.000000 1.980200 0.000000 
#    z 0.000000 0.000000 1.813860 
# 
# From -- ./inp_files/8053.got.cif
#   From: 2010.05.17/outbox.cif.g08.bks.cpg/sg41_5_cif.got.tgz:8053.got - 2010.06.03 18:54:24.
