data_PCOD9367318
_publ_section_title
;
Structure prediction by ZEFSAII (Michael W. Deem and Ramdas Pophale) SiO2 
 PCOD9367318
Probable space group: A B A 2
;
_chemical_formula_sum "Si O2"
_cell_formula_units_Z 36
_cell_length_a 5.215584
_cell_length_b 22.880510
_cell_length_c 12.454398
_cell_angle_alpha 90.000000
_cell_angle_beta 90.000000
_cell_angle_gamma 90.000000
_cell_volume 1486.248349
_symmetry_space_group_name_H-M "A B A 2"
_symmetry_group_IT_number 41
_symmetry_cell_setting 'orthorhombic'
loop_
_space_group_symop_operation_xyz
x,y,z
-x,-y,z
1/2-x,y,1/2+z
1/2+x,-y,1/2+z
x,1/2+y,1/2+z
-x,1/2-y,1/2+z
1/2-x,1/2+y,z
1/2+x,1/2-y,z
loop_
_atom_site_type_symbol
_atom_site_label
_atom_site_fract_x
_atom_site_fract_y
_atom_site_fract_z
Si Si1 0.665804 0.401313 0.274890
Si Si2 0.000000 0.000000 0.888968
Si Si3 0.393020 0.646181 0.495992
Si Si4 0.374639 0.917759 0.563697
Si Si5 0.596128 0.283348 0.679572
O O1 0.848935 0.453154 0.317455
O O2 0.527346 0.370927 0.376276
O O3 0.478384 0.427650 0.183996
O O4 0.815590 0.345129 0.228272
O O5 0.180673 0.969062 0.978326
O O6 0.613668 0.616853 0.567347
O O7 0.383747 0.709667 0.549425
O O8 0.111188 0.618597 0.512249
O O9 0.314242 0.263121 0.711631
#
# Coordination Sequence:
#
# PCOD9367318 Si02
#       5
#     8   4   8   8   8
#     4  10  24  45  74 107 147 193 238 295 374 437
#     4  10  24  44  74 110 144 190 238 296 366 444
#     4  10  23  43  65  97 139 185 237 293 351 418
#     4  10  23  41  65 101 140 180 237 291 345 428
#     4  11  24  43  69 103 142 186 241 296 347 423
#
# _framework density 24.222059999999999
#
# number of rings (size 3 to 8) (size 9 to 14) (size 15 to 20)
#    0.000    1.778    0.000    2.667    0.000   21.333 
#    0.000    0.000    0.000    0.000    0.000    0.000 
#    0.000    0.000    0.000    0.000    0.000    0.000 
#
# Total GULP energy -100429.280966 kJ/mol
# GULP energy per Si atom -5579.404498 kJ/mol
# Density = 2.416693 g / cm^3
# Si number density = 24.222060 Si / 1000 Ang^3
#
#
#
# Elastic Constant Matrix: (Units=GPa)
#
#
# Indices 1 2 3 4 5 6 
#
# 1 -1470.7020 -32.1589 -655.3627 0.0000 0.0000 0.0000
# 2 -32.1589 86.8583 12.9194 0.0000 0.0000 0.0000
# 3 -655.3627 12.9194 -152.4589 0.0000 0.0000 0.0000
# 4 0.0000 0.0000 0.0000 50.0288 0.0000 0.0000
# 5 0.0000 0.0000 0.0000 0.0000 -115.2241 0.0000
# 6 0.0000 0.0000 0.0000 0.0000 0.0000 38.9925
#
#
#
# Elastic Compliance Matrix: (Units=1/GPa)
#
#
# Indices 1 2 3 4 5 6 
#
# 1 0.000794 0.000792 -0.003347 0.000000 0.000000 0.000000
# 2 0.000792 0.012159 -0.002374 0.000000 0.000000 0.000000
# 3 -0.003347 -0.002374 0.007628 0.000000 0.000000 0.000000
# 4 0.000000 0.000000 0.000000 0.019988 0.000000 0.000000
# 5 0.000000 0.000000 0.000000 0.000000 -0.008679 0.000000
# 6 0.000000 0.000000 0.000000 0.000000 0.000000 0.025646
#
#
# Mechanical properties :
#
#
# Convention : Reuss Voigt Hill
#
# Bulk Modulus (GPa) = 93.25498 -320.61186 -113.67844
# Shear Modulus (GPa) = 70.45259 -62.68725 3.88267
#
# Velocity S-wave (km/s) = 5.39901 -5.09278 1.26745
# Velocity P-wave (km/s) = 8.80053 12.93185 6.70013
#
# Compressibility (1/GPa) = 0.01072329
#
# Stress axis : x y z
#
# Youngs Moduli (GPa) = 1259.01510 82.24157 131.09831
#
# Poissons Ratio (x) = -0.06513 0.43881
# Poissons Ratio (y) = -0.99706 0.31121
# Poissons Ratio (z) = 4.21413 0.19523
#
# Static dielectric constant tensor:
#      x y z
#    x 1.885990 0.000000 0.000000 
#    y 0.000000 5.050000 0.000000 
#    z 0.000000 0.000000 2.505300 
# 
# From -- ./inp_files/4116.got.cif
#   From: 2010.05.17/outbox.cif.g08.bks.cpg/sg41_3_cif.got.tgz:4116.got - 2010.06.03 18:54:24.
