data_PCOD9367124
_publ_section_title
;
Structure prediction by ZEFSAII (Michael W. Deem and Ramdas Pophale) SiO2 
 PCOD9367124
Probable space group: A B A 2
;
_chemical_formula_sum "Si O2"
_cell_formula_units_Z 60
_cell_length_a 8.794197
_cell_length_b 10.907245
_cell_length_c 26.432748
_cell_angle_alpha 90.000000
_cell_angle_beta 90.000000
_cell_angle_gamma 90.000000
_cell_volume 2535.441380
_symmetry_space_group_name_H-M "A B A 2"
_symmetry_group_IT_number 41
_symmetry_cell_setting 'orthorhombic'
loop_
_space_group_symop_operation_xyz
x,y,z
-x,-y,z
1/2-x,y,1/2+z
1/2+x,-y,1/2+z
x,1/2+y,1/2+z
-x,1/2-y,1/2+z
1/2-x,1/2+y,z
1/2+x,1/2-y,z
loop_
_atom_site_type_symbol
_atom_site_label
_atom_site_fract_x
_atom_site_fract_y
_atom_site_fract_z
Si Si1 0.500000 0.000000 0.006531
Si Si2 0.188223 0.857488 0.640664
Si Si3 0.373091 0.718377 0.352040
Si Si4 0.358311 0.347000 0.418914
Si Si5 0.203279 0.214132 0.542627
Si Si6 0.345742 0.622037 0.678574
Si Si7 0.975150 0.862375 0.982262
Si Si8 0.410887 0.616488 0.796203
O O1 0.584545 0.900075 0.041449
O O2 0.381440 0.935610 0.967453
O O3 0.258203 0.809216 0.587476
O O4 0.251242 0.747609 0.675700
O O5 0.005710 0.856486 0.649165
O O6 0.229693 0.998556 0.654683
O O7 0.488844 0.639123 0.385443
O O8 0.291464 0.827999 0.384785
O O9 0.239600 0.640263 0.327873
O O10 0.475236 0.772112 0.306998
O O11 0.387116 0.209196 0.439289
O O12 0.364176 0.152330 0.530258
O O13 0.128508 0.293270 0.497583
O O14 0.377178 0.598202 0.737298
O O15 0.000000 0.000000 0.968841
O O16 0.500000 0.500000 0.815743
#
# Coordination Sequence:
#
# PCOD9367124 Si02
#       8
#     4   8   8   8   8   8   8   8
#     4  10  24  40  72  98 150 184 244 302 366 428
#     4  11  25  46  76 107 145 188 247 302 374 445
#     4  10  24  41  68 103 140 187 247 299 354 447
#     4  10  22  42  64 104 140 191 241 293 361 421
#     4  11  26  46  71 104 140 194 245 302 366 437
#     4  11  25  48  76 108 147 191 237 317 375 448
#     4  11  26  43  69  98 145 192 240 299 360 426
#     4  11  23  45  70 101 143 188 238 302 376 429
#
# _framework density 23.664518000000001
#
# number of rings (size 3 to 8) (size 9 to 14) (size 15 to 20)
#    0.000    1.333    1.333    3.200    9.333    3.733 
#    0.000    0.000    0.000    0.000    0.000    0.000 
#    0.000    0.000    0.000    0.000    0.000    0.000 
#
# Total GULP energy -167633.394338 kJ/mol
# GULP energy per Si atom -5587.779811 kJ/mol
# Density = 2.361066 g / cm^3
# Si number density = 23.664518 Si / 1000 Ang^3
#
#
#
# Elastic Constant Matrix: (Units=GPa)
#
#
# Indices 1 2 3 4 5 6 
#
# 1 92.1978 41.3127 25.6451 0.0000 0.0000 0.0000
# 2 41.3127 120.6644 21.3887 0.0000 0.0000 0.0000
# 3 25.6451 21.3887 109.2283 0.0000 0.0000 0.0000
# 4 0.0000 0.0000 0.0000 19.1348 0.0000 0.0000
# 5 0.0000 0.0000 0.0000 0.0000 31.8000 0.0000
# 6 0.0000 0.0000 0.0000 0.0000 0.0000 36.1585
#
#
#
# Elastic Compliance Matrix: (Units=1/GPa)
#
#
# Indices 1 2 3 4 5 6 
#
# 1 0.013357 -0.004162 -0.002321 0.000000 0.000000 0.000000
# 2 -0.004162 0.009882 -0.000958 0.000000 0.000000 0.000000
# 3 -0.002321 -0.000958 0.009888 0.000000 0.000000 0.000000
# 4 0.000000 0.000000 0.000000 0.052261 0.000000 0.000000
# 5 0.000000 0.000000 0.000000 0.000000 0.031447 0.000000
# 6 0.000000 0.000000 0.000000 0.000000 0.000000 0.027656
#
#
# Mechanical properties :
#
#
# Convention : Reuss Voigt Hill
#
# Bulk Modulus (GPa) = 54.80903 55.42038 55.11471
# Shear Modulus (GPa) = 30.22016 33.00161 31.61088
#
# Velocity S-wave (km/s) = 3.57742 3.73843 3.65881
# Velocity P-wave (km/s) = 6.34626 6.48880 6.41793
#
# Compressibility (1/GPa) = 0.01824517
#
# Stress axis : x y z
#
# Youngs Moduli (GPa) = 74.86940 101.19319 101.13608
#
# Poissons Ratio (x) = 0.42112 0.23474
# Poissons Ratio (y) = 0.31157 0.09689
# Poissons Ratio (z) = 0.17377 0.09694
#
# Static dielectric constant tensor:
#      x y z
#    x 1.937760 0.000000 0.000000 
#    y 0.000000 1.909860 0.000000 
#    z 0.000000 0.000000 1.939650 
# 
# From -- ./inp_files/12462.got.cif
#   From: 2010.05.17/outbox.cif.g08.bks.cpg/sg41_7_cif.got.tgz:12462.got - 2010.06.03 18:54:24.
