data_PCOD9367184
_publ_section_title
;
Structure prediction by ZEFSAII (Michael W. Deem and Ramdas Pophale) SiO2 
 PCOD9367184
Probable space group: A B A 2
;
_chemical_formula_sum "Si O2"
_cell_formula_units_Z 60
_cell_length_a 12.362956
_cell_length_b 17.599540
_cell_length_c 11.446038
_cell_angle_alpha 90.000000
_cell_angle_beta 90.000000
_cell_angle_gamma 90.000000
_cell_volume 2490.455716
_symmetry_space_group_name_H-M "A B A 2"
_symmetry_group_IT_number 41
_symmetry_cell_setting 'orthorhombic'
loop_
_space_group_symop_operation_xyz
x,y,z
-x,-y,z
1/2-x,y,1/2+z
1/2+x,-y,1/2+z
x,1/2+y,1/2+z
-x,1/2-y,1/2+z
1/2-x,1/2+y,z
1/2+x,1/2-y,z
loop_
_atom_site_type_symbol
_atom_site_label
_atom_site_fract_x
_atom_site_fract_y
_atom_site_fract_z
Si Si1 0.970005 0.914938 0.910900
Si Si2 0.712958 0.249237 0.025306
Si Si3 0.816123 0.901259 0.126892
Si Si4 0.338494 0.360463 0.164306
Si Si5 0.084766 0.565457 0.141571
Si Si6 0.995312 0.724409 0.115569
Si Si7 0.839162 0.688687 0.333932
Si Si8 0.000000 0.000000 0.185004
O O1 0.924356 0.919558 0.780498
O O2 0.077691 0.864372 0.905934
O O3 0.878461 0.897101 0.003789
O O4 0.000000 0.000000 0.946655
O O5 0.727394 0.313953 0.125901
O O6 0.749574 0.165341 0.068871
O O7 0.584270 0.245009 0.008690
O O8 0.788038 0.256414 0.911661
O O9 0.709407 0.952226 0.118915
O O10 0.905645 0.934619 0.215931
O O11 0.422548 0.290167 0.151564
O O12 0.265048 0.356037 0.281508
O O13 0.407841 0.436420 0.151192
O O14 0.000000 0.500000 0.111138
O O15 0.049132 0.644613 0.085770
O O16 0.915801 0.713316 0.226597
#
# Coordination Sequence:
#
# PCOD9367184 Si02
#       8
#     8   8   8   8   8   8   8   4
#     4  10  23  42  66 100 135 180 234 283 359 432
#     4  11  24  41  69  99 135 180 232 290 355 417
#     4  12  24  42  71 101 135 184 229 294 352 430
#     4  11  24  46  67 101 140 183 235 295 352 425
#     4  10  24  43  68  97 140 187 232 291 358 423
#     4  10  22  43  66  99 132 180 237 286 349 423
#     4  10  25  41  71  97 135 186 229 292 350 429
#     4  12  26  42  72 106 146 184 236 294 366 420
#
# _framework density 24.091978000000001
#
# number of rings (size 3 to 8) (size 9 to 14) (size 15 to 20)
#    0.000    1.333    3.333    0.800   11.200    0.000 
#    0.000    0.000    2.933    0.000    0.000    0.000 
#    0.000    0.000    0.000    0.000    0.000    0.000 
#
# Total GULP energy -167013.759356 kJ/mol
# GULP energy per Si atom -5567.125312 kJ/mol
# Density = 2.403714 g / cm^3
# Si number density = 24.091978 Si / 1000 Ang^3
#
#
#
# Elastic Constant Matrix: (Units=GPa)
#
#
# Indices 1 2 3 4 5 6 
#
# 1 221.7828 92.3978 31.3803 0.0000 0.0000 0.0000
# 2 92.3978 161.8841 9.7095 0.0000 0.0000 0.0000
# 3 31.3803 9.7095 36.9677 0.0000 0.0000 0.0000
# 4 0.0000 0.0000 0.0000 21.2552 0.0000 0.0000
# 5 0.0000 0.0000 0.0000 0.0000 50.4099 0.0000
# 6 0.0000 0.0000 0.0000 0.0000 0.0000 54.2362
#
#
#
# Elastic Compliance Matrix: (Units=1/GPa)
#
#
# Indices 1 2 3 4 5 6 
#
# 1 0.006636 -0.003505 -0.004712 0.000000 0.000000 0.000000
# 2 -0.003505 0.008127 0.000841 0.000000 0.000000 0.000000
# 3 -0.004712 0.000841 0.030830 0.000000 0.000000 0.000000
# 4 0.000000 0.000000 0.000000 0.047047 0.000000 0.000000
# 5 0.000000 0.000000 0.000000 0.000000 0.019837 0.000000
# 6 0.000000 0.000000 0.000000 0.000000 0.000000 0.018438
#
#
# Mechanical properties :
#
#
# Convention : Reuss Voigt Hill
#
# Bulk Modulus (GPa) = 32.42573 76.40108 54.41340
# Shear Modulus (GPa) = 32.06180 44.32340 38.19260
#
# Velocity S-wave (km/s) = 3.65198 4.29389 3.98588
# Velocity P-wave (km/s) = 5.59205 7.50763 6.61950
#
# Compressibility (1/GPa) = 0.03083971
#
# Stress axis : x y z
#
# Youngs Moduli (GPa) = 150.69673 123.04198 32.43600
#
# Poissons Ratio (x) = 0.43125 0.15285
# Poissons Ratio (y) = 0.52817 -0.02726
# Poissons Ratio (z) = 0.71013 -0.10342
#
# Static dielectric constant tensor:
#      x y z
#    x 1.977810 0.000000 0.000000 
#    y 0.000000 2.115330 0.000000 
#    z 0.000000 0.000000 1.877760 
# 
# From -- ./inp_files/8064.got.cif
#   From: 2010.05.17/outbox.cif.g08.bks.cpg/sg41_5_cif.got.tgz:8064.got - 2010.06.03 18:54:24.
