data_PCOD9367095
_publ_section_title
;
Structure prediction by ZEFSAII (Michael W. Deem and Ramdas Pophale) SiO2 
 PCOD9367095
Probable space group: A B A 2
;
_chemical_formula_sum "Si O2"
_cell_formula_units_Z 40
_cell_length_a 13.615829
_cell_length_b 23.533100
_cell_length_c 5.103017
_cell_angle_alpha 90.000000
_cell_angle_beta 90.000000
_cell_angle_gamma 90.000000
_cell_volume 1635.122309
_symmetry_space_group_name_H-M "A B A 2"
_symmetry_group_IT_number 41
_symmetry_cell_setting 'orthorhombic'
loop_
_space_group_symop_operation_xyz
x,y,z
-x,-y,z
1/2-x,y,1/2+z
1/2+x,-y,1/2+z
x,1/2+y,1/2+z
-x,1/2-y,1/2+z
1/2-x,1/2+y,z
1/2+x,1/2-y,z
loop_
_atom_site_type_symbol
_atom_site_label
_atom_site_fract_x
_atom_site_fract_y
_atom_site_fract_z
Si Si1 0.969854 0.874579 0.744810
Si Si2 0.686373 0.599699 0.597892
Si Si3 0.191866 0.207811 0.491763
Si Si4 0.535533 0.216171 0.602789
Si Si5 0.687055 0.963384 0.153264
O O1 0.889130 0.836024 0.597800
O O2 0.914973 0.934755 0.739185
O O3 0.076682 0.876304 0.613192
O O4 0.995178 0.845392 0.024954
O O5 0.740639 0.615194 0.332146
O O6 0.675713 0.531218 0.632686
O O7 0.217648 0.199989 0.189569
O O8 0.148743 0.270657 0.540428
O O9 0.515518 0.242236 0.886062
O O10 0.767882 0.946428 0.372154
#
# Coordination Sequence:
#
# PCOD9367095 Si02
#       5
#     8   8   8   8   8
#     4  11  23  41  68  94 125 170 217 261 318 384
#     4  10  24  42  62  92 130 168 212 261 318 379
#     4  11  23  40  62  92 126 162 205 259 315 373
#     4  10  23  40  58  86 124 163 207 259 312 372
#     4  10  22  41  64  96 130 163 207 264 322 384
#
# _framework density 24.463004000000002
#
# number of rings (size 3 to 8) (size 9 to 14) (size 15 to 20)
#    0.000    1.600    0.000    4.200    0.000   11.200 
#    0.000    6.000    0.000    0.000    0.000    0.000 
#    0.000    0.000    0.000    0.000    0.000    0.000 
#
# Total GULP energy -111864.484432 kJ/mol
# GULP energy per Si atom -5593.224222 kJ/mol
# Density = 2.440733 g / cm^3
# Si number density = 24.463004 Si / 1000 Ang^3
#
#
#
# Elastic Constant Matrix: (Units=GPa)
#
#
# Indices 1 2 3 4 5 6 
#
# 1 116.9260 22.0644 20.4135 0.0000 0.0000 0.0000
# 2 22.0644 69.6593 16.6368 0.0000 0.0000 0.0000
# 3 20.4135 16.6368 92.5225 0.0000 0.0000 0.0000
# 4 0.0000 0.0000 0.0000 27.5233 0.0000 0.0000
# 5 0.0000 0.0000 0.0000 0.0000 41.6819 0.0000
# 6 0.0000 0.0000 0.0000 0.0000 0.0000 60.4724
#
#
#
# Elastic Compliance Matrix: (Units=1/GPa)
#
#
# Indices 1 2 3 4 5 6 
#
# 1 0.009316 -0.002570 -0.001593 0.000000 0.000000 0.000000
# 2 -0.002570 0.015709 -0.002258 0.000000 0.000000 0.000000
# 3 -0.001593 -0.002258 0.011566 0.000000 0.000000 0.000000
# 4 0.000000 0.000000 0.000000 0.036333 0.000000 0.000000
# 5 0.000000 0.000000 0.000000 0.000000 0.023991 0.000000
# 6 0.000000 0.000000 0.000000 0.000000 0.000000 0.016536
#
#
# Mechanical properties :
#
#
# Convention : Reuss Voigt Hill
#
# Bulk Modulus (GPa) = 42.10851 44.14858 43.12854
# Shear Modulus (GPa) = 37.25545 40.60173 38.92859
#
# Velocity S-wave (km/s) = 3.90671 4.07839 3.99347
# Velocity P-wave (km/s) = 6.13191 6.34538 6.23956
#
# Compressibility (1/GPa) = 0.02374817
#
# Stress axis : x y z
#
# Youngs Moduli (GPa) = 107.34720 63.65826 86.46303
#
# Poissons Ratio (x) = 0.16361 0.13775
# Poissons Ratio (y) = 0.27590 0.19520
# Poissons Ratio (z) = 0.17102 0.14372
#
# Static dielectric constant tensor:
#      x y z
#    x 1.976520 0.000000 0.000000 
#    y 0.000000 2.040470 0.000000 
#    z 0.000000 0.000000 1.941850 
# 
# From -- ./inp_files/123.got.cif
#   From: 2010.05.17/outbox.cif.g08.bks.cpg/sg41_1_cif.got.tgz:123.got - 2010.06.03 18:54:24.
