data_PCOD9367882
_publ_section_title
;
Structure prediction by ZEFSAII (Michael W. Deem and Ramdas Pophale) SiO2 
 PCOD9367882
Probable space group: A B A 2
;
_chemical_formula_sum "Si O2"
_cell_formula_units_Z 64
_cell_length_a 13.684111
_cell_length_b 18.508392
_cell_length_c 10.373003
_cell_angle_alpha 90.000000
_cell_angle_beta 90.000000
_cell_angle_gamma 90.000000
_cell_volume 2627.179708
_symmetry_space_group_name_H-M "A B A 2"
_symmetry_group_IT_number 41
_symmetry_cell_setting 'orthorhombic'
loop_
_space_group_symop_operation_xyz
x,y,z
-x,-y,z
1/2-x,y,1/2+z
1/2+x,-y,1/2+z
x,1/2+y,1/2+z
-x,1/2-y,1/2+z
1/2-x,1/2+y,z
1/2+x,1/2-y,z
loop_
_atom_site_type_symbol
_atom_site_label
_atom_site_fract_x
_atom_site_fract_y
_atom_site_fract_z
Si Si1 0.860407 0.542330 0.863700
Si Si2 0.335948 0.364860 0.894500
Si Si3 0.521863 0.823525 0.228184
Si Si4 0.463109 0.419815 0.117529
Si Si5 0.411847 0.540512 0.626346
Si Si6 0.267932 0.595360 0.286989
Si Si7 0.786036 0.279502 0.391228
Si Si8 0.609607 0.299158 0.127675
O O1 0.756640 0.583732 0.861547
O O2 0.935583 0.584025 0.770570
O O3 0.848202 0.465398 0.793135
O O4 0.888246 0.512755 0.006386
O O5 0.437117 0.363473 0.812447
O O6 0.292953 0.283808 0.874873
O O7 0.370105 0.391702 0.035924
O O8 0.548639 0.877127 0.109364
O O9 0.623083 0.799049 0.296302
O O10 0.471114 0.749607 0.191791
O O11 0.500000 0.500000 0.084966
O O12 0.550113 0.367260 0.076757
O O13 0.500000 0.500000 0.696668
O O14 0.321643 0.555568 0.720014
O O15 0.249362 0.637037 0.421876
O O16 0.306654 0.666410 0.215164
O O17 0.840353 0.252008 0.519298
#
# Coordination Sequence:
#
# PCOD9367882 Si02
#       8
#     8   8   8   8   8   8   8   8
#     4  12  26  44  75 110 150 198 261 320 383 464
#     4  12  27  47  77 112 156 206 261 318 392 469
#     4  11  26  49  75 110 157 202 257 326 388 466
#     4  12  27  47  73 109 155 201 255 326 392 460
#     4  11  26  45  73 113 146 200 254 316 388 468
#     4  11  24  46  72 104 149 197 251 320 389 461
#     4  11  26  47  74 110 150 205 256 317 387 463
#     4  12  25  46  72 105 150 198 257 313 388 459
#
# _framework density 24.360724000000001
#
# number of rings (size 3 to 8) (size 9 to 14) (size 15 to 20)
#    0.000    0.500    3.750    3.375    5.250    4.500 
#    0.000    0.000    0.000    0.000    0.000    0.000 
#    0.000    0.000    0.000    0.000    0.000    0.000 
#
# Total GULP energy -178377.603913 kJ/mol
# GULP energy per Si atom -5574.300122 kJ/mol
# Density = 2.430528 g / cm^3
# Si number density = 24.360724 Si / 1000 Ang^3
#
#
#
# Elastic Constant Matrix: (Units=GPa)
#
#
# Indices 1 2 3 4 5 6 
#
# 1 109.8409 41.0984 7.7993 0.0000 0.0000 0.0000
# 2 41.0984 113.3140 27.4933 0.0000 0.0000 0.0000
# 3 7.7993 27.4933 38.7415 0.0000 0.0000 0.0000
# 4 0.0000 0.0000 0.0000 17.7729 0.0000 0.0000
# 5 0.0000 0.0000 0.0000 0.0000 29.2505 0.0000
# 6 0.0000 0.0000 0.0000 0.0000 0.0000 54.7338
#
#
#
# Elastic Compliance Matrix: (Units=1/GPa)
#
#
# Indices 1 2 3 4 5 6 
#
# 1 0.010550 -0.004000 0.000715 0.000000 0.000000 0.000000
# 2 -0.004000 0.012177 -0.007836 0.000000 0.000000 0.000000
# 3 0.000715 -0.007836 0.031229 0.000000 0.000000 0.000000
# 4 0.000000 0.000000 0.000000 0.056265 0.000000 0.000000
# 5 0.000000 0.000000 0.000000 0.000000 0.034188 0.000000
# 6 0.000000 0.000000 0.000000 0.000000 0.000000 0.018270
#
#
# Mechanical properties :
#
#
# Convention : Reuss Voigt Hill
#
# Bulk Modulus (GPa) = 31.53253 46.07540 38.80396
# Shear Modulus (GPa) = 25.57627 32.71845 29.14736
#
# Velocity S-wave (km/s) = 3.24373 3.66878 3.46278
# Velocity P-wave (km/s) = 5.19626 6.07466 5.65255
#
# Compressibility (1/GPa) = 0.03171328
#
# Stress axis : x y z
#
# Youngs Moduli (GPa) = 94.78752 82.12155 32.02114
#
# Poissons Ratio (x) = 0.32847 -0.02288
# Poissons Ratio (y) = 0.37913 0.25093
# Poissons Ratio (z) = -0.06774 0.64353
#
# Static dielectric constant tensor:
#      x y z
#    x 2.071140 0.000000 0.000000 
#    y 0.000000 1.961030 0.000000 
#    z 0.000000 0.000000 2.239470 
# 
# From -- ./inp_files/5728.got.cif
#   From: 2010.05.17/outbox.cif.g08.bks.cpg/sg41_3_cif.got.tgz:5728.got - 2010.06.03 18:54:24.
