data_PCOD9367451
_publ_section_title
;
Structure prediction by ZEFSAII (Michael W. Deem and Ramdas Pophale) SiO2 
 PCOD9367451
Probable space group: A B A 2
;
_chemical_formula_sum "Si O2"
_cell_formula_units_Z 56
_cell_length_a 6.746733
_cell_length_b 24.015703
_cell_length_c 14.427522
_cell_angle_alpha 90.000000
_cell_angle_beta 90.000000
_cell_angle_gamma 90.000000
_cell_volume 2337.655839
_symmetry_space_group_name_H-M "A B A 2"
_symmetry_group_IT_number 41
_symmetry_cell_setting 'orthorhombic'
loop_
_space_group_symop_operation_xyz
x,y,z
-x,-y,z
1/2-x,y,1/2+z
1/2+x,-y,1/2+z
x,1/2+y,1/2+z
-x,1/2-y,1/2+z
1/2-x,1/2+y,z
1/2+x,1/2-y,z
loop_
_atom_site_type_symbol
_atom_site_label
_atom_site_fract_x
_atom_site_fract_y
_atom_site_fract_z
Si Si1 0.730121 0.545575 0.313180
Si Si2 0.106420 0.188084 0.870555
Si Si3 0.001125 0.607785 0.656528
Si Si4 0.813461 0.922445 0.781801
Si Si5 0.269485 0.873204 0.470832
Si Si6 0.841896 0.738076 0.046821
Si Si7 0.081900 0.764352 0.190600
O O1 0.610082 0.565722 0.224127
O O2 0.720344 0.479106 0.321189
O O3 0.682299 0.577193 0.409304
O O4 0.954759 0.563931 0.286756
O O5 0.226495 0.132738 0.842113
O O6 0.094495 0.229792 0.785460
O O7 0.180325 0.220765 0.959184
O O8 0.892358 0.163972 0.897875
O O9 0.230093 0.593443 0.679612
O O10 0.921604 0.605617 0.551458
O O11 0.951264 0.669109 0.696179
O O12 0.133487 0.827409 0.520570
O O13 0.585303 0.742814 0.071289
O O14 0.836364 0.743107 0.165845
#
# Coordination Sequence:
#
# PCOD9367451 Si02
#       7
#     8   8   8   8   8   8   8
#     4  10  23  48  68 100 138 179 234 288 346 394
#     4  11  23  41  64  94 138 175 213 291 339 398
#     4  11  22  45  70 102 132 184 230 279 347 419
#     4  10  24  43  73  98 135 182 229 288 340 406
#     4  10  24  40  66  98 137 181 220 284 347 404
#     4  11  22  40  59 101 132 172 224 260 347 424
#     4  11  25  37  65  99 135 171 223 277 343 417
#
# _framework density 23.95562
#
# number of rings (size 3 to 8) (size 9 to 14) (size 15 to 20)
#    0.000    1.429    2.857    2.143   12.000    1.143 
#   10.286    2.857    3.143    0.000    0.000    0.000 
#    0.000    0.000    0.000    0.000    0.000    0.000 
#
# Total GULP energy -156351.753625 kJ/mol
# GULP energy per Si atom -5583.991201 kJ/mol
# Density = 2.390110 g / cm^3
# Si number density = 23.955620 Si / 1000 Ang^3
#
#
#
# Elastic Constant Matrix: (Units=GPa)
#
#
# Indices 1 2 3 4 5 6 
#
# 1 95.5635 22.2162 39.1949 0.0000 0.0000 0.0000
# 2 22.2162 98.1193 56.3516 0.0000 0.0000 0.0000
# 3 39.1949 56.3516 137.9430 0.0000 0.0000 0.0000
# 4 0.0000 0.0000 0.0000 38.7531 0.0000 0.0000
# 5 0.0000 0.0000 0.0000 0.0000 40.2781 0.0000
# 6 0.0000 0.0000 0.0000 0.0000 0.0000 35.2872
#
#
#
# Elastic Compliance Matrix: (Units=1/GPa)
#
#
# Indices 1 2 3 4 5 6 
#
# 1 0.011917 -0.000985 -0.002984 0.000000 0.000000 0.000000
# 2 -0.000985 0.013397 -0.005193 0.000000 0.000000 0.000000
# 3 -0.002984 -0.005193 0.010219 0.000000 0.000000 0.000000
# 4 0.000000 0.000000 0.000000 0.025804 0.000000 0.000000
# 5 0.000000 0.000000 0.000000 0.000000 0.024827 0.000000
# 6 0.000000 0.000000 0.000000 0.000000 0.000000 0.028339
#
#
# Mechanical properties :
#
#
# Convention : Reuss Voigt Hill
#
# Bulk Modulus (GPa) = 58.10711 63.01679 60.56195
# Shear Modulus (GPa) = 36.08466 37.12123 36.60295
#
# Velocity S-wave (km/s) = 3.88534 3.94075 3.91314
# Velocity P-wave (km/s) = 6.66608 6.86066 6.76407
#
# Compressibility (1/GPa) = 0.01720960
#
# Stress axis : x y z
#
# Youngs Moduli (GPa) = 83.91409 74.64292 97.86010
#
# Poissons Ratio (x) = 0.07349 0.29200
# Poissons Ratio (y) = 0.08262 0.50820
# Poissons Ratio (z) = 0.25039 0.38763
#
# Static dielectric constant tensor:
#      x y z
#    x 2.176330 0.000000 0.000000 
#    y 0.000000 1.850890 0.000000 
#    z 0.000000 0.000000 1.840000 
# 
# From -- ./inp_files/7469.got.cif
#   From: 2010.05.17/outbox.cif.g08.bks.cpg/sg41_4_cif.got.tgz:7469.got - 2010.06.03 18:54:24.
