data_PCOD9367350
_publ_section_title
;
Structure prediction by ZEFSAII (Michael W. Deem and Ramdas Pophale) SiO2 
 PCOD9367350
Probable space group: A B A 2
;
_chemical_formula_sum "Si O2"
_cell_formula_units_Z 40
_cell_length_a 11.749473
_cell_length_b 15.763414
_cell_length_c 8.473828
_cell_angle_alpha 90.000000
_cell_angle_beta 90.000000
_cell_angle_gamma 90.000000
_cell_volume 1569.452998
_symmetry_space_group_name_H-M "A B A 2"
_symmetry_group_IT_number 41
_symmetry_cell_setting 'orthorhombic'
loop_
_space_group_symop_operation_xyz
x,y,z
-x,-y,z
1/2-x,y,1/2+z
1/2+x,-y,1/2+z
x,1/2+y,1/2+z
-x,1/2-y,1/2+z
1/2-x,1/2+y,z
1/2+x,1/2-y,z
loop_
_atom_site_type_symbol
_atom_site_label
_atom_site_fract_x
_atom_site_fract_y
_atom_site_fract_z
Si Si1 0.467065 0.206578 0.301540
Si Si2 0.686250 0.401110 0.001643
Si Si3 0.863497 0.134336 0.195113
Si Si4 0.909998 0.376055 0.840812
Si Si5 0.129034 0.926852 0.838596
O O1 0.383361 0.181429 0.444410
O O2 0.383841 0.264584 0.197788
O O3 0.568012 0.274225 0.336857
O O4 0.529629 0.121730 0.242555
O O5 0.652595 0.409579 0.182881
O O6 0.821686 0.398122 0.977297
O O7 0.639245 0.474974 0.886112
O O8 0.743514 0.103210 0.255474
O O9 0.959040 0.096098 0.314897
O O10 0.884482 0.108849 0.016179
#
# Coordination Sequence:
#
# PCOD9367350 Si02
#       5
#     8   8   8   8   8
#     4  10  23  42  71 100 138 190 230 282 349 418
#     4  12  24  46  76 107 141 185 237 298 352 412
#     4  10  26  46  71 102 147 187 234 283 359 422
#     4  10  26  46  71 102 147 187 234 283 359 422
#     4  12  24  46  76 107 141 185 237 298 352 412
#
# _framework density 25.486587
#
# number of rings (size 3 to 8) (size 9 to 14) (size 15 to 20)
#    1.200    0.000    2.000    3.000    0.000   12.000 
#    3.600    0.000    0.000    0.000    0.000    0.000 
#    0.000    0.000    0.000    0.000    0.000    0.000 
#
# Total GULP energy -111620.180855 kJ/mol
# GULP energy per Si atom -5581.009043 kJ/mol
# Density = 2.542858 g / cm^3
# Si number density = 25.486587 Si / 1000 Ang^3
#
#
#
# Elastic Constant Matrix: (Units=GPa)
#
#
# Indices 1 2 3 4 5 6 
#
# 1 106.5363 24.1013 26.6307 0.0000 0.0000 0.0000
# 2 24.1013 104.8224 19.8342 0.0000 0.0000 0.0000
# 3 26.6307 19.8342 31.2816 0.0000 0.0000 0.0000
# 4 0.0000 0.0000 0.0000 36.4031 0.0000 0.0000
# 5 0.0000 0.0000 0.0000 0.0000 33.2709 0.0000
# 6 0.0000 0.0000 0.0000 0.0000 0.0000 40.9108
#
#
#
# Elastic Compliance Matrix: (Units=1/GPa)
#
#
# Indices 1 2 3 4 5 6 
#
# 1 0.012005 -0.000939 -0.009624 0.000000 0.000000 0.000000
# 2 -0.000939 0.010914 -0.006121 0.000000 0.000000 0.000000
# 3 -0.009624 -0.006121 0.044042 0.000000 0.000000 0.000000
# 4 0.000000 0.000000 0.000000 0.027470 0.000000 0.000000
# 5 0.000000 0.000000 0.000000 0.000000 0.030056 0.000000
# 6 0.000000 0.000000 0.000000 0.000000 0.000000 0.024443
#
#
# Mechanical properties :
#
#
# Convention : Reuss Voigt Hill
#
# Bulk Modulus (GPa) = 29.76863 42.64142 36.20502
# Shear Modulus (GPa) = 25.84030 33.58857 29.71444
#
# Velocity S-wave (km/s) = 3.18760 3.63422 3.41821
# Velocity P-wave (km/s) = 5.02526 5.86322 5.46033
#
# Compressibility (1/GPa) = 0.03359241
#
# Stress axis : x y z
#
# Youngs Moduli (GPa) = 83.30058 91.62560 22.70563
#
# Poissons Ratio (x) = 0.08604 0.21853
# Poissons Ratio (y) = 0.07823 0.13897
# Poissons Ratio (z) = 0.80172 0.56080
#
# Static dielectric constant tensor:
#      x y z
#    x 1.999840 0.000000 0.000000 
#    y 0.000000 2.148300 0.000000 
#    z 0.000000 0.000000 1.983760 
# 
# From -- ./inp_files/1987.got.cif
#   From: 2010.05.17/outbox.cif.g08.bks.cpg/sg41_1_cif.got.tgz:1987.got - 2010.06.03 18:54:24.
