data_PCOD9367519
_publ_section_title
;
Structure prediction by ZEFSAII (Michael W. Deem and Ramdas Pophale) SiO2 
 PCOD9367519
Probable space group: A B A 2
;
_chemical_formula_sum "Si O2"
_cell_formula_units_Z 64
_cell_length_a 22.216112
_cell_length_b 13.345332
_cell_length_c 9.431762
_cell_angle_alpha 90.000000
_cell_angle_beta 90.000000
_cell_angle_gamma 90.000000
_cell_volume 2796.341912
_symmetry_space_group_name_H-M "A B A 2"
_symmetry_group_IT_number 41
_symmetry_cell_setting 'orthorhombic'
loop_
_space_group_symop_operation_xyz
x,y,z
-x,-y,z
1/2-x,y,1/2+z
1/2+x,-y,1/2+z
x,1/2+y,1/2+z
-x,1/2-y,1/2+z
1/2-x,1/2+y,z
1/2+x,1/2-y,z
loop_
_atom_site_type_symbol
_atom_site_label
_atom_site_fract_x
_atom_site_fract_y
_atom_site_fract_z
Si Si1 0.496712 0.808120 0.758030
Si Si2 0.569067 0.378593 0.719002
Si Si3 0.625659 0.069514 0.738317
Si Si4 0.941922 0.940908 0.015913
Si Si5 0.558675 0.444200 0.440935
Si Si6 0.303256 0.151915 0.182642
Si Si7 0.769077 0.083166 0.698841
Si Si8 0.245104 0.283322 0.939857
O O1 0.488348 0.691722 0.729848
O O2 0.531096 0.861566 0.627865
O O3 0.538073 0.833040 0.894699
O O4 0.426843 0.847959 0.771683
O O5 0.559644 0.465997 0.606391
O O6 0.627148 0.330520 0.646271
O O7 0.589081 0.399586 0.877503
O O8 0.601227 0.014775 0.598985
O O9 0.616403 0.987135 0.862816
O O10 0.695629 0.091035 0.714846
O O11 0.000000 0.000000 0.960142
O O12 0.500000 0.500000 0.375125
O O13 0.288636 0.213972 0.324847
O O14 0.288418 0.033347 0.198899
O O15 0.269779 0.202537 0.051303
O O16 0.786189 0.137567 0.549927
O O17 0.788259 0.148001 0.838046
#
# Coordination Sequence:
#
# PCOD9367519 Si02
#       8
#     8   8   8   8   8   8   8   8
#     4   9  18  39  59  85 121 159 198 256 305 384
#     4  12  22  35  60  93 121 158 200 258 330 364
#     4   9  20  39  62  85 113 167 211 238 326 389
#     4   9  20  37  61  88 121 155 204 252 305 394
#     4   9  20  37  61  88 121 155 204 252 305 394
#     4  11  26  42  65  98 129 165 231 265 311 402
#     4  11  23  43  70  87 136 175 208 275 337 359
#     4  10  24  44  62  92 128 164 218 272 310 378
#
# _framework density 22.887042999999998
#
# number of rings (size 3 to 8) (size 9 to 14) (size 15 to 20)
#    0.000    2.000    0.000    4.875    7.000    0.000 
#    0.000    0.000    0.000    0.000    0.000    0.000 
#    0.000    0.000    0.000    0.000    0.000    0.000 
#
# Total GULP energy -178211.997001 kJ/mol
# GULP energy per Si atom -5569.124906 kJ/mol
# Density = 2.283495 g / cm^3
# Si number density = 22.887043 Si / 1000 Ang^3
#
#
#
# Elastic Constant Matrix: (Units=GPa)
#
#
# Indices 1 2 3 4 5 6 
#
# 1 59.0939 -3.4516 8.2770 0.0000 0.0000 0.0000
# 2 -3.4516 84.6195 28.9884 0.0000 0.0000 0.0000
# 3 8.2770 28.9884 122.6854 0.0000 0.0000 0.0000
# 4 0.0000 0.0000 0.0000 23.9337 0.0000 0.0000
# 5 0.0000 0.0000 0.0000 0.0000 6.8642 0.0000
# 6 0.0000 0.0000 0.0000 0.0000 0.0000 20.4966
#
#
#
# Elastic Compliance Matrix: (Units=1/GPa)
#
#
# Indices 1 2 3 4 5 6 
#
# 1 0.017194 0.001195 -0.001442 0.000000 0.000000 0.000000
# 2 0.001195 0.012942 -0.003139 0.000000 0.000000 0.000000
# 3 -0.001442 -0.003139 0.008990 0.000000 0.000000 0.000000
# 4 0.000000 0.000000 0.000000 0.041782 0.000000 0.000000
# 5 0.000000 0.000000 0.000000 0.000000 0.145683 0.000000
# 6 0.000000 0.000000 0.000000 0.000000 0.000000 0.048789
#
#
# Mechanical properties :
#
#
# Convention : Reuss Voigt Hill
#
# Bulk Modulus (GPa) = 30.90766 37.11405 34.01085
# Shear Modulus (GPa) = 17.06863 25.76456 21.41660
#
# Velocity S-wave (km/s) = 2.73385 3.35883 3.06232
# Velocity P-wave (km/s) = 4.84758 5.59407 5.23415
#
# Compressibility (1/GPa) = 0.03235444
#
# Stress axis : x y z
#
# Youngs Moduli (GPa) = 58.15956 77.27058 111.23699
#
# Poissons Ratio (x) = -0.09238 0.16046
# Poissons Ratio (y) = -0.06953 0.34912
# Poissons Ratio (z) = 0.08389 0.24251
#
# Static dielectric constant tensor:
#      x y z
#    x 1.879190 0.000000 0.000000 
#    y 0.000000 2.068440 0.000000 
#    z 0.000000 0.000000 1.887250 
# 
# From -- ./inp_files/3710.got.cif
#   From: 2010.05.17/outbox.cif.g08.bks.cpg/sg41_2_cif.got.tgz:3710.got - 2010.06.03 18:54:24.
