data_PCOD9367080
_publ_section_title
;
Structure prediction by ZEFSAII (Michael W. Deem and Ramdas Pophale) SiO2 
 PCOD9367080
Probable space group: A B A 2
;
_chemical_formula_sum "Si O2"
_cell_formula_units_Z 56
_cell_length_a 20.815494
_cell_length_b 8.872789
_cell_length_c 12.999537
_cell_angle_alpha 90.000000
_cell_angle_beta 90.000000
_cell_angle_gamma 90.000000
_cell_volume 2400.903808
_symmetry_space_group_name_H-M "A B A 2"
_symmetry_group_IT_number 41
_symmetry_cell_setting 'orthorhombic'
loop_
_space_group_symop_operation_xyz
x,y,z
-x,-y,z
1/2-x,y,1/2+z
1/2+x,-y,1/2+z
x,1/2+y,1/2+z
-x,1/2-y,1/2+z
1/2-x,1/2+y,z
1/2+x,1/2-y,z
loop_
_atom_site_type_symbol
_atom_site_label
_atom_site_fract_x
_atom_site_fract_y
_atom_site_fract_z
Si Si1 0.058568 0.395209 0.063690
Si Si2 0.814771 0.798684 0.830663
Si Si3 0.983118 0.787785 0.235141
Si Si4 0.445672 0.625457 0.916356
Si Si5 0.722266 0.871695 0.645937
Si Si6 0.602913 0.558383 0.203140
Si Si7 0.197975 0.913237 0.522496
O O1 0.124444 0.465604 0.026080
O O2 0.000000 0.500000 0.032814
O O3 0.051013 0.356154 0.184130
O O4 0.061029 0.228557 0.016121
O O5 0.872121 0.905415 0.877507
O O6 0.761877 0.874204 0.754595
O O7 0.854544 0.681015 0.761021
O O8 0.789134 0.687778 0.921580
O O9 0.021565 0.735863 0.333758
O O10 0.934042 0.921558 0.260627
O O11 0.041223 0.849451 0.161042
O O12 0.500000 0.500000 0.930966
O O13 0.656663 0.966503 0.642486
O O14 0.708000 0.699382 0.618804
O O15 0.761475 0.941908 0.550905
#
# Coordination Sequence:
#
# PCOD9367080 Si02
#       7
#     8   8   8   8   8   8   8
#     4  11  25  42  68 100 135 172 223 282 338 400
#     4  10  25  45  66 101 142 172 230 283 335 412
#     4  10  22  40  69  94 134 172 216 279 334 400
#     4  10  24  42  67 100 134 174 223 277 342 400
#     4  12  24  45  67  96 133 184 223 279 334 409
#     4  10  22  41  67  95 133 172 219 275 339 392
#     4  11  27  43  69  99 136 178 231 275 343 408
#
# _framework density 23.324549000000001
#
# number of rings (size 3 to 8) (size 9 to 14) (size 15 to 20)
#    0.000    1.429    2.857    0.429   16.000    0.000 
#    0.000    1.429    0.000    0.000    0.000    0.000 
#    0.000    0.000    0.000    0.000    0.000    0.000 
#
# Total GULP energy -156100.253320 kJ/mol
# GULP energy per Si atom -5575.009047 kJ/mol
# Density = 2.327146 g / cm^3
# Si number density = 23.324549 Si / 1000 Ang^3
#
#
#
# Elastic Constant Matrix: (Units=GPa)
#
#
# Indices 1 2 3 4 5 6 
#
# 1 99.6010 30.8693 19.2515 0.0000 0.0000 0.0000
# 2 30.8693 45.4627 -9.8275 0.0000 0.0000 0.0000
# 3 19.2515 -9.8275 49.7810 0.0000 0.0000 0.0000
# 4 0.0000 0.0000 0.0000 24.2636 0.0000 0.0000
# 5 0.0000 0.0000 0.0000 0.0000 14.0209 0.0000
# 6 0.0000 0.0000 0.0000 0.0000 0.0000 41.4009
#
#
#
# Elastic Compliance Matrix: (Units=1/GPa)
#
#
# Indices 1 2 3 4 5 6 
#
# 1 0.015495 -0.012343 -0.008429 0.000000 0.000000 0.000000
# 2 -0.012343 0.032809 0.011250 0.000000 0.000000 0.000000
# 3 -0.008429 0.011250 0.025569 0.000000 0.000000 0.000000
# 4 0.000000 0.000000 0.000000 0.041214 0.000000 0.000000
# 5 0.000000 0.000000 0.000000 0.000000 0.071322 0.000000
# 6 0.000000 0.000000 0.000000 0.000000 0.000000 0.024154
#
#
# Mechanical properties :
#
#
# Convention : Reuss Voigt Hill
#
# Bulk Modulus (GPa) = 18.23848 30.60346 24.42097
# Shear Modulus (GPa) = 20.17091 26.24050 23.20570
#
# Velocity S-wave (km/s) = 2.94393 3.35777 3.15763
# Velocity P-wave (km/s) = 4.40364 5.30867 4.87719
#
# Compressibility (1/GPa) = 0.05482912
#
# Stress axis : x y z
#
# Youngs Moduli (GPa) = 64.53819 30.47950 39.11048
#
# Poissons Ratio (x) = 0.37621 0.32966
# Poissons Ratio (y) = 0.79659 -0.44000
# Poissons Ratio (z) = 0.54398 -0.34290
#
# Static dielectric constant tensor:
#      x y z
#    x 1.925830 0.000000 0.000000 
#    y 0.000000 1.891540 0.000000 
#    z 0.000000 0.000000 1.939120 
# 
# From -- ./inp_files/9005.got.cif
#   From: 2010.05.17/outbox.cif.g08.bks.cpg/sg41_5_cif.got.tgz:9005.got - 2010.06.03 18:54:24.
