data_PCOD9367077
_publ_section_title
;
Structure prediction by ZEFSAII (Michael W. Deem and Ramdas Pophale) SiO2 
 PCOD9367077
Probable space group: A B A 2
;
_chemical_formula_sum "Si O2"
_cell_formula_units_Z 60
_cell_length_a 28.749206
_cell_length_b 8.078424
_cell_length_c 11.607170
_cell_angle_alpha 90.000000
_cell_angle_beta 90.000000
_cell_angle_gamma 90.000000
_cell_volume 2695.745219
_symmetry_space_group_name_H-M "A B A 2"
_symmetry_group_IT_number 41
_symmetry_cell_setting 'orthorhombic'
loop_
_space_group_symop_operation_xyz
x,y,z
-x,-y,z
1/2-x,y,1/2+z
1/2+x,-y,1/2+z
x,1/2+y,1/2+z
-x,1/2-y,1/2+z
1/2-x,1/2+y,z
1/2+x,1/2-y,z
loop_
_atom_site_type_symbol
_atom_site_label
_atom_site_fract_x
_atom_site_fract_y
_atom_site_fract_z
Si Si1 0.441801 0.291380 0.122270
Si Si2 0.672714 0.647603 0.942068
Si Si3 0.291212 0.348736 0.714977
Si Si4 0.809775 0.032683 0.182127
Si Si5 0.500000 0.500000 0.702210
Si Si6 0.858692 0.951067 0.550180
Si Si7 0.077745 0.966956 0.890688
Si Si8 0.891047 0.161726 0.339612
O O1 0.430990 0.379628 0.244539
O O2 0.483772 0.160872 0.131562
O O3 0.396480 0.171737 0.106502
O O4 0.443984 0.413736 0.013706
O O5 0.708397 0.588330 0.846947
O O6 0.622811 0.648848 0.878879
O O7 0.668475 0.533791 0.054163
O O8 0.679203 0.831633 0.989824
O O9 0.240057 0.381005 0.667733
O O10 0.330551 0.439023 0.640185
O O11 0.302377 0.154995 0.719576
O O12 0.842646 0.130711 0.270865
O O13 0.458326 0.448152 0.787517
O O14 0.886107 0.052887 0.453643
O O15 0.097433 0.152831 0.880708
#
# Coordination Sequence:
#
# PCOD9367077 Si02
#       8
#     8   8   8   8   4   8   8   8
#     4  10  23  45  67 100 136 176 220 281 339 410
#     4  11  24  45  65  95 133 180 223 278 341 401
#     4  12  27  41  64  97 133 179 232 289 335 389
#     4  12  26  42  64  98 134 178 234 283 334 397
#     4  10  22  40  68 102 132 168 220 284 332 414
#     4  11  23  42  67  95 130 181 226 274 346 396
#     4  10  22  42  72  93 135 179 218 271 349 401
#     4  11  22  42  65  95 132 176 224 275 330 406
#
# _framework density 22.257294000000002
#
# number of rings (size 3 to 8) (size 9 to 14) (size 15 to 20)
#    0.000    1.067    4.000    3.200    3.733    3.200 
#    0.000    4.000    0.000    0.000    0.000    0.000 
#    0.000    0.000    0.000    0.000    0.000    0.000 
#
# Total GULP energy -167631.476861 kJ/mol
# GULP energy per Si atom -5587.715895 kJ/mol
# Density = 2.220664 g / cm^3
# Si number density = 22.257294 Si / 1000 Ang^3
#
#
#
# Elastic Constant Matrix: (Units=GPa)
#
#
# Indices 1 2 3 4 5 6 
#
# 1 54.2985 8.9513 4.0562 0.0000 0.0000 0.0000
# 2 8.9513 66.7557 30.6665 0.0000 0.0000 0.0000
# 3 4.0562 30.6665 97.1320 0.0000 0.0000 0.0000
# 4 0.0000 0.0000 0.0000 37.3705 0.0000 0.0000
# 5 0.0000 0.0000 0.0000 0.0000 27.3960 0.0000
# 6 0.0000 0.0000 0.0000 0.0000 0.0000 33.2233
#
#
#
# Elastic Compliance Matrix: (Units=1/GPa)
#
#
# Indices 1 2 3 4 5 6 
#
# 1 0.018833 -0.002531 0.000013 0.000000 0.000000 0.000000
# 2 -0.002531 0.017861 -0.005533 0.000000 0.000000 0.000000
# 3 0.000013 -0.005533 0.012042 0.000000 0.000000 0.000000
# 4 0.000000 0.000000 0.000000 0.026759 0.000000 0.000000
# 5 0.000000 0.000000 0.000000 0.000000 0.036502 0.000000
# 6 0.000000 0.000000 0.000000 0.000000 0.000000 0.030099
#
#
# Mechanical properties :
#
#
# Convention : Reuss Voigt Hill
#
# Bulk Modulus (GPa) = 30.64454 33.94825 32.29640
# Shear Modulus (GPa) = 29.57222 31.23211 30.40217
#
# Velocity S-wave (km/s) = 3.64902 3.75004 3.69987
# Velocity P-wave (km/s) = 5.61712 5.83405 5.72661
#
# Compressibility (1/GPa) = 0.03263224
#
# Stress axis : x y z
#
# Youngs Moduli (GPa) = 53.09821 55.98673 83.04426
#
# Poissons Ratio (x) = 0.14171 -0.00105
# Poissons Ratio (y) = 0.13440 0.45952
# Poissons Ratio (z) = -0.00067 0.30980
#
# Static dielectric constant tensor:
#      x y z
#    x 1.829240 0.000000 0.000000 
#    y 0.000000 1.811470 0.000000 
#    z 0.000000 0.000000 1.853510 
# 
# From -- ./inp_files/6635.got.cif
#   From: 2010.05.17/outbox.cif.g08.bks.cpg/sg41_4_cif.got.tgz:6635.got - 2010.06.03 18:54:24.
