data_PCOD9367755
_publ_section_title
;
Structure prediction by ZEFSAII (Michael W. Deem and Ramdas Pophale) SiO2 
 PCOD9367755
Probable space group: A B A 2
;
_chemical_formula_sum "Si O2"
_cell_formula_units_Z 48
_cell_length_a 11.784475
_cell_length_b 11.343173
_cell_length_c 15.936780
_cell_angle_alpha 90.000000
_cell_angle_beta 90.000000
_cell_angle_gamma 90.000000
_cell_volume 2130.322590
_symmetry_space_group_name_H-M "A B A 2"
_symmetry_group_IT_number 41
_symmetry_cell_setting 'orthorhombic'
loop_
_space_group_symop_operation_xyz
x,y,z
-x,-y,z
1/2-x,y,1/2+z
1/2+x,-y,1/2+z
x,1/2+y,1/2+z
-x,1/2-y,1/2+z
1/2-x,1/2+y,z
1/2+x,1/2-y,z
loop_
_atom_site_type_symbol
_atom_site_label
_atom_site_fract_x
_atom_site_fract_y
_atom_site_fract_z
Si Si1 0.034189 0.178842 0.525410
Si Si2 0.081272 0.606775 0.214483
Si Si3 0.834610 0.968665 0.169955
Si Si4 0.950446 0.647690 0.763879
Si Si5 0.857864 0.049481 0.436090
Si Si6 0.888016 0.056767 0.985713
O O1 0.042524 0.153586 0.623307
O O2 0.080592 0.307884 0.506118
O O3 0.904628 0.150677 0.498834
O O4 0.103124 0.076247 0.474912
O O5 0.211998 0.572915 0.199279
O O6 0.060320 0.714372 0.276928
O O7 0.000000 0.500000 0.236559
O O8 0.931792 0.892633 0.218954
O O9 0.854330 0.102633 0.200038
O O10 0.858408 0.980099 0.070483
O O11 0.916426 0.582751 0.849071
O O12 0.723449 0.052026 0.429571
O O13 0.000000 0.000000 0.947639
#
# Coordination Sequence:
#
# PCOD9367755 Si02
#       6
#     8   8   8   8   8   8
#     4  11  22  44  74 103 150 203 249 314 382 450
#     4  12  24  42  77 113 142 201 268 312 368 466
#     4  11  22  45  73 104 153 198 254 315 384 444
#     4  11  26  47  73 105 154 207 244 315 399 446
#     4  11  26  47  73 106 154 203 249 312 397 454
#     4  12  24  43  76 113 143 196 266 316 370 458
#
# _framework density 22.531798999999999
#
# number of rings (size 3 to 8) (size 9 to 14) (size 15 to 20)
#    0.000    0.667    6.667    2.000    4.667    4.000 
#    0.000    0.000    0.000    0.000    0.000    0.000 
#    0.000    0.000    0.000    0.000    0.000    0.000 
#
# Total GULP energy -134126.907884 kJ/mol
# GULP energy per Si atom -5588.621162 kJ/mol
# Density = 2.248052 g / cm^3
# Si number density = 22.531799 Si / 1000 Ang^3
#
#
#
# Elastic Constant Matrix: (Units=GPa)
#
#
# Indices 1 2 3 4 5 6 
#
# 1 173.7119 59.7118 32.4358 0.0000 0.0000 0.0000
# 2 59.7118 143.1376 25.2865 0.0000 0.0000 0.0000
# 3 32.4358 25.2865 77.3438 0.0000 0.0000 0.0000
# 4 0.0000 0.0000 0.0000 22.9617 0.0000 0.0000
# 5 0.0000 0.0000 0.0000 0.0000 16.7030 0.0000
# 6 0.0000 0.0000 0.0000 0.0000 0.0000 19.0330
#
#
#
# Elastic Compliance Matrix: (Units=1/GPa)
#
#
# Indices 1 2 3 4 5 6 
#
# 1 0.007031 -0.002560 -0.002112 0.000000 0.000000 0.000000
# 2 -0.002560 0.008347 -0.001655 0.000000 0.000000 0.000000
# 3 -0.002112 -0.001655 0.014356 0.000000 0.000000 0.000000
# 4 0.000000 0.000000 0.000000 0.043551 0.000000 0.000000
# 5 0.000000 0.000000 0.000000 0.000000 0.059870 0.000000
# 6 0.000000 0.000000 0.000000 0.000000 0.000000 0.052540
#
#
# Mechanical properties :
#
#
# Convention : Reuss Voigt Hill
#
# Bulk Modulus (GPa) = 58.54851 69.89575 64.22213
# Shear Modulus (GPa) = 24.50484 30.19014 27.34749
#
# Velocity S-wave (km/s) = 3.30141 3.66442 3.48764
# Velocity P-wave (km/s) = 6.36974 6.99945 6.69201
#
# Compressibility (1/GPa) = 0.01707985
#
# Stress axis : x y z
#
# Youngs Moduli (GPa) = 142.22883 119.80873 69.65732
#
# Poissons Ratio (x) = 0.30671 0.14709
# Poissons Ratio (y) = 0.36411 0.11530
# Poissons Ratio (z) = 0.30033 0.19831
#
# Static dielectric constant tensor:
#      x y z
#    x 1.834290 0.000000 0.000000 
#    y 0.000000 1.857580 0.000000 
#    z 0.000000 0.000000 1.903230 
# 
# From -- ./inp_files/9979.got.cif
#   From: 2010.05.17/outbox.cif.g08.bks.cpg/sg41_5_cif.got.tgz:9979.got - 2010.06.03 18:54:24.
