data_PCOD9367378
_publ_section_title
;
Structure prediction by ZEFSAII (Michael W. Deem and Ramdas Pophale) SiO2 
 PCOD9367378
Probable space group: A B A 2
;
_chemical_formula_sum "Si O2"
_cell_formula_units_Z 60
_cell_length_a 25.227732
_cell_length_b 12.321181
_cell_length_c 9.350458
_cell_angle_alpha 90.000000
_cell_angle_beta 90.000000
_cell_angle_gamma 90.000000
_cell_volume 2906.453841
_symmetry_space_group_name_H-M "A B A 2"
_symmetry_group_IT_number 41
_symmetry_cell_setting 'orthorhombic'
loop_
_space_group_symop_operation_xyz
x,y,z
-x,-y,z
1/2-x,y,1/2+z
1/2+x,-y,1/2+z
x,1/2+y,1/2+z
-x,1/2-y,1/2+z
1/2-x,1/2+y,z
1/2+x,1/2-y,z
loop_
_atom_site_type_symbol
_atom_site_label
_atom_site_fract_x
_atom_site_fract_y
_atom_site_fract_z
Si Si1 0.274867 0.447234 0.859040
Si Si2 0.500000 0.000000 0.452679
Si Si3 0.159658 0.545702 0.793246
Si Si4 0.246705 0.796562 0.606489
Si Si5 0.064658 0.677862 0.297655
Si Si6 0.919295 0.112610 0.160713
Si Si7 0.854629 0.806340 0.567382
Si Si8 0.163524 0.643825 0.478227
O O1 0.217651 0.497006 0.820731
O O2 0.282283 0.350582 0.742797
O O3 0.316555 0.544521 0.878384
O O4 0.269926 0.395105 0.014940
O O5 0.520292 0.902011 0.353991
O O6 0.453030 0.962262 0.557341
O O7 0.115629 0.452016 0.776014
O O8 0.157939 0.601368 0.639176
O O9 0.149858 0.630686 0.920059
O O10 0.296212 0.715245 0.635313
O O11 0.207770 0.735652 0.497270
O O12 0.046170 0.795691 0.242538
O O13 0.101929 0.634590 0.167741
O O14 0.108765 0.691125 0.420745
O O15 0.880205 0.186047 0.063119
#
# Coordination Sequence:
#
# PCOD9367378 Si02
#       8
#     8   4   8   8   8   8   8   8
#     4  12  24  36  62  99 139 193 228 266 339 410
#     4  12  24  54  76 100 136 180 228 316 356 408
#     4  12  22  42  68 100 140 190 225 280 349 407
#     4  12  23  38  62  96 146 182 226 277 330 414
#     4  10  26  49  72 103 138 175 237 294 347 424
#     4  10  24  47  72 101 137 170 234 291 352 410
#     4  10  23  44  65 103 140 175 233 283 335 432
#     4  12  24  41  66 103 140 188 228 278 344 417
#
# _framework density 20.643713999999999
#
# number of rings (size 3 to 8) (size 9 to 14) (size 15 to 20)
#    0.800    0.000    5.333    2.400    3.733    1.067 
#    2.400    0.000    0.000    0.000    0.000    0.000 
#    0.000    0.000    0.000    0.000    0.000    0.000 
#
# Total GULP energy -167373.412321 kJ/mol
# GULP energy per Si atom -5579.113744 kJ/mol
# Density = 2.059673 g / cm^3
# Si number density = 20.643714 Si / 1000 Ang^3
#
#
#
# Elastic Constant Matrix: (Units=GPa)
#
#
# Indices 1 2 3 4 5 6 
#
# 1 21.3233 -3.5204 4.6165 0.0000 0.0000 0.0000
# 2 -3.5204 72.4453 33.2721 0.0000 0.0000 0.0000
# 3 4.6165 33.2721 92.3032 0.0000 0.0000 0.0000
# 4 0.0000 0.0000 0.0000 47.9289 0.0000 0.0000
# 5 0.0000 0.0000 0.0000 0.0000 25.8947 0.0000
# 6 0.0000 0.0000 0.0000 0.0000 0.0000 26.3843
#
#
#
# Elastic Compliance Matrix: (Units=1/GPa)
#
#
# Indices 1 2 3 4 5 6 
#
# 1 0.048431 0.004154 -0.003920 0.000000 0.000000 0.000000
# 2 0.004154 0.016898 -0.006299 0.000000 0.000000 0.000000
# 3 -0.003920 -0.006299 0.013300 0.000000 0.000000 0.000000
# 4 0.000000 0.000000 0.000000 0.020864 0.000000 0.000000
# 5 0.000000 0.000000 0.000000 0.000000 0.038618 0.000000
# 6 0.000000 0.000000 0.000000 0.000000 0.000000 0.037901
#
#
# Mechanical properties :
#
#
# Convention : Reuss Voigt Hill
#
# Bulk Modulus (GPa) = 15.03751 28.31202 21.67476
# Shear Modulus (GPa) = 23.77439 30.15515 26.96477
#
# Velocity S-wave (km/s) = 3.39728 3.82611 3.61806
# Velocity P-wave (km/s) = 4.76328 5.76743 5.28924
#
# Compressibility (1/GPa) = 0.06650037
#
# Stress axis : x y z
#
# Youngs Moduli (GPa) = 20.64775 59.17755 75.18537
#
# Poissons Ratio (x) = -0.24580 0.29469
# Poissons Ratio (y) = -0.08576 0.47359
# Poissons Ratio (z) = 0.08093 0.37276
#
# Static dielectric constant tensor:
#      x y z
#    x 1.768140 0.000000 0.000000 
#    y 0.000000 1.817930 0.000000 
#    z 0.000000 0.000000 1.740690 
# 
# From -- ./inp_files/3819.got.cif
#   From: 2010.05.17/outbox.cif.g08.bks.cpg/sg41_2_cif.got.tgz:3819.got - 2010.06.03 18:54:24.
