data_PCOD9367016
_publ_section_title
;
Structure prediction by ZEFSAII (Michael W. Deem and Ramdas Pophale) SiO2 
 PCOD9367016
Probable space group: A B A 2
;
_chemical_formula_sum "Si O2"
_cell_formula_units_Z 56
_cell_length_a 22.197744
_cell_length_b 11.434209
_cell_length_c 10.482394
_cell_angle_alpha 90.000000
_cell_angle_beta 90.000000
_cell_angle_gamma 90.000000
_cell_volume 2660.574621
_symmetry_space_group_name_H-M "A B A 2"
_symmetry_group_IT_number 41
_symmetry_cell_setting 'orthorhombic'
loop_
_space_group_symop_operation_xyz
x,y,z
-x,-y,z
1/2-x,y,1/2+z
1/2+x,-y,1/2+z
x,1/2+y,1/2+z
-x,1/2-y,1/2+z
1/2-x,1/2+y,z
1/2+x,1/2-y,z
loop_
_atom_site_type_symbol
_atom_site_label
_atom_site_fract_x
_atom_site_fract_y
_atom_site_fract_z
Si Si1 0.197687 0.358910 0.933070
Si Si2 0.924008 0.619179 0.085441
Si Si3 0.844244 0.320065 0.241259
Si Si4 0.817044 0.010092 0.946806
Si Si5 0.057290 0.651816 0.054025
Si Si6 0.277545 0.159603 0.641138
Si Si7 0.868561 0.739921 0.335221
O O1 0.187291 0.293308 0.800464
O O2 0.246513 0.461194 0.916822
O O3 0.130901 0.381277 0.986036
O O4 0.221591 0.265826 0.039012
O O5 0.936918 0.482197 0.099077
O O6 0.902593 0.681370 0.215045
O O7 0.986612 0.679027 0.043533
O O8 0.848608 0.416025 0.353327
O O9 0.904024 0.287296 0.165754
O O10 0.792140 0.375278 0.153086
O O11 0.848595 0.133617 0.926582
O O12 0.815189 0.947604 0.082798
O O13 0.090438 0.676018 0.920464
O O14 0.310493 0.199297 0.770727
#
# Coordination Sequence:
#
# PCOD9367016 Si02
#       7
#     8   8   8   8   8   8   8
#     4  10  22  39  62  92 130 166 210 258 326 373
#     4  10  24  45  64  91 129 172 212 265 307 380
#     4  11  22  37  63  97 127 164 214 259 316 388
#     4  11  22  38  65  94 128 167 200 268 327 369
#     4  11  24  42  67  92 124 172 222 250 317 383
#     4  10  23  38  60  97 129 159 211 258 320 388
#     4  11  23  45  64  94 129 167 207 268 317 376
#
# _framework density 21.048085
#
# number of rings (size 3 to 8) (size 9 to 14) (size 15 to 20)
#    0.000    1.429    2.857    1.714    8.000    1.143 
#    0.000    0.000    0.000    0.000    0.000    0.000 
#    0.000    0.000    0.000    0.000    0.000    0.000 
#
# Total GULP energy -156260.286359 kJ/mol
# GULP energy per Si atom -5580.724513 kJ/mol
# Density = 2.100018 g / cm^3
# Si number density = 21.048085 Si / 1000 Ang^3
#
#
#
# Elastic Constant Matrix: (Units=GPa)
#
#
# Indices 1 2 3 4 5 6 
#
# 1 99.6314 -2.0901 15.8669 0.0000 0.0000 0.0000
# 2 -2.0901 43.7939 9.7815 0.0000 0.0000 0.0000
# 3 15.8669 9.7815 42.1217 0.0000 0.0000 0.0000
# 4 0.0000 0.0000 0.0000 23.2896 0.0000 0.0000
# 5 0.0000 0.0000 0.0000 0.0000 21.0625 0.0000
# 6 0.0000 0.0000 0.0000 0.0000 0.0000 24.7380
#
#
#
# Elastic Compliance Matrix: (Units=1/GPa)
#
#
# Indices 1 2 3 4 5 6 
#
# 1 0.010770 0.001498 -0.004405 0.000000 0.000000 0.000000
# 2 0.001498 0.024292 -0.006205 0.000000 0.000000 0.000000
# 3 -0.004405 -0.006205 0.026841 0.000000 0.000000 0.000000
# 4 0.000000 0.000000 0.000000 0.042938 0.000000 0.000000
# 5 0.000000 0.000000 0.000000 0.000000 0.047478 0.000000
# 6 0.000000 0.000000 0.000000 0.000000 0.000000 0.040424
#
#
# Mechanical properties :
#
#
# Convention : Reuss Voigt Hill
#
# Bulk Modulus (GPa) = 22.89473 25.85152 24.37312
# Shear Modulus (GPa) = 22.17044 24.61725 23.39385
#
# Velocity S-wave (km/s) = 3.24902 3.42361 3.33745
# Velocity P-wave (km/s) = 4.99758 5.28554 5.14357
#
# Compressibility (1/GPa) = 0.04367818
#
# Stress axis : x y z
#
# Youngs Moduli (GPa) = 92.85135 41.16632 37.25653
#
# Poissons Ratio (x) = -0.06166 0.16411
# Poissons Ratio (y) = -0.13908 0.23119
# Poissons Ratio (z) = 0.40899 0.25545
#
# Static dielectric constant tensor:
#      x y z
#    x 1.824170 0.000000 0.000000 
#    y 0.000000 1.804670 0.000000 
#    z 0.000000 0.000000 1.767420 
# 
# From -- ./inp_files/6207.got.cif
#   From: 2010.05.17/outbox.cif.g08.bks.cpg/sg41_4_cif.got.tgz:6207.got - 2010.06.03 18:54:24.
