data_PCOD9367329
_publ_section_title
;
Structure prediction by ZEFSAII (Michael W. Deem and Ramdas Pophale) SiO2 
 PCOD9367329
Probable space group: A B A 2
;
_chemical_formula_sum "Si O2"
_cell_formula_units_Z 56
_cell_length_a 14.444455
_cell_length_b 10.097608
_cell_length_c 17.189571
_cell_angle_alpha 90.000000
_cell_angle_beta 90.000000
_cell_angle_gamma 90.000000
_cell_volume 2507.175327
_symmetry_space_group_name_H-M "A B A 2"
_symmetry_group_IT_number 41
_symmetry_cell_setting 'orthorhombic'
loop_
_space_group_symop_operation_xyz
x,y,z
-x,-y,z
1/2-x,y,1/2+z
1/2+x,-y,1/2+z
x,1/2+y,1/2+z
-x,1/2-y,1/2+z
1/2-x,1/2+y,z
1/2+x,1/2-y,z
loop_
_atom_site_type_symbol
_atom_site_label
_atom_site_fract_x
_atom_site_fract_y
_atom_site_fract_z
Si Si1 0.799458 0.254555 0.808260
Si Si2 0.303285 0.834203 0.951550
Si Si3 0.529852 0.749624 0.552249
Si Si4 0.343627 0.385595 0.076007
Si Si5 0.089566 0.926081 0.696295
Si Si6 0.760674 0.377648 0.153241
Si Si7 0.420918 0.585585 0.423803
O O1 0.714887 0.216404 0.864641
O O2 0.845266 0.133545 0.762194
O O3 0.770975 0.358294 0.741985
O O4 0.876936 0.313817 0.864398
O O5 0.344814 0.981064 0.950401
O O6 0.375892 0.742939 0.999896
O O7 0.205334 0.853888 0.993934
O O8 0.453579 0.862334 0.569930
O O9 0.559876 0.685450 0.634102
O O10 0.468875 0.650725 0.498393
O O11 0.314260 0.530037 0.108503
O O12 0.292597 0.269217 0.126437
O O13 0.147726 0.033886 0.649118
O O14 0.000000 0.000000 0.728865
O O15 0.500000 0.500000 0.382130
#
# Coordination Sequence:
#
# PCOD9367329 Si02
#       7
#     8   8   8   8   8   8   8
#     4  12  26  44  71 109 152 199 245 318 390 457
#     4  11  23  44  74 104 147 186 252 316 383 455
#     4  11  22  45  75 107 140 199 255 314 383 459
#     4  12  24  44  78 106 143 202 257 310 384 469
#     4  12  24  44  75 105 150 199 255 309 391 467
#     4  12  25  45  73 106 148 198 250 314 388 458
#     4  10  23  41  71 100 142 192 245 303 384 446
#
# _framework density 22.335892999999999
#
# number of rings (size 3 to 8) (size 9 to 14) (size 15 to 20)
#    0.000    0.571    5.714    3.000    0.000    3.429 
#    0.000    2.143    0.000    0.000    0.000    0.000 
#    0.000    0.000    0.000    0.000    0.000    0.000 
#
# Total GULP energy -156457.127010 kJ/mol
# GULP energy per Si atom -5587.754536 kJ/mol
# Density = 2.228506 g / cm^3
# Si number density = 22.335893 Si / 1000 Ang^3
#
#
#
# Elastic Constant Matrix: (Units=GPa)
#
#
# Indices 1 2 3 4 5 6 
#
# 1 98.5407 37.7674 41.7057 0.0000 0.0000 0.0000
# 2 37.7674 98.1288 49.0092 0.0000 0.0000 0.0000
# 3 41.7057 49.0092 114.4230 0.0000 0.0000 0.0000
# 4 0.0000 0.0000 0.0000 29.3036 0.0000 0.0000
# 5 0.0000 0.0000 0.0000 0.0000 77.6248 0.0000
# 6 0.0000 0.0000 0.0000 0.0000 0.0000 40.3613
#
#
#
# Elastic Compliance Matrix: (Units=1/GPa)
#
#
# Indices 1 2 3 4 5 6 
#
# 1 0.012787 -0.003300 -0.003247 0.000000 0.000000 0.000000
# 2 -0.003300 0.013815 -0.004715 0.000000 0.000000 0.000000
# 3 -0.003247 -0.004715 0.011943 0.000000 0.000000 0.000000
# 4 0.000000 0.000000 0.000000 0.034125 0.000000 0.000000
# 5 0.000000 0.000000 0.000000 0.000000 0.012882 0.000000
# 6 0.000000 0.000000 0.000000 0.000000 0.000000 0.024776
#
#
# Mechanical properties :
#
#
# Convention : Reuss Voigt Hill
#
# Bulk Modulus (GPa) = 62.41592 63.11745 62.76669
# Shear Modulus (GPa) = 36.18128 41.63197 38.90663
#
# Velocity S-wave (km/s) = 4.02913 4.32198 4.17812
# Velocity P-wave (km/s) = 7.04628 7.29559 7.17202
#
# Compressibility (1/GPa) = 0.01602155
#
# Stress axis : x y z
#
# Youngs Moduli (GPa) = 78.20358 72.38364 83.73433
#
# Poissons Ratio (x) = 0.23883 0.27193
# Poissons Ratio (y) = 0.25804 0.39478
# Poissons Ratio (z) = 0.25397 0.34126
#
# Static dielectric constant tensor:
#      x y z
#    x 1.795520 0.000000 0.000000 
#    y 0.000000 1.861600 0.000000 
#    z 0.000000 0.000000 1.811540 
# 
# From -- ./inp_files/8386.got.cif
#   From: 2010.05.17/outbox.cif.g08.bks.cpg/sg41_5_cif.got.tgz:8386.got - 2010.06.03 18:54:24.
