data_PCOD9367473
_publ_section_title
;
Structure prediction by ZEFSAII (Michael W. Deem and Ramdas Pophale) SiO2 
 PCOD9367473
Probable space group: A B A 2
;
_chemical_formula_sum "Si O2"
_cell_formula_units_Z 52
_cell_length_a 18.828276
_cell_length_b 8.205712
_cell_length_c 13.093829
_cell_angle_alpha 90.000000
_cell_angle_beta 90.000000
_cell_angle_gamma 90.000000
_cell_volume 2022.988859
_symmetry_space_group_name_H-M "A B A 2"
_symmetry_group_IT_number 41
_symmetry_cell_setting 'orthorhombic'
loop_
_space_group_symop_operation_xyz
x,y,z
-x,-y,z
1/2-x,y,1/2+z
1/2+x,-y,1/2+z
x,1/2+y,1/2+z
-x,1/2-y,1/2+z
1/2-x,1/2+y,z
1/2+x,1/2-y,z
loop_
_atom_site_type_symbol
_atom_site_label
_atom_site_fract_x
_atom_site_fract_y
_atom_site_fract_z
Si Si1 0.521458 0.169938 0.542470
Si Si2 0.871524 0.842631 0.321880
Si Si3 0.158950 0.637890 0.314915
Si Si4 0.679037 0.620463 0.988209
Si Si5 0.000611 0.175311 0.741376
Si Si6 0.770695 0.557227 0.702092
Si Si7 0.500000 0.500000 0.425820
O O1 0.605880 0.163304 0.545769
O O2 0.495507 0.184244 0.657962
O O3 0.495576 0.331963 0.487346
O O4 0.500000 0.000000 0.493121
O O5 0.818616 0.771341 0.408312
O O6 0.928896 0.698182 0.304877
O O7 0.826588 0.910050 0.227132
O O8 0.926579 0.978008 0.363672
O O9 0.172693 0.548239 0.423908
O O10 0.075748 0.672491 0.298125
O O11 0.194138 0.506110 0.237412
O O12 0.199187 0.802625 0.277800
O O13 0.768105 0.605319 0.583317
O O14 0.000000 0.000000 0.688512
#
# Coordination Sequence:
#
# PCOD9367473 Si02
#       7
#     8   8   8   8   8   8   4
#     4  11  24  43  74 113 156 206 257 322 414 479
#     4  11  25  47  78 117 157 206 264 336 403 494
#     4  12  28  49  76 114 155 213 264 341 399 489
#     4  11  26  49  76 112 153 210 264 329 405 488
#     4  12  24  47  78 117 167 199 267 345 410 484
#     4  12  28  53  78 109 160 210 277 327 412 489
#     4  10  24  40  68 114 154 190 258 326 394 476
#
# _framework density 25.704539
#
# number of rings (size 3 to 8) (size 9 to 14) (size 15 to 20)
#    0.000    0.615    3.846    2.769    7.538    2.462 
#    0.000    0.000    0.000    0.000    0.000    0.000 
#    0.000    0.000    0.000    0.000    0.000    0.000 
#
# Total GULP energy -145350.773781 kJ/mol
# GULP energy per Si atom -5590.414376 kJ/mol
# Density = 2.564603 g / cm^3
# Si number density = 25.704539 Si / 1000 Ang^3
#
#
#
# Elastic Constant Matrix: (Units=GPa)
#
#
# Indices 1 2 3 4 5 6 
#
# 1 131.9726 35.8367 43.3978 0.0000 0.0000 0.0000
# 2 35.8367 155.9461 36.6928 0.0000 0.0000 0.0000
# 3 43.3978 36.6928 114.4150 0.0000 0.0000 0.0000
# 4 0.0000 0.0000 0.0000 40.1943 0.0000 0.0000
# 5 0.0000 0.0000 0.0000 0.0000 31.5229 0.0000
# 6 0.0000 0.0000 0.0000 0.0000 0.0000 47.9346
#
#
#
# Elastic Compliance Matrix: (Units=1/GPa)
#
#
# Indices 1 2 3 4 5 6 
#
# 1 0.008914 -0.001355 -0.002947 0.000000 0.000000 0.000000
# 2 -0.001355 0.007142 -0.001776 0.000000 0.000000 0.000000
# 3 -0.002947 -0.001776 0.010427 0.000000 0.000000 0.000000
# 4 0.000000 0.000000 0.000000 0.024879 0.000000 0.000000
# 5 0.000000 0.000000 0.000000 0.000000 0.031723 0.000000
# 6 0.000000 0.000000 0.000000 0.000000 0.000000 0.020862
#
#
# Mechanical properties :
#
#
# Convention : Reuss Voigt Hill
#
# Bulk Modulus (GPa) = 69.79695 70.46537 70.13116
# Shear Modulus (GPa) = 41.36349 43.02412 42.19381
#
# Velocity S-wave (km/s) = 4.01582 4.09564 4.05593
# Velocity P-wave (km/s) = 6.97961 7.05966 7.01975
#
# Compressibility (1/GPa) = 0.01432727
#
# Stress axis : x y z
#
# Youngs Moduli (GPa) = 112.17952 140.01950 95.90084
#
# Poissons Ratio (x) = 0.18976 0.28258
# Poissons Ratio (y) = 0.15203 0.17035
# Poissons Ratio (z) = 0.33055 0.24872
#
# Static dielectric constant tensor:
#      x y z
#    x 1.970230 0.000000 0.000000 
#    y 0.000000 2.113480 0.000000 
#    z 0.000000 0.000000 2.044520 
# 
# From -- ./inp_files/8966.got.cif
#   From: 2010.05.17/outbox.cif.g08.bks.cpg/sg41_5_cif.got.tgz:8966.got - 2010.06.03 18:54:24.
