data_PCOD9367053
_publ_section_title
;
Structure prediction by ZEFSAII (Michael W. Deem and Ramdas Pophale) SiO2 
 PCOD9367053
Probable space group: A B A 2
;
_chemical_formula_sum "Si O2"
_cell_formula_units_Z 60
_cell_length_a 11.503646
_cell_length_b 8.693825
_cell_length_c 26.751323
_cell_angle_alpha 90.000000
_cell_angle_beta 90.000000
_cell_angle_gamma 90.000000
_cell_volume 2675.418143
_symmetry_space_group_name_H-M "A B A 2"
_symmetry_group_IT_number 41
_symmetry_cell_setting 'orthorhombic'
loop_
_space_group_symop_operation_xyz
x,y,z
-x,-y,z
1/2-x,y,1/2+z
1/2+x,-y,1/2+z
x,1/2+y,1/2+z
-x,1/2-y,1/2+z
1/2-x,1/2+y,z
1/2+x,1/2-y,z
loop_
_atom_site_type_symbol
_atom_site_label
_atom_site_fract_x
_atom_site_fract_y
_atom_site_fract_z
Si Si1 0.299575 0.474419 0.622760
Si Si2 0.299778 0.709977 0.695166
Si Si3 0.625076 0.017458 0.749850
Si Si4 0.098601 0.284168 0.504851
Si Si5 0.500000 0.000000 0.943606
Si Si6 0.341007 0.070242 0.863666
Si Si7 0.120046 0.418679 0.400032
Si Si8 0.649981 0.793624 0.558380
O O1 0.367256 0.599210 0.656577
O O2 0.250000 0.343266 0.659582
O O3 0.371065 0.372449 0.584154
O O4 0.194457 0.567872 0.594959
O O5 0.207673 0.596657 0.719956
O O6 0.350185 0.803291 0.741504
O O7 0.626782 0.969849 0.807412
O O8 0.500000 0.000000 0.726206
O O9 0.131442 0.402425 0.460290
O O10 0.224058 0.242101 0.530267
O O11 0.053623 0.131467 0.476940
O O12 0.977149 0.329950 0.533840
O O13 0.401756 0.954421 0.903561
O O14 0.369752 0.246432 0.877462
O O15 0.209134 0.032227 0.873818
O O16 0.000000 0.500000 0.390577
#
# Coordination Sequence:
#
# PCOD9367053 Si02
#       8
#     8   8   8   8   4   8   8   8
#     4   9  21  44  64  96 135 177 230 295 370 415
#     4   9  21  45  66 101 137 174 232 291 358 442
#     4  11  22  43  73 104 135 185 234 294 360 436
#     4  11  25  41  69  98 145 189 249 292 365 423
#     4  10  22  40  64  94 144 186 226 294 362 410
#     4  11  24  44  69 103 147 183 245 297 358 433
#     4  11  28  43  69 102 142 198 241 292 361 427
#     4  11  23  42  65 102 139 184 245 298 354 440
#
# _framework density 22.426400000000001
#
# number of rings (size 3 to 8) (size 9 to 14) (size 15 to 20)
#    0.000    1.600    0.667    2.400    9.333    1.067 
#   24.000    2.000    0.000    0.000    0.000    0.000 
#    0.000    0.000    0.000    0.000    0.000    0.000 
#
# Total GULP energy -167093.572165 kJ/mol
# GULP energy per Si atom -5569.785739 kJ/mol
# Density = 2.237536 g / cm^3
# Si number density = 22.426400 Si / 1000 Ang^3
#
#
#
# Elastic Constant Matrix: (Units=GPa)
#
#
# Indices 1 2 3 4 5 6 
#
# 1 91.5729 29.9148 27.3976 0.0000 0.0000 0.0000
# 2 29.9148 135.4313 48.8229 0.0000 0.0000 0.0000
# 3 27.3976 48.8229 93.2651 0.0000 0.0000 0.0000
# 4 0.0000 0.0000 0.0000 130.7686 0.0000 0.0000
# 5 0.0000 0.0000 0.0000 0.0000 27.7528 0.0000
# 6 0.0000 0.0000 0.0000 0.0000 0.0000 -58.4603
#
#
#
# Elastic Compliance Matrix: (Units=1/GPa)
#
#
# Indices 1 2 3 4 5 6 
#
# 1 0.012297 -0.001743 -0.002700 0.000000 0.000000 0.000000
# 2 -0.001743 0.009348 -0.004382 0.000000 0.000000 0.000000
# 3 -0.002700 -0.004382 0.013809 0.000000 0.000000 0.000000
# 4 0.000000 0.000000 0.000000 0.007647 0.000000 0.000000
# 5 0.000000 0.000000 0.000000 0.000000 0.036032 0.000000
# 6 0.000000 0.000000 0.000000 0.000000 0.000000 -0.017106
#
#
# Mechanical properties :
#
#
# Convention : Reuss Voigt Hill
#
# Bulk Modulus (GPa) = 56.16278 59.17111 57.66695
# Shear Modulus (GPa) = 58.40192 34.28782 46.34487
#
# Velocity S-wave (km/s) = 5.10863 3.91436 4.55084
# Velocity P-wave (km/s) = 7.73919 6.84628 7.30639
#
# Compressibility (1/GPa) = 0.01780539
#
# Stress axis : x y z
#
# Youngs Moduli (GPa) = 81.31746 106.96980 72.41608
#
# Poissons Ratio (x) = 0.18644 0.19553
# Poissons Ratio (y) = 0.14173 0.31731
# Poissons Ratio (z) = 0.21957 0.46872
#
# Static dielectric constant tensor:
#      x y z
#    x 2.042830 0.000000 0.000000 
#    y 0.000000 1.804660 0.000000 
#    z 0.000000 0.000000 1.901890 
# 
# From -- ./inp_files/12534.got.cif
#   From: 2010.05.17/outbox.cif.g08.bks.cpg/sg41_7_cif.got.tgz:12534.got - 2010.06.03 18:54:24.
