data_PCOD9367868
_publ_section_title
;
Structure prediction by ZEFSAII (Michael W. Deem and Ramdas Pophale) SiO2 
 PCOD9367868
Probable space group: A B A 2
;
_chemical_formula_sum "Si O2"
_cell_formula_units_Z 64
_cell_length_a 17.403900
_cell_length_b 11.536658
_cell_length_c 15.326071
_cell_angle_alpha 90.000000
_cell_angle_beta 90.000000
_cell_angle_gamma 90.000000
_cell_volume 3077.212095
_symmetry_space_group_name_H-M "A B A 2"
_symmetry_group_IT_number 41
_symmetry_cell_setting 'orthorhombic'
loop_
_space_group_symop_operation_xyz
x,y,z
-x,-y,z
1/2-x,y,1/2+z
1/2+x,-y,1/2+z
x,1/2+y,1/2+z
-x,1/2-y,1/2+z
1/2-x,1/2+y,z
1/2+x,1/2-y,z
loop_
_atom_site_type_symbol
_atom_site_label
_atom_site_fract_x
_atom_site_fract_y
_atom_site_fract_z
Si Si1 0.947560 0.672953 0.320690
Si Si2 0.654905 0.184326 0.474449
Si Si3 0.669054 0.438743 0.062472
Si Si4 0.908626 0.023761 0.411218
Si Si5 0.426488 0.084629 0.737075
Si Si6 0.819267 0.760031 0.907924
Si Si7 0.388494 0.569434 0.779498
Si Si8 0.156067 0.595525 0.084682
O O1 0.918703 0.712993 0.415198
O O2 0.946356 0.782003 0.256540
O O3 0.889188 0.567795 0.298110
O O4 0.031947 0.619308 0.317915
O O5 0.733671 0.208718 0.421182
O O6 0.655952 0.270842 0.555948
O O7 0.650844 0.053895 0.507986
O O8 0.617194 0.425721 0.146814
O O9 0.756552 0.445014 0.095106
O O10 0.662704 0.332181 0.995563
O O11 0.880231 0.155606 0.399755
O O12 0.880785 0.958350 0.323414
O O13 0.875557 0.974711 0.501466
O O14 0.000000 0.000000 0.414505
O O15 0.500000 0.000000 0.731806
O O16 0.825447 0.851350 0.828110
O O17 0.387100 0.581766 0.675489
#
# Coordination Sequence:
#
# PCOD9367868 Si02
#       8
#     8   8   8   8   8   8   8   8
#     4  11  25  47  68 100 141 183 234 287 349 417
#     4  11  24  47  70  98 144 185 232 288 351 421
#     4  11  26  45  68 105 139 184 236 287 355 417
#     4  11  24  45  70  97 137 186 231 289 349 420
#     4  11  26  45  71 103 138 185 235 285 351 419
#     4  11  25  45  70 103 142 183 234 288 355 423
#     4  11  26  44  70 105 139 182 236 288 357 411
#     4  11  26  43  68 103 139 184 233 289 349 419
#
# _framework density 20.798047
#
# number of rings (size 3 to 8) (size 9 to 14) (size 15 to 20)
#    0.000    1.000    3.750    1.500    8.750    2.000 
#    0.000    0.000    0.000    0.000    0.000    0.000 
#    0.000    0.000    0.000    0.000    0.000    0.000 
#
# Total GULP energy -178866.704796 kJ/mol
# GULP energy per Si atom -5589.584525 kJ/mol
# Density = 2.075071 g / cm^3
# Si number density = 20.798047 Si / 1000 Ang^3
#
#
#
# Elastic Constant Matrix: (Units=GPa)
#
#
# Indices 1 2 3 4 5 6 
#
# 1 45.1590 16.8454 31.2021 0.0000 0.0000 0.0000
# 2 16.8454 120.5715 25.1306 0.0000 0.0000 0.0000
# 3 31.2021 25.1306 110.9272 0.0000 0.0000 0.0000
# 4 0.0000 0.0000 0.0000 123.2959 0.0000 0.0000
# 5 0.0000 0.0000 0.0000 0.0000 74.5107 0.0000
# 6 0.0000 0.0000 0.0000 0.0000 0.0000 27.6804
#
#
#
# Elastic Compliance Matrix: (Units=1/GPa)
#
#
# Indices 1 2 3 4 5 6 
#
# 1 0.028129 -0.002394 -0.007370 0.000000 0.000000 0.000000
# 2 -0.002394 0.008909 -0.001345 0.000000 0.000000 0.000000
# 3 -0.007370 -0.001345 0.011393 0.000000 0.000000 0.000000
# 4 0.000000 0.000000 0.000000 0.008111 0.000000 0.000000
# 5 0.000000 0.000000 0.000000 0.000000 0.013421 0.000000
# 6 0.000000 0.000000 0.000000 0.000000 0.000000 0.036127
#
#
# Mechanical properties :
#
#
# Convention : Reuss Voigt Hill
#
# Bulk Modulus (GPa) = 38.14910 47.00155 42.57533
# Shear Modulus (GPa) = 36.48476 58.66272 47.57374
#
# Velocity S-wave (km/s) = 4.19291 5.31668 4.78788
# Velocity P-wave (km/s) = 6.46708 7.76773 7.14705
#
# Compressibility (1/GPa) = 0.02621294
#
# Stress axis : x y z
#
# Youngs Moduli (GPa) = 35.55033 112.25106 87.77586
#
# Poissons Ratio (x) = 0.26872 0.64690
# Poissons Ratio (y) = 0.08510 0.11805
# Poissons Ratio (z) = 0.26200 0.15096
#
# Static dielectric constant tensor:
#      x y z
#    x 1.730780 0.000000 0.000000 
#    y 0.000000 1.774380 0.000000 
#    z 0.000000 0.000000 1.722470 
# 
# From -- ./inp_files/8824.got.cif
#   From: 2010.05.17/outbox.cif.g08.bks.cpg/sg41_5_cif.got.tgz:8824.got - 2010.06.03 18:54:24.
