data_PCOD9367335
_publ_section_title
;
Structure prediction by ZEFSAII (Michael W. Deem and Ramdas Pophale) SiO2 
 PCOD9367335
Probable space group: A B A 2
;
_chemical_formula_sum "Si O2"
_cell_formula_units_Z 48
_cell_length_a 10.961246
_cell_length_b 20.972464
_cell_length_c 9.241597
_cell_angle_alpha 90.000000
_cell_angle_beta 90.000000
_cell_angle_gamma 90.000000
_cell_volume 2124.498400
_symmetry_space_group_name_H-M "A B A 2"
_symmetry_group_IT_number 41
_symmetry_cell_setting 'orthorhombic'
loop_
_space_group_symop_operation_xyz
x,y,z
-x,-y,z
1/2-x,y,1/2+z
1/2+x,-y,1/2+z
x,1/2+y,1/2+z
-x,1/2-y,1/2+z
1/2-x,1/2+y,z
1/2+x,1/2-y,z
loop_
_atom_site_type_symbol
_atom_site_label
_atom_site_fract_x
_atom_site_fract_y
_atom_site_fract_z
Si Si1 0.590507 0.939551 0.516730
Si Si2 0.287657 0.349311 0.166145
Si Si3 0.007749 0.924735 0.315080
Si Si4 0.350068 0.212352 0.297743
Si Si5 0.921284 0.153292 0.860647
Si Si6 0.819572 0.366181 0.008338
O O1 0.575617 0.908818 0.675000
O O2 0.521617 0.899974 0.394948
O O3 0.734909 0.930786 0.493407
O O4 0.500000 0.000000 0.528044
O O5 0.361157 0.403272 0.255546
O O6 0.319064 0.281219 0.235603
O O7 0.148100 0.358134 0.211430
O O8 0.330174 0.348764 0.999135
O O9 0.949498 0.883550 0.441186
O O10 0.000000 0.000000 0.347052
O O11 0.490282 0.214249 0.353518
O O12 0.257211 0.187480 0.420231
O O13 0.337190 0.162392 0.166469
#
# Coordination Sequence:
#
# PCOD9367335 Si02
#       6
#     8   8   8   8   8   8
#     4   9  20  42  67  92 133 172 220 277 329 397
#     4  11  25  42  68  93 137 172 222 282 337 404
#     4  10  23  42  65  96 129 177 221 272 332 395
#     4  11  25  41  68  95 135 172 225 275 343 403
#     4  10  25  42  61 101 125 175 219 277 336 399
#     4  11  22  43  66 101 130 178 224 278 337 400
#
# _framework density 22.593568999999999
#
# number of rings (size 3 to 8) (size 9 to 14) (size 15 to 20)
#    0.000    1.667    1.667    1.000    9.333    0.000 
#    0.000    3.333    0.000    0.000    0.000    0.000 
#    0.000    0.000    0.000    0.000    0.000    0.000 
#
# Total GULP energy -133828.834803 kJ/mol
# GULP energy per Si atom -5576.201450 kJ/mol
# Density = 2.254214 g / cm^3
# Si number density = 22.593569 Si / 1000 Ang^3
#
#
#
# Elastic Constant Matrix: (Units=GPa)
#
#
# Indices 1 2 3 4 5 6 
#
# 1 69.9639 9.9881 40.1502 0.0000 0.0000 0.0000
# 2 9.9881 61.4359 16.9810 0.0000 0.0000 0.0000
# 3 40.1502 16.9810 111.6322 0.0000 0.0000 0.0000
# 4 0.0000 0.0000 0.0000 -0.2778 0.0000 0.0000
# 5 0.0000 0.0000 0.0000 0.0000 26.6635 0.0000
# 6 0.0000 0.0000 0.0000 0.0000 0.0000 14.7741
#
#
#
# Elastic Compliance Matrix: (Units=1/GPa)
#
#
# Indices 1 2 3 4 5 6 
#
# 1 0.018094 -0.001193 -0.006326 0.000000 0.000000 0.000000
# 2 -0.001193 0.017070 -0.002168 0.000000 0.000000 0.000000
# 3 -0.006326 -0.002168 0.011563 0.000000 0.000000 0.000000
# 4 0.000000 0.000000 0.000000 -3.599128 0.000000 0.000000
# 5 0.000000 0.000000 0.000000 0.000000 0.037504 0.000000
# 6 0.000000 0.000000 0.000000 0.000000 0.000000 0.067686
#
#
# Mechanical properties :
#
#
# Convention : Reuss Voigt Hill
#
# Bulk Modulus (GPa) = 36.55854 41.91896 39.23875
# Shear Modulus (GPa) = -1.46254 19.95947 9.24847
#
# Velocity S-wave (km/s) = -0.80544 2.97545 2.02541
# Velocity P-wave (km/s) = 3.91805 5.51346 4.78275
#
# Compressibility (1/GPa) = 0.02735339
#
# Stress axis : x y z
#
# Youngs Moduli (GPa) = 55.26743 58.58157 86.48251
#
# Poissons Ratio (x) = 0.06989 0.54711
# Poissons Ratio (y) = 0.06594 0.18745
# Poissons Ratio (z) = 0.34963 0.12698
#
# Static dielectric constant tensor:
#      x y z
#    x 1.946970 0.000000 0.000000 
#    y 0.000000 1.926760 0.000000 
#    z 0.000000 0.000000 1.831880 
# 
# From -- ./inp_files/2100.got.cif
#   From: 2010.05.17/outbox.cif.g08.bks.cpg/sg41_2_cif.got.tgz:2100.got - 2010.06.03 18:54:24.
