data_PCOD9367101
_publ_section_title
;
Structure prediction by ZEFSAII (Michael W. Deem and Ramdas Pophale) SiO2 
 PCOD9367101
Probable space group: A B A 2
;
_chemical_formula_sum "Si O2"
_cell_formula_units_Z 40
_cell_length_a 22.984520
_cell_length_b 4.921427
_cell_length_c 15.054656
_cell_angle_alpha 90.000000
_cell_angle_beta 90.000000
_cell_angle_gamma 90.000000
_cell_volume 1702.932063
_symmetry_space_group_name_H-M "A B A 2"
_symmetry_group_IT_number 41
_symmetry_cell_setting 'orthorhombic'
loop_
_space_group_symop_operation_xyz
x,y,z
-x,-y,z
1/2-x,y,1/2+z
1/2+x,-y,1/2+z
x,1/2+y,1/2+z
-x,1/2-y,1/2+z
1/2-x,1/2+y,z
1/2+x,1/2-y,z
loop_
_atom_site_type_symbol
_atom_site_label
_atom_site_fract_x
_atom_site_fract_y
_atom_site_fract_z
Si Si1 0.712623 0.767289 0.471950
Si Si2 0.000000 0.000000 0.823238
Si Si3 0.000000 0.500000 0.935212
Si Si4 0.212805 0.715897 0.258382
Si Si5 0.910147 0.315181 0.561021
Si Si6 0.089651 0.697295 0.180635
O O1 0.734695 0.468536 0.496313
O O2 0.705126 0.775798 0.365152
O O3 0.652497 0.852058 0.515982
O O4 0.972172 0.248914 0.879277
O O5 0.045843 0.158707 0.761823
O O6 0.047169 0.334561 0.992333
O O7 0.235327 0.418893 0.234026
O O8 0.152483 0.792635 0.213695
O O9 0.931498 0.595769 0.604562
O O10 0.904107 0.100520 0.640077
#
# Coordination Sequence:
#
# PCOD9367101 Si02
#       6
#     8   4   4   8   8   8
#     4  10  22  41  66  96 133 177 223 270 329 407
#     4  12  27  48  73  96 132 186 238 280 337 416
#     4  12  27  48  73  96 132 186 238 280 337 416
#     4  10  22  41  66  96 133 177 223 270 329 407
#     4  12  26  44  69 102 139 173 222 288 348 401
#     4  12  26  44  69 102 139 173 222 288 348 401
#
# _framework density 23.488897999999999
#
# number of rings (size 3 to 8) (size 9 to 14) (size 15 to 20)
#    0.000    0.800    0.000    6.600    0.000   11.200 
#    0.000    0.000    0.000    0.000    0.000    0.000 
#    0.000    0.000    0.000    0.000    0.000    0.000 
#
# Total GULP energy -112039.898079 kJ/mol
# GULP energy per Si atom -5601.994904 kJ/mol
# Density = 2.343544 g / cm^3
# Si number density = 23.488898 Si / 1000 Ang^3
#
#
#
# Elastic Constant Matrix: (Units=GPa)
#
#
# Indices 1 2 3 4 5 6 
#
# 1 84.1545 -4.4923 26.4118 0.0000 0.0000 0.0000
# 2 -4.4923 107.3891 15.4047 0.0000 0.0000 0.0000
# 3 26.4118 15.4047 57.1407 0.0000 0.0000 0.0000
# 4 0.0000 0.0000 0.0000 46.6707 0.0000 0.0000
# 5 0.0000 0.0000 0.0000 0.0000 27.2711 0.0000
# 6 0.0000 0.0000 0.0000 0.0000 0.0000 25.1479
#
#
#
# Elastic Compliance Matrix: (Units=1/GPa)
#
#
# Indices 1 2 3 4 5 6 
#
# 1 0.014156 0.001592 -0.006973 0.000000 0.000000 0.000000
# 2 0.001592 0.009866 -0.003396 0.000000 0.000000 0.000000
# 3 -0.006973 -0.003396 0.021639 0.000000 0.000000 0.000000
# 4 0.000000 0.000000 0.000000 0.021427 0.000000 0.000000
# 5 0.000000 0.000000 0.000000 0.000000 0.036669 0.000000
# 6 0.000000 0.000000 0.000000 0.000000 0.000000 0.039765
#
#
# Mechanical properties :
#
#
# Convention : Reuss Voigt Hill
#
# Bulk Modulus (GPa) = 35.57583 35.92583 35.75083
# Shear Modulus (GPa) = 29.33532 33.90861 31.62197
#
# Velocity S-wave (km/s) = 3.53781 3.80360 3.67311
# Velocity P-wave (km/s) = 5.64507 5.88369 5.76562
#
# Compressibility (1/GPa) = 0.02810897
#
# Stress axis : x y z
#
# Youngs Moduli (GPa) = 70.64008 101.36169 46.21275
#
# Poissons Ratio (x) = -0.16141 0.32223
# Poissons Ratio (y) = -0.11249 0.15693
# Poissons Ratio (z) = 0.49255 0.34420
#
# Static dielectric constant tensor:
#      x y z
#    x 1.827070 0.000000 0.000000 
#    y 0.000000 1.841610 0.000000 
#    z 0.000000 0.000000 1.944260 
# 
# From -- ./inp_files/9091.got.cif
#   From: 2010.05.17/outbox.cif.g08.bks.cpg/sg41_5_cif.got.tgz:9091.got - 2010.06.03 18:54:24.
