data_PCOD9367039
_publ_section_title
;
Structure prediction by ZEFSAII (Michael W. Deem and Ramdas Pophale) SiO2 
 PCOD9367039
Probable space group: A B A 2
;
_chemical_formula_sum "Si O2"
_cell_formula_units_Z 48
_cell_length_a 14.401165
_cell_length_b 8.854621
_cell_length_c 17.114544
_cell_angle_alpha 90.000000
_cell_angle_beta 90.000000
_cell_angle_gamma 90.000000
_cell_volume 2182.392878
_symmetry_space_group_name_H-M "A B A 2"
_symmetry_group_IT_number 41
_symmetry_cell_setting 'orthorhombic'
loop_
_space_group_symop_operation_xyz
x,y,z
-x,-y,z
1/2-x,y,1/2+z
1/2+x,-y,1/2+z
x,1/2+y,1/2+z
-x,1/2-y,1/2+z
1/2-x,1/2+y,z
1/2+x,1/2-y,z
loop_
_atom_site_type_symbol
_atom_site_label
_atom_site_fract_x
_atom_site_fract_y
_atom_site_fract_z
Si Si1 0.269660 0.951308 0.671070
Si Si2 0.474546 0.337192 0.492953
Si Si3 0.648995 0.308309 0.575454
Si Si4 0.308366 0.204837 0.782582
Si Si5 0.203299 0.170704 0.939593
Si Si6 0.923281 0.101943 0.890222
O O1 0.333000 0.857784 0.610927
O O2 0.212124 0.824423 0.715517
O O3 0.201553 0.067783 0.628144
O O4 0.319718 0.046157 0.739535
O O5 0.500000 0.500000 0.455236
O O6 0.539491 0.344241 0.570193
O O7 0.366880 0.290426 0.481999
O O8 0.521858 0.189997 0.456195
O O9 0.703674 0.327597 0.492324
O O10 0.227956 0.207376 0.849340
O O11 0.392073 0.270262 0.831310
O O12 0.155173 0.005992 0.928233
O O13 0.000000 0.000000 0.848502
#
# Coordination Sequence:
#
# PCOD9367039 Si02
#       6
#     8   8   8   8   8   8
#     4  10  24  38  68  95 139 184 216 274 359 412
#     4  11  24  38  69 105 129 170 237 283 333 398
#     4  11  22  44  65  98 136 180 225 278 339 415
#     4  11  21  42  68 101 129 181 226 278 349 411
#     4  11  23  40  76  94 133 177 232 287 336 399
#     4  10  22  40  63 102 134 168 225 294 341 397
#
# _framework density 21.994206999999999
#
# number of rings (size 3 to 8) (size 9 to 14) (size 15 to 20)
#    0.000    1.333    3.333    2.000    4.667    0.000 
#    0.000    4.167    7.333    0.000    0.000    0.000 
#    0.000    0.000    0.000    0.000    0.000    0.000 
#
# Total GULP energy -133717.309688 kJ/mol
# GULP energy per Si atom -5571.554570 kJ/mol
# Density = 2.194415 g / cm^3
# Si number density = 21.994207 Si / 1000 Ang^3
#
#
#
# Elastic Constant Matrix: (Units=GPa)
#
#
# Indices 1 2 3 4 5 6 
#
# 1 62.3721 17.5026 18.6397 0.0000 0.0000 0.0000
# 2 17.5026 104.6662 18.7952 0.0000 0.0000 0.0000
# 3 18.6397 18.7952 76.7218 0.0000 0.0000 0.0000
# 4 0.0000 0.0000 0.0000 39.4847 0.0000 0.0000
# 5 0.0000 0.0000 0.0000 0.0000 -19.9759 0.0000
# 6 0.0000 0.0000 0.0000 0.0000 0.0000 31.8711
#
#
#
# Elastic Compliance Matrix: (Units=1/GPa)
#
#
# Indices 1 2 3 4 5 6 
#
# 1 0.017803 -0.002302 -0.003761 0.000000 0.000000 0.000000
# 2 -0.002302 0.010291 -0.001962 0.000000 0.000000 0.000000
# 3 -0.003761 -0.001962 0.014429 0.000000 0.000000 0.000000
# 4 0.000000 0.000000 0.000000 0.025326 0.000000 0.000000
# 5 0.000000 0.000000 0.000000 0.000000 -0.050060 0.000000
# 6 0.000000 0.000000 0.000000 0.000000 0.000000 0.031376
#
#
# Mechanical properties :
#
#
# Convention : Reuss Voigt Hill
#
# Bulk Modulus (GPa) = 37.77461 39.29278 38.53370
# Shear Modulus (GPa) = 67.53174 22.86414 45.19794
#
# Velocity S-wave (km/s) = 5.54716 3.22771 4.53812
# Velocity P-wave (km/s) = 7.63152 5.63867 6.70950
#
# Compressibility (1/GPa) = 0.02647281
#
# Stress axis : x y z
#
# Youngs Moduli (GPa) = 56.17109 97.16865 69.30682
#
# Poissons Ratio (x) = 0.22364 0.26069
# Poissons Ratio (y) = 0.12928 0.13598
# Poissons Ratio (z) = 0.21128 0.19064
#
# Static dielectric constant tensor:
#      x y z
#    x 1.925280 0.000000 0.000000 
#    y 0.000000 1.856610 0.000000 
#    z 0.000000 0.000000 1.855800 
# 
# From -- ./inp_files/10295.got.cif
#   From: 2010.05.17/outbox.cif.g08.bks.cpg/sg41_6_cif.got.tgz:10295.got - 2010.06.03 18:54:24.
