data_PCOD9367306
_publ_section_title
;
Structure prediction by ZEFSAII (Michael W. Deem and Ramdas Pophale) SiO2 
 PCOD9367306
Probable space group: A B A 2
;
_chemical_formula_sum "Si O2"
_cell_formula_units_Z 40
_cell_length_a 10.583623
_cell_length_b 8.730435
_cell_length_c 18.487243
_cell_angle_alpha 90.000000
_cell_angle_beta 90.000000
_cell_angle_gamma 90.000000
_cell_volume 1708.214462
_symmetry_space_group_name_H-M "A B A 2"
_symmetry_group_IT_number 41
_symmetry_cell_setting 'orthorhombic'
loop_
_space_group_symop_operation_xyz
x,y,z
-x,-y,z
1/2-x,y,1/2+z
1/2+x,-y,1/2+z
x,1/2+y,1/2+z
-x,1/2-y,1/2+z
1/2-x,1/2+y,z
1/2+x,1/2-y,z
loop_
_atom_site_type_symbol
_atom_site_label
_atom_site_fract_x
_atom_site_fract_y
_atom_site_fract_z
Si Si1 0.120589 0.177358 0.182270
Si Si2 0.123218 0.714066 0.112548
Si Si3 0.656691 0.388707 0.893582
Si Si4 0.825766 0.512583 0.235757
Si Si5 0.902086 0.225387 0.946507
O O1 0.226461 0.241388 0.124608
O O2 0.133639 0.312845 0.240780
O O3 0.178558 0.026330 0.219315
O O4 0.985764 0.176610 0.144813
O O5 0.114309 0.567327 0.165172
O O6 0.098882 0.711740 0.028059
O O7 0.639773 0.430433 0.809731
O O8 0.794486 0.319583 0.905491
O O9 0.638954 0.545808 0.939599
O O10 0.544642 0.274038 0.916567
#
# Coordination Sequence:
#
# PCOD9367306 Si02
#       5
#     8   8   8   8   8
#     4  10  23  40  69  95 131 172 231 278 338 392
#     4  10  24  41  70  93 134 172 232 269 339 402
#     4  11  26  44  70  97 147 178 233 282 364 406
#     4  10  24  41  71  93 134 177 229 276 341 406
#     4  11  26  45  68 100 140 184 226 289 354 418
#
# _framework density 23.416262
#
# number of rings (size 3 to 8) (size 9 to 14) (size 15 to 20)
#    1.200    0.400    0.000    3.000   11.200    3.200 
#    3.600    2.000    0.000    0.000    0.000    0.000 
#    0.000    0.000    0.000    0.000    0.000    0.000 
#
# Total GULP energy -111523.824906 kJ/mol
# GULP energy per Si atom -5576.191245 kJ/mol
# Density = 2.336297 g / cm^3
# Si number density = 23.416262 Si / 1000 Ang^3
#
#
#
# Elastic Constant Matrix: (Units=GPa)
#
#
# Indices 1 2 3 4 5 6 
#
# 1 85.9870 9.1145 49.9327 0.0000 0.0000 0.0000
# 2 9.1145 40.5397 32.6314 0.0000 0.0000 0.0000
# 3 49.9327 32.6314 163.6386 0.0000 0.0000 0.0000
# 4 0.0000 0.0000 0.0000 -64.7563 0.0000 0.0000
# 5 0.0000 0.0000 0.0000 0.0000 -71.9232 0.0000
# 6 0.0000 0.0000 0.0000 0.0000 0.0000 43.0365
#
#
#
# Elastic Compliance Matrix: (Units=1/GPa)
#
#
# Indices 1 2 3 4 5 6 
#
# 1 0.014138 0.000350 -0.004384 0.000000 0.000000 0.000000
# 2 0.000350 0.029392 -0.005968 0.000000 0.000000 0.000000
# 3 -0.004384 -0.005968 0.008639 0.000000 0.000000 0.000000
# 4 0.000000 0.000000 0.000000 -0.015443 0.000000 0.000000
# 5 0.000000 0.000000 0.000000 0.000000 -0.013904 0.000000
# 6 0.000000 0.000000 0.000000 0.000000 0.000000 0.023236
#
#
# Mechanical properties :
#
#
# Convention : Reuss Voigt Hill
#
# Bulk Modulus (GPa) = 31.08904 52.61361 41.85132
# Shear Modulus (GPa) = 65.11690 -5.49616 29.81037
#
# Velocity S-wave (km/s) = 5.27909 -1.53370 3.57187
# Velocity P-wave (km/s) = 7.10379 4.40242 5.90953
#
# Compressibility (1/GPa) = 0.03216568
#
# Stress axis : x y z
#
# Youngs Moduli (GPa) = 70.72963 34.02256 115.75626
#
# Poissons Ratio (x) = -0.01191 0.50747
# Poissons Ratio (y) = -0.02476 0.69083
# Poissons Ratio (z) = 0.31008 0.20305
#
# Static dielectric constant tensor:
#      x y z
#    x 2.075530 0.000000 0.000000 
#    y 0.000000 1.983860 0.000000 
#    z 0.000000 0.000000 1.869370 
# 
# From -- ./inp_files/11352.got.cif
#   From: 2010.05.17/outbox.cif.g08.bks.cpg/sg41_6_cif.got.tgz:11352.got - 2010.06.03 18:54:24.
