data_PCOD9367255
_publ_section_title
;
Structure prediction by ZEFSAII (Michael W. Deem and Ramdas Pophale) SiO2 
 PCOD9367255
Probable space group: A B A 2
;
_chemical_formula_sum "Si O2"
_cell_formula_units_Z 64
_cell_length_a 12.959468
_cell_length_b 23.297053
_cell_length_c 9.318289
_cell_angle_alpha 90.000000
_cell_angle_beta 90.000000
_cell_angle_gamma 90.000000
_cell_volume 2813.353707
_symmetry_space_group_name_H-M "A B A 2"
_symmetry_group_IT_number 41
_symmetry_cell_setting 'orthorhombic'
loop_
_space_group_symop_operation_xyz
x,y,z
-x,-y,z
1/2-x,y,1/2+z
1/2+x,-y,1/2+z
x,1/2+y,1/2+z
-x,1/2-y,1/2+z
1/2-x,1/2+y,z
1/2+x,1/2-y,z
loop_
_atom_site_type_symbol
_atom_site_label
_atom_site_fract_x
_atom_site_fract_y
_atom_site_fract_z
Si Si1 0.094744 0.361409 0.194940
Si Si2 0.812424 0.206463 0.944979
Si Si3 0.327163 0.687823 0.875848
Si Si4 0.023570 0.434989 0.760402
Si Si5 0.517243 0.257954 0.652984
Si Si6 0.569080 0.053320 0.424991
Si Si7 0.861009 0.845505 0.184699
Si Si8 0.208381 0.912376 0.467477
O O1 0.164571 0.316360 0.284233
O O2 0.038031 0.392786 0.326951
O O3 0.029388 0.318480 0.095378
O O4 0.142941 0.416144 0.113223
O O5 0.736854 0.259797 0.945125
O O6 0.757976 0.149649 0.003432
O O7 0.909287 0.225775 0.040183
O O8 0.419253 0.719134 0.790561
O O9 0.250217 0.660954 0.758261
O O10 0.351337 0.647415 0.012029
O O11 0.047447 0.436162 0.591736
O O12 0.123865 0.411936 0.842725
O O13 0.000000 0.500000 0.809109
O O14 0.923913 0.394686 0.767475
O O15 0.430805 0.211987 0.697624
O O16 0.694684 0.048417 0.425132
O O17 0.500000 0.000000 0.379404
#
# Coordination Sequence:
#
# PCOD9367255 Si02
#       8
#     8   8   8   8   8   8   8   8
#     4  11  23  39  68 105 139 187 239 288 352 424
#     4  11  21  39  63 102 141 189 226 279 353 437
#     4  12  24  42  66 106 144 189 236 285 371 425
#     4  11  26  50  70 101 139 188 243 299 370 425
#     4  12  23  40  66 106 147 186 230 289 356 442
#     4  10  22  45  72 101 139 182 238 291 361 426
#     4  12  26  44  70 100 148 192 233 303 357 441
#     4  11  23  43  74 101 136 184 241 299 347 432
#
# _framework density 22.748650999999999
#
# number of rings (size 3 to 8) (size 9 to 14) (size 15 to 20)
#    0.000    0.750    2.500    6.750    1.750    0.500 
#    6.750    0.000    0.000    0.000    0.000    0.000 
#    0.000    0.000    0.000    0.000    0.000    0.000 
#
# Total GULP energy -178645.047913 kJ/mol
# GULP energy per Si atom -5582.657747 kJ/mol
# Density = 2.269687 g / cm^3
# Si number density = 22.748651 Si / 1000 Ang^3
#
#
#
# Elastic Constant Matrix: (Units=GPa)
#
#
# Indices 1 2 3 4 5 6 
#
# 1 72.2750 35.7722 45.5673 0.0000 0.0000 0.0000
# 2 35.7722 80.6678 27.3730 0.0000 0.0000 0.0000
# 3 45.5673 27.3730 79.8966 0.0000 0.0000 0.0000
# 4 0.0000 0.0000 0.0000 25.3097 0.0000 0.0000
# 5 0.0000 0.0000 0.0000 0.0000 35.7847 0.0000
# 6 0.0000 0.0000 0.0000 0.0000 0.0000 36.2823
#
#
#
# Elastic Compliance Matrix: (Units=1/GPa)
#
#
# Indices 1 2 3 4 5 6 
#
# 1 0.024639 -0.006968 -0.011665 0.000000 0.000000 0.000000
# 2 -0.006968 0.015998 -0.001507 0.000000 0.000000 0.000000
# 3 -0.011665 -0.001507 0.019685 0.000000 0.000000 0.000000
# 4 0.000000 0.000000 0.000000 0.039511 0.000000 0.000000
# 5 0.000000 0.000000 0.000000 0.000000 0.027945 0.000000
# 6 0.000000 0.000000 0.000000 0.000000 0.000000 0.027562
#
#
# Mechanical properties :
#
#
# Convention : Reuss Voigt Hill
#
# Bulk Modulus (GPa) = 49.89425 50.02936 49.96181
# Shear Modulus (GPa) = 24.71562 27.75045 26.23304
#
# Velocity S-wave (km/s) = 3.29973 3.49646 3.39952
# Velocity P-wave (km/s) = 6.04137 6.19195 6.11712
#
# Compressibility (1/GPa) = 0.02004239
#
# Stress axis : x y z
#
# Youngs Moduli (GPa) = 40.58528 62.50858 50.79881
#
# Poissons Ratio (x) = 0.43556 0.59258
# Poissons Ratio (y) = 0.28280 0.07655
# Poissons Ratio (z) = 0.47344 0.09419
#
# Static dielectric constant tensor:
#      x y z
#    x 1.973780 0.000000 0.000000 
#    y 0.000000 1.875480 0.000000 
#    z 0.000000 0.000000 1.966640 
# 
# From -- ./inp_files/2804.got.cif
#   From: 2010.05.17/outbox.cif.g08.bks.cpg/sg41_2_cif.got.tgz:2804.got - 2010.06.03 18:54:24.
