data_PCOD9367042
_publ_section_title
;
Structure prediction by ZEFSAII (Michael W. Deem and Ramdas Pophale) SiO2 
 PCOD9367042
Probable space group: A B A 2
;
_chemical_formula_sum "Si O2"
_cell_formula_units_Z 64
_cell_length_a 21.942382
_cell_length_b 13.742388
_cell_length_c 8.436252
_cell_angle_alpha 90.000000
_cell_angle_beta 90.000000
_cell_angle_gamma 90.000000
_cell_volume 2543.873562
_symmetry_space_group_name_H-M "A B A 2"
_symmetry_group_IT_number 41
_symmetry_cell_setting 'orthorhombic'
loop_
_space_group_symop_operation_xyz
x,y,z
-x,-y,z
1/2-x,y,1/2+z
1/2+x,-y,1/2+z
x,1/2+y,1/2+z
-x,1/2-y,1/2+z
1/2-x,1/2+y,z
1/2+x,1/2-y,z
loop_
_atom_site_type_symbol
_atom_site_label
_atom_site_fract_x
_atom_site_fract_y
_atom_site_fract_z
Si Si1 0.383200 0.944366 0.724050
Si Si2 0.707805 0.783212 0.058457
Si Si3 0.757656 0.143744 0.311969
Si Si4 0.937193 0.728402 0.890181
Si Si5 0.329308 0.648729 0.987672
Si Si6 0.108540 0.144619 0.327154
Si Si7 0.364476 0.961783 0.342293
Si Si8 0.468872 0.331278 0.721528
O O1 0.315561 0.925884 0.796845
O O2 0.424576 0.849971 0.755776
O O3 0.374907 0.947440 0.533348
O O4 0.414079 0.033496 0.821593
O O5 0.734496 0.682999 0.980884
O O6 0.757197 0.860983 0.006013
O O7 0.645135 0.816379 0.980295
O O8 0.718959 0.746261 0.234935
O O9 0.693704 0.092925 0.263726
O O10 0.871067 0.756385 0.959264
O O11 0.969430 0.824357 0.821209
O O12 0.975150 0.682086 0.034326
O O13 0.348996 0.575069 0.849043
O O14 0.347948 0.631716 0.172563
O O15 0.063372 0.230841 0.279857
O O16 0.424813 0.920509 0.260814
#
# Coordination Sequence:
#
# PCOD9367042 Si02
#       8
#     8   8   8   8   8   8   8   8
#     4  11  23  40  64  93 123 163 210 255 309 368
#     4  12  20  39  62  92 129 169 204 250 309 370
#     4  12  21  36  65  90 130 166 202 250 310 368
#     4  11  24  43  67  89 120 162 205 265 314 372
#     4  10  22  40  63  90 124 165 207 250 314 373
#     4  10  22  41  63  89 124 167 206 251 310 381
#     4  11  23  41  63  91 125 166 208 252 308 380
#     4  11  23  44  65  88 121 162 208 259 320 372
#
# _framework density 25.158483
#
# number of rings (size 3 to 8) (size 9 to 14) (size 15 to 20)
#    0.000    1.000    5.000    2.250    0.000    1.000 
#    2.250    5.000    0.000    0.000    0.000    0.000 
#    0.000    0.000    0.000    0.000    0.000    0.000 
#
# Total GULP energy -178418.992128 kJ/mol
# GULP energy per Si atom -5575.593504 kJ/mol
# Density = 2.510122 g / cm^3
# Si number density = 25.158483 Si / 1000 Ang^3
#
#
#
# Elastic Constant Matrix: (Units=GPa)
#
#
# Indices 1 2 3 4 5 6 
#
# 1 51.0152 -0.5644 2.1126 0.0000 0.0000 0.0000
# 2 -0.5644 63.5666 -6.8495 0.0000 0.0000 0.0000
# 3 2.1126 -6.8495 70.0697 0.0000 0.0000 0.0000
# 4 0.0000 0.0000 0.0000 27.0328 0.0000 0.0000
# 5 0.0000 0.0000 0.0000 0.0000 30.8930 0.0000
# 6 0.0000 0.0000 0.0000 0.0000 0.0000 17.7093
#
#
#
# Elastic Compliance Matrix: (Units=1/GPa)
#
#
# Indices 1 2 3 4 5 6 
#
# 1 0.019627 0.000112 -0.000581 0.000000 0.000000 0.000000
# 2 0.000112 0.015900 0.001551 0.000000 0.000000 0.000000
# 3 -0.000581 0.001551 0.014441 0.000000 0.000000 0.000000
# 4 0.000000 0.000000 0.000000 0.036992 0.000000 0.000000
# 5 0.000000 0.000000 0.000000 0.000000 0.032370 0.000000
# 6 0.000000 0.000000 0.000000 0.000000 0.000000 0.056468
#
#
# Mechanical properties :
#
#
# Convention : Reuss Voigt Hill
#
# Bulk Modulus (GPa) = 19.18245 19.33875 19.26060
# Shear Modulus (GPa) = 26.17655 27.79053 26.98354
#
# Velocity S-wave (km/s) = 3.22913 3.32719 3.27852
# Velocity P-wave (km/s) = 4.64157 4.73959 4.69084
#
# Compressibility (1/GPa) = 0.05213099
#
# Stress axis : x y z
#
# Youngs Moduli (GPa) = 50.94947 62.89453 69.24908
#
# Poissons Ratio (x) = -0.00703 0.04022
# Poissons Ratio (y) = -0.00569 -0.10740
# Poissons Ratio (z) = 0.02959 -0.09754
#
# Static dielectric constant tensor:
#      x y z
#    x 2.013120 0.000000 0.000000 
#    y 0.000000 2.176000 0.000000 
#    z 0.000000 0.000000 2.021550 
# 
# From -- ./inp_files/3702.got.cif
#   From: 2010.05.17/outbox.cif.g08.bks.cpg/sg41_2_cif.got.tgz:3702.got - 2010.06.03 18:54:24.
