data_PCOD9367696
_publ_section_title
;
Structure prediction by ZEFSAII (Michael W. Deem and Ramdas Pophale) SiO2 
 PCOD9367696
Probable space group: A B A 2
;
_chemical_formula_sum "Si O2"
_cell_formula_units_Z 64
_cell_length_a 17.084956
_cell_length_b 9.343515
_cell_length_c 20.534115
_cell_angle_alpha 90.000000
_cell_angle_beta 90.000000
_cell_angle_gamma 90.000000
_cell_volume 3277.933523
_symmetry_space_group_name_H-M "A B A 2"
_symmetry_group_IT_number 41
_symmetry_cell_setting 'orthorhombic'
loop_
_space_group_symop_operation_xyz
x,y,z
-x,-y,z
1/2-x,y,1/2+z
1/2+x,-y,1/2+z
x,1/2+y,1/2+z
-x,1/2-y,1/2+z
1/2-x,1/2+y,z
1/2+x,1/2-y,z
loop_
_atom_site_type_symbol
_atom_site_label
_atom_site_fract_x
_atom_site_fract_y
_atom_site_fract_z
Si Si1 0.830874 0.803006 0.334170
Si Si2 0.359836 0.345105 0.194287
Si Si3 0.783170 0.846822 0.194305
Si Si4 0.216830 0.653178 0.549448
Si Si5 0.169126 0.196994 0.909583
Si Si6 0.079298 0.415472 0.413269
Si Si7 0.640164 0.154895 0.549465
Si Si8 0.920702 0.084528 0.330484
O O1 0.823853 0.777295 0.256984
O O2 0.750000 0.771757 0.371877
O O3 0.900411 0.713195 0.365751
O O4 0.851356 0.969691 0.341062
O O5 0.306755 0.203273 0.200432
O O6 0.301560 0.483688 0.197165
O O7 0.396084 0.347701 0.121876
O O8 0.416340 0.362706 0.255581
O O9 0.808916 0.798771 0.121876
O O10 0.176146 0.722705 0.486769
O O11 0.306755 0.703273 0.543321
O O12 0.198440 0.483688 0.546588
O O13 0.099589 0.286805 0.878002
O O14 0.148644 0.030309 0.902691
O O15 0.083660 0.362706 0.488172
O O16 0.000000 0.500000 0.401346
O O17 0.000000 0.000000 0.342407
#
# Coordination Sequence:
#
# PCOD9367696 Si02
#       8
#     8   8   8   8   8   8   8   8
#     4  11  21  36  58  79 106 141 185 220 261 320
#     4   9  18  33  53  78 106 138 177 220 265 315
#     4   9  18  32  53  79 103 132 177 228 262 303
#     4   9  18  32  53  79 103 132 177 228 262 303
#     4  11  21  36  58  79 106 141 185 220 261 320
#     4  11  23  36  53  81 114 144 175 222 274 317
#     4   9  18  33  53  78 106 138 177 220 265 315
#     4  11  23  36  53  81 114 144 175 222 274 317
#
# _framework density 19.524495999999999
#
# number of rings (size 3 to 8) (size 9 to 14) (size 15 to 20)
#    0.000    2.000    2.500    1.500    3.500    0.500 
#    0.000    0.000    0.000    0.750    0.000    0.000 
#    0.000    0.000    0.000    0.000    0.000    0.000 
#
# Total GULP energy -178350.769385 kJ/mol
# GULP energy per Si atom -5573.461543 kJ/mol
# Density = 1.948006 g / cm^3
# Si number density = 19.524496 Si / 1000 Ang^3
#
#
#
# Elastic Constant Matrix: (Units=GPa)
#
#
# Indices 1 2 3 4 5 6 
#
# 1 33.2895 -3.5946 12.4032 0.0000 0.0000 0.0000
# 2 -3.5946 22.6973 29.5348 0.0000 0.0000 0.0000
# 3 12.4032 29.5348 101.3818 0.0000 0.0000 0.0000
# 4 0.0000 0.0000 0.0000 16.9223 0.0000 0.0000
# 5 0.0000 0.0000 0.0000 0.0000 16.7648 0.0000
# 6 0.0000 0.0000 0.0000 0.0000 0.0000 20.0088
#
#
#
# Elastic Compliance Matrix: (Units=1/GPa)
#
#
# Indices 1 2 3 4 5 6 
#
# 1 0.035605 0.018210 -0.009661 0.000000 0.000000 0.000000
# 2 0.018210 0.080270 -0.025612 0.000000 0.000000 0.000000
# 3 -0.009661 -0.025612 0.018507 0.000000 0.000000 0.000000
# 4 0.000000 0.000000 0.000000 0.059094 0.000000 0.000000
# 5 0.000000 0.000000 0.000000 0.000000 0.059649 0.000000
# 6 0.000000 0.000000 0.000000 0.000000 0.000000 0.049978
#
#
# Mechanical properties :
#
#
# Convention : Reuss Voigt Hill
#
# Bulk Modulus (GPa) = 9.97445 26.00615 17.99030
# Shear Modulus (GPa) = 13.48992 18.67421 16.08206
#
# Velocity S-wave (km/s) = 2.63139 3.09601 2.87311
# Velocity P-wave (km/s) = 3.78841 5.11166 4.49895
#
# Compressibility (1/GPa) = 0.10025612
#
# Stress axis : x y z
#
# Youngs Moduli (GPa) = 28.08560 12.45800 54.03351
#
# Poissons Ratio (x) = -0.22686 0.52202
# Poissons Ratio (y) = -0.51144 1.38392
# Poissons Ratio (z) = 0.27134 0.31908
#
# Static dielectric constant tensor:
#      x y z
#    x 1.683810 0.000000 0.000000 
#    y 0.000000 1.694510 0.000000 
#    z 0.000000 0.000000 1.720320 
# 
# From -- ./inp_files/11656.got.cif
#   From: 2010.05.17/outbox.cif.g08.bks.cpg/sg41_6_cif.got.tgz:11656.got - 2010.06.03 18:54:24.
