data_PCOD9367857
_publ_section_title
;
Structure prediction by ZEFSAII (Michael W. Deem and Ramdas Pophale) SiO2 
 PCOD9367857
Probable space group: A B A 2
;
_chemical_formula_sum "Si O2"
_cell_formula_units_Z 56
_cell_length_a 14.831922
_cell_length_b 14.455187
_cell_length_c 11.925519
_cell_angle_alpha 90.000000
_cell_angle_beta 90.000000
_cell_angle_gamma 90.000000
_cell_volume 2556.809880
_symmetry_space_group_name_H-M "A B A 2"
_symmetry_group_IT_number 41
_symmetry_cell_setting 'orthorhombic'
loop_
_space_group_symop_operation_xyz
x,y,z
-x,-y,z
1/2-x,y,1/2+z
1/2+x,-y,1/2+z
x,1/2+y,1/2+z
-x,1/2-y,1/2+z
1/2-x,1/2+y,z
1/2+x,1/2-y,z
loop_
_atom_site_type_symbol
_atom_site_label
_atom_site_fract_x
_atom_site_fract_y
_atom_site_fract_z
Si Si1 0.613440 0.586228 0.121420
Si Si2 0.000000 0.500000 0.417766
Si Si3 0.371268 0.588379 0.472142
Si Si4 0.083385 0.860296 0.763059
Si Si5 0.500000 0.000000 0.815643
Si Si6 0.753203 0.256571 0.864215
Si Si7 0.097175 0.210086 0.687681
Si Si8 0.313713 0.388723 0.542672
O O1 0.578389 0.537506 0.234105
O O2 0.580045 0.692431 0.125810
O O3 0.720628 0.591929 0.108965
O O4 0.570955 0.533693 0.016427
O O5 0.931777 0.541779 0.321032
O O6 0.458957 0.580949 0.392855
O O7 0.293830 0.651113 0.418022
O O8 0.392342 0.631805 0.593279
O O9 0.339453 0.483144 0.482121
O O10 0.161043 0.802713 0.823786
O O11 0.110842 0.866119 0.633865
O O12 0.985681 0.812438 0.769461
O O13 0.686953 0.278768 0.761712
O O14 0.702489 0.194882 0.957001
#
# Coordination Sequence:
#
# PCOD9367857 Si02
#       8
#     8   4   8   8   4   8   8   8
#     4  11  24  47  71 108 150 192 252 315 384 455
#     4  11  24  43  74 106 140 201 250 315 374 466
#     4  12  26  45  73 109 148 200 251 310 388 463
#     4  12  25  46  75 106 148 195 256 313 383 460
#     4  11  26  45  74 108 148 203 252 319 390 452
#     4  12  26  49  73 112 150 204 249 320 390 463
#     4  12  26  48  73 113 148 195 256 315 386 468
#     4  12  26  48  73 106 158 193 252 319 384 460
#
# _framework density 21.902293
#
# number of rings (size 3 to 8) (size 9 to 14) (size 15 to 20)
#    0.000    0.286    4.286    3.429    4.000    2.286 
#    2.571    0.000    0.000    0.000    0.000    0.000 
#    0.000    0.000    0.000    0.000    0.000    0.000 
#
# Total GULP energy -156271.905833 kJ/mol
# GULP energy per Si atom -5581.139494 kJ/mol
# Density = 2.185244 g / cm^3
# Si number density = 21.902293 Si / 1000 Ang^3
#
#
#
# Elastic Constant Matrix: (Units=GPa)
#
#
# Indices 1 2 3 4 5 6 
#
# 1 82.1101 -5.9872 17.7858 0.0000 0.0000 0.0000
# 2 -5.9872 48.5224 19.3230 0.0000 0.0000 0.0000
# 3 17.7858 19.3230 111.2006 0.0000 0.0000 0.0000
# 4 0.0000 0.0000 0.0000 6.1042 0.0000 0.0000
# 5 0.0000 0.0000 0.0000 0.0000 51.7496 0.0000
# 6 0.0000 0.0000 0.0000 0.0000 0.0000 44.2451
#
#
#
# Elastic Compliance Matrix: (Units=1/GPa)
#
#
# Indices 1 2 3 4 5 6 
#
# 1 0.012913 0.002595 -0.002516 0.000000 0.000000 0.000000
# 2 0.002595 0.022663 -0.004353 0.000000 0.000000 0.000000
# 3 -0.002516 -0.004353 0.010152 0.000000 0.000000 0.000000
# 4 0.000000 0.000000 0.000000 0.163821 0.000000 0.000000
# 5 0.000000 0.000000 0.000000 0.000000 0.019324 0.000000
# 6 0.000000 0.000000 0.000000 0.000000 0.000000 0.022601
#
#
# Mechanical properties :
#
#
# Convention : Reuss Voigt Hill
#
# Bulk Modulus (GPa) = 26.89659 33.78626 30.34142
# Shear Modulus (GPa) = 18.35431 34.46721 26.41076
#
# Velocity S-wave (km/s) = 2.89798 3.97127 3.47629
# Velocity P-wave (km/s) = 4.84816 6.04048 5.47686
#
# Compressibility (1/GPa) = 0.03717943
#
# Stress axis : x y z
#
# Youngs Moduli (GPa) = 77.44073 44.12503 98.50593
#
# Poissons Ratio (x) = -0.11452 0.24788
# Poissons Ratio (y) = -0.20099 0.42882
# Poissons Ratio (z) = 0.19487 0.19208
#
# Static dielectric constant tensor:
#      x y z
#    x 1.792370 0.000000 0.000000 
#    y 0.000000 1.832670 0.000000 
#    z 0.000000 0.000000 1.794460 
# 
# From -- ./inp_files/5634.got.cif
#   From: 2010.05.17/outbox.cif.g08.bks.cpg/sg41_3_cif.got.tgz:5634.got - 2010.06.03 18:54:24.
