data_PCOD9367666
_publ_section_title
;
Structure prediction by ZEFSAII (Michael W. Deem and Ramdas Pophale) SiO2 
 PCOD9367666
Probable space group: A B A 2
;
_chemical_formula_sum "Si O2"
_cell_formula_units_Z 36
_cell_length_a 9.530020
_cell_length_b 8.431948
_cell_length_c 18.811016
_cell_angle_alpha 90.000000
_cell_angle_beta 90.000000
_cell_angle_gamma 90.000000
_cell_volume 1511.589911
_symmetry_space_group_name_H-M "A B A 2"
_symmetry_group_IT_number 41
_symmetry_cell_setting 'orthorhombic'
loop_
_space_group_symop_operation_xyz
x,y,z
-x,-y,z
1/2-x,y,1/2+z
1/2+x,-y,1/2+z
x,1/2+y,1/2+z
-x,1/2-y,1/2+z
1/2-x,1/2+y,z
1/2+x,1/2-y,z
loop_
_atom_site_type_symbol
_atom_site_label
_atom_site_fract_x
_atom_site_fract_y
_atom_site_fract_z
Si Si1 0.544202 0.242899 0.912780
Si Si2 0.368671 0.104666 0.168868
Si Si3 0.854174 0.068202 0.088771
Si Si4 0.802065 0.961028 0.456368
Si Si5 0.500000 0.500000 0.806819
O O1 0.425623 0.170180 0.965416
O O2 0.661285 0.368806 0.936742
O O3 0.462447 0.345394 0.853634
O O4 0.636501 0.084345 0.898516
O O5 0.382253 0.273826 0.132566
O O6 0.500000 0.000000 0.140754
O O7 0.216642 0.048138 0.145413
O O8 0.384883 0.074106 0.253023
O O9 0.000000 0.000000 0.061228
O O10 0.739154 0.063680 0.025561
#
# Coordination Sequence:
#
# PCOD9367666 Si02
#       5
#     8   8   8   8   4
#     4  11  25  49  74 119 163 210 260 328 407 476
#     4  10  26  49  74 113 152 209 263 325 402 473
#     4  12  26  47  80 116 158 201 267 339 407 477
#     4  11  27  44  82 118 160 207 261 336 412 480
#     4  10  26  50  78 108 162 210 274 314 392 492
#
# _framework density 23.815982999999999
#
# number of rings (size 3 to 8) (size 9 to 14) (size 15 to 20)
#    0.667    0.444    0.000    4.000   10.889    3.556 
#    4.000    0.000    0.000    0.000    0.000    0.000 
#    0.000    0.000    0.000    0.000    0.000    0.000 
#
# Total GULP energy -100349.690116 kJ/mol
# GULP energy per Si atom -5574.982784 kJ/mol
# Density = 2.376178 g / cm^3
# Si number density = 23.815983 Si / 1000 Ang^3
#
#
#
# Elastic Constant Matrix: (Units=GPa)
#
#
# Indices 1 2 3 4 5 6 
#
# 1 139.8661 49.8938 34.5264 0.0000 0.0000 0.0000
# 2 49.8938 152.1488 52.2649 0.0000 0.0000 0.0000
# 3 34.5264 52.2649 70.4544 0.0000 0.0000 0.0000
# 4 0.0000 0.0000 0.0000 31.7618 0.0000 0.0000
# 5 0.0000 0.0000 0.0000 0.0000 -22.3644 0.0000
# 6 0.0000 0.0000 0.0000 0.0000 0.0000 63.4563
#
#
#
# Elastic Compliance Matrix: (Units=1/GPa)
#
#
# Indices 1 2 3 4 5 6 
#
# 1 0.008493 -0.001819 -0.002813 0.000000 0.000000 0.000000
# 2 -0.001819 0.009210 -0.005941 0.000000 0.000000 0.000000
# 3 -0.002813 -0.005941 0.019979 0.000000 0.000000 0.000000
# 4 0.000000 0.000000 0.000000 0.031484 0.000000 0.000000
# 5 0.000000 0.000000 0.000000 0.000000 -0.044714 0.000000
# 6 0.000000 0.000000 0.000000 0.000000 0.000000 0.015759
#
#
# Mechanical properties :
#
#
# Convention : Reuss Voigt Hill
#
# Bulk Modulus (GPa) = 60.47030 70.64883 65.55956
# Shear Modulus (GPa) = 74.77509 29.62303 52.19906
#
# Velocity S-wave (km/s) = 5.60938 3.53062 4.68671
# Velocity P-wave (km/s) = 8.20971 6.80803 7.54150
#
# Compressibility (1/GPa) = 0.01653704
#
# Stress axis : x y z
#
# Youngs Moduli (GPa) = 117.74620 108.58201 50.05299
#
# Poissons Ratio (x) = 0.19749 0.14078
# Poissons Ratio (y) = 0.21416 0.29734
# Poissons Ratio (z) = 0.33118 0.64504
#
# Static dielectric constant tensor:
#      x y z
#    x 1.964710 0.000000 0.000000 
#    y 0.000000 1.874570 0.000000 
#    z 0.000000 0.000000 2.022750 
# 
# From -- ./inp_files/11072.got.cif
#   From: 2010.05.17/outbox.cif.g08.bks.cpg/sg41_6_cif.got.tgz:11072.got - 2010.06.03 18:54:24.
