data_PCOD9367061
_publ_section_title
;
Structure prediction by ZEFSAII (Michael W. Deem and Ramdas Pophale) SiO2 
 PCOD9367061
Probable space group: A B A 2
;
_chemical_formula_sum "Si O2"
_cell_formula_units_Z 36
_cell_length_a 10.831416
_cell_length_b 11.656599
_cell_length_c 10.277599
_cell_angle_alpha 90.000000
_cell_angle_beta 90.000000
_cell_angle_gamma 90.000000
_cell_volume 1297.623677
_symmetry_space_group_name_H-M "A B A 2"
_symmetry_group_IT_number 41
_symmetry_cell_setting 'orthorhombic'
loop_
_space_group_symop_operation_xyz
x,y,z
-x,-y,z
1/2-x,y,1/2+z
1/2+x,-y,1/2+z
x,1/2+y,1/2+z
-x,1/2-y,1/2+z
1/2-x,1/2+y,z
1/2+x,1/2-y,z
loop_
_atom_site_type_symbol
_atom_site_label
_atom_site_fract_x
_atom_site_fract_y
_atom_site_fract_z
Si Si1 0.500000 0.500000 0.038311
Si Si2 0.607375 0.428588 0.409037
Si Si3 0.486143 0.363940 0.666237
Si Si4 0.834793 0.819029 0.873372
Si Si5 0.754258 0.623074 0.566636
O O1 0.390523 0.419914 0.095605
O O2 0.581390 0.406791 0.957297
O O3 0.500000 0.500000 0.341619
O O4 0.535679 0.350850 0.517090
O O5 0.713166 0.382193 0.316556
O O6 0.684131 0.514606 0.501648
O O7 0.500000 0.500000 0.698656
O O8 0.572197 0.288803 0.758196
O O9 0.340549 0.342773 0.681308
O O10 0.770000 0.724741 0.963747
#
# Coordination Sequence:
#
# PCOD9367061 Si02
#       5
#     4   8   8   8   8
#     4  10  22  40  66 102 142 198 244 308 372 432
#     4   8  19  39  61  91 134 182 226 292 353 428
#     4   9  19  42  67  93 139 195 235 294 362 440
#     4  11  20  39  71  99 138 190 236 299 367 439
#     4   9  21  38  66  99 141 182 239 302 362 438
#
# _framework density 27.743017999999999
#
# number of rings (size 3 to 8) (size 9 to 14) (size 15 to 20)
#    0.000    3.111    1.111    0.000    6.222    0.000 
#    4.000    0.000   22.000    0.000    0.000    0.000 
#    0.000    0.000    0.000    0.000    0.000    0.000 
#
# Total GULP energy -100513.901615 kJ/mol
# GULP energy per Si atom -5584.105645 kJ/mol
# Density = 2.767987 g / cm^3
# Si number density = 27.743018 Si / 1000 Ang^3
#
#
#
# Elastic Constant Matrix: (Units=GPa)
#
#
# Indices 1 2 3 4 5 6 
#
# 1 318.7253 61.1055 72.9850 0.0000 0.0000 0.0000
# 2 61.1055 92.1827 51.3584 0.0000 0.0000 0.0000
# 3 72.9850 51.3584 76.5273 0.0000 0.0000 0.0000
# 4 0.0000 0.0000 0.0000 45.8181 0.0000 0.0000
# 5 0.0000 0.0000 0.0000 0.0000 39.8494 0.0000
# 6 0.0000 0.0000 0.0000 0.0000 0.0000 5.5226
#
#
#
# Elastic Compliance Matrix: (Units=1/GPa)
#
#
# Indices 1 2 3 4 5 6 
#
# 1 0.004056 -0.000852 -0.003296 0.000000 0.000000 0.000000
# 2 -0.000852 0.017505 -0.010936 0.000000 0.000000 0.000000
# 3 -0.003296 -0.010936 0.023550 0.000000 0.000000 0.000000
# 4 0.000000 0.000000 0.000000 0.021825 0.000000 0.000000
# 5 0.000000 0.000000 0.000000 0.000000 0.025094 0.000000
# 6 0.000000 0.000000 0.000000 0.000000 0.000000 0.181072
#
#
# Mechanical properties :
#
#
# Convention : Reuss Voigt Hill
#
# Bulk Modulus (GPa) = 66.91878 95.37034 81.14456
# Shear Modulus (GPa) = 16.22053 38.37047 27.29550
#
# Velocity S-wave (km/s) = 2.42062 3.72300 3.14007
# Velocity P-wave (km/s) = 5.65560 7.27543 6.51605
#
# Compressibility (1/GPa) = 0.01494349
#
# Stress axis : x y z
#
# Youngs Moduli (GPa) = 246.57163 57.12543 42.46334
#
# Poissons Ratio (x) = 0.04867 0.13996
# Poissons Ratio (y) = 0.21007 0.46436
# Poissons Ratio (z) = 0.81273 0.62470
#
# Static dielectric constant tensor:
#      x y z
#    x 2.222030 0.000000 0.000000 
#    y 0.000000 2.267720 0.000000 
#    z 0.000000 0.000000 2.256400 
# 
# From -- ./inp_files/7723.got.cif
#   From: 2010.05.17/outbox.cif.g08.bks.cpg/sg41_4_cif.got.tgz:7723.got - 2010.06.03 18:54:24.
