data_PCOD9367901
_publ_section_title
;
Structure prediction by ZEFSAII (Michael W. Deem and Ramdas Pophale) SiO2 
 PCOD9367901
Probable space group: A B A 2
;
_chemical_formula_sum "Si O2"
_cell_formula_units_Z 36
_cell_length_a 19.822541
_cell_length_b 13.143675
_cell_length_c 5.126709
_cell_angle_alpha 90.000000
_cell_angle_beta 90.000000
_cell_angle_gamma 90.000000
_cell_volume 1335.718077
_symmetry_space_group_name_H-M "A B A 2"
_symmetry_group_IT_number 41
_symmetry_cell_setting 'orthorhombic'
loop_
_space_group_symop_operation_xyz
x,y,z
-x,-y,z
1/2-x,y,1/2+z
1/2+x,-y,1/2+z
x,1/2+y,1/2+z
-x,1/2-y,1/2+z
1/2-x,1/2+y,z
1/2+x,1/2-y,z
loop_
_atom_site_type_symbol
_atom_site_label
_atom_site_fract_x
_atom_site_fract_y
_atom_site_fract_z
Si Si1 0.106145 0.207127 0.198490
Si Si2 0.500000 0.000000 0.009428
Si Si3 0.383527 0.023073 0.343088
Si Si4 0.707106 0.614929 0.535754
Si Si5 0.951377 0.669220 0.611842
O O1 0.083419 0.416970 0.432081
O O2 0.156454 0.290718 0.078711
O O3 0.096678 0.239430 0.502436
O O4 0.028760 0.210460 0.087223
O O5 0.537762 0.088178 0.848771
O O6 0.553452 0.939572 0.177683
O O7 0.325597 0.990130 0.142079
O O8 0.369167 0.098025 0.584462
O O9 0.730204 0.621681 0.237063
#
# Coordination Sequence:
#
# PCOD9367901 Si02
#       5
#     8   4   8   8   8
#     4  11  25  46  77 114 160 214 264 346 417 515
#     4  12  22  46  76 122 164 200 266 338 442 506
#     4  11  25  48  79 112 164 214 270 351 428 509
#     4  11  30  51  74 112 162 225 293 347 408 507
#     4  11  25  42  74 122 161 198 259 337 429 507
#
# _framework density 26.951795000000001
#
# number of rings (size 3 to 8) (size 9 to 14) (size 15 to 20)
#    0.000    0.889    4.444    0.000   12.444    3.556 
#    0.000    0.000    0.000    0.000    0.000    0.000 
#    0.000    0.000    0.000    0.000    0.000    0.000 
#
# Total GULP energy -100262.462242 kJ/mol
# GULP energy per Si atom -5570.136791 kJ/mol
# Density = 2.689045 g / cm^3
# Si number density = 26.951795 Si / 1000 Ang^3
#
#
#
# Elastic Constant Matrix: (Units=GPa)
#
#
# Indices 1 2 3 4 5 6 
#
# 1 68.3137 8.6506 27.5200 0.0000 0.0000 0.0000
# 2 8.6506 145.9013 48.7072 0.0000 0.0000 0.0000
# 3 27.5200 48.7072 97.7185 0.0000 0.0000 0.0000
# 4 0.0000 0.0000 0.0000 48.4969 0.0000 0.0000
# 5 0.0000 0.0000 0.0000 0.0000 47.6076 0.0000
# 6 0.0000 0.0000 0.0000 0.0000 0.0000 52.3315
#
#
#
# Elastic Compliance Matrix: (Units=1/GPa)
#
#
# Indices 1 2 3 4 5 6 
#
# 1 0.016569 0.000690 -0.005010 0.000000 0.000000 0.000000
# 2 0.000690 0.008251 -0.004307 0.000000 0.000000 0.000000
# 3 -0.005010 -0.004307 0.013791 0.000000 0.000000 0.000000
# 4 0.000000 0.000000 0.000000 0.020620 0.000000 0.000000
# 5 0.000000 0.000000 0.000000 0.000000 0.021005 0.000000
# 6 0.000000 0.000000 0.000000 0.000000 0.000000 0.019109
#
#
# Mechanical properties :
#
#
# Convention : Reuss Voigt Hill
#
# Bulk Modulus (GPa) = 46.82247 53.52102 50.17174
# Shear Modulus (GPa) = 40.41425 44.82425 42.61925
#
# Velocity S-wave (km/s) = 3.87654 4.08257 3.98089
# Velocity P-wave (km/s) = 6.11941 6.49033 6.30759
#
# Compressibility (1/GPa) = 0.02135727
#
# Stress axis : x y z
#
# Youngs Moduli (GPa) = 60.35235 121.19966 72.50939
#
# Poissons Ratio (x) = -0.08366 0.36330
# Poissons Ratio (y) = -0.04166 0.31230
# Poissons Ratio (z) = 0.30239 0.52200
#
# Static dielectric constant tensor:
#      x y z
#    x 2.149290 0.000000 0.000000 
#    y 0.000000 2.127160 0.000000 
#    z 0.000000 0.000000 2.287480 
# 
# From -- ./inp_files/634.got.cif
#   From: 2010.05.17/outbox.cif.g08.bks.cpg/sg41_1_cif.got.tgz:634.got - 2010.06.03 18:54:24.
