data_PCOD9367420
_publ_section_title
;
Structure prediction by ZEFSAII (Michael W. Deem and Ramdas Pophale) SiO2 
 PCOD9367420
Probable space group: A B A 2
;
_chemical_formula_sum "Si O2"
_cell_formula_units_Z 64
_cell_length_a 12.702359
_cell_length_b 25.655652
_cell_length_c 7.352994
_cell_angle_alpha 90.000000
_cell_angle_beta 90.000000
_cell_angle_gamma 90.000000
_cell_volume 2396.247377
_symmetry_space_group_name_H-M "A B A 2"
_symmetry_group_IT_number 41
_symmetry_cell_setting 'orthorhombic'
loop_
_space_group_symop_operation_xyz
x,y,z
-x,-y,z
1/2-x,y,1/2+z
1/2+x,-y,1/2+z
x,1/2+y,1/2+z
-x,1/2-y,1/2+z
1/2-x,1/2+y,z
1/2+x,1/2-y,z
loop_
_atom_site_type_symbol
_atom_site_label
_atom_site_fract_x
_atom_site_fract_y
_atom_site_fract_z
Si Si1 0.375958 0.330862 0.557250
Si Si2 0.478357 0.432447 0.463896
Si Si3 0.327027 0.091822 0.730912
Si Si4 0.882074 0.078414 0.809430
Si Si5 0.324061 0.262323 0.979782
Si Si6 0.520773 0.246332 0.798577
Si Si7 0.332928 0.974646 0.676939
Si Si8 0.829299 0.334611 0.427142
O O1 0.402143 0.382172 0.439385
O O2 0.266652 0.304698 0.502607
O O3 0.395049 0.255518 0.797608
O O4 0.462584 0.291213 0.474397
O O5 0.591697 0.416824 0.393370
O O6 0.475877 0.441622 0.679548
O O7 0.411617 0.473321 0.347779
O O8 0.376640 0.133633 0.594158
O O9 0.311617 0.035623 0.636939
O O10 0.223952 0.121376 0.802418
O O11 0.877270 0.139729 0.754620
O O12 0.886213 0.057941 0.013798
O O13 0.776038 0.052435 0.729333
O O14 0.408521 0.276069 0.136258
O O15 0.260892 0.207058 0.989707
O O16 0.581186 0.300292 0.836194
#
# Coordination Sequence:
#
# PCOD9367420 Si02
#       8
#     8   8   8   8   8   8   8   8
#     4   9  24  44  74 105 156 207 244 340 390 455
#     4  10  25  48  77 117 154 198 266 331 386 482
#     4  12  26  51  77 107 160 210 257 332 404 469
#     4  10  23  45  75 116 155 196 268 316 395 470
#     4  11  25  46  73 112 156 205 263 319 401 472
#     4  11  25  44  72 109 155 202 263 324 385 480
#     4  12  23  47  78 116 152 207 259 323 400 471
#     4  11  26  49  71 106 155 208 264 312 400 483
#
# _framework density 26.708428999999999
#
# number of rings (size 3 to 8) (size 9 to 14) (size 15 to 20)
#    0.750    0.500    2.500    1.875    7.000    1.000 
#    4.500    1.250    0.000    0.000    0.000    0.000 
#    0.000    0.000    0.000    0.000    0.000    0.000 
#
# Total GULP energy -179029.026257 kJ/mol
# GULP energy per Si atom -5594.657071 kJ/mol
# Density = 2.664764 g / cm^3
# Si number density = 26.708429 Si / 1000 Ang^3
#
#
#
# Elastic Constant Matrix: (Units=GPa)
#
#
# Indices 1 2 3 4 5 6 
#
# 1 95.8073 35.2403 0.4687 0.0000 0.0000 0.0000
# 2 35.2403 148.0022 -11.7417 0.0000 0.0000 0.0000
# 3 0.4687 -11.7417 65.1248 0.0000 0.0000 0.0000
# 4 0.0000 0.0000 0.0000 5.4251 0.0000 0.0000
# 5 0.0000 0.0000 0.0000 0.0000 35.8152 0.0000
# 6 0.0000 0.0000 0.0000 0.0000 0.0000 33.2558
#
#
#
# Elastic Compliance Matrix: (Units=1/GPa)
#
#
# Indices 1 2 3 4 5 6 
#
# 1 0.011461 -0.002775 -0.000583 0.000000 0.000000 0.000000
# 2 -0.002775 0.007527 0.001377 0.000000 0.000000 0.000000
# 3 -0.000583 0.001377 0.015608 0.000000 0.000000 0.000000
# 4 0.000000 0.000000 0.000000 0.184328 0.000000 0.000000
# 5 0.000000 0.000000 0.000000 0.000000 0.027921 0.000000
# 6 0.000000 0.000000 0.000000 0.000000 0.000000 0.030070
#
#
# Mechanical properties :
#
#
# Convention : Reuss Voigt Hill
#
# Bulk Modulus (GPa) = 32.64412 39.65212 36.14812
# Shear Modulus (GPa) = 17.17692 33.89702 25.53697
#
# Velocity S-wave (km/s) = 2.53875 3.56638 3.09550
# Velocity P-wave (km/s) = 4.56537 5.64245 5.13224
#
# Compressibility (1/GPa) = 0.03063339
#
# Stress axis : x y z
#
# Youngs Moduli (GPa) = 87.25037 132.86029 64.07133
#
# Poissons Ratio (x) = 0.36872 0.03734
# Poissons Ratio (y) = 0.24214 -0.08823
# Poissons Ratio (z) = 0.05085 -0.18295
#
# Static dielectric constant tensor:
#      x y z
#    x 2.038560 0.000000 0.000000 
#    y 0.000000 2.115710 0.000000 
#    z 0.000000 0.000000 2.280270 
# 
# From -- ./inp_files/2830.got.cif
#   From: 2010.05.17/outbox.cif.g08.bks.cpg/sg41_2_cif.got.tgz:2830.got - 2010.06.03 18:54:24.
