data_PCOD9367353
_publ_section_title
;
Structure prediction by ZEFSAII (Michael W. Deem and Ramdas Pophale) SiO2 
 PCOD9367353
Probable space group: A B A 2
;
_chemical_formula_sum "Si O2"
_cell_formula_units_Z 60
_cell_length_a 9.398792
_cell_length_b 16.498793
_cell_length_c 16.395419
_cell_angle_alpha 90.000000
_cell_angle_beta 90.000000
_cell_angle_gamma 90.000000
_cell_volume 2542.416698
_symmetry_space_group_name_H-M "A B A 2"
_symmetry_group_IT_number 41
_symmetry_cell_setting 'orthorhombic'
loop_
_space_group_symop_operation_xyz
x,y,z
-x,-y,z
1/2-x,y,1/2+z
1/2+x,-y,1/2+z
x,1/2+y,1/2+z
-x,1/2-y,1/2+z
1/2-x,1/2+y,z
1/2+x,1/2-y,z
loop_
_atom_site_type_symbol
_atom_site_label
_atom_site_fract_x
_atom_site_fract_y
_atom_site_fract_z
Si Si1 0.315372 0.794636 0.479670
Si Si2 0.014203 0.334953 0.038154
Si Si3 0.500000 0.000000 0.945994
Si Si4 0.117406 0.573129 0.659412
Si Si5 0.072635 0.585072 0.482377
Si Si6 0.248295 0.268075 0.305542
Si Si7 0.983965 0.744777 0.199867
Si Si8 0.775537 0.911046 0.332803
O O1 0.396718 0.709375 0.482896
O O2 0.172074 0.795006 0.532255
O O3 0.442244 0.854961 0.501760
O O4 0.260397 0.815437 0.389060
O O5 0.958640 0.311463 0.127439
O O6 0.034754 0.424833 0.004929
O O7 0.623780 0.970028 0.884908
O O8 0.169093 0.576496 0.564526
O O9 0.049136 0.663243 0.671166
O O10 0.223210 0.560141 0.737308
O O11 0.000000 0.500000 0.663370
O O12 0.144596 0.603160 0.395489
O O13 0.000000 0.500000 0.470342
O O14 0.154772 0.302145 0.232627
O O15 0.402463 0.250457 0.271789
O O16 0.174606 0.181201 0.320777
#
# Coordination Sequence:
#
# PCOD9367353 Si02
#       8
#     8   8   4   8   8   8   8   8
#     4  12  24  45  76 108 150 201 260 321 394 480
#     4  12  26  46  76 109 150 201 261 327 389 484
#     4  12  26  44  76 112 150 204 262 320 410 484
#     4  10  23  42  72 108 152 199 258 326 395 472
#     4  11  24  43  71 109 148 204 263 323 397 479
#     4  11  24  42  74 104 143 195 248 316 387 466
#     4  11  24  43  71 106 145 195 254 312 389 464
#     4  11  23  44  71 105 150 198 254 321 395 470
#
# _framework density 23.599592999999999
#
# number of rings (size 3 to 8) (size 9 to 14) (size 15 to 20)
#    0.000    0.800    3.333    4.000    1.867    3.200 
#    0.000    0.000   10.267    0.000    0.000    0.000 
#    0.000    0.000    0.000    0.000    0.000    0.000 
#
# Total GULP energy -167366.793435 kJ/mol
# GULP energy per Si atom -5578.893115 kJ/mol
# Density = 2.354588 g / cm^3
# Si number density = 23.599593 Si / 1000 Ang^3
#
#
#
# Elastic Constant Matrix: (Units=GPa)
#
#
# Indices 1 2 3 4 5 6 
#
# 1 89.4767 17.3619 35.3937 0.0000 0.0000 0.0000
# 2 17.3619 71.0945 20.8375 0.0000 0.0000 0.0000
# 3 35.3937 20.8375 163.1528 0.0000 0.0000 0.0000
# 4 0.0000 0.0000 0.0000 41.2755 0.0000 0.0000
# 5 0.0000 0.0000 0.0000 0.0000 58.3732 0.0000
# 6 0.0000 0.0000 0.0000 0.0000 0.0000 26.5331
#
#
#
# Elastic Compliance Matrix: (Units=1/GPa)
#
#
# Indices 1 2 3 4 5 6 
#
# 1 0.012596 -0.002364 -0.002431 0.000000 0.000000 0.000000
# 2 -0.002364 0.015056 -0.001410 0.000000 0.000000 0.000000
# 3 -0.002431 -0.001410 0.006837 0.000000 0.000000 0.000000
# 4 0.000000 0.000000 0.000000 0.024227 0.000000 0.000000
# 5 0.000000 0.000000 0.000000 0.000000 0.017131 0.000000
# 6 0.000000 0.000000 0.000000 0.000000 0.000000 0.037689
#
#
# Mechanical properties :
#
#
# Convention : Reuss Voigt Hill
#
# Bulk Modulus (GPa) = 45.28973 52.32337 48.80655
# Shear Modulus (GPa) = 37.50776 41.91175 39.70975
#
# Velocity S-wave (km/s) = 3.99098 4.21878 4.10646
# Velocity P-wave (km/s) = 6.36158 6.77866 6.57343
#
# Compressibility (1/GPa) = 0.02208006
#
# Stress axis : x y z
#
# Youngs Moduli (GPa) = 79.38875 66.41719 146.27080
#
# Poissons Ratio (x) = 0.15699 0.35554
# Poissons Ratio (y) = 0.18765 0.20627
# Poissons Ratio (z) = 0.19297 0.09366
#
# Static dielectric constant tensor:
#      x y z
#    x 1.504170 0.000000 0.000000 
#    y 0.000000 1.870130 0.000000 
#    z 0.000000 0.000000 1.988170 
# 
# From -- ./inp_files/9757.got.cif
#   From: 2010.05.17/outbox.cif.g08.bks.cpg/sg41_5_cif.got.tgz:9757.got - 2010.06.03 18:54:24.
