data_PCOD9367591
_publ_section_title
;
Structure prediction by ZEFSAII (Michael W. Deem and Ramdas Pophale) SiO2 
 PCOD9367591
Probable space group: A B A 2
;
_chemical_formula_sum "Si O2"
_cell_formula_units_Z 32
_cell_length_a 11.102269
_cell_length_b 12.615486
_cell_length_c 9.207243
_cell_angle_alpha 90.000000
_cell_angle_beta 90.000000
_cell_angle_gamma 90.000000
_cell_volume 1289.571234
_symmetry_space_group_name_H-M "A B A 2"
_symmetry_group_IT_number 41
_symmetry_cell_setting 'orthorhombic'
loop_
_space_group_symop_operation_xyz
x,y,z
-x,-y,z
1/2-x,y,1/2+z
1/2+x,-y,1/2+z
x,1/2+y,1/2+z
-x,1/2-y,1/2+z
1/2-x,1/2+y,z
1/2+x,1/2-y,z
loop_
_atom_site_type_symbol
_atom_site_label
_atom_site_fract_x
_atom_site_fract_y
_atom_site_fract_z
Si Si1 0.905518 0.303410 0.538430
Si Si2 0.586327 0.168194 0.312784
Si Si3 0.000000 0.000000 0.621511
Si Si4 0.167157 0.397707 0.883939
Si Si5 0.000000 0.000000 0.149037
O O1 0.882164 0.258874 0.698497
O O2 0.830944 0.225689 0.434737
O O3 0.037300 0.287397 0.463909
O O4 0.908075 0.429364 0.555934
O O5 0.484448 0.100926 0.226432
O O6 0.696389 0.088200 0.336148
O O7 0.889808 0.033780 0.515434
O O8 0.078343 0.422557 0.750780
#
# Coordination Sequence:
#
# PCOD9367591 Si02
#       5
#     8   8   4   8   4
#     4  11  24  46  72 108 154 190 263 316 372 472
#     4  11  24  48  74 108 155 203 248 324 393 443
#     4   9  23  46  74 108 152 194 264 310 364 488
#     4  10  24  48  73 108 155 198 248 319 391 444
#     4  11  23  48  72 108 146 194 262 312 364 474
#
# _framework density 24.814450999999998
#
# number of rings (size 3 to 8) (size 9 to 14) (size 15 to 20)
#    0.000    1.500    2.500    0.750    7.000    0.000 
#   18.000    0.000    0.000    0.000    0.000    0.000 
#    0.000    0.000    0.000    0.000    0.000    0.000 
#
# Total GULP energy -89224.771422 kJ/mol
# GULP energy per Si atom -5576.548214 kJ/mol
# Density = 2.475797 g / cm^3
# Si number density = 24.814451 Si / 1000 Ang^3
#
#
#
# Elastic Constant Matrix: (Units=GPa)
#
#
# Indices 1 2 3 4 5 6 
#
# 1 81.0331 7.6463 46.6931 0.0000 0.0000 0.0000
# 2 7.6463 108.3143 46.5308 0.0000 0.0000 0.0000
# 3 46.6931 46.5308 140.1282 0.0000 0.0000 0.0000
# 4 0.0000 0.0000 0.0000 41.0443 0.0000 0.0000
# 5 0.0000 0.0000 0.0000 0.0000 21.5040 0.0000
# 6 0.0000 0.0000 0.0000 0.0000 0.0000 36.4662
#
#
#
# Elastic Compliance Matrix: (Units=1/GPa)
#
#
# Indices 1 2 3 4 5 6 
#
# 1 0.015430 0.001306 -0.005575 0.000000 0.000000 0.000000
# 2 0.001306 0.010879 -0.004048 0.000000 0.000000 0.000000
# 3 -0.005575 -0.004048 0.010338 0.000000 0.000000 0.000000
# 4 0.000000 0.000000 0.000000 0.024364 0.000000 0.000000
# 5 0.000000 0.000000 0.000000 0.000000 0.046503 0.000000
# 6 0.000000 0.000000 0.000000 0.000000 0.000000 0.027423
#
#
# Mechanical properties :
#
#
# Convention : Reuss Voigt Hill
#
# Bulk Modulus (GPa) = 49.96710 59.02401 54.49556
# Shear Modulus (GPa) = 31.59727 35.04325 33.32026
#
# Velocity S-wave (km/s) = 3.57226 3.76202 3.66837
# Velocity P-wave (km/s) = 6.09875 6.53515 6.32072
#
# Compressibility (1/GPa) = 0.02001317
#
# Stress axis : x y z
#
# Youngs Moduli (GPa) = 64.80912 91.92015 96.72981
#
# Poissons Ratio (x) = -0.12002 0.53928
# Poissons Ratio (y) = -0.08462 0.39152
# Poissons Ratio (z) = 0.36132 0.37205
#
# Static dielectric constant tensor:
#      x y z
#    x 1.961690 0.000000 0.000000 
#    y 0.000000 2.050740 0.000000 
#    z 0.000000 0.000000 1.963200 
# 
# From -- ./inp_files/1930.got.cif
#   From: 2010.05.17/outbox.cif.g08.bks.cpg/sg41_1_cif.got.tgz:1930.got - 2010.06.03 18:54:24.
