data_PCOD9367615
_publ_section_title
;
Structure prediction by ZEFSAII (Michael W. Deem and Ramdas Pophale) SiO2 
 PCOD9367615
Probable space group: A B A 2
;
_chemical_formula_sum "Si O2"
_cell_formula_units_Z 44
_cell_length_a 15.821328
_cell_length_b 11.111804
_cell_length_c 11.364168
_cell_angle_alpha 90.000000
_cell_angle_beta 90.000000
_cell_angle_gamma 90.000000
_cell_volume 1997.860461
_symmetry_space_group_name_H-M "A B A 2"
_symmetry_group_IT_number 41
_symmetry_cell_setting 'orthorhombic'
loop_
_space_group_symop_operation_xyz
x,y,z
-x,-y,z
1/2-x,y,1/2+z
1/2+x,-y,1/2+z
x,1/2+y,1/2+z
-x,1/2-y,1/2+z
1/2-x,1/2+y,z
1/2+x,1/2-y,z
loop_
_atom_site_type_symbol
_atom_site_label
_atom_site_fract_x
_atom_site_fract_y
_atom_site_fract_z
Si Si1 0.421983 0.853744 0.158040
Si Si2 0.933377 0.321313 0.330761
Si Si3 0.872774 0.418897 0.687426
Si Si4 0.119019 0.939161 0.404448
Si Si5 0.000000 0.500000 0.512313
Si Si6 0.288007 0.500969 0.800949
O O1 0.516267 0.852728 0.211463
O O2 0.394077 0.714752 0.146567
O O3 0.355751 0.908600 0.250718
O O4 0.411357 0.926552 0.037301
O O5 0.915505 0.181366 0.342936
O O6 0.990941 0.382772 0.431125
O O7 0.844118 0.388611 0.344690
O O8 0.905287 0.447971 0.820865
O O9 0.919628 0.506171 0.597232
O O10 0.774270 0.449505 0.698884
O O11 0.221593 0.944662 0.393151
#
# Coordination Sequence:
#
# PCOD9367615 Si02
#       6
#     8   8   8   8   4   8
#     4  12  23  46  71 110 148 189 252 311 367 456
#     4  12  24  47  72 105 143 192 244 303 383 439
#     4  10  25  45  71 104 145 191 244 298 381 435
#     4  10  26  43  75 101 146 193 248 296 377 447
#     4  12  22  46  70  96 148 184 236 300 370 444
#     4  10  25  45  68 107 140 188 247 301 372 449
#
# _framework density 22.02356
#
# number of rings (size 3 to 8) (size 9 to 14) (size 15 to 20)
#    1.091    0.000    3.636    2.182    2.545    0.000 
#    9.818    0.000    0.000    0.000    0.000    0.000 
#    0.000    0.000    0.000    0.000    0.000    0.000 
#
# Total GULP energy -122799.961705 kJ/mol
# GULP energy per Si atom -5581.816441 kJ/mol
# Density = 2.197343 g / cm^3
# Si number density = 22.023560 Si / 1000 Ang^3
#
#
#
# Elastic Constant Matrix: (Units=GPa)
#
#
# Indices 1 2 3 4 5 6 
#
# 1 121.3413 29.9971 37.3162 0.0000 0.0000 0.0000
# 2 29.9971 61.6956 -0.1620 0.0000 0.0000 0.0000
# 3 37.3162 -0.1620 84.9608 0.0000 0.0000 0.0000
# 4 0.0000 0.0000 0.0000 28.5152 0.0000 0.0000
# 5 0.0000 0.0000 0.0000 0.0000 42.7654 0.0000
# 6 0.0000 0.0000 0.0000 0.0000 0.0000 33.9755
#
#
#
# Elastic Compliance Matrix: (Units=1/GPa)
#
#
# Indices 1 2 3 4 5 6 
#
# 1 0.011075 -0.005397 -0.004874 0.000000 0.000000 0.000000
# 2 -0.005397 0.018839 0.002407 0.000000 0.000000 0.000000
# 3 -0.004874 0.002407 0.013916 0.000000 0.000000 0.000000
# 4 0.000000 0.000000 0.000000 0.035069 0.000000 0.000000
# 5 0.000000 0.000000 0.000000 0.000000 0.023383 0.000000
# 6 0.000000 0.000000 0.000000 0.000000 0.000000 0.029433
#
#
# Mechanical properties :
#
#
# Convention : Reuss Voigt Hill
#
# Bulk Modulus (GPa) = 35.58859 44.70001 40.14430
# Shear Modulus (GPa) = 31.88540 34.44098 33.16319
#
# Velocity S-wave (km/s) = 3.80911 3.95881 3.88468
# Velocity P-wave (km/s) = 5.96155 6.42159 6.19584
#
# Compressibility (1/GPa) = 0.02809890
#
# Stress axis : x y z
#
# Youngs Moduli (GPa) = 90.29720 53.08083 71.86155
#
# Poissons Ratio (x) = 0.28650 0.35028
# Poissons Ratio (y) = 0.48737 -0.17294
# Poissons Ratio (z) = 0.44015 -0.12774
#
# Static dielectric constant tensor:
#      x y z
#    x 1.814810 0.000000 0.000000 
#    y 0.000000 1.800860 0.000000 
#    z 0.000000 0.000000 1.844460 
# 
# From -- ./inp_files/5897.got.cif
#   From: 2010.05.17/outbox.cif.g08.bks.cpg/sg41_3_cif.got.tgz:5897.got - 2010.06.03 18:54:24.
