data_PCOD9367553
_publ_section_title
;
Structure prediction by ZEFSAII (Michael W. Deem and Ramdas Pophale) SiO2 
 PCOD9367553
Probable space group: A B A 2
;
_chemical_formula_sum "Si O2"
_cell_formula_units_Z 52
_cell_length_a 11.674887
_cell_length_b 8.310844
_cell_length_c 22.494202
_cell_angle_alpha 90.000000
_cell_angle_beta 90.000000
_cell_angle_gamma 90.000000
_cell_volume 2182.571134
_symmetry_space_group_name_H-M "A B A 2"
_symmetry_group_IT_number 41
_symmetry_cell_setting 'orthorhombic'
loop_
_space_group_symop_operation_xyz
x,y,z
-x,-y,z
1/2-x,y,1/2+z
1/2+x,-y,1/2+z
x,1/2+y,1/2+z
-x,1/2-y,1/2+z
1/2-x,1/2+y,z
1/2+x,1/2-y,z
loop_
_atom_site_type_symbol
_atom_site_label
_atom_site_fract_x
_atom_site_fract_y
_atom_site_fract_z
Si Si1 0.000000 0.500000 0.632421
Si Si2 0.834642 0.911342 0.343410
Si Si3 0.667144 0.670967 0.051719
Si Si4 0.500000 0.000000 0.228363
Si Si5 0.220205 0.043728 0.468183
Si Si6 0.336436 0.773761 0.768301
Si Si7 0.826758 0.730755 0.160770
Si Si8 0.000000 0.500000 0.930337
O O1 0.940984 0.638392 0.592788
O O2 0.899152 0.398110 0.664910
O O3 0.747581 0.947971 0.398886
O O4 0.775402 0.778091 0.305273
O O5 0.943159 0.872975 0.384818
O O6 0.865133 0.057000 0.298933
O O7 0.775896 0.700198 0.095220
O O8 0.663851 0.805289 0.001238
O O9 0.684877 0.512913 0.012587
O O10 0.434197 0.137007 0.266692
O O11 0.591241 0.091861 0.186511
O O12 0.107506 0.927616 0.464759
O O13 0.286231 0.774287 0.701966
#
# Coordination Sequence:
#
# PCOD9367553 Si02
#       8
#     4   8   8   4   8   8   8   4
#     4  12  28  43  75 108 145 199 238 308 376 430
#     4  10  24  45  71 101 140 187 237 297 359 434
#     4  12  25  48  69 107 145 186 247 300 361 446
#     4  12  28  43  75 108 145 199 238 308 376 430
#     4  10  24  45  71 101 140 187 237 297 359 434
#     4  12  25  48  69 107 145 186 247 300 361 446
#     4  12  28  46  72 108 142 194 244 308 370 442
#     4   8  24  38  72 100 132 198 220 298 362 414
#
# _framework density 23.825111
#
# number of rings (size 3 to 8) (size 9 to 14) (size 15 to 20)
#    0.923    0.000    3.077    2.769    8.615    0.000 
#    0.000    0.000    0.000    0.000    0.000    0.000 
#    0.000    0.000    0.000    0.000    0.000    0.000 
#
# Total GULP energy -144874.841852 kJ/mol
# GULP energy per Si atom -5572.109302 kJ/mol
# Density = 2.377088 g / cm^3
# Si number density = 23.825111 Si / 1000 Ang^3
#
#
#
# Elastic Constant Matrix: (Units=GPa)
#
#
# Indices 1 2 3 4 5 6 
#
# 1 43.4611 6.9361 3.8430 0.0000 0.0000 0.0000
# 2 6.9361 75.5393 23.8441 0.0000 0.0000 0.0000
# 3 3.8430 23.8441 123.6692 0.0000 0.0000 0.0000
# 4 0.0000 0.0000 0.0000 38.2277 0.0000 0.0000
# 5 0.0000 0.0000 0.0000 0.0000 30.2476 0.0000
# 6 0.0000 0.0000 0.0000 0.0000 0.0000 36.2319
#
#
#
# Elastic Compliance Matrix: (Units=1/GPa)
#
#
# Indices 1 2 3 4 5 6 
#
# 1 0.023364 -0.002040 -0.000333 0.000000 0.000000 0.000000
# 2 -0.002040 0.014274 -0.002689 0.000000 0.000000 0.000000
# 3 -0.000333 -0.002689 0.008615 0.000000 0.000000 0.000000
# 4 0.000000 0.000000 0.000000 0.026159 0.000000 0.000000
# 5 0.000000 0.000000 0.000000 0.000000 0.033060 0.000000
# 6 0.000000 0.000000 0.000000 0.000000 0.000000 0.027600
#
#
# Mechanical properties :
#
#
# Convention : Reuss Voigt Hill
#
# Bulk Modulus (GPa) = 27.67805 34.65733 31.16769
# Shear Modulus (GPa) = 32.20835 34.81120 33.50977
#
# Velocity S-wave (km/s) = 3.68076 3.82660 3.75439
# Velocity P-wave (km/s) = 5.45036 5.83969 5.64838
#
# Compressibility (1/GPa) = 0.03612972
#
# Stress axis : x y z
#
# Youngs Moduli (GPa) = 42.80072 70.05655 116.07889
#
# Poissons Ratio (x) = 0.14294 0.03861
# Poissons Ratio (y) = 0.08733 0.31211
# Poissons Ratio (z) = 0.01424 0.18836
#
# Static dielectric constant tensor:
#      x y z
#    x 1.976440 0.000000 0.000000 
#    y 0.000000 2.136930 0.000000 
#    z 0.000000 0.000000 1.912460 
# 
# From -- ./inp_files/12504.got.cif
#   From: 2010.05.17/outbox.cif.g08.bks.cpg/sg41_7_cif.got.tgz:12504.got - 2010.06.03 18:54:24.
