data_PCOD9367533
_publ_section_title
;
Structure prediction by ZEFSAII (Michael W. Deem and Ramdas Pophale) SiO2 
 PCOD9367533
Probable space group: A B A 2
;
_chemical_formula_sum "Si O2"
_cell_formula_units_Z 40
_cell_length_a 8.893922
_cell_length_b 14.315089
_cell_length_c 12.608340
_cell_angle_alpha 90.000000
_cell_angle_beta 90.000000
_cell_angle_gamma 90.000000
_cell_volume 1605.259617
_symmetry_space_group_name_H-M "A B A 2"
_symmetry_group_IT_number 41
_symmetry_cell_setting 'orthorhombic'
loop_
_space_group_symop_operation_xyz
x,y,z
-x,-y,z
1/2-x,y,1/2+z
1/2+x,-y,1/2+z
x,1/2+y,1/2+z
-x,1/2-y,1/2+z
1/2-x,1/2+y,z
1/2+x,1/2-y,z
loop_
_atom_site_type_symbol
_atom_site_label
_atom_site_fract_x
_atom_site_fract_y
_atom_site_fract_z
Si Si1 0.864819 0.450439 0.366560
Si Si2 0.125527 0.216234 0.349579
Si Si3 0.108772 0.415311 0.933083
Si Si4 0.176957 0.820726 0.643114
Si Si5 0.024724 0.830459 0.042402
O O1 0.753678 0.364245 0.330218
O O2 0.763490 0.537997 0.400282
O O3 0.946503 0.406941 0.469517
O O4 0.000000 0.500000 0.299294
O O5 0.132132 0.298137 0.263269
O O6 0.961361 0.168234 0.363799
O O7 0.129487 0.267154 0.463836
O O8 0.000000 0.500000 0.913099
O O9 0.102020 0.390556 0.058014
O O10 0.351733 0.849875 0.632575
O O11 0.114018 0.723468 0.594288
#
# Coordination Sequence:
#
# PCOD9367533 Si02
#       5
#     8   8   8   8   8
#     4  11  21  43  73 102 146 189 234 311 370 420
#     4  10  24  44  72 102 142 195 246 292 368 450
#     4   9  21  44  75 103 148 185 236 310 370 428
#     4  11  23  42  72 101 140 194 242 294 363 450
#     4  11  23  42  68 104 144 189 240 299 364 448
#
# _framework density 24.918089999999999
#
# number of rings (size 3 to 8) (size 9 to 14) (size 15 to 20)
#    0.000    1.600    4.000    0.000    2.800    0.000 
#    0.000    6.000    0.000    0.000    0.000    0.000 
#    0.000    0.000    0.000    0.000    0.000    0.000 
#
# Total GULP energy -111396.960246 kJ/mol
# GULP energy per Si atom -5569.848012 kJ/mol
# Density = 2.486138 g / cm^3
# Si number density = 24.918090 Si / 1000 Ang^3
#
#
#
# Elastic Constant Matrix: (Units=GPa)
#
#
# Indices 1 2 3 4 5 6 
#
# 1 118.3557 7.2443 17.7475 0.0000 0.0000 0.0000
# 2 7.2443 57.5540 0.1518 0.0000 0.0000 0.0000
# 3 17.7475 0.1518 96.0182 0.0000 0.0000 0.0000
# 4 0.0000 0.0000 0.0000 23.5816 0.0000 0.0000
# 5 0.0000 0.0000 0.0000 0.0000 26.7937 0.0000
# 6 0.0000 0.0000 0.0000 0.0000 0.0000 38.2768
#
#
#
# Elastic Compliance Matrix: (Units=1/GPa)
#
#
# Indices 1 2 3 4 5 6 
#
# 1 0.008759 -0.001098 -0.001617 0.000000 0.000000 0.000000
# 2 -0.001098 0.017513 0.000175 0.000000 0.000000 0.000000
# 3 -0.001617 0.000175 0.010713 0.000000 0.000000 0.000000
# 4 0.000000 0.000000 0.000000 0.042406 0.000000 0.000000
# 5 0.000000 0.000000 0.000000 0.000000 0.037322 0.000000
# 6 0.000000 0.000000 0.000000 0.000000 0.000000 0.026125
#
#
# Mechanical properties :
#
#
# Convention : Reuss Voigt Hill
#
# Bulk Modulus (GPa) = 31.34338 35.80171 33.57254
# Shear Modulus (GPa) = 31.53507 34.18271 32.85889
#
# Velocity S-wave (km/s) = 3.56132 3.70780 3.63530
# Velocity P-wave (km/s) = 5.43291 5.72096 5.57879
#
# Compressibility (1/GPa) = 0.03190467
#
# Stress axis : x y z
#
# Youngs Moduli (GPa) = 114.17058 57.10128 93.34169
#
# Poissons Ratio (x) = 0.06271 0.15095
# Poissons Ratio (y) = 0.12538 -0.01636
# Poissons Ratio (z) = 0.18464 -0.01001
#
# Static dielectric constant tensor:
#      x y z
#    x 2.158570 0.000000 0.000000 
#    y 0.000000 1.975240 0.000000 
#    z 0.000000 0.000000 1.984640 
# 
# From -- ./inp_files/4380.got.cif
#   From: 2010.05.17/outbox.cif.g08.bks.cpg/sg41_3_cif.got.tgz:4380.got - 2010.06.03 18:54:24.
