data_PCOD9367539
_publ_section_title
;
Structure prediction by ZEFSAII (Michael W. Deem and Ramdas Pophale) SiO2 
 PCOD9367539
Probable space group: A B A 2
;
_chemical_formula_sum "Si O2"
_cell_formula_units_Z 56
_cell_length_a 31.376033
_cell_length_b 13.740714
_cell_length_c 5.494242
_cell_angle_alpha 90.000000
_cell_angle_beta 90.000000
_cell_angle_gamma 90.000000
_cell_volume 2368.727586
_symmetry_space_group_name_H-M "A B A 2"
_symmetry_group_IT_number 41
_symmetry_cell_setting 'orthorhombic'
loop_
_space_group_symop_operation_xyz
x,y,z
-x,-y,z
1/2-x,y,1/2+z
1/2+x,-y,1/2+z
x,1/2+y,1/2+z
-x,1/2-y,1/2+z
1/2-x,1/2+y,z
1/2+x,1/2-y,z
loop_
_atom_site_type_symbol
_atom_site_label
_atom_site_fract_x
_atom_site_fract_y
_atom_site_fract_z
Si Si1 0.619758 0.044474 0.464670
Si Si2 0.076991 0.109277 0.611362
Si Si3 0.991617 0.191104 0.610869
Si Si4 0.274237 0.997607 0.086962
Si Si5 0.325739 0.814122 0.144698
Si Si6 0.657523 0.395764 0.309748
Si Si7 0.591751 0.180689 0.847407
O O1 0.595192 0.978096 0.271863
O O2 0.653704 0.976581 0.603619
O O3 0.647316 0.131105 0.352072
O O4 0.587436 0.094525 0.653715
O O5 0.107877 0.120066 0.379143
O O6 0.083427 0.212428 0.745253
O O7 0.026400 0.106024 0.577176
O O8 0.942556 0.165307 0.560377
O O9 0.003758 0.262775 0.381296
O O10 0.252992 0.020448 0.344866
O O11 0.285881 0.882680 0.089047
O O12 0.317476 0.058254 0.037420
O O13 0.320362 0.702839 0.221537
O O14 0.359123 0.819237 0.924531
#
# Coordination Sequence:
#
# PCOD9367539 Si02
#       7
#     8   8   8   8   8   8   8
#     4  12  23  44  75 111 142 196 255 306 356 452
#     4  11  23  43  78 105 150 201 249 305 376 431
#     4  10  24  44  73 109 156 196 248 311 366 435
#     4  12  29  50  76 112 154 191 247 318 382 459
#     4  12  25  46  77 107 148 197 251 301 378 452
#     4  12  25  46  77 107 148 197 251 301 378 452
#     4  11  23  43  78 105 150 201 249 305 376 431
#
# _framework density 23.641383999999999
#
# number of rings (size 3 to 8) (size 9 to 14) (size 15 to 20)
#    0.000    0.571    5.714    1.714    4.000    1.143 
#    0.000    4.286    0.000    0.000    0.000    0.000 
#    0.000    0.000    0.000    0.000    0.000    0.000 
#
# Total GULP energy -156647.145384 kJ/mol
# GULP energy per Si atom -5594.540907 kJ/mol
# Density = 2.358757 g / cm^3
# Si number density = 23.641384 Si / 1000 Ang^3
#
#
#
# Elastic Constant Matrix: (Units=GPa)
#
#
# Indices 1 2 3 4 5 6 
#
# 1 44.1740 17.7401 14.3578 0.0000 0.0000 0.0000
# 2 17.7401 114.8914 22.9722 0.0000 0.0000 0.0000
# 3 14.3578 22.9722 76.6258 0.0000 0.0000 0.0000
# 4 0.0000 0.0000 0.0000 35.9955 0.0000 0.0000
# 5 0.0000 0.0000 0.0000 0.0000 46.8054 0.0000
# 6 0.0000 0.0000 0.0000 0.0000 0.0000 33.7211
#
#
#
# Elastic Compliance Matrix: (Units=1/GPa)
#
#
# Indices 1 2 3 4 5 6 
#
# 1 0.025118 -0.003125 -0.003770 0.000000 0.000000 0.000000
# 2 -0.003125 0.009648 -0.002307 0.000000 0.000000 0.000000
# 3 -0.003770 -0.002307 0.014448 0.000000 0.000000 0.000000
# 4 0.000000 0.000000 0.000000 0.027781 0.000000 0.000000
# 5 0.000000 0.000000 0.000000 0.000000 0.021365 0.000000
# 6 0.000000 0.000000 0.000000 0.000000 0.000000 0.029655
#
#
# Mechanical properties :
#
#
# Convention : Reuss Voigt Hill
#
# Bulk Modulus (GPa) = 32.45550 38.42572 35.44061
# Shear Modulus (GPa) = 31.91056 35.34582 33.62819
#
# Velocity S-wave (km/s) = 3.67791 3.87082 3.77560
# Velocity P-wave (km/s) = 5.63863 6.02217 5.83355
#
# Compressibility (1/GPa) = 0.03081142
#
# Stress axis : x y z
#
# Youngs Moduli (GPa) = 39.81229 103.65283 69.21199
#
# Poissons Ratio (x) = 0.32388 0.26091
# Poissons Ratio (y) = 0.12440 0.15966
# Poissons Ratio (z) = 0.15008 0.23911
#
# Static dielectric constant tensor:
#      x y z
#    x 1.957340 0.000000 0.000000 
#    y 0.000000 1.883340 0.000000 
#    z 0.000000 0.000000 1.939310 
# 
# From -- ./inp_files/1326.got.cif
#   From: 2010.05.17/outbox.cif.g08.bks.cpg/sg41_1_cif.got.tgz:1326.got - 2010.06.03 18:54:24.
