data_PCOD9367898
_publ_section_title
;
Structure prediction by ZEFSAII (Michael W. Deem and Ramdas Pophale) SiO2 
 PCOD9367898
Probable space group: A B A 2
;
_chemical_formula_sum "Si O2"
_cell_formula_units_Z 64
_cell_length_a 11.814706
_cell_length_b 11.768740
_cell_length_c 24.376449
_cell_angle_alpha 90.000000
_cell_angle_beta 90.000000
_cell_angle_gamma 90.000000
_cell_volume 3389.403925
_symmetry_space_group_name_H-M "A B A 2"
_symmetry_group_IT_number 41
_symmetry_cell_setting 'orthorhombic'
loop_
_space_group_symop_operation_xyz
x,y,z
-x,-y,z
1/2-x,y,1/2+z
1/2+x,-y,1/2+z
x,1/2+y,1/2+z
-x,1/2-y,1/2+z
1/2-x,1/2+y,z
1/2+x,1/2-y,z
loop_
_atom_site_type_symbol
_atom_site_label
_atom_site_fract_x
_atom_site_fract_y
_atom_site_fract_z
Si Si1 0.473916 0.186466 0.709010
Si Si2 0.903121 0.594521 0.533431
Si Si3 0.188786 0.470546 0.834932
Si Si4 0.904122 0.096289 0.905550
Si Si5 0.688871 0.016995 0.709187
Si Si6 0.683007 0.029755 0.099729
Si Si7 0.971619 0.811707 0.334843
Si Si8 0.975163 0.815911 0.600723
O O1 0.581525 0.101521 0.707018
O O2 0.463087 0.228100 0.771436
O O3 0.498616 0.278434 0.663020
O O4 0.363744 0.108119 0.697568
O O5 0.882310 0.619722 0.469608
O O6 0.792036 0.544972 0.562247
O O7 0.944028 0.705687 0.565879
O O8 0.000000 0.500000 0.537679
O O9 0.291196 0.447843 0.875621
O O10 0.230797 0.475320 0.771692
O O11 0.121090 0.588535 0.843454
O O12 0.094010 0.371776 0.840709
O O13 0.948345 0.208983 0.875340
O O14 0.000000 0.000000 0.901730
O O15 0.777089 0.048522 0.662451
O O16 0.588428 0.120080 0.081758
O O17 0.625976 0.906297 0.097395
#
# Coordination Sequence:
#
# PCOD9367898 Si02
#       8
#     8   8   8   8   8   8   8   8
#     4   9  18  36  64  94 128 169 199 249 317 381
#     4  11  26  46  66  87 127 172 210 262 323 374
#     4   9  21  42  65  93 128 169 208 252 318 379
#     4  11  26  42  64  97 125 162 216 269 311 367
#     4   9  18  36  64  94 128 167 201 247 316 382
#     4  11  25  41  62  97 126 163 212 262 313 377
#     4   9  21  42  66  92 129 169 209 254 318 377
#     4  11  25  41  63  96 127 163 213 263 314 375
#
# _framework density 18.882377000000002
#
# number of rings (size 3 to 8) (size 9 to 14) (size 15 to 20)
#    0.000    2.000    1.250    2.250    7.000    3.000 
#    4.500    2.500    0.000    0.000    0.000    0.000 
#    0.000    0.000    0.000    0.000    0.000    0.000 
#
# Total GULP energy -178745.009071 kJ/mol
# GULP energy per Si atom -5585.781533 kJ/mol
# Density = 1.883940 g / cm^3
# Si number density = 18.882377 Si / 1000 Ang^3
#
#
#
# Elastic Constant Matrix: (Units=GPa)
#
#
# Indices 1 2 3 4 5 6 
#
# 1 103.2027 44.0552 81.9444 0.0000 0.0000 0.0000
# 2 44.0552 93.0161 78.3714 0.0000 0.0000 0.0000
# 3 81.9444 78.3714 143.9343 0.0000 0.0000 0.0000
# 4 0.0000 0.0000 0.0000 21.7829 0.0000 0.0000
# 5 0.0000 0.0000 0.0000 0.0000 4.6525 0.0000
# 6 0.0000 0.0000 0.0000 0.0000 0.0000 11.4672
#
#
#
# Elastic Compliance Matrix: (Units=1/GPa)
#
#
# Indices 1 2 3 4 5 6 
#
# 1 0.017685 0.000198 -0.010176 0.000000 0.000000 0.000000
# 2 0.000198 0.019866 -0.010929 0.000000 0.000000 0.000000
# 3 -0.010176 -0.010929 0.018692 0.000000 0.000000 0.000000
# 4 0.000000 0.000000 0.000000 0.045908 0.000000 0.000000
# 5 0.000000 0.000000 0.000000 0.000000 0.214936 0.000000
# 6 0.000000 0.000000 0.000000 0.000000 0.000000 0.087205
#
#
# Mechanical properties :
#
#
# Convention : Reuss Voigt Hill
#
# Bulk Modulus (GPa) = 69.31210 83.21057 76.26133
# Shear Modulus (GPa) = 11.08851 16.63266 13.86059
#
# Velocity S-wave (km/s) = 2.42593 2.97114 2.71227
# Velocity P-wave (km/s) = 6.68086 7.47889 7.09111
#
# Compressibility (1/GPa) = 0.01442749
#
# Stress axis : x y z
#
# Youngs Moduli (GPa) = 56.54390 50.33768 53.49827
#
# Poissons Ratio (x) = -0.00996 0.54441
# Poissons Ratio (y) = -0.01118 0.58471
# Poissons Ratio (z) = 0.57541 0.55016
#
# Static dielectric constant tensor:
#      x y z
#    x 1.636300 0.000000 0.000000 
#    y 0.000000 1.646320 0.000000 
#    z 0.000000 0.000000 1.638980 
# 
# From -- ./inp_files/12175.got.cif
#   From: 2010.05.17/outbox.cif.g08.bks.cpg/sg41_7_cif.got.tgz:12175.got - 2010.06.03 18:54:24.
