data_PCOD9367110
_publ_section_title
;
Structure prediction by ZEFSAII (Michael W. Deem and Ramdas Pophale) SiO2 
 PCOD9367110
Probable space group: A B A 2
;
_chemical_formula_sum "Si O2"
_cell_formula_units_Z 40
_cell_length_a 5.516558
_cell_length_b 27.426201
_cell_length_c 9.854059
_cell_angle_alpha 90.000000
_cell_angle_beta 90.000000
_cell_angle_gamma 90.000000
_cell_volume 1490.901671
_symmetry_space_group_name_H-M "A B A 2"
_symmetry_group_IT_number 41
_symmetry_cell_setting 'orthorhombic'
loop_
_space_group_symop_operation_xyz
x,y,z
-x,-y,z
1/2-x,y,1/2+z
1/2+x,-y,1/2+z
x,1/2+y,1/2+z
-x,1/2-y,1/2+z
1/2-x,1/2+y,z
1/2+x,1/2-y,z
loop_
_atom_site_type_symbol
_atom_site_label
_atom_site_fract_x
_atom_site_fract_y
_atom_site_fract_z
Si Si1 0.243267 0.970337 0.387310
Si Si2 0.247309 0.140709 0.818130
Si Si3 0.741952 0.749457 0.718627
Si Si4 0.750450 0.663116 0.942198
Si Si5 0.399735 0.904668 0.140945
O O1 0.287310 0.932186 0.268089
O O2 0.166722 0.942439 0.523883
O O3 0.500000 0.000000 0.402603
O O4 0.000000 0.000000 0.351043
O O5 0.250721 0.196115 0.772482
O O6 0.500806 0.136655 0.893158
O O7 0.011180 0.139403 0.914204
O O8 0.174982 0.106224 0.691814
O O9 0.491899 0.751284 0.635370
O O10 0.746648 0.712824 0.849757
O O11 0.789361 0.649558 0.103218
#
# Coordination Sequence:
#
# PCOD9367110 Si02
#       5
#     8   8   8   8   8
#     4  12  30  52  78 114 152 192 254 332 406 464
#     4  10  22  41  69 106 148 194 246 300 360 445
#     4   8  16  36  60  96 146 188 238 290 354 414
#     4  10  22  41  69 106 148 194 246 300 360 445
#     4  12  26  50  82 110 152 196 256 310 388 471
#
# _framework density 26.829401000000001
#
# number of rings (size 3 to 8) (size 9 to 14) (size 15 to 20)
#    0.000    1.600    2.000    1.200    2.800    4.800 
#    0.000   18.000    0.000    0.000    0.000    0.000 
#    0.000    0.000    0.000    0.000    0.000    0.000 
#
# Total GULP energy -111470.004113 kJ/mol
# GULP energy per Si atom -5573.500206 kJ/mol
# Density = 2.676834 g / cm^3
# Si number density = 26.829401 Si / 1000 Ang^3
#
#
#
# Elastic Constant Matrix: (Units=GPa)
#
#
# Indices 1 2 3 4 5 6 
#
# 1 235.3109 39.8432 37.1843 0.0000 0.0000 0.0000
# 2 39.8432 94.3821 48.5864 0.0000 0.0000 0.0000
# 3 37.1843 48.5864 124.6262 0.0000 0.0000 0.0000
# 4 0.0000 0.0000 0.0000 28.8581 0.0000 0.0000
# 5 0.0000 0.0000 0.0000 0.0000 33.3106 0.0000
# 6 0.0000 0.0000 0.0000 0.0000 0.0000 55.8243
#
#
#
# Elastic Compliance Matrix: (Units=1/GPa)
#
#
# Indices 1 2 3 4 5 6 
#
# 1 0.004636 -0.001558 -0.000776 0.000000 0.000000 0.000000
# 2 -0.001558 0.013779 -0.004907 0.000000 0.000000 0.000000
# 3 -0.000776 -0.004907 0.010169 0.000000 0.000000 0.000000
# 4 0.000000 0.000000 0.000000 0.034652 0.000000 0.000000
# 5 0.000000 0.000000 0.000000 0.000000 0.030021 0.000000
# 6 0.000000 0.000000 0.000000 0.000000 0.000000 0.017913
#
#
# Mechanical properties :
#
#
# Convention : Reuss Voigt Hill
#
# Bulk Modulus (GPa) = 70.91117 78.39411 74.65264
# Shear Modulus (GPa) = 38.35777 45.51227 41.93502
#
# Velocity S-wave (km/s) = 3.78523 4.12316 3.95780
# Velocity P-wave (km/s) = 6.75216 7.20764 6.98362
#
# Compressibility (1/GPa) = 0.01410215
#
# Stress axis : x y z
#
# Youngs Moduli (GPa) = 215.70033 72.57504 98.34225
#
# Poissons Ratio (x) = 0.11305 0.07631
# Poissons Ratio (y) = 0.33598 0.48257
# Poissons Ratio (z) = 0.16738 0.35613
#
# Static dielectric constant tensor:
#      x y z
#    x 2.204090 0.000000 0.000000 
#    y 0.000000 2.228040 0.000000 
#    z 0.000000 0.000000 2.273760 
# 
# From -- ./inp_files/4138.got.cif
#   From: 2010.05.17/outbox.cif.g08.bks.cpg/sg41_3_cif.got.tgz:4138.got - 2010.06.03 18:54:24.
