data_PCOD9367321
_publ_section_title
;
Structure prediction by ZEFSAII (Michael W. Deem and Ramdas Pophale) SiO2 
 PCOD9367321
Probable space group: A B A 2
;
_chemical_formula_sum "Si O2"
_cell_formula_units_Z 64
_cell_length_a 14.180787
_cell_length_b 10.034028
_cell_length_c 21.427704
_cell_angle_alpha 90.000000
_cell_angle_beta 90.000000
_cell_angle_gamma 90.000000
_cell_volume 3048.956869
_symmetry_space_group_name_H-M "A B A 2"
_symmetry_group_IT_number 41
_symmetry_cell_setting 'orthorhombic'
loop_
_space_group_symop_operation_xyz
x,y,z
-x,-y,z
1/2-x,y,1/2+z
1/2+x,-y,1/2+z
x,1/2+y,1/2+z
-x,1/2-y,1/2+z
1/2-x,1/2+y,z
1/2+x,1/2-y,z
loop_
_atom_site_type_symbol
_atom_site_label
_atom_site_fract_x
_atom_site_fract_y
_atom_site_fract_z
Si Si1 0.249424 0.887702 0.511110
Si Si2 0.177987 0.855055 0.737245
Si Si3 0.425533 0.878948 0.105923
Si Si4 0.000688 0.351342 0.323659
Si Si5 0.807888 0.869001 0.779576
Si Si6 0.529605 0.347676 0.426779
Si Si7 0.538152 0.151875 0.543645
Si Si8 0.747228 0.359369 0.923456
O O1 0.159545 0.904542 0.556238
O O2 0.347087 0.852216 0.547214
O O3 0.222188 0.771053 0.462911
O O4 0.273171 0.014857 0.467844
O O5 0.124753 0.870208 0.672530
O O6 0.101024 0.832305 0.791501
O O7 0.253827 0.740930 0.741647
O O8 0.228570 0.991158 0.755462
O O9 0.482255 0.740719 0.094221
O O10 0.500000 0.000000 0.102126
O O11 0.982679 0.226171 0.368154
O O12 0.000000 0.500000 0.354933
O O13 0.920215 0.360892 0.271309
O O14 0.795599 0.862725 0.854502
O O15 0.500000 0.500000 0.439283
O O16 0.517270 0.242128 0.482492
O O17 0.640682 0.355260 0.414254
O O18 0.500000 0.000000 0.540422
#
# Coordination Sequence:
#
# PCOD9367321 Si02
#       8
#     8   8   8   8   8   8   8   8
#     4  11  25  41  66 105 137 181 225 290 358 422
#     4  11  26  48  68 101 135 189 237 288 344 414
#     4  12  26  49  73  96 143 187 241 286 357 425
#     4  10  23  41  65  96 133 184 233 281 348 407
#     4  11  24  42  70  99 138 185 230 293 350 413
#     4  11  23  38  65 100 144 181 221 284 354 421
#     4  11  25  43  69 104 137 183 236 293 354 424
#     4  11  23  40  65 101 145 167 226 288 350 420
#
# _framework density 20.990786
#
# number of rings (size 3 to 8) (size 9 to 14) (size 15 to 20)
#    0.000    1.000    1.250    5.625   12.250    4.000 
#    0.000    0.625    0.000    0.000    0.000    0.000 
#    0.000    0.000    0.000    0.000    0.000    0.000 
#
# Total GULP energy -178834.099361 kJ/mol
# GULP energy per Si atom -5588.565605 kJ/mol
# Density = 2.094301 g / cm^3
# Si number density = 20.990786 Si / 1000 Ang^3
#
#
#
# Elastic Constant Matrix: (Units=GPa)
#
#
# Indices 1 2 3 4 5 6 
#
# 1 70.1198 24.5169 11.3785 0.0000 0.0000 0.0000
# 2 24.5169 163.3977 25.4178 0.0000 0.0000 0.0000
# 3 11.3785 25.4178 94.0256 0.0000 0.0000 0.0000
# 4 0.0000 0.0000 0.0000 -0.4247 0.0000 0.0000
# 5 0.0000 0.0000 0.0000 0.0000 5.5620 0.0000
# 6 0.0000 0.0000 0.0000 0.0000 0.0000 39.4082
#
#
#
# Elastic Compliance Matrix: (Units=1/GPa)
#
#
# Indices 1 2 3 4 5 6 
#
# 1 0.015196 -0.002082 -0.001276 0.000000 0.000000 0.000000
# 2 -0.002082 0.006674 -0.001552 0.000000 0.000000 0.000000
# 3 -0.001276 -0.001552 0.011209 0.000000 0.000000 0.000000
# 4 0.000000 0.000000 0.000000 -2.354421 0.000000 0.000000
# 5 0.000000 0.000000 0.000000 0.000000 0.179792 0.000000
# 6 0.000000 0.000000 0.000000 0.000000 0.000000 0.025375
#
#
# Mechanical properties :
#
#
# Convention : Reuss Voigt Hill
#
# Bulk Modulus (GPa) = 42.99340 50.01884 46.50612
# Shear Modulus (GPa) = -2.38254 26.65776 12.13761
#
# Velocity S-wave (km/s) = -1.06654 3.56754 2.40726
# Velocity P-wave (km/s) = 4.36003 6.39143 5.47084
#
# Compressibility (1/GPa) = 0.02325938
#
# Stress axis : x y z
#
# Youngs Moduli (GPa) = 65.80587 149.83902 89.21034
#
# Poissons Ratio (x) = 0.31190 0.11386
# Poissons Ratio (y) = 0.13698 0.13847
# Poissons Ratio (z) = 0.08399 0.23258
#
# Static dielectric constant tensor:
#      x y z
#    x 1.778920 0.000000 0.000000 
#    y 0.000000 1.838500 0.000000 
#    z 0.000000 0.000000 1.768860 
# 
# From -- ./inp_files/12243.got.cif
#   From: 2010.05.17/outbox.cif.g08.bks.cpg/sg41_7_cif.got.tgz:12243.got - 2010.06.03 18:54:24.
