data_PCOD9367281
_publ_section_title
;
Structure prediction by ZEFSAII (Michael W. Deem and Ramdas Pophale) SiO2 
 PCOD9367281
Probable space group: A B A 2
;
_chemical_formula_sum "Si O2"
_cell_formula_units_Z 60
_cell_length_a 17.862641
_cell_length_b 17.129736
_cell_length_c 8.805355
_cell_angle_alpha 90.000000
_cell_angle_beta 90.000000
_cell_angle_gamma 90.000000
_cell_volume 2694.282992
_symmetry_space_group_name_H-M "A B A 2"
_symmetry_group_IT_number 41
_symmetry_cell_setting 'orthorhombic'
loop_
_space_group_symop_operation_xyz
x,y,z
-x,-y,z
1/2-x,y,1/2+z
1/2+x,-y,1/2+z
x,1/2+y,1/2+z
-x,1/2-y,1/2+z
1/2-x,1/2+y,z
1/2+x,1/2-y,z
loop_
_atom_site_type_symbol
_atom_site_label
_atom_site_fract_x
_atom_site_fract_y
_atom_site_fract_z
Si Si1 0.000000 0.500000 0.150510
Si Si2 0.297891 0.355174 0.693600
Si Si3 0.795708 0.789637 0.407311
Si Si4 0.635594 0.159202 0.633238
Si Si5 0.398407 0.454930 0.899606
Si Si6 0.867349 0.363344 0.392554
Si Si7 0.575958 0.203376 0.963469
Si Si8 0.584050 0.870602 0.039898
O O1 0.961749 0.557302 0.271067
O O2 0.938615 0.460900 0.047843
O O3 0.286290 0.269973 0.769949
O O4 0.215613 0.383349 0.651473
O O5 0.328210 0.415382 0.816730
O O6 0.358692 0.338276 0.562868
O O7 0.836858 0.733376 0.532561
O O8 0.716627 0.832323 0.431265
O O9 0.858918 0.855104 0.403838
O O10 0.584331 0.099232 0.541669
O O11 0.597354 0.182842 0.789905
O O12 0.383936 0.546195 0.931659
O O13 0.918118 0.297309 0.472046
O O14 0.881126 0.358946 0.209412
O O15 0.493786 0.175311 0.013107
#
# Coordination Sequence:
#
# PCOD9367281 Si02
#       8
#     4   8   8   8   8   8   8   8
#     4  10  22  48  64 100 148 186 230 308 364 424
#     4  11  21  42  71  99 138 189 229 283 356 422
#     4  11  22  42  70 102 139 183 241 294 341 431
#     4  11  22  44  70 104 139 179 236 290 352 429
#     4  10  24  42  72  93 139 189 227 285 367 418
#     4  11  24  45  69 106 142 183 240 298 352 428
#     4  12  23  43  73 101 139 182 238 292 349 428
#     4  11  25  43  72 103 141 192 236 292 368 427
#
# _framework density 22.269376000000001
#
# number of rings (size 3 to 8) (size 9 to 14) (size 15 to 20)
#    0.000    1.067    5.333    0.800    1.867    3.200 
#    2.400    0.667    0.000    0.000    0.000    0.000 
#    0.000    0.000    0.000    0.000    0.000    0.000 
#
# Total GULP energy -167312.439586 kJ/mol
# GULP energy per Si atom -5577.081320 kJ/mol
# Density = 2.221869 g / cm^3
# Si number density = 22.269376 Si / 1000 Ang^3
#
#
#
# Elastic Constant Matrix: (Units=GPa)
#
#
# Indices 1 2 3 4 5 6 
#
# 1 91.4871 21.4233 14.8453 0.0000 0.0000 0.0000
# 2 21.4233 100.1581 48.6136 0.0000 0.0000 0.0000
# 3 14.8453 48.6136 65.0483 0.0000 0.0000 0.0000
# 4 0.0000 0.0000 0.0000 17.7634 0.0000 0.0000
# 5 0.0000 0.0000 0.0000 0.0000 31.2804 0.0000
# 6 0.0000 0.0000 0.0000 0.0000 0.0000 33.1704
#
#
#
# Elastic Compliance Matrix: (Units=1/GPa)
#
#
# Indices 1 2 3 4 5 6 
#
# 1 0.011570 -0.001872 -0.001241 0.000000 0.000000 0.000000
# 2 -0.001872 0.015970 -0.011508 0.000000 0.000000 0.000000
# 3 -0.001241 -0.011508 0.024257 0.000000 0.000000 0.000000
# 4 0.000000 0.000000 0.000000 0.056296 0.000000 0.000000
# 5 0.000000 0.000000 0.000000 0.000000 0.031969 0.000000
# 6 0.000000 0.000000 0.000000 0.000000 0.000000 0.030147
#
#
# Mechanical properties :
#
#
# Convention : Reuss Voigt Hill
#
# Bulk Modulus (GPa) = 44.33750 47.38422 45.86086
# Shear Modulus (GPa) = 24.15798 27.89693 26.02745
#
# Velocity S-wave (km/s) = 3.29721 3.54320 3.42242
# Velocity P-wave (km/s) = 5.86927 6.16952 6.02126
#
# Compressibility (1/GPa) = 0.02255427
#
# Stress axis : x y z
#
# Youngs Moduli (GPa) = 86.42769 62.61605 41.22526
#
# Poissons Ratio (x) = 0.11724 0.05117
# Poissons Ratio (y) = 0.16182 0.47442
# Poissons Ratio (z) = 0.10728 0.72059
#
# Static dielectric constant tensor:
#      x y z
#    x 1.930040 0.000000 0.000000 
#    y 0.000000 1.942170 0.000000 
#    z 0.000000 0.000000 1.829240 
# 
# From -- ./inp_files/3165.got.cif
#   From: 2010.05.17/outbox.cif.g08.bks.cpg/sg41_2_cif.got.tgz:3165.got - 2010.06.03 18:54:24.
