data_PCOD9367133
_publ_section_title
;
Structure prediction by ZEFSAII (Michael W. Deem and Ramdas Pophale) SiO2 
 PCOD9367133
Probable space group: A B A 2
;
_chemical_formula_sum "Si O2"
_cell_formula_units_Z 48
_cell_length_a 14.247474
_cell_length_b 9.396443
_cell_length_c 13.182974
_cell_angle_alpha 90.000000
_cell_angle_beta 90.000000
_cell_angle_gamma 90.000000
_cell_volume 1764.878255
_symmetry_space_group_name_H-M "A B A 2"
_symmetry_group_IT_number 41
_symmetry_cell_setting 'orthorhombic'
loop_
_space_group_symop_operation_xyz
x,y,z
-x,-y,z
1/2-x,y,1/2+z
1/2+x,-y,1/2+z
x,1/2+y,1/2+z
-x,1/2-y,1/2+z
1/2-x,1/2+y,z
1/2+x,1/2-y,z
loop_
_atom_site_type_symbol
_atom_site_label
_atom_site_fract_x
_atom_site_fract_y
_atom_site_fract_z
Si Si1 0.341556 0.965798 0.497210
Si Si2 0.083426 0.295602 0.807719
Si Si3 0.750546 0.363003 0.812340
Si Si4 0.000000 0.000000 0.739432
Si Si5 0.170351 0.489125 0.116209
Si Si6 0.500000 0.500000 0.139561
Si Si7 0.076538 0.170691 0.438591
O O1 0.402780 0.835875 0.457647
O O2 0.273140 0.074769 0.202983
O O3 0.251478 0.904893 0.558537
O O4 0.413623 0.051376 0.568804
O O5 0.195927 0.289015 0.813889
O O6 0.046709 0.380886 0.710917
O O7 0.031093 0.352645 0.907559
O O8 0.048731 0.131845 0.795232
O O9 0.640535 0.363002 0.339953
O O10 0.702732 0.443705 0.907109
O O11 0.917612 0.076131 0.674797
O O12 0.118731 0.591516 0.035377
#
# Coordination Sequence:
#
# PCOD9367133 Si02
#       7
#     8   8   8   4   8   4   8
#     4  11  23  40  64  92 126 168 213 259 314 377
#     4  11  24  42  66  93 127 166 208 262 316 375
#     4  10  23  41  61  89 125 166 211 259 311 372
#     4  10  22  42  66  88 124 170 208 256 316 374
#     4  10  23  40  61  92 125 163 211 261 312 370
#     4  12  26  42  66  96 128 164 210 266 316 374
#     4  11  23  39  64  93 125 165 210 260 315 375
#
# _framework density 27.197344000000001
#
# number of rings (size 3 to 8) (size 9 to 14) (size 15 to 20)
#    0.000    1.333    0.000    6.000    0.000   13.333 
#    0.000    0.000    0.000    0.000    0.000    0.000 
#    0.000    0.000    0.000    0.000    0.000    0.000 
#
# Total GULP energy -134526.083382 kJ/mol
# GULP energy per Si atom -5605.253474 kJ/mol
# Density = 2.713544 g / cm^3
# Si number density = 27.197344 Si / 1000 Ang^3
#
#
#
# Elastic Constant Matrix: (Units=GPa)
#
#
# Indices 1 2 3 4 5 6 
#
# 1 134.7006 -4.7260 33.8924 0.0000 0.0000 0.0000
# 2 -4.7260 63.6017 16.6982 0.0000 0.0000 0.0000
# 3 33.8924 16.6982 113.4161 0.0000 0.0000 0.0000
# 4 0.0000 0.0000 0.0000 21.8724 0.0000 0.0000
# 5 0.0000 0.0000 0.0000 0.0000 54.3982 0.0000
# 6 0.0000 0.0000 0.0000 0.0000 0.0000 38.4803
#
#
#
# Elastic Compliance Matrix: (Units=1/GPa)
#
#
# Indices 1 2 3 4 5 6 
#
# 1 0.008128 0.001292 -0.002619 0.000000 0.000000 0.000000
# 2 0.001292 0.016560 -0.002824 0.000000 0.000000 0.000000
# 3 -0.002619 -0.002824 0.010016 0.000000 0.000000 0.000000
# 4 0.000000 0.000000 0.000000 0.045720 0.000000 0.000000
# 5 0.000000 0.000000 0.000000 0.000000 0.018383 0.000000
# 6 0.000000 0.000000 0.000000 0.000000 0.000000 0.025987
#
#
# Mechanical properties :
#
#
# Convention : Reuss Voigt Hill
#
# Bulk Modulus (GPa) = 37.87773 44.82750 41.35261
# Shear Modulus (GPa) = 35.23668 40.67378 37.95523
#
# Velocity S-wave (km/s) = 3.60334 3.87137 3.73976
# Velocity P-wave (km/s) = 5.59190 6.04164 5.82111
#
# Compressibility (1/GPa) = 0.02640074
#
# Stress axis : x y z
#
# Youngs Moduli (GPa) = 123.02860 60.38544 99.84459
#
# Poissons Ratio (x) = -0.07799 0.26151
# Poissons Ratio (y) = -0.15890 0.28197
# Poissons Ratio (z) = 0.32223 0.17054
#
# Static dielectric constant tensor:
#      x y z
#    x 2.140350 0.000000 0.000000 
#    y 0.000000 2.154250 0.000000 
#    z 0.000000 0.000000 2.132280 
# 
# From -- ./inp_files/8368.got.cif
#   From: 2010.05.17/outbox.cif.g08.bks.cpg/sg41_5_cif.got.tgz:8368.got - 2010.06.03 18:54:24.
