data_PCOD9367960
_publ_section_title
;
Structure prediction by ZEFSAII (Michael W. Deem and Ramdas Pophale) SiO2 
 PCOD9367960
Probable space group: A B A 2
;
_chemical_formula_sum "Si O2"
_cell_formula_units_Z 48
_cell_length_a 11.751164
_cell_length_b 8.673466
_cell_length_c 20.966555
_cell_angle_alpha 90.000000
_cell_angle_beta 90.000000
_cell_angle_gamma 90.000000
_cell_volume 2136.980924
_symmetry_space_group_name_H-M "A B A 2"
_symmetry_group_IT_number 41
_symmetry_cell_setting 'orthorhombic'
loop_
_space_group_symop_operation_xyz
x,y,z
-x,-y,z
1/2-x,y,1/2+z
1/2+x,-y,1/2+z
x,1/2+y,1/2+z
-x,1/2-y,1/2+z
1/2-x,1/2+y,z
1/2+x,1/2-y,z
loop_
_atom_site_type_symbol
_atom_site_label
_atom_site_fract_x
_atom_site_fract_y
_atom_site_fract_z
Si Si1 0.625983 0.967188 0.930150
Si Si2 0.500000 0.500000 0.013853
Si Si3 0.716777 0.373575 0.692099
Si Si4 0.199948 0.882574 0.099091
Si Si5 0.923878 0.346504 0.790638
Si Si6 0.185860 0.235682 0.983872
Si Si7 0.000000 0.500000 0.261754
O O1 0.682712 0.135212 0.929304
O O2 0.500000 0.000000 0.955620
O O3 0.616570 0.888118 0.861911
O O4 0.701990 0.864669 0.975417
O O5 0.411209 0.406618 0.056837
O O6 0.422163 0.623560 0.977339
O O7 0.672417 0.215781 0.661933
O O8 0.762713 0.457555 0.629303
O O9 0.817236 0.345020 0.742436
O O10 0.614608 0.471212 0.721722
O O11 0.299007 0.819388 0.052080
O O12 0.000000 0.500000 0.773353
O O13 0.980271 0.173402 0.792525
#
# Coordination Sequence:
#
# PCOD9367960 Si02
#       7
#     8   4   8   8   8   8   4
#     4  11  27  50  75 108 150 196 260 324 372 466
#     4  12  26  44  79 116 152 205 256 312 404 462
#     4  12  26  46  73 112 151 198 255 314 386 465
#     4  12  25  44  71 109 154 196 247 317 374 465
#     4  11  28  52  76 114 150 202 266 326 383 464
#     4  12  25  49  76 111 148 204 253 318 394 458
#     4  12  28  48  83 112 154 215 252 318 406 454
#
# _framework density 22.461594000000002
#
# number of rings (size 3 to 8) (size 9 to 14) (size 15 to 20)
#    0.000    0.333    5.000    2.000    8.167    1.333 
#    1.500    0.833    0.000    0.000    0.000    0.000 
#    0.000    0.000    0.000    0.000    0.000    0.000 
#
# Total GULP energy -134047.199764 kJ/mol
# GULP energy per Si atom -5585.299990 kJ/mol
# Density = 2.241047 g / cm^3
# Si number density = 22.461594 Si / 1000 Ang^3
#
#
#
# Elastic Constant Matrix: (Units=GPa)
#
#
# Indices 1 2 3 4 5 6 
#
# 1 72.1914 48.8826 29.7678 0.0000 0.0000 0.0000
# 2 48.8826 138.4412 42.4782 0.0000 0.0000 0.0000
# 3 29.7678 42.4782 59.9654 0.0000 0.0000 0.0000
# 4 0.0000 0.0000 0.0000 198.9823 0.0000 0.0000
# 5 0.0000 0.0000 0.0000 0.0000 29.2210 0.0000
# 6 0.0000 0.0000 0.0000 0.0000 0.0000 43.6051
#
#
#
# Elastic Compliance Matrix: (Units=1/GPa)
#
#
# Indices 1 2 3 4 5 6 
#
# 1 0.019887 -0.005102 -0.006258 0.000000 0.000000 0.000000
# 2 -0.005102 0.010538 -0.004932 0.000000 0.000000 0.000000
# 3 -0.006258 -0.004932 0.023277 0.000000 0.000000 0.000000
# 4 0.000000 0.000000 0.000000 0.005026 0.000000 0.000000
# 5 0.000000 0.000000 0.000000 0.000000 0.034222 0.000000
# 6 0.000000 0.000000 0.000000 0.000000 0.000000 0.022933
#
#
# Mechanical properties :
#
#
# Convention : Reuss Voigt Hill
#
# Bulk Modulus (GPa) = 47.35441 56.98391 52.16916
# Shear Modulus (GPa) = 32.15292 64.32632 48.23962
#
# Velocity S-wave (km/s) = 3.78757 5.35729 4.63930
# Velocity P-wave (km/s) = 6.34474 7.98072 7.20929
#
# Compressibility (1/GPa) = 0.02111736
#
# Stress axis : x y z
#
# Youngs Moduli (GPa) = 50.28363 94.89382 42.96091
#
# Poissons Ratio (x) = 0.48413 0.26886
# Poissons Ratio (y) = 0.25654 0.21190
# Poissons Ratio (z) = 0.31469 0.46805
#
# Static dielectric constant tensor:
#      x y z
#    x 1.833850 0.000000 0.000000 
#    y 0.000000 1.173990 0.000000 
#    z 0.000000 0.000000 1.808120 
# 
# From -- ./inp_files/12121.got.cif
#   From: 2010.05.17/outbox.cif.g08.bks.cpg/sg41_7_cif.got.tgz:12121.got - 2010.06.03 18:54:24.
