data_PCOD9367903
_publ_section_title
;
Structure prediction by ZEFSAII (Michael W. Deem and Ramdas Pophale) SiO2 
 PCOD9367903
Probable space group: A B A 2
;
_chemical_formula_sum "Si O2"
_cell_formula_units_Z 36
_cell_length_a 8.662758
_cell_length_b 23.877736
_cell_length_c 7.134669
_cell_angle_alpha 90.000000
_cell_angle_beta 90.000000
_cell_angle_gamma 90.000000
_cell_volume 1475.785225
_symmetry_space_group_name_H-M "A B A 2"
_symmetry_group_IT_number 41
_symmetry_cell_setting 'orthorhombic'
loop_
_space_group_symop_operation_xyz
x,y,z
-x,-y,z
1/2-x,y,1/2+z
1/2+x,-y,1/2+z
x,1/2+y,1/2+z
-x,1/2-y,1/2+z
1/2-x,1/2+y,z
1/2+x,1/2-y,z
loop_
_atom_site_type_symbol
_atom_site_label
_atom_site_fract_x
_atom_site_fract_y
_atom_site_fract_z
Si Si1 0.338663 0.200404 0.950430
Si Si2 0.012305 0.910412 0.331538
Si Si3 0.005906 0.690655 0.350378
Si Si4 0.000000 0.500000 0.541724
Si Si5 0.138835 0.423222 0.249349
O O1 0.414491 0.146509 0.848107
O O2 0.378926 0.261809 0.874359
O O3 0.156271 0.196047 0.978041
O O4 0.421713 0.199495 0.148067
O O5 0.432702 0.045526 0.689179
O O6 0.054855 0.929607 0.546437
O O7 0.182432 0.905476 0.238363
O O8 0.942304 0.628600 0.352289
O O9 0.878162 0.525215 0.393079
#
# Coordination Sequence:
#
# PCOD9367903 Si02
#       5
#     8   8   8   4   8
#     4  11  25  43  71 104 141 179 228 286 347 418
#     4  11  25  47  71 105 138 188 236 288 350 413
#     4  11  25  43  71 104 141 179 228 286 347 418
#     4  12  26  44  76  96 148 180 242 284 348 418
#     4  11  25  47  71 105 138 188 236 288 350 413
#
# _framework density 24.393792999999999
#
# number of rings (size 3 to 8) (size 9 to 14) (size 15 to 20)
#    0.000    0.889    2.222    3.333    6.222    5.333 
#    8.000    0.000    0.000    0.000    0.000    0.000 
#    0.000    0.000    0.000    0.000    0.000    0.000 
#
# Total GULP energy -100629.205678 kJ/mol
# GULP energy per Si atom -5590.511427 kJ/mol
# Density = 2.433827 g / cm^3
# Si number density = 24.393793 Si / 1000 Ang^3
#
#
#
# Elastic Constant Matrix: (Units=GPa)
#
#
# Indices 1 2 3 4 5 6 
#
# 1 56.2393 17.9581 13.6630 0.0000 0.0000 0.0000
# 2 17.9581 50.3881 49.2897 0.0000 0.0000 0.0000
# 3 13.6630 49.2897 156.9060 0.0000 0.0000 0.0000
# 4 0.0000 0.0000 0.0000 41.6072 0.0000 0.0000
# 5 0.0000 0.0000 0.0000 0.0000 30.5958 0.0000
# 6 0.0000 0.0000 0.0000 0.0000 0.0000 29.1778
#
#
#
# Elastic Compliance Matrix: (Units=1/GPa)
#
#
# Indices 1 2 3 4 5 6 
#
# 1 0.020121 -0.007878 0.000723 0.000000 0.000000 0.000000
# 2 -0.007878 0.031734 -0.009283 0.000000 0.000000 0.000000
# 3 0.000723 -0.009283 0.009226 0.000000 0.000000 0.000000
# 4 0.000000 0.000000 0.000000 0.024034 0.000000 0.000000
# 5 0.000000 0.000000 0.000000 0.000000 0.032684 0.000000
# 6 0.000000 0.000000 0.000000 0.000000 0.000000 0.034273
#
#
# Mechanical properties :
#
#
# Convention : Reuss Voigt Hill
#
# Bulk Modulus (GPa) = 35.45430 47.26169 41.35799
# Shear Modulus (GPa) = 25.72665 32.45098 29.08882
#
# Velocity S-wave (km/s) = 3.25104 3.65128 3.45696
# Velocity P-wave (km/s) = 5.35332 6.09855 5.73805
#
# Compressibility (1/GPa) = 0.02820533
#
# Stress axis : x y z
#
# Youngs Moduli (GPa) = 49.69888 31.51180 108.38485
#
# Poissons Ratio (x) = 0.24825 -0.07833
# Poissons Ratio (y) = 0.39153 1.00612
# Poissons Ratio (z) = -0.03592 0.29252
#
# Static dielectric constant tensor:
#      x y z
#    x 1.809880 0.000000 0.000000 
#    y 0.000000 1.959550 0.000000 
#    z 0.000000 0.000000 2.030130 
# 
# From -- ./inp_files/4421.got.cif
#   From: 2010.05.17/outbox.cif.g08.bks.cpg/sg41_3_cif.got.tgz:4421.got - 2010.06.03 18:54:24.
