data_PCOD9367118
_publ_section_title
;
Structure prediction by ZEFSAII (Michael W. Deem and Ramdas Pophale) SiO2 
 PCOD9367118
Probable space group: A B A 2
;
_chemical_formula_sum "Si O2"
_cell_formula_units_Z 60
_cell_length_a 27.647481
_cell_length_b 17.775636
_cell_length_c 5.099884
_cell_angle_alpha 90.000000
_cell_angle_beta 90.000000
_cell_angle_gamma 90.000000
_cell_volume 2506.345940
_symmetry_space_group_name_H-M "A B A 2"
_symmetry_group_IT_number 41
_symmetry_cell_setting 'orthorhombic'
loop_
_space_group_symop_operation_xyz
x,y,z
-x,-y,z
1/2-x,y,1/2+z
1/2+x,-y,1/2+z
x,1/2+y,1/2+z
-x,1/2-y,1/2+z
1/2-x,1/2+y,z
1/2+x,1/2-y,z
loop_
_atom_site_type_symbol
_atom_site_label
_atom_site_fract_x
_atom_site_fract_y
_atom_site_fract_z
Si Si1 0.382432 0.655883 0.774450
Si Si2 0.092214 0.950072 0.645358
Si Si3 0.466755 0.152203 0.883265
Si Si4 0.000000 0.500000 0.829205
Si Si5 0.368159 0.515854 0.130847
Si Si6 0.927676 0.213462 0.545262
Si Si7 0.273777 0.651915 0.700784
Si Si8 0.230347 0.477201 0.343081
O O1 0.430154 0.628084 0.617276
O O2 0.372659 0.602106 0.029830
O O3 0.395999 0.741626 0.835640
O O4 0.330372 0.653641 0.632609
O O5 0.092760 0.973688 0.948078
O O6 0.099724 0.860943 0.634588
O O7 0.040795 0.966968 0.518882
O O8 0.126676 0.995333 0.436815
O O9 0.477961 0.077206 0.710823
O O10 0.518776 0.187150 0.956254
O O11 0.438745 0.220580 0.749755
O O12 0.319590 0.482477 0.000600
O O13 0.239807 0.686442 0.479874
O O14 0.259771 0.564177 0.754832
O O15 0.266627 0.441272 0.555535
#
# Coordination Sequence:
#
# PCOD9367118 Si02
#       8
#     8   8   8   4   8   8   8   8
#     4  11  23  39  68  94 133 175 223 282 343 406
#     4  11  25  41  62  93 131 173 215 271 320 391
#     4  11  22  42  61  98 132 182 228 277 338 407
#     4  10  22  42  62  94 134 166 226 276 324 386
#     4  11  23  41  65  97 127 167 225 269 333 394
#     4  11  25  40  64  93 138 183 226 270 334 411
#     4   9  20  36  59  95 126 162 217 282 340 396
#     4   9  17  33  60  91 124 156 203 274 336 388
#
# _framework density 23.939235
#
# number of rings (size 3 to 8) (size 9 to 14) (size 15 to 20)
#    0.000    1.600    2.667    1.600    3.733    2.667 
#    0.000    0.000    0.000    4.800    0.000    0.000 
#    0.000    0.000    0.000    0.000    0.000    0.000 
#
# Total GULP energy -167237.305507 kJ/mol
# GULP energy per Si atom -5574.576850 kJ/mol
# Density = 2.388475 g / cm^3
# Si number density = 23.939235 Si / 1000 Ang^3
#
#
#
# Elastic Constant Matrix: (Units=GPa)
#
#
# Indices 1 2 3 4 5 6 
#
# 1 82.6470 10.1831 16.5376 0.0000 0.0000 0.0000
# 2 10.1831 122.3800 20.7395 0.0000 0.0000 0.0000
# 3 16.5376 20.7395 82.1583 0.0000 0.0000 0.0000
# 4 0.0000 0.0000 0.0000 29.8669 0.0000 0.0000
# 5 0.0000 0.0000 0.0000 0.0000 15.2962 0.0000
# 6 0.0000 0.0000 0.0000 0.0000 0.0000 11.5541
#
#
#
# Elastic Compliance Matrix: (Units=1/GPa)
#
#
# Indices 1 2 3 4 5 6 
#
# 1 0.012657 -0.000649 -0.002384 0.000000 0.000000 0.000000
# 2 -0.000649 0.008570 -0.002033 0.000000 0.000000 0.000000
# 3 -0.002384 -0.002033 0.013165 0.000000 0.000000 0.000000
# 4 0.000000 0.000000 0.000000 0.033482 0.000000 0.000000
# 5 0.000000 0.000000 0.000000 0.000000 0.065376 0.000000
# 6 0.000000 0.000000 0.000000 0.000000 0.000000 0.086550
#
#
# Mechanical properties :
#
#
# Convention : Reuss Voigt Hill
#
# Bulk Modulus (GPa) = 41.22045 42.45620 41.83833
# Shear Modulus (GPa) = 21.00702 27.32511 24.16606
#
# Velocity S-wave (km/s) = 2.96550 3.38218 3.18067
# Velocity P-wave (km/s) = 5.38347 5.74680 5.56810
#
# Compressibility (1/GPa) = 0.02425980
#
# Stress axis : x y z
#
# Youngs Moduli (GPa) = 79.00991 116.68951 75.96150
#
# Poissons Ratio (x) = 0.07575 0.18108
# Poissons Ratio (y) = 0.05129 0.15440
# Poissons Ratio (z) = 0.18834 0.23719
#
# Static dielectric constant tensor:
#      x y z
#    x 2.059160 0.000000 0.000000 
#    y 0.000000 1.930720 0.000000 
#    z 0.000000 0.000000 2.036620 
# 
# From -- ./inp_files/1172.got.cif
#   From: 2010.05.17/outbox.cif.g08.bks.cpg/sg41_1_cif.got.tgz:1172.got - 2010.06.03 18:54:24.
