data_PCOD9367192
_publ_section_title
;
Structure prediction by ZEFSAII (Michael W. Deem and Ramdas Pophale) SiO2 
 PCOD9367192
Probable space group: A B A 2
;
_chemical_formula_sum "Si O2"
_cell_formula_units_Z 32
_cell_length_a 9.214325
_cell_length_b 14.207542
_cell_length_c 8.971594
_cell_angle_alpha 90.000000
_cell_angle_beta 90.000000
_cell_angle_gamma 90.000000
_cell_volume 1174.497473
_symmetry_space_group_name_H-M "A B A 2"
_symmetry_group_IT_number 41
_symmetry_cell_setting 'orthorhombic'
loop_
_space_group_symop_operation_xyz
x,y,z
-x,-y,z
1/2-x,y,1/2+z
1/2+x,-y,1/2+z
x,1/2+y,1/2+z
-x,1/2-y,1/2+z
1/2-x,1/2+y,z
1/2+x,1/2-y,z
loop_
_atom_site_type_symbol
_atom_site_label
_atom_site_fract_x
_atom_site_fract_y
_atom_site_fract_z
Si Si1 0.862198 0.445831 0.471430
Si Si2 0.191361 0.884761 0.619143
Si Si3 0.552148 0.401160 0.378318
Si Si4 0.587153 0.197194 0.421668
O O1 0.785228 0.521021 0.581772
O O2 0.724830 0.412003 0.379969
O O3 0.000000 0.500000 0.400598
O O4 0.952042 0.351657 0.506952
O O5 0.286733 0.801157 0.545530
O O6 0.165357 0.862048 0.789999
O O7 0.038472 0.899156 0.534453
O O8 0.500000 0.500000 0.306486
O O9 0.533114 0.291568 0.340440
#
# Coordination Sequence:
#
# PCOD9367192 Si02
#       4
#     8   8   8   8
#     4   9  21  43  71 103 144 190 244 308 379 452
#     4  10  24  44  73 112 150 196 256 326 396 465
#     4  10  22  43  70 106 148 198 252 310 380 462
#     4  11  23  46  76 111 153 202 260 324 393 475
#
# _framework density 27.245695999999999
#
# number of rings (size 3 to 8) (size 9 to 14) (size 15 to 20)
#    0.000    2.000    0.000    1.500    0.000   13.000 
#    0.000   36.250    0.000    0.000    0.000    0.000 
#    0.000    0.000    0.000    0.000    0.000    0.000 
#
# Total GULP energy -89139.436462 kJ/mol
# GULP energy per Si atom -5571.214779 kJ/mol
# Density = 2.718368 g / cm^3
# Si number density = 27.245696 Si / 1000 Ang^3
#
#
#
# Elastic Constant Matrix: (Units=GPa)
#
#
# Indices 1 2 3 4 5 6 
#
# 1 167.7302 21.7913 15.3961 0.0000 0.0000 0.0000
# 2 21.7913 170.2456 9.2256 0.0000 0.0000 0.0000
# 3 15.3961 9.2256 88.8463 0.0000 0.0000 0.0000
# 4 0.0000 0.0000 0.0000 19.2929 0.0000 0.0000
# 5 0.0000 0.0000 0.0000 0.0000 46.1072 0.0000
# 6 0.0000 0.0000 0.0000 0.0000 0.0000 56.5130
#
#
#
# Elastic Compliance Matrix: (Units=1/GPa)
#
#
# Indices 1 2 3 4 5 6 
#
# 1 0.006148 -0.000733 -0.000989 0.000000 0.000000 0.000000
# 2 -0.000733 0.005995 -0.000495 0.000000 0.000000 0.000000
# 3 -0.000989 -0.000495 0.011478 0.000000 0.000000 0.000000
# 4 0.000000 0.000000 0.000000 0.051832 0.000000 0.000000
# 5 0.000000 0.000000 0.000000 0.000000 0.021689 0.000000
# 6 0.000000 0.000000 0.000000 0.000000 0.000000 0.017695
#
#
# Mechanical properties :
#
#
# Convention : Reuss Voigt Hill
#
# Bulk Modulus (GPa) = 52.12422 57.73870 54.93146
# Shear Modulus (GPa) = 39.78744 49.74325 44.76534
#
# Velocity S-wave (km/s) = 3.82556 4.27749 4.05782
# Velocity P-wave (km/s) = 6.21980 6.75528 6.49306
#
# Compressibility (1/GPa) = 0.01918494
#
# Stress axis : x y z
#
# Youngs Moduli (GPa) = 162.65366 166.81745 87.12125
#
# Poissons Ratio (x) = 0.12233 0.08618
# Poissons Ratio (y) = 0.11928 0.04316
# Poissons Ratio (z) = 0.16090 0.08264
#
# Static dielectric constant tensor:
#      x y z
#    x 2.071400 0.000000 0.000000 
#    y 0.000000 2.316380 0.000000 
#    z 0.000000 0.000000 2.145890 
# 
# From -- ./inp_files/1921.got.cif
#   From: 2010.05.17/outbox.cif.g08.bks.cpg/sg41_1_cif.got.tgz:1921.got - 2010.06.03 18:54:24.
