data_PCOD9367659
_publ_section_title
;
Structure prediction by ZEFSAII (Michael W. Deem and Ramdas Pophale) SiO2 
 PCOD9367659
Probable space group: A B A 2
;
_chemical_formula_sum "Si O2"
_cell_formula_units_Z 36
_cell_length_a 9.082392
_cell_length_b 18.666673
_cell_length_c 7.931353
_cell_angle_alpha 90.000000
_cell_angle_beta 90.000000
_cell_angle_gamma 90.000000
_cell_volume 1344.666054
_symmetry_space_group_name_H-M "A B A 2"
_symmetry_group_IT_number 41
_symmetry_cell_setting 'orthorhombic'
loop_
_space_group_symop_operation_xyz
x,y,z
-x,-y,z
1/2-x,y,1/2+z
1/2+x,-y,1/2+z
x,1/2+y,1/2+z
-x,1/2-y,1/2+z
1/2-x,1/2+y,z
1/2+x,1/2-y,z
loop_
_atom_site_type_symbol
_atom_site_label
_atom_site_fract_x
_atom_site_fract_y
_atom_site_fract_z
Si Si1 0.676418 0.385989 0.274020
Si Si2 0.762148 0.616622 0.204425
Si Si3 0.000000 0.500000 0.758430
Si Si4 0.535664 0.870306 0.422424
Si Si5 0.555487 0.202278 0.919907
O O1 0.592785 0.446925 0.376773
O O2 0.848084 0.387407 0.277010
O O3 0.610598 0.316156 0.361755
O O4 0.606795 0.403658 0.091210
O O5 0.646324 0.549472 0.192065
O O6 0.653744 0.681799 0.257451
O O7 0.877388 0.605183 0.358644
O O8 0.868577 0.652422 0.062349
O O9 0.550131 0.785779 0.456601
#
# Coordination Sequence:
#
# PCOD9367659 Si02
#       5
#     8   8   4   8   8
#     4  11  26  41  66  98 139 180 235 297 358 451
#     4  11  24  43  73  98 145 191 234 307 361 452
#     4  10  26  48  62  96 136 188 248 282 362 442
#     4  12  23  42  70 104 136 182 235 306 383 435
#     4  11  22  42  68 105 138 180 238 305 379 435
#
# _framework density 26.772445000000001
#
# number of rings (size 3 to 8) (size 9 to 14) (size 15 to 20)
#    0.000    0.889    0.000    8.000    0.000    6.222 
#    0.000    0.000    0.000    1.333    0.000    0.000 
#    0.000    0.000    0.000    0.000    0.000    0.000 
#
# Total GULP energy -100265.907678 kJ/mol
# GULP energy per Si atom -5570.328204 kJ/mol
# Density = 2.671151 g / cm^3
# Si number density = 26.772445 Si / 1000 Ang^3
#
#
#
# Elastic Constant Matrix: (Units=GPa)
#
#
# Indices 1 2 3 4 5 6 
#
# 1 215.5589 69.3846 50.3812 0.0000 0.0000 0.0000
# 2 69.3846 108.7957 31.4539 0.0000 0.0000 0.0000
# 3 50.3812 31.4539 93.1252 0.0000 0.0000 0.0000
# 4 0.0000 0.0000 0.0000 3.3803 0.0000 0.0000
# 5 0.0000 0.0000 0.0000 0.0000 42.3824 0.0000
# 6 0.0000 0.0000 0.0000 0.0000 0.0000 34.0187
#
#
#
# Elastic Compliance Matrix: (Units=1/GPa)
#
#
# Indices 1 2 3 4 5 6 
#
# 1 0.006236 -0.003326 -0.002250 0.000000 0.000000 0.000000
# 2 -0.003326 0.011961 -0.002240 0.000000 0.000000 0.000000
# 3 -0.002250 -0.002240 0.012712 0.000000 0.000000 0.000000
# 4 0.000000 0.000000 0.000000 0.295835 0.000000 0.000000
# 5 0.000000 0.000000 0.000000 0.000000 0.023595 0.000000
# 6 0.000000 0.000000 0.000000 0.000000 0.000000 0.029396
#
#
# Mechanical properties :
#
#
# Convention : Reuss Voigt Hill
#
# Bulk Modulus (GPa) = 65.46538 79.99101 72.72820
# Shear Modulus (GPa) = 12.48568 33.70695 23.09632
#
# Velocity S-wave (km/s) = 2.16189 3.55211 2.94034
# Velocity P-wave (km/s) = 5.54412 6.83859 6.22509
#
# Compressibility (1/GPa) = 0.01527525
#
# Stress axis : x y z
#
# Youngs Moduli (GPa) = 160.36780 83.60811 78.66472
#
# Poissons Ratio (x) = 0.27811 0.17700
# Poissons Ratio (y) = 0.53343 0.17623
# Poissons Ratio (z) = 0.36083 0.18730
#
# Static dielectric constant tensor:
#      x y z
#    x 2.068440 0.000000 0.000000 
#    y 0.000000 2.310700 0.000000 
#    z 0.000000 0.000000 2.354120 
# 
# From -- ./inp_files/1667.got.cif
#   From: 2010.05.17/outbox.cif.g08.bks.cpg/sg41_1_cif.got.tgz:1667.got - 2010.06.03 18:54:24.
