data_PCOD9367145
_publ_section_title
;
Structure prediction by ZEFSAII (Michael W. Deem and Ramdas Pophale) SiO2 
 PCOD9367145
Probable space group: A B A 2
;
_chemical_formula_sum "Si O2"
_cell_formula_units_Z 64
_cell_length_a 17.129571
_cell_length_b 14.067424
_cell_length_c 11.419283
_cell_angle_alpha 90.000000
_cell_angle_beta 90.000000
_cell_angle_gamma 90.000000
_cell_volume 2751.692499
_symmetry_space_group_name_H-M "A B A 2"
_symmetry_group_IT_number 41
_symmetry_cell_setting 'orthorhombic'
loop_
_space_group_symop_operation_xyz
x,y,z
-x,-y,z
1/2-x,y,1/2+z
1/2+x,-y,1/2+z
x,1/2+y,1/2+z
-x,1/2-y,1/2+z
1/2-x,1/2+y,z
1/2+x,1/2-y,z
loop_
_atom_site_type_symbol
_atom_site_label
_atom_site_fract_x
_atom_site_fract_y
_atom_site_fract_z
Si Si1 0.801786 0.074958 0.724190
Si Si2 0.651675 0.761670 0.855433
Si Si3 0.079754 0.714978 0.632058
Si Si4 0.578982 0.637394 0.065153
Si Si5 0.928401 0.569627 0.043434
Si Si6 0.310779 0.697665 0.938208
Si Si7 0.142787 0.887887 0.311981
Si Si8 0.087905 0.027203 0.904872
O O1 0.812486 0.185477 0.761737
O O2 0.842345 0.050052 0.601036
O O3 0.713320 0.050817 0.756851
O O4 0.857922 0.027141 0.815393
O O5 0.585319 0.803926 0.770805
O O6 0.615774 0.707038 0.967434
O O7 0.722473 0.826229 0.902867
O O8 0.055853 0.823305 0.594159
O O9 0.163942 0.693398 0.573325
O O10 0.013993 0.650295 0.570844
O O11 0.600879 0.530317 0.026644
O O12 0.606280 0.657945 0.196072
O O13 0.000000 0.500000 0.076524
O O14 0.916085 0.564390 0.903328
O O15 0.322607 0.804506 0.893978
O O16 0.378894 0.632162 0.886703
O O17 0.000000 0.000000 0.873194
#
# Coordination Sequence:
#
# PCOD9367145 Si02
#       8
#     8   8   8   8   8   8   8   8
#     4   9  21  40  66  92 130 176 221 281 339 414
#     4   9  22  40  67  97 134 176 230 277 343 422
#     4  10  22  42  69 101 136 177 230 288 348 423
#     4  11  24  41  68  98 141 178 222 288 358 414
#     4  10  22  42  67  99 134 175 232 288 345 421
#     4  10  22  43  68  98 131 183 230 281 345 428
#     4  10  24  41  68  94 137 177 224 283 357 411
#     4  11  22  42  68  99 132 178 230 288 348 419
#
# _framework density 23.258413000000001
#
# number of rings (size 3 to 8) (size 9 to 14) (size 15 to 20)
#    0.000    2.000    1.250    0.375   14.000    2.500 
#    4.500    0.000    0.000    0.000    0.000    0.000 
#    0.000    0.000    0.000    0.000    0.000    0.000 
#
# Total GULP energy -178224.129358 kJ/mol
# GULP energy per Si atom -5569.504042 kJ/mol
# Density = 2.320548 g / cm^3
# Si number density = 23.258413 Si / 1000 Ang^3
#
#
#
# Elastic Constant Matrix: (Units=GPa)
#
#
# Indices 1 2 3 4 5 6 
#
# 1 117.5685 26.0599 56.4789 0.0000 0.0000 0.0000
# 2 26.0599 37.8249 5.6254 0.0000 0.0000 0.0000
# 3 56.4789 5.6254 129.9652 0.0000 0.0000 0.0000
# 4 0.0000 0.0000 0.0000 11.3500 0.0000 0.0000
# 5 0.0000 0.0000 0.0000 0.0000 -16.9570 0.0000
# 6 0.0000 0.0000 0.0000 0.0000 0.0000 43.8341
#
#
#
# Elastic Compliance Matrix: (Units=1/GPa)
#
#
# Indices 1 2 3 4 5 6 
#
# 1 0.012790 -0.008037 -0.005210 0.000000 0.000000 0.000000
# 2 -0.008037 0.031659 0.002122 0.000000 0.000000 0.000000
# 3 -0.005210 0.002122 0.009867 0.000000 0.000000 0.000000
# 4 0.000000 0.000000 0.000000 0.088106 0.000000 0.000000
# 5 0.000000 0.000000 0.000000 0.000000 -0.058973 0.000000
# 6 0.000000 0.000000 0.000000 0.000000 0.000000 0.022813
#
#
# Mechanical properties :
#
#
# Convention : Reuss Voigt Hill
#
# Bulk Modulus (GPa) = 31.18570 51.29856 41.24213
# Shear Modulus (GPa) = 35.91915 20.79170 28.35543
#
# Velocity S-wave (km/s) = 3.93409 2.99313 3.49542
# Velocity P-wave (km/s) = 5.83725 5.83514 5.83620
#
# Compressibility (1/GPa) = 0.03206598
#
# Stress axis : x y z
#
# Youngs Moduli (GPa) = 78.18521 31.58643 101.35041
#
# Poissons Ratio (x) = 0.25386 0.52807
# Poissons Ratio (y) = 0.62838 -0.21510
# Poissons Ratio (z) = 0.40737 -0.06704
#
# Static dielectric constant tensor:
#      x y z
#    x 2.045420 0.000000 0.000000 
#    y 0.000000 1.997990 0.000000 
#    z 0.000000 0.000000 1.932660 
# 
# From -- ./inp_files/6095.got.cif
#   From: 2010.05.17/outbox.cif.g08.bks.cpg/sg41_4_cif.got.tgz:6095.got - 2010.06.03 18:54:24.
