data_PCOD9367609
_publ_section_title
;
Structure prediction by ZEFSAII (Michael W. Deem and Ramdas Pophale) SiO2 
 PCOD9367609
Probable space group: A B A 2
;
_chemical_formula_sum "Si O2"
_cell_formula_units_Z 48
_cell_length_a 10.073355
_cell_length_b 8.466137
_cell_length_c 24.951250
_cell_angle_alpha 90.000000
_cell_angle_beta 90.000000
_cell_angle_gamma 90.000000
_cell_volume 2127.902570
_symmetry_space_group_name_H-M "A B A 2"
_symmetry_group_IT_number 41
_symmetry_cell_setting 'orthorhombic'
loop_
_space_group_symop_operation_xyz
x,y,z
-x,-y,z
1/2-x,y,1/2+z
1/2+x,-y,1/2+z
x,1/2+y,1/2+z
-x,1/2-y,1/2+z
1/2-x,1/2+y,z
1/2+x,1/2-y,z
loop_
_atom_site_type_symbol
_atom_site_label
_atom_site_fract_x
_atom_site_fract_y
_atom_site_fract_z
Si Si1 0.872968 0.610888 0.595120
Si Si2 0.182207 0.890433 0.971243
Si Si3 0.429824 0.829648 0.808780
Si Si4 0.421856 0.226950 0.428171
Si Si5 0.842834 0.665314 0.240995
Si Si6 0.803980 0.891163 0.664556
O O1 0.838702 0.645507 0.533741
O O2 0.891085 0.763225 0.632976
O O3 0.755643 0.508379 0.620720
O O4 0.000000 0.500000 0.595655
O O5 0.333416 0.861922 0.955073
O O6 0.078553 0.776888 0.940069
O O7 0.136419 0.065755 0.954094
O O8 0.401592 0.743451 0.864865
O O9 0.536113 0.726568 0.776054
O O10 0.292631 0.848571 0.776112
O O11 0.500000 0.000000 0.817974
O O12 0.810958 0.794063 0.195047
O O13 0.862181 0.500729 0.210728
#
# Coordination Sequence:
#
# PCOD9367609 Si02
#       6
#     8   8   8   8   8   8
#     4  11  23  47  74 104 149 190 246 308 376 446
#     4  11  25  48  72 110 145 193 245 309 365 450
#     4  12  27  48  74 107 150 199 249 309 376 446
#     4  11  26  45  75 104 146 191 247 301 371 443
#     4  11  25  48  72 109 146 194 251 308 370 449
#     4  10  25  43  74 103 142 197 240 308 369 444
#
# _framework density 22.557424000000001
#
# number of rings (size 3 to 8) (size 9 to 14) (size 15 to 20)
#    0.000    1.000    3.333    2.000    9.333    3.333 
#    3.000    0.000    0.000    0.000    0.000    0.000 
#    0.000    0.000    0.000    0.000    0.000    0.000 
#
# Total GULP energy -134330.517589 kJ/mol
# GULP energy per Si atom -5597.104900 kJ/mol
# Density = 2.250608 g / cm^3
# Si number density = 22.557424 Si / 1000 Ang^3
#
#
#
# Elastic Constant Matrix: (Units=GPa)
#
#
# Indices 1 2 3 4 5 6 
#
# 1 74.8853 7.0641 34.1187 0.0000 0.0000 0.0000
# 2 7.0641 84.8440 39.8877 0.0000 0.0000 0.0000
# 3 34.1187 39.8877 159.2408 0.0000 0.0000 0.0000
# 4 0.0000 0.0000 0.0000 38.0134 0.0000 0.0000
# 5 0.0000 0.0000 0.0000 0.0000 37.7458 0.0000
# 6 0.0000 0.0000 0.0000 0.0000 0.0000 35.7210
#
#
#
# Elastic Compliance Matrix: (Units=1/GPa)
#
#
# Indices 1 2 3 4 5 6 
#
# 1 0.014805 0.000293 -0.003245 0.000000 0.000000 0.000000
# 2 0.000293 0.013365 -0.003411 0.000000 0.000000 0.000000
# 3 -0.003245 -0.003411 0.007829 0.000000 0.000000 0.000000
# 4 0.000000 0.000000 0.000000 0.026307 0.000000 0.000000
# 5 0.000000 0.000000 0.000000 0.000000 0.026493 0.000000
# 6 0.000000 0.000000 0.000000 0.000000 0.000000 0.027995
#
#
# Mechanical properties :
#
#
# Convention : Reuss Voigt Hill
#
# Bulk Modulus (GPa) = 42.96699 53.45679 48.21189
# Shear Modulus (GPa) = 36.42249 38.15600 37.28924
#
# Velocity S-wave (km/s) = 4.02264 4.11725 4.07022
# Velocity P-wave (km/s) = 6.37689 6.80822 6.59608
#
# Compressibility (1/GPa) = 0.02327368
#
# Stress axis : x y z
#
# Youngs Moduli (GPa) = 67.54572 74.82011 127.72213
#
# Poissons Ratio (x) = -0.02193 0.41452
# Poissons Ratio (y) = -0.01980 0.43562
# Poissons Ratio (z) = 0.21922 0.25519
#
# Static dielectric constant tensor:
#      x y z
#    x 1.843080 0.000000 0.000000 
#    y 0.000000 1.841770 0.000000 
#    z 0.000000 0.000000 1.794220 
# 
# From -- ./inp_files/12665.got.cif
#   From: 2010.05.17/outbox.cif.g08.bks.cpg/sg41_7_cif.got.tgz:12665.got - 2010.06.03 18:54:24.
