data_PCOD9367672
_publ_section_title
;
Structure prediction by ZEFSAII (Michael W. Deem and Ramdas Pophale) SiO2 
 PCOD9367672
Probable space group: A B A 2
;
_chemical_formula_sum "Si O2"
_cell_formula_units_Z 32
_cell_length_a 13.702730
_cell_length_b 9.066516
_cell_length_c 9.684203
_cell_angle_alpha 90.000000
_cell_angle_beta 90.000000
_cell_angle_gamma 90.000000
_cell_volume 1203.126845
_symmetry_space_group_name_H-M "A B A 2"
_symmetry_group_IT_number 41
_symmetry_cell_setting 'orthorhombic'
loop_
_space_group_symop_operation_xyz
x,y,z
-x,-y,z
1/2-x,y,1/2+z
1/2+x,-y,1/2+z
x,1/2+y,1/2+z
-x,1/2-y,1/2+z
1/2-x,1/2+y,z
1/2+x,1/2-y,z
loop_
_atom_site_type_symbol
_atom_site_label
_atom_site_fract_x
_atom_site_fract_y
_atom_site_fract_z
Si Si1 0.092359 0.105988 0.794930
Si Si2 0.222834 0.760202 0.707964
Si Si3 0.539785 0.167227 0.004099
Si Si4 0.143152 0.863159 0.999920
O O1 0.194710 0.128569 0.714617
O O2 0.063816 0.265722 0.853368
O O3 0.116239 0.017960 0.935481
O O4 0.000000 0.000000 0.745110
O O5 0.125553 0.786034 0.612845
O O6 0.193711 0.783978 0.867212
O O7 0.289873 0.879146 0.630781
O O8 0.446664 0.263597 0.045857
O O9 0.500000 0.000000 0.983885
#
# Coordination Sequence:
#
# PCOD9367672 Si02
#       4
#     8   8   8   8
#     4  10  26  55  81 125 173 231 289 366 437 537
#     4  12  27  49  85 124 170 229 289 363 443 521
#     4  11  28  51  80 125 175 227 290 368 443 527
#     4  11  29  47  85 119 172 224 297 355 448 530
#
# _framework density 26.597359000000001
#
# number of rings (size 3 to 8) (size 9 to 14) (size 15 to 20)
#    0.000    1.000    2.500    0.000   17.500    0.000 
#    0.000    0.000    0.000    0.000    0.000    0.000 
#    0.000    0.000    0.000    0.000    0.000    0.000 
#
# Total GULP energy -89095.535422 kJ/mol
# GULP energy per Si atom -5568.470964 kJ/mol
# Density = 2.653682 g / cm^3
# Si number density = 26.597359 Si / 1000 Ang^3
#
#
#
# Elastic Constant Matrix: (Units=GPa)
#
#
# Indices 1 2 3 4 5 6 
#
# 1 212.9386 105.5021 77.5879 0.0000 0.0000 0.0000
# 2 105.5021 181.6002 60.3986 0.0000 0.0000 0.0000
# 3 77.5879 60.3986 86.9782 0.0000 0.0000 0.0000
# 4 0.0000 0.0000 0.0000 -24.7228 0.0000 0.0000
# 5 0.0000 0.0000 0.0000 0.0000 45.4976 0.0000
# 6 0.0000 0.0000 0.0000 0.0000 0.0000 35.9635
#
#
#
# Elastic Compliance Matrix: (Units=1/GPa)
#
#
# Indices 1 2 3 4 5 6 
#
# 1 0.008023 -0.002966 -0.005097 0.000000 0.000000 0.000000
# 2 -0.002966 0.008257 -0.003088 0.000000 0.000000 0.000000
# 3 -0.005097 -0.003088 0.018188 0.000000 0.000000 0.000000
# 4 0.000000 0.000000 0.000000 -0.040448 0.000000 0.000000
# 5 0.000000 0.000000 0.000000 0.000000 0.021979 0.000000
# 6 0.000000 0.000000 0.000000 0.000000 0.000000 0.027806
#
#
# Mechanical properties :
#
#
# Convention : Reuss Voigt Hill
#
# Bulk Modulus (GPa) = 82.19628 107.61047 94.90337
# Shear Modulus (GPa) = 71.26400 27.21622 49.24011
#
# Velocity S-wave (km/s) = 5.18187 3.20233 4.30736
# Velocity P-wave (km/s) = 8.17150 7.36343 7.77797
#
# Compressibility (1/GPa) = 0.01216600
#
# Stress axis : x y z
#
# Youngs Moduli (GPa) = 124.64454 121.11634 54.97983
#
# Poissons Ratio (x) = 0.35918 0.28025
# Poissons Ratio (y) = 0.36964 0.16978
# Poissons Ratio (z) = 0.63535 0.37401
#
# Static dielectric constant tensor:
#      x y z
#    x 2.220650 0.000000 0.000000 
#    y 0.000000 2.188020 0.000000 
#    z 0.000000 0.000000 2.144680 
# 
# From -- ./inp_files/5264.got.cif
#   From: 2010.05.17/outbox.cif.g08.bks.cpg/sg41_3_cif.got.tgz:5264.got - 2010.06.03 18:54:24.
