data_PCOD9367225
_publ_section_title
;
Structure prediction by ZEFSAII (Michael W. Deem and Ramdas Pophale) SiO2 
 PCOD9367225
Probable space group: A B A 2
;
_chemical_formula_sum "Si O2"
_cell_formula_units_Z 48
_cell_length_a 8.911491
_cell_length_b 20.395853
_cell_length_c 9.624569
_cell_angle_alpha 90.000000
_cell_angle_beta 90.000000
_cell_angle_gamma 90.000000
_cell_volume 1749.337219
_symmetry_space_group_name_H-M "A B A 2"
_symmetry_group_IT_number 41
_symmetry_cell_setting 'orthorhombic'
loop_
_space_group_symop_operation_xyz
x,y,z
-x,-y,z
1/2-x,y,1/2+z
1/2+x,-y,1/2+z
x,1/2+y,1/2+z
-x,1/2-y,1/2+z
1/2-x,1/2+y,z
1/2+x,1/2-y,z
loop_
_atom_site_type_symbol
_atom_site_label
_atom_site_fract_x
_atom_site_fract_y
_atom_site_fract_z
Si Si1 0.560465 0.662636 0.832880
Si Si2 0.312627 0.587007 0.721494
Si Si3 0.848641 0.032837 0.362584
Si Si4 0.090654 0.431216 0.565819
Si Si5 0.360397 0.777964 0.894622
Si Si6 0.835348 0.836556 0.461799
O O1 0.487025 0.603104 0.749167
O O2 0.534221 0.634704 0.989498
O O3 0.463118 0.727636 0.807151
O O4 0.731897 0.682149 0.815262
O O5 0.255654 0.518868 0.778763
O O6 0.217181 0.639771 0.810651
O O7 0.289368 0.604463 0.562519
O O8 0.749111 0.060140 0.486565
O O9 0.905007 0.075585 0.231167
O O10 0.000000 0.000000 0.418875
O O11 0.000000 0.500000 0.540714
O O12 0.487687 0.821348 0.968247
O O13 0.257640 0.730074 0.990563
#
# Coordination Sequence:
#
# PCOD9367225 Si02
#       6
#     8   8   8   8   8   8
#     4  10  22  44  70 100 142 183 239 296 356 424
#     4  11  23  44  70 100 145 187 236 305 354 437
#     4  11  26  43  71 105 141 190 236 291 370 427
#     4  11  24  47  71 104 146 185 235 300 361 435
#     4   9  22  43  67 102 136 188 239 296 355 429
#     4  10  23  40  69  98 139 186 238 294 363 423
#
# _framework density 27.438965
#
# number of rings (size 3 to 8) (size 9 to 14) (size 15 to 20)
#    0.000    1.667    1.667    1.000    9.333    7.333 
#    0.000    8.333    0.000    0.000    0.000    0.000 
#    0.000    0.000    0.000    0.000    0.000    0.000 
#
# Total GULP energy -134352.159299 kJ/mol
# GULP energy per Si atom -5598.006637 kJ/mol
# Density = 2.737651 g / cm^3
# Si number density = 27.438965 Si / 1000 Ang^3
#
#
#
# Elastic Constant Matrix: (Units=GPa)
#
#
# Indices 1 2 3 4 5 6 
#
# 1 187.7623 41.4575 38.5371 0.0000 0.0000 0.0000
# 2 41.4575 74.3834 -5.4590 0.0000 0.0000 0.0000
# 3 38.5371 -5.4590 69.4949 0.0000 0.0000 0.0000
# 4 0.0000 0.0000 0.0000 29.0016 0.0000 0.0000
# 5 0.0000 0.0000 0.0000 0.0000 38.9261 0.0000
# 6 0.0000 0.0000 0.0000 0.0000 0.0000 67.6668
#
#
#
# Elastic Compliance Matrix: (Units=1/GPa)
#
#
# Indices 1 2 3 4 5 6 
#
# 1 0.007162 -0.004308 -0.004310 0.000000 0.000000 0.000000
# 2 -0.004308 0.016113 0.003655 0.000000 0.000000 0.000000
# 3 -0.004310 0.003655 0.017066 0.000000 0.000000 0.000000
# 4 0.000000 0.000000 0.000000 0.034481 0.000000 0.000000
# 5 0.000000 0.000000 0.000000 0.000000 0.025690 0.000000
# 6 0.000000 0.000000 0.000000 0.000000 0.000000 0.014778
#
#
# Mechanical properties :
#
#
# Convention : Reuss Voigt Hill
#
# Bulk Modulus (GPa) = 32.87837 53.41243 43.14540
# Shear Modulus (GPa) = 36.94010 44.25923 40.59966
#
# Velocity S-wave (km/s) = 3.67313 4.02058 3.85078
# Velocity P-wave (km/s) = 5.47700 6.40793 5.96067
#
# Compressibility (1/GPa) = 0.03041514
#
# Stress axis : x y z
#
# Youngs Moduli (GPa) = 139.63399 62.06161 58.59438
#
# Poissons Ratio (x) = 0.26735 0.25252
# Poissons Ratio (y) = 0.60151 -0.21414
# Poissons Ratio (z) = 0.60178 -0.22681
#
# Static dielectric constant tensor:
#      x y z
#    x 2.203380 0.000000 0.000000 
#    y 0.000000 2.229550 0.000000 
#    z 0.000000 0.000000 2.075990 
# 
# From -- ./inp_files/4487.got.cif
#   From: 2010.05.17/outbox.cif.g08.bks.cpg/sg41_3_cif.got.tgz:4487.got - 2010.06.03 18:54:24.
