data_PCOD9367643
_publ_section_title
;
Structure prediction by ZEFSAII (Michael W. Deem and Ramdas Pophale) SiO2 
 PCOD9367643
Probable space group: A B A 2
;
_chemical_formula_sum "Si O2"
_cell_formula_units_Z 36
_cell_length_a 8.109930
_cell_length_b 19.045895
_cell_length_c 9.454421
_cell_angle_alpha 90.000000
_cell_angle_beta 90.000000
_cell_angle_gamma 90.000000
_cell_volume 1460.338143
_symmetry_space_group_name_H-M "A B A 2"
_symmetry_group_IT_number 41
_symmetry_cell_setting 'orthorhombic'
loop_
_space_group_symop_operation_xyz
x,y,z
-x,-y,z
1/2-x,y,1/2+z
1/2+x,-y,1/2+z
x,1/2+y,1/2+z
-x,1/2-y,1/2+z
1/2-x,1/2+y,z
1/2+x,1/2-y,z
loop_
_atom_site_type_symbol
_atom_site_label
_atom_site_fract_x
_atom_site_fract_y
_atom_site_fract_z
Si Si1 0.500000 0.000000 0.355981
Si Si2 0.416667 0.712864 0.851838
Si Si3 0.019699 0.886671 0.636266
Si Si4 0.896702 0.110112 0.065506
Si Si5 0.437544 0.141829 0.843945
O O1 0.439703 0.059960 0.249118
O O2 0.614211 0.043153 0.462048
O O3 0.472133 0.689935 0.694311
O O4 0.427200 0.796092 0.862647
O O5 0.233448 0.682806 0.860529
O O6 0.533863 0.673103 0.965713
O O7 0.217110 0.885642 0.634203
O O8 0.956408 0.905308 0.481630
O O9 0.027003 0.105740 0.194597
#
# Coordination Sequence:
#
# PCOD9367643 Si02
#       5
#     4   8   8   8   8
#     4  10  26  44  64  94 130 168 224 276 320 376
#     4  11  24  42  66 103 138 168 215 271 335 401
#     4  11  24  44  68  96 133 176 221 272 327 388
#     4  11  24  44  68  96 133 176 221 272 327 388
#     4  12  23  41  70  99 135 175 217 269 333 400
#
# _framework density 24.651824999999999
#
# number of rings (size 3 to 8) (size 9 to 14) (size 15 to 20)
#    0.000    0.889    0.000    8.000    0.000    8.000 
#    0.000    0.000    0.000    0.000    0.000    0.000 
#    0.000    0.000    0.000    0.000    0.000    0.000 
#
# Total GULP energy -100647.281559 kJ/mol
# GULP energy per Si atom -5591.515642 kJ/mol
# Density = 2.459572 g / cm^3
# Si number density = 24.651825 Si / 1000 Ang^3
#
#
#
# Elastic Constant Matrix: (Units=GPa)
#
#
# Indices 1 2 3 4 5 6 
#
# 1 111.0878 9.9796 19.2655 0.0000 0.0000 0.0000
# 2 9.9796 56.2527 40.3288 0.0000 0.0000 0.0000
# 3 19.2655 40.3288 161.2787 0.0000 0.0000 0.0000
# 4 0.0000 0.0000 0.0000 35.7642 0.0000 0.0000
# 5 0.0000 0.0000 0.0000 0.0000 21.1234 0.0000
# 6 0.0000 0.0000 0.0000 0.0000 0.0000 8.4202
#
#
#
# Elastic Compliance Matrix: (Units=1/GPa)
#
#
# Indices 1 2 3 4 5 6 
#
# 1 0.009241 -0.001033 -0.000846 0.000000 0.000000 0.000000
# 2 -0.001033 0.021775 -0.005322 0.000000 0.000000 0.000000
# 3 -0.000846 -0.005322 0.007632 0.000000 0.000000 0.000000
# 4 0.000000 0.000000 0.000000 0.027961 0.000000 0.000000
# 5 0.000000 0.000000 0.000000 0.000000 0.047341 0.000000
# 6 0.000000 0.000000 0.000000 0.000000 0.000000 0.118761
#
#
# Mechanical properties :
#
#
# Convention : Reuss Voigt Hill
#
# Bulk Modulus (GPa) = 41.24055 51.97413 46.60734
# Shear Modulus (GPa) = 19.59279 30.33123 24.96201
#
# Velocity S-wave (km/s) = 2.82224 3.51149 3.18556
# Velocity P-wave (km/s) = 5.23313 6.12942 5.69892
#
# Compressibility (1/GPa) = 0.02424798
#
# Stress axis : x y z
#
# Youngs Moduli (GPa) = 108.20925 45.92322 131.02429
#
# Poissons Ratio (x) = 0.04745 0.11079
# Poissons Ratio (y) = 0.11181 0.69727
# Poissons Ratio (z) = 0.09150 0.24439
#
# Static dielectric constant tensor:
#      x y z
#    x 1.936100 0.000000 0.000000 
#    y 0.000000 2.039710 0.000000 
#    z 0.000000 0.000000 1.958980 
# 
# From -- ./inp_files/1656.got.cif
#   From: 2010.05.17/outbox.cif.g08.bks.cpg/sg41_1_cif.got.tgz:1656.got - 2010.06.03 18:54:24.
