data_PCOD9367081
_publ_section_title
;
Structure prediction by ZEFSAII (Michael W. Deem and Ramdas Pophale) SiO2 
 PCOD9367081
Probable space group: A B A 2
;
_chemical_formula_sum "Si O2"
_cell_formula_units_Z 60
_cell_length_a 12.572910
_cell_length_b 11.094559
_cell_length_c 19.786392
_cell_angle_alpha 90.000000
_cell_angle_beta 90.000000
_cell_angle_gamma 90.000000
_cell_volume 2760.021466
_symmetry_space_group_name_H-M "A B A 2"
_symmetry_group_IT_number 41
_symmetry_cell_setting 'orthorhombic'
loop_
_space_group_symop_operation_xyz
x,y,z
-x,-y,z
1/2-x,y,1/2+z
1/2+x,-y,1/2+z
x,1/2+y,1/2+z
-x,1/2-y,1/2+z
1/2-x,1/2+y,z
1/2+x,1/2-y,z
loop_
_atom_site_type_symbol
_atom_site_label
_atom_site_fract_x
_atom_site_fract_y
_atom_site_fract_z
Si Si1 0.172960 0.945712 0.742060
Si Si2 0.966212 0.265876 0.687583
Si Si3 0.170232 0.902697 0.354312
Si Si4 0.500000 0.000000 0.348579
Si Si5 0.052503 0.152174 0.340550
Si Si6 0.636932 0.668138 0.933864
Si Si7 0.704981 0.933033 0.629313
Si Si8 0.840533 0.209320 0.087268
O O1 0.105522 0.855798 0.693746
O O2 0.259809 0.872631 0.787215
O O3 0.098111 0.010740 0.796968
O O4 0.228656 0.045550 0.697439
O O5 0.973429 0.296885 0.766677
O O6 0.906688 0.376914 0.651580
O O7 0.073602 0.255863 0.644789
O O8 0.254680 0.904077 0.415627
O O9 0.063284 0.833516 0.375831
O O10 0.108712 0.023816 0.332495
O O11 0.461553 0.898864 0.399501
O O12 0.140652 0.215413 0.386733
O O13 0.618276 0.699519 0.010859
O O14 0.758456 0.822331 0.588369
O O15 0.697402 0.070246 0.601062
#
# Coordination Sequence:
#
# PCOD9367081 Si02
#       8
#     8   8   8   4   8   8   8   8
#     4  11  21  44  70 112 141 189 239 322 364 436
#     4  12  24  44  73 111 146 188 252 306 371 433
#     4  10  23  41  69 105 143 177 244 297 377 432
#     4  10  22  40  70 104 140 176 248 296 366 428
#     4  11  23  42  73 104 140 190 237 314 361 438
#     4  11  27  46  68 103 144 199 238 303 372 452
#     4  12  26  47  73 104 146 198 244 300 372 446
#     4  12  30  48  72 104 152 199 246 304 374 457
#
# _framework density 21.738959999999999
#
# number of rings (size 3 to 8) (size 9 to 14) (size 15 to 20)
#    0.000    0.800    5.333    2.000    5.600    3.200 
#    0.000    0.000    0.000    0.000    0.000    0.000 
#    0.000    0.000    0.000    0.000    0.000    0.000 
#
# Total GULP energy -167034.980311 kJ/mol
# GULP energy per Si atom -5567.832677 kJ/mol
# Density = 2.168948 g / cm^3
# Si number density = 21.738960 Si / 1000 Ang^3
#
#
#
# Elastic Constant Matrix: (Units=GPa)
#
#
# Indices 1 2 3 4 5 6 
#
# 1 72.7479 36.2682 22.3916 0.0000 0.0000 0.0000
# 2 36.2682 63.5051 13.2678 0.0000 0.0000 0.0000
# 3 22.3916 13.2678 105.9666 0.0000 0.0000 0.0000
# 4 0.0000 0.0000 0.0000 23.3072 0.0000 0.0000
# 5 0.0000 0.0000 0.0000 0.0000 143.8715 0.0000
# 6 0.0000 0.0000 0.0000 0.0000 0.0000 122.2743
#
#
#
# Elastic Compliance Matrix: (Units=1/GPa)
#
#
# Indices 1 2 3 4 5 6 
#
# 1 0.020037 -0.010842 -0.002876 0.000000 0.000000 0.000000
# 2 -0.010842 0.022037 -0.000468 0.000000 0.000000 0.000000
# 3 -0.002876 -0.000468 0.010103 0.000000 0.000000 0.000000
# 4 0.000000 0.000000 0.000000 0.042905 0.000000 0.000000
# 5 0.000000 0.000000 0.000000 0.000000 0.006951 0.000000
# 6 0.000000 0.000000 0.000000 0.000000 0.000000 0.008178
#
#
# Mechanical properties :
#
#
# Convention : Reuss Voigt Hill
#
# Bulk Modulus (GPa) = 42.01092 42.89722 42.45407
# Shear Modulus (GPa) = 34.12531 69.24339 51.68435
#
# Velocity S-wave (km/s) = 3.96634 5.64990 4.88125
# Velocity P-wave (km/s) = 6.35161 7.89541 7.16521
#
# Compressibility (1/GPa) = 0.02380333
#
# Stress axis : x y z
#
# Youngs Moduli (GPa) = 49.90823 45.37902 98.97701
#
# Poissons Ratio (x) = 0.49201 0.28470
# Poissons Ratio (y) = 0.54111 0.04633
# Poissons Ratio (z) = 0.14356 0.02124
#
# Static dielectric constant tensor:
#      x y z
#    x 1.666100 0.000000 0.000000 
#    y 0.000000 1.456950 0.000000 
#    z 0.000000 0.000000 1.757150 
# 
# From -- ./inp_files/11410.got.cif
#   From: 2010.05.17/outbox.cif.g08.bks.cpg/sg41_6_cif.got.tgz:11410.got - 2010.06.03 18:54:24.
