data_PCOD9367259
_publ_section_title
;
Structure prediction by ZEFSAII (Michael W. Deem and Ramdas Pophale) SiO2 
 PCOD9367259
Probable space group: A B A 2
;
_chemical_formula_sum "Si O2"
_cell_formula_units_Z 40
_cell_length_a 9.160848
_cell_length_b 15.418256
_cell_length_c 12.251809
_cell_angle_alpha 90.000000
_cell_angle_beta 90.000000
_cell_angle_gamma 90.000000
_cell_volume 1730.498182
_symmetry_space_group_name_H-M "A B A 2"
_symmetry_group_IT_number 41
_symmetry_cell_setting 'orthorhombic'
loop_
_space_group_symop_operation_xyz
x,y,z
-x,-y,z
1/2-x,y,1/2+z
1/2+x,-y,1/2+z
x,1/2+y,1/2+z
-x,1/2-y,1/2+z
1/2-x,1/2+y,z
1/2+x,1/2-y,z
loop_
_atom_site_type_symbol
_atom_site_label
_atom_site_fract_x
_atom_site_fract_y
_atom_site_fract_z
Si Si1 0.035576 0.858438 0.475850
Si Si2 0.215395 0.707046 0.422676
Si Si3 0.625394 0.660127 0.251894
Si Si4 0.861631 0.028793 0.672390
Si Si5 0.098206 0.084981 0.089407
O O1 0.159666 0.786658 0.495956
O O2 0.070076 0.895107 0.356404
O O3 0.057434 0.926229 0.569514
O O4 0.882643 0.811046 0.452088
O O5 0.170193 0.745650 0.303397
O O6 0.131513 0.624844 0.471091
O O7 0.766684 0.607737 0.217084
O O8 0.496610 0.652334 0.163048
O O9 0.748794 0.950940 0.643437
O O10 0.000000 0.000000 0.744390
O O11 0.000000 0.000000 0.080207
#
# Coordination Sequence:
#
# PCOD9367259 Si02
#       5
#     8   8   8   8   8
#     4  10  24  46  72 107 148 194 244 305 371 453
#     4  10  23  48  70 107 147 197 240 305 368 454
#     4   9  25  45  70 109 150 194 245 299 377 454
#     4  11  22  45  78 108 144 192 249 309 376 439
#     4  10  22  45  81 107 146 192 245 311 375 443
#
# _framework density 23.114729000000001
#
# number of rings (size 3 to 8) (size 9 to 14) (size 15 to 20)
#    1.200    0.800    2.000    0.000    5.600    4.000 
#    3.600    3.000    0.000    0.000    0.000    0.000 
#    0.000    0.000    0.000    0.000    0.000    0.000 
#
# Total GULP energy -111344.239858 kJ/mol
# GULP energy per Si atom -5567.211993 kJ/mol
# Density = 2.306212 g / cm^3
# Si number density = 23.114729 Si / 1000 Ang^3
#
#
#
# Elastic Constant Matrix: (Units=GPa)
#
#
# Indices 1 2 3 4 5 6 
#
# 1 196.0412 64.5202 66.3175 0.0000 0.0000 0.0000
# 2 64.5202 78.9070 53.1070 0.0000 0.0000 0.0000
# 3 66.3175 53.1070 66.9337 0.0000 0.0000 0.0000
# 4 0.0000 0.0000 0.0000 -3.1123 0.0000 0.0000
# 5 0.0000 0.0000 0.0000 0.0000 81.4503 0.0000
# 6 0.0000 0.0000 0.0000 0.0000 0.0000 10.1084
#
#
#
# Elastic Compliance Matrix: (Units=1/GPa)
#
#
# Indices 1 2 3 4 5 6 
#
# 1 0.007906 -0.002559 -0.005803 0.000000 0.000000 0.000000
# 2 -0.002559 0.028024 -0.019699 0.000000 0.000000 0.000000
# 3 -0.005803 -0.019699 0.036320 0.000000 0.000000 0.000000
# 4 0.000000 0.000000 0.000000 -0.321305 0.000000 0.000000
# 5 0.000000 0.000000 0.000000 0.000000 0.012277 0.000000
# 6 0.000000 0.000000 0.000000 0.000000 0.000000 0.098927
#
#
# Mechanical properties :
#
#
# Convention : Reuss Voigt Hill
#
# Bulk Modulus (GPa) = 62.00800 78.86348 70.43574
# Shear Modulus (GPa) = -65.48647 28.21843 -18.63402
#
# Velocity S-wave (km/s) = -5.32847 3.49778 -2.84236
# Velocity P-wave (km/s) = 3.31245 7.10669 4.44593
#
# Compressibility (1/GPa) = 0.01612695
#
# Stress axis : x y z
#
# Youngs Moduli (GPa) = 126.48163 35.68362 27.53322
#
# Poissons Ratio (x) = 0.09132 0.15977
# Poissons Ratio (y) = 0.32369 0.54239
# Poissons Ratio (z) = 0.73397 0.70295
#
# Static dielectric constant tensor:
#      x y z
#    x 1.983170 0.000000 0.000000 
#    y 0.000000 1.873940 0.000000 
#    z 0.000000 0.000000 1.927740 
# 
# From -- ./inp_files/4385.got.cif
#   From: 2010.05.17/outbox.cif.g08.bks.cpg/sg41_3_cif.got.tgz:4385.got - 2010.06.03 18:54:24.
