data_PCOD9367387
_publ_section_title
;
Structure prediction by ZEFSAII (Michael W. Deem and Ramdas Pophale) SiO2 
 PCOD9367387
Probable space group: A B A 2
;
_chemical_formula_sum "Si O2"
_cell_formula_units_Z 64
_cell_length_a 30.496264
_cell_length_b 8.423392
_cell_length_c 11.605046
_cell_angle_alpha 90.000000
_cell_angle_beta 90.000000
_cell_angle_gamma 90.000000
_cell_volume 2981.127267
_symmetry_space_group_name_H-M "A B A 2"
_symmetry_group_IT_number 41
_symmetry_cell_setting 'orthorhombic'
loop_
_space_group_symop_operation_xyz
x,y,z
-x,-y,z
1/2-x,y,1/2+z
1/2+x,-y,1/2+z
x,1/2+y,1/2+z
-x,1/2-y,1/2+z
1/2-x,1/2+y,z
1/2+x,1/2-y,z
loop_
_atom_site_type_symbol
_atom_site_label
_atom_site_fract_x
_atom_site_fract_y
_atom_site_fract_z
Si Si1 0.000475 0.830371 0.748370
Si Si2 0.260006 0.078453 0.363116
Si Si3 0.697240 0.130098 0.983734
Si Si4 0.937709 0.867150 0.966232
Si Si5 0.897560 0.028865 0.419845
Si Si6 0.545626 0.041694 0.702451
Si Si7 0.688454 0.709033 0.747323
Si Si8 0.906811 0.193704 0.862081
O O1 0.976755 0.846671 0.873610
O O2 0.968524 0.720090 0.674283
O O3 0.050920 0.791672 0.778141
O O4 0.000000 0.000000 0.689780
O O5 0.289826 0.223890 0.402315
O O6 0.219823 0.147667 0.288056
O O7 0.237480 0.992800 0.472850
O O8 0.288459 0.948854 0.297277
O O9 0.653734 0.045919 0.939137
O O10 0.688728 0.193898 0.110617
O O11 0.917370 0.690326 0.975787
O O12 0.909058 0.015685 0.915465
O O13 0.950907 0.935025 0.090226
O O14 0.913407 0.040745 0.286564
O O15 0.910258 0.845960 0.448216
O O16 0.500000 0.000000 0.770639
O O17 0.639234 0.715868 0.796578
#
# Coordination Sequence:
#
# PCOD9367387 Si02
#       8
#     8   8   8   8   8   8   8   8
#     4   9  20  41  64  88 134 171 220 274 326 389
#     4  10  23  44  67  96 129 167 216 268 328 403
#     4  11  23  43  66  97 128 170 215 266 335 393
#     4  10  24  42  65  93 133 178 221 276 329 389
#     4  11  24  41  64  97 133 170 218 272 333 390
#     4  11  21  41  66  92 129 178 221 271 333 385
#     4  11  23  42  69  94 132 171 212 273 333 397
#     4  11  21  44  64  95 135 167 219 280 322 396
#
# _framework density 21.468389999999999
#
# number of rings (size 3 to 8) (size 9 to 14) (size 15 to 20)
#    0.000    1.500    2.500    2.625    1.750    0.000 
#   11.250    1.250    0.000    0.000    0.000    0.000 
#    0.000    0.000    0.000    0.000    0.000    0.000 
#
# Total GULP energy -178489.178215 kJ/mol
# GULP energy per Si atom -5577.786819 kJ/mol
# Density = 2.141953 g / cm^3
# Si number density = 21.468390 Si / 1000 Ang^3
#
#
#
# Elastic Constant Matrix: (Units=GPa)
#
#
# Indices 1 2 3 4 5 6 
#
# 1 102.3795 37.5498 31.4439 0.0000 0.0000 0.0000
# 2 37.5498 130.8874 22.3187 0.0000 0.0000 0.0000
# 3 31.4439 22.3187 81.5700 0.0000 0.0000 0.0000
# 4 0.0000 0.0000 0.0000 27.2845 0.0000 0.0000
# 5 0.0000 0.0000 0.0000 0.0000 26.7850 0.0000
# 6 0.0000 0.0000 0.0000 0.0000 0.0000 43.1423
#
#
#
# Elastic Compliance Matrix: (Units=1/GPa)
#
#
# Indices 1 2 3 4 5 6 
#
# 1 0.011970 -0.002777 -0.003854 0.000000 0.000000 0.000000
# 2 -0.002777 0.008658 -0.001299 0.000000 0.000000 0.000000
# 3 -0.003854 -0.001299 0.014101 0.000000 0.000000 0.000000
# 4 0.000000 0.000000 0.000000 0.036651 0.000000 0.000000
# 5 0.000000 0.000000 0.000000 0.000000 0.037334 0.000000
# 6 0.000000 0.000000 0.000000 0.000000 0.000000 0.023179
#
#
# Mechanical properties :
#
#
# Convention : Reuss Voigt Hill
#
# Bulk Modulus (GPa) = 52.99688 55.27350 54.13519
# Shear Modulus (GPa) = 32.45868 34.34400 33.40134
#
# Velocity S-wave (km/s) = 3.89257 4.00402 3.94869
# Velocity P-wave (km/s) = 6.70391 6.86867 6.78679
#
# Compressibility (1/GPa) = 0.01886904
#
# Stress axis : x y z
#
# Youngs Moduli (GPa) = 83.54358 115.49754 70.91924
#
# Poissons Ratio (x) = 0.32070 0.27335
# Poissons Ratio (y) = 0.23198 0.09210
# Poissons Ratio (z) = 0.32201 0.14999
#
# Static dielectric constant tensor:
#      x y z
#    x 1.756890 0.000000 0.000000 
#    y 0.000000 2.004260 0.000000 
#    z 0.000000 0.000000 1.763510 
# 
# From -- ./inp_files/6681.got.cif
#   From: 2010.05.17/outbox.cif.g08.bks.cpg/sg41_4_cif.got.tgz:6681.got - 2010.06.03 18:54:24.
