data_PCOD9367361
_publ_section_title
;
Structure prediction by ZEFSAII (Michael W. Deem and Ramdas Pophale) SiO2 
 PCOD9367361
Probable space group: A B A 2
;
_chemical_formula_sum "Si O2"
_cell_formula_units_Z 48
_cell_length_a 5.493987
_cell_length_b 28.819419
_cell_length_c 13.231594
_cell_angle_alpha 90.000000
_cell_angle_beta 90.000000
_cell_angle_gamma 90.000000
_cell_volume 2095.004765
_symmetry_space_group_name_H-M "A B A 2"
_symmetry_group_IT_number 41
_symmetry_cell_setting 'orthorhombic'
loop_
_space_group_symop_operation_xyz
x,y,z
-x,-y,z
1/2-x,y,1/2+z
1/2+x,-y,1/2+z
x,1/2+y,1/2+z
-x,1/2-y,1/2+z
1/2-x,1/2+y,z
1/2+x,1/2-y,z
loop_
_atom_site_type_symbol
_atom_site_label
_atom_site_fract_x
_atom_site_fract_y
_atom_site_fract_z
Si Si1 0.920585 0.600942 0.754400
Si Si2 0.837134 0.655751 0.419602
Si Si3 0.938685 0.645352 0.109102
Si Si4 0.500000 0.500000 0.984803
Si Si5 0.500000 0.000000 0.853636
Si Si6 0.355730 0.094348 0.551117
Si Si7 0.917664 0.778473 0.766091
O O1 0.871030 0.638753 0.841924
O O2 0.674726 0.608676 0.688740
O O3 0.984660 0.549673 0.794702
O O4 0.104118 0.614596 0.664244
O O5 0.740297 0.670854 0.529229
O O6 0.016322 0.691586 0.365728
O O7 0.994468 0.611675 0.454541
O O8 0.052569 0.686952 0.171952
O O9 0.085375 0.611169 0.034841
O O10 0.747427 0.501627 0.918027
O O11 0.441260 0.542429 0.057809
O O12 0.147908 0.742933 0.764285
#
# Coordination Sequence:
#
# PCOD9367361 Si02
#       7
#     8   8   8   4   4   8   8
#     4  10  23  43  67 102 138 193 241 299 367 434
#     4  10  23  46  70 102 140 192 236 297 375 440
#     4  10  25  44  76 101 149 194 248 301 387 442
#     4  12  27  44  71 108 144 190 251 296 353 436
#     4  12  25  44  69 102 146 188 247 302 353 432
#     4  11  24  44  72 101 145 199 241 309 363 442
#     4  11  28  47  73 112 145 184 246 307 372 453
#
# _framework density 22.911645
#
# number of rings (size 3 to 8) (size 9 to 14) (size 15 to 20)
#    0.000    1.333    1.667    1.500   14.000    2.667 
#    0.000    0.000    0.000    0.000    0.000    0.000 
#    0.000    0.000    0.000    0.000    0.000    0.000 
#
# Total GULP energy -133603.692548 kJ/mol
# GULP energy per Si atom -5566.820523 kJ/mol
# Density = 2.285950 g / cm^3
# Si number density = 22.911645 Si / 1000 Ang^3
#
#
#
# Elastic Constant Matrix: (Units=GPa)
#
#
# Indices 1 2 3 4 5 6 
#
# 1 64.0383 16.4252 28.3997 0.0000 0.0000 0.0000
# 2 16.4252 84.0938 28.2136 0.0000 0.0000 0.0000
# 3 28.3997 28.2136 101.3611 0.0000 0.0000 0.0000
# 4 0.0000 0.0000 0.0000 304.8123 0.0000 0.0000
# 5 0.0000 0.0000 0.0000 0.0000 -17.9012 0.0000
# 6 0.0000 0.0000 0.0000 0.0000 0.0000 41.5659
#
#
#
# Elastic Compliance Matrix: (Units=1/GPa)
#
#
# Indices 1 2 3 4 5 6 
#
# 1 0.018139 -0.002027 -0.004518 0.000000 0.000000 0.000000
# 2 -0.002027 0.013343 -0.003146 0.000000 0.000000 0.000000
# 3 -0.004518 -0.003146 0.012007 0.000000 0.000000 0.000000
# 4 0.000000 0.000000 0.000000 0.003281 0.000000 0.000000
# 5 0.000000 0.000000 0.000000 0.000000 -0.055862 0.000000
# 6 0.000000 0.000000 0.000000 0.000000 0.000000 0.024058
#
#
# Mechanical properties :
#
#
# Convention : Reuss Voigt Hill
#
# Bulk Modulus (GPa) = 41.48164 43.95224 42.71694
# Shear Modulus (GPa) = 117.96827 77.45905 97.71366
#
# Velocity S-wave (km/s) = 7.18332 5.82075 6.53763
# Velocity P-wave (km/s) = 9.32440 8.02495 8.69898
#
# Compressibility (1/GPa) = 0.02410705
#
# Stress axis : x y z
#
# Youngs Moduli (GPa) = 55.12899 74.94623 83.28273
#
# Poissons Ratio (x) = 0.15193 0.37628
# Poissons Ratio (y) = 0.11175 0.26201
# Poissons Ratio (z) = 0.24908 0.23578
#
# Static dielectric constant tensor:
#      x y z
#    x 2.061810 0.000000 0.000000 
#    y 0.000000 1.652680 0.000000 
#    z 0.000000 0.000000 1.887260 
# 
# From -- ./inp_files/6918.got.cif
#   From: 2010.05.17/outbox.cif.g08.bks.cpg/sg41_4_cif.got.tgz:6918.got - 2010.06.03 18:54:24.
