data_PCOD9367339
_publ_section_title
;
Structure prediction by ZEFSAII (Michael W. Deem and Ramdas Pophale) SiO2 
 PCOD9367339
Probable space group: A B A 2
;
_chemical_formula_sum "Si O2"
_cell_formula_units_Z 60
_cell_length_a 21.527969
_cell_length_b 14.000305
_cell_length_c 8.777121
_cell_angle_alpha 90.000000
_cell_angle_beta 90.000000
_cell_angle_gamma 90.000000
_cell_volume 2645.407874
_symmetry_space_group_name_H-M "A B A 2"
_symmetry_group_IT_number 41
_symmetry_cell_setting 'orthorhombic'
loop_
_space_group_symop_operation_xyz
x,y,z
-x,-y,z
1/2-x,y,1/2+z
1/2+x,-y,1/2+z
x,1/2+y,1/2+z
-x,1/2-y,1/2+z
1/2-x,1/2+y,z
1/2+x,1/2-y,z
loop_
_atom_site_type_symbol
_atom_site_label
_atom_site_fract_x
_atom_site_fract_y
_atom_site_fract_z
Si Si1 0.500000 0.000000 0.162120
Si Si2 0.771756 0.947880 0.277294
Si Si3 0.107722 0.064246 0.466937
Si Si4 0.228364 0.331106 0.836257
Si Si5 0.476388 0.167125 0.393456
Si Si6 0.674890 0.763446 0.646205
Si Si7 0.542181 0.326589 0.221189
Si Si8 0.351779 0.173357 0.241923
O O1 0.562598 0.005990 0.060071
O O2 0.499888 0.909921 0.273613
O O3 0.820514 0.947925 0.419502
O O4 0.803531 0.876100 0.151889
O O5 0.703489 0.900667 0.281545
O O6 0.764581 0.062067 0.272339
O O7 0.071723 0.086293 0.312458
O O8 0.113153 0.150804 0.585991
O O9 0.292715 0.278084 0.799003
O O10 0.177862 0.276930 0.732942
O O11 0.202998 0.298669 0.004864
O O12 0.500180 0.269152 0.338527
O O13 0.492893 0.147192 0.567215
O O14 0.402139 0.165280 0.373968
O O15 0.601333 0.761583 0.671667
#
# Coordination Sequence:
#
# PCOD9367339 Si02
#       8
#     4   8   8   8   8   8   8   8
#     4  10  24  42  70 106 140 186 248 300 378 440
#     4  10  25  40  71 101 143 192 242 305 385 446
#     4  10  24  45  71  99 150 193 237 328 369 451
#     4  11  24  41  73  98 142 193 241 299 386 454
#     4  11  23  44  72 100 141 194 243 315 364 457
#     4  10  25  43  66 106 145 182 250 316 362 466
#     4  11  24  45  70  98 140 196 246 302 387 437
#     4  10  23  42  66 101 145 186 250 308 374 447
#
# _framework density 22.680813000000001
#
# number of rings (size 3 to 8) (size 9 to 14) (size 15 to 20)
#    0.000    1.600    1.333    1.600   14.933    2.667 
#    0.000    4.000    0.000    0.000    0.000    0.000 
#    0.000    0.000    0.000    0.000    0.000    0.000 
#
# Total GULP energy -167130.976073 kJ/mol
# GULP energy per Si atom -5571.032536 kJ/mol
# Density = 2.262919 g / cm^3
# Si number density = 22.680813 Si / 1000 Ang^3
#
#
#
# Elastic Constant Matrix: (Units=GPa)
#
#
# Indices 1 2 3 4 5 6 
#
# 1 81.2421 27.9207 28.7384 0.0000 0.0000 0.0000
# 2 27.9207 96.9099 21.0848 0.0000 0.0000 0.0000
# 3 28.7384 21.0848 102.0803 0.0000 0.0000 0.0000
# 4 0.0000 0.0000 0.0000 24.2178 0.0000 0.0000
# 5 0.0000 0.0000 0.0000 0.0000 21.5880 0.0000
# 6 0.0000 0.0000 0.0000 0.0000 0.0000 17.9248
#
#
#
# Elastic Compliance Matrix: (Units=1/GPa)
#
#
# Indices 1 2 3 4 5 6 
#
# 1 0.014721 -0.003497 -0.003422 0.000000 0.000000 0.000000
# 2 -0.003497 0.011635 -0.001419 0.000000 0.000000 0.000000
# 3 -0.003422 -0.001419 0.011053 0.000000 0.000000 0.000000
# 4 0.000000 0.000000 0.000000 0.041292 0.000000 0.000000
# 5 0.000000 0.000000 0.000000 0.000000 0.046322 0.000000
# 6 0.000000 0.000000 0.000000 0.000000 0.000000 0.055789
#
#
# Mechanical properties :
#
#
# Convention : Reuss Voigt Hill
#
# Bulk Modulus (GPa) = 48.23118 48.41333 48.32225
# Shear Modulus (GPa) = 24.46206 26.24534 25.35370
#
# Velocity S-wave (km/s) = 3.28767 3.40540 3.34705
# Velocity P-wave (km/s) = 5.97688 6.07076 6.02400
#
# Compressibility (1/GPa) = 0.02073348
#
# Stress axis : x y z
#
# Youngs Moduli (GPa) = 67.92933 85.94754 90.47571
#
# Poissons Ratio (x) = 0.30054 0.30962
# Poissons Ratio (y) = 0.23753 0.12837
# Poissons Ratio (z) = 0.23246 0.12194
#
# Static dielectric constant tensor:
#      x y z
#    x 1.908130 0.000000 0.000000 
#    y 0.000000 1.877130 0.000000 
#    z 0.000000 0.000000 1.931830 
# 
# From -- ./inp_files/3686.got.cif
#   From: 2010.05.17/outbox.cif.g08.bks.cpg/sg41_2_cif.got.tgz:3686.got - 2010.06.03 18:54:24.
