data_PCOD9367358
_publ_section_title
;
Structure prediction by ZEFSAII (Michael W. Deem and Ramdas Pophale) SiO2 
 PCOD9367358
Probable space group: A B A 2
;
_chemical_formula_sum "Si O2"
_cell_formula_units_Z 40
_cell_length_a 9.394617
_cell_length_b 11.099975
_cell_length_c 18.779967
_cell_angle_alpha 90.000000
_cell_angle_beta 90.000000
_cell_angle_gamma 90.000000
_cell_volume 1958.375219
_symmetry_space_group_name_H-M "A B A 2"
_symmetry_group_IT_number 41
_symmetry_cell_setting 'orthorhombic'
loop_
_space_group_symop_operation_xyz
x,y,z
-x,-y,z
1/2-x,y,1/2+z
1/2+x,-y,1/2+z
x,1/2+y,1/2+z
-x,1/2-y,1/2+z
1/2-x,1/2+y,z
1/2+x,1/2-y,z
loop_
_atom_site_type_symbol
_atom_site_label
_atom_site_fract_x
_atom_site_fract_y
_atom_site_fract_z
Si Si1 0.500000 0.500000 0.203370
Si Si2 0.000000 0.000000 0.966115
Si Si3 0.345375 0.152827 0.584407
Si Si4 0.454374 0.138229 0.131495
Si Si5 0.443597 0.874912 0.332618
Si Si6 0.843412 0.718894 0.770667
O O1 0.390607 0.567945 0.151110
O O2 0.584650 0.592883 0.251563
O O3 0.096830 0.922132 0.911207
O O4 0.916417 0.908271 0.016139
O O5 0.176554 0.153514 0.577202
O O6 0.413541 0.281153 0.605028
O O7 0.385131 0.197508 0.202947
O O8 0.500000 0.000000 0.138305
O O9 0.577081 0.785182 0.335150
O O10 0.319492 0.809170 0.289111
O O11 0.500000 0.000000 0.298229
#
# Coordination Sequence:
#
# PCOD9367358 Si02
#       6
#     4   4   8   8   8   8
#     4   9  22  36  66  98 134 167 210 278 340 397
#     4   9  24  46  66  88 140 177 238 264 326 407
#     4  10  23  43  65  96 136 176 220 278 331 401
#     4  11  25  40  71 102 133 173 220 285 346 398
#     4  10  25  42  66  93 135 176 219 278 321 402
#     4  11  22  40  66 100 131 168 220 271 347 394
#
# _framework density 20.425094000000001
#
# number of rings (size 3 to 8) (size 9 to 14) (size 15 to 20)
#    0.600    1.200    0.000    3.000   16.800    1.600 
#    0.000    0.000    0.000    0.000    0.000    0.000 
#    0.000    0.000    0.000    0.000    0.000    0.000 
#
# Total GULP energy -111566.544055 kJ/mol
# GULP energy per Si atom -5578.327203 kJ/mol
# Density = 2.037861 g / cm^3
# Si number density = 20.425094 Si / 1000 Ang^3
#
#
#
# Elastic Constant Matrix: (Units=GPa)
#
#
# Indices 1 2 3 4 5 6 
#
# 1 114.0078 60.9709 17.5180 0.0000 0.0000 0.0000
# 2 60.9709 153.6690 38.1773 0.0000 0.0000 0.0000
# 3 17.5180 38.1773 73.9859 0.0000 0.0000 0.0000
# 4 0.0000 0.0000 0.0000 16.7990 0.0000 0.0000
# 5 0.0000 0.0000 0.0000 0.0000 12.8199 0.0000
# 6 0.0000 0.0000 0.0000 0.0000 0.0000 28.8792
#
#
#
# Elastic Compliance Matrix: (Units=1/GPa)
#
#
# Indices 1 2 3 4 5 6 
#
# 1 0.011145 -0.004320 -0.000410 0.000000 0.000000 0.000000
# 2 -0.004320 0.009139 -0.003693 0.000000 0.000000 0.000000
# 3 -0.000410 -0.003693 0.015519 0.000000 0.000000 0.000000
# 4 0.000000 0.000000 0.000000 0.059527 0.000000 0.000000
# 5 0.000000 0.000000 0.000000 0.000000 0.078004 0.000000
# 6 0.000000 0.000000 0.000000 0.000000 0.000000 0.034627
#
#
# Mechanical properties :
#
#
# Convention : Reuss Voigt Hill
#
# Bulk Modulus (GPa) = 52.75057 63.88835 58.31946
# Shear Modulus (GPa) = 21.63336 26.69939 24.16637
#
# Velocity S-wave (km/s) = 3.25800 3.61942 3.44346
# Velocity P-wave (km/s) = 6.32733 6.98672 6.66518
#
# Compressibility (1/GPa) = 0.01895714
#
# Stress axis : x y z
#
# Youngs Moduli (GPa) = 89.72938 109.42089 64.43868
#
# Poissons Ratio (x) = 0.47271 0.02639
# Poissons Ratio (y) = 0.38764 0.23797
# Poissons Ratio (z) = 0.03675 0.40408
#
# Static dielectric constant tensor:
#      x y z
#    x 1.775190 0.000000 0.000000 
#    y 0.000000 1.715420 0.000000 
#    z 0.000000 0.000000 1.766920 
# 
# From -- ./inp_files/9564.got.cif
#   From: 2010.05.17/outbox.cif.g08.bks.cpg/sg41_5_cif.got.tgz:9564.got - 2010.06.03 18:54:24.
