data_PCOD9367457
_publ_section_title
;
Structure prediction by ZEFSAII (Michael W. Deem and Ramdas Pophale) SiO2 
 PCOD9367457
Probable space group: A B A 2
;
_chemical_formula_sum "Si O2"
_cell_formula_units_Z 60
_cell_length_a 10.652638
_cell_length_b 20.582134
_cell_length_c 13.718590
_cell_angle_alpha 90.000000
_cell_angle_beta 90.000000
_cell_angle_gamma 90.000000
_cell_volume 3007.856044
_symmetry_space_group_name_H-M "A B A 2"
_symmetry_group_IT_number 41
_symmetry_cell_setting 'orthorhombic'
loop_
_space_group_symop_operation_xyz
x,y,z
-x,-y,z
1/2-x,y,1/2+z
1/2+x,-y,1/2+z
x,1/2+y,1/2+z
-x,1/2-y,1/2+z
1/2-x,1/2+y,z
1/2+x,1/2-y,z
loop_
_atom_site_type_symbol
_atom_site_label
_atom_site_fract_x
_atom_site_fract_y
_atom_site_fract_z
Si Si1 0.187494 0.300635 0.380980
Si Si2 0.184357 0.583873 0.264671
Si Si3 0.000000 0.500000 0.396429
Si Si4 0.550139 0.427277 0.362519
Si Si5 0.141308 0.351350 0.736161
Si Si6 0.915335 0.776527 0.812243
Si Si7 0.171739 0.913771 0.029053
Si Si8 0.630692 0.473168 0.565306
O O1 0.220454 0.342493 0.282743
O O2 0.295993 0.246156 0.377578
O O3 0.204021 0.347705 0.472405
O O4 0.047023 0.274749 0.368685
O O5 0.107773 0.531248 0.328899
O O6 0.323957 0.588628 0.305402
O O7 0.112043 0.651666 0.275082
O O8 0.196147 0.563256 0.152906
O O9 0.059261 0.445834 0.467420
O O10 0.500000 0.500000 0.343000
O O11 0.441389 0.381284 0.323300
O O12 0.589375 0.428049 0.475503
O O13 0.088380 0.277902 0.726592
O O14 0.138901 0.394313 0.639926
O O15 0.282969 0.967159 0.029335
O O16 0.500000 0.500000 0.606552
#
# Coordination Sequence:
#
# PCOD9367457 Si02
#       8
#     8   8   4   8   8   8   8   8
#     4  10  23  49  68  98 140 180 239 282 348 420
#     4  12  24  44  68  98 147 178 237 295 344 429
#     4  12  26  44  70 102 138 184 230 298 354 412
#     4  11  23  43  66 104 140 179 235 291 355 414
#     4  10  26  44  70  98 142 183 233 290 347 417
#     4  10  24  47  68  98 138 189 231 287 350 413
#     4  12  25  47  69 104 135 191 227 286 367 421
#     4  11  25  38  67 104 130 183 228 282 366 408
#
# _framework density 19.947763999999999
#
# number of rings (size 3 to 8) (size 9 to 14) (size 15 to 20)
#    0.800    0.267    3.333    3.200    6.533    0.000 
#    7.200    0.000    0.000    0.000    0.000    0.000 
#    0.000    0.000    0.000    0.000    0.000    0.000 
#
# Total GULP energy -167393.451972 kJ/mol
# GULP energy per Si atom -5579.781732 kJ/mol
# Density = 1.990236 g / cm^3
# Si number density = 19.947764 Si / 1000 Ang^3
#
#
#
# Elastic Constant Matrix: (Units=GPa)
#
#
# Indices 1 2 3 4 5 6 
#
# 1 98.7693 10.3160 14.1910 0.0000 0.0000 0.0000
# 2 10.3160 52.1105 31.0217 0.0000 0.0000 0.0000
# 3 14.1910 31.0217 87.5457 0.0000 0.0000 0.0000
# 4 0.0000 0.0000 0.0000 24.0259 0.0000 0.0000
# 5 0.0000 0.0000 0.0000 0.0000 130.0975 0.0000
# 6 0.0000 0.0000 0.0000 0.0000 0.0000 39.0354
#
#
#
# Elastic Compliance Matrix: (Units=1/GPa)
#
#
# Indices 1 2 3 4 5 6 
#
# 1 0.010440 -0.001342 -0.001217 0.000000 0.000000 0.000000
# 2 -0.001342 0.024493 -0.008461 0.000000 0.000000 0.000000
# 3 -0.001217 -0.008461 0.014618 0.000000 0.000000 0.000000
# 4 0.000000 0.000000 0.000000 0.041622 0.000000 0.000000
# 5 0.000000 0.000000 0.000000 0.000000 0.007687 0.000000
# 6 0.000000 0.000000 0.000000 0.000000 0.000000 0.025618
#
#
# Mechanical properties :
#
#
# Convention : Reuss Voigt Hill
#
# Bulk Modulus (GPa) = 36.35071 38.83142 37.59107
# Shear Modulus (GPa) = 32.11563 50.82488 41.47025
#
# Velocity S-wave (km/s) = 4.01682 5.05315 4.56449
# Velocity P-wave (km/s) = 6.30679 7.31810 6.83118
#
# Compressibility (1/GPa) = 0.02750978
#
# Stress axis : x y z
#
# Youngs Moduli (GPa) = 95.78901 40.82820 68.40841
#
# Poissons Ratio (x) = 0.05481 0.08322
# Poissons Ratio (y) = 0.12859 0.57883
# Poissons Ratio (z) = 0.11653 0.34546
#
# Static dielectric constant tensor:
#      x y z
#    x 1.687440 0.000000 0.000000 
#    y 0.000000 1.749020 0.000000 
#    z 0.000000 0.000000 1.682010 
# 
# From -- ./inp_files/5150.got.cif
#   From: 2010.05.17/outbox.cif.g08.bks.cpg/sg41_3_cif.got.tgz:5150.got - 2010.06.03 18:54:24.
