data_PCOD9367234
_publ_section_title
;
Structure prediction by ZEFSAII (Michael W. Deem and Ramdas Pophale) SiO2 
 PCOD9367234
Probable space group: A B A 2
;
_chemical_formula_sum "Si O2"
_cell_formula_units_Z 60
_cell_length_a 19.186992
_cell_length_b 16.403924
_cell_length_c 7.646456
_cell_angle_alpha 90.000000
_cell_angle_beta 90.000000
_cell_angle_gamma 90.000000
_cell_volume 2406.660537
_symmetry_space_group_name_H-M "A B A 2"
_symmetry_group_IT_number 41
_symmetry_cell_setting 'orthorhombic'
loop_
_space_group_symop_operation_xyz
x,y,z
-x,-y,z
1/2-x,y,1/2+z
1/2+x,-y,1/2+z
x,1/2+y,1/2+z
-x,1/2-y,1/2+z
1/2-x,1/2+y,z
1/2+x,1/2-y,z
loop_
_atom_site_type_symbol
_atom_site_label
_atom_site_fract_x
_atom_site_fract_y
_atom_site_fract_z
Si Si1 0.143483 0.463070 0.652500
Si Si2 0.892956 0.621677 0.121827
Si Si3 0.706542 0.500760 0.525216
Si Si4 0.936774 0.686241 0.500560
Si Si5 0.831571 0.816282 0.461102
Si Si6 0.423541 0.602050 0.954605
Si Si7 0.182116 0.220863 0.050269
Si Si8 0.500000 0.500000 0.655574
O O1 0.212026 0.483683 0.538728
O O2 0.172874 0.468212 0.846061
O O3 0.107363 0.377765 0.613065
O O4 0.089200 0.533871 0.602076
O O5 0.920827 0.660385 0.300844
O O6 0.859802 0.696266 0.019577
O O7 0.954854 0.565033 0.048985
O O8 0.831515 0.558106 0.165116
O O9 0.685247 0.406388 0.529447
O O10 0.903532 0.775395 0.524342
O O11 0.018370 0.667214 0.519746
O O12 0.829372 0.811275 0.249168
O O13 0.763699 0.765225 0.520665
O O14 0.352102 0.651797 0.928787
O O15 0.451217 0.552710 0.786676
#
# Coordination Sequence:
#
# PCOD9367234 Si02
#       8
#     8   8   8   8   8   8   8   4
#     4  12  22  41  66  97 125 172 219 267 328 387
#     4  10  23  43  63  97 128 171 218 270 329 393
#     4  12  24  39  68  96 131 168 220 278 321 391
#     4  10  23  43  70  90 131 173 220 264 337 395
#     4  11  23  42  63  98 130 170 216 276 319 393
#     4  11  20  41  71  90 125 178 218 260 332 396
#     4  11  24  42  66  95 135 171 220 270 330 393
#     4  10  22  44  72  92 128 180 218 272 330 410
#
# _framework density 24.930812
#
# number of rings (size 3 to 8) (size 9 to 14) (size 15 to 20)
#    0.000    1.067    5.333    1.600    0.000    5.333 
#    2.400    6.667    0.000    0.000    0.000    0.000 
#    0.000    0.000    0.000    0.000    0.000    0.000 
#
# Total GULP energy -167931.750240 kJ/mol
# GULP energy per Si atom -5597.725008 kJ/mol
# Density = 2.487407 g / cm^3
# Si number density = 24.930812 Si / 1000 Ang^3
#
#
#
# Elastic Constant Matrix: (Units=GPa)
#
#
# Indices 1 2 3 4 5 6 
#
# 1 84.4385 13.5104 2.0118 0.0000 0.0000 0.0000
# 2 13.5104 84.5519 6.1979 0.0000 0.0000 0.0000
# 3 2.0118 6.1979 30.9421 0.0000 0.0000 0.0000
# 4 0.0000 0.0000 0.0000 20.1035 0.0000 0.0000
# 5 0.0000 0.0000 0.0000 0.0000 36.3730 0.0000
# 6 0.0000 0.0000 0.0000 0.0000 0.0000 57.1382
#
#
#
# Elastic Compliance Matrix: (Units=1/GPa)
#
#
# Indices 1 2 3 4 5 6 
#
# 1 0.012159 -0.001913 -0.000407 0.000000 0.000000 0.000000
# 2 -0.001913 0.012304 -0.002340 0.000000 0.000000 0.000000
# 3 -0.000407 -0.002340 0.032814 0.000000 0.000000 0.000000
# 4 0.000000 0.000000 0.000000 0.049743 0.000000 0.000000
# 5 0.000000 0.000000 0.000000 0.000000 0.027493 0.000000
# 6 0.000000 0.000000 0.000000 0.000000 0.000000 0.017501
#
#
# Mechanical properties :
#
#
# Convention : Reuss Voigt Hill
#
# Bulk Modulus (GPa) = 20.85264 27.04139 23.94702
# Shear Modulus (GPa) = 28.19763 34.60377 31.40070
#
# Velocity S-wave (km/s) = 3.36674 3.72962 3.55281
# Velocity P-wave (km/s) = 4.84722 5.42373 5.14356
#
# Compressibility (1/GPa) = 0.04795556
#
# Stress axis : x y z
#
# Youngs Moduli (GPa) = 82.24546 81.27263 30.47511
#
# Poissons Ratio (x) = 0.15547 0.01241
# Poissons Ratio (y) = 0.15733 0.07132
# Poissons Ratio (z) = 0.03350 0.19020
#
# Static dielectric constant tensor:
#      x y z
#    x 2.012080 0.000000 0.000000 
#    y 0.000000 1.975440 0.000000 
#    z 0.000000 0.000000 1.997340 
# 
# From -- ./inp_files/3172.got.cif
#   From: 2010.05.17/outbox.cif.g08.bks.cpg/sg41_2_cif.got.tgz:3172.got - 2010.06.03 18:54:24.
