data_PCOD9367257
_publ_section_title
;
Structure prediction by ZEFSAII (Michael W. Deem and Ramdas Pophale) SiO2 
 PCOD9367257
Probable space group: A B A 2
;
_chemical_formula_sum "Si O2"
_cell_formula_units_Z 48
_cell_length_a 15.839933
_cell_length_b 10.873879
_cell_length_c 11.935009
_cell_angle_alpha 90.000000
_cell_angle_beta 90.000000
_cell_angle_gamma 90.000000
_cell_volume 2055.704029
_symmetry_space_group_name_H-M "A B A 2"
_symmetry_group_IT_number 41
_symmetry_cell_setting 'orthorhombic'
loop_
_space_group_symop_operation_xyz
x,y,z
-x,-y,z
1/2-x,y,1/2+z
1/2+x,-y,1/2+z
x,1/2+y,1/2+z
-x,1/2-y,1/2+z
1/2-x,1/2+y,z
1/2+x,1/2-y,z
loop_
_atom_site_type_symbol
_atom_site_label
_atom_site_fract_x
_atom_site_fract_y
_atom_site_fract_z
Si Si1 0.406838 0.039565 0.388870
Si Si2 0.651442 0.049104 0.166753
Si Si3 0.656921 0.535530 0.211436
Si Si4 0.348004 0.307900 0.012992
Si Si5 0.409049 0.555338 0.447909
Si Si6 0.159098 0.209736 0.062136
O O1 0.398704 0.031999 0.255621
O O2 0.348017 0.930495 0.437775
O O3 0.500000 0.000000 0.423922
O O4 0.382434 0.167642 0.445592
O O5 0.744117 0.066658 0.218363
O O6 0.615815 0.182112 0.133483
O O7 0.654286 0.982936 0.047248
O O8 0.618202 0.643696 0.133940
O O9 0.617567 0.505220 0.330742
O O10 0.655384 0.410076 0.139665
O O11 0.253331 0.257220 0.033033
O O12 0.402594 0.203028 0.952039
O O13 0.500000 0.500000 0.477377
#
# Coordination Sequence:
#
# PCOD9367257 Si02
#       6
#     8   8   8   8   8   8
#     4  11  25  44  69 104 147 185 232 303 375 432
#     4  11  24  42  70 100 138 181 240 287 351 436
#     4  10  23  44  71  99 135 189 236 294 352 432
#     4  10  23  46  70 101 137 186 244 292 352 446
#     4  12  26  45  68 106 145 181 235 299 370 432
#     4  10  22  45  72  98 135 188 241 289 349 436
#
# _framework density 23.349664000000001
#
# number of rings (size 3 to 8) (size 9 to 14) (size 15 to 20)
#    0.000    1.333    1.667    2.500    7.000    4.000 
#    3.000    0.000    0.000    0.000    0.000    0.000 
#    0.000    0.000    0.000    0.000    0.000    0.000 
#
# Total GULP energy -134133.790856 kJ/mol
# GULP energy per Si atom -5588.907952 kJ/mol
# Density = 2.329652 g / cm^3
# Si number density = 23.349664 Si / 1000 Ang^3
#
#
#
# Elastic Constant Matrix: (Units=GPa)
#
#
# Indices 1 2 3 4 5 6 
#
# 1 49.3518 6.3731 22.3673 0.0000 0.0000 0.0000
# 2 6.3731 79.2146 47.1446 0.0000 0.0000 0.0000
# 3 22.3673 47.1446 146.4028 0.0000 0.0000 0.0000
# 4 0.0000 0.0000 0.0000 41.2127 0.0000 0.0000
# 5 0.0000 0.0000 0.0000 0.0000 21.3523 0.0000
# 6 0.0000 0.0000 0.0000 0.0000 0.0000 18.2435
#
#
#
# Elastic Compliance Matrix: (Units=1/GPa)
#
#
# Indices 1 2 3 4 5 6 
#
# 1 0.021775 0.000282 -0.003418 0.000000 0.000000 0.000000
# 2 0.000282 0.015621 -0.005073 0.000000 0.000000 0.000000
# 3 -0.003418 -0.005073 0.008986 0.000000 0.000000 0.000000
# 4 0.000000 0.000000 0.000000 0.024264 0.000000 0.000000
# 5 0.000000 0.000000 0.000000 0.000000 0.046833 0.000000
# 6 0.000000 0.000000 0.000000 0.000000 0.000000 0.054814
#
#
# Mechanical properties :
#
#
# Convention : Reuss Voigt Hill
#
# Bulk Modulus (GPa) = 33.37280 47.41548 40.39414
# Shear Modulus (GPa) = 25.16363 29.43399 27.29881
#
# Velocity S-wave (km/s) = 3.28638 3.55431 3.42296
# Velocity P-wave (km/s) = 5.35948 6.09877 5.74103
#
# Compressibility (1/GPa) = 0.02996452
#
# Stress axis : x y z
#
# Youngs Moduli (GPa) = 45.92383 64.01808 111.28046
#
# Poissons Ratio (x) = -0.01806 0.38032
# Poissons Ratio (y) = -0.01296 0.56455
# Poissons Ratio (z) = 0.15695 0.32478
#
# Static dielectric constant tensor:
#      x y z
#    x 1.879070 0.000000 0.000000 
#    y 0.000000 1.953400 0.000000 
#    z 0.000000 0.000000 1.896070 
# 
# From -- ./inp_files/5904.got.cif
#   From: 2010.05.17/outbox.cif.g08.bks.cpg/sg41_3_cif.got.tgz:5904.got - 2010.06.03 18:54:24.
