data_PCOD9367069
_publ_section_title
;
Structure prediction by ZEFSAII (Michael W. Deem and Ramdas Pophale) SiO2 
 PCOD9367069
Probable space group: A B A 2
;
_chemical_formula_sum "Si O2"
_cell_formula_units_Z 48
_cell_length_a 9.920474
_cell_length_b 16.500021
_cell_length_c 12.967706
_cell_angle_alpha 90.000000
_cell_angle_beta 90.000000
_cell_angle_gamma 90.000000
_cell_volume 2122.658240
_symmetry_space_group_name_H-M "A B A 2"
_symmetry_group_IT_number 41
_symmetry_cell_setting 'orthorhombic'
loop_
_space_group_symop_operation_xyz
x,y,z
-x,-y,z
1/2-x,y,1/2+z
1/2+x,-y,1/2+z
x,1/2+y,1/2+z
-x,1/2-y,1/2+z
1/2-x,1/2+y,z
1/2+x,1/2-y,z
loop_
_atom_site_type_symbol
_atom_site_label
_atom_site_fract_x
_atom_site_fract_y
_atom_site_fract_z
Si Si1 0.558446 0.704018 0.313960
Si Si2 0.500000 0.000000 0.086082
Si Si3 0.919603 0.363938 0.620113
Si Si4 0.262349 0.912949 0.951916
Si Si5 0.500000 0.000000 0.460101
Si Si6 0.640724 0.355447 0.686839
Si Si7 0.410558 0.261178 0.003440
O O1 0.524665 0.657735 0.209115
O O2 0.655838 0.642492 0.372523
O O3 0.610750 0.792556 0.277597
O O4 0.434023 0.725989 0.389737
O O5 0.539118 0.926675 0.161807
O O6 0.372267 0.967384 0.015838
O O7 0.791490 0.386711 0.688814
O O8 0.941430 0.433685 0.538291
O O9 0.940200 0.284474 0.547255
O O10 0.180103 0.841814 0.012034
O O11 0.135435 0.965037 0.906526
O O12 0.644027 0.305622 0.579665
#
# Coordination Sequence:
#
# PCOD9367069 Si02
#       7
#     8   4   8   8   4   8   8
#     4  11  23  42  69 110 140 198 257 302 370 479
#     4  12  24  45  75 112 146 192 248 323 385 444
#     4  10  22  40  66  97 142 188 238 310 372 438
#     4  11  23  45  74 106 149 202 252 311 386 456
#     4  10  22  45  67 100 146 196 244 315 387 436
#     4  11  23  43  72 101 148 190 251 311 381 445
#     4  10  22  42  71  97 142 203 250 296 377 470
#
# _framework density 22.613156
#
# number of rings (size 3 to 8) (size 9 to 14) (size 15 to 20)
#    0.000    1.333    3.333    2.000    2.333    0.667 
#    3.000    8.333    0.000    0.000    0.000    0.000 
#    0.000    0.000    0.000    0.000    0.000    0.000 
#
# Total GULP energy -133631.351233 kJ/mol
# GULP energy per Si atom -5567.972968 kJ/mol
# Density = 2.256169 g / cm^3
# Si number density = 22.613156 Si / 1000 Ang^3
#
#
#
# Elastic Constant Matrix: (Units=GPa)
#
#
# Indices 1 2 3 4 5 6 
#
# 1 84.2165 36.9635 6.1499 0.0000 0.0000 0.0000
# 2 36.9635 75.7651 15.1306 0.0000 0.0000 0.0000
# 3 6.1499 15.1306 69.6992 0.0000 0.0000 0.0000
# 4 0.0000 0.0000 0.0000 35.3905 0.0000 0.0000
# 5 0.0000 0.0000 0.0000 0.0000 0.7838 0.0000
# 6 0.0000 0.0000 0.0000 0.0000 0.0000 39.5517
#
#
#
# Elastic Compliance Matrix: (Units=1/GPa)
#
#
# Indices 1 2 3 4 5 6 
#
# 1 0.015115 -0.007430 0.000279 0.000000 0.000000 0.000000
# 2 -0.007430 0.017449 -0.003132 0.000000 0.000000 0.000000
# 3 0.000279 -0.003132 0.015003 0.000000 0.000000 0.000000
# 4 0.000000 0.000000 0.000000 0.028256 0.000000 0.000000
# 5 0.000000 0.000000 0.000000 0.000000 1.275811 0.000000
# 6 0.000000 0.000000 0.000000 0.000000 0.000000 0.025283
#
#
# Mechanical properties :
#
#
# Convention : Reuss Voigt Hill
#
# Bulk Modulus (GPa) = 37.03608 38.46320 37.74964
# Shear Modulus (GPa) = 3.55497 26.57432 15.06464
#
# Velocity S-wave (km/s) = 1.25519 3.43180 2.58386
# Velocity P-wave (km/s) = 4.30283 5.72268 5.06278
#
# Compressibility (1/GPa) = 0.02700070
#
# Stress axis : x y z
#
# Youngs Moduli (GPa) = 66.16043 57.30990 66.65462
#
# Poissons Ratio (x) = 0.42580 -0.01861
# Poissons Ratio (y) = 0.49156 0.20878
# Poissons Ratio (z) = -0.01847 0.17951
#
# Static dielectric constant tensor:
#      x y z
#    x 1.828890 0.000000 0.000000 
#    y 0.000000 1.702930 0.000000 
#    z 0.000000 0.000000 1.868040 
# 
# From -- ./inp_files/7363.got.cif
#   From: 2010.05.17/outbox.cif.g08.bks.cpg/sg41_4_cif.got.tgz:7363.got - 2010.06.03 18:54:24.
