data_PCOD9367706
_publ_section_title
;
Structure prediction by ZEFSAII (Michael W. Deem and Ramdas Pophale) SiO2 
 PCOD9367706
Probable space group: A B A 2
;
_chemical_formula_sum "Si O2"
_cell_formula_units_Z 56
_cell_length_a 11.854836
_cell_length_b 14.518762
_cell_length_c 14.698506
_cell_angle_alpha 90.000000
_cell_angle_beta 90.000000
_cell_angle_gamma 90.000000
_cell_volume 2529.870730
_symmetry_space_group_name_H-M "A B A 2"
_symmetry_group_IT_number 41
_symmetry_cell_setting 'orthorhombic'
loop_
_space_group_symop_operation_xyz
x,y,z
-x,-y,z
1/2-x,y,1/2+z
1/2+x,-y,1/2+z
x,1/2+y,1/2+z
-x,1/2-y,1/2+z
1/2-x,1/2+y,z
1/2+x,1/2-y,z
loop_
_atom_site_type_symbol
_atom_site_label
_atom_site_fract_x
_atom_site_fract_y
_atom_site_fract_z
Si Si1 0.437954 0.245549 0.189860
Si Si2 0.105030 0.257312 0.356540
Si Si3 0.226223 0.102080 0.917171
Si Si4 0.615300 0.553483 0.439619
Si Si5 0.220568 0.892599 0.256157
Si Si6 0.620380 0.952490 0.229606
Si Si7 0.567881 0.755900 0.511231
O O1 0.501330 0.249948 0.286644
O O2 0.342979 0.322847 0.190656
O O3 0.382350 0.145142 0.179930
O O4 0.532713 0.258976 0.115009
O O5 0.176401 0.163717 0.368656
O O6 0.187870 0.334921 0.315944
O O7 0.045459 0.276184 0.452604
O O8 0.144328 0.068420 0.836305
O O9 0.283062 0.014817 0.965095
O O10 0.160290 0.170014 0.983047
O O11 0.500000 0.500000 0.458902
O O12 0.634266 0.567676 0.331203
O O13 0.610037 0.653778 0.484242
O O14 0.283914 0.974394 0.204956
O O15 0.500000 0.000000 0.217491
#
# Coordination Sequence:
#
# PCOD9367706 Si02
#       7
#     8   8   8   8   8   8   8
#     4  12  25  43  70 106 143 184 235 300 359 424
#     4  12  20  46  68  96 144 182 236 286 358 434
#     4  11  22  42  72  98 135 195 232 289 364 423
#     4  11  21  41  70  99 136 183 237 288 351 428
#     4  11  22  42  72  98 135 195 232 289 364 423
#     4  11  21  41  70  99 136 183 237 288 351 428
#     4  12  25  43  70 106 143 184 235 300 359 424
#
# _framework density 22.135518999999999
#
# number of rings (size 3 to 8) (size 9 to 14) (size 15 to 20)
#    0.000    0.571    8.571    0.000    0.000    1.714 
#    0.000    0.000    6.286    6.857    0.000    0.000 
#    0.000    0.000    0.000    0.000    0.000    0.000 
#
# Total GULP energy -156751.882639 kJ/mol
# GULP energy per Si atom -5598.281523 kJ/mol
# Density = 2.208514 g / cm^3
# Si number density = 22.135519 Si / 1000 Ang^3
#
#
#
# Elastic Constant Matrix: (Units=GPa)
#
#
# Indices 1 2 3 4 5 6 
#
# 1 63.6574 64.3492 2.9281 0.0000 0.0000 0.0000
# 2 64.3492 161.1110 20.5391 0.0000 0.0000 0.0000
# 3 2.9281 20.5391 18.8921 0.0000 0.0000 0.0000
# 4 0.0000 0.0000 0.0000 7.7590 0.0000 0.0000
# 5 0.0000 0.0000 0.0000 0.0000 20.3318 0.0000
# 6 0.0000 0.0000 0.0000 0.0000 0.0000 48.8999
#
#
#
# Elastic Compliance Matrix: (Units=1/GPa)
#
#
# Indices 1 2 3 4 5 6 
#
# 1 0.027590 -0.012160 0.008944 0.000000 0.000000 0.000000
# 2 -0.012160 0.012565 -0.011776 0.000000 0.000000 0.000000
# 3 0.008944 -0.011776 0.064348 0.000000 0.000000 0.000000
# 4 0.000000 0.000000 0.000000 0.128882 0.000000 0.000000
# 5 0.000000 0.000000 0.000000 0.000000 0.049184 0.000000
# 6 0.000000 0.000000 0.000000 0.000000 0.000000 0.020450
#
#
# Mechanical properties :
#
#
# Convention : Reuss Voigt Hill
#
# Bulk Modulus (GPa) = 13.41931 46.58815 30.00373
# Shear Modulus (GPa) = 13.97266 25.78775 19.88021
#
# Velocity S-wave (km/s) = 2.51516 3.41690 3.00011
# Velocity P-wave (km/s) = 3.80923 6.05471 5.05815
#
# Compressibility (1/GPa) = 0.07451946
#
# Stress axis : x y z
#
# Youngs Moduli (GPa) = 36.24556 79.58736 15.54043
#
# Poissons Ratio (x) = 0.96776 -0.13899
# Poissons Ratio (y) = 0.44074 0.18300
# Poissons Ratio (z) = -0.32417 0.93719
#
# Static dielectric constant tensor:
#      x y z
#    x 1.802170 0.000000 0.000000 
#    y 0.000000 1.818010 0.000000 
#    z 0.000000 0.000000 1.770700 
# 
# From -- ./inp_files/7953.got.cif
#   From: 2010.05.17/outbox.cif.g08.bks.cpg/sg41_4_cif.got.tgz:7953.got - 2010.06.03 18:54:24.
