data_PCOD9367782
_publ_section_title
;
Structure prediction by ZEFSAII (Michael W. Deem and Ramdas Pophale) SiO2 
 PCOD9367782
Probable space group: A B A 2
;
_chemical_formula_sum "Si O2"
_cell_formula_units_Z 64
_cell_length_a 12.223684
_cell_length_b 14.124212
_cell_length_c 18.353564
_cell_angle_alpha 90.000000
_cell_angle_beta 90.000000
_cell_angle_gamma 90.000000
_cell_volume 3168.741067
_symmetry_space_group_name_H-M "A B A 2"
_symmetry_group_IT_number 41
_symmetry_cell_setting 'orthorhombic'
loop_
_space_group_symop_operation_xyz
x,y,z
-x,-y,z
1/2-x,y,1/2+z
1/2+x,-y,1/2+z
x,1/2+y,1/2+z
-x,1/2-y,1/2+z
1/2-x,1/2+y,z
1/2+x,1/2-y,z
loop_
_atom_site_type_symbol
_atom_site_label
_atom_site_fract_x
_atom_site_fract_y
_atom_site_fract_z
Si Si1 0.735709 0.419914 0.816560
Si Si2 0.896892 0.572454 0.399377
Si Si3 0.735709 0.419914 0.148107
Si Si4 0.467541 0.223249 0.650189
Si Si5 0.896892 0.072454 0.065290
Si Si6 0.540786 0.392746 0.396794
Si Si7 0.532459 0.276751 0.814478
Si Si8 0.459214 0.107254 0.067872
O O1 0.697542 0.511208 0.862198
O O2 0.750000 0.446600 0.732333
O O3 0.846885 0.382720 0.852090
O O4 0.641295 0.340231 0.817930
O O5 0.870362 0.599906 0.482333
O O6 0.936970 0.660311 0.351536
O O7 0.000000 0.500000 0.401920
O O8 0.641295 0.340231 0.146737
O O9 0.697542 0.511208 0.102469
O O10 0.846885 0.382720 0.112577
O O11 0.563030 0.160311 0.613131
O O12 0.500000 0.250000 0.732333
O O13 0.457428 0.318168 0.602860
O O14 0.000000 0.000000 0.062747
O O15 0.500000 0.500000 0.388087
O O16 0.457428 0.318168 0.361807
O O17 0.556968 0.374030 0.482333
O O18 0.500000 0.000000 0.076580
#
# Coordination Sequence:
#
# PCOD9367782 Si02
#       8
#     8   8   8   8   8   8   8   8
#     4  11  23  41  68  99 131 175 218 281 340 401
#     4   9  20  39  65  94 126 167 218 271 329 397
#     4  11  23  41  68  99 131 175 218 281 340 401
#     4  11  23  41  68 100 132 174 225 272 331 400
#     4   9  20  39  65  94 126 167 218 271 329 397
#     4  11  26  45  65  95 137 177 222 280 339 399
#     4  11  23  41  68 100 132 174 225 272 331 400
#     4  11  26  45  65  95 137 177 222 280 339 399
#
# _framework density 20.197296000000001
#
# number of rings (size 3 to 8) (size 9 to 14) (size 15 to 20)
#    0.000    1.500    2.500    1.500    3.500    5.000 
#    0.000    2.500    0.000    0.000    0.000    0.000 
#    0.000    0.000    0.000    0.000    0.000    0.000 
#
# Total GULP energy -178898.176029 kJ/mol
# GULP energy per Si atom -5590.568001 kJ/mol
# Density = 2.015133 g / cm^3
# Si number density = 20.197296 Si / 1000 Ang^3
#
#
#
# Elastic Constant Matrix: (Units=GPa)
#
#
# Indices 1 2 3 4 5 6 
#
# 1 61.1413 11.1933 40.8547 0.0000 0.0000 0.0000
# 2 11.1933 91.9867 67.8721 0.0000 0.0000 0.0000
# 3 40.8547 67.8721 183.6834 0.0000 0.0000 0.0000
# 4 0.0000 0.0000 0.0000 42.0913 0.0000 0.0000
# 5 0.0000 0.0000 0.0000 0.0000 26.8200 0.0000
# 6 0.0000 0.0000 0.0000 0.0000 0.0000 28.2738
#
#
#
# Elastic Compliance Matrix: (Units=1/GPa)
#
#
# Indices 1 2 3 4 5 6 
#
# 1 0.019295 0.001125 -0.004707 0.000000 0.000000 0.000000
# 2 0.001125 0.015012 -0.005797 0.000000 0.000000 0.000000
# 3 -0.004707 -0.005797 0.008633 0.000000 0.000000 0.000000
# 4 0.000000 0.000000 0.000000 0.023758 0.000000 0.000000
# 5 0.000000 0.000000 0.000000 0.000000 0.037286 0.000000
# 6 0.000000 0.000000 0.000000 0.000000 0.000000 0.035368
#
#
# Mechanical properties :
#
#
# Convention : Reuss Voigt Hill
#
# Bulk Modulus (GPa) = 41.35379 64.07241 52.71310
# Shear Modulus (GPa) = 30.08951 33.89643 31.99297
#
# Velocity S-wave (km/s) = 3.86395 4.10111 3.98430
# Velocity P-wave (km/s) = 6.35816 7.36326 6.87909
#
# Compressibility (1/GPa) = 0.02418158
#
# Stress axis : x y z
#
# Youngs Moduli (GPa) = 51.82679 66.61495 115.83073
#
# Poissons Ratio (x) = -0.07497 0.54527
# Poissons Ratio (y) = -0.05833 0.67150
# Poissons Ratio (z) = 0.24397 0.38618
#
# Static dielectric constant tensor:
#      x y z
#    x 1.748810 0.000000 0.000000 
#    y 0.000000 1.722590 0.000000 
#    z 0.000000 0.000000 1.684360 
# 
# From -- ./inp_files/10128.got.cif
#   From: 2010.05.17/outbox.cif.g08.bks.cpg/sg41_6_cif.got.tgz:10128.got - 2010.06.03 18:54:24.
