data_PCOD9367993
_publ_section_title
;
Structure prediction by ZEFSAII (Michael W. Deem and Ramdas Pophale) SiO2 
 PCOD9367993
Probable space group: A B A 2
;
_chemical_formula_sum "Si O2"
_cell_formula_units_Z 36
_cell_length_a 9.236106
_cell_length_b 10.341851
_cell_length_c 16.788389
_cell_angle_alpha 90.000000
_cell_angle_beta 90.000000
_cell_angle_gamma 90.000000
_cell_volume 1603.600594
_symmetry_space_group_name_H-M "A B A 2"
_symmetry_group_IT_number 41
_symmetry_cell_setting 'orthorhombic'
loop_
_space_group_symop_operation_xyz
x,y,z
-x,-y,z
1/2-x,y,1/2+z
1/2+x,-y,1/2+z
x,1/2+y,1/2+z
-x,1/2-y,1/2+z
1/2-x,1/2+y,z
1/2+x,1/2-y,z
loop_
_atom_site_type_symbol
_atom_site_label
_atom_site_fract_x
_atom_site_fract_y
_atom_site_fract_z
Si Si1 0.455657 0.145013 0.771800
Si Si2 0.682076 0.300435 0.669016
Si Si3 0.500308 0.146700 0.410114
Si Si4 0.284660 0.301070 0.506593
Si Si5 0.500000 0.000000 0.064138
O O1 0.571099 0.198483 0.707133
O O2 0.294714 0.148171 0.734584
O O3 0.467319 0.248696 0.842390
O O4 0.500000 0.000000 0.794901
O O5 0.773471 0.235212 0.598807
O O6 0.594872 0.411118 0.622539
O O7 0.351842 0.186143 0.453949
O O8 0.628861 0.159005 0.474364
O O9 0.500000 0.000000 0.379161
O O10 0.398112 0.417007 0.506689
#
# Coordination Sequence:
#
# PCOD9367993 Si02
#       5
#     8   8   8   8   4
#     4  12  29  48  74 109 151 194 244 301 366 437
#     4  12  25  48  77 108 145 192 247 300 365 434
#     4  12  29  48  74 109 151 194 244 301 366 437
#     4  12  25  48  77 108 145 192 247 300 365 434
#     4  12  24  44  80 108 144 188 250 304 364 428
#
# _framework density 22.449479
#
# number of rings (size 3 to 8) (size 9 to 14) (size 15 to 20)
#    0.000    0.000    4.444    4.000    3.111    5.333 
#    0.000    0.000    0.000    0.000    0.000    0.000 
#    0.000    0.000    0.000    0.000    0.000    0.000 
#
# Total GULP energy -100861.822051 kJ/mol
# GULP energy per Si atom -5603.434558 kJ/mol
# Density = 2.239838 g / cm^3
# Si number density = 22.449479 Si / 1000 Ang^3
#
#
#
# Elastic Constant Matrix: (Units=GPa)
#
#
# Indices 1 2 3 4 5 6 
#
# 1 72.4082 10.5124 -12.0474 0.0000 0.0000 0.0000
# 2 10.5124 133.7849 14.0137 0.0000 0.0000 0.0000
# 3 -12.0474 14.0137 63.4107 0.0000 0.0000 0.0000
# 4 0.0000 0.0000 0.0000 31.4272 0.0000 0.0000
# 5 0.0000 0.0000 0.0000 0.0000 12.7026 0.0000
# 6 0.0000 0.0000 0.0000 0.0000 0.0000 30.6621
#
#
#
# Elastic Compliance Matrix: (Units=1/GPa)
#
#
# Indices 1 2 3 4 5 6 
#
# 1 0.014537 -0.001465 0.003086 0.000000 0.000000 0.000000
# 2 -0.001465 0.007800 -0.002002 0.000000 0.000000 0.000000
# 3 0.003086 -0.002002 0.016799 0.000000 0.000000 0.000000
# 4 0.000000 0.000000 0.000000 0.031820 0.000000 0.000000
# 5 0.000000 0.000000 0.000000 0.000000 0.078724 0.000000
# 6 0.000000 0.000000 0.000000 0.000000 0.000000 0.032614
#
#
# Mechanical properties :
#
#
# Convention : Reuss Voigt Hill
#
# Bulk Modulus (GPa) = 26.06103 32.72901 29.39502
# Shear Modulus (GPa) = 25.53016 32.10004 28.81510
#
# Velocity S-wave (km/s) = 3.37594 3.78548 3.58656
# Velocity P-wave (km/s) = 5.17976 5.80664 5.50213
#
# Compressibility (1/GPa) = 0.03837147
#
# Stress axis : x y z
#
# Youngs Moduli (GPa) = 68.79113 128.21241 59.52762
#
# Poissons Ratio (x) = 0.18789 -0.18368
# Poissons Ratio (y) = 0.10081 0.11918
# Poissons Ratio (z) = -0.21227 0.25670
#
# Static dielectric constant tensor:
#      x y z
#    x 2.349110 0.000000 0.000000 
#    y 0.000000 1.847700 0.000000 
#    z 0.000000 0.000000 1.794590 
# 
# From -- ./inp_files/11089.got.cif
#   From: 2010.05.17/outbox.cif.g08.bks.cpg/sg41_6_cif.got.tgz:11089.got - 2010.06.03 18:54:24.
