data_PCOD9367357
_publ_section_title
;
Structure prediction by ZEFSAII (Michael W. Deem and Ramdas Pophale) SiO2 
 PCOD9367357
Probable space group: A B A 2
;
_chemical_formula_sum "Si O2"
_cell_formula_units_Z 64
_cell_length_a 7.757138
_cell_length_b 28.218768
_cell_length_c 13.600437
_cell_angle_alpha 90.000000
_cell_angle_beta 90.000000
_cell_angle_gamma 90.000000
_cell_volume 2977.093193
_symmetry_space_group_name_H-M "A B A 2"
_symmetry_group_IT_number 41
_symmetry_cell_setting 'orthorhombic'
loop_
_space_group_symop_operation_xyz
x,y,z
-x,-y,z
1/2-x,y,1/2+z
1/2+x,-y,1/2+z
x,1/2+y,1/2+z
-x,1/2-y,1/2+z
1/2-x,1/2+y,z
1/2+x,1/2-y,z
loop_
_atom_site_type_symbol
_atom_site_label
_atom_site_fract_x
_atom_site_fract_y
_atom_site_fract_z
Si Si1 0.171760 0.062522 0.104410
Si Si2 0.165081 0.888345 0.462113
Si Si3 0.552265 0.801617 0.603693
Si Si4 0.845806 0.359090 0.213934
Si Si5 0.355593 0.808447 0.106865
Si Si6 0.062798 0.627105 0.432051
Si Si7 0.833263 0.032954 0.631691
Si Si8 0.075319 0.447597 0.782281
O O1 0.329680 0.092454 0.151224
O O2 0.026657 0.071410 0.187109
O O3 0.196496 0.006858 0.096886
O O4 0.131071 0.084898 0.000330
O O5 0.105353 0.838450 0.507649
O O6 0.358378 0.880324 0.423189
O O7 0.168420 0.925011 0.553466
O O8 0.061786 0.913103 0.374482
O O9 0.686368 0.826456 0.678208
O O10 0.350119 0.811305 0.626620
O O11 0.589642 0.746022 0.599172
O O12 0.588325 0.826074 0.498498
O O13 0.023955 0.332841 0.188083
O O14 0.845543 0.370008 0.328384
O O15 0.769474 0.047888 0.740038
O O16 0.000000 0.000000 0.634443
O O17 0.000000 0.500000 0.806355
#
# Coordination Sequence:
#
# PCOD9367357 Si02
#       8
#     8   8   8   8   8   8   8   8
#     4  10  23  45  66  94 144 178 221 284 338 403
#     4  11  24  40  70 101 138 178 234 284 341 415
#     4  10  23  48  68  98 144 172 227 291 344 419
#     4  11  24  43  72 102 134 181 232 276 353 419
#     4  11  23  47  72 100 138 183 225 293 348 415
#     4  10  24  43  68 104 130 175 229 281 346 406
#     4  11  23  41  64  97 137 184 230 280 337 406
#     4  10  23  43  64  98 138 186 228 283 343 403
#
# _framework density 21.497478999999998
#
# number of rings (size 3 to 8) (size 9 to 14) (size 15 to 20)
#    0.000    1.500    2.500    1.125    3.500    5.000 
#    4.500    3.750    0.000    0.000    0.000    0.000 
#    0.000    0.000    0.000    0.000    0.000    0.000 
#
# Total GULP energy -178901.376116 kJ/mol
# GULP energy per Si atom -5590.668004 kJ/mol
# Density = 2.144855 g / cm^3
# Si number density = 21.497479 Si / 1000 Ang^3
#
#
#
# Elastic Constant Matrix: (Units=GPa)
#
#
# Indices 1 2 3 4 5 6 
#
# 1 91.1431 23.9035 45.9843 0.0000 0.0000 0.0000
# 2 23.9035 130.2139 52.3823 0.0000 0.0000 0.0000
# 3 45.9843 52.3823 122.2134 0.0000 0.0000 0.0000
# 4 0.0000 0.0000 0.0000 17.9623 0.0000 0.0000
# 5 0.0000 0.0000 0.0000 0.0000 19.6940 0.0000
# 6 0.0000 0.0000 0.0000 0.0000 0.0000 20.3648
#
#
#
# Elastic Compliance Matrix: (Units=1/GPa)
#
#
# Indices 1 2 3 4 5 6 
#
# 1 0.013573 -0.000528 -0.004880 0.000000 0.000000 0.000000
# 2 -0.000528 0.009300 -0.003787 0.000000 0.000000 0.000000
# 3 -0.004880 -0.003787 0.011642 0.000000 0.000000 0.000000
# 4 0.000000 0.000000 0.000000 0.055672 0.000000 0.000000
# 5 0.000000 0.000000 0.000000 0.000000 0.050777 0.000000
# 6 0.000000 0.000000 0.000000 0.000000 0.000000 0.049104
#
#
# Mechanical properties :
#
#
# Convention : Reuss Voigt Hill
#
# Bulk Modulus (GPa) = 62.02444 65.34561 63.68503
# Shear Modulus (GPa) = 23.38252 26.35756 24.87004
#
# Velocity S-wave (km/s) = 3.30159 3.50534 3.40499
# Velocity P-wave (km/s) = 6.59155 6.84442 6.71917
#
# Compressibility (1/GPa) = 0.01612268
#
# Stress axis : x y z
#
# Youngs Moduli (GPa) = 73.67767 107.52389 85.89514
#
# Poissons Ratio (x) = 0.05680 0.41921
# Poissons Ratio (y) = 0.03892 0.32532
# Poissons Ratio (z) = 0.35958 0.40724
#
# Static dielectric constant tensor:
#      x y z
#    x 1.929150 0.000000 0.000000 
#    y 0.000000 1.773100 0.000000 
#    z 0.000000 0.000000 1.727810 
# 
# From -- ./inp_files/4642.got.cif
#   From: 2010.05.17/outbox.cif.g08.bks.cpg/sg41_3_cif.got.tgz:4642.got - 2010.06.03 18:54:24.
