data_PCOD9367684
_publ_section_title
;
Structure prediction by ZEFSAII (Michael W. Deem and Ramdas Pophale) SiO2 
 PCOD9367684
Probable space group: A B A 2
;
_chemical_formula_sum "Si O2"
_cell_formula_units_Z 44
_cell_length_a 25.627458
_cell_length_b 14.062460
_cell_length_c 4.949710
_cell_angle_alpha 90.000000
_cell_angle_beta 90.000000
_cell_angle_gamma 90.000000
_cell_volume 1783.801748
_symmetry_space_group_name_H-M "A B A 2"
_symmetry_group_IT_number 41
_symmetry_cell_setting 'orthorhombic'
loop_
_space_group_symop_operation_xyz
x,y,z
-x,-y,z
1/2-x,y,1/2+z
1/2+x,-y,1/2+z
x,1/2+y,1/2+z
-x,1/2-y,1/2+z
1/2-x,1/2+y,z
1/2+x,1/2-y,z
loop_
_atom_site_type_symbol
_atom_site_label
_atom_site_fract_x
_atom_site_fract_y
_atom_site_fract_z
Si Si1 0.119367 0.300104 0.703330
Si Si2 0.719177 0.003139 0.338445
Si Si3 0.276981 0.267763 0.910165
Si Si4 0.110251 0.936034 0.713349
Si Si5 0.522261 0.294385 0.457029
Si Si6 0.500000 0.500000 0.494257
O O1 0.171310 0.252997 0.583194
O O2 0.107818 0.389681 0.507993
O O3 0.073732 0.226145 0.632302
O O4 0.122495 0.351118 0.995251
O O5 0.724405 0.117807 0.371185
O O6 0.736689 0.969185 0.631433
O O7 0.660376 0.993312 0.227167
O O8 0.769349 0.265777 0.606600
O O9 0.054545 0.982795 0.650382
O O10 0.520090 0.229663 0.190486
O O11 0.511238 0.400145 0.349399
#
# Coordination Sequence:
#
# PCOD9367684 Si02
#       6
#     8   8   8   8   8   4
#     4  11  20  38  58  88 126 161 208 262 314 375
#     4   9  16  30  51  84 119 155 205 255 308 378
#     4   9  16  27  52  85 116 153 200 251 310 376
#     4  11  22  35  62  90 123 168 208 262 323 380
#     4  12  25  45  65  92 127 172 213 268 317 381
#     4  12  26  44  68  94 134 172 224 262 332 382
#
# _framework density 24.666421
#
# number of rings (size 3 to 8) (size 9 to 14) (size 15 to 20)
#    0.000    1.455    3.636    5.455    0.000    2.909 
#    0.000    0.000    0.000    2.182    0.000    0.000 
#    0.000    5.818    0.000    0.000    0.000    0.000 
#
# Total GULP energy -122730.234740 kJ/mol
# GULP energy per Si atom -5578.647034 kJ/mol
# Density = 2.461028 g / cm^3
# Si number density = 24.666421 Si / 1000 Ang^3
#
#
#
# Elastic Constant Matrix: (Units=GPa)
#
#
# Indices 1 2 3 4 5 6 
#
# 1 163.3502 2.1294 23.8659 0.0000 0.0000 0.0000
# 2 2.1294 92.7122 -12.0837 0.0000 0.0000 0.0000
# 3 23.8659 -12.0837 98.6472 0.0000 0.0000 0.0000
# 4 0.0000 0.0000 0.0000 -15.3784 0.0000 0.0000
# 5 0.0000 0.0000 0.0000 0.0000 43.7387 0.0000
# 6 0.0000 0.0000 0.0000 0.0000 0.0000 12.0445
#
#
#
# Elastic Compliance Matrix: (Units=1/GPa)
#
#
# Indices 1 2 3 4 5 6 
#
# 1 0.006357 -0.000352 -0.001581 0.000000 0.000000 0.000000
# 2 -0.000352 0.010981 0.001430 0.000000 0.000000 0.000000
# 3 -0.001581 0.001430 0.010695 0.000000 0.000000 0.000000
# 4 0.000000 0.000000 0.000000 -0.065026 0.000000 0.000000
# 5 0.000000 0.000000 0.000000 0.000000 0.022863 0.000000
# 6 0.000000 0.000000 0.000000 0.000000 0.000000 0.083025
#
#
# Mechanical properties :
#
#
# Convention : Reuss Voigt Hill
#
# Bulk Modulus (GPa) = 37.00041 42.50366 39.75203
# Shear Modulus (GPa) = 63.36337 30.80082 47.08209
#
# Velocity S-wave (km/s) = 5.07384 3.53752 4.37367
# Velocity P-wave (km/s) = 7.02553 5.82702 6.45416
#
# Compressibility (1/GPa) = 0.02702673
#
# Stress axis : x y z
#
# Youngs Moduli (GPa) = 157.29636 91.07002 93.50278
#
# Poissons Ratio (x) = 0.03207 0.14785
# Poissons Ratio (y) = 0.05538 -0.13373
# Poissons Ratio (z) = 0.24872 -0.13025
#
# Static dielectric constant tensor:
#      x y z
#    x 2.085730 0.000000 0.000000 
#    y 0.000000 1.983200 0.000000 
#    z 0.000000 0.000000 1.874630 
# 
# From -- ./inp_files/1296.got.cif
#   From: 2010.05.17/outbox.cif.g08.bks.cpg/sg41_1_cif.got.tgz:1296.got - 2010.06.03 18:54:24.
