data_PCOD9367570
_publ_section_title
;
Structure prediction by ZEFSAII (Michael W. Deem and Ramdas Pophale) SiO2 
 PCOD9367570
Probable space group: A B A 2
;
_chemical_formula_sum "Si O2"
_cell_formula_units_Z 24
_cell_length_a 8.562933
_cell_length_b 11.634846
_cell_length_c 9.390011
_cell_angle_alpha 90.000000
_cell_angle_beta 90.000000
_cell_angle_gamma 90.000000
_cell_volume 935.511835
_symmetry_space_group_name_H-M "A B A 2"
_symmetry_group_IT_number 41
_symmetry_cell_setting 'orthorhombic'
loop_
_space_group_symop_operation_xyz
x,y,z
-x,-y,z
1/2-x,y,1/2+z
1/2+x,-y,1/2+z
x,1/2+y,1/2+z
-x,1/2-y,1/2+z
1/2-x,1/2+y,z
1/2+x,1/2-y,z
loop_
_atom_site_type_symbol
_atom_site_label
_atom_site_fract_x
_atom_site_fract_y
_atom_site_fract_z
Si Si1 0.189415 0.708449 0.972230
Si Si2 0.335048 0.060101 0.696370
Si Si3 0.896783 0.101892 0.571706
O O1 0.169465 0.661880 0.813101
O O2 0.308174 0.619132 0.044307
O O3 0.262917 0.833977 0.984428
O O4 0.036680 0.695485 0.074361
O O5 0.500000 0.000000 0.700507
O O6 0.193013 0.965307 0.698416
O O7 0.000000 0.000000 0.501511
#
# Coordination Sequence:
#
# PCOD9367570 Si02
#       3
#     8   8   8
#     4  11  25  44  73 106 148 195 245 303 368 437
#     4  11  24  44  72 109 150 194 244 303 370 443
#     4  10  24  46  72 105 146 191 243 300 363 434
#
# _framework density 25.654402999999999
#
# number of rings (size 3 to 8) (size 9 to 14) (size 15 to 20)
#    0.000    1.333    0.000    5.000    0.000   17.333 
#    0.000    3.333    0.000    0.000    0.000    0.000 
#    0.000    0.000    0.000    0.000    0.000    0.000 
#
# Total GULP energy -66897.425953 kJ/mol
# GULP energy per Si atom -5574.785496 kJ/mol
# Density = 2.559601 g / cm^3
# Si number density = 25.654403 Si / 1000 Ang^3
#
#
#
# Elastic Constant Matrix: (Units=GPa)
#
#
# Indices 1 2 3 4 5 6 
#
# 1 157.1343 75.7280 13.0290 0.0000 0.0000 0.0000
# 2 75.7280 128.8403 30.4495 0.0000 0.0000 0.0000
# 3 13.0290 30.4495 64.9907 0.0000 0.0000 0.0000
# 4 0.0000 0.0000 0.0000 37.6966 0.0000 0.0000
# 5 0.0000 0.0000 0.0000 0.0000 13.0851 0.0000
# 6 0.0000 0.0000 0.0000 0.0000 0.0000 79.9824
#
#
#
# Elastic Compliance Matrix: (Units=1/GPa)
#
#
# Indices 1 2 3 4 5 6 
#
# 1 0.008912 -0.005415 0.000751 0.000000 0.000000 0.000000
# 2 -0.005415 0.012019 -0.004545 0.000000 0.000000 0.000000
# 3 0.000751 -0.004545 0.017366 0.000000 0.000000 0.000000
# 4 0.000000 0.000000 0.000000 0.026528 0.000000 0.000000
# 5 0.000000 0.000000 0.000000 0.000000 0.076423 0.000000
# 6 0.000000 0.000000 0.000000 0.000000 0.000000 0.012503
#
#
# Mechanical properties :
#
#
# Convention : Reuss Voigt Hill
#
# Bulk Modulus (GPa) = 50.31167 65.48648 57.89908
# Shear Modulus (GPa) = 27.96502 41.60340 34.78421
#
# Velocity S-wave (km/s) = 3.30520 4.03139 3.68622
# Velocity P-wave (km/s) = 5.84976 6.87395 6.38243
#
# Compressibility (1/GPa) = 0.01987611
#
# Stress axis : x y z
#
# Youngs Moduli (GPa) = 112.21381 83.20351 57.58394
#
# Poissons Ratio (x) = 0.45057 -0.04322
# Poissons Ratio (y) = 0.60767 0.26174
# Poissons Ratio (z) = -0.08423 0.37819
#
# Static dielectric constant tensor:
#      x y z
#    x 2.094360 0.000000 0.000000 
#    y 0.000000 2.205540 0.000000 
#    z 0.000000 0.000000 1.967410 
# 
# From -- ./inp_files/1570.got.cif
#   From: 2010.05.17/outbox.cif.g08.bks.cpg/sg41_1_cif.got.tgz:1570.got - 2010.06.03 18:54:24.
