data_PCOD9367265
_publ_section_title
;
Structure prediction by ZEFSAII (Michael W. Deem and Ramdas Pophale) SiO2 
 PCOD9367265
Probable space group: A B A 2
;
_chemical_formula_sum "Si O2"
_cell_formula_units_Z 56
_cell_length_a 22.411629
_cell_length_b 8.729803
_cell_length_c 13.940456
_cell_angle_alpha 90.000000
_cell_angle_beta 90.000000
_cell_angle_gamma 90.000000
_cell_volume 2727.437755
_symmetry_space_group_name_H-M "A B A 2"
_symmetry_group_IT_number 41
_symmetry_cell_setting 'orthorhombic'
loop_
_space_group_symop_operation_xyz
x,y,z
-x,-y,z
1/2-x,y,1/2+z
1/2+x,-y,1/2+z
x,1/2+y,1/2+z
-x,1/2-y,1/2+z
1/2-x,1/2+y,z
1/2+x,1/2-y,z
loop_
_atom_site_type_symbol
_atom_site_label
_atom_site_fract_x
_atom_site_fract_y
_atom_site_fract_z
Si Si1 0.500000 0.500000 0.664840
Si Si2 0.586657 0.753005 0.244878
Si Si3 0.500000 0.500000 0.212469
Si Si4 0.300417 0.366853 0.690074
Si Si5 0.836512 0.302501 0.427483
Si Si6 0.082128 0.739590 0.602589
Si Si7 0.780366 0.628158 0.419191
Si Si8 0.683918 0.293604 0.600009
O O1 0.541833 0.393124 0.729211
O O2 0.457095 0.392891 0.603252
O O3 0.546262 0.606672 0.269754
O O4 0.636176 0.795734 0.322089
O O5 0.623114 0.728247 0.146293
O O6 0.459850 0.610432 0.146867
O O7 0.359037 0.267746 0.666830
O O8 0.292308 0.367019 0.805062
O O9 0.310581 0.531726 0.638430
O O10 0.241142 0.293246 0.644730
O O11 0.891355 0.294310 0.499347
O O12 0.800792 0.458679 0.448597
O O13 0.789225 0.165072 0.436120
O O14 0.814022 0.751865 0.487057
#
# Coordination Sequence:
#
# PCOD9367265 Si02
#       8
#     4   8   4   8   8   8   8   8
#     4  10  22  46  68  84 136 186 232 286 340 388
#     4  11  23  45  67  98 135 183 235 288 345 419
#     4  10  26  44  68  94 134 190 236 290 342 404
#     4  12  24  43  69 102 141 177 224 287 353 423
#     4  12  25  41  68 100 140 175 231 279 356 422
#     4  11  24  45  67  99 134 182 233 288 341 416
#     4  12  24  42  66 107 139 181 214 283 359 429
#     4  12  24  41  71 100 141 179 224 288 354 423
#
# _framework density 20.53209
#
# number of rings (size 3 to 8) (size 9 to 14) (size 15 to 20)
#    0.000    0.571    5.714    1.714    2.000    2.286 
#    0.000    5.714    0.000    0.000    0.000    0.000 
#    0.000    0.000    0.000    0.000    0.000    0.000 
#
# Total GULP energy -156477.443767 kJ/mol
# GULP energy per Si atom -5588.480135 kJ/mol
# Density = 2.048536 g / cm^3
# Si number density = 20.532090 Si / 1000 Ang^3
#
#
#
# Elastic Constant Matrix: (Units=GPa)
#
#
# Indices 1 2 3 4 5 6 
#
# 1 95.7666 38.9165 -2.4183 0.0000 0.0000 0.0000
# 2 38.9165 103.8655 23.7967 0.0000 0.0000 0.0000
# 3 -2.4183 23.7967 84.1385 0.0000 0.0000 0.0000
# 4 0.0000 0.0000 0.0000 14.1078 0.0000 0.0000
# 5 0.0000 0.0000 0.0000 0.0000 25.4528 0.0000
# 6 0.0000 0.0000 0.0000 0.0000 0.0000 46.2042
#
#
#
# Elastic Compliance Matrix: (Units=1/GPa)
#
#
# Indices 1 2 3 4 5 6 
#
# 1 0.012570 -0.005125 0.001811 0.000000 0.000000 0.000000
# 2 -0.005125 0.012384 -0.003650 0.000000 0.000000 0.000000
# 3 0.001811 -0.003650 0.012969 0.000000 0.000000 0.000000
# 4 0.000000 0.000000 0.000000 0.070883 0.000000 0.000000
# 5 0.000000 0.000000 0.000000 0.000000 0.039288 0.000000
# 6 0.000000 0.000000 0.000000 0.000000 0.000000 0.021643
#
#
# Mechanical properties :
#
#
# Convention : Reuss Voigt Hill
#
# Bulk Modulus (GPa) = 41.67327 44.92893 43.30110
# Shear Modulus (GPa) = 26.08719 32.05132 29.06925
#
# Velocity S-wave (km/s) = 3.56835 3.95528 3.76679
# Velocity P-wave (km/s) = 6.10887 6.54131 6.32878
#
# Compressibility (1/GPa) = 0.02399620
#
# Stress axis : x y z
#
# Youngs Moduli (GPa) = 79.55259 80.74808 77.10404
#
# Poissons Ratio (x) = 0.41381 -0.13961
# Poissons Ratio (y) = 0.40768 0.28142
# Poissons Ratio (z) = -0.14405 0.29472
#
# Static dielectric constant tensor:
#      x y z
#    x 1.714910 0.000000 0.000000 
#    y 0.000000 1.759350 0.000000 
#    z 0.000000 0.000000 1.748680 
# 
# From -- ./inp_files/9040.got.cif
#   From: 2010.05.17/outbox.cif.g08.bks.cpg/sg41_5_cif.got.tgz:9040.got - 2010.06.03 18:54:24.
