data_PCOD9367848
_publ_section_title
;
Structure prediction by ZEFSAII (Michael W. Deem and Ramdas Pophale) SiO2 
 PCOD9367848
Probable space group: A B A 2
;
_chemical_formula_sum "Si O2"
_cell_formula_units_Z 40
_cell_length_a 10.170745
_cell_length_b 9.176120
_cell_length_c 19.376658
_cell_angle_alpha 90.000000
_cell_angle_beta 90.000000
_cell_angle_gamma 90.000000
_cell_volume 1808.384285
_symmetry_space_group_name_H-M "A B A 2"
_symmetry_group_IT_number 41
_symmetry_cell_setting 'orthorhombic'
loop_
_space_group_symop_operation_xyz
x,y,z
-x,-y,z
1/2-x,y,1/2+z
1/2+x,-y,1/2+z
x,1/2+y,1/2+z
-x,1/2-y,1/2+z
1/2-x,1/2+y,z
1/2+x,1/2-y,z
loop_
_atom_site_type_symbol
_atom_site_label
_atom_site_fract_x
_atom_site_fract_y
_atom_site_fract_z
Si Si1 0.801720 0.371672 0.670010
Si Si2 0.967111 0.836069 0.717064
Si Si3 0.373892 0.093292 0.514194
Si Si4 0.638773 0.080974 0.795299
Si Si5 0.139949 0.417322 0.949764
O O1 0.647952 0.332969 0.659023
O O2 0.867059 0.406345 0.597286
O O3 0.801784 0.498777 0.728475
O O4 0.898635 0.246914 0.699151
O O5 0.893990 0.746922 0.776714
O O6 0.000000 0.000000 0.734934
O O7 0.375108 0.255134 0.481244
O O8 0.500000 0.000000 0.491582
O O9 0.242693 0.009819 0.492866
O O10 0.697890 0.081310 0.871354
O O11 0.500000 0.000000 0.802502
O O12 0.000000 0.500000 0.950880
#
# Coordination Sequence:
#
# PCOD9367848 Si02
#       5
#     8   8   8   8   8
#     4  11  26  45  73 107 143 184 241 297 353 427
#     4  11  24  42  73 107 138 184 237 293 355 416
#     4  12  28  47  74 107 147 190 242 299 366 433
#     4   9  22  47  68 102 143 183 237 293 348 429
#     4  11  27  49  73 105 149 193 239 294 369 439
#
# _framework density 22.119191000000001
#
# number of rings (size 3 to 8) (size 9 to 14) (size 15 to 20)
#    0.000    1.200    0.000    4.200   14.000    0.800 
#    7.200    0.000    0.000    0.000    0.000    0.000 
#    0.000    0.000    0.000    0.000    0.000    0.000 
#
# Total GULP energy -111696.458388 kJ/mol
# GULP energy per Si atom -5584.822919 kJ/mol
# Density = 2.206885 g / cm^3
# Si number density = 22.119191 Si / 1000 Ang^3
#
#
#
# Elastic Constant Matrix: (Units=GPa)
#
#
# Indices 1 2 3 4 5 6 
#
# 1 99.1465 62.8120 6.6126 0.0000 0.0000 0.0000
# 2 62.8120 191.3474 69.6473 0.0000 0.0000 0.0000
# 3 6.6126 69.6473 122.3386 0.0000 0.0000 0.0000
# 4 0.0000 0.0000 0.0000 13.1142 0.0000 0.0000
# 5 0.0000 0.0000 0.0000 0.0000 5.7067 0.0000
# 6 0.0000 0.0000 0.0000 0.0000 0.0000 175.7177
#
#
#
# Elastic Compliance Matrix: (Units=1/GPa)
#
#
# Indices 1 2 3 4 5 6 
#
# 1 0.013192 -0.005135 0.002210 0.000000 0.000000 0.000000
# 2 -0.005135 0.008591 -0.004613 0.000000 0.000000 0.000000
# 3 0.002210 -0.004613 0.010681 0.000000 0.000000 0.000000
# 4 0.000000 0.000000 0.000000 0.076253 0.000000 0.000000
# 5 0.000000 0.000000 0.000000 0.000000 0.175231 0.000000
# 6 0.000000 0.000000 0.000000 0.000000 0.000000 0.005691
#
#
# Mechanical properties :
#
#
# Convention : Reuss Voigt Hill
#
# Bulk Modulus (GPa) = 57.51167 76.77515 67.14341
# Shear Modulus (GPa) = 16.10252 57.15844 36.63048
#
# Velocity S-wave (km/s) = 2.70105 5.08893 4.07387
# Velocity P-wave (km/s) = 5.98204 8.32555 7.24912
#
# Compressibility (1/GPa) = 0.01738777
#
# Stress axis : x y z
#
# Youngs Moduli (GPa) = 75.80518 116.40386 93.62553
#
# Poissons Ratio (x) = 0.59771 -0.20693
# Poissons Ratio (y) = 0.38925 0.43191
# Poissons Ratio (z) = -0.16755 0.53699
#
# Static dielectric constant tensor:
#      x y z
#    x 1.840260 0.000000 0.000000 
#    y 0.000000 1.807210 0.000000 
#    z 0.000000 0.000000 1.878740 
# 
# From -- ./inp_files/11350.got.cif
#   From: 2010.05.17/outbox.cif.g08.bks.cpg/sg41_6_cif.got.tgz:11350.got - 2010.06.03 18:54:24.
