data_PCOD9367914
_publ_section_title
;
Structure prediction by ZEFSAII (Michael W. Deem and Ramdas Pophale) SiO2 
 PCOD9367914
Probable space group: A B A 2
;
_chemical_formula_sum "Si O2"
_cell_formula_units_Z 40
_cell_length_a 8.905451
_cell_length_b 25.372374
_cell_length_c 7.712897
_cell_angle_alpha 90.000000
_cell_angle_beta 90.000000
_cell_angle_gamma 90.000000
_cell_volume 1742.747846
_symmetry_space_group_name_H-M "A B A 2"
_symmetry_group_IT_number 41
_symmetry_cell_setting 'orthorhombic'
loop_
_space_group_symop_operation_xyz
x,y,z
-x,-y,z
1/2-x,y,1/2+z
1/2+x,-y,1/2+z
x,1/2+y,1/2+z
-x,1/2-y,1/2+z
1/2-x,1/2+y,z
1/2+x,1/2-y,z
loop_
_atom_site_type_symbol
_atom_site_label
_atom_site_fract_x
_atom_site_fract_y
_atom_site_fract_z
Si Si1 0.435760 0.941374 0.436980
Si Si2 0.981555 0.133879 0.644651
Si Si3 0.922008 0.276501 0.930282
Si Si4 0.411172 0.944698 0.834347
Si Si5 0.284279 0.785305 0.714361
O O1 0.037613 0.906154 0.486049
O O2 0.437138 0.924706 0.638273
O O3 0.267107 0.948101 0.364089
O O4 0.500000 0.000000 0.427803
O O5 0.020601 0.100064 0.814151
O O6 0.827418 0.165389 0.693406
O O7 0.096957 0.176588 0.568091
O O8 0.821321 0.264617 0.763043
O O9 0.090381 0.285827 0.864085
O O10 0.881522 0.224811 0.042163
O O11 0.500000 0.000000 0.851179
#
# Coordination Sequence:
#
# PCOD9367914 Si02
#       5
#     8   8   8   8   8
#     4  11  25  46  74 106 143 185 239 304 368 446
#     4  12  25  46  77 102 144 203 243 291 375 447
#     4  12  25  46  70 102 148 192 253 305 364 432
#     4  11  25  46  74 108 142 184 241 303 371 443
#     4  12  25  46  70 102 148 195 246 312 360 436
#
# _framework density 22.952259999999999
#
# number of rings (size 3 to 8) (size 9 to 14) (size 15 to 20)
#    0.000    0.400    6.000    1.800    0.000    0.000 
#    7.200    0.000    0.000    0.000    0.000    0.000 
#    0.000    0.000    0.000    0.000    0.000    0.000 
#
# Total GULP energy -111713.838667 kJ/mol
# GULP energy per Si atom -5585.691933 kJ/mol
# Density = 2.290002 g / cm^3
# Si number density = 22.952260 Si / 1000 Ang^3
#
#
#
# Elastic Constant Matrix: (Units=GPa)
#
#
# Indices 1 2 3 4 5 6 
#
# 1 28.7765 23.2871 37.6734 0.0000 0.0000 0.0000
# 2 23.2871 99.0011 73.0501 0.0000 0.0000 0.0000
# 3 37.6734 73.0501 177.7298 0.0000 0.0000 0.0000
# 4 0.0000 0.0000 0.0000 3.0450 0.0000 0.0000
# 5 0.0000 0.0000 0.0000 0.0000 38.7346 0.0000
# 6 0.0000 0.0000 0.0000 0.0000 0.0000 37.4608
#
#
#
# Elastic Compliance Matrix: (Units=1/GPa)
#
#
# Indices 1 2 3 4 5 6 
#
# 1 0.050230 -0.005682 -0.008312 0.000000 0.000000 0.000000
# 2 -0.005682 0.015141 -0.005019 0.000000 0.000000 0.000000
# 3 -0.008312 -0.005019 0.009451 0.000000 0.000000 0.000000
# 4 0.000000 0.000000 0.000000 0.328403 0.000000 0.000000
# 5 0.000000 0.000000 0.000000 0.000000 0.025817 0.000000
# 6 0.000000 0.000000 0.000000 0.000000 0.000000 0.026695
#
#
# Mechanical properties :
#
#
# Convention : Reuss Voigt Hill
#
# Bulk Modulus (GPa) = 27.17624 63.72541 45.45083
# Shear Modulus (GPa) = 9.88090 27.28123 18.58107
#
# Velocity S-wave (km/s) = 2.07710 3.45136 2.84835
# Velocity P-wave (km/s) = 4.19744 6.61114 5.53740
#
# Compressibility (1/GPa) = 0.03679685
#
# Stress axis : x y z
#
# Youngs Moduli (GPa) = 19.90826 66.04794 105.80767
#
# Poissons Ratio (x) = 0.37529 0.87946
# Poissons Ratio (y) = 0.11312 0.53100
# Poissons Ratio (z) = 0.16548 0.33147
#
# Static dielectric constant tensor:
#      x y z
#    x 1.797870 0.000000 0.000000 
#    y 0.000000 1.879560 0.000000 
#    z 0.000000 0.000000 1.945830 
# 
# From -- ./inp_files/1743.got.cif
#   From: 2010.05.17/outbox.cif.g08.bks.cpg/sg41_1_cif.got.tgz:1743.got - 2010.06.03 18:54:24.
