data_PCOD9367384
_publ_section_title
;
Structure prediction by ZEFSAII (Michael W. Deem and Ramdas Pophale) SiO2 
 PCOD9367384
Probable space group: A B A 2
;
_chemical_formula_sum "Si O2"
_cell_formula_units_Z 64
_cell_length_a 15.745974
_cell_length_b 24.151201
_cell_length_c 8.693795
_cell_angle_alpha 90.000000
_cell_angle_beta 90.000000
_cell_angle_gamma 90.000000
_cell_volume 3306.112729
_symmetry_space_group_name_H-M "A B A 2"
_symmetry_group_IT_number 41
_symmetry_cell_setting 'orthorhombic'
loop_
_space_group_symop_operation_xyz
x,y,z
-x,-y,z
1/2-x,y,1/2+z
1/2+x,-y,1/2+z
x,1/2+y,1/2+z
-x,1/2-y,1/2+z
1/2-x,1/2+y,z
1/2+x,1/2-y,z
loop_
_atom_site_type_symbol
_atom_site_label
_atom_site_fract_x
_atom_site_fract_y
_atom_site_fract_z
Si Si1 0.660895 0.135635 0.139760
Si Si2 0.160895 0.864365 0.271341
Si Si3 0.595644 0.250614 0.639743
Si Si4 0.005918 0.564698 0.770952
Si Si5 0.839446 0.865847 0.772627
Si Si6 0.660554 0.865847 0.638473
Si Si7 0.994082 0.435302 0.140148
Si Si8 0.904356 0.750614 0.271358
O O1 0.750000 0.114571 0.205550
O O2 0.581703 0.096062 0.178086
O O3 0.641909 0.195632 0.211910
O O4 0.665783 0.140653 0.955550
O O5 0.141909 0.804368 0.199191
O O6 0.081703 0.903938 0.233015
O O7 0.640950 0.305662 0.700884
O O8 0.500000 0.250000 0.705550
O O9 0.593069 0.251309 0.455550
O O10 0.000000 0.500000 0.733125
O O11 0.083648 0.594455 0.687333
O O12 0.018765 0.569988 0.955550
O O13 0.750000 0.886125 0.705550
O O14 0.916352 0.905545 0.723768
O O15 0.834720 0.861141 0.955550
O O16 0.640950 0.805662 0.710216
O O17 0.000000 0.500000 0.177976
#
# Coordination Sequence:
#
# PCOD9367384 Si02
#       8
#     8   8   8   8   8   8   8   8
#     4  11  23  40  64  93 129 167 209 258 314 376
#     4  11  23  40  64  93 129 167 209 258 314 376
#     4  12  23  39  64  95 130 165 206 255 317 383
#     4  10  23  44  67  92 126 168 214 267 318 371
#     4  12  25  42  66  95 129 169 212 261 317 377
#     4  12  25  42  66  95 129 169 212 261 317 377
#     4  10  23  44  67  92 126 168 214 267 318 371
#     4  12  23  39  64  95 130 165 206 255 317 383
#
# _framework density 19.358082
#
# number of rings (size 3 to 8) (size 9 to 14) (size 15 to 20)
#    0.000    0.750    2.500    6.000    0.000    2.500 
#    0.000    2.500    0.000    0.000    0.000    0.000 
#    0.000    0.000    0.000    0.000    0.000    0.000 
#
# Total GULP energy -179140.034409 kJ/mol
# GULP energy per Si atom -5598.126075 kJ/mol
# Density = 1.931402 g / cm^3
# Si number density = 19.358082 Si / 1000 Ang^3
#
#
#
# Elastic Constant Matrix: (Units=GPa)
#
#
# Indices 1 2 3 4 5 6 
#
# 1 178.9623 62.8828 88.4465 0.0000 0.0000 0.0000
# 2 62.8828 124.1786 70.6091 0.0000 0.0000 0.0000
# 3 88.4465 70.6091 139.9387 0.0000 0.0000 0.0000
# 4 0.0000 0.0000 0.0000 23.2941 0.0000 0.0000
# 5 0.0000 0.0000 0.0000 0.0000 35.3106 0.0000
# 6 0.0000 0.0000 0.0000 0.0000 0.0000 -10.5908
#
#
#
# Elastic Compliance Matrix: (Units=1/GPa)
#
#
# Indices 1 2 3 4 5 6 
#
# 1 0.008382 -0.001728 -0.004426 0.000000 0.000000 0.000000
# 2 -0.001728 0.011649 -0.004786 0.000000 0.000000 0.000000
# 3 -0.004426 -0.004786 0.012358 0.000000 0.000000 0.000000
# 4 0.000000 0.000000 0.000000 0.042929 0.000000 0.000000
# 5 0.000000 0.000000 0.000000 0.000000 0.028320 0.000000
# 6 0.000000 0.000000 0.000000 0.000000 0.000000 -0.094421
#
#
# Mechanical properties :
#
#
# Convention : Reuss Voigt Hill
#
# Bulk Modulus (GPa) = 95.14606 98.55072 96.84839
# Shear Modulus (GPa) = 144.50613 24.34553 84.42583
#
# Velocity S-wave (km/s) = 8.64934 3.55017 6.61116
# Velocity P-wave (km/s) = 12.20677 8.23558 10.41226
#
# Compressibility (1/GPa) = 0.01051016
#
# Stress axis : x y z
#
# Youngs Moduli (GPa) = 119.29744 85.84318 80.91847
#
# Poissons Ratio (x) = 0.14834 0.35815
# Poissons Ratio (y) = 0.20615 0.38725
# Poissons Ratio (z) = 0.52802 0.41081
#
# Static dielectric constant tensor:
#      x y z
#    x 1.680430 0.000000 0.000000 
#    y 0.000000 1.645820 0.000000 
#    z 0.000000 0.000000 1.647930 
# 
# From -- ./inp_files/2795.got.cif
#   From: 2010.05.17/outbox.cif.g08.bks.cpg/sg41_2_cif.got.tgz:2795.got - 2010.06.03 18:54:24.
