data_PCOD9367117
_publ_section_title
;
Structure prediction by ZEFSAII (Michael W. Deem and Ramdas Pophale) SiO2 
 PCOD9367117
Probable space group: A B A 2
;
_chemical_formula_sum "Si O2"
_cell_formula_units_Z 60
_cell_length_a 27.168105
_cell_length_b 12.026427
_cell_length_c 8.005534
_cell_angle_alpha 90.000000
_cell_angle_beta 90.000000
_cell_angle_gamma 90.000000
_cell_volume 2615.690005
_symmetry_space_group_name_H-M "A B A 2"
_symmetry_group_IT_number 41
_symmetry_cell_setting 'orthorhombic'
loop_
_space_group_symop_operation_xyz
x,y,z
-x,-y,z
1/2-x,y,1/2+z
1/2+x,-y,1/2+z
x,1/2+y,1/2+z
-x,1/2-y,1/2+z
1/2-x,1/2+y,z
1/2+x,1/2-y,z
loop_
_atom_site_type_symbol
_atom_site_label
_atom_site_fract_x
_atom_site_fract_y
_atom_site_fract_z
Si Si1 0.454736 0.386531 0.933870
Si Si2 0.898822 0.306425 0.064623
Si Si3 0.806105 0.059436 0.803066
Si Si4 0.460622 0.783358 0.877187
Si Si5 0.591273 0.550715 0.610494
Si Si6 0.716569 0.433142 0.126013
Si Si7 0.500000 0.500000 0.215593
Si Si8 0.296534 0.198499 0.943506
O O1 0.504091 0.312346 0.947246
O O2 0.447640 0.448932 0.761662
O O3 0.412484 0.292758 0.938801
O O4 0.455250 0.473651 0.085827
O O5 0.929537 0.269945 0.226898
O O6 0.912409 0.432420 0.018160
O O7 0.840066 0.303579 0.079109
O O8 0.854697 0.055701 0.690565
O O9 0.793297 0.182696 0.859652
O O10 0.760188 0.011025 0.698825
O O11 0.813294 0.992613 0.978222
O O12 0.495906 0.886479 0.820510
O O13 0.422812 0.843011 0.001297
O O14 0.690611 0.386672 0.291942
O O15 0.746081 0.335735 0.030806
#
# Coordination Sequence:
#
# PCOD9367117 Si02
#       8
#     8   8   8   8   8   8   4   8
#     4  11  23  44  65  91 129 170 222 272 333 393
#     4  11  24  42  64  99 131 169 226 272 330 402
#     4  11  23  44  67  99 130 177 219 273 340 399
#     4  11  25  42  66  92 130 176 220 272 341 398
#     4  12  24  42  67  98 134 172 224 282 327 409
#     4  10  24  44  69  96 136 176 222 273 345 408
#     4  10  22  42  62  88 120 170 210 264 328 382
#     4  11  22  45  67  97 132 175 222 276 331 411
#
# _framework density 22.938499
#
# number of rings (size 3 to 8) (size 9 to 14) (size 15 to 20)
#    0.000    1.067    2.667    4.000    0.000    3.733 
#    4.800    0.000    0.000    0.000    0.000    0.000 
#    0.000    0.000    0.000    0.000    0.000    0.000 
#
# Total GULP energy -167602.143372 kJ/mol
# GULP energy per Si atom -5586.738112 kJ/mol
# Density = 2.288629 g / cm^3
# Si number density = 22.938499 Si / 1000 Ang^3
#
#
#
# Elastic Constant Matrix: (Units=GPa)
#
#
# Indices 1 2 3 4 5 6 
#
# 1 66.8998 36.6323 19.3768 0.0000 0.0000 0.0000
# 2 36.6323 104.1278 8.4602 0.0000 0.0000 0.0000
# 3 19.3768 8.4602 57.6128 0.0000 0.0000 0.0000
# 4 0.0000 0.0000 0.0000 35.5937 0.0000 0.0000
# 5 0.0000 0.0000 0.0000 0.0000 17.0308 0.0000
# 6 0.0000 0.0000 0.0000 0.0000 0.0000 4.6212
#
#
#
# Elastic Compliance Matrix: (Units=1/GPa)
#
#
# Indices 1 2 3 4 5 6 
#
# 1 0.020289 -0.006663 -0.005845 0.000000 0.000000 0.000000
# 2 -0.006663 0.011908 0.000492 0.000000 0.000000 0.000000
# 3 -0.005845 0.000492 0.019251 0.000000 0.000000 0.000000
# 4 0.000000 0.000000 0.000000 0.028095 0.000000 0.000000
# 5 0.000000 0.000000 0.000000 0.000000 0.058717 0.000000
# 6 0.000000 0.000000 0.000000 0.000000 0.000000 0.216394
#
#
# Mechanical properties :
#
#
# Convention : Reuss Voigt Hill
#
# Bulk Modulus (GPa) = 36.47529 39.73102 38.10315
# Shear Modulus (GPa) = 12.89244 22.39387 17.64316
#
# Velocity S-wave (km/s) = 2.37332 3.12790 2.77636
# Velocity P-wave (km/s) = 4.84211 5.51392 5.18890
#
# Compressibility (1/GPa) = 0.02741582
#
# Stress axis : x y z
#
# Youngs Moduli (GPa) = 49.28747 83.98018 51.94559
#
# Poissons Ratio (x) = 0.55954 0.30364
# Poissons Ratio (y) = 0.32839 -0.02557
# Poissons Ratio (z) = 0.28810 -0.04134
#
# Static dielectric constant tensor:
#      x y z
#    x 1.840500 0.000000 0.000000 
#    y 0.000000 1.860670 0.000000 
#    z 0.000000 0.000000 1.868760 
# 
# From -- ./inp_files/3813.got.cif
#   From: 2010.05.17/outbox.cif.g08.bks.cpg/sg41_2_cif.got.tgz:3813.got - 2010.06.03 18:54:24.
