data_PCOD9367018
_publ_section_title
;
Structure prediction by ZEFSAII (Michael W. Deem and Ramdas Pophale) SiO2 
 PCOD9367018
Probable space group: A B A 2
;
_chemical_formula_sum "Si O2"
_cell_formula_units_Z 64
_cell_length_a 9.857442
_cell_length_b 13.725240
_cell_length_c 25.403833
_cell_angle_alpha 90.000000
_cell_angle_beta 90.000000
_cell_angle_gamma 90.000000
_cell_volume 3437.030822
_symmetry_space_group_name_H-M "A B A 2"
_symmetry_group_IT_number 41
_symmetry_cell_setting 'orthorhombic'
loop_
_space_group_symop_operation_xyz
x,y,z
-x,-y,z
1/2-x,y,1/2+z
1/2+x,-y,1/2+z
x,1/2+y,1/2+z
-x,1/2-y,1/2+z
1/2-x,1/2+y,z
1/2+x,1/2-y,z
loop_
_atom_site_type_symbol
_atom_site_label
_atom_site_fract_x
_atom_site_fract_y
_atom_site_fract_z
Si Si1 0.678531 0.586463 0.451190
Si Si2 0.735209 0.215119 0.360903
Si Si3 0.735209 0.215119 0.541477
Si Si4 0.910006 0.403499 0.704039
Si Si5 0.410006 0.596501 0.698341
Si Si6 0.867791 0.357687 0.951190
Si Si7 0.492375 0.750260 0.787566
Si Si8 0.507625 0.249741 0.114814
O O1 0.753639 0.623144 0.399225
O O2 0.753638 0.623144 0.503156
O O3 0.665237 0.471447 0.451190
O O4 0.532188 0.641901 0.451190
O O5 0.693200 0.303588 0.400041
O O6 0.619528 0.205248 0.317701
O O7 0.875327 0.229537 0.329959
O O8 0.693199 0.303588 0.502339
O O9 0.875327 0.229537 0.572421
O O10 0.619527 0.205248 0.584679
O O11 0.750000 0.426555 0.701190
O O12 0.955666 0.347206 0.757349
O O13 0.938744 0.325648 0.657938
O O14 0.000000 0.500000 0.697974
O O15 0.500000 0.500000 0.704406
O O16 0.438744 0.674352 0.744442
O O17 0.455667 0.652794 0.645031
#
# Coordination Sequence:
#
# PCOD9367018 Si02
#       8
#     8   8   8   8   8   8   8   8
#     4  10  22  39  64  91 124 163 207 260 306 368
#     4  11  22  41  64  91 124 168 204 257 312 368
#     4  11  22  41  64  91 124 168 204 257 312 368
#     4  11  26  42  64  96 127 162 211 262 311 372
#     4  11  26  42  64  96 127 162 211 262 311 372
#     4  10  22  39  62  95 124 157 212 257 308 372
#     4  11  24  43  64  88 130 167 209 253 313 377
#     4  11  24  43  64  88 130 167 209 253 313 377
#
# _framework density 18.620723999999999
#
# number of rings (size 3 to 8) (size 9 to 14) (size 15 to 20)
#    0.000    1.250    5.000    0.000    3.500    4.000 
#    0.000    1.250    0.000    0.000    0.000    0.000 
#    0.000    0.000    0.000    0.000    0.000    0.000 
#
# Total GULP energy -178725.451552 kJ/mol
# GULP energy per Si atom -5585.170361 kJ/mol
# Density = 1.857834 g / cm^3
# Si number density = 18.620724 Si / 1000 Ang^3
#
#
#
# Elastic Constant Matrix: (Units=GPa)
#
#
# Indices 1 2 3 4 5 6 
#
# 1 94.6347 24.4769 5.1012 0.0000 0.0000 0.0000
# 2 24.4769 47.9838 9.4021 0.0000 0.0000 0.0000
# 3 5.1012 9.4021 65.1535 0.0000 0.0000 0.0000
# 4 0.0000 0.0000 0.0000 -9.8936 0.0000 0.0000
# 5 0.0000 0.0000 0.0000 0.0000 37.8042 0.0000
# 6 0.0000 0.0000 0.0000 0.0000 0.0000 28.9804
#
#
#
# Elastic Compliance Matrix: (Units=1/GPa)
#
#
# Indices 1 2 3 4 5 6 
#
# 1 0.012173 -0.006198 -0.000059 0.000000 0.000000 0.000000
# 2 -0.006198 0.024603 -0.003065 0.000000 0.000000 0.000000
# 3 -0.000059 -0.003065 0.015795 0.000000 0.000000 0.000000
# 4 0.000000 0.000000 0.000000 -0.101075 0.000000 0.000000
# 5 0.000000 0.000000 0.000000 0.000000 0.026452 0.000000
# 6 0.000000 0.000000 0.000000 0.000000 0.000000 0.034506
#
#
# Mechanical properties :
#
#
# Convention : Reuss Voigt Hill
#
# Bulk Modulus (GPa) = 29.47467 31.74804 30.61135
# Shear Modulus (GPa) = 117.90427 22.63098 70.26763
#
# Velocity S-wave (km/s) = 7.96595 3.48999 6.14965
# Velocity P-wave (km/s) = 10.02356 5.77295 8.17920
#
# Compressibility (1/GPa) = 0.03392743
#
# Stress axis : x y z
#
# Youngs Moduli (GPa) = 82.14745 40.64596 63.31007
#
# Poissons Ratio (x) = 0.25193 0.00371
# Poissons Ratio (y) = 0.50916 0.19405
# Poissons Ratio (z) = 0.00482 0.12458
#
# Static dielectric constant tensor:
#      x y z
#    x 1.647830 0.000000 0.000000 
#    y 0.000000 1.600450 0.000000 
#    z 0.000000 0.000000 1.633280 
# 
# From -- ./inp_files/12022.got.cif
#   From: 2010.05.17/outbox.cif.g08.bks.cpg/sg41_7_cif.got.tgz:12022.got - 2010.06.03 18:54:24.
