data_PCOD9367082
_publ_section_title
;
Structure prediction by ZEFSAII (Michael W. Deem and Ramdas Pophale) SiO2 
 PCOD9367082
Probable space group: A B A 2
;
_chemical_formula_sum "Si O2"
_cell_formula_units_Z 40
_cell_length_a 17.693067
_cell_length_b 8.711622
_cell_length_c 11.518737
_cell_angle_alpha 90.000000
_cell_angle_beta 90.000000
_cell_angle_gamma 90.000000
_cell_volume 1775.444118
_symmetry_space_group_name_H-M "A B A 2"
_symmetry_group_IT_number 41
_symmetry_cell_setting 'orthorhombic'
loop_
_space_group_symop_operation_xyz
x,y,z
-x,-y,z
1/2-x,y,1/2+z
1/2+x,-y,1/2+z
x,1/2+y,1/2+z
-x,1/2-y,1/2+z
1/2-x,1/2+y,z
1/2+x,1/2-y,z
loop_
_atom_site_type_symbol
_atom_site_label
_atom_site_fract_x
_atom_site_fract_y
_atom_site_fract_z
Si Si1 0.706395 0.730030 0.806240
Si Si2 0.525009 0.335431 0.564518
Si Si3 0.428340 0.602251 0.199792
Si Si4 0.649688 0.920580 0.245768
Si Si5 0.891018 0.073781 0.966893
O O1 0.641006 0.855784 0.782499
O O2 0.787266 0.800653 0.785692
O O3 0.690963 0.583731 0.722948
O O4 0.687758 0.657328 0.932432
O O5 0.500000 0.500000 0.519357
O O6 0.463439 0.260449 0.650193
O O7 0.600059 0.362119 0.640764
O O8 0.545672 0.205474 0.472157
O O9 0.500000 0.500000 0.241504
O O10 0.604891 0.488354 0.088438
O O11 0.598742 0.960659 0.358257
#
# Coordination Sequence:
#
# PCOD9367082 Si02
#       5
#     8   8   8   8   8
#     4  10  23  46  63  97 134 172 218 275 323 391
#     4  11  21  43  70 100 129 171 222 275 332 386
#     4  10  22  40  70  96 128 173 218 269 330 388
#     4  10  24  45  66  96 135 171 220 272 326 391
#     4   9  24  41  60  97 131 169 214 261 324 395
#
# _framework density 22.529572999999999
#
# number of rings (size 3 to 8) (size 9 to 14) (size 15 to 20)
#    1.200    0.800    2.000    0.000    5.600    9.600 
#    3.600    0.000    0.000    0.000    0.000    0.000 
#    0.000    0.000    0.000    0.000    0.000    0.000 
#
# Total GULP energy -111598.330788 kJ/mol
# GULP energy per Si atom -5579.916539 kJ/mol
# Density = 2.247829 g / cm^3
# Si number density = 22.529573 Si / 1000 Ang^3
#
#
#
# Elastic Constant Matrix: (Units=GPa)
#
#
# Indices 1 2 3 4 5 6 
#
# 1 105.1862 45.7977 42.3595 0.0000 0.0000 0.0000
# 2 45.7977 104.7985 24.9020 0.0000 0.0000 0.0000
# 3 42.3595 24.9020 64.4708 0.0000 0.0000 0.0000
# 4 0.0000 0.0000 0.0000 19.1624 0.0000 0.0000
# 5 0.0000 0.0000 0.0000 0.0000 27.8658 0.0000
# 6 0.0000 0.0000 0.0000 0.0000 0.0000 47.4052
#
#
#
# Elastic Compliance Matrix: (Units=1/GPa)
#
#
# Indices 1 2 3 4 5 6 
#
# 1 0.014652 -0.004531 -0.007877 0.000000 0.000000 0.000000
# 2 -0.004531 0.011908 -0.001622 0.000000 0.000000 0.000000
# 3 -0.007877 -0.001622 0.021313 0.000000 0.000000 0.000000
# 4 0.000000 0.000000 0.000000 0.052185 0.000000 0.000000
# 5 0.000000 0.000000 0.000000 0.000000 0.035886 0.000000
# 6 0.000000 0.000000 0.000000 0.000000 0.000000 0.021095
#
#
# Mechanical properties :
#
#
# Convention : Reuss Voigt Hill
#
# Bulk Modulus (GPa) = 50.47400 55.61934 53.04667
# Shear Modulus (GPa) = 26.08203 29.64644 27.86424
#
# Velocity S-wave (km/s) = 3.40616 3.63146 3.52061
# Velocity P-wave (km/s) = 6.15803 6.50570 6.33425
#
# Compressibility (1/GPa) = 0.01981218
#
# Stress axis : x y z
#
# Youngs Moduli (GPa) = 68.25089 83.97851 46.92060
#
# Poissons Ratio (x) = 0.38054 0.36957
# Poissons Ratio (y) = 0.30927 0.07611
# Poissons Ratio (z) = 0.53758 0.13623
#
# Static dielectric constant tensor:
#      x y z
#    x 1.829810 0.000000 0.000000 
#    y 0.000000 1.870860 0.000000 
#    z 0.000000 0.000000 1.855090 
# 
# From -- ./inp_files/8231.got.cif
#   From: 2010.05.17/outbox.cif.g08.bks.cpg/sg41_5_cif.got.tgz:8231.got - 2010.06.03 18:54:24.
