data_PCOD9367313
_publ_section_title
;
Structure prediction by ZEFSAII (Michael W. Deem and Ramdas Pophale) SiO2 
 PCOD9367313
Probable space group: A B A 2
;
_chemical_formula_sum "Si O2"
_cell_formula_units_Z 60
_cell_length_a 11.046454
_cell_length_b 12.158715
_cell_length_c 20.868083
_cell_angle_alpha 90.000000
_cell_angle_beta 90.000000
_cell_angle_gamma 90.000000
_cell_volume 2802.806542
_symmetry_space_group_name_H-M "A B A 2"
_symmetry_group_IT_number 41
_symmetry_cell_setting 'orthorhombic'
loop_
_space_group_symop_operation_xyz
x,y,z
-x,-y,z
1/2-x,y,1/2+z
1/2+x,-y,1/2+z
x,1/2+y,1/2+z
-x,1/2-y,1/2+z
1/2-x,1/2+y,z
1/2+x,1/2-y,z
loop_
_atom_site_type_symbol
_atom_site_label
_atom_site_fract_x
_atom_site_fract_y
_atom_site_fract_z
Si Si1 0.383873 0.043078 0.729370
Si Si2 0.547228 0.772342 0.092897
Si Si3 0.424939 0.607911 0.010316
Si Si4 0.000000 0.500000 0.146651
Si Si5 0.419183 0.225384 0.833161
Si Si6 0.795934 0.809578 0.126675
Si Si7 0.338774 0.450686 0.767572
Si Si8 0.845596 0.348500 0.369913
O O1 0.430611 0.124682 0.783879
O O2 0.289943 0.111470 0.686832
O O3 0.305098 0.945687 0.758307
O O4 0.500000 0.000000 0.691386
O O5 0.677909 0.735046 0.118836
O O6 0.429361 0.741809 0.134732
O O7 0.548526 0.903209 0.101155
O O8 0.512185 0.713162 0.026287
O O9 0.500000 0.500000 0.027266
O O10 0.378486 0.599990 0.938521
O O11 0.314779 0.626247 0.059673
O O12 0.099488 0.460704 0.198229
O O13 0.385427 0.340108 0.799309
O O14 0.551314 0.253888 0.862143
O O15 0.293790 0.194254 0.870647
O O16 0.358745 0.558170 0.813748
#
# Coordination Sequence:
#
# PCOD9367313 Si02
#       8
#     8   8   8   4   8   8   8   8
#     4  11  23  39  63  96 132 167 212 276 346 397
#     4  10  25  40  66  95 131 175 218 282 331 405
#     4  10  24  45  67  94 132 179 230 269 332 406
#     4  12  20  42  64  96 132 168 230 266 344 396
#     4  11  23  40  65  97 132 167 221 274 336 402
#     4  10  23  41  62  96 125 173 217 269 344 390
#     4  11  22  40  65  96 129 170 219 267 339 405
#     4  11  24  40  69  95 128 180 221 272 333 402
#
# _framework density 21.407114
#
# number of rings (size 3 to 8) (size 9 to 14) (size 15 to 20)
#    0.800    0.533    2.667    2.800    1.867    3.200 
#    0.000    0.000    1.467    0.000    0.000    0.000 
#    0.000    0.000    0.000    0.000    0.000    0.000 
#
# Total GULP energy -167023.956971 kJ/mol
# GULP energy per Si atom -5567.465232 kJ/mol
# Density = 2.135839 g / cm^3
# Si number density = 21.407114 Si / 1000 Ang^3
#
#
#
# Elastic Constant Matrix: (Units=GPa)
#
#
# Indices 1 2 3 4 5 6 
#
# 1 141.4904 15.2085 23.6453 0.0000 0.0000 0.0000
# 2 15.2085 46.7388 14.0145 0.0000 0.0000 0.0000
# 3 23.6453 14.0145 65.0641 0.0000 0.0000 0.0000
# 4 0.0000 0.0000 0.0000 11.6161 0.0000 0.0000
# 5 0.0000 0.0000 0.0000 0.0000 11.6561 0.0000
# 6 0.0000 0.0000 0.0000 0.0000 0.0000 31.4704
#
#
#
# Elastic Compliance Matrix: (Units=1/GPa)
#
#
# Indices 1 2 3 4 5 6 
#
# 1 0.007659 -0.001772 -0.002402 0.000000 0.000000 0.000000
# 2 -0.001772 0.023283 -0.004371 0.000000 0.000000 0.000000
# 3 -0.002402 -0.004371 0.017184 0.000000 0.000000 0.000000
# 4 0.000000 0.000000 0.000000 0.086087 0.000000 0.000000
# 5 0.000000 0.000000 0.000000 0.000000 0.085792 0.000000
# 6 0.000000 0.000000 0.000000 0.000000 0.000000 0.031776
#
#
# Mechanical properties :
#
#
# Convention : Reuss Voigt Hill
#
# Bulk Modulus (GPa) = 32.22055 39.89223 36.05639
# Shear Modulus (GPa) = 17.90722 24.31018 21.10870
#
# Velocity S-wave (km/s) = 2.89538 3.37354 3.14357
# Velocity P-wave (km/s) = 5.12461 5.81806 5.48231
#
# Compressibility (1/GPa) = 0.03103609
#
# Stress axis : x y z
#
# Youngs Moduli (GPa) = 130.55695 42.95019 58.19428
#
# Poissons Ratio (x) = 0.07611 0.13977
# Poissons Ratio (y) = 0.23137 0.25437
# Poissons Ratio (z) = 0.31358 0.18773
#
# Static dielectric constant tensor:
#      x y z
#    x 1.960840 0.000000 0.000000 
#    y 0.000000 1.799880 0.000000 
#    z 0.000000 0.000000 1.750970 
# 
# From -- ./inp_files/11425.got.cif
#   From: 2010.05.17/outbox.cif.g08.bks.cpg/sg41_6_cif.got.tgz:11425.got - 2010.06.03 18:54:24.
