data_PCOD9367410
_publ_section_title
;
Structure prediction by ZEFSAII (Michael W. Deem and Ramdas Pophale) SiO2 
 PCOD9367410
Probable space group: A B A 2
;
_chemical_formula_sum "Si O2"
_cell_formula_units_Z 60
_cell_length_a 21.707628
_cell_length_b 9.580902
_cell_length_c 11.459374
_cell_angle_alpha 90.000000
_cell_angle_beta 90.000000
_cell_angle_gamma 90.000000
_cell_volume 2383.305209
_symmetry_space_group_name_H-M "A B A 2"
_symmetry_group_IT_number 41
_symmetry_cell_setting 'orthorhombic'
loop_
_space_group_symop_operation_xyz
x,y,z
-x,-y,z
1/2-x,y,1/2+z
1/2+x,-y,1/2+z
x,1/2+y,1/2+z
-x,1/2-y,1/2+z
1/2-x,1/2+y,z
1/2+x,1/2-y,z
loop_
_atom_site_type_symbol
_atom_site_label
_atom_site_fract_x
_atom_site_fract_y
_atom_site_fract_z
Si Si1 0.500000 0.000000 0.970520
Si Si2 0.104003 0.679707 0.085505
Si Si3 0.320263 0.139164 0.884199
Si Si4 0.024104 0.275320 0.772418
Si Si5 0.109574 0.689829 0.659305
Si Si6 0.816317 0.538555 0.207697
Si Si7 0.885395 0.385289 0.395549
Si Si8 0.711002 0.649724 0.345388
O O1 0.476047 0.882744 0.880242
O O2 0.552078 0.934780 0.053008
O O3 0.071574 0.795116 0.164303
O O4 0.163045 0.604460 0.144999
O O5 0.129476 0.718621 0.960612
O O6 0.352882 0.111115 0.760375
O O7 0.261454 0.236078 0.880336
O O8 0.299558 0.985987 0.924881
O O9 0.049196 0.132017 0.829919
O O10 0.957752 0.279477 0.711643
O O11 0.147337 0.834338 0.649853
O O12 0.108254 0.616144 0.534159
O O13 0.845924 0.507336 0.336067
O O14 0.745840 0.583937 0.230458
O O15 0.850433 0.241023 0.357774
#
# Coordination Sequence:
#
# PCOD9367410 Si02
#       8
#     4   8   8   8   8   8   8   8
#     4  12  22  46  74 106 154 188 242 304 378 444
#     4  11  23  44  73 104 140 196 234 304 368 438
#     4  11  24  45  71 103 147 185 247 293 370 428
#     4  11  24  43  74 105 140 183 242 294 370 443
#     4  11  24  45  71 105 140 185 233 299 360 435
#     4  10  23  45  70 103 137 187 241 293 359 431
#     4  11  24  46  72 103 141 187 236 294 371 427
#     4  11  23  47  67 104 143 188 240 304 356 442
#
# _framework density 25.17512
#
# number of rings (size 3 to 8) (size 9 to 14) (size 15 to 20)
#    0.000    1.067    2.667    4.000    0.000    2.667 
#   16.800    0.000    0.000    0.000    0.000    0.000 
#    0.000    0.000    0.000    0.000    0.000    0.000 
#
# Total GULP energy -167547.800201 kJ/mol
# GULP energy per Si atom -5584.926673 kJ/mol
# Density = 2.511782 g / cm^3
# Si number density = 25.175120 Si / 1000 Ang^3
#
#
#
# Elastic Constant Matrix: (Units=GPa)
#
#
# Indices 1 2 3 4 5 6 
#
# 1 99.5543 20.6078 31.3235 0.0000 0.0000 0.0000
# 2 20.6078 46.1553 18.0534 0.0000 0.0000 0.0000
# 3 31.3235 18.0534 135.4456 0.0000 0.0000 0.0000
# 4 0.0000 0.0000 0.0000 28.8755 0.0000 0.0000
# 5 0.0000 0.0000 0.0000 0.0000 35.6296 0.0000
# 6 0.0000 0.0000 0.0000 0.0000 0.0000 22.3112
#
#
#
# Elastic Compliance Matrix: (Units=1/GPa)
#
#
# Indices 1 2 3 4 5 6 
#
# 1 0.011609 -0.004361 -0.002104 0.000000 0.000000 0.000000
# 2 -0.004361 0.024496 -0.002257 0.000000 0.000000 0.000000
# 3 -0.002104 -0.002257 0.008170 0.000000 0.000000 0.000000
# 4 0.000000 0.000000 0.000000 0.034631 0.000000 0.000000
# 5 0.000000 0.000000 0.000000 0.000000 0.028067 0.000000
# 6 0.000000 0.000000 0.000000 0.000000 0.000000 0.044821
#
#
# Mechanical properties :
#
#
# Convention : Reuss Voigt Hill
#
# Bulk Modulus (GPa) = 37.26659 46.79163 42.02911
# Shear Modulus (GPa) = 28.06158 31.44131 29.75144
#
# Velocity S-wave (km/s) = 3.34227 3.53782 3.44143
# Velocity P-wave (km/s) = 5.45247 5.94264 5.70282
#
# Compressibility (1/GPa) = 0.02683369
#
# Stress axis : x y z
#
# Youngs Moduli (GPa) = 86.13801 40.82374 122.39478
#
# Poissons Ratio (x) = 0.17802 0.25747
# Poissons Ratio (y) = 0.37561 0.27619
# Poissons Ratio (z) = 0.18120 0.09212
#
# Static dielectric constant tensor:
#      x y z
#    x 2.033230 0.000000 0.000000 
#    y 0.000000 2.013010 0.000000 
#    z 0.000000 0.000000 2.078380 
# 
# From -- ./inp_files/6281.got.cif
#   From: 2010.05.17/outbox.cif.g08.bks.cpg/sg41_4_cif.got.tgz:6281.got - 2010.06.03 18:54:24.
