data_PCOD9367163
_publ_section_title
;
Structure prediction by ZEFSAII (Michael W. Deem and Ramdas Pophale) SiO2 
 PCOD9367163
Probable space group: A B A 2
;
_chemical_formula_sum "Si O2"
_cell_formula_units_Z 56
_cell_length_a 14.118668
_cell_length_b 8.300721
_cell_length_c 20.784703
_cell_angle_alpha 90.000000
_cell_angle_beta 90.000000
_cell_angle_gamma 90.000000
_cell_volume 2435.865845
_symmetry_space_group_name_H-M "A B A 2"
_symmetry_group_IT_number 41
_symmetry_cell_setting 'orthorhombic'
loop_
_space_group_symop_operation_xyz
x,y,z
-x,-y,z
1/2-x,y,1/2+z
1/2+x,-y,1/2+z
x,1/2+y,1/2+z
-x,1/2-y,1/2+z
1/2-x,1/2+y,z
1/2+x,1/2-y,z
loop_
_atom_site_type_symbol
_atom_site_label
_atom_site_fract_x
_atom_site_fract_y
_atom_site_fract_z
Si Si1 0.511812 0.796623 0.626880
Si Si2 0.835674 0.805222 0.773792
Si Si3 0.500000 0.500000 0.003830
Si Si4 0.673455 0.962204 0.703287
Si Si5 0.658491 0.901204 0.422274
Si Si6 0.313180 0.669839 0.591064
Si Si7 0.000000 0.000000 0.699750
Si Si8 0.810352 0.095259 0.498120
O O1 0.528656 0.862494 0.555364
O O2 0.425993 0.092864 0.674130
O O3 0.397661 0.768833 0.624849
O O4 0.548830 0.626622 0.652315
O O5 0.842205 0.624412 0.745363
O O6 0.919556 0.911014 0.740863
O O7 0.728554 0.850467 0.753864
O O8 0.844976 0.854936 0.848133
O O9 0.584993 0.526545 0.954453
O O10 0.745511 0.925993 0.641708
O O11 0.754917 0.983260 0.446515
O O12 0.638684 0.731037 0.457159
O O13 0.254443 0.796619 0.547352
O O14 0.358036 0.538208 0.543161
#
# Coordination Sequence:
#
# PCOD9367163 Si02
#       8
#     8   8   4   8   8   8   4   8
#     4  12  26  44  75 112 152 190 248 332 398 455
#     4  12  26  49  72 107 150 211 264 305 381 474
#     4  12  25  46  70 112 151 190 250 320 396 452
#     4  12  26  46  77 111 153 199 257 325 390 465
#     4  11  24  45  73 100 146 203 251 308 366 469
#     4  11  23  44  70 113 149 186 246 321 393 454
#     4  12  27  44  72 106 153 198 250 320 392 452
#     4  10  22  42  72 106 144 193 246 308 386 455
#
# _framework density 22.989771999999999
#
# number of rings (size 3 to 8) (size 9 to 14) (size 15 to 20)
#    0.000    0.571    2.857    5.571    4.000    0.000 
#    0.000    0.000    3.143    0.000    0.000    0.000 
#    0.000    0.000    0.000    0.000    0.000    0.000 
#
# Total GULP energy -155926.146030 kJ/mol
# GULP energy per Si atom -5568.790930 kJ/mol
# Density = 2.293745 g / cm^3
# Si number density = 22.989772 Si / 1000 Ang^3
#
#
#
# Elastic Constant Matrix: (Units=GPa)
#
#
# Indices 1 2 3 4 5 6 
#
# 1 103.2150 34.6886 52.5107 0.0000 0.0000 0.0000
# 2 34.6886 131.5727 75.2264 0.0000 0.0000 0.0000
# 3 52.5107 75.2264 206.5339 0.0000 0.0000 0.0000
# 4 0.0000 0.0000 0.0000 -13.2998 0.0000 0.0000
# 5 0.0000 0.0000 0.0000 0.0000 61.4101 0.0000
# 6 0.0000 0.0000 0.0000 0.0000 0.0000 38.1109
#
#
#
# Elastic Compliance Matrix: (Units=1/GPa)
#
#
# Indices 1 2 3 4 5 6 
#
# 1 0.011423 -0.001707 -0.002283 0.000000 0.000000 0.000000
# 2 -0.001707 0.009854 -0.003155 0.000000 0.000000 0.000000
# 3 -0.002283 -0.003155 0.006572 0.000000 0.000000 0.000000
# 4 0.000000 0.000000 0.000000 -0.075189 0.000000 0.000000
# 5 0.000000 0.000000 0.000000 0.000000 0.016284 0.000000
# 6 0.000000 0.000000 0.000000 0.000000 0.000000 0.026239
#
#
# Mechanical properties :
#
#
# Convention : Reuss Voigt Hill
#
# Bulk Modulus (GPa) = 73.74729 85.13035 79.43882
# Shear Modulus (GPa) = 357.33016 35.83731 196.58374
#
# Velocity S-wave (km/s) = 12.48068 3.95249 9.25715
# Velocity P-wave (km/s) = 15.48670 7.61181 12.20200
#
# Compressibility (1/GPa) = 0.01355982
#
# Stress axis : x y z
#
# Youngs Moduli (GPa) = 87.53944 101.47774 152.17184
#
# Poissons Ratio (x) = 0.17318 0.34738
# Poissons Ratio (y) = 0.14939 0.48016
# Poissons Ratio (z) = 0.19983 0.32020
#
# Static dielectric constant tensor:
#      x y z
#    x 1.911150 0.000000 0.000000 
#    y 0.000000 2.018030 0.000000 
#    z 0.000000 0.000000 1.866330 
# 
# From -- ./inp_files/11576.got.cif
#   From: 2010.05.17/outbox.cif.g08.bks.cpg/sg41_6_cif.got.tgz:11576.got - 2010.06.03 18:54:24.
