data_PCOD9367312
_publ_section_title
;
Structure prediction by ZEFSAII (Michael W. Deem and Ramdas Pophale) SiO2 
 PCOD9367312
Probable space group: A B A 2
;
_chemical_formula_sum "Si O2"
_cell_formula_units_Z 32
_cell_length_a 10.654184
_cell_length_b 23.171656
_cell_length_c 4.968705
_cell_angle_alpha 90.000000
_cell_angle_beta 90.000000
_cell_angle_gamma 90.000000
_cell_volume 1226.649477
_symmetry_space_group_name_H-M "A B A 2"
_symmetry_group_IT_number 41
_symmetry_cell_setting 'orthorhombic'
loop_
_space_group_symop_operation_xyz
x,y,z
-x,-y,z
1/2-x,y,1/2+z
1/2+x,-y,1/2+z
x,1/2+y,1/2+z
-x,1/2-y,1/2+z
1/2-x,1/2+y,z
1/2+x,1/2-y,z
loop_
_atom_site_type_symbol
_atom_site_label
_atom_site_fract_x
_atom_site_fract_y
_atom_site_fract_z
Si Si1 0.013516 0.900609 0.235420
Si Si2 0.339126 0.826639 0.111470
Si Si3 0.840710 0.803149 0.015424
Si Si4 0.819070 0.997489 0.083986
O O1 0.060270 0.873635 0.516356
O O2 0.951551 0.847687 0.074283
O O3 0.907161 0.949354 0.215182
O O4 0.130439 0.938395 0.132811
O O5 0.221918 0.830465 0.903089
O O6 0.389471 0.761928 0.060494
O O7 0.726894 0.811086 0.229679
O O8 0.695235 0.990506 0.266016
#
# Coordination Sequence:
#
# PCOD9367312 Si02
#       4
#     8   8   8   8
#     4  11  24  42  72  96 130 181 222 268 340 405
#     4  10  23  41  62  94 132 167 212 268 322 389
#     4  10  23  41  62  94 132 167 212 268 322 389
#     4  11  26  45  66  98 134 171 224 283 330 390
#
# _framework density 26.087325
#
# number of rings (size 3 to 8) (size 9 to 14) (size 15 to 20)
#    0.000    1.500    0.000    3.000    0.000   16.000 
#    0.000    0.000    0.000    0.000    0.000    0.000 
#    0.000    0.000    0.000    0.000    0.000    0.000 
#
# Total GULP energy -89634.055452 kJ/mol
# GULP energy per Si atom -5602.128466 kJ/mol
# Density = 2.602795 g / cm^3
# Si number density = 26.087325 Si / 1000 Ang^3
#
#
#
# Elastic Constant Matrix: (Units=GPa)
#
#
# Indices 1 2 3 4 5 6 
#
# 1 57.5148 43.5080 20.6658 0.0000 0.0000 0.0000
# 2 43.5080 193.0218 26.9262 0.0000 0.0000 0.0000
# 3 20.6658 26.9262 88.7973 0.0000 0.0000 0.0000
# 4 0.0000 0.0000 0.0000 33.8676 0.0000 0.0000
# 5 0.0000 0.0000 0.0000 0.0000 33.3793 0.0000
# 6 0.0000 0.0000 0.0000 0.0000 0.0000 67.4314
#
#
#
# Elastic Compliance Matrix: (Units=1/GPa)
#
#
# Indices 1 2 3 4 5 6 
#
# 1 0.022123 -0.004457 -0.003797 0.000000 0.000000 0.000000
# 2 -0.004457 0.006307 -0.000875 0.000000 0.000000 0.000000
# 3 -0.003797 -0.000875 0.012411 0.000000 0.000000 0.000000
# 4 0.000000 0.000000 0.000000 0.029527 0.000000 0.000000
# 5 0.000000 0.000000 0.000000 0.000000 0.029959 0.000000
# 6 0.000000 0.000000 0.000000 0.000000 0.000000 0.014830
#
#
# Mechanical properties :
#
#
# Convention : Reuss Voigt Hill
#
# Bulk Modulus (GPa) = 44.28283 57.94820 51.11552
# Shear Modulus (GPa) = 35.47550 43.48459 39.48004
#
# Velocity S-wave (km/s) = 3.69165 4.08718 3.89444
# Velocity P-wave (km/s) = 5.93150 6.67344 6.31338
#
# Compressibility (1/GPa) = 0.02258212
#
# Stress axis : x y z
#
# Youngs Moduli (GPa) = 45.20257 158.54217 80.57529
#
# Poissons Ratio (x) = 0.70660 0.30596
# Poissons Ratio (y) = 0.20146 0.07053
# Poissons Ratio (z) = 0.17164 0.13879
#
# Static dielectric constant tensor:
#      x y z
#    x 2.107410 0.000000 0.000000 
#    y 0.000000 2.003060 0.000000 
#    z 0.000000 0.000000 1.998380 
# 
# From -- ./inp_files/82.got.cif
#   From: 2010.05.17/outbox.cif.g08.bks.cpg/sg41_1_cif.got.tgz:82.got - 2010.06.03 18:54:24.
