data_PCOD9367303
_publ_section_title
;
Structure prediction by ZEFSAII (Michael W. Deem and Ramdas Pophale) SiO2 
 PCOD9367303
Probable space group: A B A 2
;
_chemical_formula_sum "Si O2"
_cell_formula_units_Z 64
_cell_length_a 12.011256
_cell_length_b 15.469912
_cell_length_c 14.517369
_cell_angle_alpha 90.000000
_cell_angle_beta 90.000000
_cell_angle_gamma 90.000000
_cell_volume 2697.516951
_symmetry_space_group_name_H-M "A B A 2"
_symmetry_group_IT_number 41
_symmetry_cell_setting 'orthorhombic'
loop_
_space_group_symop_operation_xyz
x,y,z
-x,-y,z
1/2-x,y,1/2+z
1/2+x,-y,1/2+z
x,1/2+y,1/2+z
-x,1/2-y,1/2+z
1/2-x,1/2+y,z
1/2+x,1/2-y,z
loop_
_atom_site_type_symbol
_atom_site_label
_atom_site_fract_x
_atom_site_fract_y
_atom_site_fract_z
Si Si1 0.554647 0.636616 0.888030
Si Si2 0.180444 0.832826 0.168753
Si Si3 0.875546 0.535236 0.922781
Si Si4 0.462684 0.593203 0.084041
Si Si5 0.702395 0.012875 0.268456
Si Si6 0.125969 0.264915 0.855688
Si Si7 0.801669 0.426704 0.091573
Si Si8 0.287262 0.237773 0.999238
O O1 0.607012 0.566130 0.820838
O O2 0.484801 0.711152 0.838673
O O3 0.490296 0.596408 0.975197
O O4 0.649614 0.691892 0.938523
O O5 0.230143 0.923668 0.199773
O O6 0.186474 0.775404 0.259407
O O7 0.251176 0.790060 0.088400
O O8 0.052018 0.842838 0.133458
O O9 0.792218 0.491572 0.847812
O O10 0.883196 0.637782 0.897978
O O11 0.000000 0.500000 0.914457
O O12 0.827232 0.506712 0.022578
O O13 0.500000 0.500000 0.120315
O O14 0.330159 0.597570 0.097791
O O15 0.659196 0.941967 0.196302
O O16 0.191497 0.209358 0.930833
O O17 0.853997 0.343668 0.039192
#
# Coordination Sequence:
#
# PCOD9367303 Si02
#       8
#     8   8   8   8   8   8   8   8
#     4  11  23  47  70 101 145 193 241 305 367 456
#     4  10  23  40  68 101 139 185 244 304 364 445
#     4  11  25  47  71 102 148 190 243 310 383 451
#     4  11  22  40  70 100 136 184 242 295 374 443
#     4  11  24  43  72 104 138 187 245 311 361 436
#     4  11  23  44  71 101 139 197 244 300 376 452
#     4  12  25  44  72 106 144 191 242 313 376 452
#     4  11  23  45  66 103 143 185 247 297 379 446
#
# _framework density 23.725522999999999
#
# number of rings (size 3 to 8) (size 9 to 14) (size 15 to 20)
#    0.000    1.000    5.000    2.250    3.500    2.000 
#    9.000    0.000    0.000    0.000    0.000    0.000 
#    0.000    0.000    0.000    0.000    0.000    0.000 
#
# Total GULP energy -178737.762755 kJ/mol
# GULP energy per Si atom -5585.555086 kJ/mol
# Density = 2.367152 g / cm^3
# Si number density = 23.725523 Si / 1000 Ang^3
#
#
#
# Elastic Constant Matrix: (Units=GPa)
#
#
# Indices 1 2 3 4 5 6 
#
# 1 64.4684 24.4041 34.5178 0.0000 0.0000 0.0000
# 2 24.4041 69.8634 43.6099 0.0000 0.0000 0.0000
# 3 34.5178 43.6099 150.3878 0.0000 0.0000 0.0000
# 4 0.0000 0.0000 0.0000 28.6182 0.0000 0.0000
# 5 0.0000 0.0000 0.0000 0.0000 19.0788 0.0000
# 6 0.0000 0.0000 0.0000 0.0000 0.0000 29.6626
#
#
#
# Elastic Compliance Matrix: (Units=1/GPa)
#
#
# Indices 1 2 3 4 5 6 
#
# 1 0.018895 -0.004754 -0.002958 0.000000 0.000000 0.000000
# 2 -0.004754 0.018673 -0.004324 0.000000 0.000000 0.000000
# 3 -0.002958 -0.004324 0.008582 0.000000 0.000000 0.000000
# 4 0.000000 0.000000 0.000000 0.034943 0.000000 0.000000
# 5 0.000000 0.000000 0.000000 0.000000 0.052414 0.000000
# 6 0.000000 0.000000 0.000000 0.000000 0.000000 0.033712
#
#
# Mechanical properties :
#
#
# Convention : Reuss Voigt Hill
#
# Bulk Modulus (GPa) = 45.29228 54.42035 49.85632
# Shear Modulus (GPa) = 25.16978 27.61777 26.39377
#
# Velocity S-wave (km/s) = 3.26064 3.41552 3.33898
# Velocity P-wave (km/s) = 5.77124 6.20819 5.99370
#
# Compressibility (1/GPa) = 0.02207882
#
# Stress axis : x y z
#
# Youngs Moduli (GPa) = 52.92434 53.55289 116.51823
#
# Poissons Ratio (x) = 0.25457 0.34471
# Poissons Ratio (y) = 0.25158 0.50381
# Poissons Ratio (z) = 0.15657 0.23155
#
# Static dielectric constant tensor:
#      x y z
#    x 1.981670 0.000000 0.000000 
#    y 0.000000 2.011910 0.000000 
#    z 0.000000 0.000000 1.890510 
# 
# From -- ./inp_files/8125.got.cif
#   From: 2010.05.17/outbox.cif.g08.bks.cpg/sg41_5_cif.got.tgz:8125.got - 2010.06.03 18:54:24.
