data_PCOD9367709
_publ_section_title
;
Structure prediction by ZEFSAII (Michael W. Deem and Ramdas Pophale) SiO2 
 PCOD9367709
Probable space group: A B A 2
;
_chemical_formula_sum "Si O2"
_cell_formula_units_Z 48
_cell_length_a 8.292912
_cell_length_b 11.203927
_cell_length_c 23.843724
_cell_angle_alpha 90.000000
_cell_angle_beta 90.000000
_cell_angle_gamma 90.000000
_cell_volume 2215.396236
_symmetry_space_group_name_H-M "A B A 2"
_symmetry_group_IT_number 41
_symmetry_cell_setting 'orthorhombic'
loop_
_space_group_symop_operation_xyz
x,y,z
-x,-y,z
1/2-x,y,1/2+z
1/2+x,-y,1/2+z
x,1/2+y,1/2+z
-x,1/2-y,1/2+z
1/2-x,1/2+y,z
1/2+x,1/2-y,z
loop_
_atom_site_type_symbol
_atom_site_label
_atom_site_fract_x
_atom_site_fract_y
_atom_site_fract_z
Si Si1 0.098721 0.378639 0.422650
Si Si2 0.867246 0.819625 0.577054
Si Si3 0.618263 0.190842 0.993087
Si Si4 0.208472 0.870013 0.307511
Si Si5 0.924902 0.379828 0.640637
Si Si6 0.359849 0.130145 0.769993
O O1 0.255314 0.392039 0.461917
O O2 0.181731 0.356421 0.362659
O O3 0.000000 0.500000 0.420419
O O4 0.983132 0.275633 0.449794
O O5 0.732158 0.767763 0.534543
O O6 0.761293 0.886321 0.622569
O O7 0.994724 0.873143 0.534247
O O8 0.970450 0.724154 0.612657
O O9 0.257174 0.751260 0.273170
O O10 0.013492 0.863443 0.312212
O O11 0.231983 0.004770 0.282739
O O12 0.932560 0.374837 0.707595
O O13 0.000000 0.500000 0.618126
#
# Coordination Sequence:
#
# PCOD9367709 Si02
#       6
#     8   8   8   8   8   8
#     4  11  24  43  70  96 140 187 230 294 360 420
#     4   9  21  40  69  95 131 174 230 289 355 419
#     4   9  21  44  65  99 130 175 234 293 348 424
#     4  11  25  44  70 103 140 189 236 293 349 422
#     4  11  21  42  68  96 138 182 223 294 358 424
#     4  11  25  45  70 103 144 184 238 291 352 428
#
# _framework density 21.666551999999999
#
# number of rings (size 3 to 8) (size 9 to 14) (size 15 to 20)
#    0.000    1.667    1.667    2.000    4.667    6.000 
#    3.000    8.333    0.000    0.000    0.000    0.000 
#    0.000    0.000    0.000    0.000    0.000    0.000 
#
# Total GULP energy -133747.283688 kJ/mol
# GULP energy per Si atom -5572.803487 kJ/mol
# Density = 2.161724 g / cm^3
# Si number density = 21.666552 Si / 1000 Ang^3
#
#
#
# Elastic Constant Matrix: (Units=GPa)
#
#
# Indices 1 2 3 4 5 6 
#
# 1 103.7258 32.4475 26.4703 0.0000 0.0000 0.0000
# 2 32.4475 103.4070 18.5021 0.0000 0.0000 0.0000
# 3 26.4703 18.5021 85.5865 0.0000 0.0000 0.0000
# 4 0.0000 0.0000 0.0000 -129.5334 0.0000 0.0000
# 5 0.0000 0.0000 0.0000 0.0000 -26.5591 0.0000
# 6 0.0000 0.0000 0.0000 0.0000 0.0000 36.3468
#
#
#
# Elastic Compliance Matrix: (Units=1/GPa)
#
#
# Indices 1 2 3 4 5 6 
#
# 1 0.011318 -0.003043 -0.002843 0.000000 0.000000 0.000000
# 2 -0.003043 0.010878 -0.001410 0.000000 0.000000 0.000000
# 3 -0.002843 -0.001410 0.012868 0.000000 0.000000 0.000000
# 4 0.000000 0.000000 0.000000 -0.007720 0.000000 0.000000
# 5 0.000000 0.000000 0.000000 0.000000 -0.037652 0.000000
# 6 0.000000 0.000000 0.000000 0.000000 0.000000 0.027513
#
#
# Mechanical properties :
#
#
# Convention : Reuss Voigt Hill
#
# Bulk Modulus (GPa) = 48.84703 49.72877 49.28790
# Shear Modulus (GPa) = 129.46417 -9.59584 59.93416
#
# Velocity S-wave (km/s) = 7.73839 -2.10677 5.26518
# Velocity P-wave (km/s) = 10.12114 4.13324 7.73050
#
# Compressibility (1/GPa) = 0.02047207
#
# Stress axis : x y z
#
# Youngs Moduli (GPa) = 88.35412 91.93136 77.71104
#
# Poissons Ratio (x) = 0.27973 0.22091
# Poissons Ratio (y) = 0.26885 0.10961
# Poissons Ratio (z) = 0.25116 0.12967
#
# Static dielectric constant tensor:
#      x y z
#    x 1.854860 0.000000 0.000000 
#    y 0.000000 1.789960 0.000000 
#    z 0.000000 0.000000 1.838410 
# 
# From -- ./inp_files/11960.got.cif
#   From: 2010.05.17/outbox.cif.g08.bks.cpg/sg41_6_cif.got.tgz:11960.got - 2010.06.03 18:54:24.
