data_PCOD9367200
_publ_section_title
;
Structure prediction by ZEFSAII (Michael W. Deem and Ramdas Pophale) SiO2 
 PCOD9367200
Probable space group: A B A 2
;
_chemical_formula_sum "Si O2"
_cell_formula_units_Z 48
_cell_length_a 7.952673
_cell_length_b 21.847680
_cell_length_c 11.663144
_cell_angle_alpha 90.000000
_cell_angle_beta 90.000000
_cell_angle_gamma 90.000000
_cell_volume 2026.441586
_symmetry_space_group_name_H-M "A B A 2"
_symmetry_group_IT_number 41
_symmetry_cell_setting 'orthorhombic'
loop_
_space_group_symop_operation_xyz
x,y,z
-x,-y,z
1/2-x,y,1/2+z
1/2+x,-y,1/2+z
x,1/2+y,1/2+z
-x,1/2-y,1/2+z
1/2-x,1/2+y,z
1/2+x,1/2-y,z
loop_
_atom_site_type_symbol
_atom_site_label
_atom_site_fract_x
_atom_site_fract_y
_atom_site_fract_z
Si Si1 0.592663 0.845280 0.785360
Si Si2 0.083562 0.734670 0.332446
Si Si3 0.021852 0.432897 0.954672
Si Si4 0.970235 0.662642 0.540787
Si Si5 0.398123 0.346711 0.648613
Si Si6 0.600811 0.562721 0.860411
O O1 0.422672 0.807712 0.820311
O O2 0.742306 0.801510 0.825951
O O3 0.590512 0.910705 0.846794
O O4 0.590586 0.847407 0.648712
O O5 0.007689 0.718732 0.456500
O O6 0.980207 0.708147 0.222135
O O7 0.209787 0.440213 0.906093
O O8 0.000000 0.500000 0.007068
O O9 0.000166 0.378144 0.045193
O O10 0.782255 0.668260 0.592429
O O11 0.987055 0.605274 0.455734
O O12 0.388183 0.400888 0.741770
O O13 0.500000 0.500000 0.849574
#
# Coordination Sequence:
#
# PCOD9367200 Si02
#       6
#     8   8   8   8   8   8
#     4  12  27  46  70 108 143 191 242 303 373 433
#     4  11  28  43  75 103 143 188 244 302 372 436
#     4  11  26  43  67 105 146 190 236 293 357 437
#     4  10  24  46  69 103 141 184 240 297 362 432
#     4  10  22  47  71  99 141 186 243 294 361 419
#     4  10  22  43  72 101 140 188 237 290 353 425
#
# _framework density 23.686841999999999
#
# number of rings (size 3 to 8) (size 9 to 14) (size 15 to 20)
#    0.000    1.333    1.667    1.500   14.000    0.667 
#    0.000    0.000    0.000    0.000    0.000    0.000 
#    0.000    0.000    0.000    0.000    0.000    0.000 
#
# Total GULP energy -134223.399404 kJ/mol
# GULP energy per Si atom -5592.641642 kJ/mol
# Density = 2.363293 g / cm^3
# Si number density = 23.686842 Si / 1000 Ang^3
#
#
#
# Elastic Constant Matrix: (Units=GPa)
#
#
# Indices 1 2 3 4 5 6 
#
# 1 59.5167 8.2865 18.6805 0.0000 0.0000 0.0000
# 2 8.2865 62.2270 13.7522 0.0000 0.0000 0.0000
# 3 18.6805 13.7522 152.6093 0.0000 0.0000 0.0000
# 4 0.0000 0.0000 0.0000 -43.5044 0.0000 0.0000
# 5 0.0000 0.0000 0.0000 0.0000 38.0069 0.0000
# 6 0.0000 0.0000 0.0000 0.0000 0.0000 31.3608
#
#
#
# Elastic Compliance Matrix: (Units=1/GPa)
#
#
# Indices 1 2 3 4 5 6 
#
# 1 0.017694 -0.001916 -0.001993 0.000000 0.000000 0.000000
# 2 -0.001916 0.016604 -0.001262 0.000000 0.000000 0.000000
# 3 -0.001993 -0.001262 0.006910 0.000000 0.000000 0.000000
# 4 0.000000 0.000000 0.000000 -0.022986 0.000000 0.000000
# 5 0.000000 0.000000 0.000000 0.000000 0.026311 0.000000
# 6 0.000000 0.000000 0.000000 0.000000 0.000000 0.031887
#
#
# Mechanical properties :
#
#
# Convention : Reuss Voigt Hill
#
# Bulk Modulus (GPa) = 32.39675 39.53236 35.96456
# Shear Modulus (GPa) = 51.51907 20.74824 36.13365
#
# Velocity S-wave (km/s) = 4.66876 2.96284 3.90997
# Velocity P-wave (km/s) = 6.53987 5.33201 5.96658
#
# Compressibility (1/GPa) = 0.03086729
#
# Stress axis : x y z
#
# Youngs Moduli (GPa) = 56.51511 60.22588 144.70995
#
# Poissons Ratio (x) = 0.11538 0.28845
# Poissons Ratio (y) = 0.10827 0.18259
# Poissons Ratio (z) = 0.11265 0.07599
#
# Static dielectric constant tensor:
#      x y z
#    x 1.996540 0.000000 0.000000 
#    y 0.000000 1.871960 0.000000 
#    z 0.000000 0.000000 1.893300 
# 
# From -- ./inp_files/4515.got.cif
#   From: 2010.05.17/outbox.cif.g08.bks.cpg/sg41_3_cif.got.tgz:4515.got - 2010.06.03 18:54:24.
