data_PCOD9367068
_publ_section_title
;
Structure prediction by ZEFSAII (Michael W. Deem and Ramdas Pophale) SiO2 
 PCOD9367068
Probable space group: A B A 2
;
_chemical_formula_sum "Si O2"
_cell_formula_units_Z 56
_cell_length_a 12.811520
_cell_length_b 12.873120
_cell_length_c 14.159479
_cell_angle_alpha 90.000000
_cell_angle_beta 90.000000
_cell_angle_gamma 90.000000
_cell_volume 2335.241233
_symmetry_space_group_name_H-M "A B A 2"
_symmetry_group_IT_number 41
_symmetry_cell_setting 'orthorhombic'
loop_
_space_group_symop_operation_xyz
x,y,z
-x,-y,z
1/2-x,y,1/2+z
1/2+x,-y,1/2+z
x,1/2+y,1/2+z
-x,1/2-y,1/2+z
1/2-x,1/2+y,z
1/2+x,1/2-y,z
loop_
_atom_site_type_symbol
_atom_site_label
_atom_site_fract_x
_atom_site_fract_y
_atom_site_fract_z
Si Si1 0.711496 0.237691 0.685460
Si Si2 0.213691 0.385400 0.868905
Si Si3 0.800327 0.555709 0.561840
Si Si4 0.095307 0.655136 0.599282
Si Si5 0.905224 0.920874 0.310768
Si Si6 0.594294 0.942044 0.141692
Si Si7 0.501206 0.814807 0.969004
O O1 0.745337 0.192576 0.785919
O O2 0.656959 0.140405 0.634904
O O3 0.805447 0.268025 0.614816
O O4 0.643139 0.341747 0.693542
O O5 0.192190 0.500868 0.824121
O O6 0.106753 0.341744 0.915864
O O7 0.287557 0.398970 0.958071
O O8 0.869481 0.453805 0.557385
O O9 0.688686 0.515365 0.605559
O O10 0.074163 0.627696 0.708798
O O11 0.018412 0.710662 0.527216
O O12 0.911291 0.831569 0.389352
O O13 0.000000 0.000000 0.329184
O O14 0.500000 0.000000 0.195179
O O15 0.536463 0.895176 0.049749
#
# Coordination Sequence:
#
# PCOD9367068 Si02
#       7
#     8   8   8   8   8   8   8
#     4  11  25  39  68 104 136 182 232 296 354 422
#     4  11  21  42  66  95 135 181 233 272 367 417
#     4  11  22  44  65 100 142 184 234 296 352 426
#     4  11  24  41  68 100 139 175 241 296 349 417
#     4  10  22  40  66  95 134 184 230 280 351 434
#     4  11  21  42  71  94 134 189 236 285 355 426
#     4  11  22  40  68 100 129 185 236 284 349 432
#
# _framework density 23.980391999999998
#
# number of rings (size 3 to 8) (size 9 to 14) (size 15 to 20)
#    0.000    1.143    5.714    0.429    4.000    2.286 
#    0.000    0.000    0.000    0.857    0.000    0.000 
#    0.000    0.000    0.000    0.000    0.000    0.000 
#
# Total GULP energy -156530.779228 kJ/mol
# GULP energy per Si atom -5590.384972 kJ/mol
# Density = 2.392581 g / cm^3
# Si number density = 23.980392 Si / 1000 Ang^3
#
#
#
# Elastic Constant Matrix: (Units=GPa)
#
#
# Indices 1 2 3 4 5 6 
#
# 1 39.4096 42.8256 9.5908 0.0000 0.0000 0.0000
# 2 42.8256 147.4799 74.0225 0.0000 0.0000 0.0000
# 3 9.5908 74.0225 128.6810 0.0000 0.0000 0.0000
# 4 0.0000 0.0000 0.0000 56.1317 0.0000 0.0000
# 5 0.0000 0.0000 0.0000 0.0000 22.4355 0.0000
# 6 0.0000 0.0000 0.0000 0.0000 0.0000 25.5155
#
#
#
# Elastic Compliance Matrix: (Units=1/GPa)
#
#
# Indices 1 2 3 4 5 6 
#
# 1 0.039331 -0.013988 0.005115 0.000000 0.000000 0.000000
# 2 -0.013988 0.014508 -0.007303 0.000000 0.000000 0.000000
# 3 0.005115 -0.007303 0.011591 0.000000 0.000000 0.000000
# 4 0.000000 0.000000 0.000000 0.017815 0.000000 0.000000
# 5 0.000000 0.000000 0.000000 0.000000 0.044572 0.000000
# 6 0.000000 0.000000 0.000000 0.000000 0.000000 0.039192
#
#
# Mechanical properties :
#
#
# Convention : Reuss Voigt Hill
#
# Bulk Modulus (GPa) = 30.23222 63.16092 46.69657
# Shear Modulus (GPa) = 23.76573 33.42530 28.59552
#
# Velocity S-wave (km/s) = 3.15151 3.73749 3.45694
# Velocity P-wave (km/s) = 5.08695 6.70976 5.95391
#
# Compressibility (1/GPa) = 0.03307729
#
# Stress axis : x y z
#
# Youngs Moduli (GPa) = 25.42554 68.92702 86.27442
#
# Poissons Ratio (x) = 0.96418 -0.44132
# Poissons Ratio (y) = 0.35566 0.63007
# Poissons Ratio (z) = -0.13006 0.50338
#
# Static dielectric constant tensor:
#      x y z
#    x 1.986680 0.000000 0.000000 
#    y 0.000000 1.941920 0.000000 
#    z 0.000000 0.000000 1.877280 
# 
# From -- ./inp_files/8408.got.cif
#   From: 2010.05.17/outbox.cif.g08.bks.cpg/sg41_5_cif.got.tgz:8408.got - 2010.06.03 18:54:24.
