data_PCOD9367543
_publ_section_title
;
Structure prediction by ZEFSAII (Michael W. Deem and Ramdas Pophale) SiO2 
 PCOD9367543
Probable space group: A B A 2
;
_chemical_formula_sum "Si O2"
_cell_formula_units_Z 44
_cell_length_a 11.151428
_cell_length_b 17.962165
_cell_length_c 9.113840
_cell_angle_alpha 90.000000
_cell_angle_beta 90.000000
_cell_angle_gamma 90.000000
_cell_volume 1825.536691
_symmetry_space_group_name_H-M "A B A 2"
_symmetry_group_IT_number 41
_symmetry_cell_setting 'orthorhombic'
loop_
_space_group_symop_operation_xyz
x,y,z
-x,-y,z
1/2-x,y,1/2+z
1/2+x,-y,1/2+z
x,1/2+y,1/2+z
-x,1/2-y,1/2+z
1/2-x,1/2+y,z
1/2+x,1/2-y,z
loop_
_atom_site_type_symbol
_atom_site_label
_atom_site_fract_x
_atom_site_fract_y
_atom_site_fract_z
Si Si1 0.117996 0.427625 0.365760
Si Si2 0.867192 0.937528 0.045298
Si Si3 0.228408 0.709650 0.981046
Si Si4 0.500000 0.500000 0.599435
Si Si5 0.955176 0.890272 0.339706
Si Si6 0.190244 0.310969 0.762273
O O1 0.181755 0.486241 0.475254
O O2 0.192014 0.354899 0.320704
O O3 0.988132 0.418152 0.448228
O O4 0.099207 0.471093 0.213100
O O5 0.779008 0.868276 0.036955
O O6 0.895430 0.942476 0.217205
O O7 0.199427 0.767731 0.109383
O O8 0.120494 0.684351 0.874266
O O9 0.330071 0.747532 0.883020
O O10 0.530427 0.432521 0.492271
O O11 0.081093 0.867183 0.269817
#
# Coordination Sequence:
#
# PCOD9367543 Si02
#       6
#     8   8   8   4   8   8
#     4  10  25  50  79 110 151 193 251 315 372 449
#     4  10  24  49  76 108 150 197 248 305 374 448
#     4  12  28  46  76 108 150 202 245 310 374 461
#     4  10  24  44  76 112 142 192 246 314 360 452
#     4  12  27  46  75 111 150 196 255 304 385 441
#     4  12  28  48  76 109 152 195 247 313 378 451
#
# _framework density 24.102501
#
# number of rings (size 3 to 8) (size 9 to 14) (size 15 to 20)
#    0.000    1.091    1.818    3.273   12.727    0.000 
#    3.273    0.000    0.000    0.000    0.000    0.000 
#    0.000    0.000    0.000    0.000    0.000    0.000 
#
# Total GULP energy -123046.177585 kJ/mol
# GULP energy per Si atom -5593.008072 kJ/mol
# Density = 2.404764 g / cm^3
# Si number density = 24.102501 Si / 1000 Ang^3
#
#
#
# Elastic Constant Matrix: (Units=GPa)
#
#
# Indices 1 2 3 4 5 6 
#
# 1 58.8195 23.6021 24.4134 0.0000 0.0000 0.0000
# 2 23.6021 108.7796 49.4664 0.0000 0.0000 0.0000
# 3 24.4134 49.4664 178.7826 0.0000 0.0000 0.0000
# 4 0.0000 0.0000 0.0000 62.8140 0.0000 0.0000
# 5 0.0000 0.0000 0.0000 0.0000 13.8575 0.0000
# 6 0.0000 0.0000 0.0000 0.0000 0.0000 34.5655
#
#
#
# Elastic Compliance Matrix: (Units=1/GPa)
#
#
# Indices 1 2 3 4 5 6 
#
# 1 0.019047 -0.003375 -0.001667 0.000000 0.000000 0.000000
# 2 -0.003375 0.011114 -0.002614 0.000000 0.000000 0.000000
# 3 -0.001667 -0.002614 0.006544 0.000000 0.000000 0.000000
# 4 0.000000 0.000000 0.000000 0.015920 0.000000 0.000000
# 5 0.000000 0.000000 0.000000 0.000000 0.072163 0.000000
# 6 0.000000 0.000000 0.000000 0.000000 0.000000 0.028931
#
#
# Mechanical properties :
#
#
# Convention : Reuss Voigt Hill
#
# Bulk Modulus (GPa) = 46.74339 60.14951 53.44645
# Shear Modulus (GPa) = 28.38292 38.84073 33.61183
#
# Velocity S-wave (km/s) = 3.43533 4.01868 3.73840
# Velocity P-wave (km/s) = 5.93051 6.82224 6.39195
#
# Compressibility (1/GPa) = 0.02139340
#
# Stress axis : x y z
#
# Youngs Moduli (GPa) = 52.50099 89.97758 152.80292
#
# Poissons Ratio (x) = 0.30363 0.25477
# Poissons Ratio (y) = 0.17717 0.39946
# Poissons Ratio (z) = 0.08753 0.23522
#
# Static dielectric constant tensor:
#      x y z
#    x 1.995800 0.000000 0.000000 
#    y 0.000000 1.961220 0.000000 
#    z 0.000000 0.000000 1.875330 
# 
# From -- ./inp_files/2485.got.cif
#   From: 2010.05.17/outbox.cif.g08.bks.cpg/sg41_2_cif.got.tgz:2485.got - 2010.06.03 18:54:24.
