data_PCOD9367833
_publ_section_title
;
Structure prediction by ZEFSAII (Michael W. Deem and Ramdas Pophale) SiO2 
 PCOD9367833
Probable space group: A B A 2
;
_chemical_formula_sum "Si O2"
_cell_formula_units_Z 48
_cell_length_a 9.531240
_cell_length_b 18.233429
_cell_length_c 11.079628
_cell_angle_alpha 90.000000
_cell_angle_beta 90.000000
_cell_angle_gamma 90.000000
_cell_volume 1925.497392
_symmetry_space_group_name_H-M "A B A 2"
_symmetry_group_IT_number 41
_symmetry_cell_setting 'orthorhombic'
loop_
_space_group_symop_operation_xyz
x,y,z
-x,-y,z
1/2-x,y,1/2+z
1/2+x,-y,1/2+z
x,1/2+y,1/2+z
-x,1/2-y,1/2+z
1/2-x,1/2+y,z
1/2+x,1/2-y,z
loop_
_atom_site_type_symbol
_atom_site_label
_atom_site_fract_x
_atom_site_fract_y
_atom_site_fract_z
Si Si1 0.575826 0.645324 0.734100
Si Si2 0.046229 0.604570 0.975295
Si Si3 0.793882 0.497829 0.554741
Si Si4 0.026686 0.747622 0.437401
Si Si5 0.786852 0.674248 0.564959
Si Si6 0.000000 0.500000 0.357737
Si Si7 0.000000 0.000000 0.271478
O O1 0.516051 0.634290 0.600694
O O2 0.484153 0.695231 0.821517
O O3 0.727831 0.678906 0.701584
O O4 0.577433 0.562828 0.784254
O O5 0.151835 0.544489 0.029351
O O6 0.076013 0.682656 0.914163
O O7 0.967905 0.565093 0.864444
O O8 0.786284 0.586115 0.538505
O O9 0.890366 0.464571 0.449348
O O10 0.869792 0.483975 0.682541
O O11 0.943703 0.702373 0.541778
O O12 0.178393 0.778966 0.479833
#
# Coordination Sequence:
#
# PCOD9367833 Si02
#       7
#     8   8   8   8   8   4   4
#     4  11  25  47  75 106 157 206 265 329 396 476
#     4  11  26  47  75 115 148 207 269 318 407 482
#     4  11  26  47  79 112 157 206 267 338 405 477
#     4  11  27  47  74 109 166 205 266 324 406 482
#     4  11  26  48  73 114 157 212 268 325 407 480
#     4  11  23  46  76 114 151 209 262 326 408 467
#     4  11  27  46  76 116 159 203 270 342 400 483
#
# _framework density 24.928622000000001
#
# number of rings (size 3 to 8) (size 9 to 14) (size 15 to 20)
#    0.000    1.000    1.667    3.500    7.000    9.333 
#    0.000    0.000    0.000    0.000    0.000    0.000 
#    0.000    0.000    0.000    0.000    0.000    0.000 
#
# Total GULP energy -133857.790654 kJ/mol
# GULP energy per Si atom -5577.407944 kJ/mol
# Density = 2.487188 g / cm^3
# Si number density = 24.928622 Si / 1000 Ang^3
#
#
#
# Elastic Constant Matrix: (Units=GPa)
#
#
# Indices 1 2 3 4 5 6 
#
# 1 60.5078 11.6733 32.9760 0.0000 0.0000 0.0000
# 2 11.6733 104.0728 32.3316 0.0000 0.0000 0.0000
# 3 32.9760 32.3316 143.9644 0.0000 0.0000 0.0000
# 4 0.0000 0.0000 0.0000 -17.5792 0.0000 0.0000
# 5 0.0000 0.0000 0.0000 0.0000 26.2032 0.0000
# 6 0.0000 0.0000 0.0000 0.0000 0.0000 42.4585
#
#
#
# Elastic Compliance Matrix: (Units=1/GPa)
#
#
# Indices 1 2 3 4 5 6 
#
# 1 0.018951 -0.000835 -0.004153 0.000000 0.000000 0.000000
# 2 -0.000835 0.010366 -0.002137 0.000000 0.000000 0.000000
# 3 -0.004153 -0.002137 0.008377 0.000000 0.000000 0.000000
# 4 0.000000 0.000000 0.000000 -0.056885 0.000000 0.000000
# 5 0.000000 0.000000 0.000000 0.000000 0.038163 0.000000
# 6 0.000000 0.000000 0.000000 0.000000 0.000000 0.023552
#
#
# Mechanical properties :
#
#
# Convention : Reuss Voigt Hill
#
# Bulk Modulus (GPa) = 42.65458 51.38965 47.02212
# Shear Modulus (GPa) = 77.41016 25.65409 51.53213
#
# Velocity S-wave (km/s) = 5.57854 3.21144 4.55157
# Velocity P-wave (km/s) = 7.65776 5.86606 6.82100
#
# Compressibility (1/GPa) = 0.02344414
#
# Stress axis : x y z
#
# Youngs Moduli (GPa) = 52.76634 96.46781 119.36915
#
# Poissons Ratio (x) = 0.08059 0.49578
# Poissons Ratio (y) = 0.04408 0.25505
# Poissons Ratio (z) = 0.21916 0.20612
#
# Static dielectric constant tensor:
#      x y z
#    x 2.356940 0.000000 0.000000 
#    y 0.000000 2.147750 0.000000 
#    z 0.000000 0.000000 1.980980 
# 
# From -- ./inp_files/4993.got.cif
#   From: 2010.05.17/outbox.cif.g08.bks.cpg/sg41_3_cif.got.tgz:4993.got - 2010.06.03 18:54:24.
