data_PCOD9367721
_publ_section_title
;
Structure prediction by ZEFSAII (Michael W. Deem and Ramdas Pophale) SiO2 
 PCOD9367721
Probable space group: A B A 2
;
_chemical_formula_sum "Si O2"
_cell_formula_units_Z 48
_cell_length_a 10.528981
_cell_length_b 23.571802
_cell_length_c 7.800475
_cell_angle_alpha 90.000000
_cell_angle_beta 90.000000
_cell_angle_gamma 90.000000
_cell_volume 1935.976921
_symmetry_space_group_name_H-M "A B A 2"
_symmetry_group_IT_number 41
_symmetry_cell_setting 'orthorhombic'
loop_
_space_group_symop_operation_xyz
x,y,z
-x,-y,z
1/2-x,y,1/2+z
1/2+x,-y,1/2+z
x,1/2+y,1/2+z
-x,1/2-y,1/2+z
1/2-x,1/2+y,z
1/2+x,1/2-y,z
loop_
_atom_site_type_symbol
_atom_site_label
_atom_site_fract_x
_atom_site_fract_y
_atom_site_fract_z
Si Si1 0.351368 0.633750 0.227720
Si Si2 0.583583 0.336849 0.611152
Si Si3 0.866303 0.025367 0.361916
Si Si4 0.084987 0.295092 0.666641
Si Si5 0.826308 0.649832 0.008281
Si Si6 0.122082 0.521336 0.506206
O O1 0.393925 0.633800 0.425912
O O2 0.200126 0.642075 0.225413
O O3 0.439530 0.684091 0.150846
O O4 0.384364 0.579900 0.110155
O O5 0.598749 0.269139 0.606769
O O6 0.436288 0.348463 0.654898
O O7 0.834632 0.087212 0.430103
O O8 0.872866 0.025612 0.157169
O O9 0.751446 0.983455 0.404981
O O10 0.000000 0.000000 0.425778
O O11 0.187343 0.333281 0.567729
O O12 0.126816 0.305104 0.864522
O O13 0.000000 0.500000 0.400116
#
# Coordination Sequence:
#
# PCOD9367721 Si02
#       6
#     8   8   8   8   8   8
#     4  11  23  41  61  89 122 159 202 252 304 364
#     4  11  23  40  62  89 121 160 202 250 304 362
#     4  11  22  40  62  88 121 160 202 251 304 362
#     4  11  23  40  62  89 121 160 202 250 304 362
#     4  11  23  41  61  89 122 159 202 252 304 364
#     4  11  22  40  62  88 121 160 202 251 304 362
#
# _framework density 24.793685
#
# number of rings (size 3 to 8) (size 9 to 14) (size 15 to 20)
#    0.000    1.000    0.000   10.000    0.000    4.667 
#    0.000    6.667    0.000    0.000    0.000    0.000 
#    0.000    0.000    0.000    0.000    0.000    0.000 
#
# Total GULP energy -134308.967083 kJ/mol
# GULP energy per Si atom -5596.206962 kJ/mol
# Density = 2.473725 g / cm^3
# Si number density = 24.793685 Si / 1000 Ang^3
#
#
#
# Elastic Constant Matrix: (Units=GPa)
#
#
# Indices 1 2 3 4 5 6 
#
# 1 71.1325 3.5536 31.8712 0.0000 0.0000 0.0000
# 2 3.5536 94.0639 0.3290 0.0000 0.0000 0.0000
# 3 31.8712 0.3290 31.9748 0.0000 0.0000 0.0000
# 4 0.0000 0.0000 0.0000 12.5497 0.0000 0.0000
# 5 0.0000 0.0000 0.0000 0.0000 38.9776 0.0000
# 6 0.0000 0.0000 0.0000 0.0000 0.0000 31.3301
#
#
#
# Elastic Compliance Matrix: (Units=1/GPa)
#
#
# Indices 1 2 3 4 5 6 
#
# 1 0.025475 -0.000874 -0.025383 0.000000 0.000000 0.000000
# 2 -0.000874 0.010661 0.000761 0.000000 0.000000 0.000000
# 3 -0.025383 0.000761 0.056568 0.000000 0.000000 0.000000
# 4 0.000000 0.000000 0.000000 0.079683 0.000000 0.000000
# 5 0.000000 0.000000 0.000000 0.000000 0.025656 0.000000
# 6 0.000000 0.000000 0.000000 0.000000 0.000000 0.031918
#
#
# Mechanical properties :
#
#
# Convention : Reuss Voigt Hill
#
# Bulk Modulus (GPa) = 23.97371 29.85321 26.91346
# Shear Modulus (GPa) = 16.95733 27.33263 22.14498
#
# Velocity S-wave (km/s) = 2.61806 3.32385 2.99184
# Velocity P-wave (km/s) = 4.33927 5.17662 4.77633
#
# Compressibility (1/GPa) = 0.04171236
#
# Stress axis : x y z
#
# Youngs Moduli (GPa) = 39.25406 93.79618 17.67786
#
# Poissons Ratio (x) = 0.08194 0.44873
# Poissons Ratio (y) = 0.03429 -0.01345
# Poissons Ratio (z) = 0.99641 -0.07139
#
# Static dielectric constant tensor:
#      x y z
#    x 2.065440 0.000000 0.000000 
#    y 0.000000 1.934670 0.000000 
#    z 0.000000 0.000000 1.977950 
# 
# From -- ./inp_files/2094.got.cif
#   From: 2010.05.17/outbox.cif.g08.bks.cpg/sg41_2_cif.got.tgz:2094.got - 2010.06.03 18:54:24.
