data_PCOD9367292
_publ_section_title
;
Structure prediction by ZEFSAII (Michael W. Deem and Ramdas Pophale) SiO2 
 PCOD9367292
Probable space group: A B A 2
;
_chemical_formula_sum "Si O2"
_cell_formula_units_Z 48
_cell_length_a 10.345540
_cell_length_b 8.401318
_cell_length_c 23.736207
_cell_angle_alpha 90.000000
_cell_angle_beta 90.000000
_cell_angle_gamma 90.000000
_cell_volume 2063.060237
_symmetry_space_group_name_H-M "A B A 2"
_symmetry_group_IT_number 41
_symmetry_cell_setting 'orthorhombic'
loop_
_space_group_symop_operation_xyz
x,y,z
-x,-y,z
1/2-x,y,1/2+z
1/2+x,-y,1/2+z
x,1/2+y,1/2+z
-x,1/2-y,1/2+z
1/2-x,1/2+y,z
1/2+x,1/2-y,z
loop_
_atom_site_type_symbol
_atom_site_label
_atom_site_fract_x
_atom_site_fract_y
_atom_site_fract_z
Si Si1 0.657754 0.198221 0.832310
Si Si2 0.430160 0.337339 0.894596
Si Si3 0.611332 0.122428 0.527258
Si Si4 0.662514 0.433487 0.590303
Si Si5 0.797069 0.431586 0.753279
Si Si6 0.324078 0.805820 0.171210
O O1 0.544207 0.219027 0.877163
O O2 0.797584 0.194742 0.862441
O O3 0.679983 0.333011 0.783364
O O4 0.639893 0.030865 0.802219
O O5 0.500000 0.500000 0.876094
O O6 0.397007 0.355976 0.960239
O O7 0.594353 0.299156 0.552556
O O8 0.500000 0.000000 0.545762
O O9 0.739561 0.032146 0.549351
O O10 0.736387 0.315220 0.634620
O O11 0.605621 0.581529 0.626680
O O12 0.886440 0.309018 0.718151
O O13 0.750223 0.565937 0.709576
#
# Coordination Sequence:
#
# PCOD9367292 Si02
#       6
#     8   8   8   8   8   8
#     4  11  22  42  69  98 144 182 233 288 353 412
#     4  11  25  43  67 102 139 186 237 297 345 430
#     4  10  23  39  66  95 138 176 238 288 358 416
#     4   9  18  39  69  94 137 180 223 299 350 423
#     4   9  18  35  69  99 135 181 228 289 349 426
#     4   8  16  35  69  96 135 177 228 289 350 429
#
# _framework density 23.266406
#
# number of rings (size 3 to 8) (size 9 to 14) (size 15 to 20)
#    0.000    2.333    1.667    0.000    4.667    0.667 
#    0.000    3.333  102.667    0.000    0.000    0.000 
#    0.000    0.000    0.000    0.000    0.000    0.000 
#
# Total GULP energy -133719.173399 kJ/mol
# GULP energy per Si atom -5571.632225 kJ/mol
# Density = 2.321345 g / cm^3
# Si number density = 23.266406 Si / 1000 Ang^3
#
#
#
# Elastic Constant Matrix: (Units=GPa)
#
#
# Indices 1 2 3 4 5 6 
#
# 1 91.5773 30.9651 52.8491 0.0000 0.0000 0.0000
# 2 30.9651 149.7178 59.8795 0.0000 0.0000 0.0000
# 3 52.8491 59.8795 101.2702 0.0000 0.0000 0.0000
# 4 0.0000 0.0000 0.0000 41.7848 0.0000 0.0000
# 5 0.0000 0.0000 0.0000 0.0000 -58.0675 0.0000
# 6 0.0000 0.0000 0.0000 0.0000 0.0000 -213.9508
#
#
#
# Elastic Compliance Matrix: (Units=1/GPa)
#
#
# Indices 1 2 3 4 5 6 
#
# 1 0.015626 0.000039 -0.008177 0.000000 0.000000 0.000000
# 2 0.000039 0.008748 -0.005193 0.000000 0.000000 0.000000
# 3 -0.008177 -0.005193 0.017213 0.000000 0.000000 0.000000
# 4 0.000000 0.000000 0.000000 0.023932 0.000000 0.000000
# 5 0.000000 0.000000 0.000000 0.000000 -0.017221 0.000000
# 6 0.000000 0.000000 0.000000 0.000000 0.000000 -0.004674
#
#
# Mechanical properties :
#
#
# Convention : Reuss Voigt Hill
#
# Bulk Modulus (GPa) = 67.00888 69.99473 68.50181
# Shear Modulus (GPa) = 66.43564 -32.78859 16.82353
#
# Velocity S-wave (km/s) = 5.34942 -3.75809 2.69194
# Velocity P-wave (km/s) = 8.18647 3.36427 6.25846
#
# Compressibility (1/GPa) = 0.01492340
#
# Stress axis : x y z
#
# Youngs Moduli (GPa) = 63.99660 114.31072 58.09721
#
# Poissons Ratio (x) = -0.00443 0.47509
# Poissons Ratio (y) = -0.00248 0.30169
# Poissons Ratio (z) = 0.52333 0.59360
#
# Static dielectric constant tensor:
#      x y z
#    x 2.018920 0.000000 0.000000 
#    y 0.000000 2.008610 0.000000 
#    z 0.000000 0.000000 1.906390 
# 
# From -- ./inp_files/12113.got.cif
#   From: 2010.05.17/outbox.cif.g08.bks.cpg/sg41_7_cif.got.tgz:12113.got - 2010.06.03 18:54:24.
