data_PCOD9367425
_publ_section_title
;
Structure prediction by ZEFSAII (Michael W. Deem and Ramdas Pophale) SiO2 
 PCOD9367425
Probable space group: A B A 2
;
_chemical_formula_sum "Si O2"
_cell_formula_units_Z 48
_cell_length_a 13.532121
_cell_length_b 16.638065
_cell_length_c 9.493580
_cell_angle_alpha 90.000000
_cell_angle_beta 90.000000
_cell_angle_gamma 90.000000
_cell_volume 2137.463481
_symmetry_space_group_name_H-M "A B A 2"
_symmetry_group_IT_number 41
_symmetry_cell_setting 'orthorhombic'
loop_
_space_group_symop_operation_xyz
x,y,z
-x,-y,z
1/2-x,y,1/2+z
1/2+x,-y,1/2+z
x,1/2+y,1/2+z
-x,1/2-y,1/2+z
1/2-x,1/2+y,z
1/2+x,1/2-y,z
loop_
_atom_site_type_symbol
_atom_site_label
_atom_site_fract_x
_atom_site_fract_y
_atom_site_fract_z
Si Si1 0.289969 0.895330 0.653750
Si Si2 0.149029 0.829569 0.429186
Si Si3 0.882016 0.345340 0.297523
Si Si4 0.322505 0.569755 0.251433
Si Si5 0.543970 0.418984 0.518116
Si Si6 0.992581 0.404590 0.558151
O O1 0.207134 0.845258 0.573263
O O2 0.282947 0.874504 0.816784
O O3 0.400000 0.871225 0.599473
O O4 0.288178 0.992740 0.657679
O O5 0.130596 0.742259 0.365031
O O6 0.044392 0.872912 0.441551
O O7 0.774711 0.385345 0.300766
O O8 0.914151 0.358890 0.135887
O O9 0.961279 0.388136 0.398937
O O10 0.381845 0.551470 0.395559
O O11 0.399787 0.620720 0.156230
O O12 0.500000 0.500000 0.587195
O O13 0.000000 0.500000 0.584766
#
# Coordination Sequence:
#
# PCOD9367425 Si02
#       6
#     8   8   8   8   8   8
#     4  11  26  49  71 103 143 195 246 299 369 450
#     4  12  29  45  74 107 150 193 243 314 378 455
#     4  12  29  41  76 110 147 188 241 315 375 450
#     4  11  23  47  76 104 144 191 247 300 369 444
#     4  12  24  50  77 111 147 199 256 305 378 453
#     4  10  23  46  70 101 138 185 236 294 363 438
#
# _framework density 22.456524999999999
#
# number of rings (size 3 to 8) (size 9 to 14) (size 15 to 20)
#    0.000    0.667    3.333    3.000   14.000    0.000 
#    0.000    0.000    0.000    0.000    0.000    0.000 
#    0.000    0.000    0.000    0.000    0.000    0.000 
#
# Total GULP energy -134105.195656 kJ/mol
# GULP energy per Si atom -5587.716486 kJ/mol
# Density = 2.240541 g / cm^3
# Si number density = 22.456525 Si / 1000 Ang^3
#
#
#
# Elastic Constant Matrix: (Units=GPa)
#
#
# Indices 1 2 3 4 5 6 
#
# 1 54.0841 49.0245 19.9405 0.0000 0.0000 0.0000
# 2 49.0245 93.6932 17.3982 0.0000 0.0000 0.0000
# 3 19.9405 17.3982 86.9000 0.0000 0.0000 0.0000
# 4 0.0000 0.0000 0.0000 29.6370 0.0000 0.0000
# 5 0.0000 0.0000 0.0000 0.0000 92.0338 0.0000
# 6 0.0000 0.0000 0.0000 0.0000 0.0000 6.1328
#
#
#
# Elastic Compliance Matrix: (Units=1/GPa)
#
#
# Indices 1 2 3 4 5 6 
#
# 1 0.036998 -0.018469 -0.004792 0.000000 0.000000 0.000000
# 2 -0.018469 0.020305 0.000173 0.000000 0.000000 0.000000
# 3 -0.004792 0.000173 0.012572 0.000000 0.000000 0.000000
# 4 0.000000 0.000000 0.000000 0.033742 0.000000 0.000000
# 5 0.000000 0.000000 0.000000 0.000000 0.010866 0.000000
# 6 0.000000 0.000000 0.000000 0.000000 0.000000 0.163057
#
#
# Mechanical properties :
#
#
# Convention : Reuss Voigt Hill
#
# Bulk Modulus (GPa) = 42.19668 45.26709 43.73188
# Shear Modulus (GPa) = 15.07769 35.44833 25.26301
#
# Velocity S-wave (km/s) = 2.59398 3.97738 3.35770
# Velocity P-wave (km/s) = 5.27284 6.42606 5.87780
#
# Compressibility (1/GPa) = 0.02369855
#
# Stress axis : x y z
#
# Youngs Moduli (GPa) = 27.02861 49.24919 79.53876
#
# Poissons Ratio (x) = 0.90959 0.38115
# Poissons Ratio (y) = 0.49919 -0.01374
# Poissons Ratio (z) = 0.12952 -0.00851
#
# Static dielectric constant tensor:
#      x y z
#    x 1.047260 0.000000 0.000000 
#    y 0.000000 1.853570 0.000000 
#    z 0.000000 0.000000 1.837290 
# 
# From -- ./inp_files/2538.got.cif
#   From: 2010.05.17/outbox.cif.g08.bks.cpg/sg41_2_cif.got.tgz:2538.got - 2010.06.03 18:54:24.
