data_PCOD9367524
_publ_section_title
;
Structure prediction by ZEFSAII (Michael W. Deem and Ramdas Pophale) SiO2 
 PCOD9367524
Probable space group: A B A 2
;
_chemical_formula_sum "Si O2"
_cell_formula_units_Z 60
_cell_length_a 8.695962
_cell_length_b 12.421356
_cell_length_c 26.847569
_cell_angle_alpha 90.000000
_cell_angle_beta 90.000000
_cell_angle_gamma 90.000000
_cell_volume 2899.957342
_symmetry_space_group_name_H-M "A B A 2"
_symmetry_group_IT_number 41
_symmetry_cell_setting 'orthorhombic'
loop_
_space_group_symop_operation_xyz
x,y,z
-x,-y,z
1/2-x,y,1/2+z
1/2+x,-y,1/2+z
x,1/2+y,1/2+z
-x,1/2-y,1/2+z
1/2-x,1/2+y,z
1/2+x,1/2-y,z
loop_
_atom_site_type_symbol
_atom_site_label
_atom_site_fract_x
_atom_site_fract_y
_atom_site_fract_z
Si Si1 0.533222 0.121015 0.987020
Si Si2 0.978222 0.379521 0.737928
Si Si3 0.948524 0.158068 0.124528
Si Si4 0.641167 0.168703 0.464333
Si Si5 0.000000 0.500000 0.540904
Si Si6 0.488959 0.373778 0.856303
Si Si7 0.233497 0.246461 0.795809
Si Si8 0.084994 0.388868 0.104627
O O1 0.677539 0.164682 0.956483
O O2 0.403289 0.212595 0.984102
O O3 0.500000 0.000000 0.969233
O O4 0.580817 0.110736 0.044676
O O5 0.820333 0.333262 0.758612
O O6 0.000000 0.500000 0.755509
O O7 0.992093 0.375194 0.678591
O O8 0.112015 0.310230 0.762841
O O9 0.765634 0.128112 0.119593
O O10 0.984955 0.284756 0.120003
O O11 0.042711 0.093999 0.081038
O O12 0.551660 0.147926 0.413522
O O13 0.602514 0.071838 0.503196
O O14 0.500000 0.500000 0.848159
O O15 0.356079 0.324038 0.821753
O O16 0.645261 0.317499 0.838905
O O17 0.000000 0.500000 0.121419
#
# Coordination Sequence:
#
# PCOD9367524 Si02
#       8
#     8   8   8   8   4   8   8   8
#     4  11  25  41  63  93 136 183 234 276 327 396
#     4  11  23  43  69  95 130 169 215 274 339 396
#     4  12  25  42  68  98 136 183 225 276 343 407
#     4  12  25  42  68  98 136 183 225 276 343 407
#     4  12  24  40  68  96 142 182 220 278 326 406
#     4  11  23  43  69  95 130 169 215 274 339 396
#     4  10  24  44  66  98 126 164 222 280 328 396
#     4  11  25  41  63  93 136 183 234 276 327 396
#
# _framework density 20.689959000000002
#
# number of rings (size 3 to 8) (size 9 to 14) (size 15 to 20)
#    0.000    0.800    4.000    2.400    3.733    2.133 
#    0.000    6.667    0.000    0.000    0.000    0.000 
#    0.000    0.000    0.000    0.000    0.000    0.000 
#
# Total GULP energy -167558.376597 kJ/mol
# GULP energy per Si atom -5585.279220 kJ/mol
# Density = 2.064287 g / cm^3
# Si number density = 20.689959 Si / 1000 Ang^3
#
#
#
# Elastic Constant Matrix: (Units=GPa)
#
#
# Indices 1 2 3 4 5 6 
#
# 1 100.2791 45.2159 24.6389 0.0000 0.0000 0.0000
# 2 45.2159 127.8934 10.2739 0.0000 0.0000 0.0000
# 3 24.6389 10.2739 92.1866 0.0000 0.0000 0.0000
# 4 0.0000 0.0000 0.0000 76.2833 0.0000 0.0000
# 5 0.0000 0.0000 0.0000 0.0000 33.6945 0.0000
# 6 0.0000 0.0000 0.0000 0.0000 0.0000 12.2410
#
#
#
# Elastic Compliance Matrix: (Units=1/GPa)
#
#
# Indices 1 2 3 4 5 6 
#
# 1 0.012584 -0.004217 -0.002894 0.000000 0.000000 0.000000
# 2 -0.004217 0.009303 0.000090 0.000000 0.000000 0.000000
# 3 -0.002894 0.000090 0.011611 0.000000 0.000000 0.000000
# 4 0.000000 0.000000 0.000000 0.013109 0.000000 0.000000
# 5 0.000000 0.000000 0.000000 0.000000 0.029678 0.000000
# 6 0.000000 0.000000 0.000000 0.000000 0.000000 0.081693
#
#
# Mechanical properties :
#
#
# Convention : Reuss Voigt Hill
#
# Bulk Modulus (GPa) = 51.39299 53.40186 52.39742
# Shear Modulus (GPa) = 28.01058 40.45911 34.23484
#
# Velocity S-wave (km/s) = 3.68343 4.42690 4.07216
# Velocity P-wave (km/s) = 6.55619 7.21085 6.89130
#
# Compressibility (1/GPa) = 0.01945791
#
# Stress axis : x y z
#
# Youngs Moduli (GPa) = 79.46329 107.49735 86.12624
#
# Poissons Ratio (x) = 0.45328 0.24921
# Poissons Ratio (y) = 0.33507 -0.00777
# Poissons Ratio (z) = 0.22993 -0.00970
#
# Static dielectric constant tensor:
#      x y z
#    x 1.740720 0.000000 0.000000 
#    y 0.000000 1.748460 0.000000 
#    z 0.000000 0.000000 1.710830 
# 
# From -- ./inp_files/12453.got.cif
#   From: 2010.05.17/outbox.cif.g08.bks.cpg/sg41_7_cif.got.tgz:12453.got - 2010.06.03 18:54:24.
