data_PCOD9367261
_publ_section_title
;
Structure prediction by ZEFSAII (Michael W. Deem and Ramdas Pophale) SiO2 
 PCOD9367261
Probable space group: A B A 2
;
_chemical_formula_sum "Si O2"
_cell_formula_units_Z 52
_cell_length_a 14.165416
_cell_length_b 18.949308
_cell_length_c 9.416464
_cell_angle_alpha 90.000000
_cell_angle_beta 90.000000
_cell_angle_gamma 90.000000
_cell_volume 2527.612755
_symmetry_space_group_name_H-M "A B A 2"
_symmetry_group_IT_number 41
_symmetry_cell_setting 'orthorhombic'
loop_
_space_group_symop_operation_xyz
x,y,z
-x,-y,z
1/2-x,y,1/2+z
1/2+x,-y,1/2+z
x,1/2+y,1/2+z
-x,1/2-y,1/2+z
1/2-x,1/2+y,z
1/2+x,1/2-y,z
loop_
_atom_site_type_symbol
_atom_site_label
_atom_site_fract_x
_atom_site_fract_y
_atom_site_fract_z
Si Si1 0.685841 0.470064 0.220760
Si Si2 0.500000 0.000000 0.549559
Si Si3 0.122651 0.229301 0.524390
Si Si4 0.080162 0.321438 0.094479
Si Si5 0.703586 0.802586 0.712026
Si Si6 0.089555 0.376636 0.413369
Si Si7 0.788454 0.054133 0.493428
O O1 0.590992 0.495736 0.146292
O O2 0.693182 0.386608 0.198215
O O3 0.767885 0.513949 0.140811
O O4 0.681324 0.494328 0.382726
O O5 0.508813 0.068764 0.453620
O O6 0.191419 0.215672 0.656988
O O7 0.178733 0.215056 0.376514
O O8 0.092483 0.310831 0.519547
O O9 0.024443 0.187192 0.532099
O O10 0.135124 0.246537 0.114083
O O11 0.074502 0.349264 0.255506
O O12 0.140945 0.380103 0.011079
O O13 0.190613 0.413899 0.433812
#
# Coordination Sequence:
#
# PCOD9367261 Si02
#       7
#     8   4   8   8   8   8   8
#     4  11  24  42  67 100 136 177 226 293 341 409
#     4  10  24  40  70  94 138 174 232 274 354 414
#     4  11  25  42  74  99 139 179 236 284 350 412
#     4  11  24  45  73  99 139 187 238 280 354 426
#     4  11  25  46  66 105 138 179 229 295 343 411
#     4  10  22  46  66 104 131 189 219 294 342 415
#     4  11  22  44  71  94 139 182 227 285 353 415
#
# _framework density 20.572772000000001
#
# number of rings (size 3 to 8) (size 9 to 14) (size 15 to 20)
#    0.000    1.231    3.077    1.846    2.154    6.154 
#    5.538    0.000    0.000    0.000    0.000    0.000 
#    0.000    0.000    0.000    0.000    0.000    0.000 
#
# Total GULP energy -145240.798681 kJ/mol
# GULP energy per Si atom -5586.184565 kJ/mol
# Density = 2.052595 g / cm^3
# Si number density = 20.572772 Si / 1000 Ang^3
#
#
#
# Elastic Constant Matrix: (Units=GPa)
#
#
# Indices 1 2 3 4 5 6 
#
# 1 91.1477 21.7909 41.0492 0.0000 0.0000 0.0000
# 2 21.7909 108.7644 44.8006 0.0000 0.0000 0.0000
# 3 41.0492 44.8006 76.9704 0.0000 0.0000 0.0000
# 4 0.0000 0.0000 0.0000 -65.5956 0.0000 0.0000
# 5 0.0000 0.0000 0.0000 0.0000 3.8059 0.0000
# 6 0.0000 0.0000 0.0000 0.0000 0.0000 30.0815
#
#
#
# Elastic Compliance Matrix: (Units=1/GPa)
#
#
# Indices 1 2 3 4 5 6 
#
# 1 0.014450 0.000367 -0.007920 0.000000 0.000000 0.000000
# 2 0.000367 0.012103 -0.007240 0.000000 0.000000 0.000000
# 3 -0.007920 -0.007240 0.021430 0.000000 0.000000 0.000000
# 4 0.000000 0.000000 0.000000 -0.015245 0.000000 0.000000
# 5 0.000000 0.000000 0.000000 0.000000 0.262747 0.000000
# 6 0.000000 0.000000 0.000000 0.000000 0.000000 0.033243
#
#
# Mechanical properties :
#
#
# Convention : Reuss Voigt Hill
#
# Bulk Modulus (GPa) = 54.35748 54.68489 54.52118
# Shear Modulus (GPa) = 13.71936 4.94114 9.33025
#
# Velocity S-wave (km/s) = 2.58518 1.55145 2.13192
# Velocity P-wave (km/s) = 5.94898 5.46335 5.71133
#
# Compressibility (1/GPa) = 0.01839673
#
# Stress axis : x y z
#
# Youngs Moduli (GPa) = 69.20225 82.62444 46.66287
#
# Poissons Ratio (x) = -0.03035 0.36959
# Poissons Ratio (y) = -0.02542 0.33786
# Poissons Ratio (z) = 0.54811 0.59823
#
# Static dielectric constant tensor:
#      x y z
#    x 1.727110 0.000000 0.000000 
#    y 0.000000 1.774690 0.000000 
#    z 0.000000 0.000000 1.752370 
# 
# From -- ./inp_files/2622.got.cif
#   From: 2010.05.17/outbox.cif.g08.bks.cpg/sg41_2_cif.got.tgz:2622.got - 2010.06.03 18:54:24.
