data_PCOD9367094
_publ_section_title
;
Structure prediction by ZEFSAII (Michael W. Deem and Ramdas Pophale) SiO2 
 PCOD9367094
Probable space group: A B A 2
;
_chemical_formula_sum "Si O2"
_cell_formula_units_Z 64
_cell_length_a 18.289261
_cell_length_b 12.978625
_cell_length_c 12.436589
_cell_angle_alpha 90.000000
_cell_angle_beta 90.000000
_cell_angle_gamma 90.000000
_cell_volume 2952.066416
_symmetry_space_group_name_H-M "A B A 2"
_symmetry_group_IT_number 41
_symmetry_cell_setting 'orthorhombic'
loop_
_space_group_symop_operation_xyz
x,y,z
-x,-y,z
1/2-x,y,1/2+z
1/2+x,-y,1/2+z
x,1/2+y,1/2+z
-x,1/2-y,1/2+z
1/2-x,1/2+y,z
1/2+x,1/2-y,z
loop_
_atom_site_type_symbol
_atom_site_label
_atom_site_fract_x
_atom_site_fract_y
_atom_site_fract_z
Si Si1 0.698783 0.934649 0.718810
Si Si2 0.918448 0.196417 0.942961
Si Si3 0.056477 0.087285 0.347289
Si Si4 0.521266 0.894806 0.266590
Si Si5 0.216846 0.911173 0.033293
Si Si6 0.495593 0.709585 0.138743
Si Si7 0.839243 0.248134 0.556712
Si Si8 0.826915 0.907105 0.874812
O O1 0.637928 0.945492 0.812012
O O2 0.684555 0.833410 0.645533
O O3 0.777908 0.915005 0.769354
O O4 0.693163 0.036263 0.645394
O O5 0.934513 0.317178 0.928035
O O6 0.951309 0.145806 0.835125
O O7 0.836027 0.173127 0.977341
O O8 0.964183 0.152618 0.042801
O O9 0.024391 0.133737 0.235399
O O10 0.000000 0.000000 0.383871
O O11 0.543062 0.801171 0.190001
O O12 0.588163 0.921178 0.345445
O O13 0.500000 0.000000 0.208555
O O14 0.293760 0.856585 0.055984
O O15 0.207789 0.005970 0.951430
O O16 0.424288 0.762219 0.085774
O O17 0.826067 0.301247 0.441351
#
# Coordination Sequence:
#
# PCOD9367094 Si02
#       8
#     8   8   8   8   8   8   8   8
#     4  10  24  41  63  94 129 170 215 264 321 386
#     4  11  22  41  65  95 124 168 212 266 322 381
#     4  10  22  41  64  92 129 166 215 263 321 385
#     4  11  23  40  67  93 126 167 215 270 324 384
#     4  11  24  40  67  91 125 171 213 262 327 381
#     4  10  23  40  64  94 126 166 214 264 321 382
#     4  10  23  43  63  94 131 170 213 268 320 391
#     4  11  23  43  64  95 130 170 213 270 325 385
#
# _framework density 21.679729999999999
#
# number of rings (size 3 to 8) (size 9 to 14) (size 15 to 20)
#    0.000    1.500    2.500    1.500    3.500    4.000 
#    0.000    0.000    0.000    0.000    0.000    0.000 
#    0.000    0.000    0.000    0.000    0.000    0.000 
#
# Total GULP energy -178584.905120 kJ/mol
# GULP energy per Si atom -5580.778285 kJ/mol
# Density = 2.163039 g / cm^3
# Si number density = 21.679730 Si / 1000 Ang^3
#
#
#
# Elastic Constant Matrix: (Units=GPa)
#
#
# Indices 1 2 3 4 5 6 
#
# 1 45.7151 2.6567 -9.7338 0.0000 0.0000 0.0000
# 2 2.6567 72.9337 -3.7807 0.0000 0.0000 0.0000
# 3 -9.7338 -3.7807 43.9927 0.0000 0.0000 0.0000
# 4 0.0000 0.0000 0.0000 6.8144 0.0000 0.0000
# 5 0.0000 0.0000 0.0000 0.0000 28.6628 0.0000
# 6 0.0000 0.0000 0.0000 0.0000 0.0000 31.0227
#
#
#
# Elastic Compliance Matrix: (Units=1/GPa)
#
#
# Indices 1 2 3 4 5 6 
#
# 1 0.022980 -0.000576 0.005035 0.000000 0.000000 0.000000
# 2 -0.000576 0.013787 0.001057 0.000000 0.000000 0.000000
# 3 0.005035 0.001057 0.023936 0.000000 0.000000 0.000000
# 4 0.000000 0.000000 0.000000 0.146749 0.000000 0.000000
# 5 0.000000 0.000000 0.000000 0.000000 0.034888 0.000000
# 6 0.000000 0.000000 0.000000 0.000000 0.000000 0.032234
#
#
# Mechanical properties :
#
#
# Convention : Reuss Voigt Hill
#
# Bulk Modulus (GPa) = 13.94004 15.65843 14.79923
# Shear Modulus (GPa) = 17.39407 24.86658 21.13032
#
# Velocity S-wave (km/s) = 2.83560 3.39041 3.12534
# Velocity P-wave (km/s) = 4.14304 4.75024 4.45699
#
# Compressibility (1/GPa) = 0.07173583
#
# Stress axis : x y z
#
# Youngs Moduli (GPa) = 43.51572 72.53276 41.77807
#
# Poissons Ratio (x) = 0.04179 -0.21036
# Poissons Ratio (y) = 0.02507 -0.04417
# Poissons Ratio (z) = -0.21911 -0.07669
#
# Static dielectric constant tensor:
#      x y z
#    x 1.800290 0.000000 0.000000 
#    y 0.000000 1.871600 0.000000 
#    z 0.000000 0.000000 1.778610 
# 
# From -- ./inp_files/8843.got.cif
#   From: 2010.05.17/outbox.cif.g08.bks.cpg/sg41_5_cif.got.tgz:8843.got - 2010.06.03 18:54:24.
