data_PCOD9367562
_publ_section_title
;
Structure prediction by ZEFSAII (Michael W. Deem and Ramdas Pophale) SiO2 
 PCOD9367562
Probable space group: A B A 2
;
_chemical_formula_sum "Si O2"
_cell_formula_units_Z 64
_cell_length_a 28.715712
_cell_length_b 8.748192
_cell_length_c 11.835948
_cell_angle_alpha 90.000000
_cell_angle_beta 90.000000
_cell_angle_gamma 90.000000
_cell_volume 2973.315149
_symmetry_space_group_name_H-M "A B A 2"
_symmetry_group_IT_number 41
_symmetry_cell_setting 'orthorhombic'
loop_
_space_group_symop_operation_xyz
x,y,z
-x,-y,z
1/2-x,y,1/2+z
1/2+x,-y,1/2+z
x,1/2+y,1/2+z
-x,1/2-y,1/2+z
1/2-x,1/2+y,z
1/2+x,1/2-y,z
loop_
_atom_site_type_symbol
_atom_site_label
_atom_site_fract_x
_atom_site_fract_y
_atom_site_fract_z
Si Si1 0.813306 0.671562 0.664740
Si Si2 0.447305 0.949319 0.936247
Si Si3 0.580860 0.242504 0.320231
Si Si4 0.106713 0.735696 0.588049
Si Si5 0.913306 0.102577 0.055096
Si Si6 0.484307 0.321282 0.227826
Si Si7 0.692440 0.224472 0.928855
Si Si8 0.742018 0.944868 0.047790
O O1 0.863860 0.648740 0.608557
O O2 0.817652 0.688502 0.799179
O O3 0.788428 0.823303 0.616725
O O4 0.780018 0.531030 0.626378
O O5 0.451284 0.820130 0.838305
O O6 0.500000 0.000000 0.962994
O O7 0.420460 0.092420 0.881755
O O8 0.422277 0.878097 0.042312
O O9 0.618121 0.238468 0.219691
O O10 0.586892 0.125771 0.421441
O O11 0.530441 0.227477 0.258364
O O12 0.079209 0.575651 0.583139
O O13 0.148747 0.719206 0.501542
O O14 0.954290 0.200690 0.115345
O O15 0.500000 0.500000 0.225695
O O16 0.731674 0.352467 0.948741
O O17 0.710183 0.072685 0.991293
#
# Coordination Sequence:
#
# PCOD9367562 Si02
#       8
#     8   8   8   8   8   8   8   8
#     4  11  24  45  69 103 137 179 228 281 346 415
#     4   9  21  43  64  88 133 173 218 272 341 395
#     4  10  25  43  65  97 134 181 220 287 340 402
#     4  12  24  43  66  99 133 175 227 279 339 402
#     4  12  24  43  71  99 136 178 237 282 339 417
#     4   9  19  41  67  87 129 177 218 274 343 387
#     4  11  24  43  73  98 136 181 221 282 346 404
#     4  10  24  46  67 104 137 178 225 278 350 419
#
# _framework density 21.524794
#
# number of rings (size 3 to 8) (size 9 to 14) (size 15 to 20)
#    0.000    1.750    3.750    1.500    5.250    1.000 
#   11.250    0.625    0.000    0.000    0.000    0.000 
#    0.000    0.000    0.000    0.000    0.000    0.000 
#
# Total GULP energy -178793.780976 kJ/mol
# GULP energy per Si atom -5587.305656 kJ/mol
# Density = 2.147580 g / cm^3
# Si number density = 21.524794 Si / 1000 Ang^3
#
#
#
# Elastic Constant Matrix: (Units=GPa)
#
#
# Indices 1 2 3 4 5 6 
#
# 1 59.7591 17.1167 33.4213 0.0000 0.0000 0.0000
# 2 17.1167 57.6729 27.6771 0.0000 0.0000 0.0000
# 3 33.4213 27.6771 145.8849 0.0000 0.0000 0.0000
# 4 0.0000 0.0000 0.0000 20.9186 0.0000 0.0000
# 5 0.0000 0.0000 0.0000 0.0000 59.4141 0.0000
# 6 0.0000 0.0000 0.0000 0.0000 0.0000 -49.7838
#
#
#
# Elastic Compliance Matrix: (Units=1/GPa)
#
#
# Indices 1 2 3 4 5 6 
#
# 1 0.020045 -0.004121 -0.003810 0.000000 0.000000 0.000000
# 2 -0.004121 0.019923 -0.002836 0.000000 0.000000 0.000000
# 3 -0.003810 -0.002836 0.008266 0.000000 0.000000 0.000000
# 4 0.000000 0.000000 0.000000 0.047804 0.000000 0.000000
# 5 0.000000 0.000000 0.000000 0.000000 0.016831 0.000000
# 6 0.000000 0.000000 0.000000 0.000000 0.000000 -0.020087
#
#
# Mechanical properties :
#
#
# Convention : Reuss Voigt Hill
#
# Bulk Modulus (GPa) = 37.45288 46.63859 42.04574
# Shear Modulus (GPa) = 40.57911 18.44989 29.51450
#
# Velocity S-wave (km/s) = 4.34663 2.93088 3.70697
# Velocity P-wave (km/s) = 6.52906 5.75915 6.15615
#
# Compressibility (1/GPa) = 0.02670021
#
# Stress axis : x y z
#
# Youngs Moduli (GPa) = 49.88730 50.19329 120.98230
#
# Poissons Ratio (x) = 0.20682 0.46100
# Poissons Ratio (y) = 0.20556 0.34308
# Poissons Ratio (z) = 0.19009 0.14234
#
# Static dielectric constant tensor:
#      x y z
#    x 1.764660 0.000000 0.000000 
#    y 0.000000 1.783040 0.000000 
#    z 0.000000 0.000000 1.790710 
# 
# From -- ./inp_files/6661.got.cif
#   From: 2010.05.17/outbox.cif.g08.bks.cpg/sg41_4_cif.got.tgz:6661.got - 2010.06.03 18:54:24.
