data_PCOD9367961
_publ_section_title
;
Structure prediction by ZEFSAII (Michael W. Deem and Ramdas Pophale) SiO2 
 PCOD9367961
Probable space group: A B A 2
;
_chemical_formula_sum "Si O2"
_cell_formula_units_Z 48
_cell_length_a 7.394438
_cell_length_b 11.718937
_cell_length_c 21.623003
_cell_angle_alpha 90.000000
_cell_angle_beta 90.000000
_cell_angle_gamma 90.000000
_cell_volume 1873.740310
_symmetry_space_group_name_H-M "A B A 2"
_symmetry_group_IT_number 41
_symmetry_cell_setting 'orthorhombic'
loop_
_space_group_symop_operation_xyz
x,y,z
-x,-y,z
1/2-x,y,1/2+z
1/2+x,-y,1/2+z
x,1/2+y,1/2+z
-x,1/2-y,1/2+z
1/2-x,1/2+y,z
1/2+x,1/2-y,z
loop_
_atom_site_type_symbol
_atom_site_label
_atom_site_fract_x
_atom_site_fract_y
_atom_site_fract_z
Si Si1 0.500000 0.000000 0.987090
Si Si2 0.372023 0.181935 0.377589
Si Si3 0.127234 0.195822 0.579191
Si Si4 0.421077 0.123026 0.654041
Si Si5 0.383199 0.391845 0.281533
Si Si6 0.186645 0.837173 0.961010
Si Si7 0.000000 0.000000 0.784055
O O1 0.659187 0.067996 0.951472
O O2 0.414308 0.094045 0.032448
O O3 0.390246 0.294295 0.332904
O O4 0.492836 0.131333 0.434657
O O5 0.204497 0.225651 0.416949
O O6 0.387214 0.085462 0.327077
O O7 0.210336 0.130673 0.639700
O O8 0.974933 0.273417 0.609976
O O9 0.202785 0.292461 0.530561
O O10 0.502527 0.144821 0.721040
O O11 0.500000 0.000000 0.634690
O O12 0.500000 0.500000 0.304311
O O13 0.176491 0.426314 0.259626
#
# Coordination Sequence:
#
# PCOD9367961 Si02
#       7
#     4   8   8   8   8   8   4
#     4  12  26  44  79 116 156 213 276 328 430 490
#     4  12  26  47  75 116 157 206 262 327 414 493
#     4  12  25  49  77 112 151 212 263 343 404 488
#     4  11  27  50  75 109 153 203 272 334 402 490
#     4  11  28  52  78 116 156 211 272 336 407 496
#     4  12  25  45  75 111 160 204 260 333 405 492
#     4  12  28  48  85 116 160 215 262 334 416 496
#
# _framework density 25.61721
#
# number of rings (size 3 to 8) (size 9 to 14) (size 15 to 20)
#    0.000    0.333    5.000    2.000    5.833    1.333 
#    1.500    0.833    0.000    0.000    0.000    0.000 
#    0.000    0.000    0.000    0.000    0.000    0.000 
#
# Total GULP energy -133616.540279 kJ/mol
# GULP energy per Si atom -5567.355845 kJ/mol
# Density = 2.555890 g / cm^3
# Si number density = 25.617210 Si / 1000 Ang^3
#
#
#
# Elastic Constant Matrix: (Units=GPa)
#
#
# Indices 1 2 3 4 5 6 
#
# 1 46.9670 8.0126 17.4314 0.0000 0.0000 0.0000
# 2 8.0126 84.3610 23.9726 0.0000 0.0000 0.0000
# 3 17.4314 23.9726 105.3856 0.0000 0.0000 0.0000
# 4 0.0000 0.0000 0.0000 0.8990 0.0000 0.0000
# 5 0.0000 0.0000 0.0000 0.0000 -380.9790 0.0000
# 6 0.0000 0.0000 0.0000 0.0000 0.0000 -14.7142
#
#
#
# Elastic Compliance Matrix: (Units=1/GPa)
#
#
# Indices 1 2 3 4 5 6 
#
# 1 0.022791 -0.001169 -0.003504 0.000000 0.000000 0.000000
# 2 -0.001169 0.012733 -0.002703 0.000000 0.000000 0.000000
# 3 -0.003504 -0.002703 0.010683 0.000000 0.000000 0.000000
# 4 0.000000 0.000000 0.000000 1.112330 0.000000 0.000000
# 5 0.000000 0.000000 0.000000 0.000000 -0.002625 0.000000
# 6 0.000000 0.000000 0.000000 0.000000 0.000000 -0.067962
#
#
# Mechanical properties :
#
#
# Convention : Reuss Voigt Hill
#
# Bulk Modulus (GPa) = 31.79066 37.28299 34.53683
# Shear Modulus (GPa) = 4.49160 -66.47236 -30.99038
#
# Velocity S-wave (km/s) = 1.32558 -5.09948 -3.48192
# Velocity P-wave (km/s) = 3.84444 4.48190 1.62906
#
# Compressibility (1/GPa) = 0.03145578
#
# Stress axis : x y z
#
# Youngs Moduli (GPa) = 43.87615 78.53627 93.60308
#
# Poissons Ratio (x) = 0.09181 0.32798
# Poissons Ratio (y) = 0.05129 0.25302
# Poissons Ratio (z) = 0.15374 0.21229
#
# Static dielectric constant tensor:
#      x y z
#    x 3.079640 0.000000 0.000000 
#    y 0.000000 2.593680 0.000000 
#    z 0.000000 0.000000 1.993940 
# 
# From -- ./inp_files/11981.got.cif
#   From: 2010.05.17/outbox.cif.g08.bks.cpg/sg41_6_cif.got.tgz:11981.got - 2010.06.03 18:54:24.
