data_PCOD9367005
_publ_section_title
;
Structure prediction by ZEFSAII (Michael W. Deem and Ramdas Pophale) SiO2 
 PCOD9367005
Probable space group: A B A 2
;
_chemical_formula_sum "Si O2"
_cell_formula_units_Z 60
_cell_length_a 25.039020
_cell_length_b 11.741558
_cell_length_c 7.796505
_cell_angle_alpha 90.000000
_cell_angle_beta 90.000000
_cell_angle_gamma 90.000000
_cell_volume 2292.149904
_symmetry_space_group_name_H-M "A B A 2"
_symmetry_group_IT_number 41
_symmetry_cell_setting 'orthorhombic'
loop_
_space_group_symop_operation_xyz
x,y,z
-x,-y,z
1/2-x,y,1/2+z
1/2+x,-y,1/2+z
x,1/2+y,1/2+z
-x,1/2-y,1/2+z
1/2-x,1/2+y,z
1/2+x,1/2-y,z
loop_
_atom_site_type_symbol
_atom_site_label
_atom_site_fract_x
_atom_site_fract_y
_atom_site_fract_z
Si Si1 0.000000 0.500000 0.275870
Si Si2 0.836462 0.366315 0.232453
Si Si3 0.715482 0.263723 0.262202
Si Si4 0.028931 0.281668 0.056569
Si Si5 0.726065 0.105685 0.568674
Si Si6 0.407309 0.070910 0.535156
Si Si7 0.310056 0.514006 0.400440
Si Si8 0.574881 0.674373 0.183145
O O1 0.977481 0.604362 0.165546
O O2 0.953315 0.451358 0.393503
O O3 0.776380 0.314927 0.247352
O O4 0.855767 0.413657 0.415542
O O5 0.841720 0.458842 0.076891
O O6 0.877305 0.264669 0.187281
O O7 0.700820 0.183782 0.423675
O O8 0.718178 0.176013 0.106768
O O9 0.679966 0.373710 0.286276
O O10 0.072274 0.188181 0.121093
O O11 0.971402 0.219051 0.056540
O O12 0.047941 0.319268 0.869514
O O13 0.750419 0.993693 0.482395
O O14 0.697711 0.079304 0.748651
O O15 0.408533 0.955549 0.644920
#
# Coordination Sequence:
#
# PCOD9367005 Si02
#       8
#     4   8   8   8   8   8   8   8
#     4  12  22  42  76  98 144 186 236 294 362 428
#     4  11  24  42  68 108 142 172 248 303 353 421
#     4  11  21  42  66  95 135 176 232 287 347 430
#     4  11  22  42  73 103 136 192 239 279 369 432
#     4  10  22  38  72  90 123 194 224 272 361 420
#     4  11  24  46  70 101 147 187 239 305 347 431
#     4  11  21  42  67  94 133 180 229 286 350 422
#     4  11  23  45  74 100 145 188 235 302 356 427
#
# _framework density 26.176299
#
# number of rings (size 3 to 8) (size 9 to 14) (size 15 to 20)
#    0.000    1.067    6.667    0.000    1.867    2.133 
#    9.600    0.000   11.733    0.000    0.000    0.000 
#    0.000    0.000    0.000    0.000    0.000    0.000 
#
# Total GULP energy -167592.516093 kJ/mol
# GULP energy per Si atom -5586.417203 kJ/mol
# Density = 2.611672 g / cm^3
# Si number density = 26.176299 Si / 1000 Ang^3
#
#
#
# Elastic Constant Matrix: (Units=GPa)
#
#
# Indices 1 2 3 4 5 6 
#
# 1 88.2999 1.3121 6.9465 0.0000 0.0000 0.0000
# 2 1.3121 131.3637 17.4494 0.0000 0.0000 0.0000
# 3 6.9465 17.4494 83.8713 0.0000 0.0000 0.0000
# 4 0.0000 0.0000 0.0000 56.3574 0.0000 0.0000
# 5 0.0000 0.0000 0.0000 0.0000 39.0170 0.0000
# 6 0.0000 0.0000 0.0000 0.0000 0.0000 27.6644
#
#
#
# Elastic Compliance Matrix: (Units=1/GPa)
#
#
# Indices 1 2 3 4 5 6 
#
# 1 0.011399 0.000012 -0.000947 0.000000 0.000000 0.000000
# 2 0.000012 0.007829 -0.001630 0.000000 0.000000 0.000000
# 3 -0.000947 -0.001630 0.012341 0.000000 0.000000 0.000000
# 4 0.000000 0.000000 0.000000 0.017744 0.000000 0.000000
# 5 0.000000 0.000000 0.000000 0.000000 0.025630 0.000000
# 6 0.000000 0.000000 0.000000 0.000000 0.000000 0.036148
#
#
# Mechanical properties :
#
#
# Convention : Reuss Voigt Hill
#
# Bulk Modulus (GPa) = 37.82194 39.43898 38.63046
# Shear Modulus (GPa) = 39.98968 43.12953 41.55961
#
# Velocity S-wave (km/s) = 3.91283 4.06354 3.98889
# Velocity P-wave (km/s) = 5.90711 6.09228 6.00041
#
# Compressibility (1/GPa) = 0.02643968
#
# Stress axis : x y z
#
# Youngs Moduli (GPa) = 87.72439 127.73319 81.03396
#
# Poissons Ratio (x) = -0.00152 0.07671
# Poissons Ratio (y) = -0.00104 0.13207
# Poissons Ratio (z) = 0.08304 0.20818
#
# Static dielectric constant tensor:
#      x y z
#    x 2.118440 0.000000 0.000000 
#    y 0.000000 2.145150 0.000000 
#    z 0.000000 0.000000 2.049940 
# 
# From -- ./inp_files/3831.got.cif
#   From: 2010.05.17/outbox.cif.g08.bks.cpg/sg41_2_cif.got.tgz:3831.got - 2010.06.03 18:54:24.
