data_PCOD9367716
_publ_section_title
;
Structure prediction by ZEFSAII (Michael W. Deem and Ramdas Pophale) SiO2 
 PCOD9367716
Probable space group: A B A 2
;
_chemical_formula_sum "Si O2"
_cell_formula_units_Z 60
_cell_length_a 12.787442
_cell_length_b 18.493255
_cell_length_c 12.330456
_cell_angle_alpha 90.000000
_cell_angle_beta 90.000000
_cell_angle_gamma 90.000000
_cell_volume 2915.923814
_symmetry_space_group_name_H-M "A B A 2"
_symmetry_group_IT_number 41
_symmetry_cell_setting 'orthorhombic'
loop_
_space_group_symop_operation_xyz
x,y,z
-x,-y,z
1/2-x,y,1/2+z
1/2+x,-y,1/2+z
x,1/2+y,1/2+z
-x,1/2-y,1/2+z
1/2-x,1/2+y,z
1/2+x,1/2-y,z
loop_
_atom_site_type_symbol
_atom_site_label
_atom_site_fract_x
_atom_site_fract_y
_atom_site_fract_z
Si Si1 0.323086 0.946366 0.489200
Si Si2 0.000000 0.500000 0.624333
Si Si3 0.428194 0.350968 0.821264
Si Si4 0.346378 0.607842 0.234024
Si Si5 0.847171 0.904053 0.871692
Si Si6 0.146934 0.352669 0.072984
Si Si7 0.550744 0.807671 0.932037
Si Si8 0.761102 0.797996 0.040735
O O1 0.431419 0.941684 0.557112
O O2 0.338643 0.894435 0.385950
O O3 0.217233 0.923537 0.550142
O O4 0.326240 0.029843 0.453049
O O5 0.914541 0.457843 0.692364
O O6 0.534624 0.396860 0.833800
O O7 0.397862 0.346772 0.694868
O O8 0.447644 0.273657 0.881163
O O9 0.232953 0.583955 0.274796
O O10 0.409096 0.643533 0.332898
O O11 0.321954 0.664185 0.138717
O O12 0.814225 0.830044 0.932266
O O13 0.226456 0.286608 0.055992
O O14 0.055795 0.336569 0.985272
O O15 0.638804 0.813485 0.025899
#
# Coordination Sequence:
#
# PCOD9367716 Si02
#       8
#     8   4   8   8   8   8   8   8
#     4  12  26  46  69 101 145 187 237 293 349 432
#     4  12  26  50  74 100 136 198 242 288 354 444
#     4  12  23  44  73 105 142 188 234 294 360 419
#     4  11  25  43  72 101 134 192 233 293 360 412
#     4  11  24  45  69  96 145 186 232 288 360 426
#     4  12  27  42  72 111 141 183 243 296 348 426
#     4  11  25  44  69 107 142 179 237 301 347 422
#     4  11  21  45  68 100 142 182 232 287 359 419
#
# _framework density 20.57667
#
# number of rings (size 3 to 8) (size 9 to 14) (size 15 to 20)
#    0.000    0.533    6.667    0.800    3.733    0.000 
#    4.800    0.000    0.000    0.000    0.000    0.000 
#    0.000    0.000    0.000    0.000    0.000    0.000 
#
# Total GULP energy -167568.224920 kJ/mol
# GULP energy per Si atom -5585.607497 kJ/mol
# Density = 2.052984 g / cm^3
# Si number density = 20.576670 Si / 1000 Ang^3
#
#
#
# Elastic Constant Matrix: (Units=GPa)
#
#
# Indices 1 2 3 4 5 6 
#
# 1 84.0845 12.0844 33.6677 0.0000 0.0000 0.0000
# 2 12.0844 69.7795 22.5210 0.0000 0.0000 0.0000
# 3 33.6677 22.5210 84.8448 0.0000 0.0000 0.0000
# 4 0.0000 0.0000 0.0000 18.7976 0.0000 0.0000
# 5 0.0000 0.0000 0.0000 0.0000 32.4323 0.0000
# 6 0.0000 0.0000 0.0000 0.0000 0.0000 36.3439
#
#
#
# Elastic Compliance Matrix: (Units=1/GPa)
#
#
# Indices 1 2 3 4 5 6 
#
# 1 0.014170 -0.000699 -0.005437 0.000000 0.000000 0.000000
# 2 -0.000699 0.015708 -0.003892 0.000000 0.000000 0.000000
# 3 -0.005437 -0.003892 0.014977 0.000000 0.000000 0.000000
# 4 0.000000 0.000000 0.000000 0.053198 0.000000 0.000000
# 5 0.000000 0.000000 0.000000 0.000000 0.030833 0.000000
# 6 0.000000 0.000000 0.000000 0.000000 0.000000 0.027515
#
#
# Mechanical properties :
#
#
# Convention : Reuss Voigt Hill
#
# Bulk Modulus (GPa) = 40.32554 41.69498 41.01026
# Shear Modulus (GPa) = 27.06717 28.87714 27.97215
#
# Velocity S-wave (km/s) = 3.63082 3.75025 3.69102
# Velocity P-wave (km/s) = 6.10061 6.24978 6.17564
#
# Compressibility (1/GPa) = 0.02479818
#
# Stress axis : x y z
#
# Youngs Moduli (GPa) = 70.56933 63.66145 66.76900
#
# Poissons Ratio (x) = 0.04451 0.36306
# Poissons Ratio (y) = 0.04934 0.25987
# Poissons Ratio (z) = 0.38372 0.24778
#
# Static dielectric constant tensor:
#      x y z
#    x 1.717860 0.000000 0.000000 
#    y 0.000000 1.742940 0.000000 
#    z 0.000000 0.000000 1.784280 
# 
# From -- ./inp_files/5132.got.cif
#   From: 2010.05.17/outbox.cif.g08.bks.cpg/sg41_3_cif.got.tgz:5132.got - 2010.06.03 18:54:24.
