data_PCOD9367642
_publ_section_title
;
Structure prediction by ZEFSAII (Michael W. Deem and Ramdas Pophale) SiO2 
 PCOD9367642
Probable space group: A B A 2
;
_chemical_formula_sum "Si O2"
_cell_formula_units_Z 60
_cell_length_a 17.629263
_cell_length_b 11.710633
_cell_length_c 13.510520
_cell_angle_alpha 90.000000
_cell_angle_beta 90.000000
_cell_angle_gamma 90.000000
_cell_volume 2789.244544
_symmetry_space_group_name_H-M "A B A 2"
_symmetry_group_IT_number 41
_symmetry_cell_setting 'orthorhombic'
loop_
_space_group_symop_operation_xyz
x,y,z
-x,-y,z
1/2-x,y,1/2+z
1/2+x,-y,1/2+z
x,1/2+y,1/2+z
-x,1/2-y,1/2+z
1/2-x,1/2+y,z
1/2+x,1/2-y,z
loop_
_atom_site_type_symbol
_atom_site_label
_atom_site_fract_x
_atom_site_fract_y
_atom_site_fract_z
Si Si1 0.257080 0.425020 0.189270
Si Si2 0.132340 0.266179 0.580442
Si Si3 0.278841 0.817276 0.387094
Si Si4 0.619544 0.996119 0.080968
Si Si5 0.000000 0.000000 0.749087
Si Si6 0.892067 0.611757 0.897388
Si Si7 0.850731 0.387825 0.773009
Si Si8 0.003896 0.757233 0.243681
O O1 0.310974 0.318362 0.163360
O O2 0.217556 0.408162 0.296315
O O3 0.195422 0.436832 0.105578
O O4 0.304550 0.542277 0.190814
O O5 0.162043 0.329440 0.479220
O O6 0.139837 0.133062 0.552769
O O7 0.051197 0.270140 0.639700
O O8 0.189042 0.825620 0.412165
O O9 0.298603 0.698184 0.334196
O O10 0.572999 0.987971 0.180274
O O11 0.575304 0.073264 0.002473
O O12 0.006710 0.870967 0.788031
O O13 0.877111 0.491097 0.843304
O O14 0.948160 0.679243 0.827791
O O15 0.922464 0.317335 0.733664
#
# Coordination Sequence:
#
# PCOD9367642 Si02
#       8
#     8   8   8   8   4   8   8   8
#     4  11  23  40  69 101 138 183 226 289 339 415
#     4  11  22  40  66  98 140 175 231 290 338 416
#     4  11  22  41  64 104 134 174 226 286 346 399
#     4  11  23  42  66 100 134 180 233 277 351 417
#     4  10  26  42  66  98 140 184 228 292 350 418
#     4  11  23  40  71 104 133 181 230 284 343 424
#     4  11  23  41  71  98 139 185 228 281 347 413
#     4  11  24  45  67 101 139 183 236 285 356 416
#
# _framework density 21.511202000000001
#
# number of rings (size 3 to 8) (size 9 to 14) (size 15 to 20)
#    0.000    1.067    5.333    2.000    3.733    0.000 
#    0.000    0.000    0.000    4.800    0.000    0.000 
#    0.000    0.000    0.000    0.000    0.000    0.000 
#
# Total GULP energy -167150.470057 kJ/mol
# GULP energy per Si atom -5571.682335 kJ/mol
# Density = 2.146224 g / cm^3
# Si number density = 21.511202 Si / 1000 Ang^3
#
#
#
# Elastic Constant Matrix: (Units=GPa)
#
#
# Indices 1 2 3 4 5 6 
#
# 1 60.4349 53.3309 26.0834 0.0000 0.0000 0.0000
# 2 53.3309 109.5371 28.8363 0.0000 0.0000 0.0000
# 3 26.0834 28.8363 80.6419 0.0000 0.0000 0.0000
# 4 0.0000 0.0000 0.0000 12.6498 0.0000 0.0000
# 5 0.0000 0.0000 0.0000 0.0000 -14.8291 0.0000
# 6 0.0000 0.0000 0.0000 0.0000 0.0000 38.6319
#
#
#
# Elastic Compliance Matrix: (Units=1/GPa)
#
#
# Indices 1 2 3 4 5 6 
#
# 1 0.030785 -0.013652 -0.005075 0.000000 0.000000 0.000000
# 2 -0.013652 0.016132 -0.001353 0.000000 0.000000 0.000000
# 3 -0.005075 -0.001353 0.014526 0.000000 0.000000 0.000000
# 4 0.000000 0.000000 0.000000 0.079053 0.000000 0.000000
# 5 0.000000 0.000000 0.000000 0.000000 -0.067435 0.000000
# 6 0.000000 0.000000 0.000000 0.000000 0.000000 0.025885
#
#
# Mechanical properties :
#
#
# Convention : Reuss Voigt Hill
#
# Bulk Modulus (GPa) = 46.98820 51.90169 49.44494
# Shear Modulus (GPa) = 34.19957 16.78141 25.49049
#
# Velocity S-wave (km/s) = 3.99162 2.79610 3.44610
# Velocity P-wave (km/s) = 6.56773 5.88255 6.23456
#
# Compressibility (1/GPa) = 0.02128194
#
# Stress axis : x y z
#
# Youngs Moduli (GPa) = 32.48380 61.98712 68.84244
#
# Poissons Ratio (x) = 0.84626 0.34940
# Poissons Ratio (y) = 0.44347 0.09314
# Poissons Ratio (z) = 0.16487 0.08387
#
# Static dielectric constant tensor:
#      x y z
#    x 1.820830 0.000000 0.000000 
#    y 0.000000 1.818960 0.000000 
#    z 0.000000 0.000000 1.839960 
# 
# From -- ./inp_files/8795.got.cif
#   From: 2010.05.17/outbox.cif.g08.bks.cpg/sg41_5_cif.got.tgz:8795.got - 2010.06.03 18:54:24.
