data_PCOD9367530
_publ_section_title
;
Structure prediction by ZEFSAII (Michael W. Deem and Ramdas Pophale) SiO2 
 PCOD9367530
Probable space group: A B A 2
;
_chemical_formula_sum "Si O2"
_cell_formula_units_Z 60
_cell_length_a 17.243698
_cell_length_b 17.664781
_cell_length_c 6.731961
_cell_angle_alpha 90.000000
_cell_angle_beta 90.000000
_cell_angle_gamma 90.000000
_cell_volume 2050.596714
_symmetry_space_group_name_H-M "A B A 2"
_symmetry_group_IT_number 41
_symmetry_cell_setting 'orthorhombic'
loop_
_space_group_symop_operation_xyz
x,y,z
-x,-y,z
1/2-x,y,1/2+z
1/2+x,-y,1/2+z
x,1/2+y,1/2+z
-x,1/2-y,1/2+z
1/2-x,1/2+y,z
1/2+x,1/2-y,z
loop_
_atom_site_type_symbol
_atom_site_label
_atom_site_fract_x
_atom_site_fract_y
_atom_site_fract_z
Si Si1 0.701178 0.508367 0.737040
Si Si2 0.647933 0.421081 0.378828
Si Si3 0.273694 0.832922 0.650395
Si Si4 0.419748 0.158436 0.380103
Si Si5 0.438495 0.911219 0.281736
Si Si6 0.936442 0.715128 0.557632
Si Si7 0.750189 0.285936 0.396852
Si Si8 0.000000 0.000000 0.417709
O O1 0.656256 0.446349 0.606932
O O2 0.779950 0.467800 0.793613
O O3 0.730349 0.586208 0.637698
O O4 0.632163 0.541053 0.872570
O O5 0.671728 0.334627 0.367585
O O6 0.565108 0.450590 0.308346
O O7 0.368707 0.833111 0.670729
O O8 0.251668 0.812020 0.398113
O O9 0.261504 0.734955 0.646761
O O10 0.474220 0.084660 0.364556
O O11 0.430499 0.205527 0.173449
O O12 0.471051 0.201020 0.549354
O O13 0.329118 0.163353 0.424424
O O14 0.418759 0.823338 0.338300
O O15 0.452307 0.939800 0.056852
#
# Coordination Sequence:
#
# PCOD9367530 Si02
#       8
#     8   8   8   8   8   8   8   4
#     4  11  23  43  69  95 133 177 229 270 353 409
#     4  11  25  45  72  98 132 184 227 292 341 426
#     4  11  23  42  63 100 132 180 219 287 330 418
#     4   9  22  38  63  97 132 173 219 280 336 405
#     4   9  21  38  69  92 126 176 219 271 333 410
#     4   9  20  38  61  95 133 169 220 267 338 397
#     4  11  24  39  68  96 136 172 233 277 349 394
#     4  10  24  44  70  96 138 174 238 278 360 402
#
# _framework density 29.259775999999999
#
# number of rings (size 3 to 8) (size 9 to 14) (size 15 to 20)
#    0.800    1.067    0.000    3.200    9.333    0.000 
#    2.400    2.667    0.000    0.000    0.000    0.000 
#    0.000    0.000    0.000    0.000    0.000    0.000 
#
# Total GULP energy -167042.154518 kJ/mol
# GULP energy per Si atom -5568.071817 kJ/mol
# Density = 2.919318 g / cm^3
# Si number density = 29.259776 Si / 1000 Ang^3
#
#
#
# Elastic Constant Matrix: (Units=GPa)
#
#
# Indices 1 2 3 4 5 6 
#
# 1 211.4422 37.1865 42.2287 0.0000 0.0000 0.0000
# 2 37.1865 149.7187 60.9174 0.0000 0.0000 0.0000
# 3 42.2287 60.9174 132.6947 0.0000 0.0000 0.0000
# 4 0.0000 0.0000 0.0000 46.0865 0.0000 0.0000
# 5 0.0000 0.0000 0.0000 0.0000 53.1829 0.0000
# 6 0.0000 0.0000 0.0000 0.0000 0.0000 58.0097
#
#
#
# Elastic Compliance Matrix: (Units=1/GPa)
#
#
# Indices 1 2 3 4 5 6 
#
# 1 0.005118 -0.000748 -0.001285 0.000000 0.000000 0.000000
# 2 -0.000748 0.008323 -0.003583 0.000000 0.000000 0.000000
# 3 -0.001285 -0.003583 0.009590 0.000000 0.000000 0.000000
# 4 0.000000 0.000000 0.000000 0.021698 0.000000 0.000000
# 5 0.000000 0.000000 0.000000 0.000000 0.018803 0.000000
# 6 0.000000 0.000000 0.000000 0.000000 0.000000 0.017239
#
#
# Mechanical properties :
#
#
# Convention : Reuss Voigt Hill
#
# Bulk Modulus (GPa) = 84.75914 86.05786 85.40850
# Shear Modulus (GPa) = 52.11864 55.02402 53.57133
#
# Velocity S-wave (km/s) = 4.22505 4.34122 4.28353
# Velocity P-wave (km/s) = 7.26857 7.38943 7.32925
#
# Compressibility (1/GPa) = 0.01179814
#
# Stress axis : x y z
#
# Youngs Moduli (GPa) = 195.40098 120.15261 104.27715
#
# Poissons Ratio (x) = 0.08990 0.13401
# Poissons Ratio (y) = 0.14620 0.37359
# Poissons Ratio (z) = 0.25112 0.43047
#
# Static dielectric constant tensor:
#      x y z
#    x 2.234040 0.000000 0.000000 
#    y 0.000000 2.262480 0.000000 
#    z 0.000000 0.000000 2.509960 
# 
# From -- ./inp_files/3167.got.cif
#   From: 2010.05.17/outbox.cif.g08.bks.cpg/sg41_2_cif.got.tgz:3167.got - 2010.06.03 18:54:24.
