data_PCOD9367860
_publ_section_title
;
Structure prediction by ZEFSAII (Michael W. Deem and Ramdas Pophale) SiO2 
 PCOD9367860
Probable space group: A B A 2
;
_chemical_formula_sum "Si O2"
_cell_formula_units_Z 48
_cell_length_a 9.618284
_cell_length_b 16.325193
_cell_length_c 14.143463
_cell_angle_alpha 90.000000
_cell_angle_beta 90.000000
_cell_angle_gamma 90.000000
_cell_volume 2220.811406
_symmetry_space_group_name_H-M "A B A 2"
_symmetry_group_IT_number 41
_symmetry_cell_setting 'orthorhombic'
loop_
_space_group_symop_operation_xyz
x,y,z
-x,-y,z
1/2-x,y,1/2+z
1/2+x,-y,1/2+z
x,1/2+y,1/2+z
-x,1/2-y,1/2+z
1/2-x,1/2+y,z
1/2+x,1/2-y,z
loop_
_atom_site_type_symbol
_atom_site_label
_atom_site_fract_x
_atom_site_fract_y
_atom_site_fract_z
Si Si1 0.895756 0.075736 0.630890
Si Si2 0.154976 0.980296 0.257630
Si Si3 0.179131 0.854466 0.429138
Si Si4 0.925696 0.749566 0.467541
Si Si5 0.450311 0.236202 0.191025
Si Si6 0.687232 0.835012 0.796139
O O1 0.749130 0.055851 0.676462
O O2 0.869114 0.098687 0.522853
O O3 0.961858 0.152591 0.685071
O O4 0.000000 0.000000 0.638107
O O5 0.151356 0.914990 0.342614
O O6 0.215940 0.069129 0.285004
O O7 0.000000 0.000000 0.225846
O O8 0.341754 0.829714 0.431243
O O9 0.084142 0.771585 0.439512
O O10 0.911984 0.748068 0.580885
O O11 0.847070 0.819283 0.406232
O O12 0.312900 0.218149 0.252083
O O13 0.551195 0.304070 0.236992
#
# Coordination Sequence:
#
# PCOD9367860 Si02
#       6
#     8   8   8   8   8   8
#     4  11  24  47  69  98 140 182 235 293 355 418
#     4  12  26  45  69 103 141 187 230 295 354 420
#     4  11  25  45  71 101 140 181 238 291 354 421
#     4  11  24  44  70 100 137 184 234 291 349 417
#     4  11  25  44  71 103 136 189 238 295 351 428
#     4  12  25  43  72  99 141 183 241 291 359 419
#
# _framework density 21.613721999999999
#
# number of rings (size 3 to 8) (size 9 to 14) (size 15 to 20)
#    0.000    0.667    3.333    4.500    7.000    0.000 
#    0.000    0.833    0.000    0.000    0.000    0.000 
#    0.000    0.000    0.000    0.000    0.000    0.000 
#
# Total GULP energy -134114.794384 kJ/mol
# GULP energy per Si atom -5588.116433 kJ/mol
# Density = 2.156453 g / cm^3
# Si number density = 21.613722 Si / 1000 Ang^3
#
#
#
# Elastic Constant Matrix: (Units=GPa)
#
#
# Indices 1 2 3 4 5 6 
#
# 1 134.4810 37.6392 70.6760 0.0000 0.0000 0.0000
# 2 37.6392 87.7976 28.6768 0.0000 0.0000 0.0000
# 3 70.6760 28.6768 111.1249 0.0000 0.0000 0.0000
# 4 0.0000 0.0000 0.0000 31.8391 0.0000 0.0000
# 5 0.0000 0.0000 0.0000 0.0000 22.2089 0.0000
# 6 0.0000 0.0000 0.0000 0.0000 0.0000 45.1979
#
#
#
# Elastic Compliance Matrix: (Units=1/GPa)
#
#
# Indices 1 2 3 4 5 6 
#
# 1 0.011786 -0.002844 -0.006762 0.000000 0.000000 0.000000
# 2 -0.002844 0.013125 -0.001578 0.000000 0.000000 0.000000
# 3 -0.006762 -0.001578 0.013707 0.000000 0.000000 0.000000
# 4 0.000000 0.000000 0.000000 0.031408 0.000000 0.000000
# 5 0.000000 0.000000 0.000000 0.000000 0.045027 0.000000
# 6 0.000000 0.000000 0.000000 0.000000 0.000000 0.022125
#
#
# Mechanical properties :
#
#
# Convention : Reuss Voigt Hill
#
# Bulk Modulus (GPa) = 61.54222 67.48750 64.51486
# Shear Modulus (GPa) = 30.31023 32.94328 31.62676
#
# Velocity S-wave (km/s) = 3.74887 3.90831 3.82942
# Velocity P-wave (km/s) = 6.87563 7.18740 7.03324
#
# Compressibility (1/GPa) = 0.01624901
#
# Stress axis : x y z
#
# Youngs Moduli (GPa) = 84.84924 76.19334 72.95719
#
# Poissons Ratio (x) = 0.21669 0.49332
# Poissons Ratio (y) = 0.24131 0.11514
# Poissons Ratio (z) = 0.57373 0.12024
#
# Static dielectric constant tensor:
#      x y z
#    x 1.810140 0.000000 0.000000 
#    y 0.000000 1.800970 0.000000 
#    z 0.000000 0.000000 1.775230 
# 
# From -- ./inp_files/7327.got.cif
#   From: 2010.05.17/outbox.cif.g08.bks.cpg/sg41_4_cif.got.tgz:7327.got - 2010.06.03 18:54:24.
