data_PCOD9367272
_publ_section_title
;
Structure prediction by ZEFSAII (Michael W. Deem and Ramdas Pophale) SiO2 
 PCOD9367272
Probable space group: A B A 2
;
_chemical_formula_sum "Si O2"
_cell_formula_units_Z 64
_cell_length_a 18.721631
_cell_length_b 8.420630
_cell_length_c 15.177040
_cell_angle_alpha 90.000000
_cell_angle_beta 90.000000
_cell_angle_gamma 90.000000
_cell_volume 2392.628904
_symmetry_space_group_name_H-M "A B A 2"
_symmetry_group_IT_number 41
_symmetry_cell_setting 'orthorhombic'
loop_
_space_group_symop_operation_xyz
x,y,z
-x,-y,z
1/2-x,y,1/2+z
1/2+x,-y,1/2+z
x,1/2+y,1/2+z
-x,1/2-y,1/2+z
1/2-x,1/2+y,z
1/2+x,1/2-y,z
loop_
_atom_site_type_symbol
_atom_site_label
_atom_site_fract_x
_atom_site_fract_y
_atom_site_fract_z
Si Si1 0.067051 0.418080 0.015880
Si Si2 0.314927 0.472885 0.784444
Si Si3 0.585453 0.818002 0.805904
Si Si4 0.588299 0.392556 0.113304
Si Si5 0.192599 0.478012 0.920986
Si Si6 0.450094 0.651953 0.791214
Si Si7 0.896830 0.739638 0.605462
Si Si8 0.744415 0.879124 0.103109
O O1 0.048941 0.264109 0.074777
O O2 0.091679 0.579490 0.068100
O O3 0.000000 0.500000 0.969425
O O4 0.132575 0.359443 0.956890
O O5 0.366264 0.325619 0.769364
O O6 0.251050 0.429853 0.850172
O O7 0.373242 0.594285 0.826614
O O8 0.281803 0.533361 0.692875
O O9 0.571587 0.914037 0.716765
O O10 0.638626 0.897007 0.875123
O O11 0.509362 0.755299 0.841956
O O12 0.421919 0.432812 0.069274
O O13 0.672106 0.350364 0.109449
O O14 0.231297 0.542816 0.007609
O O15 0.500000 0.500000 0.767257
O O16 0.426251 0.741624 0.703494
O O17 0.810043 0.729019 0.603653
#
# Coordination Sequence:
#
# PCOD9367272 Si02
#       8
#     8   8   8   8   8   8   8   8
#     4  11  26  50  73 108 160 207 256 326 401 466
#     4  10  22  46  76 106 150 206 255 318 397 465
#     4  11  23  41  72 109 150 193 259 314 393 466
#     4  12  25  43  79 116 149 207 260 321 392 469
#     4  11  25  45  72 107 150 199 257 323 382 466
#     4   9  19  42  72 108 154 201 246 327 395 464
#     4  10  23  42  78 113 149 198 265 314 381 478
#     4  10  24  43  71 113 150 198 255 321 388 463
#
# _framework density 26.748819999999998
#
# number of rings (size 3 to 8) (size 9 to 14) (size 15 to 20)
#    0.000    1.500    1.250    4.125    7.000    3.000 
#    4.500    0.000    5.500    0.000    0.000    0.000 
#    0.000    0.000    0.000    0.000    0.000    0.000 
#
# Total GULP energy -178735.052446 kJ/mol
# GULP energy per Si atom -5585.470389 kJ/mol
# Density = 2.668794 g / cm^3
# Si number density = 26.748820 Si / 1000 Ang^3
#
#
#
# Elastic Constant Matrix: (Units=GPa)
#
#
# Indices 1 2 3 4 5 6 
#
# 1 160.9077 46.1730 32.9324 0.0000 0.0000 0.0000
# 2 46.1730 162.9709 50.5244 0.0000 0.0000 0.0000
# 3 32.9324 50.5244 96.9284 0.0000 0.0000 0.0000
# 4 0.0000 0.0000 0.0000 31.9272 0.0000 0.0000
# 5 0.0000 0.0000 0.0000 0.0000 34.0010 0.0000
# 6 0.0000 0.0000 0.0000 0.0000 0.0000 41.4156
#
#
#
# Elastic Compliance Matrix: (Units=1/GPa)
#
#
# Indices 1 2 3 4 5 6 
#
# 1 0.006966 -0.001479 -0.001596 0.000000 0.000000 0.000000
# 2 -0.001479 0.007633 -0.003476 0.000000 0.000000 0.000000
# 3 -0.001596 -0.003476 0.012671 0.000000 0.000000 0.000000
# 4 0.000000 0.000000 0.000000 0.031321 0.000000 0.000000
# 5 0.000000 0.000000 0.000000 0.000000 0.029411 0.000000
# 6 0.000000 0.000000 0.000000 0.000000 0.000000 0.024145
#
#
# Mechanical properties :
#
#
# Convention : Reuss Voigt Hill
#
# Bulk Modulus (GPa) = 70.58206 75.56297 73.07251
# Shear Modulus (GPa) = 38.47000 40.88055 39.67528
#
# Velocity S-wave (km/s) = 3.79647 3.91360 3.85548
# Velocity P-wave (km/s) = 6.75735 6.98084 6.87001
#
# Compressibility (1/GPa) = 0.01416791
#
# Stress axis : x y z
#
# Youngs Moduli (GPa) = 143.56059 131.01491 78.91996
#
# Poissons Ratio (x) = 0.19374 0.12594
# Poissons Ratio (y) = 0.21229 0.27434
# Poissons Ratio (z) = 0.22910 0.45543
#
# Static dielectric constant tensor:
#      x y z
#    x 2.137700 0.000000 0.000000 
#    y 0.000000 2.182100 0.000000 
#    z 0.000000 0.000000 2.119930 
# 
# From -- ./inp_files/8881.got.cif
#   From: 2010.05.17/outbox.cif.g08.bks.cpg/sg41_5_cif.got.tgz:8881.got - 2010.06.03 18:54:24.
