data_PCOD9367015
_publ_section_title
;
Structure prediction by ZEFSAII (Michael W. Deem and Ramdas Pophale) SiO2 
 PCOD9367015
Probable space group: A B A 2
;
_chemical_formula_sum "Si O2"
_cell_formula_units_Z 64
_cell_length_a 19.569076
_cell_length_b 13.468452
_cell_length_c 10.418186
_cell_angle_alpha 90.000000
_cell_angle_beta 90.000000
_cell_angle_gamma 90.000000
_cell_volume 2745.870868
_symmetry_space_group_name_H-M "A B A 2"
_symmetry_group_IT_number 41
_symmetry_cell_setting 'orthorhombic'
loop_
_space_group_symop_operation_xyz
x,y,z
-x,-y,z
1/2-x,y,1/2+z
1/2+x,-y,1/2+z
x,1/2+y,1/2+z
-x,1/2-y,1/2+z
1/2-x,1/2+y,z
1/2+x,1/2-y,z
loop_
_atom_site_type_symbol
_atom_site_label
_atom_site_fract_x
_atom_site_fract_y
_atom_site_fract_z
Si Si1 0.049218 0.773821 0.515760
Si Si2 0.065510 0.549420 0.413990
Si Si3 0.421923 0.012332 0.691179
Si Si4 0.057218 0.221774 0.296239
Si Si5 0.177912 0.132506 0.739946
Si Si6 0.792344 0.492708 0.823068
Si Si7 0.796757 0.692050 0.939766
Si Si8 0.831221 0.298842 0.983834
O O1 0.047420 0.658078 0.470816
O O2 0.031500 0.781117 0.669101
O O3 0.127405 0.812162 0.500428
O O4 0.998996 0.813850 0.402344
O O5 0.081758 0.487743 0.541904
O O6 0.129276 0.564378 0.325299
O O7 0.000000 0.500000 0.349974
O O8 0.409004 0.127280 0.724765
O O9 0.500000 0.000000 0.730889
O O10 0.361291 0.960060 0.764057
O O11 0.119050 0.259950 0.387108
O O12 0.197235 0.229578 0.822331
O O13 0.136129 0.169151 0.617427
O O14 0.243824 0.061613 0.719586
O O15 0.765216 0.587079 0.898989
O O16 0.810471 0.403251 0.918876
O O17 0.738095 0.743379 0.024457
#
# Coordination Sequence:
#
# PCOD9367015 Si02
#       8
#     8   8   8   8   8   8   8   8
#     4  10  22  39  64  91 129 168 216 271 327 388
#     4   9  20  39  59  88 122 167 208 265 325 386
#     4   9  18  37  63  87 120 161 214 261 315 384
#     4  10  22  39  62  90 126 168 213 264 330 384
#     4  10  23  40  63  91 134 165 213 272 325 379
#     4  10  22  39  64  92 122 173 216 262 321 391
#     4  10  23  41  65  92 127 173 221 265 326 394
#     4  10  24  42  63  93 133 169 212 276 325 382
#
# _framework density 23.307725000000001
#
# number of rings (size 3 to 8) (size 9 to 14) (size 15 to 20)
#    0.000    2.250    0.000    0.750   14.000    2.000 
#    2.250    2.500    0.000    0.000    0.000    0.000 
#    0.000    0.000    0.000    0.000    0.000    0.000 
#
# Total GULP energy -178230.945933 kJ/mol
# GULP energy per Si atom -5569.717060 kJ/mol
# Density = 2.325468 g / cm^3
# Si number density = 23.307725 Si / 1000 Ang^3
#
#
#
# Elastic Constant Matrix: (Units=GPa)
#
#
# Indices 1 2 3 4 5 6 
#
# 1 88.0098 10.3708 49.9311 0.0000 0.0000 0.0000
# 2 10.3708 40.8755 4.8866 0.0000 0.0000 0.0000
# 3 49.9311 4.8866 102.9795 0.0000 0.0000 0.0000
# 4 0.0000 0.0000 0.0000 -3.7851 0.0000 0.0000
# 5 0.0000 0.0000 0.0000 0.0000 90.8773 0.0000
# 6 0.0000 0.0000 0.0000 0.0000 0.0000 19.0604
#
#
#
# Elastic Compliance Matrix: (Units=1/GPa)
#
#
# Indices 1 2 3 4 5 6 
#
# 1 0.016071 -0.003164 -0.007642 0.000000 0.000000 0.000000
# 2 -0.003164 0.025227 0.000337 0.000000 0.000000 0.000000
# 3 -0.007642 0.000337 0.013400 0.000000 0.000000 0.000000
# 4 0.000000 0.000000 0.000000 -0.264194 0.000000 0.000000
# 5 0.000000 0.000000 0.000000 0.000000 0.011004 0.000000
# 6 0.000000 0.000000 0.000000 0.000000 0.000000 0.052465
#
#
# Mechanical properties :
#
#
# Convention : Reuss Voigt Hill
#
# Bulk Modulus (GPa) = 29.62088 40.24909 34.93499
# Shear Modulus (GPa) = -43.92267 32.34229 -5.79019
#
# Velocity S-wave (km/s) = -4.34576 3.72912 -1.57786
# Velocity P-wave (km/s) = 3.52769 5.98731 3.42076
#
# Compressibility (1/GPa) = 0.03375997
#
# Stress axis : x y z
#
# Youngs Moduli (GPa) = 62.22472 39.64017 74.62668
#
# Poissons Ratio (x) = 0.12541 0.57030
# Poissons Ratio (y) = 0.19687 -0.02515
# Poissons Ratio (z) = 0.47552 -0.01336
#
# Static dielectric constant tensor:
#      x y z
#    x 1.939420 0.000000 0.000000 
#    y 0.000000 1.945640 0.000000 
#    z 0.000000 0.000000 1.964930 
# 
# From -- ./inp_files/6054.got.cif
#   From: 2010.05.17/outbox.cif.g08.bks.cpg/sg41_4_cif.got.tgz:6054.got - 2010.06.03 18:54:24.
