data_PCOD9367884
_publ_section_title
;
Structure prediction by ZEFSAII (Michael W. Deem and Ramdas Pophale) SiO2 
 PCOD9367884
Probable space group: A B A 2
;
_chemical_formula_sum "Si O2"
_cell_formula_units_Z 36
_cell_length_a 5.056664
_cell_length_b 23.860341
_cell_length_c 13.847806
_cell_angle_alpha 90.000000
_cell_angle_beta 90.000000
_cell_angle_gamma 90.000000
_cell_volume 1670.789410
_symmetry_space_group_name_H-M "A B A 2"
_symmetry_group_IT_number 41
_symmetry_cell_setting 'orthorhombic'
loop_
_space_group_symop_operation_xyz
x,y,z
-x,-y,z
1/2-x,y,1/2+z
1/2+x,-y,1/2+z
x,1/2+y,1/2+z
-x,1/2-y,1/2+z
1/2-x,1/2+y,z
1/2+x,1/2-y,z
loop_
_atom_site_type_symbol
_atom_site_label
_atom_site_fract_x
_atom_site_fract_y
_atom_site_fract_z
Si Si1 0.595899 0.926267 0.681930
Si Si2 0.272888 0.387794 0.356335
Si Si3 0.571445 0.712263 0.733049
Si Si4 0.897222 0.121693 0.577871
Si Si5 0.000000 0.500000 0.288726
O O1 0.513254 0.895142 0.780787
O O2 0.328340 0.920153 0.619403
O O3 0.817982 0.897841 0.615417
O O4 0.755896 0.979731 0.722699
O O5 0.112681 0.335295 0.314194
O O6 0.369983 0.377526 0.463809
O O7 0.105600 0.445988 0.347507
O O8 0.282156 0.738005 0.741175
O O9 0.635542 0.680965 0.631948
#
# Coordination Sequence:
#
# PCOD9367884 Si02
#       5
#     8   8   8   8   4
#     4  11  24  47  67 104 149 185 233 298 356 437
#     4  11  27  46  75 111 146 190 246 300 373 439
#     4  11  24  46  73 102 144 188 240 305 356 425
#     4  11  26  46  75 104 145 190 247 292 366 436
#     4  12  24  48  72 106 152 196 228 312 364 452
#
# _framework density 21.546700999999999
#
# number of rings (size 3 to 8) (size 9 to 14) (size 15 to 20)
#    0.000    0.889    4.444    3.333    3.111    3.556 
#    0.000    0.000    0.000    0.000    0.000    0.000 
#    0.000    0.000    0.000    0.000    0.000    0.000 
#
# Total GULP energy -100538.249965 kJ/mol
# GULP energy per Si atom -5585.458331 kJ/mol
# Density = 2.149766 g / cm^3
# Si number density = 21.546701 Si / 1000 Ang^3
#
#
#
# Elastic Constant Matrix: (Units=GPa)
#
#
# Indices 1 2 3 4 5 6 
#
# 1 92.5001 -3.3267 12.3839 0.0000 0.0000 0.0000
# 2 -3.3267 84.8626 31.1790 0.0000 0.0000 0.0000
# 3 12.3839 31.1790 182.9057 0.0000 0.0000 0.0000
# 4 0.0000 0.0000 0.0000 4.2347 0.0000 0.0000
# 5 0.0000 0.0000 0.0000 0.0000 15.8599 0.0000
# 6 0.0000 0.0000 0.0000 0.0000 0.0000 39.0242
#
#
#
# Elastic Compliance Matrix: (Units=1/GPa)
#
#
# Indices 1 2 3 4 5 6 
#
# 1 0.010954 0.000749 -0.000869 0.000000 0.000000 0.000000
# 2 0.000749 0.012622 -0.002202 0.000000 0.000000 0.000000
# 3 -0.000869 -0.002202 0.005902 0.000000 0.000000 0.000000
# 4 0.000000 0.000000 0.000000 0.236145 0.000000 0.000000
# 5 0.000000 0.000000 0.000000 0.000000 0.063052 0.000000
# 6 0.000000 0.000000 0.000000 0.000000 0.000000 0.025625
#
#
# Mechanical properties :
#
#
# Convention : Reuss Voigt Hill
#
# Bulk Modulus (GPa) = 40.27024 48.97121 44.62072
# Shear Modulus (GPa) = 13.61571 33.15923 23.38747
#
# Velocity S-wave (km/s) = 2.51652 3.92720 3.29816
# Velocity P-wave (km/s) = 5.21288 6.58340 5.93781
#
# Compressibility (1/GPa) = 0.02483224
#
# Stress axis : x y z
#
# Youngs Moduli (GPa) = 91.28992 79.22507 169.44615
#
# Poissons Ratio (x) = -0.05932 0.14730
# Poissons Ratio (y) = -0.06836 0.37318
# Poissons Ratio (z) = 0.07936 0.17448
#
# Static dielectric constant tensor:
#      x y z
#    x 1.822440 0.000000 0.000000 
#    y 0.000000 1.887610 0.000000 
#    z 0.000000 0.000000 1.733710 
# 
# From -- ./inp_files/6786.got.cif
#   From: 2010.05.17/outbox.cif.g08.bks.cpg/sg41_4_cif.got.tgz:6786.got - 2010.06.03 18:54:24.
