data_PCOD9367876
_publ_section_title
;
Structure prediction by ZEFSAII (Michael W. Deem and Ramdas Pophale) SiO2 
 PCOD9367876
Probable space group: A B A 2
;
_chemical_formula_sum "Si O2"
_cell_formula_units_Z 64
_cell_length_a 11.619035
_cell_length_b 29.476815
_cell_length_c 8.550152
_cell_angle_alpha 90.000000
_cell_angle_beta 90.000000
_cell_angle_gamma 90.000000
_cell_volume 2928.359900
_symmetry_space_group_name_H-M "A B A 2"
_symmetry_group_IT_number 41
_symmetry_cell_setting 'orthorhombic'
loop_
_space_group_symop_operation_xyz
x,y,z
-x,-y,z
1/2-x,y,1/2+z
1/2+x,-y,1/2+z
x,1/2+y,1/2+z
-x,1/2-y,1/2+z
1/2-x,1/2+y,z
1/2+x,1/2-y,z
loop_
_atom_site_type_symbol
_atom_site_label
_atom_site_fract_x
_atom_site_fract_y
_atom_site_fract_z
Si Si1 0.181869 0.620360 0.295410
Si Si2 0.917064 0.870678 0.447722
Si Si3 0.548672 0.549501 0.281255
Si Si4 0.564612 0.212012 0.072490
Si Si5 0.008076 0.192202 0.927896
Si Si6 0.783836 0.089986 0.749448
Si Si7 0.272304 0.346039 0.999466
Si Si8 0.490334 0.553155 0.916071
O O1 0.315452 0.629830 0.320704
O O2 0.112787 0.658786 0.391348
O O3 0.132303 0.573684 0.367132
O O4 0.143484 0.620802 0.115227
O O5 0.998362 0.911922 0.394441
O O6 0.987238 0.824227 0.474874
O O7 0.500000 0.500000 0.322727
O O8 0.687258 0.552673 0.281779
O O9 0.511747 0.559528 0.101266
O O10 0.537471 0.205911 0.255405
O O11 0.694265 0.196280 0.040657
O O12 0.542222 0.262769 0.018566
O O13 0.905917 0.165891 0.017470
O O14 0.770300 0.106034 0.572032
O O15 0.909081 0.077154 0.813291
O O16 0.754490 0.139766 0.819684
O O17 0.500000 0.500000 0.884223
#
# Coordination Sequence:
#
# PCOD9367876 Si02
#       8
#     8   8   8   8   8   8   8   8
#     4  11  24  46  65  95 136 179 222 273 341 397
#     4  11  25  45  67  94 137 179 221 277 336 404
#     4  11  25  43  68 102 136 175 228 280 341 401
#     4  11  26  43  67 101 133 176 228 279 343 399
#     4  11  26  44  68 100 134 176 226 283 338 407
#     4  12  22  44  72  96 132 181 225 286 338 404
#     4  12  23  45  71  97 133 176 233 281 340 404
#     4  11  25  44  68 101 137 176 225 283 339 404
#
# _framework density 21.855236999999999
#
# number of rings (size 3 to 8) (size 9 to 14) (size 15 to 20)
#    0.000    0.750    5.000    1.500    5.250    2.500 
#    0.000    0.000    0.000    0.000    0.000    0.000 
#    0.000    0.000    0.000    0.000    0.000    0.000 
#
# Total GULP energy -178865.095229 kJ/mol
# GULP energy per Si atom -5589.534226 kJ/mol
# Density = 2.180549 g / cm^3
# Si number density = 21.855237 Si / 1000 Ang^3
#
#
#
# Elastic Constant Matrix: (Units=GPa)
#
#
# Indices 1 2 3 4 5 6 
#
# 1 86.0593 20.2156 8.9263 0.0000 0.0000 0.0000
# 2 20.2156 115.4075 27.7886 0.0000 0.0000 0.0000
# 3 8.9263 27.7886 41.0509 0.0000 0.0000 0.0000
# 4 0.0000 0.0000 0.0000 33.7126 0.0000 0.0000
# 5 0.0000 0.0000 0.0000 0.0000 33.8034 0.0000
# 6 0.0000 0.0000 0.0000 0.0000 0.0000 34.4919
#
#
#
# Elastic Compliance Matrix: (Units=1/GPa)
#
#
# Indices 1 2 3 4 5 6 
#
# 1 0.012189 -0.001788 -0.001440 0.000000 0.000000 0.000000
# 2 -0.001788 0.010615 -0.006797 0.000000 0.000000 0.000000
# 3 -0.001440 -0.006797 0.029274 0.000000 0.000000 0.000000
# 4 0.000000 0.000000 0.000000 0.029662 0.000000 0.000000
# 5 0.000000 0.000000 0.000000 0.000000 0.029583 0.000000
# 6 0.000000 0.000000 0.000000 0.000000 0.000000 0.028992
#
#
# Mechanical properties :
#
#
# Convention : Reuss Voigt Hill
#
# Bulk Modulus (GPa) = 31.22241 39.59763 35.41002
# Shear Modulus (GPa) = 29.23268 32.77407 31.00338
#
# Velocity S-wave (km/s) = 3.66123 3.87667 3.77049
# Velocity P-wave (km/s) = 5.67361 6.18025 5.93234
#
# Compressibility (1/GPa) = 0.03202828
#
# Stress axis : x y z
#
# Youngs Moduli (GPa) = 82.03874 94.20853 34.16013
#
# Poissons Ratio (x) = 0.16849 0.04918
# Poissons Ratio (y) = 0.14673 0.23217
# Poissons Ratio (z) = 0.11812 0.64029
#
# Static dielectric constant tensor:
#      x y z
#    x 1.798810 0.000000 0.000000 
#    y 0.000000 1.751810 0.000000 
#    z 0.000000 0.000000 1.799280 
# 
# From -- ./inp_files/2233.got.cif
#   From: 2010.05.17/outbox.cif.g08.bks.cpg/sg41_2_cif.got.tgz:2233.got - 2010.06.03 18:54:24.
