data_PCOD9367947
_publ_section_title
;
Structure prediction by ZEFSAII (Michael W. Deem and Ramdas Pophale) SiO2 
 PCOD9367947
Probable space group: A B A 2
;
_chemical_formula_sum "Si O2"
_cell_formula_units_Z 40
_cell_length_a 8.895803
_cell_length_b 17.110431
_cell_length_c 10.274349
_cell_angle_alpha 90.000000
_cell_angle_beta 90.000000
_cell_angle_gamma 90.000000
_cell_volume 1563.869176
_symmetry_space_group_name_H-M "A B A 2"
_symmetry_group_IT_number 41
_symmetry_cell_setting 'orthorhombic'
loop_
_space_group_symop_operation_xyz
x,y,z
-x,-y,z
1/2-x,y,1/2+z
1/2+x,-y,1/2+z
x,1/2+y,1/2+z
-x,1/2-y,1/2+z
1/2-x,1/2+y,z
1/2+x,1/2-y,z
loop_
_atom_site_type_symbol
_atom_site_label
_atom_site_fract_x
_atom_site_fract_y
_atom_site_fract_z
Si Si1 0.197579 0.405259 0.675500
Si Si2 0.105118 0.757227 0.351111
Si Si3 0.500000 0.000000 0.850091
Si Si4 0.499876 0.336864 0.620659
Si Si5 0.272518 0.113475 0.957324
Si Si6 0.000000 0.000000 0.985848
O O1 0.159075 0.328325 0.758856
O O2 0.141912 0.474928 0.765426
O O3 0.370641 0.402203 0.636723
O O4 0.091843 0.426925 0.553525
O O5 0.045312 0.784912 0.493449
O O6 0.230798 0.693183 0.387145
O O7 0.993173 0.711777 0.254424
O O8 0.569314 0.926490 0.920768
O O9 0.674374 0.363729 0.603711
O O10 0.139386 0.051852 0.935542
#
# Coordination Sequence:
#
# PCOD9367947 Si02
#       6
#     8   8   4   8   8   4
#     4  11  26  48  77 112 162 213 272 343 415 505
#     4  12  27  50  84 125 157 225 281 355 414 515
#     4  11  26  50  75 116 170 211 277 354 428 503
#     4  12  27  50  84 114 168 211 282 341 426 490
#     4  12  27  50  79 120 166 223 275 347 420 513
#     4  11  28  48  79 116 168 217 271 342 432 509
#
# _framework density 25.577587999999999
#
# number of rings (size 3 to 8) (size 9 to 14) (size 15 to 20)
#    0.000    0.400    2.000    4.800    8.400    0.000 
#    0.000    0.000    0.000    0.000    0.000    0.000 
#    0.000    0.000    0.000    0.000    0.000    0.000 
#
# Total GULP energy -111514.190720 kJ/mol
# GULP energy per Si atom -5575.709536 kJ/mol
# Density = 2.551937 g / cm^3
# Si number density = 25.577588 Si / 1000 Ang^3
#
#
#
# Elastic Constant Matrix: (Units=GPa)
#
#
# Indices 1 2 3 4 5 6 
#
# 1 132.2552 72.4740 44.5798 0.0000 0.0000 0.0000
# 2 72.4740 106.0981 46.9514 0.0000 0.0000 0.0000
# 3 44.5798 46.9514 61.8744 0.0000 0.0000 0.0000
# 4 0.0000 0.0000 0.0000 210.2689 0.0000 0.0000
# 5 0.0000 0.0000 0.0000 0.0000 68.4677 0.0000
# 6 0.0000 0.0000 0.0000 0.0000 0.0000 51.3433
#
#
#
# Elastic Compliance Matrix: (Units=1/GPa)
#
#
# Indices 1 2 3 4 5 6 
#
# 1 0.012667 -0.006947 -0.003855 0.000000 0.000000 0.000000
# 2 -0.006947 0.018000 -0.008654 0.000000 0.000000 0.000000
# 3 -0.003855 -0.008654 0.025506 0.000000 0.000000 0.000000
# 4 0.000000 0.000000 0.000000 0.004756 0.000000 0.000000
# 5 0.000000 0.000000 0.000000 0.000000 0.014605 0.000000
# 6 0.000000 0.000000 0.000000 0.000000 0.000000 0.019477
#
#
# Mechanical properties :
#
#
# Convention : Reuss Voigt Hill
#
# Bulk Modulus (GPa) = 57.93121 69.80424 63.86773
# Shear Modulus (GPa) = 35.79687 75.09748 55.44718
#
# Velocity S-wave (km/s) = 3.74510 5.42443 4.66102
# Velocity P-wave (km/s) = 6.43424 8.15984 7.34787
#
# Compressibility (1/GPa) = 0.01726185
#
# Stress axis : x y z
#
# Youngs Moduli (GPa) = 78.94247 55.55559 39.20641
#
# Poissons Ratio (x) = 0.38594 0.15116
# Poissons Ratio (y) = 0.54840 0.33928
# Poissons Ratio (z) = 0.30435 0.48076
#
# Static dielectric constant tensor:
#      x y z
#    x 1.793030 0.000000 0.000000 
#    y 0.000000 1.886450 0.000000 
#    z 0.000000 0.000000 2.219750 
# 
# From -- ./inp_files/4402.got.cif
#   From: 2010.05.17/outbox.cif.g08.bks.cpg/sg41_3_cif.got.tgz:4402.got - 2010.06.03 18:54:24.
