data_PCOD9367152
_publ_section_title
;
Structure prediction by ZEFSAII (Michael W. Deem and Ramdas Pophale) SiO2 
 PCOD9367152
Probable space group: A B A 2
;
_chemical_formula_sum "Si O2"
_cell_formula_units_Z 64
_cell_length_a 29.249332
_cell_length_b 5.060079
_cell_length_c 17.548193
_cell_angle_alpha 90.000000
_cell_angle_beta 90.000000
_cell_angle_gamma 90.000000
_cell_volume 2597.201539
_symmetry_space_group_name_H-M "A B A 2"
_symmetry_group_IT_number 41
_symmetry_cell_setting 'orthorhombic'
loop_
_space_group_symop_operation_xyz
x,y,z
-x,-y,z
1/2-x,y,1/2+z
1/2+x,-y,1/2+z
x,1/2+y,1/2+z
-x,1/2-y,1/2+z
1/2-x,1/2+y,z
1/2+x,1/2-y,z
loop_
_atom_site_type_symbol
_atom_site_label
_atom_site_fract_x
_atom_site_fract_y
_atom_site_fract_z
Si Si1 0.910805 0.969581 0.406110
Si Si2 0.960137 0.310055 0.122979
Si Si3 0.910805 0.969581 0.016735
Si Si4 0.863686 0.127709 0.623401
Si Si5 0.636314 0.627709 0.799445
Si Si6 0.039863 0.689945 0.299866
Si Si7 0.723009 0.294645 0.618736
Si Si8 0.723009 0.294645 0.804110
O O1 0.911850 0.220815 0.460953
O O2 0.950800 0.045253 0.347013
O O3 0.911850 0.720815 0.461892
O O4 0.869542 0.888034 0.350118
O O5 0.912115 0.472630 0.120994
O O6 0.969637 0.251571 0.211423
O O7 0.000000 0.500000 0.092679
O O8 0.950800 0.045253 0.075832
O O9 0.869542 0.888034 0.072728
O O10 0.854461 0.200907 0.711423
O O11 0.824116 0.933052 0.595015
O O12 0.587885 0.472630 0.801851
O O13 0.675884 0.433052 0.827831
O O14 0.000000 0.500000 0.330166
O O15 0.762627 0.502047 0.594997
O O16 0.721467 0.287745 0.711423
O O17 0.762627 0.502047 0.827849
#
# Coordination Sequence:
#
# PCOD9367152 Si02
#       8
#     8   8   8   8   8   8   8   8
#     4  12  25  44  66  95 133 175 220 269 326 396
#     4  10  23  44  69  99 135 179 230 280 336 401
#     4  12  25  44  66  95 133 175 220 269 326 396
#     4  10  22  42  69  97 132 172 219 277 335 394
#     4  10  22  42  69  97 132 172 219 277 335 394
#     4  10  23  44  69  99 135 179 230 280 336 401
#     4   9  19  34  60  97 127 157 208 273 334 390
#     4   9  19  34  60  97 127 157 208 273 334 390
#
# _framework density 24.641908000000001
#
# number of rings (size 3 to 8) (size 9 to 14) (size 15 to 20)
#    0.000    1.750    2.500    0.750    3.500    2.000 
#    0.000    3.750    0.000    4.500    0.000    0.000 
#    0.000    0.000    0.000    0.000    0.000    0.000 
#
# Total GULP energy -178973.820478 kJ/mol
# GULP energy per Si atom -5592.931890 kJ/mol
# Density = 2.458582 g / cm^3
# Si number density = 24.641908 Si / 1000 Ang^3
#
#
#
# Elastic Constant Matrix: (Units=GPa)
#
#
# Indices 1 2 3 4 5 6 
#
# 1 107.8802 11.0180 -14.9474 0.0000 0.0000 0.0000
# 2 11.0180 156.0724 33.5208 0.0000 0.0000 0.0000
# 3 -14.9474 33.5208 69.8952 0.0000 0.0000 0.0000
# 4 0.0000 0.0000 0.0000 5.2155 0.0000 0.0000
# 5 0.0000 0.0000 0.0000 0.0000 3.7453 0.0000
# 6 0.0000 0.0000 0.0000 0.0000 0.0000 43.3441
#
#
#
# Elastic Compliance Matrix: (Units=1/GPa)
#
#
# Indices 1 2 3 4 5 6 
#
# 1 0.009773 -0.001270 0.002699 0.000000 0.000000 0.000000
# 2 -0.001270 0.007308 -0.003776 0.000000 0.000000 0.000000
# 3 0.002699 -0.003776 0.016695 0.000000 0.000000 0.000000
# 4 0.000000 0.000000 0.000000 0.191734 0.000000 0.000000
# 5 0.000000 0.000000 0.000000 0.000000 0.267003 0.000000
# 6 0.000000 0.000000 0.000000 0.000000 0.000000 0.023071
#
#
# Mechanical properties :
#
#
# Convention : Reuss Voigt Hill
#
# Bulk Modulus (GPa) = 34.38495 43.67008 39.02752
# Shear Modulus (GPa) = 9.43444 30.74475 20.08959
#
# Velocity S-wave (km/s) = 1.95881 3.53606 2.85838
# Velocity P-wave (km/s) = 4.37036 5.86787 5.17359
#
# Compressibility (1/GPa) = 0.02908249
#
# Stress axis : x y z
#
# Youngs Moduli (GPa) = 102.32107 136.83668 59.89683
#
# Poissons Ratio (x) = 0.17373 -0.16166
# Poissons Ratio (y) = 0.12991 0.22619
# Poissons Ratio (z) = -0.27616 0.51674
#
# Static dielectric constant tensor:
#      x y z
#    x 2.037940 0.000000 0.000000 
#    y 0.000000 1.987280 0.000000 
#    z 0.000000 0.000000 1.967090 
# 
# From -- ./inp_files/10839.got.cif
#   From: 2010.05.17/outbox.cif.g08.bks.cpg/sg41_6_cif.got.tgz:10839.got - 2010.06.03 18:54:24.
