data_PCOD9367982
_publ_section_title
;
Structure prediction by ZEFSAII (Michael W. Deem and Ramdas Pophale) SiO2 
 PCOD9367982
Probable space group: A B A 2
;
_chemical_formula_sum "Si O2"
_cell_formula_units_Z 44
_cell_length_a 13.092980
_cell_length_b 17.107858
_cell_length_c 8.820410
_cell_angle_alpha 90.000000
_cell_angle_beta 90.000000
_cell_angle_gamma 90.000000
_cell_volume 1975.708709
_symmetry_space_group_name_H-M "A B A 2"
_symmetry_group_IT_number 41
_symmetry_cell_setting 'orthorhombic'
loop_
_space_group_symop_operation_xyz
x,y,z
-x,-y,z
1/2-x,y,1/2+z
1/2+x,-y,1/2+z
x,1/2+y,1/2+z
-x,1/2-y,1/2+z
1/2-x,1/2+y,z
1/2+x,1/2-y,z
loop_
_atom_site_type_symbol
_atom_site_label
_atom_site_fract_x
_atom_site_fract_y
_atom_site_fract_z
Si Si1 0.675732 0.705779 0.112890
Si Si2 0.818301 0.058544 0.592150
Si Si3 0.717812 0.810615 0.400557
Si Si4 0.000000 0.000000 0.807368
Si Si5 0.831548 0.465064 0.791998
Si Si6 0.538742 0.878174 0.571002
O O1 0.771472 0.645292 0.104625
O O2 0.676999 0.758997 0.262280
O O3 0.570485 0.659986 0.095659
O O4 0.688496 0.764060 0.972828
O O5 0.844136 0.029146 0.423467
O O6 0.725835 0.005027 0.652057
O O7 0.912523 0.037926 0.702125
O O8 0.759797 0.894780 0.350927
O O9 0.631224 0.819703 0.529803
O O10 0.036226 0.067004 0.922504
O O11 0.931041 0.425804 0.720905
#
# Coordination Sequence:
#
# PCOD9367982 Si02
#       6
#     8   8   8   4   8   8
#     4  12  28  45  73 109 148 186 249 310 366 441
#     4  12  25  47  74 106 146 193 250 310 365 442
#     4  12  25  48  70 106 145 194 237 303 373 444
#     4  12  26  46  74 112 144 196 252 310 366 436
#     4  12  23  48  74 100 142 199 247 295 376 442
#     4  12  26  46  76 107 152 195 248 306 380 440
#
# _framework density 22.270489000000001
#
# number of rings (size 3 to 8) (size 9 to 14) (size 15 to 20)
#    0.000    0.000    5.455    4.364    2.545    5.091 
#    0.000    0.000    0.000    0.000    0.000    0.000 
#    0.000    0.000    0.000    0.000    0.000    0.000 
#
# Total GULP energy -123174.050682 kJ/mol
# GULP energy per Si atom -5598.820486 kJ/mol
# Density = 2.221980 g / cm^3
# Si number density = 22.270489 Si / 1000 Ang^3
#
#
#
# Elastic Constant Matrix: (Units=GPa)
#
#
# Indices 1 2 3 4 5 6 
#
# 1 67.3209 9.8190 6.5136 0.0000 0.0000 0.0000
# 2 9.8190 86.1765 9.8823 0.0000 0.0000 0.0000
# 3 6.5136 9.8823 86.2752 0.0000 0.0000 0.0000
# 4 0.0000 0.0000 0.0000 83.1164 0.0000 0.0000
# 5 0.0000 0.0000 0.0000 0.0000 39.2513 0.0000
# 6 0.0000 0.0000 0.0000 0.0000 0.0000 38.8549
#
#
#
# Elastic Compliance Matrix: (Units=1/GPa)
#
#
# Indices 1 2 3 4 5 6 
#
# 1 0.015183 -0.001620 -0.000961 0.000000 0.000000 0.000000
# 2 -0.001620 0.011931 -0.001244 0.000000 0.000000 0.000000
# 3 -0.000961 -0.001244 0.011806 0.000000 0.000000 0.000000
# 4 0.000000 0.000000 0.000000 0.012031 0.000000 0.000000
# 5 0.000000 0.000000 0.000000 0.000000 0.025477 0.000000
# 6 0.000000 0.000000 0.000000 0.000000 0.000000 0.025737
#
#
# Mechanical properties :
#
#
# Convention : Reuss Voigt Hill
#
# Bulk Modulus (GPa) = 31.97879 32.46693 32.22286
# Shear Modulus (GPa) = 41.58377 46.48170 44.03273
#
# Velocity S-wave (km/s) = 4.32582 4.57348 4.45137
# Velocity P-wave (km/s) = 6.27221 6.51913 6.39686
#
# Compressibility (1/GPa) = 0.03127073
#
# Stress axis : x y z
#
# Youngs Moduli (GPa) = 65.86117 83.81273 84.70354
#
# Poissons Ratio (x) = 0.13576 0.08138
# Poissons Ratio (y) = 0.10668 0.10540
# Poissons Ratio (z) = 0.06328 0.10429
#
# Static dielectric constant tensor:
#      x y z
#    x 2.217460 0.000000 0.000000 
#    y 0.000000 1.676230 0.000000 
#    z 0.000000 0.000000 1.797130 
# 
# From -- ./inp_files/2482.got.cif
#   From: 2010.05.17/outbox.cif.g08.bks.cpg/sg41_2_cif.got.tgz:2482.got - 2010.06.03 18:54:24.
