data_PCOD9367625
_publ_section_title
;
Structure prediction by ZEFSAII (Michael W. Deem and Ramdas Pophale) SiO2 
 PCOD9367625
Probable space group: A B A 2
;
_chemical_formula_sum "Si O2"
_cell_formula_units_Z 32
_cell_length_a 5.064605
_cell_length_b 30.517730
_cell_length_c 6.750919
_cell_angle_alpha 90.000000
_cell_angle_beta 90.000000
_cell_angle_gamma 90.000000
_cell_volume 1043.423715
_symmetry_space_group_name_H-M "A B A 2"
_symmetry_group_IT_number 41
_symmetry_cell_setting 'orthorhombic'
loop_
_space_group_symop_operation_xyz
x,y,z
-x,-y,z
1/2-x,y,1/2+z
1/2+x,-y,1/2+z
x,1/2+y,1/2+z
-x,1/2-y,1/2+z
1/2-x,1/2+y,z
1/2+x,1/2-y,z
loop_
_atom_site_type_symbol
_atom_site_label
_atom_site_fract_x
_atom_site_fract_y
_atom_site_fract_z
Si Si1 0.232811 0.100616 0.280680
Si Si2 0.877782 0.653185 0.535504
Si Si3 0.757169 0.468375 0.036875
Si Si4 0.012216 0.718138 0.850440
O O1 0.940812 0.113706 0.192704
O O2 0.452771 0.136560 0.346348
O O3 0.165077 0.088508 0.531902
O O4 0.276778 0.045906 0.287974
O O5 0.033009 0.692258 0.644072
O O6 0.605682 0.678205 0.484790
O O7 0.500000 0.500000 0.052172
O O8 0.000000 0.500000 0.020730
O O9 0.270718 0.747643 0.856426
#
# Coordination Sequence:
#
# PCOD9367625 Si02
#       4
#     8   8   8   8
#     4  10  25  46  77 116 156 208 262 330 401 472
#     4  11  26  48  77 116 160 206 270 333 406 486
#     4  11  24  46  73 110 158 210 262 321 394 480
#     4  12  27  50  77 110 152 208 264 330 405 484
#
# _framework density 30.668267
#
# number of rings (size 3 to 8) (size 9 to 14) (size 15 to 20)
#    0.000    1.000    0.000    4.500    0.000   16.000 
#    0.000    0.000    0.000    0.000    0.000    0.000 
#    0.000    0.000    0.000    0.000    0.000    0.000 
#
# Total GULP energy -89225.161629 kJ/mol
# GULP energy per Si atom -5576.572602 kJ/mol
# Density = 3.059846 g / cm^3
# Si number density = 30.668267 Si / 1000 Ang^3
#
#
#
# Elastic Constant Matrix: (Units=GPa)
#
#
# Indices 1 2 3 4 5 6 
#
# 1 215.7636 87.6542 58.8982 0.0000 0.0000 0.0000
# 2 87.6542 200.1841 126.2025 0.0000 0.0000 0.0000
# 3 58.8982 126.2025 285.8905 0.0000 0.0000 0.0000
# 4 0.0000 0.0000 0.0000 151.3668 0.0000 0.0000
# 5 0.0000 0.0000 0.0000 0.0000 56.5523 0.0000
# 6 0.0000 0.0000 0.0000 0.0000 0.0000 51.7170
#
#
#
# Elastic Compliance Matrix: (Units=1/GPa)
#
#
# Indices 1 2 3 4 5 6 
#
# 1 0.005640 -0.002407 -0.000099 0.000000 0.000000 0.000000
# 2 -0.002407 0.007949 -0.003013 0.000000 0.000000 0.000000
# 3 -0.000099 -0.003013 0.004848 0.000000 0.000000 0.000000
# 4 0.000000 0.000000 0.000000 0.006606 0.000000 0.000000
# 5 0.000000 0.000000 0.000000 0.000000 0.017683 0.000000
# 6 0.000000 0.000000 0.000000 0.000000 0.000000 0.019336
#
#
# Mechanical properties :
#
#
# Convention : Reuss Voigt Hill
#
# Bulk Modulus (GPa) = 135.16542 138.59422 136.87982
# Shear Modulus (GPa) = 66.16699 80.53278 73.34988
#
# Velocity S-wave (km/s) = 4.64994 5.12994 4.89583
# Velocity P-wave (km/s) = 8.54390 8.96537 8.75717
#
# Compressibility (1/GPa) = 0.00739834
#
# Stress axis : x y z
#
# Youngs Moduli (GPa) = 177.31855 125.80626 206.25386
#
# Poissons Ratio (x) = 0.30278 0.02051
# Poissons Ratio (y) = 0.42675 0.62145
# Poissons Ratio (z) = 0.01763 0.37906
#
# Static dielectric constant tensor:
#      x y z
#    x 2.213500 0.000000 0.000000 
#    y 0.000000 2.310420 0.000000 
#    z 0.000000 0.000000 2.922330 
# 
# From -- ./inp_files/1519.got.cif
#   From: 2010.05.17/outbox.cif.g08.bks.cpg/sg41_1_cif.got.tgz:1519.got - 2010.06.03 18:54:24.
