data_PCOD9367926
_publ_section_title
;
Structure prediction by ZEFSAII (Michael W. Deem and Ramdas Pophale) SiO2 
 PCOD9367926
Probable space group: A B A 2
;
_chemical_formula_sum "Si O2"
_cell_formula_units_Z 40
_cell_length_a 10.321279
_cell_length_b 17.727102
_cell_length_c 7.879058
_cell_angle_alpha 90.000000
_cell_angle_beta 90.000000
_cell_angle_gamma 90.000000
_cell_volume 1441.602607
_symmetry_space_group_name_H-M "A B A 2"
_symmetry_group_IT_number 41
_symmetry_cell_setting 'orthorhombic'
loop_
_space_group_symop_operation_xyz
x,y,z
-x,-y,z
1/2-x,y,1/2+z
1/2+x,-y,1/2+z
x,1/2+y,1/2+z
-x,1/2-y,1/2+z
1/2-x,1/2+y,z
1/2+x,1/2-y,z
loop_
_atom_site_type_symbol
_atom_site_label
_atom_site_fract_x
_atom_site_fract_y
_atom_site_fract_z
Si Si1 0.821953 0.093675 0.554880
Si Si2 0.423553 0.122239 0.260084
Si Si3 0.208396 0.757591 0.128955
Si Si4 0.054086 0.167215 0.148907
Si Si5 0.177944 0.515459 0.761971
O O1 0.771556 0.177469 0.509620
O O2 0.933959 0.101392 0.695818
O O3 0.868041 0.034371 0.417451
O O4 0.697918 0.047758 0.620756
O O5 0.362919 0.175854 0.110805
O O6 0.431317 0.164144 0.442734
O O7 0.320236 0.054892 0.284458
O O8 0.337898 0.725690 0.219448
O O9 0.085369 0.803004 0.199058
O O10 0.089161 0.084740 0.212399
#
# Coordination Sequence:
#
# PCOD9367926 Si02
#       5
#     8   8   8   8   8
#     4  12  25  50  82 119 165 225 283 348 437 514
#     4  11  25  49  79 119 172 219 285 353 430 515
#     4  11  26  45  78 123 161 223 280 351 422 514
#     4  11  25  50  78 122 169 222 285 353 432 510
#     4  11  26  50  78 119 167 225 277 357 429 520
#
# _framework density 27.746898999999999
#
# number of rings (size 3 to 8) (size 9 to 14) (size 15 to 20)
#    0.000    0.800    4.000    1.800    5.600    0.800 
#    7.200    0.000    0.000    0.000    0.000    0.000 
#    0.000    0.000    0.000    0.000    0.000    0.000 
#
# Total GULP energy -111809.692769 kJ/mol
# GULP energy per Si atom -5590.484638 kJ/mol
# Density = 2.768375 g / cm^3
# Si number density = 27.746899 Si / 1000 Ang^3
#
#
#
# Elastic Constant Matrix: (Units=GPa)
#
#
# Indices 1 2 3 4 5 6 
#
# 1 187.9501 82.1877 47.9552 0.0000 0.0000 0.0000
# 2 82.1877 226.7019 63.7358 0.0000 0.0000 0.0000
# 3 47.9552 63.7358 108.0968 0.0000 0.0000 0.0000
# 4 0.0000 0.0000 0.0000 45.3059 0.0000 0.0000
# 5 0.0000 0.0000 0.0000 0.0000 15.7846 0.0000
# 6 0.0000 0.0000 0.0000 0.0000 0.0000 58.5221
#
#
#
# Elastic Compliance Matrix: (Units=1/GPa)
#
#
# Indices 1 2 3 4 5 6 
#
# 1 0.006609 -0.001884 -0.001821 0.000000 0.000000 0.000000
# 2 -0.001884 0.005825 -0.002599 0.000000 0.000000 0.000000
# 3 -0.001821 -0.002599 0.011591 0.000000 0.000000 0.000000
# 4 0.000000 0.000000 0.000000 0.022072 0.000000 0.000000
# 5 0.000000 0.000000 0.000000 0.000000 0.063353 0.000000
# 6 0.000000 0.000000 0.000000 0.000000 0.000000 0.017088
#
#
# Mechanical properties :
#
#
# Convention : Reuss Voigt Hill
#
# Bulk Modulus (GPa) = 87.58567 101.16735 94.37651
# Shear Modulus (GPa) = 34.97713 45.84721 40.41217
#
# Velocity S-wave (km/s) = 3.55431 4.06930 3.82050
# Velocity P-wave (km/s) = 6.96266 7.65630 7.31770
#
# Compressibility (1/GPa) = 0.01141739
#
# Stress axis : x y z
#
# Youngs Moduli (GPa) = 151.30696 171.68376 86.27374
#
# Poissons Ratio (x) = 0.32346 0.15712
# Poissons Ratio (y) = 0.28507 0.22418
# Poissons Ratio (z) = 0.27555 0.44612
#
# Static dielectric constant tensor:
#      x y z
#    x 2.122030 0.000000 0.000000 
#    y 0.000000 2.085590 0.000000 
#    z 0.000000 0.000000 2.345120 
# 
# From -- ./inp_files/2013.got.cif
#   From: 2010.05.17/outbox.cif.g08.bks.cpg/sg41_2_cif.got.tgz:2013.got - 2010.06.03 18:54:24.
