data_PCOD9367414
_publ_section_title
;
Structure prediction by ZEFSAII (Michael W. Deem and Ramdas Pophale) SiO2 
 PCOD9367414
Probable space group: A B A 2
;
_chemical_formula_sum "Si O2"
_cell_formula_units_Z 40
_cell_length_a 10.569130
_cell_length_b 18.128937
_cell_length_c 7.209515
_cell_angle_alpha 90.000000
_cell_angle_beta 90.000000
_cell_angle_gamma 90.000000
_cell_volume 1381.394203
_symmetry_space_group_name_H-M "A B A 2"
_symmetry_group_IT_number 41
_symmetry_cell_setting 'orthorhombic'
loop_
_space_group_symop_operation_xyz
x,y,z
-x,-y,z
1/2-x,y,1/2+z
1/2+x,-y,1/2+z
x,1/2+y,1/2+z
-x,1/2-y,1/2+z
1/2-x,1/2+y,z
1/2+x,1/2-y,z
loop_
_atom_site_type_symbol
_atom_site_label
_atom_site_fract_x
_atom_site_fract_y
_atom_site_fract_z
Si Si1 0.323889 0.262424 0.872960
Si Si2 0.425213 0.618556 0.475272
Si Si3 0.179272 0.518097 0.453319
Si Si4 0.920453 0.330350 0.417682
Si Si5 0.823531 0.590386 0.143287
O O1 0.444972 0.298297 0.975897
O O2 0.191405 0.229189 0.947495
O O3 0.297924 0.330810 0.736056
O O4 0.390951 0.183728 0.832473
O O5 0.320048 0.555875 0.437887
O O6 0.411077 0.650708 0.691284
O O7 0.572282 0.598597 0.482637
O O8 0.100911 0.589391 0.503851
O O9 0.128262 0.474907 0.276052
O O10 0.195310 0.448303 0.583618
#
# Coordination Sequence:
#
# PCOD9367414 Si02
#       5
#     8   8   8   8   8
#     4  10  25  42  76 107 152 203 264 327 403 476
#     4  10  23  47  73 105 162 202 265 339 408 488
#     4  11  23  43  76 107 152 210 260 331 407 479
#     4  10  23  45  71 112 150 209 258 330 404 482
#     4  11  25  44  77 111 152 212 270 334 407 493
#
# _framework density 28.956250000000001
#
# number of rings (size 3 to 8) (size 9 to 14) (size 15 to 20)
#    0.000    1.600    2.000    0.600    8.400    4.800 
#    0.000    0.000   22.000    0.000    0.000    0.000 
#    0.000    0.000    0.000    0.000    0.000    0.000 
#
# Total GULP energy -111679.793225 kJ/mol
# GULP energy per Si atom -5583.989661 kJ/mol
# Density = 2.889034 g / cm^3
# Si number density = 28.956250 Si / 1000 Ang^3
#
#
#
# Elastic Constant Matrix: (Units=GPa)
#
#
# Indices 1 2 3 4 5 6 
#
# 1 171.7903 100.8140 53.3951 0.0000 0.0000 0.0000
# 2 100.8140 297.0896 67.1397 0.0000 0.0000 0.0000
# 3 53.3951 67.1397 56.7893 0.0000 0.0000 0.0000
# 4 0.0000 0.0000 0.0000 69.9135 0.0000 0.0000
# 5 0.0000 0.0000 0.0000 0.0000 30.2984 0.0000
# 6 0.0000 0.0000 0.0000 0.0000 0.0000 68.5773
#
#
#
# Elastic Compliance Matrix: (Units=1/GPa)
#
#
# Indices 1 2 3 4 5 6 
#
# 1 0.008691 -0.001504 -0.006393 0.000000 0.000000 0.000000
# 2 -0.001504 0.004854 -0.004324 0.000000 0.000000 0.000000
# 3 -0.006393 -0.004324 0.028731 0.000000 0.000000 0.000000
# 4 0.000000 0.000000 0.000000 0.014303 0.000000 0.000000
# 5 0.000000 0.000000 0.000000 0.000000 0.033005 0.000000
# 6 0.000000 0.000000 0.000000 0.000000 0.000000 0.014582
#
#
# Mechanical properties :
#
#
# Convention : Reuss Voigt Hill
#
# Bulk Modulus (GPa) = 56.07266 107.59630 81.83448
# Shear Modulus (GPa) = 37.16002 54.04586 45.60294
#
# Velocity S-wave (km/s) = 3.58623 4.32495 3.97280
# Velocity P-wave (km/s) = 6.04605 7.88537 7.02616
#
# Compressibility (1/GPa) = 0.01783400
#
# Stress axis : x y z
#
# Youngs Moduli (GPa) = 115.06276 206.03144 34.80505
#
# Poissons Ratio (x) = 0.30996 0.22250
# Poissons Ratio (y) = 0.17310 0.15049
# Poissons Ratio (z) = 0.73558 0.89082
#
# Static dielectric constant tensor:
#      x y z
#    x 2.237910 0.000000 0.000000 
#    y 0.000000 2.113080 0.000000 
#    z 0.000000 0.000000 2.628900 
# 
# From -- ./inp_files/1999.got.cif
#   From: 2010.05.17/outbox.cif.g08.bks.cpg/sg41_1_cif.got.tgz:1999.got - 2010.06.03 18:54:24.
