data_PCOD9367116
_publ_section_title
;
Structure prediction by ZEFSAII (Michael W. Deem and Ramdas Pophale) SiO2 
 PCOD9367116
Probable space group: A B A 2
;
_chemical_formula_sum "Si O2"
_cell_formula_units_Z 60
_cell_length_a 9.810142
_cell_length_b 32.167226
_cell_length_c 9.511375
_cell_angle_alpha 90.000000
_cell_angle_beta 90.000000
_cell_angle_gamma 90.000000
_cell_volume 3001.457573
_symmetry_space_group_name_H-M "A B A 2"
_symmetry_group_IT_number 41
_symmetry_cell_setting 'orthorhombic'
loop_
_space_group_symop_operation_xyz
x,y,z
-x,-y,z
1/2-x,y,1/2+z
1/2+x,-y,1/2+z
x,1/2+y,1/2+z
-x,1/2-y,1/2+z
1/2-x,1/2+y,z
1/2+x,1/2-y,z
loop_
_atom_site_type_symbol
_atom_site_label
_atom_site_fract_x
_atom_site_fract_y
_atom_site_fract_z
Si Si1 0.576048 0.570647 0.154620
Si Si2 0.330244 0.189447 0.181510
Si Si3 0.725407 0.226934 0.026221
Si Si4 0.990858 0.217363 0.936571
Si Si5 0.699168 0.563400 0.441056
Si Si6 0.000000 0.000000 0.341798
Si Si7 0.569027 0.650113 0.508579
Si Si8 0.471900 0.659010 0.196671
O O1 0.499480 0.613581 0.135672
O O2 0.475623 0.537963 0.232264
O O3 0.694404 0.574704 0.275044
O O4 0.655499 0.558643 0.014106
O O5 0.288429 0.235014 0.118432
O O6 0.422755 0.195085 0.318499
O O7 0.424485 0.161911 0.078635
O O8 0.187999 0.167672 0.217180
O O9 0.685568 0.180363 0.073286
O O10 0.578710 0.242809 0.975333
O O11 0.834823 0.225337 0.898918
O O12 0.980320 0.191913 0.081092
O O13 0.617172 0.519754 0.438767
O O14 0.616895 0.602019 0.512040
O O15 0.550253 0.660769 0.343632
#
# Coordination Sequence:
#
# PCOD9367116 Si02
#       8
#     8   8   8   8   8   4   8   8
#     4   9  19  41  68  94 132 173 215 276 341 415
#     4  11  25  41  58  92 128 170 230 278 335 397
#     4  11  24  38  59  87 123 175 221 279 330 385
#     4  11  25  38  61  87 127 169 226 279 333 397
#     4   9  20  40  66  96 131 172 223 268 346 410
#     4   8  20  42  64  98 134 166 210 286 330 412
#     4  11  23  41  63  89 130 177 221 275 333 408
#     4  10  22  42  60  89 126 168 215 279 335 398
#
# _framework density 19.990288
#
# number of rings (size 3 to 8) (size 9 to 14) (size 15 to 20)
#    0.800    1.067    1.333    2.400    3.733    3.200 
#    2.400    0.667    0.000    0.000    0.000    0.000 
#    0.000    0.000    0.000    0.000    0.000    0.000 
#
# Total GULP energy -167011.559168 kJ/mol
# GULP energy per Si atom -5567.051972 kJ/mol
# Density = 1.994479 g / cm^3
# Si number density = 19.990288 Si / 1000 Ang^3
#
#
#
# Elastic Constant Matrix: (Units=GPa)
#
#
# Indices 1 2 3 4 5 6 
#
# 1 101.2981 42.6643 11.7722 0.0000 0.0000 0.0000
# 2 42.6643 97.1344 12.4482 0.0000 0.0000 0.0000
# 3 11.7722 12.4482 46.2900 0.0000 0.0000 0.0000
# 4 0.0000 0.0000 0.0000 18.3032 0.0000 0.0000
# 5 0.0000 0.0000 0.0000 0.0000 41.0662 0.0000
# 6 0.0000 0.0000 0.0000 0.0000 0.0000 27.6870
#
#
#
# Elastic Compliance Matrix: (Units=1/GPa)
#
#
# Indices 1 2 3 4 5 6 
#
# 1 0.012244 -0.005157 -0.001727 0.000000 0.000000 0.000000
# 2 -0.005157 0.012834 -0.002140 0.000000 0.000000 0.000000
# 3 -0.001727 -0.002140 0.022618 0.000000 0.000000 0.000000
# 4 0.000000 0.000000 0.000000 0.054635 0.000000 0.000000
# 5 0.000000 0.000000 0.000000 0.000000 0.024351 0.000000
# 6 0.000000 0.000000 0.000000 0.000000 0.000000 0.036118
#
#
# Mechanical properties :
#
#
# Convention : Reuss Voigt Hill
#
# Bulk Modulus (GPa) = 33.72841 42.05467 37.89154
# Shear Modulus (GPa) = 26.21491 29.26714 27.74102
#
# Velocity S-wave (km/s) = 3.62523 3.83047 3.72926
# Velocity P-wave (km/s) = 5.86789 6.37546 6.12693
#
# Compressibility (1/GPa) = 0.02964860
#
# Stress axis : x y z
#
# Youngs Moduli (GPa) = 81.66937 77.91638 44.21323
#
# Poissons Ratio (x) = 0.40180 0.07636
# Poissons Ratio (y) = 0.42115 0.09461
# Poissons Ratio (z) = 0.14106 0.16674
#
# Static dielectric constant tensor:
#      x y z
#    x 1.745620 0.000000 0.000000 
#    y 0.000000 1.737670 0.000000 
#    z 0.000000 0.000000 1.739570 
# 
# From -- ./inp_files/4611.got.cif
#   From: 2010.05.17/outbox.cif.g08.bks.cpg/sg41_3_cif.got.tgz:4611.got - 2010.06.03 18:54:24.
