data_PCOD9367532
_publ_section_title
;
Structure prediction by ZEFSAII (Michael W. Deem and Ramdas Pophale) SiO2 
 PCOD9367532
Probable space group: A B A 2
;
_chemical_formula_sum "Si O2"
_cell_formula_units_Z 64
_cell_length_a 34.411945
_cell_length_b 5.404806
_cell_length_c 13.662751
_cell_angle_alpha 90.000000
_cell_angle_beta 90.000000
_cell_angle_gamma 90.000000
_cell_volume 2541.133512
_symmetry_space_group_name_H-M "A B A 2"
_symmetry_group_IT_number 41
_symmetry_cell_setting 'orthorhombic'
loop_
_space_group_symop_operation_xyz
x,y,z
-x,-y,z
1/2-x,y,1/2+z
1/2+x,-y,1/2+z
x,1/2+y,1/2+z
-x,1/2-y,1/2+z
1/2-x,1/2+y,z
1/2+x,1/2-y,z
loop_
_atom_site_type_symbol
_atom_site_label
_atom_site_fract_x
_atom_site_fract_y
_atom_site_fract_z
Si Si1 0.519048 0.252169 0.986970
Si Si2 0.101113 0.060006 0.743726
Si Si3 0.140830 0.710637 0.885713
Si Si4 0.481305 0.752532 0.758797
Si Si5 0.768576 0.242492 0.918460
Si Si6 0.654422 0.036201 0.673166
Si Si7 0.394637 0.816373 0.045044
Si Si8 0.261629 0.768672 0.647241
O O1 0.500000 0.500000 0.026147
O O2 0.508702 0.249141 0.872948
O O3 0.500000 0.000000 0.025063
O O4 0.565317 0.263568 0.995653
O O5 0.065207 0.245629 0.752655
O O6 0.136723 0.193635 0.689564
O O7 0.113499 0.937097 0.847025
O O8 0.089537 0.881499 0.654860
O O9 0.145549 0.580202 0.779424
O O10 0.123675 0.028328 0.471266
O O11 0.184907 0.787704 0.912883
O O12 0.500000 0.500000 0.721373
O O13 0.500000 0.000000 0.719537
O O14 0.745039 0.007777 0.876663
O O15 0.756161 0.262724 0.031450
O O16 0.636457 0.892752 0.579297
O O17 0.699764 0.068578 0.660696
O O18 0.231545 0.984059 0.682054
#
# Coordination Sequence:
#
# PCOD9367532 Si02
#       8
#     8   8   8   8   8   8   8   8
#     4  10  24  45  73 106 140 188 243 301 377 449
#     4  11  27  47  73 110 146 200 251 313 386 460
#     4  11  27  46  78 108 150 200 255 315 377 459
#     4  10  24  45  75 103 144 188 238 308 373 446
#     4  10  24  44  71 111 149 197 252 309 380 451
#     4  11  27  46  73 109 146 195 254 305 380 446
#     4  11  27  47  75 108 149 197 251 318 377 466
#     4  10  24  44  73 105 149 195 243 311 373 447
#
# _framework density 25.18561
#
# number of rings (size 3 to 8) (size 9 to 14) (size 15 to 20)
#    0.000    1.500    0.000    1.500   21.000    3.500 
#    0.000    0.000    0.000    0.000    0.000    0.000 
#    0.000    0.000    0.000    0.000    0.000    0.000 
#
# Total GULP energy -178554.810681 kJ/mol
# GULP energy per Si atom -5579.837834 kJ/mol
# Density = 2.512829 g / cm^3
# Si number density = 25.185610 Si / 1000 Ang^3
#
#
#
# Elastic Constant Matrix: (Units=GPa)
#
#
# Indices 1 2 3 4 5 6 
#
# 1 84.9685 45.3197 -7.6505 0.0000 0.0000 0.0000
# 2 45.3197 112.8660 27.4290 0.0000 0.0000 0.0000
# 3 -7.6505 27.4290 149.7742 0.0000 0.0000 0.0000
# 4 0.0000 0.0000 0.0000 -37.9065 0.0000 0.0000
# 5 0.0000 0.0000 0.0000 0.0000 65.6831 0.0000
# 6 0.0000 0.0000 0.0000 0.0000 0.0000 46.2221
#
#
#
# Elastic Compliance Matrix: (Units=1/GPa)
#
#
# Indices 1 2 3 4 5 6 
#
# 1 0.015543 -0.006734 0.002027 0.000000 0.000000 0.000000
# 2 -0.006734 0.012190 -0.002576 0.000000 0.000000 0.000000
# 3 0.002027 -0.002576 0.007252 0.000000 0.000000 0.000000
# 4 0.000000 0.000000 0.000000 -0.026381 0.000000 0.000000
# 5 0.000000 0.000000 0.000000 0.000000 0.015225 0.000000
# 6 0.000000 0.000000 0.000000 0.000000 0.000000 0.021635
#
#
# Mechanical properties :
#
#
# Convention : Reuss Voigt Hill
#
# Bulk Modulus (GPa) = 48.97338 53.08946 51.03142
# Shear Modulus (GPa) = 74.80952 33.63377 54.22165
#
# Velocity S-wave (km/s) = 5.45598 3.65833 4.64495
# Velocity P-wave (km/s) = 7.69269 6.24256 7.00525
#
# Compressibility (1/GPa) = 0.02041926
#
# Stress axis : x y z
#
# Youngs Moduli (GPa) = 64.33683 82.03416 137.89122
#
# Poissons Ratio (x) = 0.55240 -0.27953
# Poissons Ratio (y) = 0.43323 0.35526
# Poissons Ratio (z) = -0.13042 0.21135
#
# Static dielectric constant tensor:
#      x y z
#    x 1.928430 0.000000 0.000000 
#    y 0.000000 2.160840 0.000000 
#    z 0.000000 0.000000 1.978350 
# 
# From -- ./inp_files/10837.got.cif
#   From: 2010.05.17/outbox.cif.g08.bks.cpg/sg41_6_cif.got.tgz:10837.got - 2010.06.03 18:54:24.
