data_PCOD9367356
_publ_section_title
;
Structure prediction by ZEFSAII (Michael W. Deem and Ramdas Pophale) SiO2 
 PCOD9367356
Probable space group: A B A 2
;
_chemical_formula_sum "Si O2"
_cell_formula_units_Z 56
_cell_length_a 12.164803
_cell_length_b 14.349600
_cell_length_c 14.302178
_cell_angle_alpha 90.000000
_cell_angle_beta 90.000000
_cell_angle_gamma 90.000000
_cell_volume 2496.589009
_symmetry_space_group_name_H-M "A B A 2"
_symmetry_group_IT_number 41
_symmetry_cell_setting 'orthorhombic'
loop_
_space_group_symop_operation_xyz
x,y,z
-x,-y,z
1/2-x,y,1/2+z
1/2+x,-y,1/2+z
x,1/2+y,1/2+z
-x,1/2-y,1/2+z
1/2-x,1/2+y,z
1/2+x,1/2-y,z
loop_
_atom_site_type_symbol
_atom_site_label
_atom_site_fract_x
_atom_site_fract_y
_atom_site_fract_z
Si Si1 0.396214 0.450910 0.853960
Si Si2 0.493321 0.100695 0.158858
Si Si3 0.263184 0.124025 0.081517
Si Si4 0.181866 0.505802 0.908631
Si Si5 0.614016 0.710466 0.986965
Si Si6 0.967061 0.307629 0.649108
Si Si7 0.488373 0.849753 0.863802
O O1 0.500000 0.500000 0.903123
O O2 0.447822 0.416496 0.757332
O O3 0.289576 0.514341 0.843718
O O4 0.349715 0.367300 0.915209
O O5 0.363250 0.120368 0.155678
O O6 0.546994 0.196904 0.125667
O O7 0.500000 0.000000 0.106681
O O8 0.145234 0.138570 0.127371
O O9 0.295678 0.214493 0.018508
O O10 0.275792 0.035682 0.012019
O O11 0.091148 0.581167 0.879395
O O12 0.118125 0.408306 0.894138
O O13 0.516296 0.763554 0.930919
O O14 0.563009 0.662970 0.078491
O O15 0.007341 0.319135 0.755581
#
# Coordination Sequence:
#
# PCOD9367356 Si02
#       7
#     8   8   8   8   8   8   8
#     4  11  23  42  65 101 136 181 231 291 360 423
#     4  10  24  41  66 102 142 181 234 294 361 430
#     4  10  24  42  71 101 138 184 241 297 360 432
#     4  10  24  45  69  98 134 192 231 298 365 431
#     4  10  23  43  64 101 135 181 236 298 356 435
#     4  11  23  44  69 106 138 189 238 300 357 440
#     4  10  23  46  69  98 141 183 241 293 369 429
#
# _framework density 22.430605
#
# number of rings (size 3 to 8) (size 9 to 14) (size 15 to 20)
#    0.000    1.714    1.429    0.857   12.000    2.286 
#    7.714    0.000    0.000    0.000    0.000    0.000 
#    0.000    0.000    0.000    0.000    0.000    0.000 
#
# Total GULP energy -156205.063273 kJ/mol
# GULP energy per Si atom -5578.752260 kJ/mol
# Density = 2.237955 g / cm^3
# Si number density = 22.430605 Si / 1000 Ang^3
#
#
#
# Elastic Constant Matrix: (Units=GPa)
#
#
# Indices 1 2 3 4 5 6 
#
# 1 90.6777 49.7433 33.3672 0.0000 0.0000 0.0000
# 2 49.7433 50.0491 12.7193 0.0000 0.0000 0.0000
# 3 33.3672 12.7193 119.7612 0.0000 0.0000 0.0000
# 4 0.0000 0.0000 0.0000 29.8894 0.0000 0.0000
# 5 0.0000 0.0000 0.0000 0.0000 21.5628 0.0000
# 6 0.0000 0.0000 0.0000 0.0000 0.0000 18.5569
#
#
#
# Elastic Compliance Matrix: (Units=1/GPa)
#
#
# Indices 1 2 3 4 5 6 
#
# 1 0.026630 -0.025263 -0.004736 0.000000 0.000000 0.000000
# 2 -0.025263 0.044501 0.002312 0.000000 0.000000 0.000000
# 3 -0.004736 0.002312 0.009424 0.000000 0.000000 0.000000
# 4 0.000000 0.000000 0.000000 0.033457 0.000000 0.000000
# 5 0.000000 0.000000 0.000000 0.000000 0.046376 0.000000
# 6 0.000000 0.000000 0.000000 0.000000 0.000000 0.053888
#
#
# Mechanical properties :
#
#
# Convention : Reuss Voigt Hill
#
# Bulk Modulus (GPa) = 39.71272 50.23861 44.97567
# Shear Modulus (GPa) = 17.98277 24.97904 21.48091
#
# Velocity S-wave (km/s) = 2.83451 3.34071 3.09797
# Velocity P-wave (km/s) = 5.33439 6.10953 5.73507
#
# Compressibility (1/GPa) = 0.02518085
#
# Stress axis : x y z
#
# Youngs Moduli (GPa) = 37.55222 22.47117 106.11249
#
# Poissons Ratio (x) = 0.56769 0.50258
# Poissons Ratio (y) = 0.94869 -0.24537
# Poissons Ratio (z) = 0.17786 -0.05196
#
# Static dielectric constant tensor:
#      x y z
#    x 1.846500 0.000000 0.000000 
#    y 0.000000 1.939740 0.000000 
#    z 0.000000 0.000000 1.842250 
# 
# From -- ./inp_files/7943.got.cif
#   From: 2010.05.17/outbox.cif.g08.bks.cpg/sg41_4_cif.got.tgz:7943.got - 2010.06.03 18:54:24.
