data_PCOD9367788
_publ_section_title
;
Structure prediction by ZEFSAII (Michael W. Deem and Ramdas Pophale) SiO2 
 PCOD9367788
Probable space group: A B A 2
;
_chemical_formula_sum "Si O2"
_cell_formula_units_Z 60
_cell_length_a 26.313258
_cell_length_b 12.582257
_cell_length_c 7.157812
_cell_angle_alpha 90.000000
_cell_angle_beta 90.000000
_cell_angle_gamma 90.000000
_cell_volume 2369.809647
_symmetry_space_group_name_H-M "A B A 2"
_symmetry_group_IT_number 41
_symmetry_cell_setting 'orthorhombic'
loop_
_space_group_symop_operation_xyz
x,y,z
-x,-y,z
1/2-x,y,1/2+z
1/2+x,-y,1/2+z
x,1/2+y,1/2+z
-x,1/2-y,1/2+z
1/2-x,1/2+y,z
1/2+x,1/2-y,z
loop_
_atom_site_type_symbol
_atom_site_label
_atom_site_fract_x
_atom_site_fract_y
_atom_site_fract_z
Si Si1 0.778127 0.964039 0.637020
Si Si2 0.322420 0.234016 0.979652
Si Si3 0.222909 0.865764 0.410765
Si Si4 0.074472 0.566356 0.478478
Si Si5 0.471357 0.277473 0.493905
Si Si6 0.819104 0.839538 0.046178
Si Si7 0.500000 0.000000 0.805924
Si Si8 0.428758 0.828185 0.391472
O O1 0.816266 0.864013 0.623205
O O2 0.731767 0.908361 0.522548
O O3 0.810328 0.053763 0.533298
O O4 0.746894 0.047788 0.768397
O O5 0.273802 0.311425 0.000406
O O6 0.318146 0.193672 0.764258
O O7 0.374809 0.297707 0.980178
O O8 0.186550 0.763701 0.415051
O O9 0.054594 0.676322 0.388760
O O10 0.133553 0.585888 0.511295
O O11 0.065492 0.455111 0.376222
O O12 0.044391 0.545894 0.672324
O O13 0.478442 0.396609 0.415310
O O14 0.527571 0.227097 0.514879
O O15 0.438625 0.284329 0.683603
#
# Coordination Sequence:
#
# PCOD9367788 Si02
#       8
#     8   8   8   8   8   8   4   8
#     4  11  23  43  72  99 149 193 245 308 386 441
#     4  11  23  44  69 109 143 190 252 311 370 470
#     4  11  23  43  70 102 143 196 238 310 376 454
#     4  12  25  50  75 106 152 202 253 320 377 467
#     4  12  25  47  77 112 149 203 245 323 380 457
#     4  11  23  42  72 104 143 190 254 303 383 454
#     4  12  26  46  78 106 158 194 250 318 394 452
#     4  12  25  50  78 109 153 196 261 312 390 459
#
# _framework density 25.318489
#
# number of rings (size 3 to 8) (size 9 to 14) (size 15 to 20)
#    0.000    0.533    6.667    0.800    1.867    1.067 
#    7.200    4.000    0.000    0.000    0.000    0.000 
#    0.000    0.000    0.000    0.000    0.000    0.000 
#
# Total GULP energy -167130.391230 kJ/mol
# GULP energy per Si atom -5571.013041 kJ/mol
# Density = 2.526086 g / cm^3
# Si number density = 25.318489 Si / 1000 Ang^3
#
#
#
# Elastic Constant Matrix: (Units=GPa)
#
#
# Indices 1 2 3 4 5 6 
#
# 1 93.3002 23.9599 -8.1062 0.0000 0.0000 0.0000
# 2 23.9599 241.1729 66.0021 0.0000 0.0000 0.0000
# 3 -8.1062 66.0021 51.8995 0.0000 0.0000 0.0000
# 4 0.0000 0.0000 0.0000 61.3863 0.0000 0.0000
# 5 0.0000 0.0000 0.0000 0.0000 21.4976 0.0000
# 6 0.0000 0.0000 0.0000 0.0000 0.0000 51.4701
#
#
#
# Elastic Compliance Matrix: (Units=1/GPa)
#
#
# Indices 1 2 3 4 5 6 
#
# 1 0.011825 -0.002577 0.005125 0.000000 0.000000 0.000000
# 2 -0.002577 0.006922 -0.009205 0.000000 0.000000 0.000000
# 3 0.005125 -0.009205 0.031775 0.000000 0.000000 0.000000
# 4 0.000000 0.000000 0.000000 0.016290 0.000000 0.000000
# 5 0.000000 0.000000 0.000000 0.000000 0.046517 0.000000
# 6 0.000000 0.000000 0.000000 0.000000 0.000000 0.019429
#
#
# Mechanical properties :
#
#
# Convention : Reuss Voigt Hill
#
# Bulk Modulus (GPa) = 26.87731 61.12047 43.99889
# Shear Modulus (GPa) = 31.55085 47.17193 39.36139
#
# Velocity S-wave (km/s) = 3.53393 4.32110 3.94718
# Velocity P-wave (km/s) = 5.22401 7.00634 6.17977
#
# Compressibility (1/GPa) = 0.03720611
#
# Stress axis : x y z
#
# Youngs Moduli (GPa) = 84.56536 144.47600 31.47168
#
# Poissons Ratio (x) = 0.37235 -0.16128
# Poissons Ratio (y) = 0.21795 0.28969
# Poissons Ratio (z) = -0.43336 1.32989
#
# Static dielectric constant tensor:
#      x y z
#    x 1.965510 0.000000 0.000000 
#    y 0.000000 1.960940 0.000000 
#    z 0.000000 0.000000 2.248030 
# 
# From -- ./inp_files/3810.got.cif
#   From: 2010.05.17/outbox.cif.g08.bks.cpg/sg41_2_cif.got.tgz:3810.got - 2010.06.03 18:54:24.
