data_PCOD9367932
_publ_section_title
;
Structure prediction by ZEFSAII (Michael W. Deem and Ramdas Pophale) SiO2 
 PCOD9367932
Probable space group: A B A 2
;
_chemical_formula_sum "Si O2"
_cell_formula_units_Z 40
_cell_length_a 8.844225
_cell_length_b 14.442905
_cell_length_c 11.143184
_cell_angle_alpha 90.000000
_cell_angle_beta 90.000000
_cell_angle_gamma 90.000000
_cell_volume 1423.389111
_symmetry_space_group_name_H-M "A B A 2"
_symmetry_group_IT_number 41
_symmetry_cell_setting 'orthorhombic'
loop_
_space_group_symop_operation_xyz
x,y,z
-x,-y,z
1/2-x,y,1/2+z
1/2+x,-y,1/2+z
x,1/2+y,1/2+z
-x,1/2-y,1/2+z
1/2-x,1/2+y,z
1/2+x,1/2-y,z
loop_
_atom_site_type_symbol
_atom_site_label
_atom_site_fract_x
_atom_site_fract_y
_atom_site_fract_z
Si Si1 0.000000 0.000000 0.606690
Si Si2 0.550040 0.867468 0.319300
Si Si3 0.772299 0.270120 0.980017
Si Si4 0.500000 0.500000 0.219811
Si Si5 0.233624 0.930837 0.409867
Si Si6 0.972898 0.290522 0.645545
O O1 0.935866 0.921646 0.693927
O O2 0.143028 0.966953 0.526945
O O3 0.699647 0.853494 0.401932
O O4 0.413513 0.923595 0.385758
O O5 0.498370 0.767229 0.266343
O O6 0.711805 0.179116 0.914688
O O7 0.558922 0.249446 0.526892
O O8 0.699153 0.274247 0.111682
O O9 0.353893 0.482012 0.303308
O O10 0.506570 0.401052 0.153912
#
# Coordination Sequence:
#
# PCOD9367932 Si02
#       6
#     4   8   8   4   8   8
#     4  11  28  49  84 122 174 223 292 361 438 534
#     4  12  27  51  86 126 176 228 288 367 453 519
#     4  12  26  51  82 122 175 219 296 347 433 538
#     4  11  26  49  82 118 174 225 300 355 428 518
#     4  11  25  53  80 124 168 224 302 353 430 539
#     4  12  27  50  83 126 168 235 286 362 438 516
#
# _framework density 28.101945000000001
#
# number of rings (size 3 to 8) (size 9 to 14) (size 15 to 20)
#    0.000    0.400    6.000    1.200    0.000    4.000 
#    0.000    0.000    0.000    0.000    0.000    0.000 
#    0.000    0.000    0.000    0.000    0.000    0.000 
#
# Total GULP energy -111775.463956 kJ/mol
# GULP energy per Si atom -5588.773198 kJ/mol
# Density = 2.803798 g / cm^3
# Si number density = 28.101945 Si / 1000 Ang^3
#
#
#
# Elastic Constant Matrix: (Units=GPa)
#
#
# Indices 1 2 3 4 5 6 
#
# 1 146.9999 107.4860 72.0325 0.0000 0.0000 0.0000
# 2 107.4860 120.0380 55.7110 0.0000 0.0000 0.0000
# 3 72.0325 55.7110 140.1610 0.0000 0.0000 0.0000
# 4 0.0000 0.0000 0.0000 52.4716 0.0000 0.0000
# 5 0.0000 0.0000 0.0000 0.0000 51.1868 0.0000
# 6 0.0000 0.0000 0.0000 0.0000 0.0000 63.4335
#
#
#
# Elastic Compliance Matrix: (Units=1/GPa)
#
#
# Indices 1 2 3 4 5 6 
#
# 1 0.021523 -0.017337 -0.004170 0.000000 0.000000 0.000000
# 2 -0.017337 0.024180 -0.000701 0.000000 0.000000 0.000000
# 3 -0.004170 -0.000701 0.009557 0.000000 0.000000 0.000000
# 4 0.000000 0.000000 0.000000 0.019058 0.000000 0.000000
# 5 0.000000 0.000000 0.000000 0.000000 0.019536 0.000000
# 6 0.000000 0.000000 0.000000 0.000000 0.000000 0.015765
#
#
# Mechanical properties :
#
#
# Convention : Reuss Voigt Hill
#
# Bulk Modulus (GPa) = 92.22471 97.51755 94.87113
# Shear Modulus (GPa) = 31.71605 44.88301 38.29953
#
# Velocity S-wave (km/s) = 3.36312 4.00077 3.69572
# Velocity P-wave (km/s) = 6.92603 7.49121 7.21416
#
# Compressibility (1/GPa) = 0.01084308
#
# Stress axis : x y z
#
# Youngs Moduli (GPa) = 46.46233 41.35632 104.64069
#
# Poissons Ratio (x) = 0.71699 0.43637
# Poissons Ratio (y) = 0.80551 0.07337
# Poissons Ratio (z) = 0.19375 0.02900
#
# Static dielectric constant tensor:
#      x y z
#    x 2.175720 0.000000 0.000000 
#    y 0.000000 2.278470 0.000000 
#    z 0.000000 0.000000 2.169710 
# 
# From -- ./inp_files/4894.got.cif
#   From: 2010.05.17/outbox.cif.g08.bks.cpg/sg41_3_cif.got.tgz:4894.got - 2010.06.03 18:54:24.
