data_PCOD9367733
_publ_section_title
;
Structure prediction by ZEFSAII (Michael W. Deem and Ramdas Pophale) SiO2 
 PCOD9367733
Probable space group: A B A 2
;
_chemical_formula_sum "Si O2"
_cell_formula_units_Z 48
_cell_length_a 14.392281
_cell_length_b 8.086566
_cell_length_c 17.605524
_cell_angle_alpha 90.000000
_cell_angle_beta 90.000000
_cell_angle_gamma 90.000000
_cell_volume 2049.003597
_symmetry_space_group_name_H-M "A B A 2"
_symmetry_group_IT_number 41
_symmetry_cell_setting 'orthorhombic'
loop_
_space_group_symop_operation_xyz
x,y,z
-x,-y,z
1/2-x,y,1/2+z
1/2+x,-y,1/2+z
x,1/2+y,1/2+z
-x,1/2-y,1/2+z
1/2-x,1/2+y,z
1/2+x,1/2-y,z
loop_
_atom_site_type_symbol
_atom_site_label
_atom_site_fract_x
_atom_site_fract_y
_atom_site_fract_z
Si Si1 0.788821 0.878318 0.654230
Si Si2 0.542978 0.313921 0.986265
Si Si3 0.370000 0.711494 0.411673
Si Si4 0.230663 0.012999 0.988133
Si Si5 0.366845 0.816097 0.239873
Si Si6 0.524657 0.693462 0.149422
O O1 0.768505 0.965509 0.573547
O O2 0.694302 0.807766 0.688470
O O3 0.866854 0.735639 0.645915
O O4 0.831671 0.006068 0.714164
O O5 0.500000 0.500000 0.983435
O O6 0.521617 0.247233 0.070405
O O7 0.479690 0.210829 0.928798
O O8 0.651361 0.346027 0.975014
O O9 0.315964 0.544436 0.431265
O O10 0.352706 0.775363 0.327429
O O11 0.322465 0.843522 0.469591
O O12 0.473375 0.787858 0.217000
O O13 0.500000 0.500000 0.156540
#
# Coordination Sequence:
#
# PCOD9367733 Si02
#       6
#     8   8   8   8   8   8
#     4  12  24  42  70  99 134 182 227 276 329 411
#     4   9  20  39  66  89 124 171 217 263 327 392
#     4  11  24  43  65  98 133 173 217 282 338 392
#     4  11  22  41  68  92 128 177 225 265 328 407
#     4  12  26  42  67 103 140 172 225 282 343 392
#     4  11  23  43  70  99 133 177 227 281 336 401
#
# _framework density 23.426020999999999
#
# number of rings (size 3 to 8) (size 9 to 14) (size 15 to 20)
#    0.000    1.000    3.333    3.500    2.333    5.333 
#    0.000    0.833    0.000    0.000    0.000    0.000 
#    0.000    0.000    0.000    0.000    0.000    0.000 
#
# Total GULP energy -134345.274401 kJ/mol
# GULP energy per Si atom -5597.719767 kJ/mol
# Density = 2.337270 g / cm^3
# Si number density = 23.426021 Si / 1000 Ang^3
#
#
#
# Elastic Constant Matrix: (Units=GPa)
#
#
# Indices 1 2 3 4 5 6 
#
# 1 111.6852 0.5419 18.3216 0.0000 0.0000 0.0000
# 2 0.5419 50.3794 11.2209 0.0000 0.0000 0.0000
# 3 18.3216 11.2209 97.6295 0.0000 0.0000 0.0000
# 4 0.0000 0.0000 0.0000 21.1530 0.0000 0.0000
# 5 0.0000 0.0000 0.0000 0.0000 27.6639 0.0000
# 6 0.0000 0.0000 0.0000 0.0000 0.0000 38.7231
#
#
#
# Elastic Compliance Matrix: (Units=1/GPa)
#
#
# Indices 1 2 3 4 5 6 
#
# 1 0.009242 0.000294 -0.001768 0.000000 0.000000 0.000000
# 2 0.000294 0.020380 -0.002398 0.000000 0.000000 0.000000
# 3 -0.001768 -0.002398 0.010850 0.000000 0.000000 0.000000
# 4 0.000000 0.000000 0.000000 0.047275 0.000000 0.000000
# 5 0.000000 0.000000 0.000000 0.000000 0.036148 0.000000
# 6 0.000000 0.000000 0.000000 0.000000 0.000000 0.025824
#
#
# Mechanical properties :
#
#
# Convention : Reuss Voigt Hill
#
# Bulk Modulus (GPa) = 30.55315 35.54032 33.04673
# Shear Modulus (GPa) = 29.69596 32.81530 31.25563
#
# Velocity S-wave (km/s) = 3.56427 3.74679 3.65667
# Velocity P-wave (km/s) = 5.47808 5.82428 5.65383
#
# Compressibility (1/GPa) = 0.03272985
#
# Stress axis : x y z
#
# Youngs Moduli (GPa) = 108.19711 49.06712 92.16397
#
# Poissons Ratio (x) = -0.01445 0.16297
# Poissons Ratio (y) = -0.03186 0.22097
# Poissons Ratio (z) = 0.19133 0.11764
#
# Static dielectric constant tensor:
#      x y z
#    x 1.883540 0.000000 0.000000 
#    y 0.000000 1.934130 0.000000 
#    z 0.000000 0.000000 1.835220 
# 
# From -- ./inp_files/10288.got.cif
#   From: 2010.05.17/outbox.cif.g08.bks.cpg/sg41_6_cif.got.tgz:10288.got - 2010.06.03 18:54:24.
