data_PCOD9367346
_publ_section_title
;
Structure prediction by ZEFSAII (Michael W. Deem and Ramdas Pophale) SiO2 
 PCOD9367346
Probable space group: A B A 2
;
_chemical_formula_sum "Si O2"
_cell_formula_units_Z 64
_cell_length_a 17.922644
_cell_length_b 17.058918
_cell_length_c 8.839520
_cell_angle_alpha 90.000000
_cell_angle_beta 90.000000
_cell_angle_gamma 90.000000
_cell_volume 2702.602927
_symmetry_space_group_name_H-M "A B A 2"
_symmetry_group_IT_number 41
_symmetry_cell_setting 'orthorhombic'
loop_
_space_group_symop_operation_xyz
x,y,z
-x,-y,z
1/2-x,y,1/2+z
1/2+x,-y,1/2+z
x,1/2+y,1/2+z
-x,1/2-y,1/2+z
1/2-x,1/2+y,z
1/2+x,1/2-y,z
loop_
_atom_site_type_symbol
_atom_site_label
_atom_site_fract_x
_atom_site_fract_y
_atom_site_fract_z
Si Si1 0.173666 0.769157 0.196150
Si Si2 0.749990 0.147247 0.958917
Si Si3 0.603287 0.541829 0.898004
Si Si4 0.520394 0.163839 0.572848
Si Si5 0.095959 0.422781 0.049526
Si Si6 0.526974 0.314304 0.389633
Si Si7 0.345421 0.577450 0.471640
Si Si8 0.190206 0.597809 0.310494
O O1 0.216119 0.832259 0.297920
O O2 0.092422 0.800866 0.160120
O O3 0.173226 0.688993 0.288315
O O4 0.220872 0.774064 0.041473
O O5 0.820586 0.090174 0.937328
O O6 0.679548 0.111754 0.046439
O O7 0.577328 0.559982 0.725246
O O8 0.629195 0.451467 0.904836
O O9 0.542399 0.579293 0.009073
O O10 0.510806 0.224278 0.433866
O O11 0.462738 0.169493 0.710559
O O12 0.101557 0.502230 0.950456
O O13 0.038202 0.364452 0.970114
O O14 0.603303 0.346026 0.463309
O O15 0.273347 0.583169 0.368250
O O16 0.315512 0.565552 0.640762
#
# Coordination Sequence:
#
# PCOD9367346 Si02
#       8
#     8   8   8   8   8   8   8   8
#     4  11  22  38  64 103 135 174 230 288 344 400
#     4  11  20  37  65 100 135 176 228 285 337 406
#     4  10  23  42  69 101 135 180 239 284 345 420
#     4  11  25  44  70  98 139 187 241 285 355 430
#     4  11  22  41  69  98 139 187 221 284 356 422
#     4  12  25  46  67  99 143 183 240 288 359 431
#     4  11  25  43  68 102 137 179 226 291 361 426
#     4  11  23  43  68 101 140 171 225 294 350 413
#
# _framework density 23.680875
#
# number of rings (size 3 to 8) (size 9 to 14) (size 15 to 20)
#    0.000    1.000    5.000    1.875    1.750    2.000 
#    2.250    0.000    0.000    0.000    0.000    0.000 
#    0.000    0.000    0.000    0.000    0.000    0.000 
#
# Total GULP energy -178944.784314 kJ/mol
# GULP energy per Si atom -5592.024510 kJ/mol
# Density = 2.362698 g / cm^3
# Si number density = 23.680875 Si / 1000 Ang^3
#
#
#
# Elastic Constant Matrix: (Units=GPa)
#
#
# Indices 1 2 3 4 5 6 
#
# 1 65.7626 24.7815 18.9616 0.0000 0.0000 0.0000
# 2 24.7815 102.3327 5.8066 0.0000 0.0000 0.0000
# 3 18.9616 5.8066 71.6790 0.0000 0.0000 0.0000
# 4 0.0000 0.0000 0.0000 27.9797 0.0000 0.0000
# 5 0.0000 0.0000 0.0000 0.0000 33.9915 0.0000
# 6 0.0000 0.0000 0.0000 0.0000 0.0000 33.8260
#
#
#
# Elastic Compliance Matrix: (Units=1/GPa)
#
#
# Indices 1 2 3 4 5 6 
#
# 1 0.018037 -0.004116 -0.004438 0.000000 0.000000 0.000000
# 2 -0.004116 0.010756 0.000217 0.000000 0.000000 0.000000
# 3 -0.004438 0.000217 0.015107 0.000000 0.000000 0.000000
# 4 0.000000 0.000000 0.000000 0.035740 0.000000 0.000000
# 5 0.000000 0.000000 0.000000 0.000000 0.029419 0.000000
# 6 0.000000 0.000000 0.000000 0.000000 0.000000 0.029563
#
#
# Mechanical properties :
#
#
# Convention : Reuss Voigt Hill
#
# Bulk Modulus (GPa) = 36.72726 37.65262 37.18994
# Shear Modulus (GPa) = 30.41877 31.84109 31.12993
#
# Velocity S-wave (km/s) = 3.58792 3.67084 3.62962
# Velocity P-wave (km/s) = 5.71902 5.82248 5.77098
#
# Compressibility (1/GPa) = 0.02722773
#
# Stress axis : x y z
#
# Youngs Moduli (GPa) = 55.44189 92.96714 66.19242
#
# Poissons Ratio (x) = 0.38266 0.29376
# Poissons Ratio (y) = 0.22820 -0.01440
# Poissons Ratio (z) = 0.24605 -0.02022
#
# Static dielectric constant tensor:
#      x y z
#    x 1.893950 0.000000 0.000000 
#    y 0.000000 1.955890 0.000000 
#    z 0.000000 0.000000 1.943330 
# 
# From -- ./inp_files/3510.got.cif
#   From: 2010.05.17/outbox.cif.g08.bks.cpg/sg41_2_cif.got.tgz:3510.got - 2010.06.03 18:54:24.
