data_PCOD9367074
_publ_section_title
;
Structure prediction by ZEFSAII (Michael W. Deem and Ramdas Pophale) SiO2 
 PCOD9367074
Probable space group: A B A 2
;
_chemical_formula_sum "Si O2"
_cell_formula_units_Z 32
_cell_length_a 24.494749
_cell_length_b 5.214308
_cell_length_c 9.680842
_cell_angle_alpha 90.000000
_cell_angle_beta 90.000000
_cell_angle_gamma 90.000000
_cell_volume 1236.467787
_symmetry_space_group_name_H-M "A B A 2"
_symmetry_group_IT_number 41
_symmetry_cell_setting 'orthorhombic'
loop_
_space_group_symop_operation_xyz
x,y,z
-x,-y,z
1/2-x,y,1/2+z
1/2+x,-y,1/2+z
x,1/2+y,1/2+z
-x,1/2-y,1/2+z
1/2-x,1/2+y,z
1/2+x,1/2-y,z
loop_
_atom_site_type_symbol
_atom_site_label
_atom_site_fract_x
_atom_site_fract_y
_atom_site_fract_z
Si Si1 0.611713 0.729134 0.432380
Si Si2 0.534540 0.760928 0.207107
Si Si3 0.715817 0.532222 0.966152
Si Si4 0.636149 0.462152 0.185221
O O1 0.555177 0.815682 0.364576
O O2 0.660455 0.929693 0.393993
O O3 0.627115 0.475264 0.347261
O O4 0.616861 0.719597 0.596360
O O5 0.500000 0.500000 0.208018
O O6 0.591573 0.676465 0.136696
O O7 0.500000 0.000000 0.154078
O O8 0.740426 0.808759 0.939185
O O9 0.695717 0.523333 0.126963
#
# Coordination Sequence:
#
# PCOD9367074 Si02
#       4
#     8   8   8   8
#     4   8  20  43  61 101 136 177 244 298 355 457
#     4  10  22  42  68  96 136 186 236 294 382 424
#     4  10  22  40  67  96 135 186 226 298 372 428
#     4   8  20  43  61 101 136 177 244 298 355 457
#
# _framework density 25.880174
#
# number of rings (size 3 to 8) (size 9 to 14) (size 15 to 20)
#    3.000    0.000    0.000    0.000    0.000    7.000 
#    0.000    2.500    0.000    0.000    0.000    0.000 
#    0.000    0.000    0.000    0.000    0.000    0.000 
#
# Total GULP energy -89072.828684 kJ/mol
# GULP energy per Si atom -5567.051793 kJ/mol
# Density = 2.582127 g / cm^3
# Si number density = 25.880174 Si / 1000 Ang^3
#
#
#
# Elastic Constant Matrix: (Units=GPa)
#
#
# Indices 1 2 3 4 5 6 
#
# 1 116.1641 60.5735 -5.8747 0.0000 0.0000 0.0000
# 2 60.5735 132.3354 45.8902 0.0000 0.0000 0.0000
# 3 -5.8747 45.8902 112.1900 0.0000 0.0000 0.0000
# 4 0.0000 0.0000 0.0000 32.3464 0.0000 0.0000
# 5 0.0000 0.0000 0.0000 0.0000 26.2889 0.0000
# 6 0.0000 0.0000 0.0000 0.0000 0.0000 30.9131
#
#
#
# Elastic Compliance Matrix: (Units=1/GPa)
#
#
# Indices 1 2 3 4 5 6 
#
# 1 0.012356 -0.006852 0.003450 0.000000 0.000000 0.000000
# 2 -0.006852 0.012605 -0.005515 0.000000 0.000000 0.000000
# 3 0.003450 -0.005515 0.011350 0.000000 0.000000 0.000000
# 4 0.000000 0.000000 0.000000 0.030915 0.000000 0.000000
# 5 0.000000 0.000000 0.000000 0.000000 0.038039 0.000000
# 6 0.000000 0.000000 0.000000 0.000000 0.000000 0.032349
#
#
# Mechanical properties :
#
#
# Convention : Reuss Voigt Hill
#
# Bulk Modulus (GPa) = 54.12151 62.42973 58.27562
# Shear Modulus (GPa) = 30.93926 35.24971 33.09449
#
# Velocity S-wave (km/s) = 3.46132 3.69458 3.57985
# Velocity P-wave (km/s) = 6.07718 6.50960 6.29710
#
# Compressibility (1/GPa) = 0.01847694
#
# Stress axis : x y z
#
# Youngs Moduli (GPa) = 80.93325 79.33209 88.10664
#
# Poissons Ratio (x) = 0.54357 -0.30394
# Poissons Ratio (y) = 0.55454 0.48589
# Poissons Ratio (z) = -0.27919 0.43750
#
# Static dielectric constant tensor:
#      x y z
#    x 2.101300 0.000000 0.000000 
#    y 0.000000 1.967150 0.000000 
#    z 0.000000 0.000000 2.140050 
# 
# From -- ./inp_files/6498.got.cif
#   From: 2010.05.17/outbox.cif.g08.bks.cpg/sg41_4_cif.got.tgz:6498.got - 2010.06.03 18:54:24.
