data_PCOD9367917
_publ_section_title
;
Structure prediction by ZEFSAII (Michael W. Deem and Ramdas Pophale) SiO2 
 PCOD9367917
Probable space group: A B A 2
;
_chemical_formula_sum "Si O2"
_cell_formula_units_Z 52
_cell_length_a 19.897671
_cell_length_b 21.024799
_cell_length_c 4.812736
_cell_angle_alpha 90.000000
_cell_angle_beta 90.000000
_cell_angle_gamma 90.000000
_cell_volume 2013.381796
_symmetry_space_group_name_H-M "A B A 2"
_symmetry_group_IT_number 41
_symmetry_cell_setting 'orthorhombic'
loop_
_space_group_symop_operation_xyz
x,y,z
-x,-y,z
1/2-x,y,1/2+z
1/2+x,-y,1/2+z
x,1/2+y,1/2+z
-x,1/2-y,1/2+z
1/2-x,1/2+y,z
1/2+x,1/2-y,z
loop_
_atom_site_type_symbol
_atom_site_label
_atom_site_fract_x
_atom_site_fract_y
_atom_site_fract_z
Si Si1 0.000000 0.000000 0.303301
Si Si2 0.204550 0.436790 0.087281
Si Si3 0.520368 0.377878 0.692506
Si Si4 0.115056 0.233154 0.755652
Si Si5 0.709620 0.857257 0.622673
Si Si6 0.385734 0.820382 0.254715
Si Si7 0.376211 0.529817 0.961290
O O1 0.993405 0.934289 0.474516
O O2 0.929416 0.009553 0.141228
O O3 0.273075 0.441579 0.269245
O O4 0.170404 0.369504 0.152738
O O5 0.154068 0.490113 0.205942
O O6 0.560892 0.314006 0.615476
O O7 0.452297 0.358223 0.845906
O O8 0.573789 0.413248 0.882781
O O9 0.164096 0.193207 0.960156
O O10 0.141497 0.276600 0.503211
O O11 0.087446 0.282173 0.985738
O O12 0.721053 0.849759 0.949252
O O13 0.684156 0.929297 0.589772
#
# Coordination Sequence:
#
# PCOD9367917 Si02
#       7
#     4   8   8   8   8   8   8
#     4  12  26  44  80 102 152 196 246 312 386 440
#     4  12  28  47  74 106 148 194 245 300 369 442
#     4  11  27  46  75 111 147 193 245 310 379 446
#     4  11  27  45  77 105 150 190 251 299 371 433
#     4  11  25  46  76 105 145 194 249 305 364 435
#     4  12  26  48  73 108 146 196 240 306 362 447
#     4  11  27  46  73 111 146 193 244 314 375 451
#
# _framework density 25.827193000000001
#
# number of rings (size 3 to 8) (size 9 to 14) (size 15 to 20)
#    0.000    0.615    0.000    6.000   17.231    3.692 
#    0.000    0.000    0.000    0.000    0.000    0.000 
#    0.000    0.000    0.000    0.000    0.000    0.000 
#
# Total GULP energy -145464.725633 kJ/mol
# GULP energy per Si atom -5594.797140 kJ/mol
# Density = 2.576841 g / cm^3
# Si number density = 25.827193 Si / 1000 Ang^3
#
#
#
# Elastic Constant Matrix: (Units=GPa)
#
#
# Indices 1 2 3 4 5 6 
#
# 1 81.2509 28.7342 1.9255 0.0000 0.0000 0.0000
# 2 28.7342 127.9715 23.3879 0.0000 0.0000 0.0000
# 3 1.9255 23.3879 78.7404 0.0000 0.0000 0.0000
# 4 0.0000 0.0000 0.0000 23.1688 0.0000 0.0000
# 5 0.0000 0.0000 0.0000 0.0000 16.5554 0.0000
# 6 0.0000 0.0000 0.0000 0.0000 0.0000 39.9043
#
#
#
# Elastic Compliance Matrix: (Units=1/GPa)
#
#
# Indices 1 2 3 4 5 6 
#
# 1 0.013396 -0.003117 0.000598 0.000000 0.000000 0.000000
# 2 -0.003117 0.008988 -0.002593 0.000000 0.000000 0.000000
# 3 0.000598 -0.002593 0.013456 0.000000 0.000000 0.000000
# 4 0.000000 0.000000 0.000000 0.043161 0.000000 0.000000
# 5 0.000000 0.000000 0.000000 0.000000 0.060403 0.000000
# 6 0.000000 0.000000 0.000000 0.000000 0.000000 0.025060
#
#
# Mechanical properties :
#
#
# Convention : Reuss Voigt Hill
#
# Bulk Modulus (GPa) = 39.03985 44.00645 41.52315
# Shear Modulus (GPa) = 27.28853 31.52005 29.40429
#
# Velocity S-wave (km/s) = 3.25404 3.49724 3.37783
# Velocity P-wave (km/s) = 5.40989 5.77784 5.59689
#
# Compressibility (1/GPa) = 0.02561485
#
# Stress axis : x y z
#
# Youngs Moduli (GPa) = 74.65046 111.25773 74.31820
#
# Poissons Ratio (x) = 0.34681 -0.04446
# Poissons Ratio (y) = 0.23270 0.19274
# Poissons Ratio (z) = -0.04466 0.28854
#
# Static dielectric constant tensor:
#      x y z
#    x 2.125360 0.000000 0.000000 
#    y 0.000000 2.098790 0.000000 
#    z 0.000000 0.000000 2.009430 
# 
# From -- ./inp_files/719.got.cif
#   From: 2010.05.17/outbox.cif.g08.bks.cpg/sg41_1_cif.got.tgz:719.got - 2010.06.03 18:54:24.
