data_PCOD9367550
_publ_section_title
;
Structure prediction by ZEFSAII (Michael W. Deem and Ramdas Pophale) SiO2 
 PCOD9367550
Probable space group: A B A 2
;
_chemical_formula_sum "Si O2"
_cell_formula_units_Z 60
_cell_length_a 8.546027
_cell_length_b 11.193501
_cell_length_c 28.196220
_cell_angle_alpha 90.000000
_cell_angle_beta 90.000000
_cell_angle_gamma 90.000000
_cell_volume 2697.249327
_symmetry_space_group_name_H-M "A B A 2"
_symmetry_group_IT_number 41
_symmetry_cell_setting 'orthorhombic'
loop_
_space_group_symop_operation_xyz
x,y,z
-x,-y,z
1/2-x,y,1/2+z
1/2+x,-y,1/2+z
x,1/2+y,1/2+z
-x,1/2-y,1/2+z
1/2-x,1/2+y,z
1/2+x,1/2-y,z
loop_
_atom_site_type_symbol
_atom_site_label
_atom_site_fract_x
_atom_site_fract_y
_atom_site_fract_z
Si Si1 0.873815 0.843606 0.274770
Si Si2 0.995566 0.861444 0.171659
Si Si3 0.792375 0.600410 0.807274
Si Si4 0.382063 0.392516 0.906629
Si Si5 0.098270 0.772420 0.456219
Si Si6 0.182321 0.158529 0.522978
Si Si7 0.709697 0.710832 0.612987
Si Si8 0.500000 0.000000 0.085816
O O1 0.943301 0.815228 0.222752
O O2 0.780669 0.724124 0.287643
O O3 0.022950 0.868414 0.308761
O O4 0.783138 0.972787 0.278481
O O5 0.871384 0.830661 0.131148
O O6 0.160380 0.820199 0.151334
O O7 0.000000 0.000000 0.178948
O O8 0.701366 0.583217 0.856641
O O9 0.500000 0.500000 0.917286
O O10 0.496806 0.277277 0.912294
O O11 0.236713 0.361949 0.941487
O O12 0.181347 0.663965 0.484566
O O13 0.976048 0.823970 0.493530
O O14 0.218279 0.263494 0.561219
O O15 0.145846 0.043830 0.554234
O O16 0.572080 0.612127 0.613185
#
# Coordination Sequence:
#
# PCOD9367550 Si02
#       8
#     8   8   8   8   8   8   8   4
#     4  11  26  49  76 109 146 194 246 311 375 450
#     4  12  25  46  70 105 147 188 247 301 356 437
#     4  11  25  49  75 107 147 191 245 305 385 449
#     4  11  26  45  71 108 139 192 238 306 365 439
#     4  10  24  45  69 103 148 184 245 298 357 437
#     4  11  22  44  68 104 143 192 240 289 362 424
#     4  12  25  45  71 107 144 192 244 297 361 432
#     4  12  24  42  74 102 136 196 236 300 356 420
#
# _framework density 22.244883000000002
#
# number of rings (size 3 to 8) (size 9 to 14) (size 15 to 20)
#    0.000    0.800    4.000    2.400    5.600    0.000 
#    2.400    1.333    1.467    0.000    0.000    0.000 
#    0.000    0.000    0.000    0.000    0.000    0.000 
#
# Total GULP energy -167394.824111 kJ/mol
# GULP energy per Si atom -5579.827470 kJ/mol
# Density = 2.219425 g / cm^3
# Si number density = 22.244883 Si / 1000 Ang^3
#
#
#
# Elastic Constant Matrix: (Units=GPa)
#
#
# Indices 1 2 3 4 5 6 
#
# 1 92.9809 24.0953 43.9222 0.0000 0.0000 0.0000
# 2 24.0953 58.2188 33.3115 0.0000 0.0000 0.0000
# 3 43.9222 33.3115 94.3844 0.0000 0.0000 0.0000
# 4 0.0000 0.0000 0.0000 19.0151 0.0000 0.0000
# 5 0.0000 0.0000 0.0000 0.0000 37.6603 0.0000
# 6 0.0000 0.0000 0.0000 0.0000 0.0000 34.8813
#
#
#
# Elastic Compliance Matrix: (Units=1/GPa)
#
#
# Indices 1 2 3 4 5 6 
#
# 1 0.014094 -0.002607 -0.005639 0.000000 0.000000 0.000000
# 2 -0.002607 0.022005 -0.006553 0.000000 0.000000 0.000000
# 3 -0.005639 -0.006553 0.015532 0.000000 0.000000 0.000000
# 4 0.000000 0.000000 0.000000 0.052590 0.000000 0.000000
# 5 0.000000 0.000000 0.000000 0.000000 0.026553 0.000000
# 6 0.000000 0.000000 0.000000 0.000000 0.000000 0.028669
#
#
# Mechanical properties :
#
#
# Convention : Reuss Voigt Hill
#
# Bulk Modulus (GPa) = 45.38557 49.80466 47.59512
# Shear Modulus (GPa) = 25.46023 27.92834 26.69429
#
# Velocity S-wave (km/s) = 3.38678 3.54714 3.46789
# Velocity P-wave (km/s) = 5.97835 6.26212 6.12188
#
# Compressibility (1/GPa) = 0.02203343
#
# Stress axis : x y z
#
# Youngs Moduli (GPa) = 70.95200 45.44394 64.38393
#
# Poissons Ratio (x) = 0.11847 0.36304
# Poissons Ratio (y) = 0.18496 0.42192
# Poissons Ratio (z) = 0.40008 0.29781
#
# Static dielectric constant tensor:
#      x y z
#    x 1.809990 0.000000 0.000000 
#    y 0.000000 1.859610 0.000000 
#    z 0.000000 0.000000 1.832310 
# 
# From -- ./inp_files/12454.got.cif
#   From: 2010.05.17/outbox.cif.g08.bks.cpg/sg41_7_cif.got.tgz:12454.got - 2010.06.03 18:54:24.
