data_PCOD9367908
_publ_section_title
;
Structure prediction by ZEFSAII (Michael W. Deem and Ramdas Pophale) SiO2 
 PCOD9367908
Probable space group: A B A 2
;
_chemical_formula_sum "Si O2"
_cell_formula_units_Z 48
_cell_length_a 7.625347
_cell_length_b 30.560532
_cell_length_c 9.014870
_cell_angle_alpha 90.000000
_cell_angle_beta 90.000000
_cell_angle_gamma 90.000000
_cell_volume 2100.777174
_symmetry_space_group_name_H-M "A B A 2"
_symmetry_group_IT_number 41
_symmetry_cell_setting 'orthorhombic'
loop_
_space_group_symop_operation_xyz
x,y,z
-x,-y,z
1/2-x,y,1/2+z
1/2+x,-y,1/2+z
x,1/2+y,1/2+z
-x,1/2-y,1/2+z
1/2-x,1/2+y,z
1/2+x,1/2-y,z
loop_
_atom_site_type_symbol
_atom_site_label
_atom_site_fract_x
_atom_site_fract_y
_atom_site_fract_z
Si Si1 0.329046 0.239211 0.352540
Si Si2 0.082529 0.953449 0.033358
Si Si3 0.948876 0.548482 0.184382
Si Si4 0.598668 0.337702 0.440905
Si Si5 0.704568 0.890511 0.663149
Si Si6 0.874575 0.708485 0.142941
O O1 0.157707 0.208312 0.368381
O O2 0.289624 0.281519 0.248197
O O3 0.372377 0.253054 0.519950
O O4 0.470639 0.211442 0.263106
O O5 0.098430 0.955777 0.856962
O O6 0.270058 0.940578 0.100004
O O7 0.000000 0.000000 0.086459
O O8 0.938883 0.918211 0.077742
O O9 0.000000 0.500000 0.128282
O O10 0.115766 0.580961 0.174564
O O11 0.620935 0.374885 0.317988
O O12 0.744456 0.349049 0.563892
O O13 0.419317 0.332256 0.535510
#
# Coordination Sequence:
#
# PCOD9367908 Si02
#       6
#     8   8   8   8   8   8
#     4  12  23  44  71  99 133 184 243 281 355 443
#     4  11  25  45  74 105 141 192 244 290 343 436
#     4  11  25  45  74 108 140 194 244 284 353 431
#     4  12  25  44  72  98 143 186 223 303 370 400
#     4  12  25  48  67 107 151 183 236 305 359 414
#     4  12  23  44  70 101 134 183 238 290 351 439
#
# _framework density 22.848685
#
# number of rings (size 3 to 8) (size 9 to 14) (size 15 to 20)
#    0.000    0.333    8.333    0.000    2.333    0.667 
#    3.000    0.000    0.000    0.000    0.000    0.000 
#    0.000    0.000    0.000    0.000    0.000    0.000 
#
# Total GULP energy -133997.700612 kJ/mol
# GULP energy per Si atom -5583.237525 kJ/mol
# Density = 2.279668 g / cm^3
# Si number density = 22.848685 Si / 1000 Ang^3
#
#
#
# Elastic Constant Matrix: (Units=GPa)
#
#
# Indices 1 2 3 4 5 6 
#
# 1 91.9088 17.0924 16.8595 0.0000 0.0000 0.0000
# 2 17.0924 64.9338 9.0610 0.0000 0.0000 0.0000
# 3 16.8595 9.0610 93.1180 0.0000 0.0000 0.0000
# 4 0.0000 0.0000 0.0000 49.4646 0.0000 0.0000
# 5 0.0000 0.0000 0.0000 0.0000 32.9332 0.0000
# 6 0.0000 0.0000 0.0000 0.0000 0.0000 38.5563
#
#
#
# Elastic Compliance Matrix: (Units=1/GPa)
#
#
# Indices 1 2 3 4 5 6 
#
# 1 0.011747 -0.002834 -0.001851 0.000000 0.000000 0.000000
# 2 -0.002834 0.016296 -0.001073 0.000000 0.000000 0.000000
# 3 -0.001851 -0.001073 0.011179 0.000000 0.000000 0.000000
# 4 0.000000 0.000000 0.000000 0.020216 0.000000 0.000000
# 5 0.000000 0.000000 0.000000 0.000000 0.030365 0.000000
# 6 0.000000 0.000000 0.000000 0.000000 0.000000 0.025936
#
#
# Mechanical properties :
#
#
# Convention : Reuss Voigt Hill
#
# Bulk Modulus (GPa) = 36.09280 37.33182 36.71231
# Shear Modulus (GPa) = 36.63299 37.98733 37.31016
#
# Velocity S-wave (km/s) = 4.00845 4.08187 4.04533
# Velocity P-wave (km/s) = 6.10363 6.21207 6.15809
#
# Compressibility (1/GPa) = 0.02770636
#
# Stress axis : x y z
#
# Youngs Moduli (GPa) = 85.12875 61.36509 89.45680
#
# Poissons Ratio (x) = 0.17390 0.16559
# Poissons Ratio (y) = 0.24124 0.09595
# Poissons Ratio (z) = 0.15758 0.06582
#
# Static dielectric constant tensor:
#      x y z
#    x 1.883990 0.000000 0.000000 
#    y 0.000000 1.881690 0.000000 
#    z 0.000000 0.000000 1.817990 
# 
# From -- ./inp_files/1810.got.cif
#   From: 2010.05.17/outbox.cif.g08.bks.cpg/sg41_1_cif.got.tgz:1810.got - 2010.06.03 18:54:24.
