data_PCOD9367290
_publ_section_title
;
Structure prediction by ZEFSAII (Michael W. Deem and Ramdas Pophale) SiO2 
 PCOD9367290
Probable space group: A B A 2
;
_chemical_formula_sum "Si O2"
_cell_formula_units_Z 64
_cell_length_a 8.877533
_cell_length_b 11.113113
_cell_length_c 29.324472
_cell_angle_alpha 90.000000
_cell_angle_beta 90.000000
_cell_angle_gamma 90.000000
_cell_volume 2893.065237
_symmetry_space_group_name_H-M "A B A 2"
_symmetry_group_IT_number 41
_symmetry_cell_setting 'orthorhombic'
loop_
_space_group_symop_operation_xyz
x,y,z
-x,-y,z
1/2-x,y,1/2+z
1/2+x,-y,1/2+z
x,1/2+y,1/2+z
-x,1/2-y,1/2+z
1/2-x,1/2+y,z
1/2+x,1/2-y,z
loop_
_atom_site_type_symbol
_atom_site_label
_atom_site_fract_x
_atom_site_fract_y
_atom_site_fract_z
Si Si1 0.954704 0.114040 0.100680
Si Si2 0.932575 0.233974 0.462739
Si Si3 0.298505 0.591232 0.428750
Si Si4 0.796004 0.271866 0.646140
Si Si5 0.597034 0.673725 0.803097
Si Si6 0.789310 0.916261 0.830460
Si Si7 0.960158 0.861826 0.706438
Si Si8 0.686169 0.595603 0.003801
O O1 0.831929 0.189522 0.125841
O O2 0.116498 0.177163 0.101739
O O3 0.876212 0.071859 0.054015
O O4 0.000000 0.000000 0.130956
O O5 0.807905 0.290511 0.430060
O O6 0.835328 0.178092 0.503871
O O7 0.032837 0.132772 0.439022
O O8 0.050341 0.332178 0.480144
O O9 0.276321 0.539494 0.378819
O O10 0.234970 0.512588 0.470740
O O11 0.705653 0.348597 0.684328
O O12 0.922645 0.199271 0.672444
O O13 0.688020 0.798650 0.814000
O O14 0.691780 0.544703 0.802197
O O15 0.458581 0.638341 0.836718
O O16 0.501963 0.690425 0.756075
O O17 0.000000 0.000000 0.709335
#
# Coordination Sequence:
#
# PCOD9367290 Si02
#       8
#     8   8   8   8   8   8   8   8
#     4  11  22  42  63 101 130 172 226 277 355 414
#     4  10  23  39  60  91 122 180 224 275 346 399
#     4  11  23  40  64  90 132 179 231 287 342 413
#     4  10  24  40  70  96 135 175 224 289 353 444
#     4  11  25  45  69 104 143 187 233 308 358 437
#     4  11  25  43  68 102 141 189 242 299 363 418
#     4  11  21  43  68  99 136 178 228 283 371 428
#     4  11  23  40  64  91 131 174 224 288 337 417
#
# _framework density 22.121866000000001
#
# number of rings (size 3 to 8) (size 9 to 14) (size 15 to 20)
#    0.000    1.250    1.250    4.500    7.000    1.500 
#    2.250    3.750    0.000    0.000    0.000    0.000 
#    0.000    0.000    0.000    0.000    0.000    0.000 
#
# Total GULP energy -178196.304169 kJ/mol
# GULP energy per Si atom -5568.634505 kJ/mol
# Density = 2.207152 g / cm^3
# Si number density = 22.121866 Si / 1000 Ang^3
#
#
#
# Elastic Constant Matrix: (Units=GPa)
#
#
# Indices 1 2 3 4 5 6 
#
# 1 117.1222 18.0492 22.7658 0.0000 0.0000 0.0000
# 2 18.0492 52.1628 15.6059 0.0000 0.0000 0.0000
# 3 22.7658 15.6059 94.7630 0.0000 0.0000 0.0000
# 4 0.0000 0.0000 0.0000 29.1011 0.0000 0.0000
# 5 0.0000 0.0000 0.0000 0.0000 25.2617 0.0000
# 6 0.0000 0.0000 0.0000 0.0000 0.0000 52.3009
#
#
#
# Elastic Compliance Matrix: (Units=1/GPa)
#
#
# Indices 1 2 3 4 5 6 
#
# 1 0.009300 -0.002682 -0.001793 0.000000 0.000000 0.000000
# 2 -0.002682 0.020937 -0.002804 0.000000 0.000000 0.000000
# 3 -0.001793 -0.002804 0.011445 0.000000 0.000000 0.000000
# 4 0.000000 0.000000 0.000000 0.034363 0.000000 0.000000
# 5 0.000000 0.000000 0.000000 0.000000 0.039586 0.000000
# 6 0.000000 0.000000 0.000000 0.000000 0.000000 0.019120
#
#
# Mechanical properties :
#
#
# Convention : Reuss Voigt Hill
#
# Bulk Modulus (GPa) = 36.86459 41.87666 39.37062
# Shear Modulus (GPa) = 31.57582 35.17454 33.37518
#
# Velocity S-wave (km/s) = 3.78214 3.99185 3.88841
# Velocity P-wave (km/s) = 5.98107 6.34173 6.16404
#
# Compressibility (1/GPa) = 0.02712630
#
# Stress axis : x y z
#
# Youngs Moduli (GPa) = 107.52948 47.76123 87.37414
#
# Poissons Ratio (x) = 0.12808 0.15662
# Poissons Ratio (y) = 0.28835 0.24498
# Poissons Ratio (z) = 0.19275 0.13391
#
# Static dielectric constant tensor:
#      x y z
#    x 1.845760 0.000000 0.000000 
#    y 0.000000 2.039330 0.000000 
#    z 0.000000 0.000000 1.900200 
# 
# From -- ./inp_files/12694.got.cif
#   From: 2010.05.17/outbox.cif.g08.bks.cpg/sg41_7_cif.got.tgz:12694.got - 2010.06.03 18:54:24.
