data_PCOD9367193
_publ_section_title
;
Structure prediction by ZEFSAII (Michael W. Deem and Ramdas Pophale) SiO2 
 PCOD9367193
Probable space group: A B A 2
;
_chemical_formula_sum "Si O2"
_cell_formula_units_Z 48
_cell_length_a 9.457616
_cell_length_b 17.312815
_cell_length_c 10.967321
_cell_angle_alpha 90.000000
_cell_angle_beta 90.000000
_cell_angle_gamma 90.000000
_cell_volume 1795.766725
_symmetry_space_group_name_H-M "A B A 2"
_symmetry_group_IT_number 41
_symmetry_cell_setting 'orthorhombic'
loop_
_space_group_symop_operation_xyz
x,y,z
-x,-y,z
1/2-x,y,1/2+z
1/2+x,-y,1/2+z
x,1/2+y,1/2+z
-x,1/2-y,1/2+z
1/2-x,1/2+y,z
1/2+x,1/2-y,z
loop_
_atom_site_type_symbol
_atom_site_label
_atom_site_fract_x
_atom_site_fract_y
_atom_site_fract_z
Si Si1 0.500000 0.000000 0.526150
Si Si2 0.533573 0.385474 0.815143
Si Si3 0.278237 0.266058 0.368946
Si Si4 0.191131 0.049278 0.217456
Si Si5 0.000000 0.000000 0.436069
Si Si6 0.522954 0.796125 0.714600
Si Si7 0.099573 0.350075 0.083573
O O1 0.494821 0.928770 0.436017
O O2 0.638410 0.005853 0.610963
O O3 0.627368 0.312340 0.859599
O O4 0.646510 0.433454 0.734660
O O5 0.400439 0.379228 0.723654
O O6 0.127080 0.238957 0.320161
O O7 0.372986 0.315476 0.273432
O O8 0.282230 0.310768 0.497205
O O9 0.108839 0.128141 0.178655
O O10 0.128652 0.021568 0.345726
O O11 0.035903 0.921822 0.509073
O O12 0.507011 0.728516 0.613955
#
# Coordination Sequence:
#
# PCOD9367193 Si02
#       7
#     4   8   8   8   4   8   8
#     4  11  23  44  64 104 141 187 250 298 370 467
#     4  10  24  44  70 106 140 197 251 303 385 444
#     4  10  22  43  70  98 141 185 247 300 353 442
#     4  10  23  45  73  98 145 201 241 310 377 445
#     4  11  23  44  68 110 147 187 246 302 394 441
#     4  10  22  44  70 103 136 190 250 293 366 437
#     4  11  23  44  69 104 146 182 241 313 367 441
#
# _framework density 26.729531999999999
#
# number of rings (size 3 to 8) (size 9 to 14) (size 15 to 20)
#    0.000    1.667    1.667    1.500    2.333    4.000 
#   12.000    0.000    0.000    0.000    0.000    0.000 
#    0.000    0.000    0.000    0.000    0.000    0.000 
#
# Total GULP energy -134129.458702 kJ/mol
# GULP energy per Si atom -5588.727446 kJ/mol
# Density = 2.666869 g / cm^3
# Si number density = 26.729532 Si / 1000 Ang^3
#
#
#
# Elastic Constant Matrix: (Units=GPa)
#
#
# Indices 1 2 3 4 5 6 
#
# 1 163.0116 44.4127 55.8724 0.0000 0.0000 0.0000
# 2 44.4127 121.4183 72.4180 0.0000 0.0000 0.0000
# 3 55.8724 72.4180 163.8829 0.0000 0.0000 0.0000
# 4 0.0000 0.0000 0.0000 63.0325 0.0000 0.0000
# 5 0.0000 0.0000 0.0000 0.0000 46.8525 0.0000
# 6 0.0000 0.0000 0.0000 0.0000 0.0000 35.0884
#
#
#
# Elastic Compliance Matrix: (Units=1/GPa)
#
#
# Indices 1 2 3 4 5 6 
#
# 1 0.007163 -0.001580 -0.001744 0.000000 0.000000 0.000000
# 2 -0.001580 0.011532 -0.004557 0.000000 0.000000 0.000000
# 3 -0.001744 -0.004557 0.008710 0.000000 0.000000 0.000000
# 4 0.000000 0.000000 0.000000 0.015865 0.000000 0.000000
# 5 0.000000 0.000000 0.000000 0.000000 0.021344 0.000000
# 6 0.000000 0.000000 0.000000 0.000000 0.000000 0.028499
#
#
# Mechanical properties :
#
#
# Convention : Reuss Voigt Hill
#
# Bulk Modulus (GPa) = 85.88865 88.19102 87.03983
# Shear Modulus (GPa) = 44.34370 47.36865 45.85617
#
# Velocity S-wave (km/s) = 4.07747 4.21425 4.14643
# Velocity P-wave (km/s) = 7.37360 7.53295 7.45370
#
# Compressibility (1/GPa) = 0.01164298
#
# Stress axis : x y z
#
# Youngs Moduli (GPa) = 139.61262 86.71551 114.80778
#
# Poissons Ratio (x) = 0.13700 0.20020
# Poissons Ratio (y) = 0.22058 0.52320
# Poissons Ratio (z) = 0.24346 0.39518
#
# Static dielectric constant tensor:
#      x y z
#    x 2.053600 0.000000 0.000000 
#    y 0.000000 2.298630 0.000000 
#    z 0.000000 0.000000 2.116020 
# 
# From -- ./inp_files/5007.got.cif
#   From: 2010.05.17/outbox.cif.g08.bks.cpg/sg41_3_cif.got.tgz:5007.got - 2010.06.03 18:54:24.
