data_PCOD9367182
_publ_section_title
;
Structure prediction by ZEFSAII (Michael W. Deem and Ramdas Pophale) SiO2 
 PCOD9367182
Probable space group: A B A 2
;
_chemical_formula_sum "Si O2"
_cell_formula_units_Z 60
_cell_length_a 8.319543
_cell_length_b 28.097311
_cell_length_c 10.295640
_cell_angle_alpha 90.000000
_cell_angle_beta 90.000000
_cell_angle_gamma 90.000000
_cell_volume 2406.675727
_symmetry_space_group_name_H-M "A B A 2"
_symmetry_group_IT_number 41
_symmetry_cell_setting 'orthorhombic'
loop_
_space_group_symop_operation_xyz
x,y,z
-x,-y,z
1/2-x,y,1/2+z
1/2+x,-y,1/2+z
x,1/2+y,1/2+z
-x,1/2-y,1/2+z
1/2-x,1/2+y,z
1/2+x,1/2-y,z
loop_
_atom_site_type_symbol
_atom_site_label
_atom_site_fract_x
_atom_site_fract_y
_atom_site_fract_z
Si Si1 0.203744 0.055155 0.664450
Si Si2 0.272413 0.960297 0.315767
Si Si3 0.047022 0.397487 0.690149
Si Si4 0.000000 0.500000 0.965732
Si Si5 0.396836 0.812595 0.496657
Si Si6 0.837335 0.833233 0.361318
Si Si7 0.270203 0.223623 0.590363
Si Si8 0.487985 0.617198 0.829420
O O1 0.386639 0.071935 0.660112
O O2 0.081120 0.098336 0.691936
O O3 0.135884 0.027674 0.542853
O O4 0.188869 0.013847 0.774605
O O5 0.412923 0.929126 0.376721
O O6 0.208720 0.928534 0.196381
O O7 0.102631 0.962171 0.387849
O O8 0.988310 0.363863 0.811149
O O9 0.080409 0.359905 0.578727
O O10 0.561737 0.784608 0.518532
O O11 0.269287 0.778674 0.564910
O O12 0.402218 0.835713 0.351477
O O13 0.853319 0.804853 0.495603
O O14 0.786798 0.798315 0.237133
O O15 0.686858 0.868911 0.387619
#
# Coordination Sequence:
#
# PCOD9367182 Si02
#       8
#     8   8   8   4   8   8   8   8
#     4  11  23  46  62  93 138 182 222 281 358 411
#     4  12  24  42  64 100 129 175 238 282 333 430
#     4  10  23  41  64  96 135 170 234 282 343 407
#     4  12  26  40  70  94 130 192 224 288 352 412
#     4  10  24  40  66  96 131 183 217 292 344 422
#     4   9  22  43  67  95 137 185 218 297 354 429
#     4  10  22  43  66  97 134 178 231 279 370 417
#     4  10  23  41  64  96 133 175 232 281 345 415
#
# _framework density 24.930654000000001
#
# number of rings (size 3 to 8) (size 9 to 14) (size 15 to 20)
#    0.000    1.600    2.667    0.000    3.733   10.667 
#    0.000    0.000    0.000    0.000    0.000    0.000 
#    0.000    0.000    0.000    0.000    0.000    0.000 
#
# Total GULP energy -167218.213719 kJ/mol
# GULP energy per Si atom -5573.940457 kJ/mol
# Density = 2.487391 g / cm^3
# Si number density = 24.930654 Si / 1000 Ang^3
#
#
#
# Elastic Constant Matrix: (Units=GPa)
#
#
# Indices 1 2 3 4 5 6 
#
# 1 76.6666 53.0405 14.1706 0.0000 0.0000 0.0000
# 2 53.0405 139.6215 25.3527 0.0000 0.0000 0.0000
# 3 14.1706 25.3527 46.9662 0.0000 0.0000 0.0000
# 4 0.0000 0.0000 0.0000 19.8639 0.0000 0.0000
# 5 0.0000 0.0000 0.0000 0.0000 24.2640 0.0000
# 6 0.0000 0.0000 0.0000 0.0000 0.0000 49.4634
#
#
#
# Elastic Compliance Matrix: (Units=1/GPa)
#
#
# Indices 1 2 3 4 5 6 
#
# 1 0.017847 -0.006433 -0.001912 0.000000 0.000000 0.000000
# 2 -0.006433 0.010259 -0.003597 0.000000 0.000000 0.000000
# 3 -0.001912 -0.003597 0.023811 0.000000 0.000000 0.000000
# 4 0.000000 0.000000 0.000000 0.050342 0.000000 0.000000
# 5 0.000000 0.000000 0.000000 0.000000 0.041213 0.000000
# 6 0.000000 0.000000 0.000000 0.000000 0.000000 0.020217
#
#
# Mechanical properties :
#
#
# Convention : Reuss Voigt Hill
#
# Bulk Modulus (GPa) = 35.67277 49.82025 42.74651
# Shear Modulus (GPa) = 25.39122 30.09764 27.74443
#
# Velocity S-wave (km/s) = 3.19482 3.47833 3.33958
# Velocity P-wave (km/s) = 5.28668 6.01320 5.66161
#
# Compressibility (1/GPa) = 0.02803259
#
# Stress axis : x y z
#
# Youngs Moduli (GPa) = 56.03074 97.47451 41.99804
#
# Poissons Ratio (x) = 0.62703 0.08032
# Poissons Ratio (y) = 0.36043 0.15107
# Poissons Ratio (z) = 0.10716 0.35062
#
# Static dielectric constant tensor:
#      x y z
#    x 1.969910 0.000000 0.000000 
#    y 0.000000 2.122160 0.000000 
#    z 0.000000 0.000000 2.080840 
# 
# From -- ./inp_files/4570.got.cif
#   From: 2010.05.17/outbox.cif.g08.bks.cpg/sg41_3_cif.got.tgz:4570.got - 2010.06.03 18:54:24.
