data_PCOD9367855
_publ_section_title
;
Structure prediction by ZEFSAII (Michael W. Deem and Ramdas Pophale) SiO2 
 PCOD9367855
Probable space group: A B A 2
;
_chemical_formula_sum "Si O2"
_cell_formula_units_Z 60
_cell_length_a 17.493824
_cell_length_b 16.311860
_cell_length_c 9.319581
_cell_angle_alpha 90.000000
_cell_angle_beta 90.000000
_cell_angle_gamma 90.000000
_cell_volume 2659.405886
_symmetry_space_group_name_H-M "A B A 2"
_symmetry_group_IT_number 41
_symmetry_cell_setting 'orthorhombic'
loop_
_space_group_symop_operation_xyz
x,y,z
-x,-y,z
1/2-x,y,1/2+z
1/2+x,-y,1/2+z
x,1/2+y,1/2+z
-x,1/2-y,1/2+z
1/2-x,1/2+y,z
1/2+x,1/2-y,z
loop_
_atom_site_type_symbol
_atom_site_label
_atom_site_fract_x
_atom_site_fract_y
_atom_site_fract_z
Si Si1 0.947897 0.672999 0.674650
Si Si2 0.801351 0.278378 0.643192
Si Si3 0.500000 0.000000 0.590369
Si Si4 0.712548 0.127810 0.717508
Si Si5 0.353538 0.111511 0.108924
Si Si6 0.076334 0.726157 0.889154
Si Si7 0.750726 0.517222 0.981913
Si Si8 0.124325 0.605318 0.422296
O O1 0.968253 0.576660 0.679616
O O2 0.863186 0.680567 0.737950
O O3 0.940622 0.703339 0.508241
O O4 0.009344 0.718731 0.772870
O O5 0.772778 0.185314 0.635006
O O6 0.724857 0.334608 0.631308
O O7 0.845536 0.274492 0.795407
O O8 0.858242 0.316864 0.524394
O O9 0.564075 0.955249 0.494938
O O10 0.699285 0.053379 0.608636
O O11 0.737631 0.086430 0.863866
O O12 0.397159 0.119157 0.258785
O O13 0.324956 0.022380 0.056726
O O14 0.409085 0.147701 0.988917
O O15 0.704853 0.443049 0.910124
#
# Coordination Sequence:
#
# PCOD9367855 Si02
#       8
#     8   8   4   8   8   8   8   8
#     4  12  29  49  76 106 157 201 250 307 391 460
#     4  11  24  45  81 105 145 193 253 316 379 448
#     4  12  26  48  76 100 152 198 242 306 386 450
#     4  12  25  44  71 111 145 190 251 318 374 447
#     4  11  25  45  73 108 141 196 251 313 375 454
#     4  12  28  50  73 110 149 200 255 304 386 468
#     4  11  24  43  71 107 146 182 250 315 373 439
#     4  11  24  46  73 105 144 197 243 310 384 454
#
# _framework density 22.561430000000001
#
# number of rings (size 3 to 8) (size 9 to 14) (size 15 to 20)
#    0.000    0.533    5.333    2.400    7.467    1.067 
#    2.400    0.000    0.000    0.000    0.000    0.000 
#    0.000    0.000    0.000    0.000    0.000    0.000 
#
# Total GULP energy -167528.144827 kJ/mol
# GULP energy per Si atom -5584.271494 kJ/mol
# Density = 2.251008 g / cm^3
# Si number density = 22.561430 Si / 1000 Ang^3
#
#
#
# Elastic Constant Matrix: (Units=GPa)
#
#
# Indices 1 2 3 4 5 6 
#
# 1 51.2747 17.8059 22.6590 0.0000 0.0000 0.0000
# 2 17.8059 91.6191 31.9401 0.0000 0.0000 0.0000
# 3 22.6590 31.9401 115.1506 0.0000 0.0000 0.0000
# 4 0.0000 0.0000 0.0000 33.9288 0.0000 0.0000
# 5 0.0000 0.0000 0.0000 0.0000 30.3831 0.0000
# 6 0.0000 0.0000 0.0000 0.0000 0.0000 37.0705
#
#
#
# Elastic Compliance Matrix: (Units=1/GPa)
#
#
# Indices 1 2 3 4 5 6 
#
# 1 0.022118 -0.003079 -0.003498 0.000000 0.000000 0.000000
# 2 -0.003079 0.012512 -0.002865 0.000000 0.000000 0.000000
# 3 -0.003498 -0.002865 0.010167 0.000000 0.000000 0.000000
# 4 0.000000 0.000000 0.000000 0.029473 0.000000 0.000000
# 5 0.000000 0.000000 0.000000 0.000000 0.032913 0.000000
# 6 0.000000 0.000000 0.000000 0.000000 0.000000 0.026976
#
#
# Mechanical properties :
#
#
# Convention : Reuss Voigt Hill
#
# Bulk Modulus (GPa) = 38.59031 44.76162 41.67597
# Shear Modulus (GPa) = 30.92516 32.65244 31.78880
#
# Velocity S-wave (km/s) = 3.70633 3.80842 3.75772
# Velocity P-wave (km/s) = 5.95462 6.26273 6.11062
#
# Compressibility (1/GPa) = 0.02591324
#
# Stress axis : x y z
#
# Youngs Moduli (GPa) = 45.21210 79.92451 98.35514
#
# Poissons Ratio (x) = 0.24609 0.34407
# Poissons Ratio (y) = 0.13921 0.28175
# Poissons Ratio (z) = 0.15816 0.22895
#
# Static dielectric constant tensor:
#      x y z
#    x 1.897810 0.000000 0.000000 
#    y 0.000000 1.863660 0.000000 
#    z 0.000000 0.000000 1.858930 
# 
# From -- ./inp_files/3175.got.cif
#   From: 2010.05.17/outbox.cif.g08.bks.cpg/sg41_2_cif.got.tgz:3175.got - 2010.06.03 18:54:24.
