data_PCOD9367910
_publ_section_title
;
Structure prediction by ZEFSAII (Michael W. Deem and Ramdas Pophale) SiO2 
 PCOD9367910
Probable space group: A B A 2
;
_chemical_formula_sum "Si O2"
_cell_formula_units_Z 36
_cell_length_a 25.261827
_cell_length_b 6.963201
_cell_length_c 7.439125
_cell_angle_alpha 90.000000
_cell_angle_beta 90.000000
_cell_angle_gamma 90.000000
_cell_volume 1308.565737
_symmetry_space_group_name_H-M "A B A 2"
_symmetry_group_IT_number 41
_symmetry_cell_setting 'orthorhombic'
loop_
_space_group_symop_operation_xyz
x,y,z
-x,-y,z
1/2-x,y,1/2+z
1/2+x,-y,1/2+z
x,1/2+y,1/2+z
-x,1/2-y,1/2+z
1/2-x,1/2+y,z
1/2+x,1/2-y,z
loop_
_atom_site_type_symbol
_atom_site_label
_atom_site_fract_x
_atom_site_fract_y
_atom_site_fract_z
Si Si1 0.801731 0.641365 0.922080
Si Si2 0.185498 0.768527 0.814809
Si Si3 0.588021 0.770030 0.376632
Si Si4 0.500000 0.500000 0.951453
Si Si5 0.925537 0.324546 0.964241
O O1 0.809732 0.463191 0.787979
O O2 0.740382 0.694363 0.916375
O O3 0.848351 0.791571 0.879944
O O4 0.813815 0.609429 0.132707
O O5 0.129971 0.776793 0.915200
O O6 0.554827 0.898092 0.518073
O O7 0.576698 0.546112 0.409252
O O8 0.568365 0.826469 0.179327
O O9 0.527955 0.695647 0.881210
#
# Coordination Sequence:
#
# PCOD9367910 Si02
#       5
#     8   8   8   4   8
#     4  11  25  45  78 115 159 201 258 322 393 469
#     4  11  25  45  78 115 159 201 258 322 393 469
#     4  11  29  50  78 117 158 210 268 326 395 470
#     4  12  30  44  90  98 176 196 284 310 412 450
#     4  11  29  50  78 117 158 210 268 326 395 470
#
# _framework density 27.511033999999999
#
# number of rings (size 3 to 8) (size 9 to 14) (size 15 to 20)
#    0.000    0.889    0.000    3.333   21.778    0.000 
#    0.000    0.000    0.000    0.000    0.000    0.000 
#    0.000    0.000    0.000    0.000    0.000    0.000 
#
# Total GULP energy -100610.013504 kJ/mol
# GULP energy per Si atom -5589.445195 kJ/mol
# Density = 2.744842 g / cm^3
# Si number density = 27.511034 Si / 1000 Ang^3
#
#
#
# Elastic Constant Matrix: (Units=GPa)
#
#
# Indices 1 2 3 4 5 6 
#
# 1 209.7090 27.1454 16.6494 0.0000 0.0000 0.0000
# 2 27.1454 101.4752 24.6981 0.0000 0.0000 0.0000
# 3 16.6494 24.6981 120.0559 0.0000 0.0000 0.0000
# 4 0.0000 0.0000 0.0000 30.5625 0.0000 0.0000
# 5 0.0000 0.0000 0.0000 0.0000 27.7832 0.0000
# 6 0.0000 0.0000 0.0000 0.0000 0.0000 57.1902
#
#
#
# Elastic Compliance Matrix: (Units=1/GPa)
#
#
# Indices 1 2 3 4 5 6 
#
# 1 0.004961 -0.001221 -0.000437 0.000000 0.000000 0.000000
# 2 -0.001221 0.010674 -0.002027 0.000000 0.000000 0.000000
# 3 -0.000437 -0.002027 0.008807 0.000000 0.000000 0.000000
# 4 0.000000 0.000000 0.000000 0.032720 0.000000 0.000000
# 5 0.000000 0.000000 0.000000 0.000000 0.035993 0.000000
# 6 0.000000 0.000000 0.000000 0.000000 0.000000 0.017486
#
#
# Mechanical properties :
#
#
# Convention : Reuss Voigt Hill
#
# Bulk Modulus (GPa) = 58.56885 63.13621 60.85253
# Shear Modulus (GPa) = 40.42004 47.29034 43.85519
#
# Velocity S-wave (km/s) = 3.83721 4.15053 3.99694
# Velocity P-wave (km/s) = 6.40060 6.78000 6.59303
#
# Compressibility (1/GPa) = 0.01707392
#
# Stress axis : x y z
#
# Youngs Moduli (GPa) = 201.56309 93.68141 113.54647
#
# Poissons Ratio (x) = 0.11437 0.04961
# Poissons Ratio (y) = 0.24608 0.23012
# Poissons Ratio (z) = 0.08806 0.18986
#
# Static dielectric constant tensor:
#      x y z
#    x 2.146550 0.000000 0.000000 
#    y 0.000000 2.173000 0.000000 
#    z 0.000000 0.000000 2.162370 
# 
# From -- ./inp_files/3757.got.cif
#   From: 2010.05.17/outbox.cif.g08.bks.cpg/sg41_2_cif.got.tgz:3757.got - 2010.06.03 18:54:24.
