data_PCOD9367174
_publ_section_title
;
Structure prediction by ZEFSAII (Michael W. Deem and Ramdas Pophale) SiO2 
 PCOD9367174
Probable space group: A B A 2
;
_chemical_formula_sum "Si O2"
_cell_formula_units_Z 56
_cell_length_a 14.618757
_cell_length_b 13.743702
_cell_length_c 10.254183
_cell_angle_alpha 90.000000
_cell_angle_beta 90.000000
_cell_angle_gamma 90.000000
_cell_volume 2060.227789
_symmetry_space_group_name_H-M "A B A 2"
_symmetry_group_IT_number 41
_symmetry_cell_setting 'orthorhombic'
loop_
_space_group_symop_operation_xyz
x,y,z
-x,-y,z
1/2-x,y,1/2+z
1/2+x,-y,1/2+z
x,1/2+y,1/2+z
-x,1/2-y,1/2+z
1/2-x,1/2+y,z
1/2+x,1/2-y,z
loop_
_atom_site_type_symbol
_atom_site_label
_atom_site_fract_x
_atom_site_fract_y
_atom_site_fract_z
Si Si1 0.392922 0.379974 0.929510
Si Si2 0.160737 0.701955 0.307367
Si Si3 0.250008 0.529637 0.986798
Si Si4 0.026261 0.787799 0.489591
Si Si5 0.909523 0.472198 0.188268
Si Si6 0.414552 0.063100 0.821665
Si Si7 0.662000 0.253180 0.207539
O O1 0.412448 0.457904 0.813863
O O2 0.340163 0.296813 0.849258
O O3 0.325638 0.447181 0.012910
O O4 0.474988 0.318364 0.994412
O O5 0.206510 0.628342 0.418072
O O6 0.103394 0.783579 0.377317
O O7 0.084319 0.637519 0.237332
O O8 0.229577 0.737143 0.194582
O O9 0.186794 0.528921 0.115098
O O10 0.171914 0.504855 0.878553
O O11 0.093207 0.801991 0.612822
O O12 0.952284 0.864322 0.436273
O O13 0.000000 0.500000 0.110421
O O14 0.376091 0.137392 0.714778
O O15 0.500000 0.000000 0.777402
#
# Coordination Sequence:
#
# PCOD9367174 Si02
#       7
#     8   8   8   8   8   8   8
#     4  10  24  44  66 106 141 183 245 298 354 452
#     4  10  22  43  65 103 147 182 245 304 355 450
#     4  10  23  40  67 100 142 187 238 301 364 436
#     4  11  23  45  75 103 144 196 244 306 366 436
#     4  11  21  40  70 100 136 187 238 296 377 427
#     4  10  24  44  68 103 144 185 241 302 363 445
#     4  10  24  44  67 105 144 187 241 299 374 426
#
# _framework density 27.181460000000001
#
# number of rings (size 3 to 8) (size 9 to 14) (size 15 to 20)
#    0.000    1.714    1.429    1.286    6.000    0.000 
#   12.857    2.857    0.000    0.000    0.000    0.000 
#    0.000    0.000    0.000    0.000    0.000    0.000 
#
# Total GULP energy -156412.919761 kJ/mol
# GULP energy per Si atom -5586.175706 kJ/mol
# Density = 2.711959 g / cm^3
# Si number density = 27.181460 Si / 1000 Ang^3
#
#
#
# Elastic Constant Matrix: (Units=GPa)
#
#
# Indices 1 2 3 4 5 6 
#
# 1 121.4906 24.6692 30.1137 0.0000 0.0000 0.0000
# 2 24.6692 77.9134 1.8299 0.0000 0.0000 0.0000
# 3 30.1137 1.8299 57.0763 0.0000 0.0000 0.0000
# 4 0.0000 0.0000 0.0000 28.0708 0.0000 0.0000
# 5 0.0000 0.0000 0.0000 0.0000 36.1967 0.0000
# 6 0.0000 0.0000 0.0000 0.0000 0.0000 34.2035
#
#
#
# Elastic Compliance Matrix: (Units=1/GPa)
#
#
# Indices 1 2 3 4 5 6 
#
# 1 0.010164 -0.003095 -0.005263 0.000000 0.000000 0.000000
# 2 -0.003095 0.013787 0.001191 0.000000 0.000000 0.000000
# 3 -0.005263 0.001191 0.020259 0.000000 0.000000 0.000000
# 4 0.000000 0.000000 0.000000 0.035624 0.000000 0.000000
# 5 0.000000 0.000000 0.000000 0.000000 0.027627 0.000000
# 6 0.000000 0.000000 0.000000 0.000000 0.000000 0.029237
#
#
# Mechanical properties :
#
#
# Convention : Reuss Voigt Hill
#
# Bulk Modulus (GPa) = 33.47239 41.07843 37.27541
# Shear Modulus (GPa) = 31.05770 33.01870 32.03820
#
# Velocity S-wave (km/s) = 3.38391 3.48911 3.43691
# Velocity P-wave (km/s) = 5.25442 5.60155 5.43076
#
# Compressibility (1/GPa) = 0.02987537
#
# Stress axis : x y z
#
# Youngs Moduli (GPa) = 98.38568 72.53417 49.36024
#
# Poissons Ratio (x) = 0.22446 0.25980
# Poissons Ratio (y) = 0.30446 -0.05877
# Poissons Ratio (z) = 0.51784 -0.08637
#
# Static dielectric constant tensor:
#      x y z
#    x 2.123980 0.000000 0.000000 
#    y 0.000000 2.127340 0.000000 
#    z 0.000000 0.000000 2.207200 
# 
# From -- ./inp_files/5594.got.cif
#   From: 2010.05.17/outbox.cif.g08.bks.cpg/sg41_3_cif.got.tgz:5594.got - 2010.06.03 18:54:24.
