data_PCOD9367825
_publ_section_title
;
Structure prediction by ZEFSAII (Michael W. Deem and Ramdas Pophale) SiO2 
 PCOD9367825
Probable space group: A B A 2
;
_chemical_formula_sum "Si O2"
_cell_formula_units_Z 60
_cell_length_a 18.476504
_cell_length_b 9.389319
_cell_length_c 16.448620
_cell_angle_alpha 90.000000
_cell_angle_beta 90.000000
_cell_angle_gamma 90.000000
_cell_volume 2853.536042
_symmetry_space_group_name_H-M "A B A 2"
_symmetry_group_IT_number 41
_symmetry_cell_setting 'orthorhombic'
loop_
_space_group_symop_operation_xyz
x,y,z
-x,-y,z
1/2-x,y,1/2+z
1/2+x,-y,1/2+z
x,1/2+y,1/2+z
-x,1/2-y,1/2+z
1/2-x,1/2+y,z
1/2+x,1/2-y,z
loop_
_atom_site_type_symbol
_atom_site_label
_atom_site_fract_x
_atom_site_fract_y
_atom_site_fract_z
Si Si1 0.526387 0.736022 0.620540
Si Si2 0.174788 0.161997 0.504149
Si Si3 0.635611 0.535581 0.832532
Si Si4 0.589901 0.278617 0.943417
Si Si5 0.110840 0.036538 0.655551
Si Si6 0.739453 0.103422 0.935370
Si Si7 0.500000 0.000000 0.738320
Si Si8 0.055966 0.179733 0.368388
O O1 0.553025 0.790358 0.532488
O O2 0.458034 0.629708 0.627134
O O3 0.591891 0.630241 0.645670
O O4 0.501218 0.864750 0.678317
O O5 0.169304 0.092615 0.592059
O O6 0.207380 0.318808 0.499328
O O7 0.101191 0.155610 0.450990
O O8 0.228194 0.060806 0.454648
O O9 0.609518 0.430597 0.904237
O O10 0.630753 0.447751 0.749432
O O11 0.714510 0.601625 0.852263
O O12 0.583124 0.671512 0.831269
O O13 0.662268 0.181830 0.940716
O O14 0.527406 0.203427 0.890760
O O15 0.438223 0.054163 0.802167
#
# Coordination Sequence:
#
# PCOD9367825 Si02
#       8
#     8   8   8   8   8   8   4   8
#     4  11  25  40  71 107 142 178 236 311 366 424
#     4  11  23  46  70  97 144 190 245 289 372 445
#     4  11  25  45  72 102 147 191 241 299 370 446
#     4  12  23  44  72 105 139 192 239 301 365 438
#     4  11  23  48  67 102 142 187 240 300 365 427
#     4  11  24  44  68 102 139 199 238 288 365 456
#     4  12  24  40  62 116 136 168 232 306 360 428
#     4  11  24  42  72 101 139 185 238 304 364 431
#
# _framework density 21.026541999999999
#
# number of rings (size 3 to 8) (size 9 to 14) (size 15 to 20)
#    0.000    0.800    5.333    2.000    3.733    0.000 
#    2.400    2.667    0.000    0.000    0.000    0.000 
#    0.000    0.000    0.000    0.000    0.000    0.000 
#
# Total GULP energy -167242.342676 kJ/mol
# GULP energy per Si atom -5574.744756 kJ/mol
# Density = 2.097868 g / cm^3
# Si number density = 21.026542 Si / 1000 Ang^3
#
#
#
# Elastic Constant Matrix: (Units=GPa)
#
#
# Indices 1 2 3 4 5 6 
#
# 1 88.0247 17.1212 43.9872 0.0000 0.0000 0.0000
# 2 17.1212 96.2698 33.5579 0.0000 0.0000 0.0000
# 3 43.9872 33.5579 128.9657 0.0000 0.0000 0.0000
# 4 0.0000 0.0000 0.0000 31.9301 0.0000 0.0000
# 5 0.0000 0.0000 0.0000 0.0000 -5.1828 0.0000
# 6 0.0000 0.0000 0.0000 0.0000 0.0000 42.3884
#
#
#
# Elastic Compliance Matrix: (Units=1/GPa)
#
#
# Indices 1 2 3 4 5 6 
#
# 1 0.013764 -0.000892 -0.004462 0.000000 0.000000 0.000000
# 2 -0.000892 0.011481 -0.002683 0.000000 0.000000 0.000000
# 3 -0.004462 -0.002683 0.009974 0.000000 0.000000 0.000000
# 4 0.000000 0.000000 0.000000 0.031318 0.000000 0.000000
# 5 0.000000 0.000000 0.000000 0.000000 -0.192947 0.000000
# 6 0.000000 0.000000 0.000000 0.000000 0.000000 0.023591
#
#
# Mechanical properties :
#
#
# Convention : Reuss Voigt Hill
#
# Bulk Modulus (GPa) = 52.23637 55.84365 54.04001
# Shear Modulus (GPa) = -62.21929 28.40010 -16.90959
#
# Velocity S-wave (km/s) = -5.44565 3.67914 -2.83892
# Velocity P-wave (km/s) = 3.82663 6.68315 3.87436
#
# Compressibility (1/GPa) = 0.01914375
#
# Stress axis : x y z
#
# Youngs Moduli (GPa) = 72.65374 87.09672 100.25875
#
# Poissons Ratio (x) = 0.07772 0.44739
# Poissons Ratio (y) = 0.06483 0.26901
# Poissons Ratio (z) = 0.32421 0.23370
#
# Static dielectric constant tensor:
#      x y z
#    x 1.790550 0.000000 0.000000 
#    y 0.000000 1.753850 0.000000 
#    z 0.000000 0.000000 1.792690 
# 
# From -- ./inp_files/10583.got.cif
#   From: 2010.05.17/outbox.cif.g08.bks.cpg/sg41_6_cif.got.tgz:10583.got - 2010.06.03 18:54:24.
