data_PCOD9367989
_publ_section_title
;
Structure prediction by ZEFSAII (Michael W. Deem and Ramdas Pophale) SiO2 
 PCOD9367989
Probable space group: A B A 2
;
_chemical_formula_sum "Si O2"
_cell_formula_units_Z 28
_cell_length_a 4.743709
_cell_length_b 24.788285
_cell_length_c 8.869673
_cell_angle_alpha 90.000000
_cell_angle_beta 90.000000
_cell_angle_gamma 90.000000
_cell_volume 1042.970751
_symmetry_space_group_name_H-M "A B A 2"
_symmetry_group_IT_number 41
_symmetry_cell_setting 'orthorhombic'
loop_
_space_group_symop_operation_xyz
x,y,z
-x,-y,z
1/2-x,y,1/2+z
1/2+x,-y,1/2+z
x,1/2+y,1/2+z
-x,1/2-y,1/2+z
1/2-x,1/2+y,z
1/2+x,1/2-y,z
loop_
_atom_site_type_symbol
_atom_site_label
_atom_site_fract_x
_atom_site_fract_y
_atom_site_fract_z
Si Si1 0.000000 0.500000 0.965540
Si Si2 0.506169 0.714385 0.524594
Si Si3 0.367111 0.431313 0.745973
Si Si4 0.332445 0.142544 0.755610
O O1 0.764096 0.521662 0.849974
O O2 0.006603 0.548194 0.089834
O O3 0.829731 0.730202 0.541674
O O4 0.450300 0.688996 0.362734
O O5 0.370474 0.671973 0.637454
O O6 0.609102 0.398407 0.833030
O O7 0.099124 0.393334 0.708271
#
# Coordination Sequence:
#
# PCOD9367989 Si02
#       4
#     4   8   8   8
#     4  12  28  50  76 110 148 200 252 310 374 444
#     4  12  24  43  70 102 142 188 240 298 365 440
#     4  12  27  47  74 106 148 194 250 309 371 442
#     4  12  25  45  70 104 144 190 244 305 367 438
#
# _framework density 26.846388999999999
#
# number of rings (size 3 to 8) (size 9 to 14) (size 15 to 20)
#    0.000    0.000    0.000   10.286    0.000    8.000 
#    0.000    0.000    0.000    0.000    0.000    0.000 
#    0.000    0.000    0.000    0.000    0.000    0.000 
#
# Total GULP energy -78451.700245 kJ/mol
# GULP energy per Si atom -5603.692875 kJ/mol
# Density = 2.678529 g / cm^3
# Si number density = 26.846389 Si / 1000 Ang^3
#
#
#
# Elastic Constant Matrix: (Units=GPa)
#
#
# Indices 1 2 3 4 5 6 
#
# 1 139.1466 48.2476 20.3834 0.0000 0.0000 0.0000
# 2 48.2476 120.9873 32.2286 0.0000 0.0000 0.0000
# 3 20.3834 32.2286 125.9648 0.0000 0.0000 0.0000
# 4 0.0000 0.0000 0.0000 3.2161 0.0000 0.0000
# 5 0.0000 0.0000 0.0000 0.0000 33.9055 0.0000
# 6 0.0000 0.0000 0.0000 0.0000 0.0000 73.5675
#
#
#
# Elastic Compliance Matrix: (Units=1/GPa)
#
#
# Indices 1 2 3 4 5 6 
#
# 1 0.008374 -0.003196 -0.000537 0.000000 0.000000 0.000000
# 2 -0.003196 0.010090 -0.002064 0.000000 0.000000 0.000000
# 3 -0.000537 -0.002064 0.008554 0.000000 0.000000 0.000000
# 4 0.000000 0.000000 0.000000 0.310932 0.000000 0.000000
# 5 0.000000 0.000000 0.000000 0.000000 0.029494 0.000000
# 6 0.000000 0.000000 0.000000 0.000000 0.000000 0.013593
#
#
# Mechanical properties :
#
#
# Convention : Reuss Voigt Hill
#
# Bulk Modulus (GPa) = 64.84330 65.31310 65.07820
# Shear Modulus (GPa) = 12.57001 41.15376 26.86188
#
# Velocity S-wave (km/s) = 2.16619 3.91952 3.16662
# Velocity P-wave (km/s) = 5.51927 6.69812 6.13706
#
# Compressibility (1/GPa) = 0.01542179
#
# Stress axis : x y z
#
# Youngs Moduli (GPa) = 119.42317 99.11018 116.90671
#
# Poissons Ratio (x) = 0.31677 0.06281
# Poissons Ratio (y) = 0.38169 0.24133
# Poissons Ratio (z) = 0.06416 0.20460
#
# Static dielectric constant tensor:
#      x y z
#    x 2.009170 0.000000 0.000000 
#    y 0.000000 2.164080 0.000000 
#    z 0.000000 0.000000 2.070520 
# 
# From -- ./inp_files/1484.got.cif
#   From: 2010.05.17/outbox.cif.g08.bks.cpg/sg41_1_cif.got.tgz:1484.got - 2010.06.03 18:54:24.
