data_PCOD9367639
_publ_section_title
;
Structure prediction by ZEFSAII (Michael W. Deem and Ramdas Pophale) SiO2 
 PCOD9367639
Probable space group: A B A 2
;
_chemical_formula_sum "Si O2"
_cell_formula_units_Z 24
_cell_length_a 9.765054
_cell_length_b 8.761170
_cell_length_c 9.730672
_cell_angle_alpha 90.000000
_cell_angle_beta 90.000000
_cell_angle_gamma 90.000000
_cell_volume 832.491083
_symmetry_space_group_name_H-M "A B A 2"
_symmetry_group_IT_number 41
_symmetry_cell_setting 'orthorhombic'
loop_
_space_group_symop_operation_xyz
x,y,z
-x,-y,z
1/2-x,y,1/2+z
1/2+x,-y,1/2+z
x,1/2+y,1/2+z
-x,1/2-y,1/2+z
1/2-x,1/2+y,z
1/2+x,1/2-y,z
loop_
_atom_site_type_symbol
_atom_site_label
_atom_site_fract_x
_atom_site_fract_y
_atom_site_fract_z
Si Si1 0.856670 0.924272 0.250000
Si Si2 0.954586 0.174888 0.926960
Si Si3 0.817131 0.091125 0.538706
O O1 0.831015 0.988621 0.402102
O O2 0.724286 0.973605 0.161838
O O3 0.897121 0.749143 0.284401
O O4 0.000000 0.000000 0.201246
O O5 0.825667 0.176739 0.026151
O O6 0.000000 0.000000 0.904270
O O7 0.069206 0.280187 0.999656
#
# Coordination Sequence:
#
# PCOD9367639 Si02
#       3
#     8   8   8
#     4  10  25  50  79 118 172 229 285 354 440 524
#     4  11  25  49  83 126 171 226 296 366 433 520
#     4  11  25  49  81 122 175 227 284 356 441 530
#
# _framework density 28.829136999999999
#
# number of rings (size 3 to 8) (size 9 to 14) (size 15 to 20)
#    0.000    1.333    0.000    3.000    0.000   10.667 
#    0.000   30.000    0.000    0.000    0.000    2.333 
#    0.000    0.000    0.000    0.000    0.000    0.000 
#
# Total GULP energy -67085.333972 kJ/mol
# GULP energy per Si atom -5590.444498 kJ/mol
# Density = 2.876352 g / cm^3
# Si number density = 28.829137 Si / 1000 Ang^3
#
#
#
# Elastic Constant Matrix: (Units=GPa)
#
#
# Indices 1 2 3 4 5 6 
#
# 1 208.8377 92.4001 47.8403 0.0000 0.0000 0.0000
# 2 92.4001 262.0019 91.2051 0.0000 0.0000 0.0000
# 3 47.8403 91.2051 134.4217 0.0000 0.0000 0.0000
# 4 0.0000 0.0000 0.0000 35.8607 0.0000 0.0000
# 5 0.0000 0.0000 0.0000 0.0000 32.5361 0.0000
# 6 0.0000 0.0000 0.0000 0.0000 0.0000 66.7961
#
#
#
# Elastic Compliance Matrix: (Units=1/GPa)
#
#
# Indices 1 2 3 4 5 6 
#
# 1 0.005752 -0.001723 -0.000878 0.000000 0.000000 0.000000
# 2 -0.001723 0.005513 -0.003127 0.000000 0.000000 0.000000
# 3 -0.000878 -0.003127 0.009874 0.000000 0.000000 0.000000
# 4 0.000000 0.000000 0.000000 0.027886 0.000000 0.000000
# 5 0.000000 0.000000 0.000000 0.000000 0.030735 0.000000
# 6 0.000000 0.000000 0.000000 0.000000 0.000000 0.014971
#
#
# Mechanical properties :
#
#
# Convention : Reuss Voigt Hill
#
# Bulk Modulus (GPa) = 103.28602 118.68357 110.98480
# Shear Modulus (GPa) = 45.69782 51.95964 48.82873
#
# Velocity S-wave (km/s) = 3.98568 4.24999 4.11996
# Velocity P-wave (km/s) = 7.55550 8.08335 7.82388
#
# Compressibility (1/GPa) = 0.00968185
#
# Stress axis : x y z
#
# Youngs Moduli (GPa) = 173.85785 181.38809 101.27837
#
# Poissons Ratio (x) = 0.31250 0.08894
# Poissons Ratio (y) = 0.29952 0.31674
# Poissons Ratio (z) = 0.15267 0.56728
#
# Static dielectric constant tensor:
#      x y z
#    x 2.228470 0.000000 0.000000 
#    y 0.000000 2.466210 0.000000 
#    z 0.000000 0.000000 2.412740 
# 
# From -- ./inp_files/4663.got.cif
#   From: 2010.05.17/outbox.cif.g08.bks.cpg/sg41_3_cif.got.tgz:4663.got - 2010.06.03 18:54:24.
