data_PCOD9367502
_publ_section_title
;
Structure prediction by ZEFSAII (Michael W. Deem and Ramdas Pophale) SiO2 
 PCOD9367502
Probable space group: A B A 2
;
_chemical_formula_sum "Si O2"
_cell_formula_units_Z 52
_cell_length_a 7.030554
_cell_length_b 27.338105
_cell_length_c 10.135329
_cell_angle_alpha 90.000000
_cell_angle_beta 90.000000
_cell_angle_gamma 90.000000
_cell_volume 1948.030742
_symmetry_space_group_name_H-M "A B A 2"
_symmetry_group_IT_number 41
_symmetry_cell_setting 'orthorhombic'
loop_
_space_group_symop_operation_xyz
x,y,z
-x,-y,z
1/2-x,y,1/2+z
1/2+x,-y,1/2+z
x,1/2+y,1/2+z
-x,1/2-y,1/2+z
1/2-x,1/2+y,z
1/2+x,1/2-y,z
loop_
_atom_site_type_symbol
_atom_site_label
_atom_site_fract_x
_atom_site_fract_y
_atom_site_fract_z
Si Si1 0.193052 0.560675 0.191920
Si Si2 0.536208 0.398867 0.971117
Si Si3 0.084137 0.409834 0.959176
Si Si4 0.058526 0.294395 0.197508
Si Si5 0.325504 0.307541 0.431074
Si Si6 0.500000 0.500000 0.272200
Si Si7 0.344624 0.705349 0.066120
O O1 0.132300 0.582210 0.334865
O O2 0.284909 0.506428 0.211456
O O3 0.018778 0.575558 0.095632
O O4 0.370271 0.578676 0.102065
O O5 0.312693 0.409931 0.967176
O O6 0.585594 0.342815 0.999236
O O7 0.204853 0.315488 0.087504
O O8 0.037532 0.354298 0.905574
O O9 0.018135 0.451422 0.859607
O O10 0.158786 0.310767 0.327784
O O11 0.053815 0.235171 0.184514
O O12 0.855637 0.307414 0.136452
O O13 0.356575 0.248457 0.452306
#
# Coordination Sequence:
#
# PCOD9367502 Si02
#       7
#     8   8   8   8   8   4   8
#     4  12  31  59  89 143 179 238 309 383 468 558
#     4  12  30  52  96 134 190 245 302 382 460 565
#     4  12  30  58  92 132 179 237 314 382 470 552
#     4  10  24  42  75 117 179 239 304 361 433 536
#     4  10  26  46  81 123 174 244 298 372 447 544
#     4  12  32  62  96 128 180 238 302 404 474 550
#     4  10  25  46  79 128 185 240 300 363 449 544
#
# _framework density 26.693622000000001
#
# number of rings (size 3 to 8) (size 9 to 14) (size 15 to 20)
#    0.923    0.000    1.538    1.846   12.923    0.615 
#    0.000    0.000    0.000    0.000    0.000    0.000 
#    0.000    0.000    0.000    0.000    0.000    0.000 
#
# Total GULP energy -144848.310264 kJ/mol
# GULP energy per Si atom -5571.088856 kJ/mol
# Density = 2.663287 g / cm^3
# Si number density = 26.693622 Si / 1000 Ang^3
#
#
#
# Elastic Constant Matrix: (Units=GPa)
#
#
# Indices 1 2 3 4 5 6 
#
# 1 158.1699 19.5795 37.2061 0.0000 0.0000 0.0000
# 2 19.5795 87.8689 20.5276 0.0000 0.0000 0.0000
# 3 37.2061 20.5276 101.3158 0.0000 0.0000 0.0000
# 4 0.0000 0.0000 0.0000 30.1022 0.0000 0.0000
# 5 0.0000 0.0000 0.0000 0.0000 44.4583 0.0000
# 6 0.0000 0.0000 0.0000 0.0000 0.0000 162.6829
#
#
#
# Elastic Compliance Matrix: (Units=1/GPa)
#
#
# Indices 1 2 3 4 5 6 
#
# 1 0.007004 -0.001007 -0.002368 0.000000 0.000000 0.000000
# 2 -0.001007 0.012091 -0.002080 0.000000 0.000000 0.000000
# 3 -0.002368 -0.002080 0.011161 0.000000 0.000000 0.000000
# 4 0.000000 0.000000 0.000000 0.033220 0.000000 0.000000
# 5 0.000000 0.000000 0.000000 0.000000 0.022493 0.000000
# 6 0.000000 0.000000 0.000000 0.000000 0.000000 0.006147
#
#
# Mechanical properties :
#
#
# Convention : Reuss Voigt Hill
#
# Bulk Modulus (GPa) = 51.69120 55.77566 53.73343
# Shear Modulus (GPa) = 45.67246 65.45144 55.56195
#
# Velocity S-wave (km/s) = 4.14090 4.95709 4.56726
# Velocity P-wave (km/s) = 6.50149 7.32828 6.92723
#
# Compressibility (1/GPa) = 0.01934565
#
# Stress axis : x y z
#
# Youngs Moduli (GPa) = 142.77474 82.70643 89.59697
#
# Poissons Ratio (x) = 0.08333 0.21216
# Poissons Ratio (y) = 0.14384 0.18634
# Poissons Ratio (z) = 0.33808 0.17201
#
# Static dielectric constant tensor:
#      x y z
#    x 2.359450 0.000000 0.000000 
#    y 0.000000 2.302510 0.000000 
#    z 0.000000 0.000000 2.147380 
# 
# From -- ./inp_files/4558.got.cif
#   From: 2010.05.17/outbox.cif.g08.bks.cpg/sg41_3_cif.got.tgz:4558.got - 2010.06.03 18:54:24.
