data_PCOD9367998
_publ_section_title
;
Structure prediction by ZEFSAII (Michael W. Deem and Ramdas Pophale) SiO2 
 PCOD9367998
Probable space group: A B A 2
;
_chemical_formula_sum "Si O2"
_cell_formula_units_Z 64
_cell_length_a 22.898701
_cell_length_b 12.802673
_cell_length_c 8.799163
_cell_angle_alpha 90.000000
_cell_angle_beta 90.000000
_cell_angle_gamma 90.000000
_cell_volume 2579.602934
_symmetry_space_group_name_H-M "A B A 2"
_symmetry_group_IT_number 41
_symmetry_cell_setting 'orthorhombic'
loop_
_space_group_symop_operation_xyz
x,y,z
-x,-y,z
1/2-x,y,1/2+z
1/2+x,-y,1/2+z
x,1/2+y,1/2+z
-x,1/2-y,1/2+z
1/2-x,1/2+y,z
1/2+x,1/2-y,z
loop_
_atom_site_type_symbol
_atom_site_label
_atom_site_fract_x
_atom_site_fract_y
_atom_site_fract_z
Si Si1 0.375933 0.496982 0.750000
Si Si2 0.250474 0.705598 0.634160
Si Si3 0.965849 0.390963 0.109503
Si Si4 0.667241 0.112000 0.733963
Si Si5 0.625877 0.708655 0.541537
Si Si6 0.940051 0.546023 0.543945
Si Si7 0.248234 0.557174 0.383258
Si Si8 0.490527 0.228031 0.418986
O O1 0.397317 0.583171 0.628398
O O2 0.378969 0.386757 0.661539
O O3 0.316030 0.517224 0.838706
O O4 0.423880 0.506537 0.883567
O O5 0.295322 0.803601 0.634267
O O6 0.185940 0.735749 0.582106
O O7 0.262063 0.592113 0.554993
O O8 0.245580 0.671612 0.808706
O O9 0.000000 0.500000 0.126740
O O10 0.981280 0.312263 0.248458
O O11 0.987053 0.344844 0.949463
O O12 0.617980 0.050919 0.641558
O O13 0.709104 0.030026 0.818498
O O14 0.633770 0.169550 0.869439
O O15 0.568034 0.778202 0.523420
O O16 0.957724 0.661768 0.493349
O O17 0.500000 0.000000 0.608930
#
# Coordination Sequence:
#
# PCOD9367998 Si02
#       8
#     8   8   8   8   8   8   8   8
#     4  12  24  50  79 105 158 206 256 330 394 463
#     4  12  27  48  76 113 148 200 259 322 391 474
#     4  12  24  49  71 111 149 200 256 321 388 461
#     4  12  29  51  72 117 157 194 265 330 384 478
#     4  12  26  48  76 110 155 201 257 327 391 471
#     4  12  27  49  79 113 159 210 261 324 395 477
#     4  12  27  47  77 108 150 204 253 319 403 460
#     4  12  24  47  78 107 151 206 255 315 394 468
#
# _framework density 24.810019
#
# number of rings (size 3 to 8) (size 9 to 14) (size 15 to 20)
#    0.000    0.000    6.250    3.000    7.000    0.000 
#    4.500    0.625    0.000    0.000    0.000    0.000 
#    0.000    0.000    0.000    0.000    0.000    0.000 
#
# Total GULP energy -178938.108442 kJ/mol
# GULP energy per Si atom -5591.815889 kJ/mol
# Density = 2.475355 g / cm^3
# Si number density = 24.810019 Si / 1000 Ang^3
#
#
#
# Elastic Constant Matrix: (Units=GPa)
#
#
# Indices 1 2 3 4 5 6 
#
# 1 103.8727 25.8399 24.1167 0.0000 0.0000 0.0000
# 2 25.8399 88.9571 33.9104 0.0000 0.0000 0.0000
# 3 24.1167 33.9104 52.6730 0.0000 0.0000 0.0000
# 4 0.0000 0.0000 0.0000 56.5509 0.0000 0.0000
# 5 0.0000 0.0000 0.0000 0.0000 32.8386 0.0000
# 6 0.0000 0.0000 0.0000 0.0000 0.0000 42.8765
#
#
#
# Elastic Compliance Matrix: (Units=1/GPa)
#
#
# Indices 1 2 3 4 5 6 
#
# 1 0.010959 -0.001684 -0.003934 0.000000 0.000000 0.000000
# 2 -0.001684 0.015156 -0.008986 0.000000 0.000000 0.000000
# 3 -0.003934 -0.008986 0.026572 0.000000 0.000000 0.000000
# 4 0.000000 0.000000 0.000000 0.017683 0.000000 0.000000
# 5 0.000000 0.000000 0.000000 0.000000 0.030452 0.000000
# 6 0.000000 0.000000 0.000000 0.000000 0.000000 0.023323
#
#
# Mechanical properties :
#
#
# Convention : Reuss Voigt Hill
#
# Bulk Modulus (GPa) = 42.59135 45.91519 44.25327
# Shear Modulus (GPa) = 31.02135 37.22893 34.12514
#
# Velocity S-wave (km/s) = 3.53987 3.87791 3.71274
# Velocity P-wave (km/s) = 5.82339 6.21271 6.02120
#
# Compressibility (1/GPa) = 0.02347895
#
# Stress axis : x y z
#
# Youngs Moduli (GPa) = 91.24601 65.97998 37.63427
#
# Poissons Ratio (x) = 0.11110 0.14804
# Poissons Ratio (y) = 0.15365 0.33820
# Poissons Ratio (z) = 0.35894 0.59292
#
# Static dielectric constant tensor:
#      x y z
#    x 1.994470 0.000000 0.000000 
#    y 0.000000 2.034950 0.000000 
#    z 0.000000 0.000000 1.969820 
# 
# From -- ./inp_files/3993.got.cif
#   From: 2010.05.17/outbox.cif.g08.bks.cpg/sg41_2_cif.got.tgz:3993.got - 2010.06.03 18:54:24.
