data_PCOD9367930
_publ_section_title
;
Structure prediction by ZEFSAII (Michael W. Deem and Ramdas Pophale) SiO2 
 PCOD9367930
Probable space group: A B A 2
;
_chemical_formula_sum "Si O2"
_cell_formula_units_Z 32
_cell_length_a 12.993479
_cell_length_b 10.318484
_cell_length_c 9.266424
_cell_angle_alpha 90.000000
_cell_angle_beta 90.000000
_cell_angle_gamma 90.000000
_cell_volume 1242.377313
_symmetry_space_group_name_H-M "A B A 2"
_symmetry_group_IT_number 41
_symmetry_cell_setting 'orthorhombic'
loop_
_space_group_symop_operation_xyz
x,y,z
-x,-y,z
1/2-x,y,1/2+z
1/2+x,-y,1/2+z
x,1/2+y,1/2+z
-x,1/2-y,1/2+z
1/2-x,1/2+y,z
1/2+x,1/2-y,z
loop_
_atom_site_type_symbol
_atom_site_label
_atom_site_fract_x
_atom_site_fract_y
_atom_site_fract_z
Si Si1 0.786569 0.259308 0.210410
Si Si2 0.496077 0.361368 0.681790
Si Si3 0.094662 0.097580 0.130906
Si Si4 0.320516 0.393986 0.919765
O O1 0.687211 0.350685 0.233016
O O2 0.772080 0.132656 0.309156
O O3 0.891008 0.332323 0.238107
O O4 0.796944 0.209381 0.046395
O O5 0.500000 0.500000 0.602650
O O6 0.458999 0.235600 0.593858
O O7 0.419852 0.375852 0.817459
O O8 0.000000 0.000000 0.173556
O O9 0.157096 0.024362 0.006365
#
# Coordination Sequence:
#
# PCOD9367930 Si02
#       4
#     8   8   8   8
#     4  11  28  49  82 125 162 231 282 357 440 511
#     4  11  27  48  82 124 172 217 281 361 433 516
#     4  11  25  51  81 118 170 218 284 353 421 516
#     4  11  27  49  83 117 173 217 288 351 431 515
#
# _framework density 25.757069999999999
#
# number of rings (size 3 to 8) (size 9 to 14) (size 15 to 20)
#    0.000    1.000    2.500    0.750   14.000    2.000 
#    0.000    1.250    0.000    0.000    0.000    0.000 
#    0.000    0.000    0.000    0.000    0.000    0.000 
#
# Total GULP energy -89410.286016 kJ/mol
# GULP energy per Si atom -5588.142876 kJ/mol
# Density = 2.569845 g / cm^3
# Si number density = 25.757070 Si / 1000 Ang^3
#
#
#
# Elastic Constant Matrix: (Units=GPa)
#
#
# Indices 1 2 3 4 5 6 
#
# 1 117.7726 69.3477 -19.9844 0.0000 0.0000 0.0000
# 2 69.3477 227.0067 25.6776 0.0000 0.0000 0.0000
# 3 -19.9844 25.6776 69.5278 0.0000 0.0000 0.0000
# 4 0.0000 0.0000 0.0000 52.0596 0.0000 0.0000
# 5 0.0000 0.0000 0.0000 0.0000 32.3140 0.0000
# 6 0.0000 0.0000 0.0000 0.0000 0.0000 35.4776
#
#
#
# Elastic Compliance Matrix: (Units=1/GPa)
#
#
# Indices 1 2 3 4 5 6 
#
# 1 0.011770 -0.004152 0.004916 0.000000 0.000000 0.000000
# 2 -0.004152 0.006062 -0.003432 0.000000 0.000000 0.000000
# 3 0.004916 -0.003432 0.017063 0.000000 0.000000 0.000000
# 4 0.000000 0.000000 0.000000 0.019209 0.000000 0.000000
# 5 0.000000 0.000000 0.000000 0.000000 0.030946 0.000000
# 6 0.000000 0.000000 0.000000 0.000000 0.000000 0.028187
#
#
# Mechanical properties :
#
#
# Convention : Reuss Voigt Hill
#
# Bulk Modulus (GPa) = 33.82948 62.70986 48.26967
# Shear Modulus (GPa) = 38.93341 46.58800 42.76070
#
# Velocity S-wave (km/s) = 3.89210 4.25755 4.07892
# Velocity P-wave (km/s) = 5.77585 6.96911 6.40035
#
# Compressibility (1/GPa) = 0.02956001
#
# Stress axis : x y z
#
# Youngs Moduli (GPa) = 84.96371 164.97252 58.60538
#
# Poissons Ratio (x) = 0.68490 -0.28812
# Poissons Ratio (y) = 0.35274 0.20113
# Poissons Ratio (z) = -0.41770 0.56618
#
# Static dielectric constant tensor:
#      x y z
#    x 2.035790 0.000000 0.000000 
#    y 0.000000 2.110180 0.000000 
#    z 0.000000 0.000000 1.990920 
# 
# From -- ./inp_files/5334.got.cif
#   From: 2010.05.17/outbox.cif.g08.bks.cpg/sg41_3_cif.got.tgz:5334.got - 2010.06.03 18:54:24.
