data_PCOD9367730
_publ_section_title
;
Structure prediction by ZEFSAII (Michael W. Deem and Ramdas Pophale) SiO2 
 PCOD9367730
Probable space group: A B A 2
;
_chemical_formula_sum "Si O2"
_cell_formula_units_Z 48
_cell_length_a 9.717570
_cell_length_b 24.497628
_cell_length_c 8.232278
_cell_angle_alpha 90.000000
_cell_angle_beta 90.000000
_cell_angle_gamma 90.000000
_cell_volume 1959.754820
_symmetry_space_group_name_H-M "A B A 2"
_symmetry_group_IT_number 41
_symmetry_cell_setting 'orthorhombic'
loop_
_space_group_symop_operation_xyz
x,y,z
-x,-y,z
1/2-x,y,1/2+z
1/2+x,-y,1/2+z
x,1/2+y,1/2+z
-x,1/2-y,1/2+z
1/2-x,1/2+y,z
1/2+x,1/2-y,z
loop_
_atom_site_type_symbol
_atom_site_label
_atom_site_fract_x
_atom_site_fract_y
_atom_site_fract_z
Si Si1 0.825434 0.934769 0.944780
Si Si2 0.101209 0.132135 0.241272
Si Si3 0.831486 0.516387 0.184904
Si Si4 0.664715 0.596677 0.418098
Si Si5 0.903609 0.253676 0.607466
Si Si6 0.332093 0.298278 0.927149
O O1 0.711813 0.897985 0.854871
O O2 0.894485 0.969728 0.802489
O O3 0.912808 0.898411 0.067828
O O4 0.756569 0.979143 0.062120
O O5 0.149223 0.192605 0.200096
O O6 0.052546 0.271647 0.542891
O O7 0.730894 0.553693 0.293388
O O8 0.899060 0.560605 0.063997
O O9 0.542894 0.629920 0.333432
O O10 0.783028 0.640089 0.464818
O O11 0.805767 0.236691 0.459945
O O12 0.890295 0.206748 0.744129
#
# Coordination Sequence:
#
# PCOD9367730 Si02
#       6
#     8   8   8   8   8   8
#     4   9  21  39  62  95 131 173 223 277 344 405
#     4  11  22  41  64  93 134 178 225 284 344 414
#     4   9  20  40  64  94 129 167 223 281 339 407
#     4  11  22  42  68  96 132 178 229 283 344 415
#     4  12  25  44  70 101 138 180 229 288 348 416
#     4  12  26  46  72 104 138 182 233 289 353 416
#
# _framework density 24.492857999999998
#
# number of rings (size 3 to 8) (size 9 to 14) (size 15 to 20)
#    0.000    1.333    0.000    6.000    0.000    6.000 
#    0.000   20.000    0.000    0.000    0.000    0.000 
#    0.000    0.000    0.000    0.000    0.000    0.000 
#
# Total GULP energy -134200.822818 kJ/mol
# GULP energy per Si atom -5591.700951 kJ/mol
# Density = 2.443711 g / cm^3
# Si number density = 24.492858 Si / 1000 Ang^3
#
#
#
# Elastic Constant Matrix: (Units=GPa)
#
#
# Indices 1 2 3 4 5 6 
#
# 1 81.6775 29.5022 27.4647 0.0000 0.0000 0.0000
# 2 29.5022 92.3089 24.8251 0.0000 0.0000 0.0000
# 3 27.4647 24.8251 122.1147 0.0000 0.0000 0.0000
# 4 0.0000 0.0000 0.0000 41.0880 0.0000 0.0000
# 5 0.0000 0.0000 0.0000 0.0000 48.8313 0.0000
# 6 0.0000 0.0000 0.0000 0.0000 0.0000 15.7111
#
#
#
# Elastic Compliance Matrix: (Units=1/GPa)
#
#
# Indices 1 2 3 4 5 6 
#
# 1 0.014504 -0.003976 -0.002454 0.000000 0.000000 0.000000
# 2 -0.003976 0.012549 -0.001657 0.000000 0.000000 0.000000
# 3 -0.002454 -0.001657 0.009078 0.000000 0.000000 0.000000
# 4 0.000000 0.000000 0.000000 0.024338 0.000000 0.000000
# 5 0.000000 0.000000 0.000000 0.000000 0.020479 0.000000
# 6 0.000000 0.000000 0.000000 0.000000 0.000000 0.063649
#
#
# Mechanical properties :
#
#
# Convention : Reuss Voigt Hill
#
# Bulk Modulus (GPa) = 50.10441 51.07612 50.59027
# Shear Modulus (GPa) = 29.86430 35.41336 32.63883
#
# Velocity S-wave (km/s) = 3.49565 3.80658 3.65442
# Velocity P-wave (km/s) = 6.06579 6.34183 6.20535
#
# Compressibility (1/GPa) = 0.01995832
#
# Stress axis : x y z
#
# Youngs Moduli (GPa) = 68.94420 79.68458 110.15883
#
# Poissons Ratio (x) = 0.31680 0.27032
# Poissons Ratio (y) = 0.27410 0.18254
# Poissons Ratio (z) = 0.16919 0.13204
#
# Static dielectric constant tensor:
#      x y z
#    x 1.932370 0.000000 0.000000 
#    y 0.000000 1.941530 0.000000 
#    z 0.000000 0.000000 1.963040 
# 
# From -- ./inp_files/2086.got.cif
#   From: 2010.05.17/outbox.cif.g08.bks.cpg/sg41_2_cif.got.tgz:2086.got - 2010.06.03 18:54:24.
