data_PCOD9367159
_publ_section_title
;
Structure prediction by ZEFSAII (Michael W. Deem and Ramdas Pophale) SiO2 
 PCOD9367159
Probable space group: A B A 2
;
_chemical_formula_sum "Si O2"
_cell_formula_units_Z 48
_cell_length_a 9.834646
_cell_length_b 19.465887
_cell_length_c 9.822695
_cell_angle_alpha 90.000000
_cell_angle_beta 90.000000
_cell_angle_gamma 90.000000
_cell_volume 1880.457789
_symmetry_space_group_name_H-M "A B A 2"
_symmetry_group_IT_number 41
_symmetry_cell_setting 'orthorhombic'
loop_
_space_group_symop_operation_xyz
x,y,z
-x,-y,z
1/2-x,y,1/2+z
1/2+x,-y,1/2+z
x,1/2+y,1/2+z
-x,1/2-y,1/2+z
1/2-x,1/2+y,z
1/2+x,1/2-y,z
loop_
_atom_site_type_symbol
_atom_site_label
_atom_site_fract_x
_atom_site_fract_y
_atom_site_fract_z
Si Si1 0.500000 0.500000 0.320820
Si Si2 0.493955 0.752065 0.559705
Si Si3 0.000000 0.000000 0.853546
Si Si4 0.127085 0.124341 0.166208
Si Si5 0.765433 0.311650 0.421269
Si Si6 0.248438 0.928340 0.468410
Si Si7 0.613790 0.126423 0.228152
O O1 0.417907 0.553799 0.229678
O O2 0.392506 0.457583 0.410326
O O3 0.499289 0.824767 0.637627
O O4 0.355176 0.727076 0.497838
O O5 0.599855 0.765987 0.435998
O O6 0.555387 0.693781 0.658361
O O7 0.868590 0.016905 0.943586
O O8 0.002210 0.068814 0.760692
O O9 0.201670 0.124242 0.021203
O O10 0.220608 0.164497 0.274360
O O11 0.305079 0.867378 0.370240
O O12 0.217946 0.907331 0.621185
#
# Coordination Sequence:
#
# PCOD9367159 Si02
#       7
#     4   8   4   8   8   8   8
#     4  12  25  45  74 100 153 199 258 318 387 463
#     4  10  25  41  79 103 159 190 260 310 401 464
#     4   8  23  39  66 100 149 193 262 312 383 473
#     4  10  27  44  77 111 156 200 262 320 397 464
#     4  10  25  44  74 113 150 201 253 321 390 478
#     4  10  24  41  72  99 146 198 253 314 387 460
#     4  10  22  42  71 103 148 192 254 316 384 462
#
# _framework density 25.525697999999998
#
# number of rings (size 3 to 8) (size 9 to 14) (size 15 to 20)
#    2.000    0.000    0.000    1.500    9.333    2.000 
#    0.000    3.333    0.000    1.000    0.000    0.000 
#    0.000    0.000    0.000    0.000    0.000    0.000 
#
# Total GULP energy -134366.066752 kJ/mol
# GULP energy per Si atom -5598.586115 kJ/mol
# Density = 2.546760 g / cm^3
# Si number density = 25.525698 Si / 1000 Ang^3
#
#
#
# Elastic Constant Matrix: (Units=GPa)
#
#
# Indices 1 2 3 4 5 6 
#
# 1 97.5484 14.1342 30.3710 0.0000 0.0000 0.0000
# 2 14.1342 97.2117 30.8654 0.0000 0.0000 0.0000
# 3 30.3710 30.8654 122.5216 0.0000 0.0000 0.0000
# 4 0.0000 0.0000 0.0000 29.2371 0.0000 0.0000
# 5 0.0000 0.0000 0.0000 0.0000 41.2594 0.0000
# 6 0.0000 0.0000 0.0000 0.0000 0.0000 44.3650
#
#
#
# Elastic Compliance Matrix: (Units=1/GPa)
#
#
# Indices 1 2 3 4 5 6 
#
# 1 0.011167 -0.000809 -0.002564 0.000000 0.000000 0.000000
# 2 -0.000809 0.011240 -0.002631 0.000000 0.000000 0.000000
# 3 -0.002564 -0.002631 0.009460 0.000000 0.000000 0.000000
# 4 0.000000 0.000000 0.000000 0.034203 0.000000 0.000000
# 5 0.000000 0.000000 0.000000 0.000000 0.024237 0.000000
# 6 0.000000 0.000000 0.000000 0.000000 0.000000 0.022540
#
#
# Mechanical properties :
#
#
# Convention : Reuss Voigt Hill
#
# Bulk Modulus (GPa) = 50.35765 52.00253 51.18009
# Shear Modulus (GPa) = 38.02985 39.09971 38.56478
#
# Velocity S-wave (km/s) = 3.86406 3.91804 3.89115
# Velocity P-wave (km/s) = 6.29913 6.39413 6.34681
#
# Compressibility (1/GPa) = 0.01985796
#
# Stress axis : x y z
#
# Youngs Moduli (GPa) = 89.55002 88.96926 105.70599
#
# Poissons Ratio (x) = 0.07202 0.27105
# Poissons Ratio (y) = 0.07249 0.27810
# Poissons Ratio (z) = 0.22962 0.23407
#
# Static dielectric constant tensor:
#      x y z
#    x 1.989520 0.000000 0.000000 
#    y 0.000000 1.985610 0.000000 
#    z 0.000000 0.000000 1.962150 
# 
# From -- ./inp_files/5016.got.cif
#   From: 2010.05.17/outbox.cif.g08.bks.cpg/sg41_3_cif.got.tgz:5016.got - 2010.06.03 18:54:24.
