data_PCOD9367535
_publ_section_title
;
Structure prediction by ZEFSAII (Michael W. Deem and Ramdas Pophale) SiO2 
 PCOD9367535
Probable space group: A B A 2
;
_chemical_formula_sum "Si O2"
_cell_formula_units_Z 64
_cell_length_a 11.916843
_cell_length_b 22.222376
_cell_length_c 11.144964
_cell_angle_alpha 90.000000
_cell_angle_beta 90.000000
_cell_angle_gamma 90.000000
_cell_volume 2951.415673
_symmetry_space_group_name_H-M "A B A 2"
_symmetry_group_IT_number 41
_symmetry_cell_setting 'orthorhombic'
loop_
_space_group_symop_operation_xyz
x,y,z
-x,-y,z
1/2-x,y,1/2+z
1/2+x,-y,1/2+z
x,1/2+y,1/2+z
-x,1/2-y,1/2+z
1/2-x,1/2+y,z
1/2+x,1/2-y,z
loop_
_atom_site_type_symbol
_atom_site_label
_atom_site_fract_x
_atom_site_fract_y
_atom_site_fract_z
Si Si1 0.594181 0.537619 0.965770
Si Si2 0.429485 0.820051 0.789943
Si Si3 0.702895 0.523267 0.615796
Si Si4 0.961474 0.317609 0.304947
Si Si5 0.943412 0.370589 0.571177
Si Si6 0.001073 0.565236 0.947859
Si Si7 0.311419 0.602503 0.636790
Si Si8 0.194796 0.869182 0.780864
O O1 0.500000 0.500000 0.892955
O O2 0.655696 0.590782 0.893664
O O3 0.699184 0.504331 0.024188
O O4 0.513911 0.567614 0.065433
O O5 0.461791 0.753297 0.828390
O O6 0.484976 0.828702 0.659491
O O7 0.468097 0.877810 0.867784
O O8 0.294955 0.823254 0.797015
O O9 0.592716 0.547842 0.548008
O O10 0.685153 0.464262 0.697189
O O11 0.740638 0.581025 0.689473
O O12 0.943544 0.347755 0.434551
O O13 0.870371 0.346126 0.215108
O O14 0.080490 0.336222 0.246589
O O15 0.816139 0.378278 0.613991
O O16 0.000000 0.500000 0.880124
O O17 0.113749 0.586109 0.018248
#
# Coordination Sequence:
#
# PCOD9367535 Si02
#       8
#     8   8   8   8   8   8   8   8
#     4  11  22  42  68 105 143 183 234 297 371 429
#     4  12  27  48  73 101 141 194 243 310 362 444
#     4  11  21  42  70 105 138 183 237 299 363 425
#     4  11  29  48  69 104 144 196 244 296 366 441
#     4  11  27  45  67 107 140 186 242 303 363 433
#     4  10  24  44  72 105 136 189 243 298 365 430
#     4  11  25  44  72 102 147 187 238 301 363 439
#     4  11  25  43  71 101 143 188 240 300 363 443
#
# _framework density 21.684508999999998
#
# number of rings (size 3 to 8) (size 9 to 14) (size 15 to 20)
#    0.000    1.000    5.000    0.000    8.750    1.500 
#    2.250    0.000    0.000    0.000    0.000    0.000 
#    0.000    0.000    0.000    0.000    0.000    0.000 
#
# Total GULP energy -178477.496664 kJ/mol
# GULP energy per Si atom -5577.421771 kJ/mol
# Density = 2.163515 g / cm^3
# Si number density = 21.684509 Si / 1000 Ang^3
#
#
#
# Elastic Constant Matrix: (Units=GPa)
#
#
# Indices 1 2 3 4 5 6 
#
# 1 162.4404 20.5061 34.5198 0.0000 0.0000 0.0000
# 2 20.5061 114.4468 18.0931 0.0000 0.0000 0.0000
# 3 34.5198 18.0931 43.1024 0.0000 0.0000 0.0000
# 4 0.0000 0.0000 0.0000 41.9313 0.0000 0.0000
# 5 0.0000 0.0000 0.0000 0.0000 16.9078 0.0000
# 6 0.0000 0.0000 0.0000 0.0000 0.0000 22.5535
#
#
#
# Elastic Compliance Matrix: (Units=1/GPa)
#
#
# Indices 1 2 3 4 5 6 
#
# 1 0.007437 -0.000419 -0.005781 0.000000 0.000000 0.000000
# 2 -0.000419 0.009382 -0.003603 0.000000 0.000000 0.000000
# 3 -0.005781 -0.003603 0.029343 0.000000 0.000000 0.000000
# 4 0.000000 0.000000 0.000000 0.023849 0.000000 0.000000
# 5 0.000000 0.000000 0.000000 0.000000 0.059144 0.000000
# 6 0.000000 0.000000 0.000000 0.000000 0.000000 0.044339
#
#
# Mechanical properties :
#
#
# Convention : Reuss Voigt Hill
#
# Bulk Modulus (GPa) = 37.65426 51.80308 44.72867
# Shear Modulus (GPa) = 24.75839 32.73656 28.74747
#
# Velocity S-wave (km/s) = 3.38265 3.88967 3.64499
# Velocity P-wave (km/s) = 5.71478 6.64184 6.19567
#
# Compressibility (1/GPa) = 0.02655742
#
# Stress axis : x y z
#
# Youngs Moduli (GPa) = 134.45549 106.58336 34.08003
#
# Poissons Ratio (x) = 0.04463 0.19701
# Poissons Ratio (y) = 0.05630 0.12279
# Poissons Ratio (z) = 0.77725 0.38403
#
# Static dielectric constant tensor:
#      x y z
#    x 2.079180 0.000000 0.000000 
#    y 0.000000 1.816310 0.000000 
#    z 0.000000 0.000000 1.832020 
# 
# From -- ./inp_files/5183.got.cif
#   From: 2010.05.17/outbox.cif.g08.bks.cpg/sg41_3_cif.got.tgz:5183.got - 2010.06.03 18:54:24.
