data_PCOD9367728
_publ_section_title
;
Structure prediction by ZEFSAII (Michael W. Deem and Ramdas Pophale) SiO2 
 PCOD9367728
Probable space group: A B A 2
;
_chemical_formula_sum "Si O2"
_cell_formula_units_Z 64
_cell_length_a 20.589362
_cell_length_b 8.328774
_cell_length_c 17.580513
_cell_angle_alpha 90.000000
_cell_angle_beta 90.000000
_cell_angle_gamma 90.000000
_cell_volume 3014.779204
_symmetry_space_group_name_H-M "A B A 2"
_symmetry_group_IT_number 41
_symmetry_cell_setting 'orthorhombic'
loop_
_space_group_symop_operation_xyz
x,y,z
-x,-y,z
1/2-x,y,1/2+z
1/2+x,-y,1/2+z
x,1/2+y,1/2+z
-x,1/2-y,1/2+z
1/2-x,1/2+y,z
1/2+x,1/2-y,z
loop_
_atom_site_type_symbol
_atom_site_label
_atom_site_fract_x
_atom_site_fract_y
_atom_site_fract_z
Si Si1 0.305667 0.604110 0.047410
Si Si2 0.296910 0.921405 0.307826
Si Si3 0.934367 0.544458 0.769525
Si Si4 0.565633 0.544458 0.995806
Si Si5 0.805667 0.395890 0.717922
Si Si6 0.296910 0.921406 0.957506
Si Si7 0.434691 0.092913 0.332450
Si Si8 0.565309 0.907087 0.932882
O O1 0.302260 0.669550 0.132666
O O2 0.368626 0.492287 0.039414
O O3 0.309210 0.740532 0.983337
O O4 0.242720 0.503455 0.025325
O O5 0.257280 0.003453 0.240006
O O6 0.366143 0.007330 0.315775
O O7 0.309210 0.740530 0.281995
O O8 0.250000 0.927275 0.382666
O O9 0.868626 0.507714 0.725917
O O10 0.933158 0.725865 0.801698
O O11 0.938029 0.422308 0.841553
O O12 0.000000 0.500000 0.725342
O O13 0.500000 0.500000 0.039990
O O14 0.561971 0.422308 0.923778
O O15 0.566842 0.725865 0.963633
O O16 0.366143 0.007331 0.949556
O O17 0.500000 0.000000 0.304371
O O18 0.500000 0.000000 0.960960
#
# Coordination Sequence:
#
# PCOD9367728 Si02
#       8
#     8   8   8   8   8   8   8   8
#     4  12  26  43  65  97 139 177 217 276 335 390
#     4  12  24  42  69  99 128 177 227 271 325 395
#     4  11  22  40  66  99 134 173 218 270 333 393
#     4  11  22  40  66  99 134 173 218 270 333 393
#     4  12  26  43  65  97 139 177 217 276 335 390
#     4  12  24  42  69  99 128 177 227 271 325 395
#     4  11  22  40  69 101 132 168 220 282 327 384
#     4  11  22  40  69 101 132 168 220 282 327 384
#
# _framework density 21.228753000000001
#
# number of rings (size 3 to 8) (size 9 to 14) (size 15 to 20)
#    0.000    0.500    2.500    9.000    0.000    0.500 
#    0.000    1.250    0.000    5.250    0.000    0.000 
#    0.000    0.000    0.000    0.000    0.000    0.000 
#
# Total GULP energy -178851.988709 kJ/mol
# GULP energy per Si atom -5589.124647 kJ/mol
# Density = 2.118043 g / cm^3
# Si number density = 21.228753 Si / 1000 Ang^3
#
#
#
# Elastic Constant Matrix: (Units=GPa)
#
#
# Indices 1 2 3 4 5 6 
#
# 1 199.1069 49.4569 41.0207 0.0000 0.0000 0.0000
# 2 49.4569 117.2018 30.5407 0.0000 0.0000 0.0000
# 3 41.0207 30.5407 73.7419 0.0000 0.0000 0.0000
# 4 0.0000 0.0000 0.0000 4.9721 0.0000 0.0000
# 5 0.0000 0.0000 0.0000 0.0000 176.6644 0.0000
# 6 0.0000 0.0000 0.0000 0.0000 0.0000 44.0902
#
#
#
# Elastic Compliance Matrix: (Units=1/GPa)
#
#
# Indices 1 2 3 4 5 6 
#
# 1 0.006017 -0.001868 -0.002573 0.000000 0.000000 0.000000
# 2 -0.001868 0.010145 -0.003162 0.000000 0.000000 0.000000
# 3 -0.002573 -0.003162 0.016302 0.000000 0.000000 0.000000
# 4 0.000000 0.000000 0.000000 0.201123 0.000000 0.000000
# 5 0.000000 0.000000 0.000000 0.000000 0.005660 0.000000
# 6 0.000000 0.000000 0.000000 0.000000 0.000000 0.022681
#
#
# Mechanical properties :
#
#
# Convention : Reuss Voigt Hill
#
# Bulk Modulus (GPa) = 57.95139 70.23191 64.09165
# Shear Modulus (GPa) = 17.67493 63.08083 40.37788
#
# Velocity S-wave (km/s) = 2.88860 5.45704 4.36597
# Velocity P-wave (km/s) = 6.20348 8.53586 7.46137
#
# Compressibility (1/GPa) = 0.01725584
#
# Stress axis : x y z
#
# Youngs Moduli (GPa) = 166.20564 98.57334 61.34293
#
# Poissons Ratio (x) = 0.18418 0.15784
# Poissons Ratio (y) = 0.31054 0.19398
# Poissons Ratio (z) = 0.42766 0.31171
#
# Static dielectric constant tensor:
#      x y z
#    x 1.840800 0.000000 0.000000 
#    y 0.000000 1.774550 0.000000 
#    z 0.000000 0.000000 1.753270 
# 
# From -- ./inp_files/10678.got.cif
#   From: 2010.05.17/outbox.cif.g08.bks.cpg/sg41_6_cif.got.tgz:10678.got - 2010.06.03 18:54:24.
