data_PCOD9367044
_publ_section_title
;
Structure prediction by ZEFSAII (Michael W. Deem and Ramdas Pophale) SiO2 
 PCOD9367044
Probable space group: A B A 2
;
_chemical_formula_sum "Si O2"
_cell_formula_units_Z 56
_cell_length_a 5.498599
_cell_length_b 30.998279
_cell_length_c 13.230679
_cell_angle_alpha 90.000000
_cell_angle_beta 90.000000
_cell_angle_gamma 90.000000
_cell_volume 2255.130945
_symmetry_space_group_name_H-M "A B A 2"
_symmetry_group_IT_number 41
_symmetry_cell_setting 'orthorhombic'
loop_
_space_group_symop_operation_xyz
x,y,z
-x,-y,z
1/2-x,y,1/2+z
1/2+x,-y,1/2+z
x,1/2+y,1/2+z
-x,1/2-y,1/2+z
1/2-x,1/2+y,z
1/2+x,1/2-y,z
loop_
_atom_site_type_symbol
_atom_site_label
_atom_site_fract_x
_atom_site_fract_y
_atom_site_fract_z
Si Si1 0.500000 0.500000 0.996691
Si Si2 0.153604 0.242415 0.025605
Si Si3 0.381681 0.061278 0.966031
Si Si4 0.771838 0.140775 0.176289
Si Si5 0.000000 0.000000 0.309783
Si Si6 0.772748 0.351028 0.049251
Si Si7 0.320526 0.456532 0.658285
Si Si8 0.147285 0.274564 0.803115
O O1 0.339529 0.531583 0.932226
O O2 0.371507 0.465261 0.068732
O O3 0.398310 0.255633 0.082106
O O4 0.197177 0.193123 0.996252
O O5 0.149579 0.271938 0.926191
O O6 0.554461 0.041677 0.881629
O O7 0.327538 0.111023 0.970702
O O8 0.446231 0.047288 0.081828
O O9 0.713202 0.091093 0.204632
O O10 0.809146 0.177379 0.261004
O O11 0.527805 0.153979 0.111530
O O12 0.031603 0.138657 0.116328
O O13 0.766697 0.005815 0.234451
O O14 0.381671 0.244808 0.776248
#
# Coordination Sequence:
#
# PCOD9367044 Si02
#       8
#     4   8   8   8   4   8   8   8
#     4  11  18  44  71  92 144 185 218 308 351 410
#     4  10  22  41  64  92 130 175 215 278 336 407
#     4  11  23  45  70 103 146 183 241 306 350 440
#     4  11  23  42  68 100 133 178 227 287 352 412
#     4  11  24  44  75 104 132 201 236 280 391 430
#     4  11  24  41  71  99 132 180 229 284 354 414
#     4  10  23  43  69 101 144 181 239 299 348 436
#     4  10  22  40  63  91 133 174 213 279 336 404
#
# _framework density 24.832260999999999
#
# number of rings (size 3 to 8) (size 9 to 14) (size 15 to 20)
#    0.000    1.429    2.857    1.714    0.000    5.714 
#    5.143    4.286    0.000    0.000    0.000    0.000 
#    0.000    0.000    0.000    0.000    0.000    0.000 
#
# Total GULP energy -155967.759338 kJ/mol
# GULP energy per Si atom -5570.277119 kJ/mol
# Density = 2.477574 g / cm^3
# Si number density = 24.832261 Si / 1000 Ang^3
#
#
#
# Elastic Constant Matrix: (Units=GPa)
#
#
# Indices 1 2 3 4 5 6 
#
# 1 164.6470 13.6892 22.0978 0.0000 0.0000 0.0000
# 2 13.6892 100.7857 12.6651 0.0000 0.0000 0.0000
# 3 22.0978 12.6651 88.6411 0.0000 0.0000 0.0000
# 4 0.0000 0.0000 0.0000 39.4999 0.0000 0.0000
# 5 0.0000 0.0000 0.0000 0.0000 26.6187 0.0000
# 6 0.0000 0.0000 0.0000 0.0000 0.0000 34.8339
#
#
#
# Elastic Compliance Matrix: (Units=1/GPa)
#
#
# Indices 1 2 3 4 5 6 
#
# 1 0.006328 -0.000673 -0.001481 0.000000 0.000000 0.000000
# 2 -0.000673 0.010175 -0.001286 0.000000 0.000000 0.000000
# 3 -0.001481 -0.001286 0.011835 0.000000 0.000000 0.000000
# 4 0.000000 0.000000 0.000000 0.025316 0.000000 0.000000
# 5 0.000000 0.000000 0.000000 0.000000 0.037568 0.000000
# 6 0.000000 0.000000 0.000000 0.000000 0.000000 0.028708
#
#
# Mechanical properties :
#
#
# Convention : Reuss Voigt Hill
#
# Bulk Modulus (GPa) = 46.60597 50.10865 48.35731
# Shear Modulus (GPa) = 37.32363 40.56530 38.94447
#
# Velocity S-wave (km/s) = 3.88110 4.04613 3.96447
# Velocity P-wave (km/s) = 6.23642 6.48467 6.36176
#
# Compressibility (1/GPa) = 0.02145648
#
# Stress axis : x y z
#
# Youngs Moduli (GPa) = 158.01748 98.27906 84.49868
#
# Poissons Ratio (x) = 0.06618 0.12518
# Poissons Ratio (y) = 0.10641 0.10866
# Poissons Ratio (z) = 0.23409 0.12638
#
# Static dielectric constant tensor:
#      x y z
#    x 2.125550 0.000000 0.000000 
#    y 0.000000 2.052360 0.000000 
#    z 0.000000 0.000000 2.007030 
# 
# From -- ./inp_files/7014.got.cif
#   From: 2010.05.17/outbox.cif.g08.bks.cpg/sg41_4_cif.got.tgz:7014.got - 2010.06.03 18:54:24.
