data_PCOD9367635
_publ_section_title
;
Structure prediction by ZEFSAII (Michael W. Deem and Ramdas Pophale) SiO2 
 PCOD9367635
Probable space group: A B A 2
;
_chemical_formula_sum "Si O2"
_cell_formula_units_Z 48
_cell_length_a 11.283543
_cell_length_b 7.957693
_cell_length_c 25.226952
_cell_angle_alpha 90.000000
_cell_angle_beta 90.000000
_cell_angle_gamma 90.000000
_cell_volume 2265.152519
_symmetry_space_group_name_H-M "A B A 2"
_symmetry_group_IT_number 41
_symmetry_cell_setting 'orthorhombic'
loop_
_space_group_symop_operation_xyz
x,y,z
-x,-y,z
1/2-x,y,1/2+z
1/2+x,-y,1/2+z
x,1/2+y,1/2+z
-x,1/2-y,1/2+z
1/2-x,1/2+y,z
1/2+x,1/2-y,z
loop_
_atom_site_type_symbol
_atom_site_label
_atom_site_fract_x
_atom_site_fract_y
_atom_site_fract_z
Si Si1 0.658773 0.125134 0.473460
Si Si2 0.135491 0.959628 0.852424
Si Si3 0.500000 0.000000 0.733177
Si Si4 0.083834 0.649711 0.197006
Si Si5 0.000000 0.500000 0.096745
Si Si6 0.087458 0.738183 0.511127
Si Si7 0.785984 0.334040 0.782325
O O1 0.672814 0.091171 0.411064
O O2 0.788908 0.184106 0.490561
O O3 0.540969 0.242914 0.480457
O O4 0.623279 0.959419 0.507718
O O5 0.152093 0.831988 0.803558
O O6 0.206839 0.119075 0.832462
O O7 0.000000 0.000000 0.857585
O O8 0.517962 0.170949 0.700278
O O9 0.386262 0.029562 0.769911
O O10 0.095738 0.585569 0.136714
O O11 0.202999 0.671806 0.230625
O O12 0.000000 0.500000 0.219753
O O13 0.056268 0.349088 0.062903
#
# Coordination Sequence:
#
# PCOD9367635 Si02
#       7
#     8   8   4   8   4   8   8
#     4  11  25  45  78 109 153 191 254 313 383 465
#     4  12  25  44  71 110 149 196 242 300 382 454
#     4  12  24  44  73 106 144 207 238 304 376 432
#     4  10  25  50  68 111 144 194 252 321 360 461
#     4  10  26  48  77 104 146 195 254 326 392 438
#     4  11  23  50  71 108 147 197 250 328 377 451
#     4  12  24  43  73 100 156 191 246 304 370 458
#
# _framework density 21.190626999999999
#
# number of rings (size 3 to 8) (size 9 to 14) (size 15 to 20)
#    0.500    0.333    3.333    4.500    0.000    1.333 
#   12.000    0.000    0.000    0.000    0.000    0.000 
#    0.000    0.000    0.000    0.000    0.000    0.000 
#
# Total GULP energy -133707.935435 kJ/mol
# GULP energy per Si atom -5571.163976 kJ/mol
# Density = 2.114240 g / cm^3
# Si number density = 21.190627 Si / 1000 Ang^3
#
#
#
# Elastic Constant Matrix: (Units=GPa)
#
#
# Indices 1 2 3 4 5 6 
#
# 1 128.9343 25.8282 64.1892 0.0000 0.0000 0.0000
# 2 25.8282 95.3583 41.4036 0.0000 0.0000 0.0000
# 3 64.1892 41.4036 107.6265 0.0000 0.0000 0.0000
# 4 0.0000 0.0000 0.0000 -90.5245 0.0000 0.0000
# 5 0.0000 0.0000 0.0000 0.0000 25.1080 0.0000
# 6 0.0000 0.0000 0.0000 0.0000 0.0000 40.0940
#
#
#
# Elastic Compliance Matrix: (Units=1/GPa)
#
#
# Indices 1 2 3 4 5 6 
#
# 1 0.011033 -0.000158 -0.006520 0.000000 0.000000 0.000000
# 2 -0.000158 0.012592 -0.004750 0.000000 0.000000 0.000000
# 3 -0.006520 -0.004750 0.015007 0.000000 0.000000 0.000000
# 4 0.000000 0.000000 0.000000 -0.011047 0.000000 0.000000
# 5 0.000000 0.000000 0.000000 0.000000 0.039828 0.000000
# 6 0.000000 0.000000 0.000000 0.000000 0.000000 0.024941
#
#
# Mechanical properties :
#
#
# Convention : Reuss Voigt Hill
#
# Bulk Modulus (GPa) = 63.38124 66.08456 64.73290
# Shear Modulus (GPa) = 41.50455 8.30204 24.90329
#
# Velocity S-wave (km/s) = 4.43044 1.98149 3.43184
# Velocity P-wave (km/s) = 7.49311 6.04057 6.80570
#
# Compressibility (1/GPa) = 0.01577754
#
# Stress axis : x y z
#
# Youngs Moduli (GPa) = 90.63524 79.41622 66.63513
#
# Poissons Ratio (x) = 0.01252 0.43444
# Poissons Ratio (y) = 0.01429 0.31652
# Poissons Ratio (z) = 0.59091 0.37723
#
# Static dielectric constant tensor:
#      x y z
#    x 1.778630 0.000000 0.000000 
#    y 0.000000 1.481650 0.000000 
#    z 0.000000 0.000000 1.747140 
# 
# From -- ./inp_files/12127.got.cif
#   From: 2010.05.17/outbox.cif.g08.bks.cpg/sg41_7_cif.got.tgz:12127.got - 2010.06.03 18:54:24.
