data_PCOD9367467
_publ_section_title
;
Structure prediction by ZEFSAII (Michael W. Deem and Ramdas Pophale) SiO2 
 PCOD9367467
Probable space group: A B A 2
;
_chemical_formula_sum "Si O2"
_cell_formula_units_Z 64
_cell_length_a 29.059616
_cell_length_b 7.279610
_cell_length_c 12.556069
_cell_angle_alpha 90.000000
_cell_angle_beta 90.000000
_cell_angle_gamma 90.000000
_cell_volume 2656.144376
_symmetry_space_group_name_H-M "A B A 2"
_symmetry_group_IT_number 41
_symmetry_cell_setting 'orthorhombic'
loop_
_space_group_symop_operation_xyz
x,y,z
-x,-y,z
1/2-x,y,1/2+z
1/2+x,-y,1/2+z
x,1/2+y,1/2+z
-x,1/2-y,1/2+z
1/2-x,1/2+y,z
1/2+x,1/2-y,z
loop_
_atom_site_type_symbol
_atom_site_label
_atom_site_fract_x
_atom_site_fract_y
_atom_site_fract_z
Si Si1 0.616996 0.774435 0.538900
Si Si2 0.420680 0.196740 0.749870
Si Si3 0.901154 0.884631 0.810612
Si Si4 0.947875 0.937831 0.475742
Si Si5 0.482065 0.212459 0.178672
Si Si6 0.695307 0.377719 0.747111
Si Si7 0.294479 0.464323 0.514974
Si Si8 0.279285 0.787636 0.378620
O O1 0.612292 0.866172 0.654179
O O2 0.603668 0.893531 0.437167
O O3 0.581929 0.600121 0.529906
O O4 0.667907 0.694541 0.522194
O O5 0.408899 0.412360 0.765184
O O6 0.422130 0.117878 0.868229
O O7 0.471953 0.175199 0.700263
O O8 0.945107 0.768748 0.772324
O O9 0.855102 0.794562 0.761839
O O10 0.956492 0.778994 0.564704
O O11 0.000000 0.000000 0.449435
O O12 0.500000 0.000000 0.181990
O O13 0.705950 0.432468 0.627018
O O14 0.737207 0.269380 0.800798
O O15 0.691556 0.565284 0.815768
O O16 0.305448 0.610885 0.422042
O O17 0.245535 0.382568 0.479606
#
# Coordination Sequence:
#
# PCOD9367467 Si02
#       8
#     8   8   8   8   8   8   8   8
#     4  12  23  41  62  93 129 164 211 259 310 373
#     4  11  23  42  65  89 126 169 205 261 316 366
#     4  11  22  41  64  89 129 167 203 261 309 371
#     4  11  21  42  65  89 126 165 212 258 309 377
#     4   9  18  39  64  87 119 169 201 249 318 356
#     4  11  21  42  64  92 126 161 206 256 314 372
#     4  11  22  41  65  91 126 162 206 261 310 372
#     4  10  24  40  65  94 119 168 209 251 323 371
#
# _framework density 24.095077
#
# number of rings (size 3 to 8) (size 9 to 14) (size 15 to 20)
#    0.000    1.250    6.250    1.500    1.750    0.000 
#    4.500    0.000    0.000    0.000    0.000    0.000 
#    0.000    0.000    0.000    0.000    0.000    0.000 
#
# Total GULP energy -179031.656561 kJ/mol
# GULP energy per Si atom -5594.739268 kJ/mol
# Density = 2.404024 g / cm^3
# Si number density = 24.095077 Si / 1000 Ang^3
#
#
#
# Elastic Constant Matrix: (Units=GPa)
#
#
# Indices 1 2 3 4 5 6 
#
# 1 71.6325 5.9646 8.1228 0.0000 0.0000 0.0000
# 2 5.9646 31.3295 16.2616 0.0000 0.0000 0.0000
# 3 8.1228 16.2616 131.7696 0.0000 0.0000 0.0000
# 4 0.0000 0.0000 0.0000 40.2154 0.0000 0.0000
# 5 0.0000 0.0000 0.0000 0.0000 11.7064 0.0000
# 6 0.0000 0.0000 0.0000 0.0000 0.0000 15.2309
#
#
#
# Elastic Compliance Matrix: (Units=1/GPa)
#
#
# Indices 1 2 3 4 5 6 
#
# 1 0.014226 -0.002407 -0.000580 0.000000 0.000000 0.000000
# 2 -0.002407 0.034511 -0.004111 0.000000 0.000000 0.000000
# 3 -0.000580 -0.004111 0.008132 0.000000 0.000000 0.000000
# 4 0.000000 0.000000 0.000000 0.024866 0.000000 0.000000
# 5 0.000000 0.000000 0.000000 0.000000 0.085423 0.000000
# 6 0.000000 0.000000 0.000000 0.000000 0.000000 0.065656
#
#
# Mechanical properties :
#
#
# Convention : Reuss Voigt Hill
#
# Bulk Modulus (GPa) = 23.43384 32.82551 28.12968
# Shear Modulus (GPa) = 19.13989 27.05605 23.09797
#
# Velocity S-wave (km/s) = 2.82148 3.35459 3.09951
# Velocity P-wave (km/s) = 4.51232 5.35325 4.95067
#
# Compressibility (1/GPa) = 0.04267333
#
# Stress axis : x y z
#
# Youngs Moduli (GPa) = 70.29206 28.97653 122.97054
#
# Poissons Ratio (x) = 0.06976 0.07131
# Poissons Ratio (y) = 0.16923 0.50547
# Poissons Ratio (z) = 0.04076 0.11911
#
# Static dielectric constant tensor:
#      x y z
#    x 1.927700 0.000000 0.000000 
#    y 0.000000 1.972400 0.000000 
#    z 0.000000 0.000000 1.911160 
# 
# From -- ./inp_files/6662.got.cif
#   From: 2010.05.17/outbox.cif.g08.bks.cpg/sg41_4_cif.got.tgz:6662.got - 2010.06.03 18:54:24.
