data_PCOD9367734
_publ_section_title
;
Structure prediction by ZEFSAII (Michael W. Deem and Ramdas Pophale) SiO2 
 PCOD9367734
Probable space group: A B A 2
;
_chemical_formula_sum "Si O2"
_cell_formula_units_Z 56
_cell_length_a 14.434344
_cell_length_b 22.132251
_cell_length_c 7.809707
_cell_angle_alpha 90.000000
_cell_angle_beta 90.000000
_cell_angle_gamma 90.000000
_cell_volume 2494.924333
_symmetry_space_group_name_H-M "A B A 2"
_symmetry_group_IT_number 41
_symmetry_cell_setting 'orthorhombic'
loop_
_space_group_symop_operation_xyz
x,y,z
-x,-y,z
1/2-x,y,1/2+z
1/2+x,-y,1/2+z
x,1/2+y,1/2+z
-x,1/2-y,1/2+z
1/2-x,1/2+y,z
1/2+x,1/2-y,z
loop_
_atom_site_type_symbol
_atom_site_label
_atom_site_fract_x
_atom_site_fract_y
_atom_site_fract_z
Si Si1 0.916754 0.452362 0.922790
Si Si2 0.426124 0.054726 0.319826
Si Si3 0.737426 0.019337 0.450002
Si Si4 0.741810 0.609722 0.717024
Si Si5 0.897018 0.710057 0.116069
Si Si6 0.016242 0.186297 0.947944
Si Si7 0.548395 0.140750 0.786867
O O1 0.823858 0.485040 0.863124
O O2 0.000000 0.500000 0.929853
O O3 0.958616 0.401900 0.797623
O O4 0.900373 0.432585 0.120307
O O5 0.460714 0.118229 0.393448
O O6 0.500000 0.000000 0.319660
O O7 0.344005 0.028151 0.436646
O O8 0.698451 0.086869 0.397236
O O9 0.783054 0.046663 0.621892
O O10 0.696226 0.671547 0.655088
O O11 0.850274 0.611817 0.760680
O O12 0.954524 0.713050 0.292948
O O13 0.895880 0.773062 0.010635
O O14 0.949219 0.669058 0.975819
O O15 0.959045 0.183848 0.124126
#
# Coordination Sequence:
#
# PCOD9367734 Si02
#       7
#     8   8   8   8   8   8   8
#     4  11  22  41  69 106 153 195 240 311 377 437
#     4  11  24  44  70 110 155 195 248 316 380 459
#     4  12  24  41  70 109 148 196 247 307 386 464
#     4  12  23  43  72 106 145 192 260 303 371 460
#     4  12  25  49  71 108 146 197 258 318 370 459
#     4  12  27  47  75 105 148 196 255 311 391 449
#     4  12  25  44  74 107 147 197 253 315 375 458
#
# _framework density 22.445568999999999
#
# number of rings (size 3 to 8) (size 9 to 14) (size 15 to 20)
#    0.000    0.286    7.143    2.571    2.000    0.571 
#    0.000    4.286    0.000    0.000    0.000    0.000 
#    0.000    0.000    0.000    0.000    0.000    0.000 
#
# Total GULP energy -155890.474604 kJ/mol
# GULP energy per Si atom -5567.516950 kJ/mol
# Density = 2.239448 g / cm^3
# Si number density = 22.445569 Si / 1000 Ang^3
#
#
#
# Elastic Constant Matrix: (Units=GPa)
#
#
# Indices 1 2 3 4 5 6 
#
# 1 73.1202 45.3262 27.7984 0.0000 0.0000 0.0000
# 2 45.3262 97.4167 22.8638 0.0000 0.0000 0.0000
# 3 27.7984 22.8638 100.6053 0.0000 0.0000 0.0000
# 4 0.0000 0.0000 0.0000 73.7819 0.0000 0.0000
# 5 0.0000 0.0000 0.0000 0.0000 18.3658 0.0000
# 6 0.0000 0.0000 0.0000 0.0000 0.0000 34.1141
#
#
#
# Elastic Compliance Matrix: (Units=1/GPa)
#
#
# Indices 1 2 3 4 5 6 
#
# 1 0.020434 -0.008643 -0.003682 0.000000 0.000000 0.000000
# 2 -0.008643 0.014500 -0.000907 0.000000 0.000000 0.000000
# 3 -0.003682 -0.000907 0.011163 0.000000 0.000000 0.000000
# 4 0.000000 0.000000 0.000000 0.013553 0.000000 0.000000
# 5 0.000000 0.000000 0.000000 0.000000 0.054449 0.000000
# 6 0.000000 0.000000 0.000000 0.000000 0.000000 0.029313
#
#
# Mechanical properties :
#
#
# Convention : Reuss Voigt Hill
#
# Bulk Modulus (GPa) = 50.93599 51.45769 51.19684
# Shear Modulus (GPa) = 28.34135 36.92927 32.63531
#
# Velocity S-wave (km/s) = 3.55726 4.06061 3.81724
# Velocity P-wave (km/s) = 6.29401 6.70522 6.50287
#
# Compressibility (1/GPa) = 0.01963248
#
# Stress axis : x y z
#
# Youngs Moduli (GPa) = 48.93879 68.96732 89.57950
#
# Poissons Ratio (x) = 0.59611 0.32981
# Poissons Ratio (y) = 0.42299 0.08125
# Poissons Ratio (z) = 0.18018 0.06255
#
# Static dielectric constant tensor:
#      x y z
#    x 1.861770 0.000000 0.000000 
#    y 0.000000 1.598370 0.000000 
#    z 0.000000 0.000000 2.065280 
# 
# From -- ./inp_files/2669.got.cif
#   From: 2010.05.17/outbox.cif.g08.bks.cpg/sg41_2_cif.got.tgz:2669.got - 2010.06.03 18:54:24.
