data_PCOD9367841
_publ_section_title
;
Structure prediction by ZEFSAII (Michael W. Deem and Ramdas Pophale) SiO2 
 PCOD9367841
Probable space group: A B A 2
;
_chemical_formula_sum "Si O2"
_cell_formula_units_Z 64
_cell_length_a 28.396692
_cell_length_b 8.084107
_cell_length_c 12.161361
_cell_angle_alpha 90.000000
_cell_angle_beta 90.000000
_cell_angle_gamma 90.000000
_cell_volume 2791.785096
_symmetry_space_group_name_H-M "A B A 2"
_symmetry_group_IT_number 41
_symmetry_cell_setting 'orthorhombic'
loop_
_space_group_symop_operation_xyz
x,y,z
-x,-y,z
1/2-x,y,1/2+z
1/2+x,-y,1/2+z
x,1/2+y,1/2+z
-x,1/2-y,1/2+z
1/2-x,1/2+y,z
1/2+x,1/2-y,z
loop_
_atom_site_type_symbol
_atom_site_label
_atom_site_fract_x
_atom_site_fract_y
_atom_site_fract_z
Si Si1 0.401438 0.947446 0.587310
Si Si2 0.946025 0.554373 0.824465
Si Si3 0.137367 0.919507 0.726535
Si Si4 0.776499 0.826122 0.709464
Si Si5 0.797346 0.515088 0.575306
Si Si6 0.700349 0.778263 0.884781
Si Si7 0.879845 0.427996 0.011906
Si Si8 0.947923 0.442834 0.370069
O O1 0.421369 0.974548 0.707750
O O2 0.351475 0.039054 0.570148
O O3 0.390749 0.751311 0.566830
O O4 0.437708 0.007631 0.495557
O O5 0.943573 0.748208 0.851639
O O6 0.000000 0.500000 0.820270
O O7 0.918144 0.458449 0.918942
O O8 0.163704 0.771109 0.787588
O O9 0.178702 0.057533 0.721985
O O10 0.119858 0.925993 0.601252
O O11 0.093080 0.969633 0.800252
O O12 0.793186 0.644394 0.676630
O O13 0.747082 0.827777 0.821461
O O14 0.741489 0.882073 0.610007
O O15 0.790279 0.620955 0.464107
O O16 0.671755 0.910369 0.957178
O O17 0.000000 0.500000 0.336773
#
# Coordination Sequence:
#
# PCOD9367841 Si02
#       8
#     8   8   8   8   8   8   8   8
#     4  11  23  50  71 101 147 184 236 304 356 425
#     4  12  27  45  74 108 132 184 241 296 364 432
#     4  12  24  47  72 104 144 190 237 295 363 423
#     4  12  24  43  66 108 140 189 236 286 356 426
#     4  11  24  42  68 101 144 185 236 291 348 426
#     4  11  25  44  71 100 147 189 232 296 355 423
#     4  11  24  47  70 103 144 182 238 297 347 434
#     4  12  26  50  75 102 145 190 238 308 366 423
#
# _framework density 22.924399999999999
#
# number of rings (size 3 to 8) (size 9 to 14) (size 15 to 20)
#    0.000    0.500    7.500    1.875    1.750    2.500 
#    6.750    0.000    0.000    0.000    0.000    0.000 
#    0.000    0.000    0.000    0.000    0.000    0.000 
#
# Total GULP energy -179241.007892 kJ/mol
# GULP energy per Si atom -5601.281497 kJ/mol
# Density = 2.287222 g / cm^3
# Si number density = 22.924400 Si / 1000 Ang^3
#
#
#
# Elastic Constant Matrix: (Units=GPa)
#
#
# Indices 1 2 3 4 5 6 
#
# 1 143.3294 5.5019 46.1195 0.0000 0.0000 0.0000
# 2 5.5019 23.0984 5.2813 0.0000 0.0000 0.0000
# 3 46.1195 5.2813 148.6866 0.0000 0.0000 0.0000
# 4 0.0000 0.0000 0.0000 22.9011 0.0000 0.0000
# 5 0.0000 0.0000 0.0000 0.0000 32.6754 0.0000
# 6 0.0000 0.0000 0.0000 0.0000 0.0000 27.2675
#
#
#
# Elastic Compliance Matrix: (Units=1/GPa)
#
#
# Indices 1 2 3 4 5 6 
#
# 1 0.007790 -0.001314 -0.002370 0.000000 0.000000 0.000000
# 2 -0.001314 0.043869 -0.001151 0.000000 0.000000 0.000000
# 3 -0.002370 -0.001151 0.007501 0.000000 0.000000 0.000000
# 4 0.000000 0.000000 0.000000 0.043666 0.000000 0.000000
# 5 0.000000 0.000000 0.000000 0.000000 0.030604 0.000000
# 6 0.000000 0.000000 0.000000 0.000000 0.000000 0.036674
#
#
# Mechanical properties :
#
#
# Convention : Reuss Voigt Hill
#
# Bulk Modulus (GPa) = 20.20515 47.65776 33.93145
# Shear Modulus (GPa) = 25.47515 33.78290 29.62902
#
# Velocity S-wave (km/s) = 3.33718 3.84300 3.59899
# Velocity P-wave (km/s) = 4.86642 6.36598 5.66603
#
# Compressibility (1/GPa) = 0.04949234
#
# Stress axis : x y z
#
# Youngs Moduli (GPa) = 128.37253 22.79506 133.30801
#
# Poissons Ratio (x) = 0.02995 0.31588
# Poissons Ratio (y) = 0.16864 0.15340
# Poissons Ratio (z) = 0.30419 0.02623
#
# Static dielectric constant tensor:
#      x y z
#    x 1.844220 0.000000 0.000000 
#    y 0.000000 1.888640 0.000000 
#    z 0.000000 0.000000 1.868110 
# 
# From -- ./inp_files/6673.got.cif
#   From: 2010.05.17/outbox.cif.g08.bks.cpg/sg41_4_cif.got.tgz:6673.got - 2010.06.03 18:54:24.
