data_PCOD9367585
_publ_section_title
;
Structure prediction by ZEFSAII (Michael W. Deem and Ramdas Pophale) SiO2 
 PCOD9367585
Probable space group: A B A 2
;
_chemical_formula_sum "Si O2"
_cell_formula_units_Z 28
_cell_length_a 10.441134
_cell_length_b 10.282227
_cell_length_c 9.631262
_cell_angle_alpha 90.000000
_cell_angle_beta 90.000000
_cell_angle_gamma 90.000000
_cell_volume 1033.994085
_symmetry_space_group_name_H-M "A B A 2"
_symmetry_group_IT_number 41
_symmetry_cell_setting 'orthorhombic'
loop_
_space_group_symop_operation_xyz
x,y,z
-x,-y,z
1/2-x,y,1/2+z
1/2+x,-y,1/2+z
x,1/2+y,1/2+z
-x,1/2-y,1/2+z
1/2-x,1/2+y,z
1/2+x,1/2-y,z
loop_
_atom_site_type_symbol
_atom_site_label
_atom_site_fract_x
_atom_site_fract_y
_atom_site_fract_z
Si Si1 0.500000 0.500000 0.597430
Si Si2 0.872842 0.656746 0.485532
Si Si3 0.275456 0.610733 0.026176
Si Si4 0.034878 0.227455 0.231161
O O1 0.367085 0.550130 0.531054
O O2 0.451037 0.374305 0.678517
O O3 0.854629 0.505173 0.455002
O O4 0.747953 0.746147 0.463593
O O5 0.973376 0.738990 0.393104
O O6 0.915682 0.668346 0.646518
O O7 0.345893 0.641572 0.173730
#
# Coordination Sequence:
#
# PCOD9367585 Si02
#       4
#     4   8   8   8
#     4  10  24  48  70 114 154 202 256 320 390 468
#     4  11  27  48  83 111 162 208 263 332 402 474
#     4  11  24  50  74 116 153 208 260 327 394 478
#     4  11  26  48  80 113 159 204 267 324 402 468
#
# _framework density 27.079457000000001
#
# number of rings (size 3 to 8) (size 9 to 14) (size 15 to 20)
#    0.000    1.143    2.857    0.857    8.000    2.286 
#   20.571    0.000    0.000    0.000    0.000    0.000 
#    0.000    0.000    0.000    0.000    0.000    0.000 
#
# Total GULP energy -78046.783852 kJ/mol
# GULP energy per Si atom -5574.770275 kJ/mol
# Density = 2.701782 g / cm^3
# Si number density = 27.079457 Si / 1000 Ang^3
#
#
#
# Elastic Constant Matrix: (Units=GPa)
#
#
# Indices 1 2 3 4 5 6 
#
# 1 156.4885 40.9384 21.7267 0.0000 0.0000 0.0000
# 2 40.9384 179.5083 29.9308 0.0000 0.0000 0.0000
# 3 21.7267 29.9308 72.0941 0.0000 0.0000 0.0000
# 4 0.0000 0.0000 0.0000 38.8515 0.0000 0.0000
# 5 0.0000 0.0000 0.0000 0.0000 7.1222 0.0000
# 6 0.0000 0.0000 0.0000 0.0000 0.0000 46.9247
#
#
#
# Elastic Compliance Matrix: (Units=1/GPa)
#
#
# Indices 1 2 3 4 5 6 
#
# 1 0.006952 -0.001328 -0.001544 0.000000 0.000000 0.000000
# 2 -0.001328 0.006239 -0.002190 0.000000 0.000000 0.000000
# 3 -0.001544 -0.002190 0.015245 0.000000 0.000000 0.000000
# 4 0.000000 0.000000 0.000000 0.025739 0.000000 0.000000
# 5 0.000000 0.000000 0.000000 0.000000 0.140407 0.000000
# 6 0.000000 0.000000 0.000000 0.000000 0.000000 0.021311
#
#
# Mechanical properties :
#
#
# Convention : Reuss Voigt Hill
#
# Bulk Modulus (GPa) = 54.60728 65.92030 60.26379
# Shear Modulus (GPa) = 21.54061 39.61268 30.57664
#
# Velocity S-wave (km/s) = 2.82345 3.82885 3.36392
# Velocity P-wave (km/s) = 5.55324 6.62894 6.11479
#
# Compressibility (1/GPa) = 0.01831258
#
# Stress axis : x y z
#
# Youngs Moduli (GPa) = 143.84336 160.28762 65.59470
#
# Poissons Ratio (x) = 0.21287 0.10126
# Poissons Ratio (y) = 0.19103 0.14364
# Poissons Ratio (z) = 0.22206 0.35101
#
# Static dielectric constant tensor:
#      x y z
#    x 2.231300 0.000000 0.000000 
#    y 0.000000 2.037620 0.000000 
#    z 0.000000 0.000000 2.215770 
# 
# From -- ./inp_files/1859.got.cif
#   From: 2010.05.17/outbox.cif.g08.bks.cpg/sg41_1_cif.got.tgz:1859.got - 2010.06.03 18:54:24.
