data_PCOD9367577
_publ_section_title
;
Structure prediction by ZEFSAII (Michael W. Deem and Ramdas Pophale) SiO2 
 PCOD9367577
Probable space group: A B A 2
;
_chemical_formula_sum "Si O2"
_cell_formula_units_Z 40
_cell_length_a 11.375219
_cell_length_b 16.013080
_cell_length_c 8.312736
_cell_angle_alpha 90.000000
_cell_angle_beta 90.000000
_cell_angle_gamma 90.000000
_cell_volume 1514.183914
_symmetry_space_group_name_H-M "A B A 2"
_symmetry_group_IT_number 41
_symmetry_cell_setting 'orthorhombic'
loop_
_space_group_symop_operation_xyz
x,y,z
-x,-y,z
1/2-x,y,1/2+z
1/2+x,-y,1/2+z
x,1/2+y,1/2+z
-x,1/2-y,1/2+z
1/2-x,1/2+y,z
1/2+x,1/2-y,z
loop_
_atom_site_type_symbol
_atom_site_label
_atom_site_fract_x
_atom_site_fract_y
_atom_site_fract_z
Si Si1 0.856312 0.138549 0.543280
Si Si2 0.643688 0.861451 0.108771
Si Si3 0.500000 0.500000 0.342555
Si Si4 0.813769 0.750000 0.326026
Si Si5 0.182431 0.000000 0.076026
Si Si6 0.500000 0.500000 0.809496
O O1 0.889176 0.203792 0.686219
O O2 0.775697 0.189310 0.419688
O O3 0.942975 0.076366 0.442977
O O4 0.767010 0.074036 0.628432
O O5 0.724303 0.810690 0.232363
O O6 0.732990 0.925964 0.023619
O O7 0.557024 0.923634 0.209075
O O8 0.610824 0.796208 0.965833
O O9 0.399299 0.530078 0.220688
O O10 0.100701 0.969922 0.931363
#
# Coordination Sequence:
#
# PCOD9367577 Si02
#       6
#     8   8   4   8   8   4
#     4  11  23  49  81 116 166 215 276 343 416 484
#     4  11  23  49  81 116 166 215 276 343 416 484
#     4  11  24  43  82 120 161 231 276 331 411 518
#     4  10  24  46  84 116 166 212 264 376 406 466
#     4  11  24  47  78 116 164 223 276 339 398 518
#     4  11  24  43  82 120 161 231 276 331 411 518
#
# _framework density 26.416868000000001
#
# number of rings (size 3 to 8) (size 9 to 14) (size 15 to 20)
#    0.000    1.200    4.000    1.200    0.000    0.800 
#    0.000    2.000    8.800    0.000    0.000    0.000 
#    0.000    0.000    0.000    0.000    0.000    0.000 
#
# Total GULP energy -111872.010114 kJ/mol
# GULP energy per Si atom -5593.600506 kJ/mol
# Density = 2.635674 g / cm^3
# Si number density = 26.416868 Si / 1000 Ang^3
#
#
#
# Elastic Constant Matrix: (Units=GPa)
#
#
# Indices 1 2 3 4 5 6 
#
# 1 119.0890 67.3826 83.4906 0.0000 0.0000 0.0000
# 2 67.3826 148.3718 88.5002 0.0000 0.0000 0.0000
# 3 83.4906 88.5002 211.3465 0.0000 0.0000 0.0000
# 4 0.0000 0.0000 0.0000 78.0554 0.0000 0.0000
# 5 0.0000 0.0000 0.0000 0.0000 51.0291 0.0000
# 6 0.0000 0.0000 0.0000 0.0000 0.0000 71.5194
#
#
#
# Elastic Compliance Matrix: (Units=1/GPa)
#
#
# Indices 1 2 3 4 5 6 
#
# 1 0.013044 -0.003799 -0.003562 0.000000 0.000000 0.000000
# 2 -0.003799 0.010090 -0.002724 0.000000 0.000000 0.000000
# 3 -0.003562 -0.002724 0.007280 0.000000 0.000000 0.000000
# 4 0.000000 0.000000 0.000000 0.012811 0.000000 0.000000
# 5 0.000000 0.000000 0.000000 0.000000 0.019597 0.000000
# 6 0.000000 0.000000 0.000000 0.000000 0.000000 0.013982
#
#
# Mechanical properties :
#
#
# Convention : Reuss Voigt Hill
#
# Bulk Modulus (GPa) = 97.63215 106.39490 102.01352
# Shear Modulus (GPa) = 49.80597 56.08303 52.94450
#
# Velocity S-wave (km/s) = 4.34681 4.61260 4.48168
# Velocity P-wave (km/s) = 7.88870 8.29041 8.09205
#
# Compressibility (1/GPa) = 0.01024253
#
# Stress axis : x y z
#
# Youngs Moduli (GPa) = 76.66358 99.10536 137.37144
#
# Poissons Ratio (x) = 0.37652 0.48932
# Poissons Ratio (y) = 0.29126 0.37425
# Poissons Ratio (z) = 0.27308 0.27000
#
# Static dielectric constant tensor:
#      x y z
#    x 2.238320 0.000000 0.000000 
#    y 0.000000 2.172940 0.000000 
#    z 0.000000 0.000000 2.037990 
# 
# From -- ./inp_files/2030.got.cif
#   From: 2010.05.17/outbox.cif.g08.bks.cpg/sg41_2_cif.got.tgz:2030.got - 2010.06.03 18:54:24.
