data_PCOD9367746
_publ_section_title
;
Structure prediction by ZEFSAII (Michael W. Deem and Ramdas Pophale) SiO2 
 PCOD9367746
Probable space group: A B A 2
;
_chemical_formula_sum "Si O2"
_cell_formula_units_Z 64
_cell_length_a 17.928974
_cell_length_b 13.381086
_cell_length_c 13.484340
_cell_angle_alpha 90.000000
_cell_angle_beta 90.000000
_cell_angle_gamma 90.000000
_cell_volume 3235.016453
_symmetry_space_group_name_H-M "A B A 2"
_symmetry_group_IT_number 41
_symmetry_cell_setting 'orthorhombic'
loop_
_space_group_symop_operation_xyz
x,y,z
-x,-y,z
1/2-x,y,1/2+z
1/2+x,-y,1/2+z
x,1/2+y,1/2+z
-x,1/2-y,1/2+z
1/2-x,1/2+y,z
1/2+x,1/2-y,z
loop_
_atom_site_type_symbol
_atom_site_label
_atom_site_fract_x
_atom_site_fract_y
_atom_site_fract_z
Si Si1 0.909569 0.302007 0.500000
Si Si2 0.986801 0.280086 0.148486
Si Si3 0.187806 0.542391 0.610355
Si Si4 0.686216 0.133854 0.456192
Si Si5 0.676315 0.197262 0.837816
Si Si6 0.322564 0.194379 0.125315
Si Si7 0.568525 0.574224 0.235105
Si Si8 0.972281 0.110805 0.848313
O O1 0.872949 0.376661 0.577330
O O2 0.844367 0.273487 0.424504
O O3 0.951307 0.217148 0.563328
O O4 0.971454 0.353745 0.433177
O O5 0.909722 0.336585 0.123894
O O6 0.960573 0.163599 0.163039
O O7 0.019030 0.319529 0.252036
O O8 0.200399 0.462620 0.523630
O O9 0.263747 0.603686 0.628670
O O10 0.142601 0.480948 0.693898
O O11 0.750214 0.143163 0.374291
O O12 0.687205 0.229434 0.531925
O O13 0.608598 0.119436 0.398289
O O14 0.686953 0.246955 0.730135
O O15 0.601634 0.130332 0.830159
O O16 0.500000 0.500000 0.250866
O O17 0.000000 0.000000 0.820574
#
# Coordination Sequence:
#
# PCOD9367746 Si02
#       8
#     8   8   8   8   8   8   8   8
#     4  12  22  43  70 100 132 180 231 284 332 411
#     4  11  24  45  69 100 139 173 229 293 333 400
#     4  12  24  41  73  98 133 183 231 273 340 418
#     4  12  25  44  68 102 137 181 224 279 346 410
#     4  11  26  45  65  98 144 172 226 289 344 397
#     4  11  24  46  67  98 138 177 225 284 337 399
#     4  11  22  43  71  97 130 182 228 274 332 409
#     4  12  25  43  74 102 132 182 233 278 341 416
#
# _framework density 19.783517
#
# number of rings (size 3 to 8) (size 9 to 14) (size 15 to 20)
#    0.000    0.500   10.000    0.000    1.750    2.000 
#    6.750    0.000    0.000    0.000    0.000    0.000 
#    0.000    0.000    0.000    0.000    0.000    0.000 
#
# Total GULP energy -178562.088169 kJ/mol
# GULP energy per Si atom -5580.065255 kJ/mol
# Density = 1.973849 g / cm^3
# Si number density = 19.783517 Si / 1000 Ang^3
#
#
#
# Elastic Constant Matrix: (Units=GPa)
#
#
# Indices 1 2 3 4 5 6 
#
# 1 78.7620 33.5497 18.6704 0.0000 0.0000 0.0000
# 2 33.5497 64.0127 16.9231 0.0000 0.0000 0.0000
# 3 18.6704 16.9231 67.0158 0.0000 0.0000 0.0000
# 4 0.0000 0.0000 0.0000 -157.5012 0.0000 0.0000
# 5 0.0000 0.0000 0.0000 0.0000 33.9750 0.0000
# 6 0.0000 0.0000 0.0000 0.0000 0.0000 8.9454
#
#
#
# Elastic Compliance Matrix: (Units=1/GPa)
#
#
# Indices 1 2 3 4 5 6 
#
# 1 0.016767 -0.008093 -0.002627 0.000000 0.000000 0.000000
# 2 -0.008093 0.020646 -0.002959 0.000000 0.000000 0.000000
# 3 -0.002627 -0.002959 0.016401 0.000000 0.000000 0.000000
# 4 0.000000 0.000000 0.000000 -0.006349 0.000000 0.000000
# 5 0.000000 0.000000 0.000000 0.000000 0.029433 0.000000
# 6 0.000000 0.000000 0.000000 0.000000 0.000000 0.111790
#
#
# Mechanical properties :
#
#
# Convention : Reuss Voigt Hill
#
# Bulk Modulus (GPa) = 37.80028 38.67523 38.23776
# Shear Modulus (GPa) = 22.23566 -13.53968 4.34799
#
# Velocity S-wave (km/s) = 3.35617 -2.61893 1.48410
# Velocity P-wave (km/s) = 5.84525 3.23212 4.72301
#
# Compressibility (1/GPa) = 0.02645483
#
# Stress axis : x y z
#
# Youngs Moduli (GPa) = 59.64239 48.43617 60.97174
#
# Poissons Ratio (x) = 0.39199 0.16020
# Poissons Ratio (y) = 0.48268 0.18041
# Poissons Ratio (z) = 0.15671 0.14332
#
# Static dielectric constant tensor:
#      x y z
#    x 1.725900 0.000000 0.000000 
#    y 0.000000 1.910770 0.000000 
#    z 0.000000 0.000000 1.673380 
# 
# From -- ./inp_files/8814.got.cif
#   From: 2010.05.17/outbox.cif.g08.bks.cpg/sg41_5_cif.got.tgz:8814.got - 2010.06.03 18:54:24.
