data_PCOD9367435
_publ_section_title
;
Structure prediction by ZEFSAII (Michael W. Deem and Ramdas Pophale) SiO2 
 PCOD9367435
Probable space group: A B A 2
;
_chemical_formula_sum "Si O2"
_cell_formula_units_Z 40
_cell_length_a 15.095120
_cell_length_b 8.640936
_cell_length_c 12.838418
_cell_angle_alpha 90.000000
_cell_angle_beta 90.000000
_cell_angle_gamma 90.000000
_cell_volume 1674.591452
_symmetry_space_group_name_H-M "A B A 2"
_symmetry_group_IT_number 41
_symmetry_cell_setting 'orthorhombic'
loop_
_space_group_symop_operation_xyz
x,y,z
-x,-y,z
1/2-x,y,1/2+z
1/2+x,-y,1/2+z
x,1/2+y,1/2+z
-x,1/2-y,1/2+z
1/2-x,1/2+y,z
1/2+x,1/2-y,z
loop_
_atom_site_type_symbol
_atom_site_label
_atom_site_fract_x
_atom_site_fract_y
_atom_site_fract_z
Si Si1 0.243898 0.086585 0.996990
Si Si2 0.992923 0.664793 0.257064
Si Si3 0.085912 0.079208 0.410669
Si Si4 0.677666 0.179092 0.135616
Si Si5 0.825247 0.721795 0.804455
O O1 0.342585 0.159821 0.984004
O O2 0.197257 0.143733 0.889513
O O3 0.180926 0.151887 0.086298
O O4 0.275059 0.923378 0.046552
O O5 0.950550 0.798517 0.327952
O O6 0.921999 0.637578 0.165755
O O7 0.000000 0.500000 0.314382
O O8 0.093040 0.717677 0.234713
O O9 0.140021 0.937876 0.356250
O O10 0.000000 0.000000 0.460101
O O11 0.739055 0.182981 0.237451
#
# Coordination Sequence:
#
# PCOD9367435 Si02
#       5
#     8   8   8   8   8
#     4  12  25  44  75 109 148 198 256 320 390 470
#     4  11  25  45  76 106 146 203 250 317 394 466
#     4  10  23  46  74 102 149 200 249 316 395 463
#     4  12  26  44  75 107 149 197 261 314 387 470
#     4  11  25  49  73 103 158 201 245 328 394 461
#
# _framework density 23.886424000000002
#
# number of rings (size 3 to 8) (size 9 to 14) (size 15 to 20)
#    0.000    0.800    4.000    2.400    5.600    2.400 
#    0.000    0.000    0.000    0.000    0.000    0.000 
#    0.000    0.000    0.000    0.000    0.000    0.000 
#
# Total GULP energy -111543.665895 kJ/mol
# GULP energy per Si atom -5577.183295 kJ/mol
# Density = 2.383206 g / cm^3
# Si number density = 23.886424 Si / 1000 Ang^3
#
#
#
# Elastic Constant Matrix: (Units=GPa)
#
#
# Indices 1 2 3 4 5 6 
#
# 1 167.5933 35.4360 57.7775 0.0000 0.0000 0.0000
# 2 35.4360 86.6684 34.8685 0.0000 0.0000 0.0000
# 3 57.7775 34.8685 85.9866 0.0000 0.0000 0.0000
# 4 0.0000 0.0000 0.0000 24.8836 0.0000 0.0000
# 5 0.0000 0.0000 0.0000 0.0000 28.5818 0.0000
# 6 0.0000 0.0000 0.0000 0.0000 0.0000 33.4151
#
#
#
# Elastic Compliance Matrix: (Units=1/GPa)
#
#
# Indices 1 2 3 4 5 6 
#
# 1 0.007887 -0.001306 -0.004770 0.000000 0.000000 0.000000
# 2 -0.001306 0.014004 -0.004801 0.000000 0.000000 0.000000
# 3 -0.004770 -0.004801 0.016782 0.000000 0.000000 0.000000
# 4 0.000000 0.000000 0.000000 0.040187 0.000000 0.000000
# 5 0.000000 0.000000 0.000000 0.000000 0.034987 0.000000
# 6 0.000000 0.000000 0.000000 0.000000 0.000000 0.029927
#
#
# Mechanical properties :
#
#
# Convention : Reuss Voigt Hill
#
# Bulk Modulus (GPa) = 59.10697 66.26804 62.68750
# Shear Modulus (GPa) = 29.21093 31.52052 30.36573
#
# Velocity S-wave (km/s) = 3.50081 3.63657 3.56933
# Velocity P-wave (km/s) = 6.41401 6.74063 6.57935
#
# Compressibility (1/GPa) = 0.01691848
#
# Stress axis : x y z
#
# Youngs Moduli (GPa) = 126.78293 71.40935 59.58720
#
# Poissons Ratio (x) = 0.09324 0.28426
# Poissons Ratio (y) = 0.16554 0.28610
# Poissons Ratio (z) = 0.60481 0.34286
#
# Static dielectric constant tensor:
#      x y z
#    x 1.914890 0.000000 0.000000 
#    y 0.000000 2.064100 0.000000 
#    z 0.000000 0.000000 1.943380 
# 
# From -- ./inp_files/8222.got.cif
#   From: 2010.05.17/outbox.cif.g08.bks.cpg/sg41_5_cif.got.tgz:8222.got - 2010.06.03 18:54:24.
