data_PCOD9367897
_publ_section_title
;
Structure prediction by ZEFSAII (Michael W. Deem and Ramdas Pophale) SiO2 
 PCOD9367897
Probable space group: A B A 2
;
_chemical_formula_sum "Si O2"
_cell_formula_units_Z 56
_cell_length_a 13.849077
_cell_length_b 12.150671
_cell_length_c 13.878512
_cell_angle_alpha 90.000000
_cell_angle_beta 90.000000
_cell_angle_gamma 90.000000
_cell_volume 2335.414632
_symmetry_space_group_name_H-M "A B A 2"
_symmetry_group_IT_number 41
_symmetry_cell_setting 'orthorhombic'
loop_
_space_group_symop_operation_xyz
x,y,z
-x,-y,z
1/2-x,y,1/2+z
1/2+x,-y,1/2+z
x,1/2+y,1/2+z
-x,1/2-y,1/2+z
1/2-x,1/2+y,z
1/2+x,1/2-y,z
loop_
_atom_site_type_symbol
_atom_site_label
_atom_site_fract_x
_atom_site_fract_y
_atom_site_fract_z
Si Si1 0.341075 0.593749 0.674780
Si Si2 0.781437 0.098457 0.811736
Si Si3 0.844156 0.104458 0.030842
Si Si4 0.485567 0.763423 0.983761
Si Si5 0.817418 0.237585 0.637690
Si Si6 0.000000 0.000000 0.537347
Si Si7 0.000000 0.000000 0.163573
Si Si8 0.929770 0.702656 0.780068
O O1 0.306556 0.515490 0.760250
O O2 0.245862 0.652000 0.634320
O O3 0.407433 0.522090 0.604253
O O4 0.405110 0.697746 0.708157
O O5 0.809441 0.080836 0.922782
O O6 0.835554 0.193697 0.746983
O O7 0.670069 0.137107 0.803648
O O8 0.916830 0.206178 0.014681
O O9 0.753541 0.144341 0.092902
O O10 0.908946 0.018614 0.091571
O O11 0.458466 0.731247 0.876221
O O12 0.406911 0.748349 0.066996
O O13 0.493587 0.893703 0.973070
O O14 0.002138 0.890285 0.230838
#
# Coordination Sequence:
#
# PCOD9367897 Si02
#       8
#     8   8   8   8   8   4   4   8
#     4  11  25  47  74 106 149 200 254 312 390 463
#     4  11  25  49  75 109 159 199 255 324 396 461
#     4  12  27  47  79 114 147 207 267 317 389 473
#     4  12  26  47  77 114 152 201 259 318 393 476
#     4  11  24  52  74 110 155 199 258 323 389 471
#     4  12  23  45  74 106 148 200 249 317 396 454
#     4  12  25  49  76 110 156 198 263 327 390 468
#     4  11  26  49  72 116 151 201 256 320 394 472
#
# _framework density 23.978611000000001
#
# number of rings (size 3 to 8) (size 9 to 14) (size 15 to 20)
#    0.000    0.571    7.143    0.429    6.000    1.143 
#   10.286    0.000    0.000    0.000    0.000    0.000 
#    0.000    0.000    0.000    0.000    0.000    0.000 
#
# Total GULP energy -156707.310252 kJ/mol
# GULP energy per Si atom -5596.689652 kJ/mol
# Density = 2.392404 g / cm^3
# Si number density = 23.978611 Si / 1000 Ang^3
#
#
#
# Elastic Constant Matrix: (Units=GPa)
#
#
# Indices 1 2 3 4 5 6 
#
# 1 47.9600 25.4992 25.2333 0.0000 0.0000 0.0000
# 2 25.4992 83.5219 -7.5510 0.0000 0.0000 0.0000
# 3 25.2333 -7.5510 124.2092 0.0000 0.0000 0.0000
# 4 0.0000 0.0000 0.0000 40.4149 0.0000 0.0000
# 5 0.0000 0.0000 0.0000 0.0000 35.8432 0.0000
# 6 0.0000 0.0000 0.0000 0.0000 0.0000 48.1476
#
#
#
# Elastic Compliance Matrix: (Units=1/GPa)
#
#
# Indices 1 2 3 4 5 6 
#
# 1 0.029381 -0.009562 -0.006550 0.000000 0.000000 0.000000
# 2 -0.009562 0.015151 0.002864 0.000000 0.000000 0.000000
# 3 -0.006550 0.002864 0.009556 0.000000 0.000000 0.000000
# 4 0.000000 0.000000 0.000000 0.024743 0.000000 0.000000
# 5 0.000000 0.000000 0.000000 0.000000 0.027899 0.000000
# 6 0.000000 0.000000 0.000000 0.000000 0.000000 0.020769
#
#
# Mechanical properties :
#
#
# Convention : Reuss Voigt Hill
#
# Bulk Modulus (GPa) = 36.24434 38.00601 37.12517
# Shear Modulus (GPa) = 30.63841 39.04843 34.84342
#
# Velocity S-wave (km/s) = 3.57843 4.03981 3.81610
# Velocity P-wave (km/s) = 5.67641 6.13551 5.91042
#
# Compressibility (1/GPa) = 0.02759052
#
# Stress axis : x y z
#
# Youngs Moduli (GPa) = 34.03574 66.00176 104.64980
#
# Poissons Ratio (x) = 0.63112 0.68546
# Poissons Ratio (y) = 0.32545 -0.29968
# Poissons Ratio (z) = 0.22294 -0.18900
#
# Static dielectric constant tensor:
#      x y z
#    x 1.950700 0.000000 0.000000 
#    y 0.000000 1.919550 0.000000 
#    z 0.000000 0.000000 1.982380 
# 
# From -- ./inp_files/8425.got.cif
#   From: 2010.05.17/outbox.cif.g08.bks.cpg/sg41_5_cif.got.tgz:8425.got - 2010.06.03 18:54:24.
