data_PCOD9367652
_publ_section_title
;
Structure prediction by ZEFSAII (Michael W. Deem and Ramdas Pophale) SiO2 
 PCOD9367652
Probable space group: A B A 2
;
_chemical_formula_sum "Si O2"
_cell_formula_units_Z 44
_cell_length_a 14.226552
_cell_length_b 27.291068
_cell_length_c 4.957434
_cell_angle_alpha 90.000000
_cell_angle_beta 90.000000
_cell_angle_gamma 90.000000
_cell_volume 1924.762409
_symmetry_space_group_name_H-M "A B A 2"
_symmetry_group_IT_number 41
_symmetry_cell_setting 'orthorhombic'
loop_
_space_group_symop_operation_xyz
x,y,z
-x,-y,z
1/2-x,y,1/2+z
1/2+x,-y,1/2+z
x,1/2+y,1/2+z
-x,1/2-y,1/2+z
1/2-x,1/2+y,z
1/2+x,1/2-y,z
loop_
_atom_site_type_symbol
_atom_site_label
_atom_site_fract_x
_atom_site_fract_y
_atom_site_fract_z
Si Si1 0.500000 0.000000 0.276631
Si Si2 0.479473 0.601951 0.067470
Si Si3 0.808172 0.832973 0.116079
Si Si4 0.408635 0.367057 0.571223
Si Si5 0.190335 0.966136 0.507444
Si Si6 0.935653 0.742518 0.949897
O O1 0.488766 0.047112 0.465476
O O2 0.593833 0.008275 0.099026
O O3 0.375796 0.622670 0.036797
O O4 0.550723 0.631904 0.873307
O O5 0.511186 0.611432 0.372244
O O6 0.716617 0.834773 0.929599
O O7 0.862689 0.783528 0.041104
O O8 0.327674 0.407562 0.540270
O O9 0.392120 0.311599 0.480349
O O10 0.224613 0.978558 0.209618
O O11 0.975650 0.753023 0.653255
#
# Coordination Sequence:
#
# PCOD9367652 Si02
#       6
#     4   8   8   8   8   8
#     4  10  26  46  74 102 138 192 236 294 366 414
#     4  11  23  43  67  95 132 182 229 281 350 425
#     4  12  25  40  63 102 137 173 224 289 344 415
#     4  11  22  42  69  95 132 180 229 281 346 413
#     4  11  25  43  69 103 141 178 238 293 346 424
#     4  12  22  41  69  96 133 187 232 271 345 428
#
# _framework density 22.859963
#
# number of rings (size 3 to 8) (size 9 to 14) (size 15 to 20)
#    0.000    0.727    3.636    4.364    0.000    9.455 
#    0.000    0.000    0.000    0.000    0.000    0.000 
#    0.000    0.000    0.000    0.000    0.000    0.000 
#
# Total GULP energy -123241.171005 kJ/mol
# GULP energy per Si atom -5601.871409 kJ/mol
# Density = 2.280793 g / cm^3
# Si number density = 22.859963 Si / 1000 Ang^3
#
#
#
# Elastic Constant Matrix: (Units=GPa)
#
#
# Indices 1 2 3 4 5 6 
#
# 1 67.4774 24.7160 2.1562 0.0000 0.0000 0.0000
# 2 24.7160 99.5176 1.4261 0.0000 0.0000 0.0000
# 3 2.1562 1.4261 66.5483 0.0000 0.0000 0.0000
# 4 0.0000 0.0000 0.0000 12.6893 0.0000 0.0000
# 5 0.0000 0.0000 0.0000 0.0000 66.2077 0.0000
# 6 0.0000 0.0000 0.0000 0.0000 0.0000 43.1379
#
#
#
# Elastic Compliance Matrix: (Units=1/GPa)
#
#
# Indices 1 2 3 4 5 6 
#
# 1 0.016316 -0.004046 -0.000442 0.000000 0.000000 0.000000
# 2 -0.004046 0.011055 -0.000106 0.000000 0.000000 0.000000
# 3 -0.000442 -0.000106 0.015043 0.000000 0.000000 0.000000
# 4 0.000000 0.000000 0.000000 0.078807 0.000000 0.000000
# 5 0.000000 0.000000 0.000000 0.000000 0.015104 0.000000
# 6 0.000000 0.000000 0.000000 0.000000 0.000000 0.023181
#
#
# Mechanical properties :
#
#
# Convention : Reuss Voigt Hill
#
# Bulk Modulus (GPa) = 30.09626 32.23777 31.16702
# Shear Modulus (GPa) = 27.81351 38.08998 32.95175
#
# Velocity S-wave (km/s) = 3.49189 4.08638 3.80078
# Velocity P-wave (km/s) = 5.42695 6.03304 5.73800
#
# Compressibility (1/GPa) = 0.03322671
#
# Stress axis : x y z
#
# Youngs Moduli (GPa) = 61.29021 90.45839 66.47495
#
# Poissons Ratio (x) = 0.36598 0.02938
# Poissons Ratio (y) = 0.24797 0.00703
# Poissons Ratio (z) = 0.02709 0.00957
#
# Static dielectric constant tensor:
#      x y z
#    x 1.756970 0.000000 0.000000 
#    y 0.000000 1.852690 0.000000 
#    z 0.000000 0.000000 1.807980 
# 
# From -- ./inp_files/277.got.cif
#   From: 2010.05.17/outbox.cif.g08.bks.cpg/sg41_1_cif.got.tgz:277.got - 2010.06.03 18:54:24.
