data_PCOD9367382
_publ_section_title
;
Structure prediction by ZEFSAII (Michael W. Deem and Ramdas Pophale) SiO2 
 PCOD9367382
Probable space group: A B A 2
;
_chemical_formula_sum "Si O2"
_cell_formula_units_Z 56
_cell_length_a 13.198238
_cell_length_b 14.075078
_cell_length_c 12.103765
_cell_angle_alpha 90.000000
_cell_angle_beta 90.000000
_cell_angle_gamma 90.000000
_cell_volume 2248.470785
_symmetry_space_group_name_H-M "A B A 2"
_symmetry_group_IT_number 41
_symmetry_cell_setting 'orthorhombic'
loop_
_space_group_symop_operation_xyz
x,y,z
-x,-y,z
1/2-x,y,1/2+z
1/2+x,-y,1/2+z
x,1/2+y,1/2+z
-x,1/2-y,1/2+z
1/2-x,1/2+y,z
1/2+x,1/2-y,z
loop_
_atom_site_type_symbol
_atom_site_label
_atom_site_fract_x
_atom_site_fract_y
_atom_site_fract_z
Si Si1 0.220911 0.090742 0.678110
Si Si2 0.689205 0.088132 0.287404
Si Si3 0.134848 0.380372 0.924146
Si Si4 0.277702 0.217746 0.871824
Si Si5 0.585564 0.366828 0.073813
Si Si6 0.044405 0.680514 0.053556
Si Si7 0.500000 0.000000 0.757285
Si Si8 0.500000 0.000000 0.387186
O O1 0.248090 0.127275 0.800467
O O2 0.293752 0.139288 0.587807
O O3 0.110714 0.129416 0.645706
O O4 0.226301 0.976344 0.686234
O O5 0.757051 0.070661 0.399735
O O6 0.692960 0.201455 0.279128
O O7 0.578491 0.055512 0.313798
O O8 0.175245 0.270869 0.917461
O O9 0.068573 0.427623 0.827020
O O10 0.052982 0.383296 0.020584
O O11 0.375500 0.200906 0.951222
O O12 0.508603 0.279311 0.085523
O O13 0.565839 0.434646 0.178686
O O14 0.555531 0.424979 0.965949
#
# Coordination Sequence:
#
# PCOD9367382 Si02
#       8
#     8   8   8   8   8   8   4   4
#     4  12  26  44  77 108 146 190 249 311 368 440
#     4  10  25  48  71 104 146 195 240 301 368 446
#     4  10  23  44  67 102 143 189 243 295 372 441
#     4  10  24  48  70 103 152 194 241 305 381 448
#     4  11  23  42  67 107 137 186 249 298 358 439
#     4  12  25  42  74 111 142 198 248 306 375 444
#     4  11  20  42  73  96 138 202 235 300 375 440
#     4  11  24  42  75  96 148 192 243 282 375 434
#
# _framework density 24.905813999999999
#
# number of rings (size 3 to 8) (size 9 to 14) (size 15 to 20)
#    0.857    0.286    2.857    2.571    4.000    1.143 
#    0.000    3.571    0.000    0.000    0.000    0.000 
#    0.000    0.000    0.000    0.000    0.000    0.000 
#
# Total GULP energy -156263.665688 kJ/mol
# GULP energy per Si atom -5580.845203 kJ/mol
# Density = 2.484913 g / cm^3
# Si number density = 24.905814 Si / 1000 Ang^3
#
#
#
# Elastic Constant Matrix: (Units=GPa)
#
#
# Indices 1 2 3 4 5 6 
#
# 1 135.6137 11.6283 25.0295 0.0000 0.0000 0.0000
# 2 11.6283 82.5952 23.0816 0.0000 0.0000 0.0000
# 3 25.0295 23.0816 46.0086 0.0000 0.0000 0.0000
# 4 0.0000 0.0000 0.0000 55.6605 0.0000 0.0000
# 5 0.0000 0.0000 0.0000 0.0000 40.2490 0.0000
# 6 0.0000 0.0000 0.0000 0.0000 0.0000 29.4028
#
#
#
# Elastic Compliance Matrix: (Units=1/GPa)
#
#
# Indices 1 2 3 4 5 6 
#
# 1 0.008198 0.000107 -0.004513 0.000000 0.000000 0.000000
# 2 0.000107 0.014083 -0.007123 0.000000 0.000000 0.000000
# 3 -0.004513 -0.007123 0.027764 0.000000 0.000000 0.000000
# 4 0.000000 0.000000 0.000000 0.017966 0.000000 0.000000
# 5 0.000000 0.000000 0.000000 0.000000 0.024845 0.000000
# 6 0.000000 0.000000 0.000000 0.000000 0.000000 0.034010
#
#
# Mechanical properties :
#
#
# Convention : Reuss Voigt Hill
#
# Bulk Modulus (GPa) = 37.05718 42.63294 39.84506
# Shear Modulus (GPa) = 31.46221 38.69434 35.07828
#
# Velocity S-wave (km/s) = 3.55808 3.94588 3.75699
# Velocity P-wave (km/s) = 5.63836 6.15750 5.90364
#
# Compressibility (1/GPa) = 0.02698532
#
# Stress axis : x y z
#
# Youngs Moduli (GPa) = 121.98506 71.00858 36.01772
#
# Poissons Ratio (x) = -0.00761 0.16257
# Poissons Ratio (y) = -0.01307 0.25657
# Poissons Ratio (z) = 0.55058 0.50582
#
# Static dielectric constant tensor:
#      x y z
#    x 2.093090 0.000000 0.000000 
#    y 0.000000 1.892910 0.000000 
#    z 0.000000 0.000000 1.967760 
# 
# From -- ./inp_files/5623.got.cif
#   From: 2010.05.17/outbox.cif.g08.bks.cpg/sg41_3_cif.got.tgz:5623.got - 2010.06.03 18:54:24.
