data_PCOD9367331
_publ_section_title
;
Structure prediction by ZEFSAII (Michael W. Deem and Ramdas Pophale) SiO2 
 PCOD9367331
Probable space group: A B A 2
;
_chemical_formula_sum "Si O2"
_cell_formula_units_Z 60
_cell_length_a 24.829481
_cell_length_b 19.173398
_cell_length_c 5.674780
_cell_angle_alpha 90.000000
_cell_angle_beta 90.000000
_cell_angle_gamma 90.000000
_cell_volume 2701.567099
_symmetry_space_group_name_H-M "A B A 2"
_symmetry_group_IT_number 41
_symmetry_cell_setting 'orthorhombic'
loop_
_space_group_symop_operation_xyz
x,y,z
-x,-y,z
1/2-x,y,1/2+z
1/2+x,-y,1/2+z
x,1/2+y,1/2+z
-x,1/2-y,1/2+z
1/2-x,1/2+y,z
1/2+x,1/2-y,z
loop_
_atom_site_type_symbol
_atom_site_label
_atom_site_fract_x
_atom_site_fract_y
_atom_site_fract_z
Si Si1 0.395348 0.959240 0.030530
Si Si2 0.227465 0.665868 0.972156
Si Si3 0.877673 0.323493 0.715039
Si Si4 0.459793 0.199226 0.083554
Si Si5 0.725835 0.000370 0.950728
Si Si6 0.582433 0.700001 0.451026
Si Si7 0.077644 0.571393 0.405811
Si Si8 0.500000 0.500000 0.229906
O O1 0.404428 0.000394 0.277584
O O2 0.338245 0.987129 0.938659
O O3 0.394526 0.876017 0.003810
O O4 0.448971 0.979031 0.884998
O O5 0.254694 0.692902 0.728271
O O6 0.164717 0.677527 0.923370
O O7 0.236706 0.582613 0.967432
O O8 0.875465 0.256496 0.549931
O O9 0.875555 0.394294 0.565122
O O10 0.936199 0.317487 0.829197
O O11 0.433998 0.269736 0.192954
O O12 0.439278 0.132923 0.231274
O O13 0.523915 0.201225 0.077960
O O14 0.752701 0.027699 0.706616
O O15 0.024707 0.557538 0.559016
#
# Coordination Sequence:
#
# PCOD9367331 Si02
#       8
#     8   8   8   8   8   8   8   4
#     4  12  26  43  67 107 142 186 238 302 368 435
#     4  10  23  41  71 101 132 173 239 299 357 418
#     4  11  24  42  65  96 130 181 224 286 342 419
#     4  11  22  42  65  98 134 183 231 270 350 437
#     4  10  24  46  72 103 140 191 243 302 370 444
#     4  11  24  40  66  97 138 185 224 280 348 436
#     4  11  24  39  68  97 141 171 234 291 351 426
#     4  12  24  38  64 106 138 178 218 294 366 420
#
# _framework density 22.209330999999999
#
# number of rings (size 3 to 8) (size 9 to 14) (size 15 to 20)
#    0.000    1.067    1.333    5.200   13.067    1.067 
#    0.000    1.333    0.000    0.000    0.000    0.000 
#    0.000    0.000    0.000    0.000    0.000    0.000 
#
# Total GULP energy -167458.109598 kJ/mol
# GULP energy per Si atom -5581.936987 kJ/mol
# Density = 2.215878 g / cm^3
# Si number density = 22.209331 Si / 1000 Ang^3
#
#
#
# Elastic Constant Matrix: (Units=GPa)
#
#
# Indices 1 2 3 4 5 6 
#
# 1 82.1728 5.4217 32.3918 0.0000 0.0000 0.0000
# 2 5.4217 76.4810 43.2064 0.0000 0.0000 0.0000
# 3 32.3918 43.2064 91.1876 0.0000 0.0000 0.0000
# 4 0.0000 0.0000 0.0000 27.1618 0.0000 0.0000
# 5 0.0000 0.0000 0.0000 0.0000 52.5386 0.0000
# 6 0.0000 0.0000 0.0000 0.0000 0.0000 14.3182
#
#
#
# Elastic Compliance Matrix: (Units=1/GPa)
#
#
# Indices 1 2 3 4 5 6 
#
# 1 0.014512 0.002572 -0.006374 0.000000 0.000000 0.000000
# 2 0.002572 0.018310 -0.009589 0.000000 0.000000 0.000000
# 3 -0.006374 -0.009589 0.017774 0.000000 0.000000 0.000000
# 4 0.000000 0.000000 0.000000 0.036816 0.000000 0.000000
# 5 0.000000 0.000000 0.000000 0.000000 0.019034 0.000000
# 6 0.000000 0.000000 0.000000 0.000000 0.000000 0.069841
#
#
# Mechanical properties :
#
#
# Convention : Reuss Voigt Hill
#
# Bulk Modulus (GPa) = 41.99154 45.76459 43.87806
# Shear Modulus (GPa) = 23.69578 30.05849 26.87714
#
# Velocity S-wave (km/s) = 3.26993 3.68287 3.48253
# Velocity P-wave (km/s) = 5.76236 6.22378 5.99751
#
# Compressibility (1/GPa) = 0.02381432
#
# Stress axis : x y z
#
# Youngs Moduli (GPa) = 68.90734 54.61462 56.26174
#
# Poissons Ratio (x) = -0.14047 0.35860
# Poissons Ratio (y) = -0.17723 0.53951
# Poissons Ratio (z) = 0.43919 0.52372
#
# Static dielectric constant tensor:
#      x y z
#    x 1.665670 0.000000 0.000000 
#    y 0.000000 1.819520 0.000000 
#    z 0.000000 0.000000 1.907650 
# 
# From -- ./inp_files/1010.got.cif
#   From: 2010.05.17/outbox.cif.g08.bks.cpg/sg41_1_cif.got.tgz:1010.got - 2010.06.03 18:54:24.
