data_PCOD9367617
_publ_section_title
;
Structure prediction by ZEFSAII (Michael W. Deem and Ramdas Pophale) SiO2 
 PCOD9367617
Probable space group: A B A 2
;
_chemical_formula_sum "Si O2"
_cell_formula_units_Z 60
_cell_length_a 11.183911
_cell_length_b 21.853277
_cell_length_c 11.577548
_cell_angle_alpha 90.000000
_cell_angle_beta 90.000000
_cell_angle_gamma 90.000000
_cell_volume 2829.611835
_symmetry_space_group_name_H-M "A B A 2"
_symmetry_group_IT_number 41
_symmetry_cell_setting 'orthorhombic'
loop_
_space_group_symop_operation_xyz
x,y,z
-x,-y,z
1/2-x,y,1/2+z
1/2+x,-y,1/2+z
x,1/2+y,1/2+z
-x,1/2-y,1/2+z
1/2-x,1/2+y,z
1/2+x,1/2-y,z
loop_
_atom_site_type_symbol
_atom_site_label
_atom_site_fract_x
_atom_site_fract_y
_atom_site_fract_z
Si Si1 0.586762 0.599400 0.513180
Si Si2 0.316573 0.803456 0.192795
Si Si3 0.155441 0.101176 0.650914
Si Si4 0.500000 0.500000 0.948055
Si Si5 0.381347 0.671500 0.096141
Si Si6 0.908066 0.125842 0.245697
Si Si7 0.718340 0.515138 0.113242
Si Si8 0.494569 0.637086 0.858270
O O1 0.645726 0.655007 0.584011
O O2 0.459865 0.587347 0.573173
O O3 0.575062 0.615832 0.380425
O O4 0.677944 0.544159 0.534540
O O5 0.355270 0.736033 0.156753
O O6 0.177333 0.815931 0.218844
O O7 0.390999 0.830153 0.301655
O O8 0.253499 0.139446 0.581719
O O9 0.108815 0.137566 0.761905
O O10 0.220258 0.038386 0.685870
O O11 0.519005 0.564333 0.881062
O O12 0.614740 0.490660 0.029791
O O13 0.466599 0.633859 0.182154
O O14 0.451262 0.669917 0.974645
O O15 0.838723 0.067790 0.191903
#
# Coordination Sequence:
#
# PCOD9367617 Si02
#       8
#     8   8   8   4   8   8   8   8
#     4  10  25  45  70 105 143 192 242 294 366 442
#     4  10  27  46  74 103 141 190 247 299 366 436
#     4  11  26  45  69 110 143 190 237 301 367 434
#     4  12  22  44  74 102 150 182 246 296 372 434
#     4  12  27  47  72 105 142 190 250 301 365 438
#     4  11  25  45  71 103 142 192 241 303 366 437
#     4  11  22  44  68 110 144 188 241 294 373 440
#     4  11  26  47  72 104 143 196 229 310 367 430
#
# _framework density 21.204322999999999
#
# number of rings (size 3 to 8) (size 9 to 14) (size 15 to 20)
#    0.000    1.067    2.667    1.200   16.800    0.000 
#    4.800    0.000    0.000    0.000    0.000    0.000 
#    0.000    0.000    0.000    0.000    0.000    0.000 
#
# Total GULP energy -167800.322361 kJ/mol
# GULP energy per Si atom -5593.344079 kJ/mol
# Density = 2.115606 g / cm^3
# Si number density = 21.204323 Si / 1000 Ang^3
#
#
#
# Elastic Constant Matrix: (Units=GPa)
#
#
# Indices 1 2 3 4 5 6 
#
# 1 100.4367 20.8083 17.1187 0.0000 0.0000 0.0000
# 2 20.8083 79.4911 6.2468 0.0000 0.0000 0.0000
# 3 17.1187 6.2468 92.9456 0.0000 0.0000 0.0000
# 4 0.0000 0.0000 0.0000 26.9109 0.0000 0.0000
# 5 0.0000 0.0000 0.0000 0.0000 -0.0682 0.0000
# 6 0.0000 0.0000 0.0000 0.0000 0.0000 9.0998
#
#
#
# Elastic Compliance Matrix: (Units=1/GPa)
#
#
# Indices 1 2 3 4 5 6 
#
# 1 0.010823 -0.002691 -0.001813 0.000000 0.000000 0.000000
# 2 -0.002691 0.013316 -0.000399 0.000000 0.000000 0.000000
# 3 -0.001813 -0.000399 0.011120 0.000000 0.000000 0.000000
# 4 0.000000 0.000000 0.000000 0.037160 0.000000 0.000000
# 5 0.000000 0.000000 0.000000 0.000000-14.662849 0.000000
# 6 0.000000 0.000000 0.000000 0.000000 0.000000 0.109892
#
#
# Mechanical properties :
#
#
# Convention : Reuss Voigt Hill
#
# Bulk Modulus (GPa) = 39.28784 40.13568 39.71176
# Shear Modulus (GPa) = -0.34573 22.43515 11.04471
#
# Velocity S-wave (km/s) = -0.40423 3.25629 2.28474
# Velocity P-wave (km/s) = 4.28376 5.75387 5.07236
#
# Compressibility (1/GPa) = 0.02545317
#
# Stress axis : x y z
#
# Youngs Moduli (GPa) = 92.39671 75.09903 89.93087
#
# Poissons Ratio (x) = 0.20207 0.16300
# Poissons Ratio (y) = 0.24861 0.03592
# Poissons Ratio (z) = 0.16747 0.02999
#
# Static dielectric constant tensor:
#      x y z
#    x 1.748900 0.000000 0.000000 
#    y 0.000000 1.810400 0.000000 
#    z 0.000000 0.000000 1.721310 
# 
# From -- ./inp_files/5152.got.cif
#   From: 2010.05.17/outbox.cif.g08.bks.cpg/sg41_3_cif.got.tgz:5152.got - 2010.06.03 18:54:24.
