data_PCOD9367567
_publ_section_title
;
Structure prediction by ZEFSAII (Michael W. Deem and Ramdas Pophale) SiO2 
 PCOD9367567
Probable space group: A B A 2
;
_chemical_formula_sum "Si O2"
_cell_formula_units_Z 44
_cell_length_a 5.485301
_cell_length_b 26.905525
_cell_length_c 12.380847
_cell_angle_alpha 90.000000
_cell_angle_beta 90.000000
_cell_angle_gamma 90.000000
_cell_volume 1827.226106
_symmetry_space_group_name_H-M "A B A 2"
_symmetry_group_IT_number 41
_symmetry_cell_setting 'orthorhombic'
loop_
_space_group_symop_operation_xyz
x,y,z
-x,-y,z
1/2-x,y,1/2+z
1/2+x,-y,1/2+z
x,1/2+y,1/2+z
-x,1/2-y,1/2+z
1/2-x,1/2+y,z
1/2+x,1/2-y,z
loop_
_atom_site_type_symbol
_atom_site_label
_atom_site_fract_x
_atom_site_fract_y
_atom_site_fract_z
Si Si1 0.021834 0.143036 0.008870
Si Si2 0.628841 0.412644 0.654141
Si Si3 0.348029 0.429223 0.432844
Si Si4 0.343959 0.146878 0.823053
Si Si5 0.631363 0.218985 0.682799
Si Si6 0.000000 0.500000 0.317317
O O1 0.124470 0.099637 0.087856
O O2 0.888732 0.184769 0.076535
O O3 0.235080 0.166007 0.935625
O O4 0.856189 0.113065 0.927572
O O5 0.444070 0.424479 0.555691
O O6 0.641945 0.362746 0.729144
O O7 0.589627 0.457239 0.736361
O O8 0.551644 0.407617 0.353137
O O9 0.218445 0.479184 0.392942
O O10 0.556578 0.181721 0.779224
O O11 0.895422 0.244228 0.685588
#
# Coordination Sequence:
#
# PCOD9367567 Si02
#       6
#     8   8   8   8   8   4
#     4  10  24  46  71 103 149 196 242 308 387 444
#     4  10  25  44  68 104 145 193 241 308 365 443
#     4  11  26  46  73 107 148 197 250 310 374 457
#     4  10  24  47  74  99 149 199 248 307 401 446
#     4  11  28  45  75 113 148 195 258 319 383 467
#     4  12  26  42  76 106 148 192 260 296 368 452
#
# _framework density 24.080214999999999
#
# number of rings (size 3 to 8) (size 9 to 14) (size 15 to 20)
#    0.000    1.455    1.818    0.000   17.818    2.182 
#    0.000    0.000    0.000    0.000    0.000    0.000 
#    0.000    0.000    0.000    0.000    0.000    0.000 
#
# Total GULP energy -122754.581708 kJ/mol
# GULP energy per Si atom -5579.753714 kJ/mol
# Density = 2.402541 g / cm^3
# Si number density = 24.080215 Si / 1000 Ang^3
#
#
#
# Elastic Constant Matrix: (Units=GPa)
#
#
# Indices 1 2 3 4 5 6 
#
# 1 73.9192 34.2935 36.0176 0.0000 0.0000 0.0000
# 2 34.2935 73.7649 13.5223 0.0000 0.0000 0.0000
# 3 36.0176 13.5223 75.2681 0.0000 0.0000 0.0000
# 4 0.0000 0.0000 0.0000 41.8461 0.0000 0.0000
# 5 0.0000 0.0000 0.0000 0.0000 29.2832 0.0000
# 6 0.0000 0.0000 0.0000 0.0000 0.0000 43.9312
#
#
#
# Elastic Compliance Matrix: (Units=1/GPa)
#
#
# Indices 1 2 3 4 5 6 
#
# 1 0.021819 -0.008510 -0.008912 0.000000 0.000000 0.000000
# 2 -0.008510 0.017337 0.000957 0.000000 0.000000 0.000000
# 3 -0.008912 0.000957 0.017378 0.000000 0.000000 0.000000
# 4 0.000000 0.000000 0.000000 0.023897 0.000000 0.000000
# 5 0.000000 0.000000 0.000000 0.000000 0.034149 0.000000
# 6 0.000000 0.000000 0.000000 0.000000 0.000000 0.022763
#
#
# Mechanical properties :
#
#
# Convention : Reuss Voigt Hill
#
# Bulk Modulus (GPa) = 42.36265 43.40212 42.88239
# Shear Modulus (GPa) = 28.06766 32.28668 30.17717
#
# Velocity S-wave (km/s) = 3.41778 3.66566 3.54389
# Velocity P-wave (km/s) = 5.76242 5.99827 5.88152
#
# Compressibility (1/GPa) = 0.02360570
#
# Stress axis : x y z
#
# Youngs Moduli (GPa) = 45.83228 57.67900 57.54262
#
# Poissons Ratio (x) = 0.49084 0.51282
# Poissons Ratio (y) = 0.39003 -0.05509
# Poissons Ratio (z) = 0.40845 -0.05522
#
# Static dielectric constant tensor:
#      x y z
#    x 2.064260 0.000000 0.000000 
#    y 0.000000 1.912920 0.000000 
#    z 0.000000 0.000000 1.931810 
# 
# From -- ./inp_files/6863.got.cif
#   From: 2010.05.17/outbox.cif.g08.bks.cpg/sg41_4_cif.got.tgz:6863.got - 2010.06.03 18:54:24.
