data_PCOD9367544
_publ_section_title
;
Structure prediction by ZEFSAII (Michael W. Deem and Ramdas Pophale) SiO2 
 PCOD9367544
Probable space group: A B A 2
;
_chemical_formula_sum "Si O2"
_cell_formula_units_Z 28
_cell_length_a 24.022288
_cell_length_b 5.762627
_cell_length_c 8.187959
_cell_angle_alpha 90.000000
_cell_angle_beta 90.000000
_cell_angle_gamma 90.000000
_cell_volume 1133.471327
_symmetry_space_group_name_H-M "A B A 2"
_symmetry_group_IT_number 41
_symmetry_cell_setting 'orthorhombic'
loop_
_space_group_symop_operation_xyz
x,y,z
-x,-y,z
1/2-x,y,1/2+z
1/2+x,-y,1/2+z
x,1/2+y,1/2+z
-x,1/2-y,1/2+z
1/2-x,1/2+y,z
1/2+x,1/2-y,z
loop_
_atom_site_type_symbol
_atom_site_label
_atom_site_fract_x
_atom_site_fract_y
_atom_site_fract_z
Si Si1 0.742671 0.347566 0.519400
Si Si2 0.845757 0.055862 0.155086
Si Si3 0.500000 0.000000 0.155342
Si Si4 0.419526 0.232153 0.414039
O O1 0.745720 0.598957 0.435039
O O2 0.794402 0.374892 0.646296
O O3 0.684265 0.298377 0.608161
O O4 0.878307 0.088264 0.322976
O O5 0.885690 0.966608 0.010053
O O6 0.542153 0.862306 0.269796
O O7 0.461023 0.844132 0.042939
#
# Coordination Sequence:
#
# PCOD9367544 Si02
#       4
#     8   8   4   8
#     4   8  20  44  68 118 154 200 244 314 364 508
#     4  10  24  44  76 112 152 202 242 312 394 460
#     4  12  28  50  72 108 146 192 282 320 370 456
#     4  12  26  48  76 106 148 206 254 328 388 442
#
# _framework density 24.702876
#
# number of rings (size 3 to 8) (size 9 to 14) (size 15 to 20)
#    1.714    0.000    0.000    3.429    4.000    2.286 
#    0.000    0.000    0.000    0.000    0.000    0.000 
#    0.000    0.000    0.000    0.000    0.000    0.000 
#
# Total GULP energy -78246.710009 kJ/mol
# GULP energy per Si atom -5589.050715 kJ/mol
# Density = 2.464665 g / cm^3
# Si number density = 24.702876 Si / 1000 Ang^3
#
#
#
# Elastic Constant Matrix: (Units=GPa)
#
#
# Indices 1 2 3 4 5 6 
#
# 1 163.7105 47.0530 91.6794 0.0000 0.0000 0.0000
# 2 47.0530 150.0770 68.8123 0.0000 0.0000 0.0000
# 3 91.6794 68.8123 156.8411 0.0000 0.0000 0.0000
# 4 0.0000 0.0000 0.0000 54.8792 0.0000 0.0000
# 5 0.0000 0.0000 0.0000 0.0000 55.8554 0.0000
# 6 0.0000 0.0000 0.0000 0.0000 0.0000 52.1273
#
#
#
# Elastic Compliance Matrix: (Units=1/GPa)
#
#
# Indices 1 2 3 4 5 6 
#
# 1 0.009113 -0.000519 -0.005099 0.000000 0.000000 0.000000
# 2 -0.000519 0.008371 -0.003369 0.000000 0.000000 0.000000
# 3 -0.005099 -0.003369 0.010835 0.000000 0.000000 0.000000
# 4 0.000000 0.000000 0.000000 0.018222 0.000000 0.000000
# 5 0.000000 0.000000 0.000000 0.000000 0.017903 0.000000
# 6 0.000000 0.000000 0.000000 0.000000 0.000000 0.019184
#
#
# Mechanical properties :
#
#
# Convention : Reuss Voigt Hill
#
# Bulk Modulus (GPa) = 96.67719 98.41312 97.54515
# Shear Modulus (GPa) = 47.59613 50.11132 48.85372
#
# Velocity S-wave (km/s) = 4.39423 4.50884 4.45191
# Velocity P-wave (km/s) = 8.06019 8.18727 8.12398
#
# Compressibility (1/GPa) = 0.01034370
#
# Stress axis : x y z
#
# Youngs Moduli (GPa) = 109.73149 119.46280 92.29587
#
# Poissons Ratio (x) = 0.06202 0.47064
# Poissons Ratio (y) = 0.05697 0.31096
# Poissons Ratio (z) = 0.55954 0.40249
#
# Static dielectric constant tensor:
#      x y z
#    x 1.982500 0.000000 0.000000 
#    y 0.000000 1.959330 0.000000 
#    z 0.000000 0.000000 1.929710 
# 
# From -- ./inp_files/1061.got.cif
#   From: 2010.05.17/outbox.cif.g08.bks.cpg/sg41_1_cif.got.tgz:1061.got - 2010.06.03 18:54:24.
