data_PCOD9367047
_publ_section_title
;
Structure prediction by ZEFSAII (Michael W. Deem and Ramdas Pophale) SiO2 
 PCOD9367047
Probable space group: A B A 2
;
_chemical_formula_sum "Si O2"
_cell_formula_units_Z 36
_cell_length_a 13.248255
_cell_length_b 17.877311
_cell_length_c 5.247013
_cell_angle_alpha 90.000000
_cell_angle_beta 90.000000
_cell_angle_gamma 90.000000
_cell_volume 1242.719217
_symmetry_space_group_name_H-M "A B A 2"
_symmetry_group_IT_number 41
_symmetry_cell_setting 'orthorhombic'
loop_
_space_group_symop_operation_xyz
x,y,z
-x,-y,z
1/2-x,y,1/2+z
1/2+x,-y,1/2+z
x,1/2+y,1/2+z
-x,1/2-y,1/2+z
1/2-x,1/2+y,z
1/2+x,1/2-y,z
loop_
_atom_site_type_symbol
_atom_site_label
_atom_site_fract_x
_atom_site_fract_y
_atom_site_fract_z
Si Si1 0.694593 0.724560 0.910110
Si Si2 0.792266 0.523855 0.259303
Si Si3 0.857037 0.384861 0.677438
Si Si4 0.000000 0.000000 0.063093
Si Si5 0.507227 0.800247 0.322835
O O1 0.782549 0.714016 0.704719
O O2 0.668795 0.812133 0.843350
O O3 0.605808 0.667570 0.832857
O O4 0.721630 0.559307 0.480085
O O5 0.903126 0.512956 0.379394
O O6 0.734170 0.443796 0.194630
O O7 0.958097 0.433100 0.742990
O O8 0.899641 0.350324 0.409074
O O9 0.494580 0.742335 0.558074
#
# Coordination Sequence:
#
# PCOD9367047 Si02
#       5
#     8   8   8   4   8
#     4  11  21  38  64  95 133 180 241 302 367 440
#     4  10  22  40  63  97 134 182 239 293 353 422
#     4  10  22  42  67 100 143 190 242 302 365 437
#     4  10  22  42  70 106 144 196 254 302 364 446
#     4  10  22  40  65  99 138 186 243 308 377 446
#
# _framework density 28.968733
#
# number of rings (size 3 to 8) (size 9 to 14) (size 15 to 20)
#    0.000    1.778    0.000    5.333    0.000   10.667 
#    0.000    4.444    0.000    0.000    0.000    0.000 
#    0.000    0.000    0.000    0.000    0.000    0.000 
#
# Total GULP energy -100469.885080 kJ/mol
# GULP energy per Si atom -5581.660282 kJ/mol
# Density = 2.890280 g / cm^3
# Si number density = 28.968733 Si / 1000 Ang^3
#
#
#
# Elastic Constant Matrix: (Units=GPa)
#
#
# Indices 1 2 3 4 5 6 
#
# 1 176.4832 37.3105 13.3418 0.0000 0.0000 0.0000
# 2 37.3105 161.6973 26.2786 0.0000 0.0000 0.0000
# 3 13.3418 26.2786 118.2858 0.0000 0.0000 0.0000
# 4 0.0000 0.0000 0.0000 38.5027 0.0000 0.0000
# 5 0.0000 0.0000 0.0000 0.0000 66.8487 0.0000
# 6 0.0000 0.0000 0.0000 0.0000 0.0000 59.9117
#
#
#
# Elastic Compliance Matrix: (Units=1/GPa)
#
#
# Indices 1 2 3 4 5 6 
#
# 1 0.005973 -0.001316 -0.000381 0.000000 0.000000 0.000000
# 2 -0.001316 0.006706 -0.001341 0.000000 0.000000 0.000000
# 3 -0.000381 -0.001341 0.008795 0.000000 0.000000 0.000000
# 4 0.000000 0.000000 0.000000 0.025972 0.000000 0.000000
# 5 0.000000 0.000000 0.000000 0.000000 0.014959 0.000000
# 6 0.000000 0.000000 0.000000 0.000000 0.000000 0.016691
#
#
# Mechanical properties :
#
#
# Convention : Reuss Voigt Hill
#
# Bulk Modulus (GPa) = 64.94960 67.81425 66.38192
# Shear Modulus (GPa) = 55.36641 58.35497 56.86069
#
# Velocity S-wave (km/s) = 4.37652 4.49309 4.43519
# Velocity P-wave (km/s) = 6.92877 7.09771 7.01375
#
# Compressibility (1/GPa) = 0.01539655
#
# Stress axis : x y z
#
# Youngs Moduli (GPa) = 167.40941 149.11735 113.69957
#
# Poissons Ratio (x) = 0.19629 0.04336
# Poissons Ratio (y) = 0.22037 0.15251
# Poissons Ratio (z) = 0.06384 0.20002
#
# Static dielectric constant tensor:
#      x y z
#    x 2.554520 0.000000 0.000000 
#    y 0.000000 2.531500 0.000000 
#    z 0.000000 0.000000 2.397110 
# 
# From -- ./inp_files/223.got.cif
#   From: 2010.05.17/outbox.cif.g08.bks.cpg/sg41_1_cif.got.tgz:223.got - 2010.06.03 18:54:24.
