data_PCOD9367804
_publ_section_title
;
Structure prediction by ZEFSAII (Michael W. Deem and Ramdas Pophale) SiO2 
 PCOD9367804
Probable space group: A B A 2
;
_chemical_formula_sum "Si O2"
_cell_formula_units_Z 52
_cell_length_a 5.609834
_cell_length_b 26.213128
_cell_length_c 14.070432
_cell_angle_alpha 90.000000
_cell_angle_beta 90.000000
_cell_angle_gamma 90.000000
_cell_volume 2069.075271
_symmetry_space_group_name_H-M "A B A 2"
_symmetry_group_IT_number 41
_symmetry_cell_setting 'orthorhombic'
loop_
_space_group_symop_operation_xyz
x,y,z
-x,-y,z
1/2-x,y,1/2+z
1/2+x,-y,1/2+z
x,1/2+y,1/2+z
-x,1/2-y,1/2+z
1/2-x,1/2+y,z
1/2+x,1/2-y,z
loop_
_atom_site_type_symbol
_atom_site_label
_atom_site_fract_x
_atom_site_fract_y
_atom_site_fract_z
Si Si1 0.842029 0.618801 0.247140
Si Si2 0.662673 0.550715 0.584023
Si Si3 0.816712 0.233901 0.230457
Si Si4 0.000000 0.000000 0.226090
Si Si5 0.141375 0.548538 0.378274
Si Si6 0.555000 0.110734 0.923045
Si Si7 0.101653 0.269378 0.951736
O O1 0.945886 0.594735 0.150965
O O2 0.800750 0.677954 0.229190
O O3 0.603709 0.605729 0.310551
O O4 0.020945 0.596195 0.325296
O O5 0.500000 0.500000 0.576994
O O6 0.738133 0.579225 0.488173
O O7 0.884988 0.539165 0.652373
O O8 0.590356 0.266601 0.192082
O O9 0.864412 0.248689 0.341586
O O10 0.210270 0.018539 0.295202
O O11 0.323649 0.577058 0.447223
O O12 0.000000 0.500000 0.419823
O O13 0.557985 0.169865 0.948368
O O14 0.363249 0.256635 0.993318
#
# Coordination Sequence:
#
# PCOD9367804 Si02
#       7
#     8   8   8   4   8   8   8
#     4  11  23  44  70  96 141 184 225 291 365 413
#     4  12  26  46  64 103 139 182 238 290 350 428
#     4   9  20  36  66 104 131 175 235 288 352 435
#     4  12  22  48  66  90 142 186 224 306 350 414
#     4  12  23  43  69  98 137 191 233 288 364 424
#     4  11  27  42  74 105 133 194 240 286 366 441
#     4   9  20  42  68 101 143 179 235 304 364 427
#
# _framework density 25.131999
#
# number of rings (size 3 to 8) (size 9 to 14) (size 15 to 20)
#    0.000    1.231    4.615    0.000   14.000    1.231 
#    1.385    1.538    0.000    0.000    0.000    0.000 
#    0.000    0.000    0.000    0.000    0.000    0.000 
#
# Total GULP energy -144853.456079 kJ/mol
# GULP energy per Si atom -5571.286772 kJ/mol
# Density = 2.507480 g / cm^3
# Si number density = 25.131999 Si / 1000 Ang^3
#
#
#
# Elastic Constant Matrix: (Units=GPa)
#
#
# Indices 1 2 3 4 5 6 
#
# 1 122.3232 61.3716 -1.3766 0.0000 0.0000 0.0000
# 2 61.3716 153.5552 43.8445 0.0000 0.0000 0.0000
# 3 -1.3766 43.8445 65.5278 0.0000 0.0000 0.0000
# 4 0.0000 0.0000 0.0000 4.7529 0.0000 0.0000
# 5 0.0000 0.0000 0.0000 0.0000 18.0870 0.0000
# 6 0.0000 0.0000 0.0000 0.0000 0.0000 44.8284
#
#
#
# Elastic Compliance Matrix: (Units=1/GPa)
#
#
# Indices 1 2 3 4 5 6 
#
# 1 0.010982 -0.005507 0.003916 0.000000 0.000000 0.000000
# 2 -0.005507 0.010812 -0.007350 0.000000 0.000000 0.000000
# 3 0.003916 -0.007350 0.020261 0.000000 0.000000 0.000000
# 4 0.000000 0.000000 0.000000 0.210398 0.000000 0.000000
# 5 0.000000 0.000000 0.000000 0.000000 0.055288 0.000000
# 6 0.000000 0.000000 0.000000 0.000000 0.000000 0.022307
#
#
# Mechanical properties :
#
#
# Convention : Reuss Voigt Hill
#
# Bulk Modulus (GPa) = 41.37056 61.00946 51.19001
# Shear Modulus (GPa) = 14.04535 29.37145 21.70840
#
# Velocity S-wave (km/s) = 2.36659 3.42232 2.94219
# Velocity P-wave (km/s) = 4.89538 6.32018 5.65285
#
# Compressibility (1/GPa) = 0.02417178
#
# Stress axis : x y z
#
# Youngs Moduli (GPa) = 91.05602 92.48909 49.35625
#
# Poissons Ratio (x) = 0.50937 -0.19326
# Poissons Ratio (y) = 0.50147 0.36277
# Poissons Ratio (z) = -0.35654 0.67980
#
# Static dielectric constant tensor:
#      x y z
#    x 2.243110 0.000000 0.000000 
#    y 0.000000 1.816100 0.000000 
#    z 0.000000 0.000000 1.994010 
# 
# From -- ./inp_files/9449.got.cif
#   From: 2010.05.17/outbox.cif.g08.bks.cpg/sg41_5_cif.got.tgz:9449.got - 2010.06.03 18:54:24.
