data_PCOD9367509
_publ_section_title
;
Structure prediction by ZEFSAII (Michael W. Deem and Ramdas Pophale) SiO2 
 PCOD9367509
Probable space group: A B A 2
;
_chemical_formula_sum "Si O2"
_cell_formula_units_Z 64
_cell_length_a 8.106357
_cell_length_b 14.683971
_cell_length_c 22.132362
_cell_angle_alpha 90.000000
_cell_angle_beta 90.000000
_cell_angle_gamma 90.000000
_cell_volume 2634.492758
_symmetry_space_group_name_H-M "A B A 2"
_symmetry_group_IT_number 41
_symmetry_cell_setting 'orthorhombic'
loop_
_space_group_symop_operation_xyz
x,y,z
-x,-y,z
1/2-x,y,1/2+z
1/2+x,-y,1/2+z
x,1/2+y,1/2+z
-x,1/2-y,1/2+z
1/2-x,1/2+y,z
1/2+x,1/2-y,z
loop_
_atom_site_type_symbol
_atom_site_label
_atom_site_fract_x
_atom_site_fract_y
_atom_site_fract_z
Si Si1 0.270437 0.626942 0.629290
Si Si2 0.166752 0.555742 0.259278
Si Si3 0.499455 0.781110 0.321366
Si Si4 0.118865 0.333489 0.640333
Si Si5 0.823784 0.124301 0.011200
Si Si6 0.673407 0.619578 0.276402
Si Si7 0.668741 0.946442 0.995207
Si Si8 0.634683 0.288361 0.955066
O O1 0.315458 0.568215 0.687654
O O2 0.356001 0.725436 0.635120
O O3 0.321810 0.585976 0.564904
O O4 0.073274 0.641040 0.634763
O O5 0.131891 0.654453 0.287089
O O6 0.307165 0.488507 0.285425
O O7 0.000000 0.500000 0.271677
O O8 0.515728 0.678566 0.296259
O O9 0.323826 0.828067 0.309530
O O10 0.548000 0.782551 0.391004
O O11 0.208669 0.377542 0.582757
O O12 0.188012 0.365497 0.704389
O O13 0.806563 0.023865 0.985476
O O14 0.696192 0.192370 0.979646
O O15 0.001993 0.168029 0.000497
O O16 0.500000 0.000000 0.983551
O O17 0.711787 0.858543 0.955487
#
# Coordination Sequence:
#
# PCOD9367509 Si02
#       8
#     8   8   8   8   8   8   8   8
#     4  12  25  44  71 109 145 186 238 301 370 453
#     4  10  24  43  69 100 141 183 230 294 369 430
#     4  11  25  46  70 102 137 190 243 291 362 434
#     4  12  24  42  75 102 143 185 235 293 377 432
#     4  12  25  46  71 103 144 189 239 306 372 441
#     4  11  24  44  71 101 141 183 231 304 361 440
#     4  12  27  44  73 107 146 188 243 306 375 440
#     4  12  26  47  73 103 144 195 253 304 365 443
#
# _framework density 24.293102000000001
#
# number of rings (size 3 to 8) (size 9 to 14) (size 15 to 20)
#    0.000    0.500    3.750    3.750    3.500    5.500 
#    0.000    0.000    0.000    0.000    0.000    0.000 
#    0.000    0.000    0.000    0.000    0.000    0.000 
#
# Total GULP energy -179346.697836 kJ/mol
# GULP energy per Si atom -5604.584307 kJ/mol
# Density = 2.423781 g / cm^3
# Si number density = 24.293102 Si / 1000 Ang^3
#
#
#
# Elastic Constant Matrix: (Units=GPa)
#
#
# Indices 1 2 3 4 5 6 
#
# 1 78.7262 -0.3587 5.5818 0.0000 0.0000 0.0000
# 2 -0.3587 102.7101 -10.7146 0.0000 0.0000 0.0000
# 3 5.5818 -10.7146 102.9409 0.0000 0.0000 0.0000
# 4 0.0000 0.0000 0.0000 -0.1721 0.0000 0.0000
# 5 0.0000 0.0000 0.0000 0.0000 28.5896 0.0000
# 6 0.0000 0.0000 0.0000 0.0000 0.0000 34.6251
#
#
#
# Elastic Compliance Matrix: (Units=1/GPa)
#
#
# Indices 1 2 3 4 5 6 
#
# 1 0.012751 -0.000028 -0.000694 0.000000 0.000000 0.000000
# 2 -0.000028 0.009843 0.001026 0.000000 0.000000 0.000000
# 3 -0.000694 0.001026 0.009859 0.000000 0.000000 0.000000
# 4 0.000000 0.000000 0.000000 -5.809132 0.000000 0.000000
# 5 0.000000 0.000000 0.000000 0.000000 0.034978 0.000000
# 6 0.000000 0.000000 0.000000 0.000000 0.000000 0.028881
#
#
# Mechanical properties :
#
#
# Convention : Reuss Voigt Hill
#
# Bulk Modulus (GPa) = 30.24729 30.37712 30.31221
# Shear Modulus (GPa) = -0.87682 31.93310 15.52814
#
# Velocity S-wave (km/s) = -0.60143 3.62953 2.53098
# Velocity P-wave (km/s) = 3.46348 5.48600 4.58759
#
# Compressibility (1/GPa) = 0.03306081
#
# Stress axis : x y z
#
# Youngs Moduli (GPa) = 78.42310 101.59426 101.43270
#
# Poissons Ratio (x) = 0.00283 0.07043
# Poissons Ratio (y) = 0.00219 -0.10407
# Poissons Ratio (z) = 0.05445 -0.10424
#
# Static dielectric constant tensor:
#      x y z
#    x 1.998260 0.000000 0.000000 
#    y 0.000000 1.899960 0.000000 
#    z 0.000000 0.000000 1.887630 
# 
# From -- ./inp_files/12059.got.cif
#   From: 2010.05.17/outbox.cif.g08.bks.cpg/sg41_7_cif.got.tgz:12059.got - 2010.06.03 18:54:24.
