data_PCOD9367698
_publ_section_title
;
Structure prediction by ZEFSAII (Michael W. Deem and Ramdas Pophale) SiO2 
 PCOD9367698
Probable space group: A B A 2
;
_chemical_formula_sum "Si O2"
_cell_formula_units_Z 64
_cell_length_a 13.921502
_cell_length_b 11.496421
_cell_length_c 17.482958
_cell_angle_alpha 90.000000
_cell_angle_beta 90.000000
_cell_angle_gamma 90.000000
_cell_volume 2798.102810
_symmetry_space_group_name_H-M "A B A 2"
_symmetry_group_IT_number 41
_symmetry_cell_setting 'orthorhombic'
loop_
_space_group_symop_operation_xyz
x,y,z
-x,-y,z
1/2-x,y,1/2+z
1/2+x,-y,1/2+z
x,1/2+y,1/2+z
-x,1/2-y,1/2+z
1/2-x,1/2+y,z
1/2+x,1/2-y,z
loop_
_atom_site_type_symbol
_atom_site_label
_atom_site_fract_x
_atom_site_fract_y
_atom_site_fract_z
Si Si1 0.041187 0.830933 0.972450
Si Si2 0.211220 0.050174 0.757769
Si Si3 0.893081 0.007459 0.603958
Si Si4 0.192882 0.250887 0.103121
Si Si5 0.826599 0.684413 0.735487
Si Si6 0.490771 0.638332 0.148370
Si Si7 0.368467 0.552554 0.903521
Si Si8 0.184799 0.138870 0.470715
O O1 0.941293 0.844597 0.926580
O O2 0.098830 0.950934 0.960095
O O3 0.022827 0.818907 0.063286
O O4 0.111421 0.733349 0.939701
O O5 0.177058 0.040352 0.669661
O O6 0.211627 0.193200 0.772912
O O7 0.125634 0.013521 0.815871
O O8 0.289917 0.943012 0.765753
O O9 0.878520 0.940620 0.525412
O O10 0.871291 0.139219 0.584045
O O11 0.000000 0.000000 0.634025
O O12 0.278273 0.304061 0.152354
O O13 0.237300 0.194222 0.028791
O O14 0.121983 0.169579 0.152469
O O15 0.940276 0.686049 0.715571
O O16 0.500000 0.500000 0.148782
O O17 0.254918 0.574804 0.912767
#
# Coordination Sequence:
#
# PCOD9367698 Si02
#       8
#     8   8   8   8   8   8   8   8
#     4  11  22  41  65  96 132 183 228 284 346 422
#     4  11  25  45  68  98 140 187 229 284 348 428
#     4  11  24  40  66 101 135 170 227 291 348 402
#     4  11  21  36  67 100 134 169 219 289 348 410
#     4  11  24  44  69 100 140 177 235 286 353 411
#     4  12  21  39  69 102 135 172 231 288 349 414
#     4  11  26  42  65  97 138 183 236 277 352 427
#     4  12  22  41  69  98 135 175 233 293 348 412
#
# _framework density 22.872640000000001
#
# number of rings (size 3 to 8) (size 9 to 14) (size 15 to 20)
#    0.000    0.750    5.000    3.000    7.000    0.000 
#    0.000    1.250    0.000    0.000    0.000    0.000 
#    0.000    0.000    0.000    0.000    0.000    0.000 
#
# Total GULP energy -178424.405310 kJ/mol
# GULP energy per Si atom -5575.762666 kJ/mol
# Density = 2.282058 g / cm^3
# Si number density = 22.872640 Si / 1000 Ang^3
#
#
#
# Elastic Constant Matrix: (Units=GPa)
#
#
# Indices 1 2 3 4 5 6 
#
# 1 88.8195 11.0598 7.7306 0.0000 0.0000 0.0000
# 2 11.0598 95.6370 -0.7193 0.0000 0.0000 0.0000
# 3 7.7306 -0.7193 48.7412 0.0000 0.0000 0.0000
# 4 0.0000 0.0000 0.0000 12.8467 0.0000 0.0000
# 5 0.0000 0.0000 0.0000 0.0000 23.1582 0.0000
# 6 0.0000 0.0000 0.0000 0.0000 0.0000 42.6461
#
#
#
# Elastic Compliance Matrix: (Units=1/GPa)
#
#
# Indices 1 2 3 4 5 6 
#
# 1 0.011589 -0.001354 -0.001858 0.000000 0.000000 0.000000
# 2 -0.001354 0.010616 0.000371 0.000000 0.000000 0.000000
# 3 -0.001858 0.000371 0.020817 0.000000 0.000000 0.000000
# 4 0.000000 0.000000 0.000000 0.077841 0.000000 0.000000
# 5 0.000000 0.000000 0.000000 0.000000 0.043181 0.000000
# 6 0.000000 0.000000 0.000000 0.000000 0.000000 0.023449
#
#
# Mechanical properties :
#
#
# Convention : Reuss Voigt Hill
#
# Bulk Modulus (GPa) = 26.78107 29.92666 28.35386
# Shear Modulus (GPa) = 24.31660 30.07196 27.19428
#
# Velocity S-wave (km/s) = 3.26411 3.62989 3.45185
# Velocity P-wave (km/s) = 5.09314 5.53901 5.32074
#
# Compressibility (1/GPa) = 0.03733981
#
# Stress axis : x y z
#
# Youngs Moduli (GPa) = 86.28770 94.20102 48.03830
#
# Poissons Ratio (x) = 0.12757 0.08926
# Poissons Ratio (y) = 0.11685 -0.01784
# Poissons Ratio (z) = 0.16033 -0.03499
#
# Static dielectric constant tensor:
#      x y z
#    x 1.874170 0.000000 0.000000 
#    y 0.000000 1.935840 0.000000 
#    z 0.000000 0.000000 1.842230 
# 
# From -- ./inp_files/10407.got.cif
#   From: 2010.05.17/outbox.cif.g08.bks.cpg/sg41_6_cif.got.tgz:10407.got - 2010.06.03 18:54:24.
