data_PCOD9367560
_publ_section_title
;
Structure prediction by ZEFSAII (Michael W. Deem and Ramdas Pophale) SiO2 
 PCOD9367560
Probable space group: A B A 2
;
_chemical_formula_sum "Si O2"
_cell_formula_units_Z 56
_cell_length_a 13.133597
_cell_length_b 9.717192
_cell_length_c 19.303720
_cell_angle_alpha 90.000000
_cell_angle_beta 90.000000
_cell_angle_gamma 90.000000
_cell_volume 2463.573248
_symmetry_space_group_name_H-M "A B A 2"
_symmetry_group_IT_number 41
_symmetry_cell_setting 'orthorhombic'
loop_
_space_group_symop_operation_xyz
x,y,z
-x,-y,z
1/2-x,y,1/2+z
1/2+x,-y,1/2+z
x,1/2+y,1/2+z
-x,1/2-y,1/2+z
1/2-x,1/2+y,z
1/2+x,1/2-y,z
loop_
_atom_site_type_symbol
_atom_site_label
_atom_site_fract_x
_atom_site_fract_y
_atom_site_fract_z
Si Si1 0.963641 0.740282 0.051700
Si Si2 0.000000 0.000000 0.947099
Si Si3 0.283277 0.429857 0.210310
Si Si4 0.194438 0.409426 0.357566
Si Si5 0.000000 0.000000 0.270781
Si Si6 0.871539 0.949020 0.533016
Si Si7 0.280858 0.682564 0.122681
Si Si8 0.129699 0.117790 0.384921
O O1 0.885488 0.612841 0.032560
O O2 0.901850 0.811694 0.113530
O O3 0.056620 0.647491 0.080882
O O4 0.986670 0.862861 0.996196
O O5 0.097044 0.976859 0.895973
O O6 0.207849 0.400280 0.274454
O O7 0.402260 0.436758 0.231984
O O8 0.254684 0.580675 0.184500
O O9 0.263600 0.327692 0.146626
O O10 0.195209 0.253918 0.382448
O O11 0.294671 0.490541 0.379191
O O12 0.951348 0.887646 0.323609
O O13 0.762147 0.889506 0.552816
O O14 0.915904 0.894976 0.460501
#
# Coordination Sequence:
#
# PCOD9367560 Si02
#       8
#     8   4   8   8   4   8   8   8
#     4  11  26  46  70 110 140 188 242 300 366 427
#     4  12  26  45  78 111 142 190 244 302 366 436
#     4  11  26  48  70 104 144 197 240 295 354 444
#     4  11  26  45  70 107 145 186 243 295 361 432
#     4  10  24  45  78  97 140 188 242 300 366 428
#     4  11  25  47  72 103 149 186 235 311 359 418
#     4  12  26  47  71 105 144 195 241 295 361 435
#     4  11  24  45  73 106 140 185 235 306 366 423
#
# _framework density 22.731210999999998
#
# number of rings (size 3 to 8) (size 9 to 14) (size 15 to 20)
#    0.000    0.857    2.857    3.429    8.000    2.286 
#    2.571    0.000    0.000    0.000    0.000    0.000 
#    0.000    0.000    0.000    0.000    0.000    0.000 
#
# Total GULP energy -156073.977608 kJ/mol
# GULP energy per Si atom -5574.070629 kJ/mol
# Density = 2.267947 g / cm^3
# Si number density = 22.731211 Si / 1000 Ang^3
#
#
#
# Elastic Constant Matrix: (Units=GPa)
#
#
# Indices 1 2 3 4 5 6 
#
# 1 81.3951 22.2245 24.4299 0.0000 0.0000 0.0000
# 2 22.2245 127.6087 20.7239 0.0000 0.0000 0.0000
# 3 24.4299 20.7239 63.1098 0.0000 0.0000 0.0000
# 4 0.0000 0.0000 0.0000 36.8459 0.0000 0.0000
# 5 0.0000 0.0000 0.0000 0.0000 32.4229 0.0000
# 6 0.0000 0.0000 0.0000 0.0000 0.0000 22.4188
#
#
#
# Elastic Compliance Matrix: (Units=1/GPa)
#
#
# Indices 1 2 3 4 5 6 
#
# 1 0.014231 -0.001673 -0.004959 0.000000 0.000000 0.000000
# 2 -0.001673 0.008475 -0.002135 0.000000 0.000000 0.000000
# 3 -0.004959 -0.002135 0.018466 0.000000 0.000000 0.000000
# 4 0.000000 0.000000 0.000000 0.027140 0.000000 0.000000
# 5 0.000000 0.000000 0.000000 0.000000 0.030842 0.000000
# 6 0.000000 0.000000 0.000000 0.000000 0.000000 0.044605
#
#
# Mechanical properties :
#
#
# Convention : Reuss Voigt Hill
#
# Bulk Modulus (GPa) = 42.30740 45.20780 43.75760
# Shear Modulus (GPa) = 29.55532 31.98655 30.77093
#
# Velocity S-wave (km/s) = 3.60975 3.75529 3.68324
# Velocity P-wave (km/s) = 6.00218 6.22367 6.11393
#
# Compressibility (1/GPa) = 0.02363653
#
# Stress axis : x y z
#
# Youngs Moduli (GPa) = 70.26856 117.99958 54.15252
#
# Poissons Ratio (x) = 0.19742 0.26857
# Poissons Ratio (y) = 0.11757 0.11563
# Poissons Ratio (z) = 0.34849 0.25196
#
# Static dielectric constant tensor:
#      x y z
#    x 1.922620 0.000000 0.000000 
#    y 0.000000 1.823420 0.000000 
#    z 0.000000 0.000000 1.952830 
# 
# From -- ./inp_files/11585.got.cif
#   From: 2010.05.17/outbox.cif.g08.bks.cpg/sg41_6_cif.got.tgz:11585.got - 2010.06.03 18:54:24.
