data_PCOD9367636
_publ_section_title
;
Structure prediction by ZEFSAII (Michael W. Deem and Ramdas Pophale) SiO2 
 PCOD9367636
Probable space group: A B A 2
;
_chemical_formula_sum "Si O2"
_cell_formula_units_Z 60
_cell_length_a 7.704032
_cell_length_b 16.483368
_cell_length_c 19.123928
_cell_angle_alpha 90.000000
_cell_angle_beta 90.000000
_cell_angle_gamma 90.000000
_cell_volume 2428.516914
_symmetry_space_group_name_H-M "A B A 2"
_symmetry_group_IT_number 41
_symmetry_cell_setting 'orthorhombic'
loop_
_space_group_symop_operation_xyz
x,y,z
-x,-y,z
1/2-x,y,1/2+z
1/2+x,-y,1/2+z
x,1/2+y,1/2+z
-x,1/2-y,1/2+z
1/2-x,1/2+y,z
1/2+x,1/2-y,z
loop_
_atom_site_type_symbol
_atom_site_label
_atom_site_fract_x
_atom_site_fract_y
_atom_site_fract_z
Si Si1 0.775642 0.771672 0.135990
Si Si2 0.367037 0.834824 0.513242
Si Si3 0.579961 0.660083 0.227330
Si Si4 0.342134 0.561150 0.633183
Si Si5 0.175001 0.645142 0.854721
Si Si6 0.405215 0.761733 0.928512
Si Si7 0.200510 0.998802 0.783735
Si Si8 0.500000 0.000000 0.557527
O O1 0.722268 0.726465 0.207757
O O2 0.642267 0.844136 0.114975
O O3 0.949604 0.822620 0.159383
O O4 0.741835 0.700140 0.078706
O O5 0.261418 0.816129 0.443084
O O6 0.546443 0.788481 0.498031
O O7 0.420232 0.926655 0.515691
O O8 0.450944 0.671576 0.291640
O O9 0.692709 0.578705 0.251097
O O10 0.500000 0.500000 0.615494
O O11 0.318388 0.557563 0.716520
O O12 0.164318 0.527955 0.602172
O O13 0.351092 0.696595 0.868697
O O14 0.200886 0.549968 0.842674
O O15 0.058467 0.673716 0.919205
O O16 0.000000 0.000000 0.808183
#
# Coordination Sequence:
#
# PCOD9367636 Si02
#       8
#     8   8   8   8   8   8   8   4
#     4  12  25  43  78 114 153 196 255 325 414 491
#     4  11  25  48  80 109 150 209 254 344 389 472
#     4  12  26  43  75 116 152 199 255 317 415 491
#     4  11  25  42  70 113 156 192 241 313 400 494
#     4  11  24  47  75 107 154 204 256 334 380 481
#     4  10  25  50  76 109 147 203 284 311 392 468
#     4  11  26  47  69 110 163 200 249 322 403 487
#     4  12  26  50  72 112 158 198 262 326 406 470
#
# _framework density 24.706436
#
# number of rings (size 3 to 8) (size 9 to 14) (size 15 to 20)
#    0.000    0.800    1.333    5.200    7.467    2.133 
#    6.000    0.000    0.000    0.000    0.000    0.000 
#    0.000    0.000    0.000    0.000    0.000    0.000 
#
# Total GULP energy -167041.939364 kJ/mol
# GULP energy per Si atom -5568.064645 kJ/mol
# Density = 2.465020 g / cm^3
# Si number density = 24.706436 Si / 1000 Ang^3
#
#
#
# Elastic Constant Matrix: (Units=GPa)
#
#
# Indices 1 2 3 4 5 6 
#
# 1 101.1127 71.8366 9.3125 0.0000 0.0000 0.0000
# 2 71.8366 181.7890 28.5724 0.0000 0.0000 0.0000
# 3 9.3125 28.5724 22.9943 0.0000 0.0000 0.0000
# 4 0.0000 0.0000 0.0000 44.6411 0.0000 0.0000
# 5 0.0000 0.0000 0.0000 0.0000 16.5563 0.0000
# 6 0.0000 0.0000 0.0000 0.0000 0.0000 31.9839
#
#
#
# Elastic Compliance Matrix: (Units=1/GPa)
#
#
# Indices 1 2 3 4 5 6 
#
# 1 0.013790 -0.005681 0.001474 0.000000 0.000000 0.000000
# 2 -0.005681 0.009176 -0.009102 0.000000 0.000000 0.000000
# 3 0.001474 -0.009102 0.054202 0.000000 0.000000 0.000000
# 4 0.000000 0.000000 0.000000 0.022401 0.000000 0.000000
# 5 0.000000 0.000000 0.000000 0.000000 0.060400 0.000000
# 6 0.000000 0.000000 0.000000 0.000000 0.000000 0.031266
#
#
# Mechanical properties :
#
#
# Convention : Reuss Voigt Hill
#
# Bulk Modulus (GPa) = 19.78180 58.37099 39.07640
# Shear Modulus (GPa) = 21.30354 31.71456 26.50905
#
# Velocity S-wave (km/s) = 2.93962 3.58670 3.27916
# Velocity P-wave (km/s) = 4.42108 6.38981 5.49434
#
# Compressibility (1/GPa) = 0.05055152
#
# Stress axis : x y z
#
# Youngs Moduli (GPa) = 72.51392 108.97452 18.44963
#
# Poissons Ratio (x) = 0.61911 -0.02720
# Poissons Ratio (y) = 0.41197 0.16792
# Poissons Ratio (z) = -0.10692 0.99186
#
# Static dielectric constant tensor:
#      x y z
#    x 2.175160 0.000000 0.000000 
#    y 0.000000 2.076160 0.000000 
#    z 0.000000 0.000000 2.009830 
# 
# From -- ./inp_files/12002.got.cif
#   From: 2010.05.17/outbox.cif.g08.bks.cpg/sg41_7_cif.got.tgz:12002.got - 2010.06.03 18:54:24.
