data_PCOD9367468
_publ_section_title
;
Structure prediction by ZEFSAII (Michael W. Deem and Ramdas Pophale) SiO2 
 PCOD9367468
Probable space group: A B A 2
;
_chemical_formula_sum "Si O2"
_cell_formula_units_Z 56
_cell_length_a 29.328519
_cell_length_b 13.439063
_cell_length_c 5.185609
_cell_angle_alpha 90.000000
_cell_angle_beta 90.000000
_cell_angle_gamma 90.000000
_cell_volume 2043.896454
_symmetry_space_group_name_H-M "A B A 2"
_symmetry_group_IT_number 41
_symmetry_cell_setting 'orthorhombic'
loop_
_space_group_symop_operation_xyz
x,y,z
-x,-y,z
1/2-x,y,1/2+z
1/2+x,-y,1/2+z
x,1/2+y,1/2+z
-x,1/2-y,1/2+z
1/2-x,1/2+y,z
1/2+x,1/2-y,z
loop_
_atom_site_type_symbol
_atom_site_label
_atom_site_fract_x
_atom_site_fract_y
_atom_site_fract_z
Si Si1 0.229877 0.279294 0.745270
Si Si2 0.637890 0.199930 0.465166
Si Si3 0.342410 0.996054 0.180562
Si Si4 0.473500 0.280735 0.464060
Si Si5 0.921176 0.050837 0.277743
Si Si6 0.897279 0.861424 0.064029
Si Si7 0.246874 0.551064 0.842182
O O1 0.257359 0.330536 0.513239
O O2 0.176660 0.275830 0.677217
O O3 0.250972 0.171639 0.815025
O O4 0.660316 0.115611 0.286381
O O5 0.595846 0.133950 0.573441
O O6 0.625552 0.297267 0.296281
O O7 0.364895 0.076828 0.372386
O O8 0.292677 0.034169 0.086953
O O9 0.377087 0.981346 0.943503
O O10 0.508155 0.248746 0.242883
O O11 0.459330 0.395699 0.445130
O O12 0.426881 0.219890 0.417116
O O13 0.933246 0.945922 0.153755
O O14 0.218537 0.519094 0.582227
#
# Coordination Sequence:
#
# PCOD9367468 Si02
#       7
#     8   8   8   8   8   8   8
#     4  10  24  40  66 103 145 199 252 313 385 437
#     4  11  25  46  74 107 149 198 262 313 370 458
#     4  11  26  44  78 107 146 204 262 303 377 462
#     4  12  29  54  80 116 157 190 246 320 385 468
#     4  11  27  50  76 115 146 203 259 301 390 469
#     4  11  27  50  78 109 153 202 247 322 376 462
#     4  10  24  42  65 105 150 197 253 318 377 436
#
# _framework density 27.398648000000001
#
# number of rings (size 3 to 8) (size 9 to 14) (size 15 to 20)
#    0.000    1.143    1.429    1.714   20.000    1.714 
#    0.000    0.000    0.000    0.000    0.000    0.000 
#    0.000    0.000    0.000    0.000    0.000    0.000 
#
# Total GULP energy -156641.345542 kJ/mol
# GULP energy per Si atom -5594.333769 kJ/mol
# Density = 2.733629 g / cm^3
# Si number density = 27.398648 Si / 1000 Ang^3
#
#
#
# Elastic Constant Matrix: (Units=GPa)
#
#
# Indices 1 2 3 4 5 6 
#
# 1 65.4120 16.9132 11.0011 0.0000 0.0000 0.0000
# 2 16.9132 169.3061 43.8924 0.0000 0.0000 0.0000
# 3 11.0011 43.8924 187.3975 0.0000 0.0000 0.0000
# 4 0.0000 0.0000 0.0000 44.4375 0.0000 0.0000
# 5 0.0000 0.0000 0.0000 0.0000 45.2231 0.0000
# 6 0.0000 0.0000 0.0000 0.0000 0.0000 44.0125
#
#
#
# Elastic Compliance Matrix: (Units=1/GPa)
#
#
# Indices 1 2 3 4 5 6 
#
# 1 0.015755 -0.001420 -0.000592 0.000000 0.000000 0.000000
# 2 -0.001420 0.006416 -0.001419 0.000000 0.000000 0.000000
# 3 -0.000592 -0.001419 0.005703 0.000000 0.000000 0.000000
# 4 0.000000 0.000000 0.000000 0.022504 0.000000 0.000000
# 5 0.000000 0.000000 0.000000 0.000000 0.022113 0.000000
# 6 0.000000 0.000000 0.000000 0.000000 0.000000 0.022721
#
#
# Mechanical properties :
#
#
# Convention : Reuss Voigt Hill
#
# Bulk Modulus (GPa) = 47.59541 62.85879 55.22710
# Shear Modulus (GPa) = 45.83846 50.08855 47.96350
#
# Velocity S-wave (km/s) = 4.09469 4.28031 4.18853
# Velocity P-wave (km/s) = 6.30591 6.88623 6.60245
#
# Compressibility (1/GPa) = 0.02101043
#
# Stress axis : x y z
#
# Youngs Moduli (GPa) = 63.47372 155.85205 175.33148
#
# Poissons Ratio (x) = 0.22136 0.10383
# Poissons Ratio (y) = 0.09015 0.24888
# Poissons Ratio (z) = 0.03759 0.22123
#
# Static dielectric constant tensor:
#      x y z
#    x 2.168700 0.000000 0.000000 
#    y 0.000000 2.118560 0.000000 
#    z 0.000000 0.000000 2.661900 
# 
# From -- ./inp_files/1348.got.cif
#   From: 2010.05.17/outbox.cif.g08.bks.cpg/sg41_1_cif.got.tgz:1348.got - 2010.06.03 18:54:24.
