data_PCOD9367104
_publ_section_title
;
Structure prediction by ZEFSAII (Michael W. Deem and Ramdas Pophale) SiO2 
 PCOD9367104
Probable space group: A B A 2
;
_chemical_formula_sum "Si O2"
_cell_formula_units_Z 56
_cell_length_a 11.763216
_cell_length_b 11.966102
_cell_length_c 15.222851
_cell_angle_alpha 90.000000
_cell_angle_beta 90.000000
_cell_angle_gamma 90.000000
_cell_volume 2142.766109
_symmetry_space_group_name_H-M "A B A 2"
_symmetry_group_IT_number 41
_symmetry_cell_setting 'orthorhombic'
loop_
_space_group_symop_operation_xyz
x,y,z
-x,-y,z
1/2-x,y,1/2+z
1/2+x,-y,1/2+z
x,1/2+y,1/2+z
-x,1/2-y,1/2+z
1/2-x,1/2+y,z
1/2+x,1/2-y,z
loop_
_atom_site_type_symbol
_atom_site_label
_atom_site_fract_x
_atom_site_fract_y
_atom_site_fract_z
Si Si1 0.101166 0.713596 0.922590
Si Si2 0.456583 0.656032 0.785751
Si Si3 0.953636 0.316984 0.564947
Si Si4 0.000000 0.500000 0.130340
Si Si5 0.793924 0.601851 0.055166
Si Si6 0.685975 0.447748 0.928383
Si Si7 0.500000 0.000000 0.849543
Si Si8 0.116612 0.877082 0.211052
O O1 0.059939 0.796619 0.844997
O O2 0.017691 0.608774 0.906068
O O3 0.221966 0.652944 0.922036
O O4 0.064257 0.769264 0.013844
O O5 0.497694 0.605508 0.694652
O O6 0.373571 0.759449 0.761930
O O7 0.386675 0.563076 0.839967
O O8 0.860401 0.218669 0.560137
O O9 0.899138 0.414614 0.507199
O O10 0.997010 0.360308 0.658254
O O11 0.113040 0.493999 0.074150
O O12 0.740369 0.563815 0.961923
O O13 0.709213 0.599360 0.137763
O O14 0.395604 0.972575 0.784215
#
# Coordination Sequence:
#
# PCOD9367104 Si02
#       8
#     8   8   8   4   8   8   4   8
#     4  10  22  43  65  97 138 184 228 291 355 429
#     4  10  26  44  68 101 146 184 238 300 361 429
#     4  11  23  44  67 101 138 182 236 295 357 437
#     4  12  26  45  69 110 142 186 238 308 351 430
#     4  12  26  42  73 100 141 185 237 296 364 430
#     4  11  25  42  73 102 138 188 241 293 363 439
#     4  10  22  41  67  94 140 178 246 288 357 428
#     4  11  24  44  69 103 137 189 233 303 362 425
#
# _framework density 26.134443999999998
#
# number of rings (size 3 to 8) (size 9 to 14) (size 15 to 20)
#    0.000    1.143    1.429    3.429    6.000    3.429 
#    0.000    0.000    0.000    0.000    0.000    0.000 
#    0.000    0.000    0.000    0.000    0.000    0.000 
#
# Total GULP energy -156922.862639 kJ/mol
# GULP energy per Si atom -5604.387951 kJ/mol
# Density = 2.607496 g / cm^3
# Si number density = 26.134444 Si / 1000 Ang^3
#
#
#
# Elastic Constant Matrix: (Units=GPa)
#
#
# Indices 1 2 3 4 5 6 
#
# 1 100.0905 17.2321 27.9615 0.0000 0.0000 0.0000
# 2 17.2321 80.7509 22.5471 0.0000 0.0000 0.0000
# 3 27.9615 22.5471 103.8576 0.0000 0.0000 0.0000
# 4 0.0000 0.0000 0.0000 46.8194 0.0000 0.0000
# 5 0.0000 0.0000 0.0000 0.0000 34.2496 0.0000
# 6 0.0000 0.0000 0.0000 0.0000 0.0000 46.6115
#
#
#
# Elastic Compliance Matrix: (Units=1/GPa)
#
#
# Indices 1 2 3 4 5 6 
#
# 1 0.010999 -0.001618 -0.002610 0.000000 0.000000 0.000000
# 2 -0.001618 0.013421 -0.002478 0.000000 0.000000 0.000000
# 3 -0.002610 -0.002478 0.010869 0.000000 0.000000 0.000000
# 4 0.000000 0.000000 0.000000 0.021359 0.000000 0.000000
# 5 0.000000 0.000000 0.000000 0.000000 0.029197 0.000000
# 6 0.000000 0.000000 0.000000 0.000000 0.000000 0.021454
#
#
# Mechanical properties :
#
#
# Convention : Reuss Voigt Hill
#
# Bulk Modulus (GPa) = 45.71103 46.68671 46.19887
# Shear Modulus (GPa) = 39.06149 39.99999 39.53074
#
# Velocity S-wave (km/s) = 3.87025 3.91646 3.89342
# Velocity P-wave (km/s) = 6.12376 6.19310 6.15853
#
# Compressibility (1/GPa) = 0.02187656
#
# Stress axis : x y z
#
# Youngs Moduli (GPa) = 90.92001 74.51006 92.00350
#
# Poissons Ratio (x) = 0.12059 0.24011
# Poissons Ratio (y) = 0.14714 0.22798
# Poissons Ratio (z) = 0.23728 0.18463
#
# Static dielectric constant tensor:
#      x y z
#    x 2.068140 0.000000 0.000000 
#    y 0.000000 2.074320 0.000000 
#    z 0.000000 0.000000 1.951420 
# 
# From -- ./inp_files/7988.got.cif
#   From: 2010.05.17/outbox.cif.g08.bks.cpg/sg41_4_cif.got.tgz:7988.got - 2010.06.03 18:54:24.
