data_PCOD9367985
_publ_section_title
;
Structure prediction by ZEFSAII (Michael W. Deem and Ramdas Pophale) SiO2 
 PCOD9367985
Probable space group: A B A 2
;
_chemical_formula_sum "Si O2"
_cell_formula_units_Z 44
_cell_length_a 29.129810
_cell_length_b 8.446312
_cell_length_c 4.870726
_cell_angle_alpha 90.000000
_cell_angle_beta 90.000000
_cell_angle_gamma 90.000000
_cell_volume 1198.390813
_symmetry_space_group_name_H-M "A B A 2"
_symmetry_group_IT_number 41
_symmetry_cell_setting 'orthorhombic'
loop_
_space_group_symop_operation_xyz
x,y,z
-x,-y,z
1/2-x,y,1/2+z
1/2+x,-y,1/2+z
x,1/2+y,1/2+z
-x,1/2-y,1/2+z
1/2-x,1/2+y,z
1/2+x,1/2-y,z
loop_
_atom_site_type_symbol
_atom_site_label
_atom_site_fract_x
_atom_site_fract_y
_atom_site_fract_z
Si Si1 0.109161 0.186246 0.412100
Si Si2 0.000000 0.000000 0.579259
Si Si3 0.353726 0.931346 0.669057
Si Si4 0.938352 0.273259 0.440307
Si Si5 0.729374 0.314185 0.918014
Si Si6 0.187989 0.434874 0.171655
O O1 0.108366 0.076180 0.110335
O O2 0.143324 0.032882 0.498282
O O3 0.029547 0.883931 0.389270
O O4 0.963201 0.907222 0.765038
O O5 0.936650 0.745321 0.272212
O O6 0.394506 0.778132 0.727949
O O7 0.310553 0.038483 0.488497
O O8 0.351507 0.827001 0.356373
O O9 0.312464 0.830749 0.856842
O O10 0.730129 0.209266 0.230235
O O11 0.772184 0.417688 0.099811
#
# Coordination Sequence:
#
# PCOD9367985 Si02
#       6
#     8   4   8   8   8   8
#     4  12  25  45  70 102 139 183 232 292 356 430
#     4  12  28  50  76 110 148 194 244 302 364 444
#     4  12  24  43  68  99 136 179 232 289 356 427
#     4  12  27  47  74 106 145 189 240 296 364 434
#     4  12  24  42  64  94 132 176 228 286 352 424
#     4  12  24  42  66  96 132 177 228 287 352 425
#
# _framework density 36.715904999999999
#
# number of rings (size 3 to 8) (size 9 to 14) (size 15 to 20)
#    0.000    0.000    0.000   10.909    0.000    5.091 
#    0.000    0.000    0.000    0.000    0.000    0.000 
#    0.000    0.000    0.000    0.000    0.000    0.000 
#
# Total GULP energy -123585.669860 kJ/mol
# GULP energy per Si atom -5617.530448 kJ/mol
# Density = 3.663234 g / cm^3
# Si number density = 36.715905 Si / 1000 Ang^3
#
#
#
# Elastic Constant Matrix: (Units=GPa)
#
#
# Indices 1 2 3 4 5 6 
#
# 1 207.7160 42.8362 141.1805 0.0000 0.0000 0.0000
# 2 42.8362 409.6045 172.9249 0.0000 0.0000 0.0000
# 3 141.1805 172.9249 382.8179 0.0000 0.0000 0.0000
# 4 0.0000 0.0000 0.0000 131.5036 0.0000 0.0000
# 5 0.0000 0.0000 0.0000 0.0000 76.7813 0.0000
# 6 0.0000 0.0000 0.0000 0.0000 0.0000 86.9317
#
#
#
# Elastic Compliance Matrix: (Units=1/GPa)
#
#
# Indices 1 2 3 4 5 6 
#
# 1 0.006480 0.000409 -0.002575 0.000000 0.000000 0.000000
# 2 0.000409 0.003043 -0.001525 0.000000 0.000000 0.000000
# 3 -0.002575 -0.001525 0.004251 0.000000 0.000000 0.000000
# 4 0.000000 0.000000 0.000000 0.007604 0.000000 0.000000
# 5 0.000000 0.000000 0.000000 0.000000 0.013024 0.000000
# 6 0.000000 0.000000 0.000000 0.000000 0.000000 0.011503
#
#
# Mechanical properties :
#
#
# Convention : Reuss Voigt Hill
#
# Bulk Modulus (GPa) = 156.45074 190.44684 173.44879
# Shear Modulus (GPa) = 90.22612 101.92311 96.07461
#
# Velocity S-wave (km/s) = 4.96261 5.27449 5.12092
# Velocity P-wave (km/s) = 8.69139 9.43804 9.07240
#
# Compressibility (1/GPa) = 0.00639179
#
# Stress axis : x y z
#
# Youngs Moduli (GPa) = 154.32715 328.67517 235.25637
#
# Poissons Ratio (x) = -0.13452 0.60568
# Poissons Ratio (y) = -0.06316 0.35883
# Poissons Ratio (z) = 0.39732 0.50132
#
# Static dielectric constant tensor:
#      x y z
#    x 3.912410 0.000000 0.000000 
#    y 0.000000 3.381180 0.000000 
#    z 0.000000 0.000000 3.093870 
# 
# From -- ./inp_files/1303.got.cif
#   From: 2010.05.17/outbox.cif.g08.bks.cpg/sg41_1_cif.got.tgz:1303.got - 2010.06.03 18:54:24.
