data_PCOD9367354
_publ_section_title
;
Structure prediction by ZEFSAII (Michael W. Deem and Ramdas Pophale) SiO2 
 PCOD9367354
Probable space group: A B A 2
;
_chemical_formula_sum "Si O2"
_cell_formula_units_Z 40
_cell_length_a 9.462603
_cell_length_b 20.405955
_cell_length_c 8.265146
_cell_angle_alpha 90.000000
_cell_angle_beta 90.000000
_cell_angle_gamma 90.000000
_cell_volume 1595.945564
_symmetry_space_group_name_H-M "A B A 2"
_symmetry_group_IT_number 41
_symmetry_cell_setting 'orthorhombic'
loop_
_space_group_symop_operation_xyz
x,y,z
-x,-y,z
1/2-x,y,1/2+z
1/2+x,-y,1/2+z
x,1/2+y,1/2+z
-x,1/2-y,1/2+z
1/2-x,1/2+y,z
1/2+x,1/2-y,z
loop_
_atom_site_type_symbol
_atom_site_label
_atom_site_fract_x
_atom_site_fract_y
_atom_site_fract_z
Si Si1 0.576004 0.803026 0.552610
Si Si2 0.353238 0.968742 0.274453
Si Si3 0.397373 0.059218 0.710296
Si Si4 0.821938 0.237077 0.251257
Si Si5 0.618491 0.606397 0.459383
O O1 0.590156 0.878590 0.596639
O O2 0.419825 0.778501 0.596721
O O3 0.675476 0.761398 0.675959
O O4 0.618910 0.793284 0.368057
O O5 0.248922 0.939292 0.406511
O O6 0.500000 0.000000 0.321338
O O7 0.257888 0.029281 0.210361
O O8 0.383809 0.908889 0.149003
O O9 0.470119 0.083387 0.879624
O O10 0.500000 0.000000 0.663736
O O11 0.842314 0.174819 0.372404
#
# Coordination Sequence:
#
# PCOD9367354 Si02
#       5
#     8   8   8   8   8
#     4  11  24  42  68  94 130 169 214 264 320 387
#     4  11  22  38  65  92 122 169 216 260 314 375
#     4   9  22  42  61  89 129 164 203 262 318 373
#     4  11  24  43  65  96 128 170 214 264 324 382
#     4  10  23  43  61  89 133 164 206 268 316 373
#
# _framework density 25.063513
#
# number of rings (size 3 to 8) (size 9 to 14) (size 15 to 20)
#    0.000    1.600    0.000    4.200    0.000   15.200 
#    0.000    0.000    0.000    0.000    0.000    0.000 
#    0.000    0.000    0.000    0.000    0.000    0.000 
#
# Total GULP energy -111918.962792 kJ/mol
# GULP energy per Si atom -5595.948140 kJ/mol
# Density = 2.500647 g / cm^3
# Si number density = 25.063513 Si / 1000 Ang^3
#
#
#
# Elastic Constant Matrix: (Units=GPa)
#
#
# Indices 1 2 3 4 5 6 
#
# 1 100.3887 20.6871 -8.0709 0.0000 0.0000 0.0000
# 2 20.6871 89.6646 -13.0129 0.0000 0.0000 0.0000
# 3 -8.0709 -13.0129 63.6014 0.0000 0.0000 0.0000
# 4 0.0000 0.0000 0.0000 19.9666 0.0000 0.0000
# 5 0.0000 0.0000 0.0000 0.0000 -31.1270 0.0000
# 6 0.0000 0.0000 0.0000 0.0000 0.0000 14.2723
#
#
#
# Elastic Compliance Matrix: (Units=1/GPa)
#
#
# Indices 1 2 3 4 5 6 
#
# 1 0.010504 -0.002298 0.000863 0.000000 0.000000 0.000000
# 2 -0.002298 0.011997 0.002163 0.000000 0.000000 0.000000
# 3 0.000863 0.002163 0.016275 0.000000 0.000000 0.000000
# 4 0.000000 0.000000 0.000000 0.050084 0.000000 0.000000
# 5 0.000000 0.000000 0.000000 0.000000 -0.032126 0.000000
# 6 0.000000 0.000000 0.000000 0.000000 0.000000 0.070066
#
#
# Mechanical properties :
#
#
# Convention : Reuss Voigt Hill
#
# Bulk Modulus (GPa) = 24.85663 28.09570 26.47617
# Shear Modulus (GPa) = 36.03483 17.55913 26.79698
#
# Velocity S-wave (km/s) = 3.79587 2.64973 3.27335
# Velocity P-wave (km/s) = 5.39912 4.53823 4.98729
#
# Compressibility (1/GPa) = 0.04023072
#
# Stress axis : x y z
#
# Youngs Moduli (GPa) = 95.19952 83.35531 61.44418
#
# Poissons Ratio (x) = 0.19158 -0.05301
# Poissons Ratio (y) = 0.21880 -0.13290
# Poissons Ratio (z) = -0.08213 -0.18029
#
# Static dielectric constant tensor:
#      x y z
#    x 1.983750 0.000000 0.000000 
#    y 0.000000 2.033280 0.000000 
#    z 0.000000 0.000000 1.996700 
# 
# From -- ./inp_files/1693.got.cif
#   From: 2010.05.17/outbox.cif.g08.bks.cpg/sg41_1_cif.got.tgz:1693.got - 2010.06.03 18:54:24.
