data_PCOD9367759
_publ_section_title
;
Structure prediction by ZEFSAII (Michael W. Deem and Ramdas Pophale) SiO2 
 PCOD9367759
Probable space group: A B A 2
;
_chemical_formula_sum "Si O2"
_cell_formula_units_Z 48
_cell_length_a 8.329144
_cell_length_b 22.489905
_cell_length_c 11.872591
_cell_angle_alpha 90.000000
_cell_angle_beta 90.000000
_cell_angle_gamma 90.000000
_cell_volume 2223.993422
_symmetry_space_group_name_H-M "A B A 2"
_symmetry_group_IT_number 41
_symmetry_cell_setting 'orthorhombic'
loop_
_space_group_symop_operation_xyz
x,y,z
-x,-y,z
1/2-x,y,1/2+z
1/2+x,-y,1/2+z
x,1/2+y,1/2+z
-x,1/2-y,1/2+z
1/2-x,1/2+y,z
1/2+x,1/2-y,z
loop_
_atom_site_type_symbol
_atom_site_label
_atom_site_fract_x
_atom_site_fract_y
_atom_site_fract_z
Si Si1 0.317060 0.811884 0.942090
Si Si2 0.762282 0.077219 0.088921
Si Si3 0.951665 0.315309 0.483830
Si Si4 0.987344 0.133416 0.235028
Si Si5 0.684297 0.417516 0.822957
Si Si6 0.500000 0.000000 0.163954
Si Si7 0.000000 0.000000 0.966220
O O1 0.367876 0.748554 0.990527
O O2 0.430428 0.823614 0.834964
O O3 0.125526 0.808977 0.924287
O O4 0.325076 0.868600 0.026255
O O5 0.826424 0.095310 0.211480
O O6 0.927183 0.055563 0.030947
O O7 0.650866 0.020642 0.094494
O O8 0.975948 0.335218 0.614684
O O9 0.856833 0.361273 0.402696
O O10 0.141547 0.094958 0.271439
O O11 0.555208 0.438876 0.728100
O O12 0.653166 0.475958 0.897766
#
# Coordination Sequence:
#
# PCOD9367759 Si02
#       7
#     8   8   8   8   8   4   4
#     4  11  25  45  71 103 139 189 241 300 358 434
#     4  11  25  45  68 106 146 185 249 291 360 431
#     4  11  25  48  68 102 148 177 248 302 350 445
#     4  11  25  45  73 102 137 194 236 295 369 419
#     4  11  24  43  68 102 140 190 235 289 362 417
#     4  11  26  40  73 104 144 199 230 300 363 436
#     4  11  22  46  65 100 152 179 232 308 331 448
#
# _framework density 21.582796999999999
#
# number of rings (size 3 to 8) (size 9 to 14) (size 15 to 20)
#    0.000    1.000    3.333    3.000    4.667    8.000 
#    0.000    0.000    0.000    0.000    0.000    0.000 
#    0.000    0.000    0.000    0.000    0.000    0.000 
#
# Total GULP energy -133678.172314 kJ/mol
# GULP energy per Si atom -5569.923846 kJ/mol
# Density = 2.153367 g / cm^3
# Si number density = 21.582797 Si / 1000 Ang^3
#
#
#
# Elastic Constant Matrix: (Units=GPa)
#
#
# Indices 1 2 3 4 5 6 
#
# 1 93.7656 40.1838 52.0079 0.0000 0.0000 0.0000
# 2 40.1838 114.5477 52.4214 0.0000 0.0000 0.0000
# 3 52.0079 52.4214 79.5790 0.0000 0.0000 0.0000
# 4 0.0000 0.0000 0.0000 15.2960 0.0000 0.0000
# 5 0.0000 0.0000 0.0000 0.0000 100.0602 0.0000
# 6 0.0000 0.0000 0.0000 0.0000 0.0000 48.8476
#
#
#
# Elastic Compliance Matrix: (Units=1/GPa)
#
#
# Indices 1 2 3 4 5 6 
#
# 1 0.016853 -0.001248 -0.010192 0.000000 0.000000 0.000000
# 2 -0.001248 0.012590 -0.007478 0.000000 0.000000 0.000000
# 3 -0.010192 -0.007478 0.024153 0.000000 0.000000 0.000000
# 4 0.000000 0.000000 0.000000 0.065377 0.000000 0.000000
# 5 0.000000 0.000000 0.000000 0.000000 0.009994 0.000000
# 6 0.000000 0.000000 0.000000 0.000000 0.000000 0.020472
#
#
# Mechanical properties :
#
#
# Convention : Reuss Voigt Hill
#
# Bulk Modulus (GPa) = 63.45081 64.12428 63.78755
# Shear Modulus (GPa) = 25.97046 42.39270 34.18158
#
# Velocity S-wave (km/s) = 3.47262 4.43673 3.98394
# Velocity P-wave (km/s) = 6.74843 7.48474 7.12610
#
# Compressibility (1/GPa) = 0.01576024
#
# Stress axis : x y z
#
# Youngs Moduli (GPa) = 59.33778 79.42884 41.40292
#
# Poissons Ratio (x) = 0.09911 0.42197
# Poissons Ratio (y) = 0.07404 0.30961
# Poissons Ratio (z) = 0.60477 0.59396
#
# Static dielectric constant tensor:
#      x y z
#    x 1.763000 0.000000 0.000000 
#    y 0.000000 1.788280 0.000000 
#    z 0.000000 0.000000 1.883230 
# 
# From -- ./inp_files/4527.got.cif
#   From: 2010.05.17/outbox.cif.g08.bks.cpg/sg41_3_cif.got.tgz:4527.got - 2010.06.03 18:54:24.
