data_PCOD9367996
_publ_section_title
;
Structure prediction by ZEFSAII (Michael W. Deem and Ramdas Pophale) SiO2 
 PCOD9367996
Probable space group: A B A 2
;
_chemical_formula_sum "Si O2"
_cell_formula_units_Z 52
_cell_length_a 7.964742
_cell_length_b 14.120214
_cell_length_c 18.537734
_cell_angle_alpha 90.000000
_cell_angle_beta 90.000000
_cell_angle_gamma 90.000000
_cell_volume 2084.825149
_symmetry_space_group_name_H-M "A B A 2"
_symmetry_group_IT_number 41
_symmetry_cell_setting 'orthorhombic'
loop_
_space_group_symop_operation_xyz
x,y,z
-x,-y,z
1/2-x,y,1/2+z
1/2+x,-y,1/2+z
x,1/2+y,1/2+z
-x,1/2-y,1/2+z
1/2-x,1/2+y,z
1/2+x,1/2-y,z
loop_
_atom_site_type_symbol
_atom_site_label
_atom_site_fract_x
_atom_site_fract_y
_atom_site_fract_z
Si Si1 0.660496 0.435435 0.858340
Si Si2 0.000000 0.000000 0.086712
Si Si3 0.583766 0.361195 0.699388
Si Si4 0.817156 0.642880 0.696498
Si Si5 0.843687 0.430761 0.048135
Si Si6 0.146291 0.885142 0.366552
Si Si7 0.169838 0.716746 0.933253
O O1 0.500000 0.500000 0.866751
O O2 0.651988 0.400155 0.775363
O O3 0.813119 0.505124 0.880098
O O4 0.668591 0.342913 0.906769
O O5 0.842799 0.970922 0.036295
O O6 0.074100 0.917788 0.139640
O O7 0.383356 0.368677 0.689689
O O8 0.635881 0.252767 0.690213
O O9 0.658253 0.419788 0.634019
O O10 0.847055 0.618519 0.780080
O O11 0.000000 0.500000 0.028643
O O12 0.864455 0.326016 0.012683
O O13 0.285291 0.822646 0.410349
O O14 0.977006 0.831090 0.387024
#
# Coordination Sequence:
#
# PCOD9367996 Si02
#       7
#     8   4   8   8   8   8   8
#     4  12  24  45  76 109 145 203 254 327 391 467
#     4  12  28  48  84 116 156 214 264 334 416 480
#     4  12  25  47  77 114 159 202 268 337 395 478
#     4  12  25  46  78 118 156 202 269 337 399 478
#     4  12  27  54  76 115 160 211 266 326 407 486
#     4  12  25  46  74 109 153 197 261 321 397 467
#     4  12  29  49  73 111 158 203 259 325 397 492
#
# _framework density 24.942139999999998
#
# number of rings (size 3 to 8) (size 9 to 14) (size 15 to 20)
#    0.000    0.000    4.615    5.538    5.385    2.462 
#    5.538    0.000    0.000    0.000    0.000    0.000 
#    0.000    0.000    0.000    0.000    0.000    0.000 
#
# Total GULP energy -145518.302159 kJ/mol
# GULP energy per Si atom -5596.857775 kJ/mol
# Density = 2.488537 g / cm^3
# Si number density = 24.942140 Si / 1000 Ang^3
#
#
#
# Elastic Constant Matrix: (Units=GPa)
#
#
# Indices 1 2 3 4 5 6 
#
# 1 103.9535 21.7679 6.7422 0.0000 0.0000 0.0000
# 2 21.7679 165.2014 13.7201 0.0000 0.0000 0.0000
# 3 6.7422 13.7201 75.8337 0.0000 0.0000 0.0000
# 4 0.0000 0.0000 0.0000 81.8062 0.0000 0.0000
# 5 0.0000 0.0000 0.0000 0.0000 17.9138 0.0000
# 6 0.0000 0.0000 0.0000 0.0000 0.0000 43.8648
#
#
#
# Elastic Compliance Matrix: (Units=1/GPa)
#
#
# Indices 1 2 3 4 5 6 
#
# 1 0.009925 -0.001253 -0.000656 0.000000 0.000000 0.000000
# 2 -0.001253 0.006304 -0.001029 0.000000 0.000000 0.000000
# 3 -0.000656 -0.001029 0.013431 0.000000 0.000000 0.000000
# 4 0.000000 0.000000 0.000000 0.012224 0.000000 0.000000
# 5 0.000000 0.000000 0.000000 0.000000 0.055823 0.000000
# 6 0.000000 0.000000 0.000000 0.000000 0.000000 0.022797
#
#
# Mechanical properties :
#
#
# Convention : Reuss Voigt Hill
#
# Bulk Modulus (GPa) = 42.04558 47.71655 44.88107
# Shear Modulus (GPa) = 37.22789 48.90085 43.06437
#
# Velocity S-wave (km/s) = 3.86757 4.43264 4.15971
# Velocity P-wave (km/s) = 6.06943 6.73574 6.41124
#
# Compressibility (1/GPa) = 0.02378371
#
# Stress axis : x y z
#
# Youngs Moduli (GPa) = 100.75929 158.63393 74.45333
#
# Poissons Ratio (x) = 0.19881 0.04881
# Poissons Ratio (y) = 0.12628 0.07662
# Poissons Ratio (z) = 0.06606 0.16325
#
# Static dielectric constant tensor:
#      x y z
#    x 2.126050 0.000000 0.000000 
#    y 0.000000 1.954040 0.000000 
#    z 0.000000 0.000000 1.954730 
# 
# From -- ./inp_files/11177.got.cif
#   From: 2010.05.17/outbox.cif.g08.bks.cpg/sg41_6_cif.got.tgz:11177.got - 2010.06.03 18:54:24.
