data_PCOD9367369
_publ_section_title
;
Structure prediction by ZEFSAII (Michael W. Deem and Ramdas Pophale) SiO2 
 PCOD9367369
Probable space group: A B A 2
;
_chemical_formula_sum "Si O2"
_cell_formula_units_Z 48
_cell_length_a 5.634110
_cell_length_b 25.565068
_cell_length_c 12.911322
_cell_angle_alpha 90.000000
_cell_angle_beta 90.000000
_cell_angle_gamma 90.000000
_cell_volume 1859.700408
_symmetry_space_group_name_H-M "A B A 2"
_symmetry_group_IT_number 41
_symmetry_cell_setting 'orthorhombic'
loop_
_space_group_symop_operation_xyz
x,y,z
-x,-y,z
1/2-x,y,1/2+z
1/2+x,-y,1/2+z
x,1/2+y,1/2+z
-x,1/2-y,1/2+z
1/2-x,1/2+y,z
1/2+x,1/2-y,z
loop_
_atom_site_type_symbol
_atom_site_label
_atom_site_fract_x
_atom_site_fract_y
_atom_site_fract_z
Si Si1 0.341650 0.052212 0.399700
Si Si2 0.491458 0.554198 0.201421
Si Si3 0.148066 0.728252 0.481884
Si Si4 0.847640 0.733703 0.749498
Si Si5 0.195693 0.120190 0.568794
Si Si6 0.127092 0.377046 0.272152
O O1 0.158296 0.071462 0.489706
O O2 0.488378 0.106263 0.375724
O O3 0.199167 0.046684 0.292156
O O4 0.500000 0.000000 0.417410
O O5 0.500000 0.500000 0.142558
O O6 0.434303 0.601132 0.125170
O O7 0.731334 0.569780 0.254403
O O8 0.366783 0.768142 0.511772
O O9 0.133660 0.734089 0.356797
O O10 0.271237 0.674183 0.511793
O O11 0.606372 0.756908 0.698691
O O12 0.795778 0.673439 0.777743
O O13 0.024032 0.128998 0.666834
#
# Coordination Sequence:
#
# PCOD9367369 Si02
#       6
#     8   8   8   8   8   8
#     4  11  23  47  73 109 143 200 258 317 392 464
#     4  11  25  48  71 106 151 192 251 318 391 466
#     4  10  23  43  69 106 151 193 253 312 374 458
#     4  10  23  43  73 104 147 198 250 307 376 453
#     4  11  27  43  74 109 150 198 261 317 389 461
#     4  11  26  45  74 106 154 202 249 319 391 462
#
# _framework density 25.810608999999999
#
# number of rings (size 3 to 8) (size 9 to 14) (size 15 to 20)
#    0.000    1.333    1.667    2.500   11.667    2.667 
#    3.000    0.000    0.000    0.000    0.000    0.000 
#    0.000    0.000    0.000    0.000    0.000    0.000 
#
# Total GULP energy -133985.066076 kJ/mol
# GULP energy per Si atom -5582.711086 kJ/mol
# Density = 2.575186 g / cm^3
# Si number density = 25.810609 Si / 1000 Ang^3
#
#
#
# Elastic Constant Matrix: (Units=GPa)
#
#
# Indices 1 2 3 4 5 6 
#
# 1 111.7629 8.0924 9.5160 0.0000 0.0000 0.0000
# 2 8.0924 108.3581 16.8445 0.0000 0.0000 0.0000
# 3 9.5160 16.8445 88.5390 0.0000 0.0000 0.0000
# 4 0.0000 0.0000 0.0000 34.1565 0.0000 0.0000
# 5 0.0000 0.0000 0.0000 0.0000 20.9654 0.0000
# 6 0.0000 0.0000 0.0000 0.0000 0.0000 34.3057
#
#
#
# Elastic Compliance Matrix: (Units=1/GPa)
#
#
# Indices 1 2 3 4 5 6 
#
# 1 0.009061 -0.000541 -0.000871 0.000000 0.000000 0.000000
# 2 -0.000541 0.009542 -0.001757 0.000000 0.000000 0.000000
# 3 -0.000871 -0.001757 0.011722 0.000000 0.000000 0.000000
# 4 0.000000 0.000000 0.000000 0.029277 0.000000 0.000000
# 5 0.000000 0.000000 0.000000 0.000000 0.047698 0.000000
# 6 0.000000 0.000000 0.000000 0.000000 0.000000 0.029150
#
#
# Mechanical properties :
#
#
# Convention : Reuss Voigt Hill
#
# Bulk Modulus (GPa) = 41.68979 41.95174 41.82077
# Shear Modulus (GPa) = 33.15998 36.16599 34.66299
#
# Velocity S-wave (km/s) = 3.58822 3.74733 3.66864
# Velocity P-wave (km/s) = 5.77532 5.91712 5.84665
#
# Compressibility (1/GPa) = 0.02398669
#
# Stress axis : x y z
#
# Youngs Moduli (GPa) = 110.36485 104.79709 85.30703
#
# Poissons Ratio (x) = 0.05673 0.07429
# Poissons Ratio (y) = 0.05974 0.14990
# Poissons Ratio (z) = 0.09611 0.18415
#
# Static dielectric constant tensor:
#      x y z
#    x 2.076640 0.000000 0.000000 
#    y 0.000000 2.006310 0.000000 
#    z 0.000000 0.000000 2.112890 
# 
# From -- ./inp_files/6877.got.cif
#   From: 2010.05.17/outbox.cif.g08.bks.cpg/sg41_4_cif.got.tgz:6877.got - 2010.06.03 18:54:24.
