data_PCOD9367856
_publ_section_title
;
Structure prediction by ZEFSAII (Michael W. Deem and Ramdas Pophale) SiO2 
 PCOD9367856
Probable space group: A B A 2
;
_chemical_formula_sum "Si O2"
_cell_formula_units_Z 48
_cell_length_a 20.568388
_cell_length_b 9.379299
_cell_length_c 10.470053
_cell_angle_alpha 90.000000
_cell_angle_beta 90.000000
_cell_angle_gamma 90.000000
_cell_volume 2019.851853
_symmetry_space_group_name_H-M "A B A 2"
_symmetry_group_IT_number 41
_symmetry_cell_setting 'orthorhombic'
loop_
_space_group_symop_operation_xyz
x,y,z
-x,-y,z
1/2-x,y,1/2+z
1/2+x,-y,1/2+z
x,1/2+y,1/2+z
-x,1/2-y,1/2+z
1/2-x,1/2+y,z
1/2+x,1/2-y,z
loop_
_atom_site_type_symbol
_atom_site_label
_atom_site_fract_x
_atom_site_fract_y
_atom_site_fract_z
Si Si1 0.500000 0.500000 0.397730
Si Si2 0.000000 0.000000 0.061152
Si Si3 0.881234 0.355060 0.999373
Si Si4 0.187280 0.839191 0.518348
Si Si5 0.943961 0.212341 0.213388
Si Si6 0.392518 0.583004 0.893940
Si Si7 0.697387 0.163301 0.312016
O O1 0.542452 0.390132 0.477854
O O2 0.555282 0.580259 0.313206
O O3 0.995253 0.849696 0.135401
O O4 0.933772 0.015195 0.986664
O O5 0.845971 0.505131 0.024106
O O6 0.883021 0.250557 0.122854
O O7 0.849985 0.280713 0.876236
O O8 0.140167 0.712366 0.470930
O O9 0.242237 0.843203 0.409037
O O10 0.211370 0.807055 0.663090
O O11 0.946556 0.351411 0.299193
O O12 0.339385 0.488159 0.823806
#
# Coordination Sequence:
#
# PCOD9367856 Si02
#       7
#     4   4   8   8   8   8   8
#     4  11  26  43  72 114 155 190 229 302 369 442
#     4  11  26  43  72 114 155 190 229 302 369 442
#     4  12  26  47  75 109 147 192 246 300 367 441
#     4  12  30  49  76 105 144 196 253 311 364 433
#     4  11  24  43  72 110 147 189 236 289 365 441
#     4  12  26  47  75 109 147 192 246 300 367 441
#     4  12  30  49  76 105 144 196 253 311 364 433
#
# _framework density 23.764119000000001
#
# number of rings (size 3 to 8) (size 9 to 14) (size 15 to 20)
#    0.000    0.333    5.000    2.000    7.000    4.667 
#    0.000    0.000    0.000    0.000    0.000    0.000 
#    0.000    0.000    0.000    0.000    0.000    0.000 
#
# Total GULP energy -133884.598888 kJ/mol
# GULP energy per Si atom -5578.524954 kJ/mol
# Density = 2.371003 g / cm^3
# Si number density = 23.764119 Si / 1000 Ang^3
#
#
#
# Elastic Constant Matrix: (Units=GPa)
#
#
# Indices 1 2 3 4 5 6 
#
# 1 88.8461 35.4872 45.7595 0.0000 0.0000 0.0000
# 2 35.4872 104.5220 40.9656 0.0000 0.0000 0.0000
# 3 45.7595 40.9656 125.3129 0.0000 0.0000 0.0000
# 4 0.0000 0.0000 0.0000 10.2294 0.0000 0.0000
# 5 0.0000 0.0000 0.0000 0.0000 20.4315 0.0000
# 6 0.0000 0.0000 0.0000 0.0000 0.0000 31.8853
#
#
#
# Elastic Compliance Matrix: (Units=1/GPa)
#
#
# Indices 1 2 3 4 5 6 
#
# 1 0.014812 -0.003337 -0.004318 0.000000 0.000000 0.000000
# 2 -0.003337 0.011725 -0.002615 0.000000 0.000000 0.000000
# 3 -0.004318 -0.002615 0.010412 0.000000 0.000000 0.000000
# 4 0.000000 0.000000 0.000000 0.097757 0.000000 0.000000
# 5 0.000000 0.000000 0.000000 0.000000 0.048944 0.000000
# 6 0.000000 0.000000 0.000000 0.000000 0.000000 0.031362
#
#
# Mechanical properties :
#
#
# Convention : Reuss Voigt Hill
#
# Bulk Modulus (GPa) = 60.93794 62.56729 61.75262
# Shear Modulus (GPa) = 20.74509 25.60716 23.17613
#
# Velocity S-wave (km/s) = 2.95779 3.28618 3.12630
# Velocity P-wave (km/s) = 6.11255 6.38625 6.25090
#
# Compressibility (1/GPa) = 0.01641014
#
# Stress axis : x y z
#
# Youngs Moduli (GPa) = 67.51226 85.28834 96.04735
#
# Poissons Ratio (x) = 0.28457 0.41474
# Poissons Ratio (y) = 0.22526 0.25112
# Poissons Ratio (z) = 0.29152 0.22299
#
# Static dielectric constant tensor:
#      x y z
#    x 1.852580 0.000000 0.000000 
#    y 0.000000 1.854010 0.000000 
#    z 0.000000 0.000000 2.013980 
# 
# From -- ./inp_files/6415.got.cif
#   From: 2010.05.17/outbox.cif.g08.bks.cpg/sg41_4_cif.got.tgz:6415.got - 2010.06.03 18:54:24.
