data_PCOD9367743
_publ_section_title
;
Structure prediction by ZEFSAII (Michael W. Deem and Ramdas Pophale) SiO2 
 PCOD9367743
Probable space group: A B A 2
;
_chemical_formula_sum "Si O2"
_cell_formula_units_Z 40
_cell_length_a 4.866356
_cell_length_b 24.208361
_cell_length_c 14.750385
_cell_angle_alpha 90.000000
_cell_angle_beta 90.000000
_cell_angle_gamma 90.000000
_cell_volume 1737.691272
_symmetry_space_group_name_H-M "A B A 2"
_symmetry_group_IT_number 41
_symmetry_cell_setting 'orthorhombic'
loop_
_space_group_symop_operation_xyz
x,y,z
-x,-y,z
1/2-x,y,1/2+z
1/2+x,-y,1/2+z
x,1/2+y,1/2+z
-x,1/2-y,1/2+z
1/2-x,1/2+y,z
1/2+x,1/2-y,z
loop_
_atom_site_type_symbol
_atom_site_label
_atom_site_fract_x
_atom_site_fract_y
_atom_site_fract_z
Si Si1 0.849456 0.125748 0.507560
Si Si2 0.844325 0.945626 0.960585
Si Si3 0.928530 0.211514 0.356081
Si Si4 0.844324 0.445626 0.251577
Si Si5 0.150545 0.374252 0.704601
O O1 0.579029 0.100777 0.461312
O O2 0.750000 0.144451 0.606081
O O3 0.079339 0.077574 0.512345
O O4 0.969226 0.173531 0.444273
O O5 0.759167 0.956517 0.856081
O O6 0.000000 0.000000 0.996173
O O7 0.124265 0.264073 0.356081
O O8 0.969226 0.173531 0.267889
O O9 0.579337 0.422427 0.199817
O O10 0.000000 0.500000 0.215988
O O11 0.079027 0.399223 0.250849
#
# Coordination Sequence:
#
# PCOD9367743 Si02
#       5
#     8   8   8   8   8
#     4  12  25  44  70 104 140 181 233 289 347 414
#     4  11  22  42  71 102 141 185 227 275 343 422
#     4  12  26  46  71  96 137 182 238 300 356 402
#     4  11  22  42  71 102 141 185 227 275 343 422
#     4  12  25  44  70 104 140 181 233 289 347 414
#
# _framework density 23.01905
#
# number of rings (size 3 to 8) (size 9 to 14) (size 15 to 20)
#    0.000    0.400    4.000    4.800    0.000    8.000 
#    0.000    0.000    0.000    0.000    0.000    0.000 
#    0.000    0.000    0.000    0.000    0.000    0.000 
#
# Total GULP energy -112005.996419 kJ/mol
# GULP energy per Si atom -5600.299821 kJ/mol
# Density = 2.296666 g / cm^3
# Si number density = 23.019050 Si / 1000 Ang^3
#
#
#
# Elastic Constant Matrix: (Units=GPa)
#
#
# Indices 1 2 3 4 5 6 
#
# 1 102.1007 11.0967 17.2520 0.0000 0.0000 0.0000
# 2 11.0967 87.5857 46.3407 0.0000 0.0000 0.0000
# 3 17.2520 46.3407 136.8576 0.0000 0.0000 0.0000
# 4 0.0000 0.0000 0.0000 3.2869 0.0000 0.0000
# 5 0.0000 0.0000 0.0000 0.0000 10.5770 0.0000
# 6 0.0000 0.0000 0.0000 0.0000 0.0000 55.6021
#
#
#
# Elastic Compliance Matrix: (Units=1/GPa)
#
#
# Indices 1 2 3 4 5 6 
#
# 1 0.010046 -0.000734 -0.001018 0.000000 0.000000 0.000000
# 2 -0.000734 0.013963 -0.004635 0.000000 0.000000 0.000000
# 3 -0.001018 -0.004635 0.009005 0.000000 0.000000 0.000000
# 4 0.000000 0.000000 0.000000 0.304237 0.000000 0.000000
# 5 0.000000 0.000000 0.000000 0.000000 0.094545 0.000000
# 6 0.000000 0.000000 0.000000 0.000000 0.000000 0.017985
#
#
# Mechanical properties :
#
#
# Convention : Reuss Voigt Hill
#
# Bulk Modulus (GPa) = 49.40987 52.88030 51.14509
# Shear Modulus (GPa) = 10.65412 30.68352 20.66882
#
# Velocity S-wave (km/s) = 2.15370 3.65494 2.99975
# Velocity P-wave (km/s) = 5.26270 6.39012 5.85362
#
# Compressibility (1/GPa) = 0.02023887
#
# Stress axis : x y z
#
# Youngs Moduli (GPa) = 99.54184 71.61809 111.05291
#
# Poissons Ratio (x) = 0.05259 0.11302
# Poissons Ratio (y) = 0.07309 0.51477
# Poissons Ratio (z) = 0.10131 0.33198
#
# Static dielectric constant tensor:
#      x y z
#    x 1.801590 0.000000 0.000000 
#    y 0.000000 1.819110 0.000000 
#    z 0.000000 0.000000 1.880930 
# 
# From -- ./inp_files/6825.got.cif
#   From: 2010.05.17/outbox.cif.g08.bks.cpg/sg41_4_cif.got.tgz:6825.got - 2010.06.03 18:54:24.
