data_PCOD9367076
_publ_section_title
;
Structure prediction by ZEFSAII (Michael W. Deem and Ramdas Pophale) SiO2 
 PCOD9367076
Probable space group: A B A 2
;
_chemical_formula_sum "Si O2"
_cell_formula_units_Z 64
_cell_length_a 14.988654
_cell_length_b 14.910307
_cell_length_c 11.264031
_cell_angle_alpha 90.000000
_cell_angle_beta 90.000000
_cell_angle_gamma 90.000000
_cell_volume 2517.346841
_symmetry_space_group_name_H-M "A B A 2"
_symmetry_group_IT_number 41
_symmetry_cell_setting 'orthorhombic'
loop_
_space_group_symop_operation_xyz
x,y,z
-x,-y,z
1/2-x,y,1/2+z
1/2+x,-y,1/2+z
x,1/2+y,1/2+z
-x,1/2-y,1/2+z
1/2-x,1/2+y,z
1/2+x,1/2-y,z
loop_
_atom_site_type_symbol
_atom_site_label
_atom_site_fract_x
_atom_site_fract_y
_atom_site_fract_z
Si Si1 0.809380 0.128859 0.164570
Si Si2 0.903334 0.430370 0.396874
Si Si3 0.877579 0.114866 0.782552
Si Si4 0.569011 0.582773 0.515250
Si Si5 0.402952 0.260902 0.344215
Si Si6 0.703180 0.752480 0.947953
Si Si7 0.091648 0.543865 0.658116
Si Si8 0.690670 0.940080 0.898975
O O1 0.728520 0.102333 0.250738
O O2 0.891627 0.179440 0.227357
O O3 0.845969 0.037131 0.113221
O O4 0.778236 0.195625 0.064431
O O5 0.921341 0.532560 0.354725
O O6 0.936115 0.340874 0.327828
O O7 0.924735 0.405701 0.534799
O O8 0.796010 0.436337 0.383018
O O9 0.917452 0.113186 0.650359
O O10 0.868942 0.202760 0.864604
O O11 0.500000 0.500000 0.510233
O O12 0.551506 0.671852 0.437979
O O13 0.654807 0.531640 0.456697
O O14 0.299318 0.247008 0.383703
O O15 0.672211 0.852602 0.979301
O O16 0.142209 0.580583 0.772976
O O17 0.000000 0.500000 0.701195
#
# Coordination Sequence:
#
# PCOD9367076 Si02
#       8
#     8   8   8   8   8   8   8   8
#     4  11  20  42  67  92 134 177 223 287 336 417
#     4  11  24  42  72  99 132 177 232 292 348 420
#     4  11  22  41  66  98 132 174 230 285 345 409
#     4  12  25  44  63  93 140 182 221 286 357 420
#     4  10  23  39  67 100 129 174 231 285 342 415
#     4  10  22  40  68 101 131 170 233 292 339 407
#     4  12  25  44  67  99 139 186 231 291 363 427
#     4  11  24  42  71 100 128 183 237 278 346 431
#
# _framework density 25.423593
#
# number of rings (size 3 to 8) (size 9 to 14) (size 15 to 20)
#    0.000    1.000    5.000    1.875    3.500    2.500 
#    2.250    0.000    0.000    0.000    0.000    0.000 
#    0.000    0.000    0.000    0.000    0.000    0.000 
#
# Total GULP energy -178856.777167 kJ/mol
# GULP energy per Si atom -5589.274286 kJ/mol
# Density = 2.536573 g / cm^3
# Si number density = 25.423593 Si / 1000 Ang^3
#
#
#
# Elastic Constant Matrix: (Units=GPa)
#
#
# Indices 1 2 3 4 5 6 
#
# 1 39.2578 3.0457 -12.4826 0.0000 0.0000 0.0000
# 2 3.0457 149.3947 21.4500 0.0000 0.0000 0.0000
# 3 -12.4826 21.4500 83.5161 0.0000 0.0000 0.0000
# 4 0.0000 0.0000 0.0000 28.6519 0.0000 0.0000
# 5 0.0000 0.0000 0.0000 0.0000 26.0518 0.0000
# 6 0.0000 0.0000 0.0000 0.0000 0.0000 25.7076
#
#
#
# Elastic Compliance Matrix: (Units=1/GPa)
#
#
# Indices 1 2 3 4 5 6 
#
# 1 0.026939 -0.001170 0.004327 0.000000 0.000000 0.000000
# 2 -0.001170 0.007001 -0.001973 0.000000 0.000000 0.000000
# 3 0.004327 -0.001973 0.013127 0.000000 0.000000 0.000000
# 4 0.000000 0.000000 0.000000 0.034902 0.000000 0.000000
# 5 0.000000 0.000000 0.000000 0.000000 0.038385 0.000000
# 6 0.000000 0.000000 0.000000 0.000000 0.000000 0.038899
#
#
# Mechanical properties :
#
#
# Convention : Reuss Voigt Hill
#
# Bulk Modulus (GPa) = 20.22878 32.91053 26.56965
# Shear Modulus (GPa) = 28.84103 33.42596 31.13349
#
# Velocity S-wave (km/s) = 3.37177 3.62990 3.50321
# Velocity P-wave (km/s) = 4.80962 5.52641 5.18042
#
# Compressibility (1/GPa) = 0.04943451
#
# Stress axis : x y z
#
# Youngs Moduli (GPa) = 37.12046 142.84027 76.17759
#
# Poissons Ratio (x) = 0.16719 -0.32963
# Poissons Ratio (y) = 0.04345 0.15030
# Poissons Ratio (z) = -0.16062 0.28183
#
# Static dielectric constant tensor:
#      x y z
#    x 2.212190 0.000000 0.000000 
#    y 0.000000 2.019450 0.000000 
#    z 0.000000 0.000000 1.946400 
# 
# From -- ./inp_files/6022.got.cif
#   From: 2010.05.17/outbox.cif.g08.bks.cpg/sg41_4_cif.got.tgz:6022.got - 2010.06.03 18:54:24.
