data_PCOD9367870
_publ_section_title
;
Structure prediction by ZEFSAII (Michael W. Deem and Ramdas Pophale) SiO2 
 PCOD9367870
Probable space group: A B A 2
;
_chemical_formula_sum "Si O2"
_cell_formula_units_Z 64
_cell_length_a 18.006480
_cell_length_b 18.534250
_cell_length_c 8.281340
_cell_angle_alpha 90.000000
_cell_angle_beta 90.000000
_cell_angle_gamma 90.000000
_cell_volume 2763.786271
_symmetry_space_group_name_H-M "A B A 2"
_symmetry_group_IT_number 41
_symmetry_cell_setting 'orthorhombic'
loop_
_space_group_symop_operation_xyz
x,y,z
-x,-y,z
1/2-x,y,1/2+z
1/2+x,-y,1/2+z
x,1/2+y,1/2+z
-x,1/2-y,1/2+z
1/2-x,1/2+y,z
1/2+x,1/2-y,z
loop_
_atom_site_type_symbol
_atom_site_label
_atom_site_fract_x
_atom_site_fract_y
_atom_site_fract_z
Si Si1 0.828538 0.731917 0.294820
Si Si2 0.026468 0.918323 0.542270
Si Si3 0.465890 0.810407 0.483564
Si Si4 0.739136 0.324062 0.581384
Si Si5 0.580814 0.312079 0.724133
Si Si6 0.324392 0.927601 0.237038
Si Si7 0.293896 0.512115 0.052047
Si Si8 0.566684 0.555944 0.190541
O O1 0.913812 0.721490 0.342179
O O2 0.805611 0.770806 0.131667
O O3 0.796907 0.787549 0.425457
O O4 0.795642 0.650712 0.297171
O O5 0.041145 0.127323 0.613478
O O6 0.095142 0.913328 0.663132
O O7 0.054059 0.902661 0.360118
O O8 0.000000 0.000000 0.536140
O O9 0.448497 0.760022 0.636025
O O10 0.546982 0.815678 0.404269
O O11 0.437337 0.887872 0.543590
O O12 0.669388 0.320496 0.707497
O O13 0.768263 0.405256 0.561306
O O14 0.322887 0.987485 0.377227
O O15 0.274424 0.960445 0.095780
O O16 0.357846 0.490076 0.179814
O O17 0.500000 0.500000 0.171208
#
# Coordination Sequence:
#
# PCOD9367870 Si02
#       8
#     8   8   8   8   8   8   8   8
#     4  11  24  47  67 105 142 186 234 299 352 434
#     4  11  24  45  72 105 140 187 241 305 368 436
#     4  11  24  47  70 103 143 191 247 294 369 443
#     4  11  27  44  73 104 148 183 242 301 363 430
#     4  11  24  45  72 104 143 191 242 299 366 441
#     4  12  24  45  75 101 145 190 240 292 365 437
#     4  12  25  45  71 109 139 191 236 301 363 433
#     4  11  26  46  71 103 144 186 247 308 363 437
#
# _framework density 23.156638000000001
#
# number of rings (size 3 to 8) (size 9 to 14) (size 15 to 20)
#    0.000    0.750    2.500    3.750    1.750   11.000 
#    2.250    0.000    0.000    0.000    0.000    0.000 
#    0.000    0.000    0.000    0.000    0.000    0.000 
#
# Total GULP energy -178993.868340 kJ/mol
# GULP energy per Si atom -5593.558386 kJ/mol
# Density = 2.310393 g / cm^3
# Si number density = 23.156638 Si / 1000 Ang^3
#
#
#
# Elastic Constant Matrix: (Units=GPa)
#
#
# Indices 1 2 3 4 5 6 
#
# 1 87.2175 37.8900 45.8422 0.0000 0.0000 0.0000
# 2 37.8900 136.0839 13.8528 0.0000 0.0000 0.0000
# 3 45.8422 13.8528 39.2819 0.0000 0.0000 0.0000
# 4 0.0000 0.0000 0.0000 0.2205 0.0000 0.0000
# 5 0.0000 0.0000 0.0000 0.0000 11.3858 0.0000
# 6 0.0000 0.0000 0.0000 0.0000 0.0000 23.8394
#
#
#
# Elastic Compliance Matrix: (Units=1/GPa)
#
#
# Indices 1 2 3 4 5 6 
#
# 1 0.033198 -0.005497 -0.036804 0.000000 0.000000 0.000000
# 2 -0.005497 0.008532 0.003406 0.000000 0.000000 0.000000
# 3 -0.036804 0.003406 0.067206 0.000000 0.000000 0.000000
# 4 0.000000 0.000000 0.000000 4.535537 0.000000 0.000000
# 5 0.000000 0.000000 0.000000 0.000000 0.087828 0.000000
# 6 0.000000 0.000000 0.000000 0.000000 0.000000 0.041947
#
#
# Mechanical properties :
#
#
# Convention : Reuss Voigt Hill
#
# Bulk Modulus (GPa) = 32.10584 50.86148 41.48366
# Shear Modulus (GPa) = 1.02829 18.08903 9.55866
#
# Velocity S-wave (km/s) = 0.66710 2.79796 2.03391
# Velocity P-wave (km/s) = 3.80632 5.69648 4.84448
#
# Compressibility (1/GPa) = 0.03114698
#
# Stress axis : x y z
#
# Youngs Moduli (GPa) = 30.12238 117.20316 14.87964
#
# Poissons Ratio (x) = 0.64425 0.54763
# Poissons Ratio (y) = 0.16558 -0.05068
# Poissons Ratio (z) = 1.10861 -0.39919
#
# Static dielectric constant tensor:
#      x y z
#    x 2.187300 0.000000 0.000000 
#    y 0.000000 1.885990 0.000000 
#    z 0.000000 0.000000 1.919310 
# 
# From -- ./inp_files/3512.got.cif
#   From: 2010.05.17/outbox.cif.g08.bks.cpg/sg41_2_cif.got.tgz:3512.got - 2010.06.03 18:54:24.
