data_PCOD9367670
_publ_section_title
;
Structure prediction by ZEFSAII (Michael W. Deem and Ramdas Pophale) SiO2 
 PCOD9367670
Probable space group: A B A 2
;
_chemical_formula_sum "Si O2"
_cell_formula_units_Z 32
_cell_length_a 8.278038
_cell_length_b 10.000198
_cell_length_c 15.946888
_cell_angle_alpha 90.000000
_cell_angle_beta 90.000000
_cell_angle_gamma 90.000000
_cell_volume 1320.115586
_symmetry_space_group_name_H-M "A B A 2"
_symmetry_group_IT_number 41
_symmetry_cell_setting 'orthorhombic'
loop_
_space_group_symop_operation_xyz
x,y,z
-x,-y,z
1/2-x,y,1/2+z
1/2+x,-y,1/2+z
x,1/2+y,1/2+z
-x,1/2-y,1/2+z
1/2-x,1/2+y,z
1/2+x,1/2-y,z
loop_
_atom_site_type_symbol
_atom_site_label
_atom_site_fract_x
_atom_site_fract_y
_atom_site_fract_z
Si Si1 0.876227 0.379109 0.687780
Si Si2 0.314215 0.845293 0.412877
Si Si3 0.330805 0.577234 0.523210
Si Si4 0.409195 0.197815 0.292276
O O1 0.774895 0.376474 0.602634
O O2 0.740215 0.388351 0.759742
O O3 0.000000 0.500000 0.685152
O O4 0.985796 0.252183 0.713882
O O5 0.348126 0.709684 0.466250
O O6 0.468961 0.866623 0.356169
O O7 0.170158 0.817003 0.346769
O O8 0.270067 0.966064 0.472878
O O9 0.500000 0.500000 0.543551
#
# Coordination Sequence:
#
# PCOD9367670 Si02
#       4
#     8   8   8   8
#     4  11  29  50  79 115 161 209 267 329 411 472
#     4  11  26  51  81 114 160 212 272 332 397 480
#     4  12  29  51  80 121 165 213 268 332 408 486
#     4  10  26  51  81 112 158 209 273 331 397 474
#
# _framework density 24.240300000000001
#
# number of rings (size 3 to 8) (size 9 to 14) (size 15 to 20)
#    0.000    1.000    2.500    0.000   17.500    2.000 
#    4.500    0.000    0.000    0.000    0.000    0.000 
#    0.000    0.000    0.000    0.000    0.000    0.000 
#
# Total GULP energy -89641.215394 kJ/mol
# GULP energy per Si atom -5602.575962 kJ/mol
# Density = 2.418513 g / cm^3
# Si number density = 24.240300 Si / 1000 Ang^3
#
#
#
# Elastic Constant Matrix: (Units=GPa)
#
#
# Indices 1 2 3 4 5 6 
#
# 1 171.7624 47.4222 71.8510 0.0000 0.0000 0.0000
# 2 47.4222 132.6897 59.7442 0.0000 0.0000 0.0000
# 3 71.8510 59.7442 138.7725 0.0000 0.0000 0.0000
# 4 0.0000 0.0000 0.0000 34.2941 0.0000 0.0000
# 5 0.0000 0.0000 0.0000 0.0000 8.5225 0.0000
# 6 0.0000 0.0000 0.0000 0.0000 0.0000 20.6926
#
#
#
# Elastic Compliance Matrix: (Units=1/GPa)
#
#
# Indices 1 2 3 4 5 6 
#
# 1 0.007575 -0.001168 -0.003419 0.000000 0.000000 0.000000
# 2 -0.001168 0.009529 -0.003498 0.000000 0.000000 0.000000
# 3 -0.003419 -0.003498 0.010482 0.000000 0.000000 0.000000
# 4 0.000000 0.000000 0.000000 0.029160 0.000000 0.000000
# 5 0.000000 0.000000 0.000000 0.000000 0.117337 0.000000
# 6 0.000000 0.000000 0.000000 0.000000 0.000000 0.048326
#
#
# Mechanical properties :
#
#
# Convention : Reuss Voigt Hill
#
# Bulk Modulus (GPa) = 87.59310 89.02882 88.31096
# Shear Modulus (GPa) = 20.62855 30.31564 25.47210
#
# Velocity S-wave (km/s) = 2.92036 3.54026 3.24515
# Velocity P-wave (km/s) = 6.89820 7.31564 7.10998
#
# Compressibility (1/GPa) = 0.01141642
#
# Stress axis : x y z
#
# Youngs Moduli (GPa) = 132.01898 104.94810 95.40007
#
# Poissons Ratio (x) = 0.12254 0.32619
# Poissons Ratio (y) = 0.15415 0.33368
# Poissons Ratio (z) = 0.45140 0.36707
#
# Static dielectric constant tensor:
#      x y z
#    x 1.959910 0.000000 0.000000 
#    y 0.000000 1.915760 0.000000 
#    z 0.000000 0.000000 1.932040 
# 
# From -- ./inp_files/7064.got.cif
#   From: 2010.05.17/outbox.cif.g08.bks.cpg/sg41_4_cif.got.tgz:7064.got - 2010.06.03 18:54:24.
