data_PCOD9367143
_publ_section_title
;
Structure prediction by ZEFSAII (Michael W. Deem and Ramdas Pophale) SiO2 
 PCOD9367143
Probable space group: A B A 2
;
_chemical_formula_sum "Si O2"
_cell_formula_units_Z 60
_cell_length_a 11.881189
_cell_length_b 13.965772
_cell_length_c 17.743663
_cell_angle_alpha 90.000000
_cell_angle_beta 90.000000
_cell_angle_gamma 90.000000
_cell_volume 2944.205588
_symmetry_space_group_name_H-M "A B A 2"
_symmetry_group_IT_number 41
_symmetry_cell_setting 'orthorhombic'
loop_
_space_group_symop_operation_xyz
x,y,z
-x,-y,z
1/2-x,y,1/2+z
1/2+x,-y,1/2+z
x,1/2+y,1/2+z
-x,1/2-y,1/2+z
1/2-x,1/2+y,z
1/2+x,1/2-y,z
loop_
_atom_site_type_symbol
_atom_site_label
_atom_site_fract_x
_atom_site_fract_y
_atom_site_fract_z
Si Si1 0.266486 0.414838 0.585430
Si Si2 0.426801 0.805040 0.511564
Si Si3 0.083030 0.350683 0.952770
Si Si4 0.866885 0.524023 0.243175
Si Si5 0.500000 0.000000 0.832817
Si Si6 0.591749 0.923328 0.605894
Si Si7 0.181733 0.128445 0.254696
Si Si8 0.702789 0.687292 0.860165
O O1 0.174950 0.328546 0.570512
O O2 0.350957 0.408362 0.516450
O O3 0.330608 0.423329 0.664843
O O4 0.194517 0.511887 0.579648
O O5 0.483748 0.702823 0.497506
O O6 0.530043 0.869505 0.539146
O O7 0.382135 0.829888 0.429089
O O8 0.179354 0.294054 0.904935
O O9 0.035037 0.415770 0.887754
O O10 0.802430 0.422078 0.246909
O O11 0.815497 0.594188 0.307505
O O12 0.000000 0.500000 0.248391
O O13 0.398124 0.043724 0.785643
O O14 0.632126 0.852264 0.671363
O O15 0.500000 0.000000 0.635873
O O16 0.179805 0.219981 0.308484
#
# Coordination Sequence:
#
# PCOD9367143 Si02
#       8
#     8   8   8   8   4   8   8   8
#     4   9  23  45  61  99 134 171 234 282 353 425
#     4  10  22  42  67  97 132 177 232 282 349 429
#     4  11  24  41  64  96 134 178 223 288 354 420
#     4  11  26  47  68 102 144 186 237 299 354 425
#     4  12  22  42  68  92 140 176 224 290 348 422
#     4   9  19  40  69  93 128 180 224 276 347 417
#     4  11  23  43  70 101 136 182 229 295 357 418
#     4  11  25  43  66 104 136 181 240 287 355 430
#
# _framework density 20.379011999999999
#
# number of rings (size 3 to 8) (size 9 to 14) (size 15 to 20)
#    0.000    1.600    3.333    0.000    4.667    3.733 
#    2.400    0.000    0.000    0.000    0.000    0.000 
#    0.000    0.000    0.000    0.000    0.000    0.000 
#
# Total GULP energy -167171.402356 kJ/mol
# GULP energy per Si atom -5572.380079 kJ/mol
# Density = 2.033263 g / cm^3
# Si number density = 20.379012 Si / 1000 Ang^3
#
#
#
# Elastic Constant Matrix: (Units=GPa)
#
#
# Indices 1 2 3 4 5 6 
#
# 1 72.3544 10.0816 36.7824 0.0000 0.0000 0.0000
# 2 10.0816 48.2128 33.4393 0.0000 0.0000 0.0000
# 3 36.7824 33.4393 100.6589 0.0000 0.0000 0.0000
# 4 0.0000 0.0000 0.0000 8.3621 0.0000 0.0000
# 5 0.0000 0.0000 0.0000 0.0000 34.1401 0.0000
# 6 0.0000 0.0000 0.0000 0.0000 0.0000 21.1744
#
#
#
# Elastic Compliance Matrix: (Units=1/GPa)
#
#
# Indices 1 2 3 4 5 6 
#
# 1 0.017010 0.000980 -0.006541 0.000000 0.000000 0.000000
# 2 0.000980 0.027008 -0.009330 0.000000 0.000000 0.000000
# 3 -0.006541 -0.009330 0.015424 0.000000 0.000000 0.000000
# 4 0.000000 0.000000 0.000000 0.119587 0.000000 0.000000
# 5 0.000000 0.000000 0.000000 0.000000 0.029291 0.000000
# 6 0.000000 0.000000 0.000000 0.000000 0.000000 0.047227
#
#
# Mechanical properties :
#
#
# Convention : Reuss Voigt Hill
#
# Bulk Modulus (GPa) = 33.71667 42.42585 38.07126
# Shear Modulus (GPa) = 16.93680 22.13019 19.53349
#
# Velocity S-wave (km/s) = 2.88599 3.29892 3.09934
# Velocity P-wave (km/s) = 5.26175 5.94761 5.61516
#
# Compressibility (1/GPa) = 0.02965892
#
# Stress axis : x y z
#
# Youngs Moduli (GPa) = 58.79035 37.02657 64.83281
#
# Poissons Ratio (x) = -0.03629 0.42408
# Poissons Ratio (y) = -0.05761 0.60490
# Poissons Ratio (z) = 0.38456 0.34546
#
# Static dielectric constant tensor:
#      x y z
#    x 1.667860 0.000000 0.000000 
#    y 0.000000 1.734400 0.000000 
#    z 0.000000 0.000000 1.711720 
# 
# From -- ./inp_files/10089.got.cif
#   From: 2010.05.17/outbox.cif.g08.bks.cpg/sg41_6_cif.got.tgz:10089.got - 2010.06.03 18:54:24.
