data_PCOD9367584
_publ_section_title
;
Structure prediction by ZEFSAII (Michael W. Deem and Ramdas Pophale) SiO2 
 PCOD9367584
Probable space group: A B A 2
;
_chemical_formula_sum "Si O2"
_cell_formula_units_Z 56
_cell_length_a 14.934526
_cell_length_b 13.288207
_cell_length_c 13.157285
_cell_angle_alpha 90.000000
_cell_angle_beta 90.000000
_cell_angle_gamma 90.000000
_cell_volume 2611.103640
_symmetry_space_group_name_H-M "A B A 2"
_symmetry_group_IT_number 41
_symmetry_cell_setting 'orthorhombic'
loop_
_space_group_symop_operation_xyz
x,y,z
-x,-y,z
1/2-x,y,1/2+z
1/2+x,-y,1/2+z
x,1/2+y,1/2+z
-x,1/2-y,1/2+z
1/2-x,1/2+y,z
1/2+x,1/2-y,z
loop_
_atom_site_type_symbol
_atom_site_label
_atom_site_fract_x
_atom_site_fract_y
_atom_site_fract_z
Si Si1 0.489413 0.854888 0.263170
Si Si2 0.602854 0.819289 0.873927
Si Si3 0.153313 0.949903 0.094524
Si Si4 0.814111 0.833004 0.173461
Si Si5 0.500000 0.500000 0.458832
Si Si6 0.860799 0.613806 0.104804
Si Si7 0.622898 0.771622 0.107109
Si Si8 0.500000 0.000000 0.434336
O O1 0.465213 0.748231 0.310616
O O2 0.400745 0.910431 0.217585
O O3 0.549137 0.835225 0.165352
O O4 0.530637 0.913873 0.356693
O O5 0.685105 0.819043 0.795452
O O6 0.561560 0.927595 0.892596
O O7 0.616601 0.772999 0.985202
O O8 0.260535 0.926772 0.081099
O O9 0.122240 0.844223 0.144108
O O10 0.145749 0.057456 0.150293
O O11 0.084969 0.964150 0.000168
O O12 0.858612 0.736800 0.114680
O O13 0.714181 0.826717 0.134138
O O14 0.569713 0.566202 0.525455
#
# Coordination Sequence:
#
# PCOD9367584 Si02
#       8
#     8   8   8   8   4   8   8   4
#     4  11  25  44  73 104 143 191 240 294 368 438
#     4  11  25  44  67 108 138 189 245 288 367 427
#     4  11  26  47  73 107 142 191 238 303 360 424
#     4  10  26  46  71 103 149 183 242 299 357 435
#     4  12  23  41  76 100 142 194 237 295 352 432
#     4  10  24  48  70 101 147 189 233 296 362 423
#     4  11  24  50  71 101 150 187 236 307 357 434
#     4  12  27  43  78 106 144 194 245 289 372 428
#
# _framework density 21.446871999999999
#
# number of rings (size 3 to 8) (size 9 to 14) (size 15 to 20)
#    0.000    1.143    2.857    1.286   10.000    2.286 
#    2.571    0.000    0.000    0.000    0.000    0.000 
#    0.000    0.000    0.000    0.000    0.000    0.000 
#
# Total GULP energy -156079.599984 kJ/mol
# GULP energy per Si atom -5574.271428 kJ/mol
# Density = 2.139806 g / cm^3
# Si number density = 21.446872 Si / 1000 Ang^3
#
#
#
# Elastic Constant Matrix: (Units=GPa)
#
#
# Indices 1 2 3 4 5 6 
#
# 1 91.1244 26.6447 49.7273 0.0000 0.0000 0.0000
# 2 26.6447 104.6598 35.2271 0.0000 0.0000 0.0000
# 3 49.7273 35.2271 115.3192 0.0000 0.0000 0.0000
# 4 0.0000 0.0000 0.0000 29.8709 0.0000 0.0000
# 5 0.0000 0.0000 0.0000 0.0000 -27.3607 0.0000
# 6 0.0000 0.0000 0.0000 0.0000 0.0000 23.6081
#
#
#
# Elastic Compliance Matrix: (Units=1/GPa)
#
#
# Indices 1 2 3 4 5 6 
#
# 1 0.014645 -0.001786 -0.005769 0.000000 0.000000 0.000000
# 2 -0.001786 0.010868 -0.002549 0.000000 0.000000 0.000000
# 3 -0.005769 -0.002549 0.011938 0.000000 0.000000 0.000000
# 4 0.000000 0.000000 0.000000 0.033477 0.000000 0.000000
# 5 0.000000 0.000000 0.000000 0.000000 -0.036549 0.000000
# 6 0.000000 0.000000 0.000000 0.000000 0.000000 0.042358
#
#
# Mechanical properties :
#
#
# Convention : Reuss Voigt Hill
#
# Bulk Modulus (GPa) = 58.00402 59.36682 58.68542
# Shear Modulus (GPa) = 48.68800 18.52394 33.60597
#
# Velocity S-wave (km/s) = 4.76980 2.94209 3.96275
# Velocity P-wave (km/s) = 7.57884 6.26755 6.95417
#
# Compressibility (1/GPa) = 0.01724018
#
# Stress axis : x y z
#
# Youngs Moduli (GPa) = 68.28403 92.01593 83.76490
#
# Poissons Ratio (x) = 0.16438 0.48326
# Poissons Ratio (y) = 0.12199 0.21356
# Poissons Ratio (z) = 0.39395 0.23459
#
# Static dielectric constant tensor:
#      x y z
#    x 1.881830 0.000000 0.000000 
#    y 0.000000 1.891130 0.000000 
#    z 0.000000 0.000000 1.754160 
# 
# From -- ./inp_files/5618.got.cif
#   From: 2010.05.17/outbox.cif.g08.bks.cpg/sg41_3_cif.got.tgz:5618.got - 2010.06.03 18:54:24.
