data_PCOD9367390
_publ_section_title
;
Structure prediction by ZEFSAII (Michael W. Deem and Ramdas Pophale) SiO2 
 PCOD9367390
Probable space group: A B A 2
;
_chemical_formula_sum "Si O2"
_cell_formula_units_Z 32
_cell_length_a 12.081291
_cell_length_b 9.185315
_cell_length_c 12.228020
_cell_angle_alpha 90.000000
_cell_angle_beta 90.000000
_cell_angle_gamma 90.000000
_cell_volume 1356.949046
_symmetry_space_group_name_H-M "A B A 2"
_symmetry_group_IT_number 41
_symmetry_cell_setting 'orthorhombic'
loop_
_space_group_symop_operation_xyz
x,y,z
-x,-y,z
1/2-x,y,1/2+z
1/2+x,-y,1/2+z
x,1/2+y,1/2+z
-x,1/2-y,1/2+z
1/2-x,1/2+y,z
1/2+x,1/2-y,z
loop_
_atom_site_type_symbol
_atom_site_label
_atom_site_fract_x
_atom_site_fract_y
_atom_site_fract_z
Si Si1 0.027524 0.158527 0.430900
Si Si2 0.176308 0.592939 0.133881
Si Si3 0.404364 0.615869 0.042220
Si Si4 0.340440 0.289330 0.742241
O O1 0.080933 0.129869 0.549619
O O2 0.116733 0.246277 0.360271
O O3 0.920424 0.258721 0.451897
O O4 0.000000 0.000000 0.383277
O O5 0.281534 0.551916 0.055152
O O6 0.151348 0.457575 0.211861
O O7 0.220264 0.727489 0.206547
O O8 0.500000 0.500000 0.025025
O O9 0.416701 0.695674 0.159312
#
# Coordination Sequence:
#
# PCOD9367390 Si02
#       4
#     8   8   8   8
#     4  12  23  46  74 103 145 196 240 304 372 430
#     4  10  23  46  65 104 144 186 238 306 352 447
#     4  10  23  44  68 100 145 182 245 302 354 440
#     4  10  24  43  72  99 140 188 243 298 361 428
#
# _framework density 23.582315000000001
#
# number of rings (size 3 to 8) (size 9 to 14) (size 15 to 20)
#    1.500    0.000    2.500    2.250    0.000    6.000 
#    9.000    0.000    0.000    0.000    0.000    0.000 
#    0.000    0.000    0.000    0.000    0.000    0.000 
#
# Total GULP energy -89340.114278 kJ/mol
# GULP energy per Si atom -5583.757142 kJ/mol
# Density = 2.352864 g / cm^3
# Si number density = 23.582315 Si / 1000 Ang^3
#
#
#
# Elastic Constant Matrix: (Units=GPa)
#
#
# Indices 1 2 3 4 5 6 
#
# 1 68.8628 12.6913 11.1752 0.0000 0.0000 0.0000
# 2 12.6913 90.5150 40.4579 0.0000 0.0000 0.0000
# 3 11.1752 40.4579 68.6992 0.0000 0.0000 0.0000
# 4 0.0000 0.0000 0.0000 23.8858 0.0000 0.0000
# 5 0.0000 0.0000 0.0000 0.0000 38.1553 0.0000
# 6 0.0000 0.0000 0.0000 0.0000 0.0000 36.4717
#
#
#
# Elastic Compliance Matrix: (Units=1/GPa)
#
#
# Indices 1 2 3 4 5 6 
#
# 1 0.015041 -0.001378 -0.001635 0.000000 0.000000 0.000000
# 2 -0.001378 0.015121 -0.008681 0.000000 0.000000 0.000000
# 3 -0.001635 -0.008681 0.019935 0.000000 0.000000 0.000000
# 4 0.000000 0.000000 0.000000 0.041866 0.000000 0.000000
# 5 0.000000 0.000000 0.000000 0.000000 0.026209 0.000000
# 6 0.000000 0.000000 0.000000 0.000000 0.000000 0.027418
#
#
# Mechanical properties :
#
#
# Convention : Reuss Voigt Hill
#
# Bulk Modulus (GPa) = 37.44133 39.63620 38.53876
# Shear Modulus (GPa) = 28.10868 30.61939 29.36404
#
# Velocity S-wave (km/s) = 3.45619 3.60725 3.53253
# Velocity P-wave (km/s) = 5.64255 5.84754 5.74596
#
# Compressibility (1/GPa) = 0.02670845
#
# Stress axis : x y z
#
# Youngs Moduli (GPa) = 66.48513 66.13197 50.16424
#
# Poissons Ratio (x) = 0.09113 0.08203
# Poissons Ratio (y) = 0.09162 0.43547
# Poissons Ratio (z) = 0.10871 0.57409
#
# Static dielectric constant tensor:
#      x y z
#    x 1.938060 0.000000 0.000000 
#    y 0.000000 1.896880 0.000000 
#    z 0.000000 0.000000 1.832510 
# 
# From -- ./inp_files/2336.got.cif
#   From: 2010.05.17/outbox.cif.g08.bks.cpg/sg41_2_cif.got.tgz:2336.got - 2010.06.03 18:54:24.
