data_PCOD9367245
_publ_section_title
;
Structure prediction by ZEFSAII (Michael W. Deem and Ramdas Pophale) SiO2 
 PCOD9367245
Probable space group: A B A 2
;
_chemical_formula_sum "Si O2"
_cell_formula_units_Z 60
_cell_length_a 13.695088
_cell_length_b 21.813278
_cell_length_c 8.747530
_cell_angle_alpha 90.000000
_cell_angle_beta 90.000000
_cell_angle_gamma 90.000000
_cell_volume 2613.191291
_symmetry_space_group_name_H-M "A B A 2"
_symmetry_group_IT_number 41
_symmetry_cell_setting 'orthorhombic'
loop_
_space_group_symop_operation_xyz
x,y,z
-x,-y,z
1/2-x,y,1/2+z
1/2+x,-y,1/2+z
x,1/2+y,1/2+z
-x,1/2-y,1/2+z
1/2-x,1/2+y,z
1/2+x,1/2-y,z
loop_
_atom_site_type_symbol
_atom_site_label
_atom_site_fract_x
_atom_site_fract_y
_atom_site_fract_z
Si Si1 0.308649 0.469698 0.163820
Si Si2 0.750421 0.816806 0.437171
Si Si3 0.660066 0.402046 0.191168
Si Si4 0.795272 0.205632 0.252494
Si Si5 0.425074 0.310485 0.667389
Si Si6 0.000000 0.500000 0.620808
Si Si7 0.843717 0.098664 0.469036
Si Si8 0.427529 0.278083 0.007464
O O1 0.269830 0.539004 0.170929
O O2 0.402279 0.471274 0.049509
O O3 0.350464 0.450024 0.330372
O O4 0.225988 0.427531 0.099067
O O5 0.683015 0.852636 0.558417
O O6 0.810275 0.867546 0.343479
O O7 0.687703 0.772660 0.325460
O O8 0.837103 0.770528 0.490112
O O9 0.556486 0.439257 0.192101
O O10 0.689260 0.207203 0.176437
O O11 0.792463 0.155723 0.385302
O O12 0.881747 0.182058 0.143288
O O13 0.432978 0.371699 0.564159
O O14 0.483166 0.258508 0.578477
O O15 0.451390 0.310066 0.847280
#
# Coordination Sequence:
#
# PCOD9367245 Si02
#       8
#     8   8   8   8   8   4   8   8
#     4  10  24  43  68 100 131 184 232 288 349 406
#     4  11  22  42  71  97 140 178 231 280 354 411
#     4  10  22  45  67  99 130 182 233 287 342 409
#     4  11  24  45  67 102 142 187 220 289 354 421
#     4  11  24  41  66  97 142 186 229 279 341 419
#     4   8  24  44  70  96 130 176 234 290 344 396
#     4  12  23  42  71 100 143 179 232 285 355 423
#     4  11  25  44  63 104 142 190 232 276 346 425
#
# _framework density 22.960432000000001
#
# number of rings (size 3 to 8) (size 9 to 14) (size 15 to 20)
#    0.800    0.533    2.667    3.200    3.733    0.000 
#    2.400    0.000    0.000    1.600    0.000    0.000 
#    0.000    0.000    0.000    0.000    0.000    0.000 
#
# Total GULP energy -167065.773246 kJ/mol
# GULP energy per Si atom -5568.859108 kJ/mol
# Density = 2.290817 g / cm^3
# Si number density = 22.960432 Si / 1000 Ang^3
#
#
#
# Elastic Constant Matrix: (Units=GPa)
#
#
# Indices 1 2 3 4 5 6 
#
# 1 28.0312 -2.2006 -2.3961 0.0000 0.0000 0.0000
# 2 -2.2006 92.7106 19.7970 0.0000 0.0000 0.0000
# 3 -2.3961 19.7970 102.5168 0.0000 0.0000 0.0000
# 4 0.0000 0.0000 0.0000 24.3342 0.0000 0.0000
# 5 0.0000 0.0000 0.0000 0.0000 25.3099 0.0000
# 6 0.0000 0.0000 0.0000 0.0000 0.0000 35.7992
#
#
#
# Elastic Compliance Matrix: (Units=1/GPa)
#
#
# Indices 1 2 3 4 5 6 
#
# 1 0.035789 0.000700 0.000701 0.000000 0.000000 0.000000
# 2 0.000700 0.011264 -0.002159 0.000000 0.000000 0.000000
# 3 0.000701 -0.002159 0.010188 0.000000 0.000000 0.000000
# 4 0.000000 0.000000 0.000000 0.041094 0.000000 0.000000
# 5 0.000000 0.000000 0.000000 0.000000 0.039510 0.000000
# 6 0.000000 0.000000 0.000000 0.000000 0.000000 0.027934
#
#
# Mechanical properties :
#
#
# Convention : Reuss Voigt Hill
#
# Bulk Modulus (GPa) = 17.94506 28.18435 23.06471
# Shear Modulus (GPa) = 26.90056 30.95923 28.92989
#
# Velocity S-wave (km/s) = 3.42659 3.67600 3.55348
# Velocity P-wave (km/s) = 4.84643 5.50628 5.18686
#
# Compressibility (1/GPa) = 0.05572563
#
# Stress axis : x y z
#
# Youngs Moduli (GPa) = 27.94126 88.77965 98.15681
#
# Poissons Ratio (x) = -0.06212 -0.06884
# Poissons Ratio (y) = -0.01955 0.21190
# Poissons Ratio (z) = -0.01960 0.19166
#
# Static dielectric constant tensor:
#      x y z
#    x 1.897540 0.000000 0.000000 
#    y 0.000000 1.933760 0.000000 
#    z 0.000000 0.000000 1.996980 
# 
# From -- ./inp_files/2844.got.cif
#   From: 2010.05.17/outbox.cif.g08.bks.cpg/sg41_2_cif.got.tgz:2844.got - 2010.06.03 18:54:24.
