data_PCOD9367939
_publ_section_title
;
Structure prediction by ZEFSAII (Michael W. Deem and Ramdas Pophale) SiO2 
 PCOD9367939
Probable space group: A B A 2
;
_chemical_formula_sum "Si O2"
_cell_formula_units_Z 40
_cell_length_a 8.467080
_cell_length_b 9.247146
_cell_length_c 20.357462
_cell_angle_alpha 90.000000
_cell_angle_beta 90.000000
_cell_angle_gamma 90.000000
_cell_volume 1593.914460
_symmetry_space_group_name_H-M "A B A 2"
_symmetry_group_IT_number 41
_symmetry_cell_setting 'orthorhombic'
loop_
_space_group_symop_operation_xyz
x,y,z
-x,-y,z
1/2-x,y,1/2+z
1/2+x,-y,1/2+z
x,1/2+y,1/2+z
-x,1/2-y,1/2+z
1/2-x,1/2+y,z
1/2+x,1/2-y,z
loop_
_atom_site_type_symbol
_atom_site_label
_atom_site_fract_x
_atom_site_fract_y
_atom_site_fract_z
Si Si1 0.042756 0.788020 0.246640
Si Si2 0.762250 0.459164 0.793775
Si Si3 0.362965 0.658510 0.518163
Si Si4 0.321743 0.937298 0.437564
Si Si5 0.578624 0.841158 0.603762
O O1 0.119011 0.637998 0.267771
O O2 0.912256 0.849874 0.297290
O O3 0.959268 0.787583 0.176335
O O4 0.178434 0.912275 0.246266
O O5 0.721764 0.531489 0.862703
O O6 0.313402 0.512497 0.481933
O O7 0.518142 0.727942 0.549400
O O8 0.260149 0.648940 0.585178
O O9 0.321327 0.773270 0.461006
O O10 0.500000 0.000000 0.448515
O O11 0.500000 0.000000 0.596115
#
# Coordination Sequence:
#
# PCOD9367939 Si02
#       5
#     8   8   8   8   8
#     4  11  26  48  72 108 143 189 245 299 360 433
#     4  11  26  46  75 104 147 190 240 299 364 424
#     4  12  24  47  74 101 144 191 230 304 364 421
#     4  12  27  48  71 106 148 184 244 302 358 438
#     4  12  24  48  71 104 150 183 244 301 355 439
#
# _framework density 25.095451000000001
#
# number of rings (size 3 to 8) (size 9 to 14) (size 15 to 20)
#    0.000    0.400    6.000    2.400    5.600    4.000 
#    0.000    2.000    0.000    0.000    0.000    0.000 
#    0.000    0.000    0.000    0.000    0.000    0.000 
#
# Total GULP energy -111945.845075 kJ/mol
# GULP energy per Si atom -5597.292254 kJ/mol
# Density = 2.503833 g / cm^3
# Si number density = 25.095451 Si / 1000 Ang^3
#
#
#
# Elastic Constant Matrix: (Units=GPa)
#
#
# Indices 1 2 3 4 5 6 
#
# 1 36.9346 23.9391 11.5796 0.0000 0.0000 0.0000
# 2 23.9391 119.4663 36.7054 0.0000 0.0000 0.0000
# 3 11.5796 36.7054 149.4452 0.0000 0.0000 0.0000
# 4 0.0000 0.0000 0.0000 32.5423 0.0000 0.0000
# 5 0.0000 0.0000 0.0000 0.0000 22.7964 0.0000
# 6 0.0000 0.0000 0.0000 0.0000 0.0000 39.6427
#
#
#
# Elastic Compliance Matrix: (Units=1/GPa)
#
#
# Indices 1 2 3 4 5 6 
#
# 1 0.031242 -0.005967 -0.000955 0.000000 0.000000 0.000000
# 2 -0.005967 0.010193 -0.002041 0.000000 0.000000 0.000000
# 3 -0.000955 -0.002041 0.007267 0.000000 0.000000 0.000000
# 4 0.000000 0.000000 0.000000 0.030729 0.000000 0.000000
# 5 0.000000 0.000000 0.000000 0.000000 0.043867 0.000000
# 6 0.000000 0.000000 0.000000 0.000000 0.000000 0.025225
#
#
# Mechanical properties :
#
#
# Convention : Reuss Voigt Hill
#
# Bulk Modulus (GPa) = 32.49363 50.03269 41.26316
# Shear Modulus (GPa) = 28.29527 34.57110 31.43318
#
# Velocity S-wave (km/s) = 3.36148 3.71561 3.54297
# Velocity P-wave (km/s) = 5.29549 6.19580 5.76325
#
# Compressibility (1/GPa) = 0.03077527
#
# Stress axis : x y z
#
# Youngs Moduli (GPa) = 32.00848 98.10279 137.61232
#
# Poissons Ratio (x) = 0.58536 0.13145
# Poissons Ratio (y) = 0.19099 0.28091
# Poissons Ratio (z) = 0.03057 0.20026
#
# Static dielectric constant tensor:
#      x y z
#    x 2.124000 0.000000 0.000000 
#    y 0.000000 2.380360 0.000000 
#    z 0.000000 0.000000 1.918660 
# 
# From -- ./inp_files/11113.got.cif
#   From: 2010.05.17/outbox.cif.g08.bks.cpg/sg41_6_cif.got.tgz:11113.got - 2010.06.03 18:54:24.
