data_PCOD9367352
_publ_section_title
;
Structure prediction by ZEFSAII (Michael W. Deem and Ramdas Pophale) SiO2 
 PCOD9367352
Probable space group: A B A 2
;
_chemical_formula_sum "Si O2"
_cell_formula_units_Z 40
_cell_length_a 17.599773
_cell_length_b 9.206679
_cell_length_c 11.019491
_cell_angle_alpha 90.000000
_cell_angle_beta 90.000000
_cell_angle_gamma 90.000000
_cell_volume 1785.548298
_symmetry_space_group_name_H-M "A B A 2"
_symmetry_group_IT_number 41
_symmetry_cell_setting 'orthorhombic'
loop_
_space_group_symop_operation_xyz
x,y,z
-x,-y,z
1/2-x,y,1/2+z
1/2+x,-y,1/2+z
x,1/2+y,1/2+z
-x,1/2-y,1/2+z
1/2-x,1/2+y,z
1/2+x,1/2-y,z
loop_
_atom_site_type_symbol
_atom_site_label
_atom_site_fract_x
_atom_site_fract_y
_atom_site_fract_z
Si Si1 0.709387 0.673854 0.796750
Si Si2 0.680210 0.972002 0.934344
Si Si3 0.658404 0.732790 0.122986
Si Si4 0.563667 0.620780 0.901336
Si Si5 0.455814 0.367850 0.317162
O O1 0.756465 0.590395 0.901655
O O2 0.763856 0.671653 0.680653
O O3 0.625668 0.604568 0.793798
O O4 0.695354 0.840714 0.837708
O O5 0.601265 0.053277 0.909545
O O6 0.677476 0.886244 0.060570
O O7 0.597143 0.730073 0.231460
O O8 0.615352 0.637736 0.020900
O O9 0.500000 0.500000 0.908661
O O10 0.517783 0.768939 0.881188
O O11 0.500000 0.500000 0.250691
#
# Coordination Sequence:
#
# PCOD9367352 Si02
#       5
#     8   8   8   8   8
#     4  10  23  42  71  99 141 187 246 295 364 450
#     4  10  23  44  67 101 142 183 241 304 360 452
#     4  10  23  44  72 102 139 198 236 297 387 429
#     4  11  25  48  70 109 148 187 252 314 370 454
#     4  11  21  46  75 102 146 185 246 312 365 449
#
# _framework density 22.402083000000001
#
# number of rings (size 3 to 8) (size 9 to 14) (size 15 to 20)
#    0.000    1.600    4.000    0.600    5.600    6.400 
#    7.200    0.000    0.000    0.000    0.000    0.000 
#    0.000    0.000    0.000    0.000    0.000    0.000 
#
# Total GULP energy -111650.495700 kJ/mol
# GULP energy per Si atom -5582.524785 kJ/mol
# Density = 2.235109 g / cm^3
# Si number density = 22.402083 Si / 1000 Ang^3
#
#
#
# Elastic Constant Matrix: (Units=GPa)
#
#
# Indices 1 2 3 4 5 6 
#
# 1 208.6097 81.6261 70.6038 0.0000 0.0000 0.0000
# 2 81.6261 88.1222 56.9653 0.0000 0.0000 0.0000
# 3 70.6038 56.9653 102.8754 0.0000 0.0000 0.0000
# 4 0.0000 0.0000 0.0000 28.4000 0.0000 0.0000
# 5 0.0000 0.0000 0.0000 0.0000 37.0110 0.0000
# 6 0.0000 0.0000 0.0000 0.0000 0.0000 39.3562
#
#
#
# Elastic Compliance Matrix: (Units=1/GPa)
#
#
# Indices 1 2 3 4 5 6 
#
# 1 0.007801 -0.005864 -0.002107 0.000000 0.000000 0.000000
# 2 -0.005864 0.022083 -0.008203 0.000000 0.000000 0.000000
# 3 -0.002107 -0.008203 0.015709 0.000000 0.000000 0.000000
# 4 0.000000 0.000000 0.000000 0.035211 0.000000 0.000000
# 5 0.000000 0.000000 0.000000 0.000000 0.027019 0.000000
# 6 0.000000 0.000000 0.000000 0.000000 0.000000 0.025409
#
#
# Mechanical properties :
#
#
# Convention : Reuss Voigt Hill
#
# Bulk Modulus (GPa) = 75.50492 90.88863 83.19678
# Shear Modulus (GPa) = 29.41259 33.64760 31.53009
#
# Velocity S-wave (km/s) = 3.62738 3.87975 3.75569
# Velocity P-wave (km/s) = 7.16390 7.79292 7.48502
#
# Compressibility (1/GPa) = 0.01324417
#
# Stress axis : x y z
#
# Youngs Moduli (GPa) = 128.18357 45.28436 63.65865
#
# Poissons Ratio (x) = 0.26556 0.13412
# Poissons Ratio (y) = 0.75170 0.52220
# Poissons Ratio (z) = 0.27006 0.37148
#
# Static dielectric constant tensor:
#      x y z
#    x 1.826180 0.000000 0.000000 
#    y 0.000000 1.844530 0.000000 
#    z 0.000000 0.000000 1.871770 
# 
# From -- ./inp_files/5823.got.cif
#   From: 2010.05.17/outbox.cif.g08.bks.cpg/sg41_3_cif.got.tgz:5823.got - 2010.06.03 18:54:24.
