data_PCOD9367396
_publ_section_title
;
Structure prediction by ZEFSAII (Michael W. Deem and Ramdas Pophale) SiO2 
 PCOD9367396
Probable space group: A B A 2
;
_chemical_formula_sum "Si O2"
_cell_formula_units_Z 40
_cell_length_a 18.118711
_cell_length_b 5.050695
_cell_length_c 16.552475
_cell_angle_alpha 90.000000
_cell_angle_beta 90.000000
_cell_angle_gamma 90.000000
_cell_volume 1514.751467
_symmetry_space_group_name_H-M "A B A 2"
_symmetry_group_IT_number 41
_symmetry_cell_setting 'orthorhombic'
loop_
_space_group_symop_operation_xyz
x,y,z
-x,-y,z
1/2-x,y,1/2+z
1/2+x,-y,1/2+z
x,1/2+y,1/2+z
-x,1/2-y,1/2+z
1/2-x,1/2+y,z
1/2+x,1/2-y,z
loop_
_atom_site_type_symbol
_atom_site_label
_atom_site_fract_x
_atom_site_fract_y
_atom_site_fract_z
Si Si1 0.294694 0.177013 0.886600
Si Si2 0.000000 0.000000 0.868732
Si Si3 0.422298 0.187059 0.999042
Si Si4 0.000000 0.000000 0.141189
Si Si5 0.302862 0.914440 0.084864
Si Si6 0.387163 0.357427 0.742951
O O1 0.226361 0.372819 0.895224
O O2 0.332956 0.195703 0.800295
O O3 0.352229 0.294794 0.950640
O O4 0.067781 0.040301 0.806287
O O5 0.016070 0.758451 0.930762
O O6 0.452114 0.318159 0.080596
O O7 0.379168 0.925363 0.031896
O O8 0.053172 0.175131 0.197153
O O9 0.241417 0.143153 0.073412
O O10 0.335062 0.972645 0.174113
#
# Coordination Sequence:
#
# PCOD9367396 Si02
#       6
#     8   4   8   4   8   8
#     4  11  25  47  74 105 144 192 244 303 369 447
#     4   9  22  44  68 101 144 196 244 303 370 446
#     4  10  23  44  71 104 147 192 247 305 373 445
#     4  11  24  46  74 113 154 200 254 319 380 452
#     4  12  25  44  73 107 144 189 244 309 372 440
#     4  11  24  44  73 108 150 195 250 308 377 450
#
# _framework density 26.406972
#
# number of rings (size 3 to 8) (size 9 to 14) (size 15 to 20)
#    0.000    1.200    0.000    4.800    0.000    6.400 
#    0.000   16.000    0.000    0.000    0.000    0.000 
#    0.000    0.000    0.000    0.000    0.000    0.000 
#
# Total GULP energy -111704.250167 kJ/mol
# GULP energy per Si atom -5585.212508 kJ/mol
# Density = 2.634687 g / cm^3
# Si number density = 26.406972 Si / 1000 Ang^3
#
#
#
# Elastic Constant Matrix: (Units=GPa)
#
#
# Indices 1 2 3 4 5 6 
#
# 1 93.6935 33.0087 91.5319 0.0000 0.0000 0.0000
# 2 33.0087 86.8441 51.9874 0.0000 0.0000 0.0000
# 3 91.5319 51.9874 165.2597 0.0000 0.0000 0.0000
# 4 0.0000 0.0000 0.0000 14.9214 0.0000 0.0000
# 5 0.0000 0.0000 0.0000 0.0000 80.9104 0.0000
# 6 0.0000 0.0000 0.0000 0.0000 0.0000 54.3667
#
#
#
# Elastic Compliance Matrix: (Units=1/GPa)
#
#
# Indices 1 2 3 4 5 6 
#
# 1 0.023395 -0.001399 -0.012517 0.000000 0.000000 0.000000
# 2 -0.001399 0.014270 -0.003714 0.000000 0.000000 0.000000
# 3 -0.012517 -0.003714 0.014153 0.000000 0.000000 0.000000
# 4 0.000000 0.000000 0.000000 0.067018 0.000000 0.000000
# 5 0.000000 0.000000 0.000000 0.000000 0.012359 0.000000
# 6 0.000000 0.000000 0.000000 0.000000 0.000000 0.018394
#
#
# Mechanical properties :
#
#
# Convention : Reuss Voigt Hill
#
# Bulk Modulus (GPa) = 60.40089 77.65034 69.02562
# Shear Modulus (GPa) = 26.26495 41.32430 33.79463
#
# Velocity S-wave (km/s) = 3.15718 3.96017 3.58126
# Velocity P-wave (km/s) = 6.01774 7.09787 6.58000
#
# Compressibility (1/GPa) = 0.01655605
#
# Stress axis : x y z
#
# Youngs Moduli (GPa) = 42.74504 70.07676 70.65871
#
# Poissons Ratio (x) = 0.09802 0.88447
# Poissons Ratio (y) = 0.05979 0.26245
# Poissons Ratio (z) = 0.53506 0.26029
#
# Static dielectric constant tensor:
#      x y z
#    x 2.070410 0.000000 0.000000 
#    y 0.000000 2.066860 0.000000 
#    z 0.000000 0.000000 2.126070 
# 
# From -- ./inp_files/10507.got.cif
#   From: 2010.05.17/outbox.cif.g08.bks.cpg/sg41_6_cif.got.tgz:10507.got - 2010.06.03 18:54:24.
