data_PCOD9367149
_publ_section_title
;
Structure prediction by ZEFSAII (Michael W. Deem and Ramdas Pophale) SiO2 
 PCOD9367149
Probable space group: A B A 2
;
_chemical_formula_sum "Si O2"
_cell_formula_units_Z 52
_cell_length_a 10.884863
_cell_length_b 25.357822
_cell_length_c 8.988936
_cell_angle_alpha 90.000000
_cell_angle_beta 90.000000
_cell_angle_gamma 90.000000
_cell_volume 2481.093920
_symmetry_space_group_name_H-M "A B A 2"
_symmetry_group_IT_number 41
_symmetry_cell_setting 'orthorhombic'
loop_
_space_group_symop_operation_xyz
x,y,z
-x,-y,z
1/2-x,y,1/2+z
1/2+x,-y,1/2+z
x,1/2+y,1/2+z
-x,1/2-y,1/2+z
1/2-x,1/2+y,z
1/2+x,1/2-y,z
loop_
_atom_site_type_symbol
_atom_site_label
_atom_site_fract_x
_atom_site_fract_y
_atom_site_fract_z
Si Si1 0.528030 0.303081 0.750000
Si Si2 0.646343 0.932061 0.487040
Si Si3 0.000000 0.500000 0.687406
Si Si4 0.782729 0.367974 0.770742
Si Si5 0.484888 0.308727 0.403257
Si Si6 0.611077 0.108238 0.410718
Si Si7 0.350175 0.403515 0.257592
O O1 0.656508 0.335153 0.758064
O O2 0.487817 0.300215 0.579049
O O3 0.541899 0.245616 0.819816
O O4 0.425638 0.335403 0.842225
O O5 0.751487 0.920685 0.367303
O O6 0.668498 0.886287 0.610303
O O7 0.516417 0.923380 0.406774
O O8 0.617126 0.983679 0.584073
O O9 0.048761 0.449601 0.775814
O O10 0.884489 0.332439 0.849907
O O11 0.388523 0.353176 0.354324
O O12 0.647977 0.111309 0.583582
O O13 0.716386 0.081063 0.314523
#
# Coordination Sequence:
#
# PCOD9367149 Si02
#       7
#     8   8   4   8   8   8   8
#     4  11  26  40  69  98 138 182 227 273 349 411
#     4  10  22  42  68  96 131 178 225 282 340 404
#     4  10  22  42  70 102 130 180 226 290 346 410
#     4  11  22  44  66  94 138 177 223 280 339 415
#     4  12  24  42  66 100 133 184 223 279 339 415
#     4  10  22  43  63  96 135 174 225 278 337 411
#     4  11  23  43  67  95 139 175 227 288 339 406
#
# _framework density 20.958499
#
# number of rings (size 3 to 8) (size 9 to 14) (size 15 to 20)
#    0.000    1.231    4.615    1.846    4.308    2.462 
#    0.000    0.000    0.000    5.538    0.000    0.000 
#    0.000    0.000    0.000    0.000    0.000    0.000 
#
# Total GULP energy -145231.195212 kJ/mol
# GULP energy per Si atom -5585.815200 kJ/mol
# Density = 2.091080 g / cm^3
# Si number density = 20.958499 Si / 1000 Ang^3
#
#
#
# Elastic Constant Matrix: (Units=GPa)
#
#
# Indices 1 2 3 4 5 6 
#
# 1 94.1707 11.4196 24.7904 0.0000 0.0000 0.0000
# 2 11.4196 78.7409 18.8996 0.0000 0.0000 0.0000
# 3 24.7904 18.8996 88.7323 0.0000 0.0000 0.0000
# 4 0.0000 0.0000 0.0000 22.2386 0.0000 0.0000
# 5 0.0000 0.0000 0.0000 0.0000 41.0985 0.0000
# 6 0.0000 0.0000 0.0000 0.0000 0.0000 30.0988
#
#
#
# Elastic Compliance Matrix: (Units=1/GPa)
#
#
# Indices 1 2 3 4 5 6 
#
# 1 0.011529 -0.000947 -0.003019 0.000000 0.000000 0.000000
# 2 -0.000947 0.013462 -0.002603 0.000000 0.000000 0.000000
# 3 -0.003019 -0.002603 0.012668 0.000000 0.000000 0.000000
# 4 0.000000 0.000000 0.000000 0.044967 0.000000 0.000000
# 5 0.000000 0.000000 0.000000 0.000000 0.024332 0.000000
# 6 0.000000 0.000000 0.000000 0.000000 0.000000 0.033224
#
#
# Mechanical properties :
#
#
# Convention : Reuss Voigt Hill
#
# Bulk Modulus (GPa) = 40.78292 41.31813 41.05052
# Shear Modulus (GPa) = 30.96118 32.45613 31.70866
#
# Velocity S-wave (km/s) = 3.84769 3.93948 3.89385
# Velocity P-wave (km/s) = 6.26424 6.36001 6.31231
#
# Compressibility (1/GPa) = 0.02452007
#
# Stress axis : x y z
#
# Youngs Moduli (GPa) = 86.74023 74.28337 78.94088
#
# Poissons Ratio (x) = 0.07037 0.23833
# Poissons Ratio (y) = 0.08217 0.20546
# Poissons Ratio (z) = 0.26188 0.19334
#
# Static dielectric constant tensor:
#      x y z
#    x 1.778970 0.000000 0.000000 
#    y 0.000000 1.772340 0.000000 
#    z 0.000000 0.000000 1.734810 
# 
# From -- ./inp_files/2142.got.cif
#   From: 2010.05.17/outbox.cif.g08.bks.cpg/sg41_2_cif.got.tgz:2142.got - 2010.06.03 18:54:24.
