data_PCOD9367776
_publ_section_title
;
Structure prediction by ZEFSAII (Michael W. Deem and Ramdas Pophale) SiO2 
 PCOD9367776
Probable space group: A B A 2
;
_chemical_formula_sum "Si O2"
_cell_formula_units_Z 48
_cell_length_a 25.615268
_cell_length_b 4.965459
_cell_length_c 17.039894
_cell_angle_alpha 90.000000
_cell_angle_beta 90.000000
_cell_angle_gamma 90.000000
_cell_volume 2167.330752
_symmetry_space_group_name_H-M "A B A 2"
_symmetry_group_IT_number 41
_symmetry_cell_setting 'orthorhombic'
loop_
_space_group_symop_operation_xyz
x,y,z
-x,-y,z
1/2-x,y,1/2+z
1/2+x,-y,1/2+z
x,1/2+y,1/2+z
-x,1/2-y,1/2+z
1/2-x,1/2+y,z
1/2+x,1/2-y,z
loop_
_atom_site_type_symbol
_atom_site_label
_atom_site_fract_x
_atom_site_fract_y
_atom_site_fract_z
Si Si1 0.101224 0.600634 0.250000
Si Si2 0.217315 0.024700 0.935318
Si Si3 0.898773 0.100552 0.929379
Si Si4 0.717315 0.524450 0.744043
Si Si5 0.056379 0.629081 0.670845
Si Si6 0.943617 0.129030 0.508543
O O1 0.105378 0.499960 0.339682
O O2 0.159045 0.538959 0.216357
O O3 0.056642 0.401167 0.219914
O O4 0.086993 0.902410 0.221859
O O5 0.261543 0.813362 0.959607
O O6 0.159048 0.961227 0.963007
O O7 0.216189 0.000138 0.839680
O O8 0.913002 0.402290 0.957557
O O9 0.943357 0.901031 0.959433
O O10 0.761538 0.313094 0.719752
O O11 0.079275 0.749956 0.589686
O O12 0.000000 0.500000 0.654004
O O13 0.000000 0.000000 0.525393
#
# Coordination Sequence:
#
# PCOD9367776 Si02
#       6
#     8   8   8   8   8   8
#     4  11  23  39  65  97 123 157 211 270 316 362
#     4   9  17  32  56  87 122 157 196 247 311 379
#     4  11  23  39  65  97 123 157 211 270 316 362
#     4   9  17  32  56  87 122 157 196 247 311 379
#     4  12  25  43  63  86 124 171 212 253 319 395
#     4  12  25  43  63  86 124 171 212 253 319 395
#
# _framework density 22.147058000000001
#
# number of rings (size 3 to 8) (size 9 to 14) (size 15 to 20)
#    0.000    1.333    0.000    7.000    0.000    9.333 
#    0.000    0.000    0.000   20.000    0.000    0.000 
#    0.000    0.000    0.000    0.000    0.000    0.000 
#
# Total GULP energy -133660.186247 kJ/mol
# GULP energy per Si atom -5569.174427 kJ/mol
# Density = 2.209665 g / cm^3
# Si number density = 22.147058 Si / 1000 Ang^3
#
#
#
# Elastic Constant Matrix: (Units=GPa)
#
#
# Indices 1 2 3 4 5 6 
#
# 1 94.4932 23.5670 16.9296 0.0000 0.0000 0.0000
# 2 23.5670 87.1784 6.3372 0.0000 0.0000 0.0000
# 3 16.9296 6.3372 50.4008 0.0000 0.0000 0.0000
# 4 0.0000 0.0000 0.0000 37.3385 0.0000 0.0000
# 5 0.0000 0.0000 0.0000 0.0000 -5.2071 0.0000
# 6 0.0000 0.0000 0.0000 0.0000 0.0000 9.0729
#
#
#
# Elastic Compliance Matrix: (Units=1/GPa)
#
#
# Indices 1 2 3 4 5 6 
#
# 1 0.011978 -0.002973 -0.003650 0.000000 0.000000 0.000000
# 2 -0.002973 0.012314 -0.000550 0.000000 0.000000 0.000000
# 3 -0.003650 -0.000550 0.021136 0.000000 0.000000 0.000000
# 4 0.000000 0.000000 0.000000 0.026782 0.000000 0.000000
# 5 0.000000 0.000000 0.000000 0.000000 -0.192046 0.000000
# 6 0.000000 0.000000 0.000000 0.000000 0.000000 0.110219
#
#
# Mechanical properties :
#
#
# Convention : Reuss Voigt Hill
#
# Bulk Modulus (GPa) = 32.17088 36.19331 34.18210
# Shear Modulus (GPa) = 331.37358 20.59009 175.98183
#
# Velocity S-wave (km/s) = 12.24537 3.05240 8.92374
# Velocity P-wave (km/s) = 14.64546 5.36662 11.02928
#
# Compressibility (1/GPa) = 0.03108402
#
# Stress axis : x y z
#
# Youngs Moduli (GPa) = 83.48590 81.20629 47.31261
#
# Poissons Ratio (x) = 0.24141 0.17267
# Poissons Ratio (y) = 0.24818 0.02601
# Poissons Ratio (z) = 0.30469 0.04465
#
# Static dielectric constant tensor:
#      x y z
#    x 1.825080 0.000000 0.000000 
#    y 0.000000 1.763350 0.000000 
#    z 0.000000 0.000000 2.750490 
# 
# From -- ./inp_files/10731.got.cif
#   From: 2010.05.17/outbox.cif.g08.bks.cpg/sg41_6_cif.got.tgz:10731.got - 2010.06.03 18:54:24.
