data_PCOD9367864
_publ_section_title
;
Structure prediction by ZEFSAII (Michael W. Deem and Ramdas Pophale) SiO2 
 PCOD9367864
Probable space group: A B A 2
;
_chemical_formula_sum "Si O2"
_cell_formula_units_Z 56
_cell_length_a 22.573621
_cell_length_b 11.511970
_cell_length_c 8.689654
_cell_angle_alpha 90.000000
_cell_angle_beta 90.000000
_cell_angle_gamma 90.000000
_cell_volume 2258.152993
_symmetry_space_group_name_H-M "A B A 2"
_symmetry_group_IT_number 41
_symmetry_cell_setting 'orthorhombic'
loop_
_space_group_symop_operation_xyz
x,y,z
-x,-y,z
1/2-x,y,1/2+z
1/2+x,-y,1/2+z
x,1/2+y,1/2+z
-x,1/2-y,1/2+z
1/2-x,1/2+y,z
1/2+x,1/2-y,z
loop_
_atom_site_type_symbol
_atom_site_label
_atom_site_fract_x
_atom_site_fract_y
_atom_site_fract_z
Si Si1 0.176889 0.752571 0.286330
Si Si2 0.686500 0.547021 0.056936
Si Si3 0.449772 0.751058 0.663972
Si Si4 0.400361 0.846758 0.349023
Si Si5 0.000000 0.000000 0.731335
Si Si6 0.000000 0.000000 0.270176
Si Si7 0.116254 0.115122 0.250968
Si Si8 0.774901 0.364557 0.982650
O O1 0.189707 0.877565 0.211092
O O2 0.105135 0.743776 0.285716
O O3 0.197626 0.672360 0.144133
O O4 0.219806 0.716458 0.425703
O O5 0.663426 0.614709 0.907985
O O6 0.635763 0.453270 0.099131
O O7 0.746775 0.488379 0.014710
O O8 0.424820 0.775014 0.494677
O O9 0.481654 0.625428 0.659098
O O10 0.484476 0.872982 0.695059
O O11 0.441904 0.956207 0.320552
O O12 0.399823 0.749480 0.217782
O O13 0.935301 0.961468 0.332676
O O14 0.174405 0.126446 0.355942
#
# Coordination Sequence:
#
# PCOD9367864 Si02
#       8
#     8   8   8   8   4   4   8   8
#     4  11  25  46  71 104 144 185 247 305 371 442
#     4  11  25  45  74 101 146 190 240 308 376 434
#     4  11  24  47  70 105 145 189 243 310 359 446
#     4  11  24  45  69 103 144 185 243 309 361 444
#     4  12  25  43  72 104 138 194 248 292 370 440
#     4  12  23  47  76 100 156 200 250 294 390 444
#     4  12  24  46  75 105 144 200 239 306 379 441
#     4  12  25  47  71 108 143 187 247 307 374 442
#
# _framework density 24.799029000000001
#
# number of rings (size 3 to 8) (size 9 to 14) (size 15 to 20)
#    0.000    0.571    8.571    1.286    2.000    0.571 
#    2.571    1.429    0.000    0.000    0.000    0.000 
#    0.000    0.000    0.000    0.000    0.000    0.000 
#
# Total GULP energy -156227.675341 kJ/mol
# GULP energy per Si atom -5579.559834 kJ/mol
# Density = 2.474258 g / cm^3
# Si number density = 24.799029 Si / 1000 Ang^3
#
#
#
# Elastic Constant Matrix: (Units=GPa)
#
#
# Indices 1 2 3 4 5 6 
#
# 1 88.3329 51.6656 5.4342 0.0000 0.0000 0.0000
# 2 51.6656 171.1123 12.3938 0.0000 0.0000 0.0000
# 3 5.4342 12.3938 8.0368 0.0000 0.0000 0.0000
# 4 0.0000 0.0000 0.0000 34.6138 0.0000 0.0000
# 5 0.0000 0.0000 0.0000 0.0000 9.2379 0.0000
# 6 0.0000 0.0000 0.0000 0.0000 0.0000 61.2402
#
#
#
# Elastic Compliance Matrix: (Units=1/GPa)
#
#
# Indices 1 2 3 4 5 6 
#
# 1 0.013825 -0.003937 -0.003277 0.000000 0.000000 0.000000
# 2 -0.003937 0.007700 -0.009213 0.000000 0.000000 0.000000
# 3 -0.003277 -0.009213 0.140850 0.000000 0.000000 0.000000
# 4 0.000000 0.000000 0.000000 0.028890 0.000000 0.000000
# 5 0.000000 0.000000 0.000000 0.000000 0.108250 0.000000
# 6 0.000000 0.000000 0.000000 0.000000 0.000000 0.016329
#
#
# Mechanical properties :
#
#
# Convention : Reuss Voigt Hill
#
# Bulk Modulus (GPa) = 7.72065 45.16323 26.44194
# Shear Modulus (GPa) = 12.75932 34.21762 23.48847
#
# Velocity S-wave (km/s) = 2.27074 3.71859 3.08092
# Velocity P-wave (km/s) = 3.16150 6.05710 4.83133
#
# Compressibility (1/GPa) = 0.12952279
#
# Stress axis : x y z
#
# Youngs Moduli (GPa) = 72.33204 129.86783 7.09976
#
# Poissons Ratio (x) = 0.51129 0.02326
# Poissons Ratio (y) = 0.28477 0.06541
# Poissons Ratio (z) = 0.23700 1.19642
#
# Static dielectric constant tensor:
#      x y z
#    x 2.002730 0.000000 0.000000 
#    y 0.000000 2.045310 0.000000 
#    z 0.000000 0.000000 1.945890 
# 
# From -- ./inp_files/6251.got.cif
#   From: 2010.05.17/outbox.cif.g08.bks.cpg/sg41_4_cif.got.tgz:6251.got - 2010.06.03 18:54:24.
