data_PCOD9367088
_publ_section_title
;
Structure prediction by ZEFSAII (Michael W. Deem and Ramdas Pophale) SiO2 
 PCOD9367088
Probable space group: A B A 2
;
_chemical_formula_sum "Si O2"
_cell_formula_units_Z 60
_cell_length_a 11.531627
_cell_length_b 19.009804
_cell_length_c 13.476619
_cell_angle_alpha 90.000000
_cell_angle_beta 90.000000
_cell_angle_gamma 90.000000
_cell_volume 2954.263141
_symmetry_space_group_name_H-M "A B A 2"
_symmetry_group_IT_number 41
_symmetry_cell_setting 'orthorhombic'
loop_
_space_group_symop_operation_xyz
x,y,z
-x,-y,z
1/2-x,y,1/2+z
1/2+x,-y,1/2+z
x,1/2+y,1/2+z
-x,1/2-y,1/2+z
1/2-x,1/2+y,z
1/2+x,1/2-y,z
loop_
_atom_site_type_symbol
_atom_site_label
_atom_site_fract_x
_atom_site_fract_y
_atom_site_fract_z
Si Si1 0.059435 0.367915 0.185460
Si Si2 0.696776 0.270047 0.154811
Si Si3 0.167269 0.108932 0.553795
Si Si4 0.221520 0.190576 0.378046
Si Si5 0.669415 0.187681 0.512441
Si Si6 0.756285 0.543604 0.584740
Si Si7 0.970821 0.869394 0.907409
Si Si8 0.500000 0.000000 0.553177
O O1 0.098030 0.290170 0.146710
O O2 0.162418 0.422504 0.158539
O O3 0.940221 0.386501 0.129103
O O4 0.040259 0.372188 0.303669
O O5 0.725384 0.342231 0.094832
O O6 0.685773 0.294208 0.267263
O O7 0.808140 0.222845 0.119473
O O8 0.138230 0.144484 0.448232
O O9 0.203698 0.028258 0.542889
O O10 0.237483 0.264029 0.435345
O O11 0.342878 0.151080 0.376899
O O12 0.717123 0.108523 0.510885
O O13 0.537580 0.186722 0.476470
O O14 0.887430 0.522333 0.616686
O O15 0.968362 0.937809 0.976534
#
# Coordination Sequence:
#
# PCOD9367088 Si02
#       8
#     8   8   8   8   8   8   8   4
#     4  11  23  41  66  99 132 180 231 284 346 411
#     4  10  22  41  61  99 131 171 221 276 341 408
#     4  11  23  40  67  98 136 175 226 286 341 410
#     4  11  21  40  64  99 134 172 227 280 343 414
#     4   9  22  39  64  91 133 171 220 281 341 404
#     4  10  22  43  63  98 135 177 226 278 348 410
#     4  11  21  39  67  96 126 177 232 280 344 422
#     4  10  22  42  66  96 130 182 222 278 346 416
#
# _framework density 20.309633999999999
#
# number of rings (size 3 to 8) (size 9 to 14) (size 15 to 20)
#    0.000    1.600    4.000    0.400    1.867    6.400 
#    2.400    0.000    0.000    0.000    0.000    0.000 
#    0.000    0.000    0.000    0.000    0.000    0.000 
#
# Total GULP energy -167049.022800 kJ/mol
# GULP energy per Si atom -5568.300760 kJ/mol
# Density = 2.026341 g / cm^3
# Si number density = 20.309634 Si / 1000 Ang^3
#
#
#
# Elastic Constant Matrix: (Units=GPa)
#
#
# Indices 1 2 3 4 5 6 
#
# 1 55.1473 12.8781 -0.7439 0.0000 0.0000 0.0000
# 2 12.8781 120.3974 15.2735 0.0000 0.0000 0.0000
# 3 -0.7439 15.2735 61.3251 0.0000 0.0000 0.0000
# 4 0.0000 0.0000 0.0000 15.8081 0.0000 0.0000
# 5 0.0000 0.0000 0.0000 0.0000 24.9492 0.0000
# 6 0.0000 0.0000 0.0000 0.0000 0.0000 26.7582
#
#
#
# Elastic Compliance Matrix: (Units=1/GPa)
#
#
# Indices 1 2 3 4 5 6 
#
# 1 0.018631 -0.002087 0.000746 0.000000 0.000000 0.000000
# 2 -0.002087 0.008811 -0.002220 0.000000 0.000000 0.000000
# 3 0.000746 -0.002220 0.016868 0.000000 0.000000 0.000000
# 4 0.000000 0.000000 0.000000 0.063259 0.000000 0.000000
# 5 0.000000 0.000000 0.000000 0.000000 0.040081 0.000000
# 6 0.000000 0.000000 0.000000 0.000000 0.000000 0.037372
#
#
# Mechanical properties :
#
#
# Convention : Reuss Voigt Hill
#
# Bulk Modulus (GPa) = 26.89081 32.40947 29.65014
# Shear Modulus (GPa) = 24.44511 27.46724 25.95617
#
# Velocity S-wave (km/s) = 3.47309 3.68152 3.57882
# Velocity P-wave (km/s) = 5.41778 5.83642 5.63099
#
# Compressibility (1/GPa) = 0.03718742
#
# Stress axis : x y z
#
# Youngs Moduli (GPa) = 53.67461 113.49844 59.28234
#
# Poissons Ratio (x) = 0.23692 -0.04422
# Poissons Ratio (y) = 0.11204 0.13159
# Poissons Ratio (z) = -0.04004 0.25193
#
# Static dielectric constant tensor:
#      x y z
#    x 1.771210 0.000000 0.000000 
#    y 0.000000 1.756700 0.000000 
#    z 0.000000 0.000000 1.728870 
# 
# From -- ./inp_files/8058.got.cif
#   From: 2010.05.17/outbox.cif.g08.bks.cpg/sg41_5_cif.got.tgz:8058.got - 2010.06.03 18:54:24.
