data_PCOD9367595
_publ_section_title
;
Structure prediction by ZEFSAII (Michael W. Deem and Ramdas Pophale) SiO2 
 PCOD9367595
Probable space group: A B A 2
;
_chemical_formula_sum "Si O2"
_cell_formula_units_Z 40
_cell_length_a 9.519884
_cell_length_b 10.716521
_cell_length_c 14.475939
_cell_angle_alpha 90.000000
_cell_angle_beta 90.000000
_cell_angle_gamma 90.000000
_cell_volume 1476.835830
_symmetry_space_group_name_H-M "A B A 2"
_symmetry_group_IT_number 41
_symmetry_cell_setting 'orthorhombic'
loop_
_space_group_symop_operation_xyz
x,y,z
-x,-y,z
1/2-x,y,1/2+z
1/2+x,-y,1/2+z
x,1/2+y,1/2+z
-x,1/2-y,1/2+z
1/2-x,1/2+y,z
1/2+x,1/2-y,z
loop_
_atom_site_type_symbol
_atom_site_label
_atom_site_fract_x
_atom_site_fract_y
_atom_site_fract_z
Si Si1 0.725281 0.985362 0.559450
Si Si2 0.024207 0.802878 0.081995
Si Si3 0.664135 0.007446 0.260064
Si Si4 0.058847 0.631876 0.925252
Si Si5 0.641892 0.239969 0.784262
O O1 0.606260 0.892515 0.598403
O O2 0.819914 0.013888 0.648793
O O3 0.797563 0.910388 0.476887
O O4 0.643025 0.111644 0.531625
O O5 0.087287 0.762601 0.179190
O O6 0.983318 0.689639 0.016746
O O7 0.720035 0.872491 0.294403
O O8 0.500000 0.000000 0.284153
O O9 0.753332 0.123590 0.297115
O O10 0.000000 0.500000 0.893019
O O11 0.994281 0.724728 0.848829
#
# Coordination Sequence:
#
# PCOD9367595 Si02
#       5
#     8   8   8   8   8
#     4  10  24  48  79 113 159 215 272 334 419 495
#     4  10  25  50  79 113 164 214 271 341 414 502
#     4  11  26  49  83 116 163 219 274 342 420 493
#     4  12  28  46  82 117 161 213 273 345 414 493
#     4  11  28  50  83 123 164 214 282 345 417 495
#
# _framework density 27.084935999999999
#
# number of rings (size 3 to 8) (size 9 to 14) (size 15 to 20)
#    0.000    1.200    2.000    0.600   11.200    3.200 
#    3.600    0.000    0.000    0.000    0.000    0.000 
#    0.000    0.000    0.000    0.000    0.000    0.000 
#
# Total GULP energy -111974.787489 kJ/mol
# GULP energy per Si atom -5598.739374 kJ/mol
# Density = 2.702329 g / cm^3
# Si number density = 27.084936 Si / 1000 Ang^3
#
#
#
# Elastic Constant Matrix: (Units=GPa)
#
#
# Indices 1 2 3 4 5 6 
#
# 1 111.8541 32.1829 21.8850 0.0000 0.0000 0.0000
# 2 32.1829 133.7622 30.6614 0.0000 0.0000 0.0000
# 3 21.8850 30.6614 111.9122 0.0000 0.0000 0.0000
# 4 0.0000 0.0000 0.0000 26.8878 0.0000 0.0000
# 5 0.0000 0.0000 0.0000 0.0000 34.8234 0.0000
# 6 0.0000 0.0000 0.0000 0.0000 0.0000 42.0769
#
#
#
# Elastic Compliance Matrix: (Units=1/GPa)
#
#
# Indices 1 2 3 4 5 6 
#
# 1 0.009794 -0.002046 -0.001355 0.000000 0.000000 0.000000
# 2 -0.002046 0.008404 -0.001903 0.000000 0.000000 0.000000
# 3 -0.001355 -0.001903 0.009722 0.000000 0.000000 0.000000
# 4 0.000000 0.000000 0.000000 0.037192 0.000000 0.000000
# 5 0.000000 0.000000 0.000000 0.000000 0.028716 0.000000
# 6 0.000000 0.000000 0.000000 0.000000 0.000000 0.023766
#
#
# Mechanical properties :
#
#
# Convention : Reuss Voigt Hill
#
# Bulk Modulus (GPa) = 57.75755 58.55412 58.15583
# Shear Modulus (GPa) = 37.32141 38.94423 38.13282
#
# Velocity S-wave (km/s) = 3.71609 3.79602 3.75627
# Velocity P-wave (km/s) = 6.30740 6.39364 6.35067
#
# Compressibility (1/GPa) = 0.01731375
#
# Stress axis : x y z
#
# Youngs Moduli (GPa) = 102.10416 118.98696 102.86221
#
# Poissons Ratio (x) = 0.24343 0.13935
# Poissons Ratio (y) = 0.20889 0.19570
# Poissons Ratio (z) = 0.13832 0.22637
#
# Static dielectric constant tensor:
#      x y z
#    x 2.131420 0.000000 0.000000 
#    y 0.000000 2.168310 0.000000 
#    z 0.000000 0.000000 2.029630 
# 
# From -- ./inp_files/7745.got.cif
#   From: 2010.05.17/outbox.cif.g08.bks.cpg/sg41_4_cif.got.tgz:7745.got - 2010.06.03 18:54:24.
