data_PCOD9367712
_publ_section_title
;
Structure prediction by ZEFSAII (Michael W. Deem and Ramdas Pophale) SiO2 
 PCOD9367712
Probable space group: A B A 2
;
_chemical_formula_sum "Si O2"
_cell_formula_units_Z 56
_cell_length_a 9.384550
_cell_length_b 13.902771
_cell_length_c 19.544870
_cell_angle_alpha 90.000000
_cell_angle_beta 90.000000
_cell_angle_gamma 90.000000
_cell_volume 2550.043612
_symmetry_space_group_name_H-M "A B A 2"
_symmetry_group_IT_number 41
_symmetry_cell_setting 'orthorhombic'
loop_
_space_group_symop_operation_xyz
x,y,z
-x,-y,z
1/2-x,y,1/2+z
1/2+x,-y,1/2+z
x,1/2+y,1/2+z
-x,1/2-y,1/2+z
1/2-x,1/2+y,z
1/2+x,1/2-y,z
loop_
_atom_site_type_symbol
_atom_site_label
_atom_site_fract_x
_atom_site_fract_y
_atom_site_fract_z
Si Si1 0.412515 0.709456 0.414500
Si Si2 0.847320 0.947946 0.527011
Si Si3 0.333754 0.028577 0.176330
Si Si4 0.172745 0.684287 0.752644
Si Si5 0.630298 0.070698 0.451002
Si Si6 0.621287 0.075098 0.864196
Si Si7 0.366057 0.362373 0.212284
O O1 0.342467 0.636685 0.470064
O O2 0.357001 0.698813 0.334885
O O3 0.406863 0.817164 0.443626
O O4 0.575595 0.672254 0.403774
O O5 0.824715 0.913535 0.604623
O O6 0.737870 0.033466 0.509011
O O7 0.000000 0.000000 0.527479
O O8 0.272279 0.093028 0.237443
O O9 0.500000 0.000000 0.187428
O O10 0.224054 0.938638 0.168426
O O11 0.262131 0.774143 0.726245
O O12 0.029837 0.673084 0.705269
O O13 0.721612 0.047000 0.383635
O O14 0.500000 0.000000 0.455800
O O15 0.613250 0.086052 0.784703
O O16 0.500000 0.000000 0.884248
#
# Coordination Sequence:
#
# PCOD9367712 Si02
#       7
#     8   8   8   8   8   8   8
#     4  11  23  43  74 100 144 181 231 291 359 415
#     4  11  25  48  70  97 143 192 234 290 362 418
#     4  11  26  46  71  99 138 192 240 293 346 427
#     4  11  24  42  72 103 139 184 232 294 361 421
#     4  12  26  39  69 113 139 178 238 288 350 432
#     4  11  21  43  68  99 143 186 220 289 359 413
#     4  11  23  43  68 102 138 180 233 290 350 417
#
# _framework density 21.960408000000001
#
# number of rings (size 3 to 8) (size 9 to 14) (size 15 to 20)
#    0.000    0.857    4.286    3.000    2.000    2.857 
#    0.000    1.429    0.000    0.000    0.000    0.000 
#    0.000    0.000    0.000    0.000    0.000    0.000 
#
# Total GULP energy -156105.072938 kJ/mol
# GULP energy per Si atom -5575.181176 kJ/mol
# Density = 2.191042 g / cm^3
# Si number density = 21.960408 Si / 1000 Ang^3
#
#
#
# Elastic Constant Matrix: (Units=GPa)
#
#
# Indices 1 2 3 4 5 6 
#
# 1 144.5060 51.2417 32.3564 0.0000 0.0000 0.0000
# 2 51.2417 136.0959 49.8046 0.0000 0.0000 0.0000
# 3 32.3564 49.8046 62.3618 0.0000 0.0000 0.0000
# 4 0.0000 0.0000 0.0000 2032.1369 0.0000 0.0000
# 5 0.0000 0.0000 0.0000 0.0000 -135.7427 0.0000
# 6 0.0000 0.0000 0.0000 0.0000 0.0000 34.8135
#
#
#
# Elastic Compliance Matrix: (Units=1/GPa)
#
#
# Indices 1 2 3 4 5 6 
#
# 1 0.008263 -0.002179 -0.002547 0.000000 0.000000 0.000000
# 2 -0.002179 0.010957 -0.007620 0.000000 0.000000 0.000000
# 3 -0.002547 -0.007620 0.023443 0.000000 0.000000 0.000000
# 4 0.000000 0.000000 0.000000 0.000492 0.000000 0.000000
# 5 0.000000 0.000000 0.000000 0.000000 -0.007367 0.000000
# 6 0.000000 0.000000 0.000000 0.000000 0.000000 0.028724
#
#
# Mechanical properties :
#
#
# Convention : Reuss Voigt Hill
#
# Bulk Modulus (GPa) = 55.64693 67.75211 61.69952
# Shear Modulus (GPa) = 52.52427 400.21227 226.36827
#
# Velocity S-wave (km/s) = 4.89588 13.51437 10.16386
# Velocity P-wave (km/s) = 7.57325 16.56613 12.88004
#
# Compressibility (1/GPa) = 0.01797044
#
# Stress axis : x y z
#
# Youngs Moduli (GPa) = 121.01947 91.26826 42.65754
#
# Poissons Ratio (x) = 0.19888 0.10865
# Poissons Ratio (y) = 0.26371 0.32504
# Poissons Ratio (z) = 0.30824 0.69545
#
# Static dielectric constant tensor:
#      x y z
#    x 1.914190 0.000000 0.000000 
#    y 0.000000 -6.173000 0.000000 
#    z 0.000000 0.000000 1.822120 
# 
# From -- ./inp_files/11209.got.cif
#   From: 2010.05.17/outbox.cif.g08.bks.cpg/sg41_6_cif.got.tgz:11209.got - 2010.06.03 18:54:24.
