data_PCOD9367610
_publ_section_title
;
Structure prediction by ZEFSAII (Michael W. Deem and Ramdas Pophale) SiO2 
 PCOD9367610
Probable space group: A B A 2
;
_chemical_formula_sum "Si O2"
_cell_formula_units_Z 56
_cell_length_a 11.704590
_cell_length_b 13.644153
_cell_length_c 14.092204
_cell_angle_alpha 90.000000
_cell_angle_beta 90.000000
_cell_angle_gamma 90.000000
_cell_volume 2250.513941
_symmetry_space_group_name_H-M "A B A 2"
_symmetry_group_IT_number 41
_symmetry_cell_setting 'orthorhombic'
loop_
_space_group_symop_operation_xyz
x,y,z
-x,-y,z
1/2-x,y,1/2+z
1/2+x,-y,1/2+z
x,1/2+y,1/2+z
-x,1/2-y,1/2+z
1/2-x,1/2+y,z
1/2+x,1/2-y,z
loop_
_atom_site_type_symbol
_atom_site_label
_atom_site_fract_x
_atom_site_fract_y
_atom_site_fract_z
Si Si1 0.500000 0.500000 0.715710
Si Si2 0.902496 0.238279 0.993140
Si Si3 0.806654 0.991649 0.576064
Si Si4 0.162652 0.064310 0.382413
Si Si5 0.000000 0.000000 0.216186
Si Si6 0.594767 0.344963 0.096183
Si Si7 0.741059 0.695031 0.171655
Si Si8 0.324795 0.908621 0.341149
O O1 0.596759 0.454361 0.648045
O O2 0.439231 0.418301 0.779459
O O3 0.847047 0.246004 0.098245
O O4 0.036415 0.216774 0.011982
O O5 0.867386 0.329956 0.926171
O O6 0.852028 0.144897 0.938232
O O7 0.772334 0.094758 0.618921
O O8 0.862739 0.004097 0.473217
O O9 0.694860 0.922155 0.569072
O O10 0.287458 0.021993 0.355977
O O11 0.095883 0.036494 0.288188
O O12 0.005779 0.908155 0.145433
O O13 0.653134 0.270315 0.168842
O O14 0.732412 0.655641 0.280190
#
# Coordination Sequence:
#
# PCOD9367610 Si02
#       8
#     4   8   8   8   4   8   8   8
#     4  10  25  43  74 106 146 210 254 330 406 498
#     4  12  27  46  78 116 156 213 279 337 414 502
#     4  11  24  48  77 107 159 208 266 332 413 475
#     4  12  26  47  75 116 155 212 269 346 401 499
#     4  12  27  47  78 112 164 206 276 332 432 472
#     4  12  27  49  78 117 159 219 268 342 413 506
#     4  11  25  48  73 114 158 210 273 333 412 504
#     4  11  26  45  74 109 158 206 269 335 414 480
#
# _framework density 24.883205
#
# number of rings (size 3 to 8) (size 9 to 14) (size 15 to 20)
#    0.000    0.571    2.857    4.714    8.000    0.000 
#    0.000    2.857    0.000    0.000    0.000    0.000 
#    0.000    0.000    0.000    0.000    0.000    0.000 
#
# Total GULP energy -156258.203389 kJ/mol
# GULP energy per Si atom -5580.650121 kJ/mol
# Density = 2.482657 g / cm^3
# Si number density = 24.883205 Si / 1000 Ang^3
#
#
#
# Elastic Constant Matrix: (Units=GPa)
#
#
# Indices 1 2 3 4 5 6 
#
# 1 83.1874 47.0231 27.2430 0.0000 0.0000 0.0000
# 2 47.0231 127.1923 10.3884 0.0000 0.0000 0.0000
# 3 27.2430 10.3884 103.8084 0.0000 0.0000 0.0000
# 4 0.0000 0.0000 0.0000 35.4086 0.0000 0.0000
# 5 0.0000 0.0000 0.0000 0.0000 33.5840 0.0000
# 6 0.0000 0.0000 0.0000 0.0000 0.0000 42.5102
#
#
#
# Elastic Compliance Matrix: (Units=1/GPa)
#
#
# Indices 1 2 3 4 5 6 
#
# 1 0.016533 -0.005805 -0.003758 0.000000 0.000000 0.000000
# 2 -0.005805 0.009965 0.000526 0.000000 0.000000 0.000000
# 3 -0.003758 0.000526 0.010567 0.000000 0.000000 0.000000
# 4 0.000000 0.000000 0.000000 0.028242 0.000000 0.000000
# 5 0.000000 0.000000 0.000000 0.000000 0.029776 0.000000
# 6 0.000000 0.000000 0.000000 0.000000 0.000000 0.023524
#
#
# Mechanical properties :
#
#
# Convention : Reuss Voigt Hill
#
# Bulk Modulus (GPa) = 52.65603 53.72191 53.18897
# Shear Modulus (GPa) = 34.96215 37.60280 36.28248
#
# Velocity S-wave (km/s) = 3.75247 3.89160 3.82266
# Velocity P-wave (km/s) = 6.32312 6.46755 6.39574
#
# Compressibility (1/GPa) = 0.01899118
#
# Stress axis : x y z
#
# Youngs Moduli (GPa) = 60.48367 100.34699 94.63705
#
# Poissons Ratio (x) = 0.58256 0.35564
# Poissons Ratio (y) = 0.35114 -0.04981
# Poissons Ratio (z) = 0.22730 -0.05281
#
# Static dielectric constant tensor:
#      x y z
#    x 2.109820 0.000000 0.000000 
#    y 0.000000 1.978770 0.000000 
#    z 0.000000 0.000000 1.985910 
# 
# From -- ./inp_files/7989.got.cif
#   From: 2010.05.17/outbox.cif.g08.bks.cpg/sg41_4_cif.got.tgz:7989.got - 2010.06.03 18:54:24.
