data_PCOD9367723
_publ_section_title
;
Structure prediction by ZEFSAII (Michael W. Deem and Ramdas Pophale) SiO2 
 PCOD9367723
Probable space group: A B A 2
;
_chemical_formula_sum "Si O2"
_cell_formula_units_Z 60
_cell_length_a 9.160657
_cell_length_b 18.423545
_cell_length_c 17.485004
_cell_angle_alpha 90.000000
_cell_angle_beta 90.000000
_cell_angle_gamma 90.000000
_cell_volume 2950.975187
_symmetry_space_group_name_H-M "A B A 2"
_symmetry_group_IT_number 41
_symmetry_cell_setting 'orthorhombic'
loop_
_space_group_symop_operation_xyz
x,y,z
-x,-y,z
1/2-x,y,1/2+z
1/2+x,-y,1/2+z
x,1/2+y,1/2+z
-x,1/2-y,1/2+z
1/2-x,1/2+y,z
1/2+x,1/2-y,z
loop_
_atom_site_type_symbol
_atom_site_label
_atom_site_fract_x
_atom_site_fract_y
_atom_site_fract_z
Si Si1 0.669119 0.029026 0.593580
Si Si2 0.908411 0.572457 0.420434
Si Si3 0.726512 0.674926 0.173094
Si Si4 0.977142 0.744168 0.080391
Si Si5 0.500000 0.500000 0.553117
Si Si6 0.553534 0.867835 0.950131
Si Si7 0.685025 0.674200 0.348693
Si Si8 0.655111 0.317993 0.948394
O O1 0.647355 0.059651 0.507151
O O2 0.693195 0.091594 0.655604
O O3 0.835356 0.991135 0.592230
O O4 0.500000 0.000000 0.608375
O O5 0.776111 0.602043 0.369888
O O6 0.000000 0.500000 0.398528
O O7 0.010578 0.643965 0.418379
O O8 0.881535 0.694722 0.135947
O O9 0.605068 0.718946 0.126450
O O10 0.715643 0.693448 0.261858
O O11 0.872570 0.801624 0.037693
O O12 0.037306 0.700096 0.007736
O O13 0.482162 0.431778 0.497328
O O14 0.479019 0.848693 0.870542
O O15 0.723180 0.879351 0.939512
O O16 0.705515 0.745261 0.403494
#
# Coordination Sequence:
#
# PCOD9367723 Si02
#       8
#     8   8   8   8   4   8   8   8
#     4  11  23  44  69  98 132 177 229 287 342 409
#     4  11  22  44  68  95 133 179 226 284 345 406
#     4  12  25  43  63  99 137 172 220 281 352 409
#     4  11  22  41  67  92 125 169 222 280 327 402
#     4  12  22  40  72  98 126 176 232 288 332 412
#     4  11  22  40  64  98 122 168 227 275 327 403
#     4  11  25  42  65  96 141 173 222 283 344 423
#     4  11  22  40  70  95 124 175 230 278 339 403
#
# _framework density 20.332262
#
# number of rings (size 3 to 8) (size 9 to 14) (size 15 to 20)
#    0.000    0.800    5.333    4.000    3.733    0.000 
#    2.400    0.000    0.000    0.000    0.000    0.000 
#    0.000    0.000    0.000    0.000    0.000    0.000 
#
# Total GULP energy -167041.298673 kJ/mol
# GULP energy per Si atom -5568.043289 kJ/mol
# Density = 2.028599 g / cm^3
# Si number density = 20.332262 Si / 1000 Ang^3
#
#
#
# Elastic Constant Matrix: (Units=GPa)
#
#
# Indices 1 2 3 4 5 6 
#
# 1 101.3353 5.3415 6.1807 0.0000 0.0000 0.0000
# 2 5.3415 55.1216 1.4292 0.0000 0.0000 0.0000
# 3 6.1807 1.4292 75.4565 0.0000 0.0000 0.0000
# 4 0.0000 0.0000 0.0000 17.6635 0.0000 0.0000
# 5 0.0000 0.0000 0.0000 0.0000 5.2029 0.0000
# 6 0.0000 0.0000 0.0000 0.0000 0.0000 31.0449
#
#
#
# Elastic Compliance Matrix: (Units=1/GPa)
#
#
# Indices 1 2 3 4 5 6 
#
# 1 0.009967 -0.000945 -0.000798 0.000000 0.000000 0.000000
# 2 -0.000945 0.018240 -0.000268 0.000000 0.000000 0.000000
# 3 -0.000798 -0.000268 0.013323 0.000000 0.000000 0.000000
# 4 0.000000 0.000000 0.000000 0.056614 0.000000 0.000000
# 5 0.000000 0.000000 0.000000 0.000000 0.192201 0.000000
# 6 0.000000 0.000000 0.000000 0.000000 0.000000 0.032211
#
#
# Mechanical properties :
#
#
# Convention : Reuss Voigt Hill
#
# Bulk Modulus (GPa) = 26.66182 28.64625 27.65404
# Shear Modulus (GPa) = 14.74571 25.37972 20.06271
#
# Velocity S-wave (km/s) = 2.69594 3.53689 3.14465
# Velocity P-wave (km/s) = 4.77832 5.54969 5.17839
#
# Compressibility (1/GPa) = 0.03750681
#
# Stress axis : x y z
#
# Youngs Moduli (GPa) = 100.33359 54.82380 75.05735
#
# Poissons Ratio (x) = 0.05181 0.05993
# Poissons Ratio (y) = 0.09483 0.02012
# Poissons Ratio (z) = 0.08012 0.01470
#
# Static dielectric constant tensor:
#      x y z
#    x 1.818470 0.000000 0.000000 
#    y 0.000000 1.819900 0.000000 
#    z 0.000000 0.000000 1.661200 
# 
# From -- ./inp_files/9768.got.cif
#   From: 2010.05.17/outbox.cif.g08.bks.cpg/sg41_5_cif.got.tgz:9768.got - 2010.06.03 18:54:24.
