data_PCOD9367014
_publ_section_title
;
Structure prediction by ZEFSAII (Michael W. Deem and Ramdas Pophale) SiO2 
 PCOD9367014
Probable space group: A B A 2
;
_chemical_formula_sum "Si O2"
_cell_formula_units_Z 40
_cell_length_a 7.648748
_cell_length_b 19.002040
_cell_length_c 10.873770
_cell_angle_alpha 90.000000
_cell_angle_beta 90.000000
_cell_angle_gamma 90.000000
_cell_volume 1580.413473
_symmetry_space_group_name_H-M "A B A 2"
_symmetry_group_IT_number 41
_symmetry_cell_setting 'orthorhombic'
loop_
_space_group_symop_operation_xyz
x,y,z
-x,-y,z
1/2-x,y,1/2+z
1/2+x,-y,1/2+z
x,1/2+y,1/2+z
-x,1/2-y,1/2+z
1/2-x,1/2+y,z
1/2+x,1/2-y,z
loop_
_atom_site_type_symbol
_atom_site_label
_atom_site_fract_x
_atom_site_fract_y
_atom_site_fract_z
Si Si1 0.144533 0.335864 0.587130
Si Si2 0.224967 0.960313 0.233604
Si Si3 0.441287 0.360846 0.422755
Si Si4 0.595338 0.900060 0.185607
Si Si5 0.163855 0.221388 0.229246
O O1 0.148666 0.418730 0.615786
O O2 0.257769 0.326289 0.465817
O O3 0.265544 0.297340 0.690995
O O4 0.954472 0.304672 0.611855
O O5 0.109184 0.929455 0.343257
O O6 0.422156 0.930682 0.248006
O O7 0.253040 0.042266 0.208408
O O8 0.545945 0.386872 0.543017
O O9 0.551916 0.304404 0.345517
O O10 0.663105 0.826566 0.235889
#
# Coordination Sequence:
#
# PCOD9367014 Si02
#       5
#     8   8   8   8   8
#     4  10  22  39  61  95 131 172 225 268 323 401
#     4   9  21  40  63  94 129 168 217 263 322 399
#     4  10  23  43  68  92 138 181 211 283 340 373
#     4  10  22  41  65  98 130 167 226 272 322 402
#     4  11  24  41  65  96 130 172 227 275 327 402
#
# _framework density 25.309830999999999
#
# number of rings (size 3 to 8) (size 9 to 14) (size 15 to 20)
#    0.000    2.000    0.000    2.400    0.000   17.600 
#    0.000    6.000    0.000    0.000    0.000    0.000 
#    0.000    0.000    0.000    0.000    0.000    0.000 
#
# Total GULP energy -111799.360003 kJ/mol
# GULP energy per Si atom -5589.968000 kJ/mol
# Density = 2.525222 g / cm^3
# Si number density = 25.309831 Si / 1000 Ang^3
#
#
#
# Elastic Constant Matrix: (Units=GPa)
#
#
# Indices 1 2 3 4 5 6 
#
# 1 94.8773 1.9098 15.2137 0.0000 0.0000 0.0000
# 2 1.9098 124.8986 5.8163 0.0000 0.0000 0.0000
# 3 15.2137 5.8163 100.3576 0.0000 0.0000 0.0000
# 4 0.0000 0.0000 0.0000 17.7507 0.0000 0.0000
# 5 0.0000 0.0000 0.0000 0.0000 58.4174 0.0000
# 6 0.0000 0.0000 0.0000 0.0000 0.0000 52.1755
#
#
#
# Elastic Compliance Matrix: (Units=1/GPa)
#
#
# Indices 1 2 3 4 5 6 
#
# 1 0.010804 -0.000089 -0.001633 0.000000 0.000000 0.000000
# 2 -0.000089 0.008029 -0.000452 0.000000 0.000000 0.000000
# 3 -0.001633 -0.000452 0.010238 0.000000 0.000000 0.000000
# 4 0.000000 0.000000 0.000000 0.056336 0.000000 0.000000
# 5 0.000000 0.000000 0.000000 0.000000 0.017118 0.000000
# 6 0.000000 0.000000 0.000000 0.000000 0.000000 0.019166
#
#
# Mechanical properties :
#
#
# Convention : Reuss Voigt Hill
#
# Bulk Modulus (GPa) = 40.44763 40.66813 40.55788
# Shear Modulus (GPa) = 37.23595 45.48161 41.35878
#
# Velocity S-wave (km/s) = 3.83979 4.24370 4.04679
# Velocity P-wave (km/s) = 5.97280 6.33364 6.15586
#
# Compressibility (1/GPa) = 0.02472333
#
# Stress axis : x y z
#
# Youngs Moduli (GPa) = 92.56248 124.55007 97.67491
#
# Poissons Ratio (x) = 0.01111 0.15946
# Poissons Ratio (y) = 0.00825 0.04413
# Poissons Ratio (z) = 0.15112 0.05627
#
# Static dielectric constant tensor:
#      x y z
#    x 2.036480 0.000000 0.000000 
#    y 0.000000 1.968490 0.000000 
#    z 0.000000 0.000000 2.033510 
# 
# From -- ./inp_files/4429.got.cif
#   From: 2010.05.17/outbox.cif.g08.bks.cpg/sg41_3_cif.got.tgz:4429.got - 2010.06.03 18:54:24.
