data_PCOD9367832
_publ_section_title
;
Structure prediction by ZEFSAII (Michael W. Deem and Ramdas Pophale) SiO2 
 PCOD9367832
Probable space group: A B A 2
;
_chemical_formula_sum "Si O2"
_cell_formula_units_Z 48
_cell_length_a 12.389544
_cell_length_b 18.180025
_cell_length_c 10.127482
_cell_angle_alpha 90.000000
_cell_angle_beta 90.000000
_cell_angle_gamma 90.000000
_cell_volume 2281.136525
_symmetry_space_group_name_H-M "A B A 2"
_symmetry_group_IT_number 41
_symmetry_cell_setting 'orthorhombic'
loop_
_space_group_symop_operation_xyz
x,y,z
-x,-y,z
1/2-x,y,1/2+z
1/2+x,-y,1/2+z
x,1/2+y,1/2+z
-x,1/2-y,1/2+z
1/2-x,1/2+y,z
1/2+x,1/2-y,z
loop_
_atom_site_type_symbol
_atom_site_label
_atom_site_fract_x
_atom_site_fract_y
_atom_site_fract_z
Si Si1 0.700813 0.224273 0.037460
Si Si2 0.825687 0.467518 0.243922
Si Si3 0.040392 0.854378 0.381661
Si Si4 0.000000 0.000000 0.972274
Si Si5 0.000000 0.000000 0.528485
Si Si6 0.200850 0.682292 0.801387
Si Si7 0.336464 0.904907 0.640977
O O1 0.701461 0.262840 0.178143
O O2 0.768360 0.148140 0.045011
O O3 0.581353 0.201617 0.992054
O O4 0.747306 0.278876 0.928108
O O5 0.762365 0.392062 0.262188
O O6 0.741880 0.533209 0.206702
O O7 0.901521 0.477672 0.373680
O O8 0.908483 0.465564 0.121672
O O9 0.047317 0.936167 0.439225
O O10 0.118513 0.853182 0.256547
O O11 0.920580 0.838195 0.337474
O O12 0.939339 0.058619 0.067033
#
# Coordination Sequence:
#
# PCOD9367832 Si02
#       7
#     8   8   8   4   4   8   8
#     4  12  28  50  72 108 156 200 241 318 385 455
#     4  11  26  47  74 110 146 193 257 309 378 450
#     4  12  26  45  76 105 146 192 255 300 384 447
#     4  11  27  42  84 106 147 195 256 314 382 450
#     4  11  23  46  76 110 143 191 250 322 366 442
#     4  12  29  46  77 110 153 198 249 313 382 463
#     4  12  25  50  73 109 148 197 249 317 374 451
#
# _framework density 21.042142999999999
#
# number of rings (size 3 to 8) (size 9 to 14) (size 15 to 20)
#    0.000    0.333    3.333    4.500    9.333    1.333 
#    0.000    0.000    0.000    0.000    0.000    0.000 
#    0.000    0.000    0.000    0.000    0.000    0.000 
#
# Total GULP energy -134283.533628 kJ/mol
# GULP energy per Si atom -5595.147235 kJ/mol
# Density = 2.099425 g / cm^3
# Si number density = 21.042143 Si / 1000 Ang^3
#
#
#
# Elastic Constant Matrix: (Units=GPa)
#
#
# Indices 1 2 3 4 5 6 
#
# 1 110.1145 51.6976 25.2572 0.0000 0.0000 0.0000
# 2 51.6976 96.0056 24.8870 0.0000 0.0000 0.0000
# 3 25.2572 24.8870 83.9165 0.0000 0.0000 0.0000
# 4 0.0000 0.0000 0.0000 20.9004 0.0000 0.0000
# 5 0.0000 0.0000 0.0000 0.0000 16.3050 0.0000
# 6 0.0000 0.0000 0.0000 0.0000 0.0000 16.5051
#
#
#
# Elastic Compliance Matrix: (Units=1/GPa)
#
#
# Indices 1 2 3 4 5 6 
#
# 1 0.012428 -0.006199 -0.001902 0.000000 0.000000 0.000000
# 2 -0.006199 0.014376 -0.002398 0.000000 0.000000 0.000000
# 3 -0.001902 -0.002398 0.013200 0.000000 0.000000 0.000000
# 4 0.000000 0.000000 0.000000 0.047846 0.000000 0.000000
# 5 0.000000 0.000000 0.000000 0.000000 0.061331 0.000000
# 6 0.000000 0.000000 0.000000 0.000000 0.000000 0.060587
#
#
# Mechanical properties :
#
#
# Convention : Reuss Voigt Hill
#
# Bulk Modulus (GPa) = 52.61442 54.85780 53.73611
# Shear Modulus (GPa) = 21.08797 23.28841 22.18819
#
# Velocity S-wave (km/s) = 3.16915 3.33040 3.25077
# Velocity P-wave (km/s) = 6.20080 6.39654 6.29943
#
# Compressibility (1/GPa) = 0.01900620
#
# Stress axis : x y z
#
# Youngs Moduli (GPa) = 80.46159 69.56114 75.75669
#
# Poissons Ratio (x) = 0.43124 0.14410
# Poissons Ratio (y) = 0.49881 0.18163
# Poissons Ratio (z) = 0.15305 0.16678
#
# Static dielectric constant tensor:
#      x y z
#    x 1.745170 0.000000 0.000000 
#    y 0.000000 1.737760 0.000000 
#    z 0.000000 0.000000 1.755490 
# 
# From -- ./inp_files/5024.got.cif
#   From: 2010.05.17/outbox.cif.g08.bks.cpg/sg41_3_cif.got.tgz:5024.got - 2010.06.03 18:54:24.
