data_PCOD9367813
_publ_section_title
;
Structure prediction by ZEFSAII (Michael W. Deem and Ramdas Pophale) SiO2 
 PCOD9367813
Probable space group: A B A 2
;
_chemical_formula_sum "Si O2"
_cell_formula_units_Z 32
_cell_length_a 9.874337
_cell_length_b 16.154108
_cell_length_c 8.764454
_cell_angle_alpha 90.000000
_cell_angle_beta 90.000000
_cell_angle_gamma 90.000000
_cell_volume 1398.027754
_symmetry_space_group_name_H-M "A B A 2"
_symmetry_group_IT_number 41
_symmetry_cell_setting 'orthorhombic'
loop_
_space_group_symop_operation_xyz
x,y,z
-x,-y,z
1/2-x,y,1/2+z
1/2+x,-y,1/2+z
x,1/2+y,1/2+z
-x,1/2-y,1/2+z
1/2-x,1/2+y,z
1/2+x,1/2-y,z
loop_
_atom_site_type_symbol
_atom_site_label
_atom_site_fract_x
_atom_site_fract_y
_atom_site_fract_z
Si Si1 0.929411 0.236425 0.510100
Si Si2 0.599072 0.928778 0.009439
Si Si3 0.158551 0.814873 0.842255
Si Si4 0.143979 0.507308 0.346955
O O1 0.884868 0.230706 0.686294
O O2 0.792755 0.226351 0.412514
O O3 0.025552 0.156985 0.483153
O O4 0.029968 0.308710 0.456729
O O5 0.615619 0.945379 0.189320
O O6 0.500000 0.000000 0.948466
O O7 0.743966 0.942609 0.936460
O O8 0.188199 0.912284 0.813170
O O9 0.000000 0.500000 0.430509
#
# Coordination Sequence:
#
# PCOD9367813 Si02
#       4
#     8   8   8   8
#     4  12  27  47  72 105 146 187 237 294 360 424
#     4  11  23  46  71  99 140 184 236 287 349 414
#     4  12  25  47  71 103 143 189 233 294 353 426
#     4  11  23  45  72 101 141 181 236 288 346 422
#
# _framework density 22.889388
#
# number of rings (size 3 to 8) (size 9 to 14) (size 15 to 20)
#    0.000    0.500    7.500    1.500    3.500    3.000 
#    4.500    0.000    0.000    0.000    0.000    0.000 
#    0.000    0.000    0.000    0.000    0.000    0.000 
#
# Total GULP energy -89573.399450 kJ/mol
# GULP energy per Si atom -5598.337466 kJ/mol
# Density = 2.283729 g / cm^3
# Si number density = 22.889388 Si / 1000 Ang^3
#
#
#
# Elastic Constant Matrix: (Units=GPa)
#
#
# Indices 1 2 3 4 5 6 
#
# 1 205.0854 24.0639 65.3865 0.0000 0.0000 0.0000
# 2 24.0639 80.5874 23.8581 0.0000 0.0000 0.0000
# 3 65.3865 23.8581 80.3416 0.0000 0.0000 0.0000
# 4 0.0000 0.0000 0.0000 -4.3889 0.0000 0.0000
# 5 0.0000 0.0000 0.0000 0.0000 50.9667 0.0000
# 6 0.0000 0.0000 0.0000 0.0000 0.0000 43.6307
#
#
#
# Elastic Compliance Matrix: (Units=1/GPa)
#
#
# Indices 1 2 3 4 5 6 
#
# 1 0.006597 -0.000417 -0.005245 0.000000 0.000000 0.000000
# 2 -0.000417 0.013631 -0.003709 0.000000 0.000000 0.000000
# 3 -0.005245 -0.003709 0.017817 0.000000 0.000000 0.000000
# 4 0.000000 0.000000 0.000000 -0.227846 0.000000 0.000000
# 5 0.000000 0.000000 0.000000 0.000000 0.019621 0.000000
# 6 0.000000 0.000000 0.000000 0.000000 0.000000 0.022920
#
#
# Mechanical properties :
#
#
# Convention : Reuss Voigt Hill
#
# Bulk Modulus (GPa) = 51.80323 65.84792 58.82558
# Shear Modulus (GPa) = -40.95577 34.88874 -3.03351
#
# Velocity S-wave (km/s) = -4.23459 3.90838 -1.15246
# Velocity P-wave (km/s) = 1.10810 7.01410 4.89743
#
# Compressibility (1/GPa) = 0.01930382
#
# Stress axis : x y z
#
# Youngs Moduli (GPa) = 151.57640 73.36032 56.12569
#
# Poissons Ratio (x) = 0.03060 0.29440
# Poissons Ratio (y) = 0.06322 0.20814
# Poissons Ratio (z) = 0.79508 0.27206
#
# Static dielectric constant tensor:
#      x y z
#    x 1.867130 0.000000 0.000000 
#    y 0.000000 1.902240 0.000000 
#    z 0.000000 0.000000 1.826360 
# 
# From -- ./inp_files/1635.got.cif
#   From: 2010.05.17/outbox.cif.g08.bks.cpg/sg41_1_cif.got.tgz:1635.got - 2010.06.03 18:54:24.
