data_PCOD9367299
_publ_section_title
;
Structure prediction by ZEFSAII (Michael W. Deem and Ramdas Pophale) SiO2 
 PCOD9367299
Probable space group: A B A 2
;
_chemical_formula_sum "Si O2"
_cell_formula_units_Z 64
_cell_length_a 32.326411
_cell_length_b 11.287877
_cell_length_c 8.314091
_cell_angle_alpha 90.000000
_cell_angle_beta 90.000000
_cell_angle_gamma 90.000000
_cell_volume 3033.783132
_symmetry_space_group_name_H-M "A B A 2"
_symmetry_group_IT_number 41
_symmetry_cell_setting 'orthorhombic'
loop_
_space_group_symop_operation_xyz
x,y,z
-x,-y,z
1/2-x,y,1/2+z
1/2+x,-y,1/2+z
x,1/2+y,1/2+z
-x,1/2-y,1/2+z
1/2-x,1/2+y,z
1/2+x,1/2-y,z
loop_
_atom_site_type_symbol
_atom_site_label
_atom_site_fract_x
_atom_site_fract_y
_atom_site_fract_z
Si Si1 0.728504 0.294359 0.120970
Si Si2 0.666978 0.639372 0.817831
Si Si3 0.617277 0.928648 0.171599
Si Si4 0.188757 0.744423 0.275627
Si Si5 0.485667 0.634156 0.342029
Si Si6 0.024551 0.618685 0.228349
Si Si7 0.608353 0.864564 0.809645
Si Si8 0.676017 0.011645 0.656220
O O1 0.706557 0.191967 0.225737
O O2 0.777253 0.281063 0.137654
O O3 0.712954 0.420272 0.186760
O O4 0.710284 0.291074 0.941910
O O5 0.641537 0.546644 0.713661
O O6 0.635082 0.747030 0.841323
O O7 0.678185 0.572570 0.982219
O O8 0.647607 0.825158 0.231655
O O9 0.572872 0.909761 0.252932
O O10 0.609648 0.929080 0.981246
O O11 0.178731 0.882419 0.281479
O O12 0.500000 0.500000 0.291667
O O13 0.483063 0.629794 0.536081
O O14 0.511965 0.752023 0.297849
O O15 0.439546 0.655481 0.271690
O O16 0.000000 0.500000 0.285110
O O17 0.633539 0.939471 0.678239
#
# Coordination Sequence:
#
# PCOD9367299 Si02
#       8
#     8   8   8   8   8   8   8   8
#     4  11  27  43  64  94 128 169 217 264 329 380
#     4  11  22  44  63  95 128 169 218 270 319 394
#     4  11  23  41  68  94 134 171 220 271 334 391
#     4  12  25  43  67  94 127 172 212 270 323 388
#     4  10  23  40  65  96 134 171 219 273 335 399
#     4  10  23  44  65  99 133 175 219 279 337 405
#     4  10  23  41  65  95 130 173 214 272 331 393
#     4  11  24  42  67  94 128 167 220 267 320 392
#
# _framework density 21.095773000000001
#
# number of rings (size 3 to 8) (size 9 to 14) (size 15 to 20)
#    0.000    1.250    2.500    2.250    5.250    2.500 
#    2.250    0.000    0.000    0.000    0.000    0.000 
#    0.000    0.000    0.000    0.000    0.000    0.000 
#
# Total GULP energy -178818.107240 kJ/mol
# GULP energy per Si atom -5588.065851 kJ/mol
# Density = 2.104776 g / cm^3
# Si number density = 21.095773 Si / 1000 Ang^3
#
#
#
# Elastic Constant Matrix: (Units=GPa)
#
#
# Indices 1 2 3 4 5 6 
#
# 1 14.2566 131.7146 -57.8039 0.0000 0.0000 0.0000
# 2 131.7146 62.0403 61.0537 0.0000 0.0000 0.0000
# 3 -57.8039 61.0537 4.6649 0.0000 0.0000 0.0000
# 4 0.0000 0.0000 0.0000 31.4216 0.0000 0.0000
# 5 0.0000 0.0000 0.0000 0.0000 24.5106 0.0000
# 6 0.0000 0.0000 0.0000 0.0000 0.0000 17.3384
#
#
#
# Elastic Compliance Matrix: (Units=1/GPa)
#
#
# Indices 1 2 3 4 5 6 
#
# 1 0.002714 0.003271 -0.009178 0.000000 0.000000 0.000000
# 2 0.003271 0.002585 0.006697 0.000000 0.000000 0.000000
# 3 -0.009178 0.006697 0.012996 0.000000 0.000000 0.000000
# 4 0.000000 0.000000 0.000000 0.031825 0.000000 0.000000
# 5 0.000000 0.000000 0.000000 0.000000 0.040799 0.000000
# 6 0.000000 0.000000 0.000000 0.000000 0.000000 0.057675
#
#
# Mechanical properties :
#
#
# Convention : Reuss Voigt Hill
#
# Bulk Modulus (GPa) = 50.32104 38.98786 44.65445
# Shear Modulus (GPa) = 32.54377 11.05395 21.79886
#
# Velocity S-wave (km/s) = 3.93194 2.29156 3.21803
# Velocity P-wave (km/s) = 6.67225 5.05205 5.91786
#
# Compressibility (1/GPa) = 0.01987240
#
# Stress axis : x y z
#
# Youngs Moduli (GPa) = 368.48879 386.87138 76.94966
#
# Poissons Ratio (x) = -1.26530 0.70625
# Poissons Ratio (y) = -1.20518 -0.51530
# Poissons Ratio (z) = 3.38201 -2.59072
#
# Static dielectric constant tensor:
#      x y z
#    x 1.757190 0.000000 0.000000 
#    y 0.000000 1.417010 0.000000 
#    z 0.000000 0.000000 1.784310 
# 
# From -- ./inp_files/3978.got.cif
#   From: 2010.05.17/outbox.cif.g08.bks.cpg/sg41_2_cif.got.tgz:3978.got - 2010.06.03 18:54:24.
