data_PCOD9367850
_publ_section_title
;
Structure prediction by ZEFSAII (Michael W. Deem and Ramdas Pophale) SiO2 
 PCOD9367850
Probable space group: A B A 2
;
_chemical_formula_sum "Si O2"
_cell_formula_units_Z 64
_cell_length_a 9.399513
_cell_length_b 29.076952
_cell_length_c 10.426523
_cell_angle_alpha 90.000000
_cell_angle_beta 90.000000
_cell_angle_gamma 90.000000
_cell_volume 2849.664538
_symmetry_space_group_name_H-M "A B A 2"
_symmetry_group_IT_number 41
_symmetry_cell_setting 'orthorhombic'
loop_
_space_group_symop_operation_xyz
x,y,z
-x,-y,z
1/2-x,y,1/2+z
1/2+x,-y,1/2+z
x,1/2+y,1/2+z
-x,1/2-y,1/2+z
1/2-x,1/2+y,z
1/2+x,1/2-y,z
loop_
_atom_site_type_symbol
_atom_site_label
_atom_site_fract_x
_atom_site_fract_y
_atom_site_fract_z
Si Si1 0.800170 0.398572 0.699660
Si Si2 0.530341 0.692402 0.552252
Si Si3 0.923990 0.120841 0.344191
Si Si4 0.330318 0.502590 0.759464
Si Si5 0.652504 0.347960 0.935610
Si Si6 0.286238 0.750790 0.466710
Si Si7 0.642983 0.530926 0.495327
Si Si8 0.875855 0.666275 0.311038
O O1 0.726920 0.448505 0.706235
O O2 0.724380 0.371069 0.813416
O O3 0.791776 0.373064 0.563489
O O4 0.966927 0.398306 0.739450
O O5 0.506788 0.662980 0.423850
O O6 0.415091 0.732449 0.552142
O O7 0.686315 0.713886 0.540434
O O8 0.534381 0.663684 0.681024
O O9 0.896623 0.081035 0.446621
O O10 0.771393 0.139327 0.298309
O O11 0.500000 0.500000 0.782466
O O12 0.298988 0.468716 0.640136
O O13 0.249284 0.490288 0.889915
O O14 0.693837 0.294176 0.934655
O O15 0.481608 0.352037 0.921363
O O16 0.343394 0.780395 0.346891
O O17 0.500000 0.500000 0.497158
#
# Coordination Sequence:
#
# PCOD9367850 Si02
#       8
#     8   8   8   8   8   8   8   8
#     4  12  27  49  76 109 149 191 243 309 378 441
#     4  11  25  44  69  99 148 188 254 309 371 436
#     4  11  27  47  71 105 149 190 243 312 373 439
#     4  11  27  48  77 108 146 191 241 300 366 454
#     4  12  27  45  76 107 146 195 251 304 374 446
#     4  11  24  43  64 102 140 198 241 314 364 436
#     4  11  25  48  76 107 148 190 240 300 374 443
#     4  11  28  43  71 104 146 196 254 304 373 445
#
# _framework density 22.458783
#
# number of rings (size 3 to 8) (size 9 to 14) (size 15 to 20)
#    0.000    0.750    3.750    1.500   12.250    0.500 
#    0.000    0.000    0.000    0.000    0.000    0.000 
#    0.000    0.000    0.000    0.000    0.000    0.000 
#
# Total GULP energy -179026.851291 kJ/mol
# GULP energy per Si atom -5594.589103 kJ/mol
# Density = 2.240767 g / cm^3
# Si number density = 22.458783 Si / 1000 Ang^3
#
#
#
# Elastic Constant Matrix: (Units=GPa)
#
#
# Indices 1 2 3 4 5 6 
#
# 1 128.9316 20.5679 35.3831 0.0000 0.0000 0.0000
# 2 20.5679 44.7967 -8.8021 0.0000 0.0000 0.0000
# 3 35.3831 -8.8021 84.7508 0.0000 0.0000 0.0000
# 4 0.0000 0.0000 0.0000 27.6028 0.0000 0.0000
# 5 0.0000 0.0000 0.0000 0.0000 21.8371 0.0000
# 6 0.0000 0.0000 0.0000 0.0000 0.0000 37.6658
#
#
#
# Elastic Compliance Matrix: (Units=1/GPa)
#
#
# Indices 1 2 3 4 5 6 
#
# 1 0.009924 -0.005482 -0.004713 0.000000 0.000000 0.000000
# 2 -0.005482 0.025817 0.004970 0.000000 0.000000 0.000000
# 3 -0.004713 0.004970 0.014283 0.000000 0.000000 0.000000
# 4 0.000000 0.000000 0.000000 0.036228 0.000000 0.000000
# 5 0.000000 0.000000 0.000000 0.000000 0.045794 0.000000
# 6 0.000000 0.000000 0.000000 0.000000 0.000000 0.026549
#
#
# Mechanical properties :
#
#
# Convention : Reuss Voigt Hill
#
# Bulk Modulus (GPa) = 25.26909 39.19745 32.23327
# Shear Modulus (GPa) = 27.43697 31.50982 29.47340
#
# Velocity S-wave (km/s) = 3.49902 3.74974 3.62654
# Velocity P-wave (km/s) = 5.25356 6.01983 5.64970
#
# Compressibility (1/GPa) = 0.03957403
#
# Stress axis : x y z
#
# Youngs Moduli (GPa) = 100.76652 38.73443 70.01344
#
# Poissons Ratio (x) = 0.21236 0.32994
# Poissons Ratio (y) = 0.55245 -0.34798
# Poissons Ratio (z) = 0.47487 -0.19252
#
# Static dielectric constant tensor:
#      x y z
#    x 1.866050 0.000000 0.000000 
#    y 0.000000 1.889170 0.000000 
#    z 0.000000 0.000000 1.835390 
# 
# From -- ./inp_files/4651.got.cif
#   From: 2010.05.17/outbox.cif.g08.bks.cpg/sg41_3_cif.got.tgz:4651.got - 2010.06.03 18:54:24.
