data_PCOD9367248
_publ_section_title
;
Structure prediction by ZEFSAII (Michael W. Deem and Ramdas Pophale) SiO2 
 PCOD9367248
Probable space group: A B A 2
;
_chemical_formula_sum "Si O2"
_cell_formula_units_Z 48
_cell_length_a 8.770724
_cell_length_b 24.599261
_cell_length_c 8.939858
_cell_angle_alpha 90.000000
_cell_angle_beta 90.000000
_cell_angle_gamma 90.000000
_cell_volume 1928.804123
_symmetry_space_group_name_H-M "A B A 2"
_symmetry_group_IT_number 41
_symmetry_cell_setting 'orthorhombic'
loop_
_space_group_symop_operation_xyz
x,y,z
-x,-y,z
1/2-x,y,1/2+z
1/2+x,-y,1/2+z
x,1/2+y,1/2+z
-x,1/2-y,1/2+z
1/2-x,1/2+y,z
1/2+x,1/2-y,z
loop_
_atom_site_type_symbol
_atom_site_label
_atom_site_fract_x
_atom_site_fract_y
_atom_site_fract_z
Si Si1 0.393760 0.354996 0.073020
Si Si2 0.379286 0.930768 0.102658
Si Si3 0.073913 0.559894 0.366918
Si Si4 0.433771 0.204057 0.804721
Si Si5 0.210736 0.750354 0.501881
Si Si6 0.342318 0.498227 0.309221
O O1 0.226514 0.378576 0.103435
O O2 0.494790 0.347751 0.221181
O O3 0.487321 0.394920 0.964751
O O4 0.344238 0.295989 0.011064
O O5 0.532328 0.924358 0.195658
O O6 0.279785 0.972792 0.199102
O O7 0.386024 0.956254 0.940266
O O8 0.254729 0.550011 0.377485
O O9 0.000000 0.500000 0.398860
O O10 0.579867 0.229988 0.888274
O O11 0.299210 0.199436 0.926500
O O12 0.359704 0.237831 0.664939
O O13 0.500000 0.500000 0.222247
#
# Coordination Sequence:
#
# PCOD9367248 Si02
#       6
#     8   8   8   8   8   8
#     4  12  24  45  78 106 147 202 256 308 399 448
#     4  11  23  43  70 103 138 196 247 295 368 448
#     4  10  22  45  69 105 147 188 248 296 366 458
#     4  12  25  47  77 106 149 196 251 324 387 464
#     4  12  25  48  75 110 150 197 254 325 390 456
#     4  11  24  42  70 100 149 195 235 307 366 437
#
# _framework density 24.885887
#
# number of rings (size 3 to 8) (size 9 to 14) (size 15 to 20)
#    0.000    0.667    6.667    2.500    2.333    0.000 
#    3.000    1.667    0.000    0.000    0.000    0.000 
#    0.000    0.000    0.000    0.000    0.000    0.000 
#
# Total GULP energy -134114.406435 kJ/mol
# GULP energy per Si atom -5588.100268 kJ/mol
# Density = 2.482925 g / cm^3
# Si number density = 24.885887 Si / 1000 Ang^3
#
#
#
# Elastic Constant Matrix: (Units=GPa)
#
#
# Indices 1 2 3 4 5 6 
#
# 1 112.4597 20.2247 19.6591 0.0000 0.0000 0.0000
# 2 20.2247 63.9791 10.9531 0.0000 0.0000 0.0000
# 3 19.6591 10.9531 97.8815 0.0000 0.0000 0.0000
# 4 0.0000 0.0000 0.0000 34.4759 0.0000 0.0000
# 5 0.0000 0.0000 0.0000 0.0000 41.5327 0.0000
# 6 0.0000 0.0000 0.0000 0.0000 0.0000 40.8564
#
#
#
# Elastic Compliance Matrix: (Units=1/GPa)
#
#
# Indices 1 2 3 4 5 6 
#
# 1 0.009677 -0.002780 -0.001633 0.000000 0.000000 0.000000
# 2 -0.002780 0.016734 -0.001314 0.000000 0.000000 0.000000
# 3 -0.001633 -0.001314 0.010691 0.000000 0.000000 0.000000
# 4 0.000000 0.000000 0.000000 0.029006 0.000000 0.000000
# 5 0.000000 0.000000 0.000000 0.000000 0.024077 0.000000
# 6 0.000000 0.000000 0.000000 0.000000 0.000000 0.024476
#
#
# Mechanical properties :
#
#
# Convention : Reuss Voigt Hill
#
# Bulk Modulus (GPa) = 38.98708 41.77711 40.38210
# Shear Modulus (GPa) = 37.12930 38.27191 37.70060
#
# Velocity S-wave (km/s) = 3.86681 3.92586 3.89644
# Velocity P-wave (km/s) = 5.96964 6.11340 6.04195
#
# Compressibility (1/GPa) = 0.02564952
#
# Stress axis : x y z
#
# Youngs Moduli (GPa) = 103.33392 59.75930 93.53311
#
# Poissons Ratio (x) = 0.16611 0.15270
# Poissons Ratio (y) = 0.28723 0.12293
# Poissons Ratio (z) = 0.16870 0.07854
#
# Static dielectric constant tensor:
#      x y z
#    x 2.168290 0.000000 0.000000 
#    y 0.000000 2.139320 0.000000 
#    z 0.000000 0.000000 2.003440 
# 
# From -- ./inp_files/1812.got.cif
#   From: 2010.05.17/outbox.cif.g08.bks.cpg/sg41_1_cif.got.tgz:1812.got - 2010.06.03 18:54:24.
