data_PCOD9367572
_publ_section_title
;
Structure prediction by ZEFSAII (Michael W. Deem and Ramdas Pophale) SiO2 
 PCOD9367572
Probable space group: A B A 2
;
_chemical_formula_sum "Si O2"
_cell_formula_units_Z 40
_cell_length_a 14.118715
_cell_length_b 9.109069
_cell_length_c 11.636602
_cell_angle_alpha 90.000000
_cell_angle_beta 90.000000
_cell_angle_gamma 90.000000
_cell_volume 1496.564173
_symmetry_space_group_name_H-M "A B A 2"
_symmetry_group_IT_number 41
_symmetry_cell_setting 'orthorhombic'
loop_
_space_group_symop_operation_xyz
x,y,z
-x,-y,z
1/2-x,y,1/2+z
1/2+x,-y,1/2+z
x,1/2+y,1/2+z
-x,1/2-y,1/2+z
1/2-x,1/2+y,z
1/2+x,1/2-y,z
loop_
_atom_site_type_symbol
_atom_site_label
_atom_site_fract_x
_atom_site_fract_y
_atom_site_fract_z
Si Si1 0.070566 0.795145 0.721480
Si Si2 0.344512 0.458886 0.938497
Si Si3 0.371566 0.307301 0.155461
Si Si4 0.807142 0.444161 0.801210
Si Si5 0.354771 0.499785 0.532464
O O1 0.098526 0.881824 0.836591
O O2 0.149483 0.669703 0.713974
O O3 0.081139 0.896535 0.609273
O O4 0.966173 0.731333 0.725218
O O5 0.292736 0.590427 0.865285
O O6 0.242087 0.413643 0.996998
O O7 0.402781 0.417592 0.051670
O O8 0.301799 0.400575 0.236996
O O9 0.338794 0.151114 0.102165
O O10 0.883820 0.451803 0.904793
#
# Coordination Sequence:
#
# PCOD9367572 Si02
#       5
#     8   8   8   8   8
#     4  12  25  47  80 118 156 206 265 331 395 459
#     4  10  24  46  75 106 152 210 250 314 392 464
#     4  12  25  47  80 118 156 206 265 331 395 459
#     4  10  26  48  75 107 160 205 262 314 398 470
#     4  10  26  48  75 107 160 205 262 314 398 470
#
# _framework density 26.727888
#
# number of rings (size 3 to 8) (size 9 to 14) (size 15 to 20)
#    1.200    0.000    2.000    2.400    2.800   11.200 
#    3.600    2.000    0.000    0.000    0.000    0.000 
#    0.000    0.000    0.000    0.000    0.000    0.000 
#
# Total GULP energy -111427.016631 kJ/mol
# GULP energy per Si atom -5571.350832 kJ/mol
# Density = 2.666705 g / cm^3
# Si number density = 26.727888 Si / 1000 Ang^3
#
#
#
# Elastic Constant Matrix: (Units=GPa)
#
#
# Indices 1 2 3 4 5 6 
#
# 1 103.4560 27.2953 25.9993 0.0000 0.0000 0.0000
# 2 27.2953 114.5617 32.5015 0.0000 0.0000 0.0000
# 3 25.9993 32.5015 121.0587 0.0000 0.0000 0.0000
# 4 0.0000 0.0000 0.0000 34.3585 0.0000 0.0000
# 5 0.0000 0.0000 0.0000 0.0000 34.5492 0.0000
# 6 0.0000 0.0000 0.0000 0.0000 0.0000 36.6935
#
#
#
# Elastic Compliance Matrix: (Units=1/GPa)
#
#
# Indices 1 2 3 4 5 6 
#
# 1 0.010641 -0.002043 -0.001737 0.000000 0.000000 0.000000
# 2 -0.002043 0.009841 -0.002203 0.000000 0.000000 0.000000
# 3 -0.001737 -0.002203 0.009225 0.000000 0.000000 0.000000
# 4 0.000000 0.000000 0.000000 0.029105 0.000000 0.000000
# 5 0.000000 0.000000 0.000000 0.000000 0.028944 0.000000
# 6 0.000000 0.000000 0.000000 0.000000 0.000000 0.027253
#
#
# Mechanical properties :
#
#
# Convention : Reuss Voigt Hill
#
# Bulk Modulus (GPa) = 56.36586 56.74096 56.55341
# Shear Modulus (GPa) = 37.62551 38.00560 37.81556
#
# Velocity S-wave (km/s) = 3.75604 3.77496 3.76551
# Velocity P-wave (km/s) = 6.32020 6.34631 6.33327
#
# Compressibility (1/GPa) = 0.01774124
#
# Stress axis : x y z
#
# Youngs Moduli (GPa) = 93.97279 101.61905 108.40047
#
# Poissons Ratio (x) = 0.20757 0.18829
# Poissons Ratio (y) = 0.19195 0.23884
# Poissons Ratio (z) = 0.16323 0.22390
#
# Static dielectric constant tensor:
#      x y z
#    x 2.063650 0.000000 0.000000 
#    y 0.000000 2.227650 0.000000 
#    z 0.000000 0.000000 2.245740 
# 
# From -- ./inp_files/5387.got.cif
#   From: 2010.05.17/outbox.cif.g08.bks.cpg/sg41_3_cif.got.tgz:5387.got - 2010.06.03 18:54:24.
