data_PCOD9367522
_publ_section_title
;
Structure prediction by ZEFSAII (Michael W. Deem and Ramdas Pophale) SiO2 
 PCOD9367522
Probable space group: A B A 2
;
_chemical_formula_sum "Si O2"
_cell_formula_units_Z 60
_cell_length_a 26.814336
_cell_length_b 10.496171
_cell_length_c 9.035660
_cell_angle_alpha 90.000000
_cell_angle_beta 90.000000
_cell_angle_gamma 90.000000
_cell_volume 2543.067134
_symmetry_space_group_name_H-M "A B A 2"
_symmetry_group_IT_number 41
_symmetry_cell_setting 'orthorhombic'
loop_
_space_group_symop_operation_xyz
x,y,z
-x,-y,z
1/2-x,y,1/2+z
1/2+x,-y,1/2+z
x,1/2+y,1/2+z
-x,1/2-y,1/2+z
1/2-x,1/2+y,z
1/2+x,1/2-y,z
loop_
_atom_site_type_symbol
_atom_site_label
_atom_site_fract_x
_atom_site_fract_y
_atom_site_fract_z
Si Si1 0.718040 0.221023 0.655830
Si Si2 0.185476 0.067070 0.416566
Si Si3 0.610230 0.240267 0.765138
Si Si4 0.084847 0.535815 0.755567
Si Si5 0.558235 0.225529 0.084669
Si Si6 0.000000 0.500000 0.994994
Si Si7 0.128638 0.482766 0.182840
Si Si8 0.279671 0.919267 0.362953
O O1 0.706796 0.333929 0.538863
O O2 0.670274 0.223070 0.763109
O O3 0.719631 0.107895 0.536209
O O4 0.766300 0.203500 0.759726
O O5 0.138887 0.092473 0.306515
O O6 0.159073 0.968220 0.530013
O O7 0.233085 0.011146 0.334577
O O8 0.603277 0.377790 0.687921
O O9 0.592214 0.107157 0.691622
O O10 0.584232 0.243576 0.924668
O O11 0.056113 0.635227 0.653191
O O12 0.049449 0.517814 0.897232
O O13 0.592171 0.135625 0.188495
O O14 0.509645 0.135944 0.072954
O O15 0.168454 0.476382 0.313407
#
# Coordination Sequence:
#
# PCOD9367522 Si02
#       8
#     8   8   8   8   8   4   8   8
#     4  11  25  39  60  96 142 186 243 294 338 411
#     4  11  23  42  63  96 141 189 235 295 344 415
#     4  10  24  44  66 100 138 181 231 294 345 418
#     4  11  23  48  75 102 138 185 229 297 371 430
#     4  11  24  48  75 100 139 182 229 298 364 435
#     4  10  24  46  72 106 140 172 228 302 372 438
#     4  11  23  42  69  98 144 189 236 287 354 409
#     4  12  24  39  62 100 140 197 243 288 339 418
#
# _framework density 23.593558999999999
#
# number of rings (size 3 to 8) (size 9 to 14) (size 15 to 20)
#    0.000    1.067    5.333    0.800    5.600    2.133 
#    0.000    0.000    0.000    0.000    0.000    0.000 
#    0.000    0.000    0.000    0.000    0.000    0.000 
#
# Total GULP energy -167412.009287 kJ/mol
# GULP energy per Si atom -5580.400310 kJ/mol
# Density = 2.353986 g / cm^3
# Si number density = 23.593559 Si / 1000 Ang^3
#
#
#
# Elastic Constant Matrix: (Units=GPa)
#
#
# Indices 1 2 3 4 5 6 
#
# 1 77.0204 -0.6990 -1.4073 0.0000 0.0000 0.0000
# 2 -0.6990 105.0013 8.4740 0.0000 0.0000 0.0000
# 3 -1.4073 8.4740 72.4561 0.0000 0.0000 0.0000
# 4 0.0000 0.0000 0.0000 14.4788 0.0000 0.0000
# 5 0.0000 0.0000 0.0000 0.0000 31.7153 0.0000
# 6 0.0000 0.0000 0.0000 0.0000 0.0000 19.6057
#
#
#
# Elastic Compliance Matrix: (Units=1/GPa)
#
#
# Indices 1 2 3 4 5 6 
#
# 1 0.012989 0.000067 0.000244 0.000000 0.000000 0.000000
# 2 0.000067 0.009615 -0.001123 0.000000 0.000000 0.000000
# 3 0.000244 -0.001123 0.013938 0.000000 0.000000 0.000000
# 4 0.000000 0.000000 0.000000 0.069067 0.000000 0.000000
# 5 0.000000 0.000000 0.000000 0.000000 0.031530 0.000000
# 6 0.000000 0.000000 0.000000 0.000000 0.000000 0.051006
#
#
# Mechanical properties :
#
#
# Convention : Reuss Voigt Hill
#
# Bulk Modulus (GPa) = 28.63929 29.69034 29.16482
# Shear Modulus (GPa) = 24.82540 29.70063 27.26302
#
# Velocity S-wave (km/s) = 3.24730 3.55187 3.40299
# Velocity P-wave (km/s) = 5.12102 5.42517 5.27529
#
# Compressibility (1/GPa) = 0.03491706
#
# Stress axis : x y z
#
# Youngs Moduli (GPa) = 76.99033 104.00653 71.74848
#
# Poissons Ratio (x) = -0.00694 -0.01754
# Poissons Ratio (y) = -0.00514 0.08059
# Poissons Ratio (z) = -0.01882 0.11682
#
# Static dielectric constant tensor:
#      x y z
#    x 1.908360 0.000000 0.000000 
#    y 0.000000 2.050090 0.000000 
#    z 0.000000 0.000000 1.870670 
# 
# From -- ./inp_files/3965.got.cif
#   From: 2010.05.17/outbox.cif.g08.bks.cpg/sg41_2_cif.got.tgz:3965.got - 2010.06.03 18:54:24.
