data_PCOD9367416
_publ_section_title
;
Structure prediction by ZEFSAII (Michael W. Deem and Ramdas Pophale) SiO2 
 PCOD9367416
Probable space group: A B A 2
;
_chemical_formula_sum "Si O2"
_cell_formula_units_Z 48
_cell_length_a 14.818603
_cell_length_b 10.090044
_cell_length_c 13.760966
_cell_angle_alpha 90.000000
_cell_angle_beta 90.000000
_cell_angle_gamma 90.000000
_cell_volume 2057.544539
_symmetry_space_group_name_H-M "A B A 2"
_symmetry_group_IT_number 41
_symmetry_cell_setting 'orthorhombic'
loop_
_space_group_symop_operation_xyz
x,y,z
-x,-y,z
1/2-x,y,1/2+z
1/2+x,-y,1/2+z
x,1/2+y,1/2+z
-x,1/2-y,1/2+z
1/2-x,1/2+y,z
1/2+x,1/2-y,z
loop_
_atom_site_type_symbol
_atom_site_label
_atom_site_fract_x
_atom_site_fract_y
_atom_site_fract_z
Si Si1 0.000000 0.000000 0.557670
Si Si2 0.309850 0.408608 0.919309
Si Si3 0.158591 0.135007 0.219524
Si Si4 0.827428 0.882724 0.451686
Si Si5 0.213178 0.355589 0.714469
Si Si6 0.518605 0.711212 0.132031
Si Si7 0.000000 0.000000 0.958333
O O1 0.009656 0.864239 0.617924
O O2 0.913048 0.960636 0.493451
O O3 0.320955 0.272462 0.980155
O O4 0.259419 0.528603 0.971839
O O5 0.244843 0.371292 0.827973
O O6 0.409203 0.470043 0.896353
O O7 0.165621 0.129723 0.335455
O O8 0.209223 0.260882 0.175860
O O9 0.054125 0.140491 0.199126
O O10 0.207056 0.005270 0.179888
O O11 0.115300 0.297184 0.686320
O O12 0.503016 0.627493 0.031483
#
# Coordination Sequence:
#
# PCOD9367416 Si02
#       7
#     4   8   8   8   8   8   4
#     4  12  28  43  71 116 150 190 250 320 392 442
#     4  10  24  45  72 106 147 200 252 308 379 469
#     4  10  23  45  72 101 142 203 244 307 368 465
#     4  10  24  45  70 106 143 203 248 306 373 470
#     4  10  23  46  69 104 145 195 253 299 380 457
#     4  12  26  46  74 105 153 195 245 322 388 453
#     4  12  24  47  71 110 148 196 248 328 390 446
#
# _framework density 23.328776999999999
#
# number of rings (size 3 to 8) (size 9 to 14) (size 15 to 20)
#    0.000    1.333    3.333    0.000    9.333    2.667 
#   15.000    0.000    0.000    0.000    0.000    0.000 
#    0.000    0.000    0.000    0.000    0.000    0.000 
#
# Total GULP energy -133850.076111 kJ/mol
# GULP energy per Si atom -5577.086505 kJ/mol
# Density = 2.327568 g / cm^3
# Si number density = 23.328777 Si / 1000 Ang^3
#
#
#
# Elastic Constant Matrix: (Units=GPa)
#
#
# Indices 1 2 3 4 5 6 
#
# 1 137.8668 37.5736 30.7511 0.0000 0.0000 0.0000
# 2 37.5736 142.9615 19.8412 0.0000 0.0000 0.0000
# 3 30.7511 19.8412 86.9515 0.0000 0.0000 0.0000
# 4 0.0000 0.0000 0.0000 11.2225 0.0000 0.0000
# 5 0.0000 0.0000 0.0000 0.0000 60.8668 0.0000
# 6 0.0000 0.0000 0.0000 0.0000 0.0000 48.8893
#
#
#
# Elastic Compliance Matrix: (Units=1/GPa)
#
#
# Indices 1 2 3 4 5 6 
#
# 1 0.008316 -0.001836 -0.002522 0.000000 0.000000 0.000000
# 2 -0.001836 0.007629 -0.001092 0.000000 0.000000 0.000000
# 3 -0.002522 -0.001092 0.012642 0.000000 0.000000 0.000000
# 4 0.000000 0.000000 0.000000 0.089107 0.000000 0.000000
# 5 0.000000 0.000000 0.000000 0.000000 0.016429 0.000000
# 6 0.000000 0.000000 0.000000 0.000000 0.000000 0.020454
#
#
# Mechanical properties :
#
#
# Convention : Reuss Voigt Hill
#
# Bulk Modulus (GPa) = 56.53595 60.45685 58.49640
# Shear Modulus (GPa) = 29.17627 42.83664 36.00645
#
# Velocity S-wave (km/s) = 3.54030 4.28976 3.93292
# Velocity P-wave (km/s) = 6.40302 7.10686 6.76410
#
# Compressibility (1/GPa) = 0.01768786
#
# Stress axis : x y z
#
# Youngs Moduli (GPa) = 120.24663 131.08144 79.10290
#
# Poissons Ratio (x) = 0.24062 0.19952
# Poissons Ratio (y) = 0.22073 0.08635
# Poissons Ratio (z) = 0.30329 0.14309
#
# Static dielectric constant tensor:
#      x y z
#    x 1.862040 0.000000 0.000000 
#    y 0.000000 1.984070 0.000000 
#    z 0.000000 0.000000 1.958410 
# 
# From -- ./inp_files/10325.got.cif
#   From: 2010.05.17/outbox.cif.g08.bks.cpg/sg41_6_cif.got.tgz:10325.got - 2010.06.03 18:54:24.
