data_PCOD9367025
_publ_section_title
;
Structure prediction by ZEFSAII (Michael W. Deem and Ramdas Pophale) SiO2 
 PCOD9367025
Probable space group: A B A 2
;
_chemical_formula_sum "Si O2"
_cell_formula_units_Z 44
_cell_length_a 9.016480
_cell_length_b 10.798974
_cell_length_c 20.062806
_cell_angle_alpha 90.000000
_cell_angle_beta 90.000000
_cell_angle_gamma 90.000000
_cell_volume 1953.490002
_symmetry_space_group_name_H-M "A B A 2"
_symmetry_group_IT_number 41
_symmetry_cell_setting 'orthorhombic'
loop_
_space_group_symop_operation_xyz
x,y,z
-x,-y,z
1/2-x,y,1/2+z
1/2+x,-y,1/2+z
x,1/2+y,1/2+z
-x,1/2-y,1/2+z
1/2-x,1/2+y,z
1/2+x,1/2-y,z
loop_
_atom_site_type_symbol
_atom_site_label
_atom_site_fract_x
_atom_site_fract_y
_atom_site_fract_z
Si Si1 0.500000 0.000000 0.213660
Si Si2 0.413648 0.621866 0.497810
Si Si3 0.602302 0.733431 0.162362
Si Si4 0.638268 0.800427 0.572178
Si Si5 0.001604 0.635915 0.846460
Si Si6 0.784896 0.661465 0.290783
O O1 0.451987 0.121879 0.171068
O O2 0.632794 0.040260 0.263322
O O3 0.500000 0.500000 0.519162
O O4 0.517285 0.731318 0.526874
O O5 0.246769 0.618546 0.526366
O O6 0.420447 0.628305 0.418111
O O7 0.736792 0.719485 0.109972
O O8 0.463451 0.655694 0.134256
O O9 0.674259 0.698170 0.231732
O O10 0.825424 0.659332 0.853688
O O11 0.000000 0.500000 0.814058
O O12 0.089998 0.737483 0.805002
#
# Coordination Sequence:
#
# PCOD9367025 Si02
#       6
#     4   8   8   8   8   8
#     4  12  24  40  66  96 140 176 220 270 352 396
#     4  10  23  44  66  92 131 178 222 279 330 390
#     4  11  22  40  64  96 129 173 216 274 335 397
#     4  10  22  39  65  91 128 170 218 269 325 398
#     4  11  24  42  69  97 134 180 230 276 342 396
#     4  12  23  43  68 101 136 177 222 288 333 413
#
# _framework density 22.523792
#
# number of rings (size 3 to 8) (size 9 to 14) (size 15 to 20)
#    0.000    1.091    3.636    2.182    5.091    0.000 
#    0.000    7.273    0.000    0.000    0.000    0.000 
#    0.000    0.000    0.000    0.000    0.000    0.000 
#
# Total GULP energy -122656.321268 kJ/mol
# GULP energy per Si atom -5575.287330 kJ/mol
# Density = 2.247253 g / cm^3
# Si number density = 22.523792 Si / 1000 Ang^3
#
#
#
# Elastic Constant Matrix: (Units=GPa)
#
#
# Indices 1 2 3 4 5 6 
#
# 1 156.0457 35.3214 26.0627 0.0000 0.0000 0.0000
# 2 35.3214 69.2535 14.2003 0.0000 0.0000 0.0000
# 3 26.0627 14.2003 70.0853 0.0000 0.0000 0.0000
# 4 0.0000 0.0000 0.0000 19.6172 0.0000 0.0000
# 5 0.0000 0.0000 0.0000 0.0000 43.3234 0.0000
# 6 0.0000 0.0000 0.0000 0.0000 0.0000 40.1042
#
#
#
# Elastic Compliance Matrix: (Units=1/GPa)
#
#
# Indices 1 2 3 4 5 6 
#
# 1 0.007533 -0.003409 -0.002110 0.000000 0.000000 0.000000
# 2 -0.003409 0.016608 -0.002097 0.000000 0.000000 0.000000
# 3 -0.002110 -0.002097 0.015478 0.000000 0.000000 0.000000
# 4 0.000000 0.000000 0.000000 0.050976 0.000000 0.000000
# 5 0.000000 0.000000 0.000000 0.000000 0.023082 0.000000
# 6 0.000000 0.000000 0.000000 0.000000 0.000000 0.024935
#
#
# Mechanical properties :
#
#
# Convention : Reuss Voigt Hill
#
# Bulk Modulus (GPa) = 41.00817 49.61702 45.31259
# Shear Modulus (GPa) = 30.86913 35.26231 33.06572
#
# Velocity S-wave (km/s) = 3.70606 3.96101 3.83565
# Velocity P-wave (km/s) = 6.04643 6.55713 6.30695
#
# Compressibility (1/GPa) = 0.02438538
#
# Stress axis : x y z
#
# Youngs Moduli (GPa) = 132.75785 60.21017 64.60744
#
# Poissons Ratio (x) = 0.20526 0.13635
# Poissons Ratio (y) = 0.45258 0.13551
# Poissons Ratio (z) = 0.28017 0.12628
#
# Static dielectric constant tensor:
#      x y z
#    x 1.875500 0.000000 0.000000 
#    y 0.000000 1.864640 0.000000 
#    z 0.000000 0.000000 1.929510 
# 
# From -- ./inp_files/11948.got.cif
#   From: 2010.05.17/outbox.cif.g08.bks.cpg/sg41_6_cif.got.tgz:11948.got - 2010.06.03 18:54:24.
