data_PCOD9367689
_publ_section_title
;
Structure prediction by ZEFSAII (Michael W. Deem and Ramdas Pophale) SiO2 
 PCOD9367689
Probable space group: A B A 2
;
_chemical_formula_sum "Si O2"
_cell_formula_units_Z 60
_cell_length_a 8.252181
_cell_length_b 21.296193
_cell_length_c 16.501026
_cell_angle_alpha 90.000000
_cell_angle_beta 90.000000
_cell_angle_gamma 90.000000
_cell_volume 2899.890957
_symmetry_space_group_name_H-M "A B A 2"
_symmetry_group_IT_number 41
_symmetry_cell_setting 'orthorhombic'
loop_
_space_group_symop_operation_xyz
x,y,z
-x,-y,z
1/2-x,y,1/2+z
1/2+x,-y,1/2+z
x,1/2+y,1/2+z
-x,1/2-y,1/2+z
1/2-x,1/2+y,z
1/2+x,1/2-y,z
loop_
_atom_site_type_symbol
_atom_site_label
_atom_site_fract_x
_atom_site_fract_y
_atom_site_fract_z
Si Si1 0.503471 0.934118 0.827220
Si Si2 0.243746 0.268052 0.710582
Si Si3 0.347458 0.042227 0.654863
Si Si4 0.856588 0.610263 0.292950
Si Si5 0.000000 0.000000 0.692108
Si Si6 0.481797 0.316024 0.940026
Si Si7 0.051700 0.681236 0.618067
Si Si8 0.177271 0.192183 0.369592
O O1 0.618865 0.949784 0.750983
O O2 0.323937 0.917626 0.796455
O O3 0.573127 0.870750 0.864598
O O4 0.500000 0.000000 0.875966
O O5 0.353420 0.325946 0.740420
O O6 0.310667 0.233492 0.631050
O O7 0.248843 0.216830 0.783361
O O8 0.071588 0.299872 0.690706
O O9 0.168643 0.012795 0.644107
O O10 0.369386 0.112756 0.623332
O O11 0.500000 0.000000 0.624754
O O12 0.904226 0.630366 0.383766
O O13 0.970102 0.560092 0.249567
O O14 0.425495 0.249704 0.903919
O O15 0.673142 0.320561 0.927838
O O16 0.452078 0.317779 0.035124
#
# Coordination Sequence:
#
# PCOD9367689 Si02
#       8
#     8   8   8   8   4   8   8   8
#     4  11  20  40  68  96 129 164 224 291 328 384
#     4  11  21  37  66  93 125 171 229 276 333 402
#     4  11  22  42  66  99 134 171 225 286 331 396
#     4  11  22  39  65  99 125 174 227 275 336 406
#     4  12  22  40  74  98 126 176 230 280 326 404
#     4  11  25  39  63  95 139 174 217 279 356 405
#     4  12  24  41  62  99 135 176 218 290 350 405
#     4  11  21  42  63  94 129 175 225 279 326 413
#
# _framework density 20.690432999999999
#
# number of rings (size 3 to 8) (size 9 to 14) (size 15 to 20)
#    0.000    0.800    5.333    4.800    1.867    0.000 
#    1.200    0.000    1.467    0.000    0.000    0.000 
#    0.000    0.000    0.000    0.000    0.000    0.000 
#
# Total GULP energy -167491.469801 kJ/mol
# GULP energy per Si atom -5583.048993 kJ/mol
# Density = 2.064334 g / cm^3
# Si number density = 20.690433 Si / 1000 Ang^3
#
#
#
# Elastic Constant Matrix: (Units=GPa)
#
#
# Indices 1 2 3 4 5 6 
#
# 1 107.3720 41.0988 11.1659 0.0000 0.0000 0.0000
# 2 41.0988 143.4737 31.4372 0.0000 0.0000 0.0000
# 3 11.1659 31.4372 52.7772 0.0000 0.0000 0.0000
# 4 0.0000 0.0000 0.0000 13.7340 0.0000 0.0000
# 5 0.0000 0.0000 0.0000 0.0000 16.1594 0.0000
# 6 0.0000 0.0000 0.0000 0.0000 0.0000 39.2029
#
#
#
# Elastic Compliance Matrix: (Units=1/GPa)
#
#
# Indices 1 2 3 4 5 6 
#
# 1 0.010471 -0.002892 -0.000493 0.000000 0.000000 0.000000
# 2 -0.002892 0.008815 -0.004639 0.000000 0.000000 0.000000
# 3 -0.000493 -0.004639 0.021815 0.000000 0.000000 0.000000
# 4 0.000000 0.000000 0.000000 0.072812 0.000000 0.000000
# 5 0.000000 0.000000 0.000000 0.000000 0.061884 0.000000
# 6 0.000000 0.000000 0.000000 0.000000 0.000000 0.025508
#
#
# Mechanical properties :
#
#
# Convention : Reuss Voigt Hill
#
# Bulk Modulus (GPa) = 39.91311 52.33629 46.12470
# Shear Modulus (GPa) = 22.15299 28.48066 25.31682
#
# Velocity S-wave (km/s) = 3.27569 3.71416 3.50179
# Velocity P-wave (km/s) = 5.79994 6.61386 6.22023
#
# Compressibility (1/GPa) = 0.02505442
#
# Stress axis : x y z
#
# Youngs Moduli (GPa) = 95.49735 113.44750 45.84003
#
# Poissons Ratio (x) = 0.32804 0.02260
# Poissons Ratio (y) = 0.27614 0.21264
# Poissons Ratio (z) = 0.04708 0.52626
#
# Static dielectric constant tensor:
#      x y z
#    x 1.784970 0.000000 0.000000 
#    y 0.000000 2.441170 0.000000 
#    z 0.000000 0.000000 1.760520 
# 
# From -- ./inp_files/9778.got.cif
#   From: 2010.05.17/outbox.cif.g08.bks.cpg/sg41_5_cif.got.tgz:9778.got - 2010.06.03 18:54:24.
