data_PCOD9367547
_publ_section_title
;
Structure prediction by ZEFSAII (Michael W. Deem and Ramdas Pophale) SiO2 
 PCOD9367547
Probable space group: A B A 2
;
_chemical_formula_sum "Si O2"
_cell_formula_units_Z 56
_cell_length_a 19.010781
_cell_length_b 14.120369
_cell_length_c 7.264487
_cell_angle_alpha 90.000000
_cell_angle_beta 90.000000
_cell_angle_gamma 90.000000
_cell_volume 1950.073389
_symmetry_space_group_name_H-M "A B A 2"
_symmetry_group_IT_number 41
_symmetry_cell_setting 'orthorhombic'
loop_
_space_group_symop_operation_xyz
x,y,z
-x,-y,z
1/2-x,y,1/2+z
1/2+x,-y,1/2+z
x,1/2+y,1/2+z
-x,1/2-y,1/2+z
1/2-x,1/2+y,z
1/2+x,1/2-y,z
loop_
_atom_site_type_symbol
_atom_site_label
_atom_site_fract_x
_atom_site_fract_y
_atom_site_fract_z
Si Si1 0.641356 0.316794 0.364990
Si Si2 0.130982 0.999652 0.765254
Si Si3 0.777744 0.543387 0.592249
Si Si4 0.103031 0.995702 0.364726
Si Si5 0.413910 0.286972 0.402319
Si Si6 0.280888 0.246701 0.171047
Si Si7 0.541218 0.168535 0.319551
O O1 0.595384 0.400307 0.276667
O O2 0.688295 0.338745 0.547970
O O3 0.703054 0.279019 0.233843
O O4 0.585400 0.242079 0.441274
O O5 0.196100 0.957067 0.646456
O O6 0.087640 0.025924 0.577686
O O7 0.071705 0.933825 0.860073
O O8 0.180480 0.022202 0.944439
O O9 0.818352 0.523277 0.783998
O O10 0.787433 0.655849 0.554503
O O11 0.068492 0.893653 0.326280
O O12 0.335191 0.261662 0.338939
O O13 0.461406 0.198213 0.341312
O O14 0.429200 0.303572 0.617503
#
# Coordination Sequence:
#
# PCOD9367547 Si02
#       7
#     8   8   8   8   8   8   8
#     4  12  24  40  64 101 134 167 208 284 334 392
#     4  11  21  37  65  97 125 174 217 266 323 396
#     4  11  19  38  64  89 129 169 216 264 312 392
#     4  10  26  40  61  98 135 175 207 267 346 392
#     4  10  24  45  68  94 126 178 224 270 321 400
#     4  11  22  39  65  98 130 166 222 270 326 385
#     4  11  22  41  69  93 126 168 230 268 321 385
#
# _framework density 28.71687
#
# number of rings (size 3 to 8) (size 9 to 14) (size 15 to 20)
#    0.000    1.143    4.286    1.714    6.000    0.571 
#    2.571    0.000    0.000    0.000    0.000    0.000 
#    0.000    0.000    0.000    0.000    0.000    0.000 
#
# Total GULP energy -155918.606898 kJ/mol
# GULP energy per Si atom -5568.521675 kJ/mol
# Density = 2.865151 g / cm^3
# Si number density = 28.716870 Si / 1000 Ang^3
#
#
#
# Elastic Constant Matrix: (Units=GPa)
#
#
# Indices 1 2 3 4 5 6 
#
# 1 108.3962 -9.2692 0.8268 0.0000 0.0000 0.0000
# 2 -9.2692 72.6984 -23.7822 0.0000 0.0000 0.0000
# 3 0.8268 -23.7822 117.1033 0.0000 0.0000 0.0000
# 4 0.0000 0.0000 0.0000 19.3327 0.0000 0.0000
# 5 0.0000 0.0000 0.0000 0.0000 30.4149 0.0000
# 6 0.0000 0.0000 0.0000 0.0000 0.0000 23.1543
#
#
#
# Elastic Compliance Matrix: (Units=1/GPa)
#
#
# Indices 1 2 3 4 5 6 
#
# 1 0.009331 0.001251 0.000188 0.000000 0.000000 0.000000
# 2 0.001251 0.014902 0.003018 0.000000 0.000000 0.000000
# 3 0.000188 0.003018 0.009151 0.000000 0.000000 0.000000
# 4 0.000000 0.000000 0.000000 0.051726 0.000000 0.000000
# 5 0.000000 0.000000 0.000000 0.000000 0.032879 0.000000
# 6 0.000000 0.000000 0.000000 0.000000 0.000000 0.043189
#
#
# Mechanical properties :
#
#
# Convention : Reuss Voigt Hill
#
# Bulk Modulus (GPa) = 23.64152 25.97207 24.80680
# Shear Modulus (GPa) = 30.05487 36.60854 33.33171
#
# Velocity S-wave (km/s) = 3.23862 3.57432 3.41060
# Velocity P-wave (km/s) = 4.71544 5.10864 4.91597
#
# Compressibility (1/GPa) = 0.04229846
#
# Stress axis : x y z
#
# Youngs Moduli (GPa) = 107.16988 67.10428 109.27791
#
# Poissons Ratio (x) = -0.08397 -0.02057
# Poissons Ratio (y) = -0.13410 -0.32976
# Poissons Ratio (z) = -0.02017 -0.20249
#
# Static dielectric constant tensor:
#      x y z
#    x 2.240420 0.000000 0.000000 
#    y 0.000000 2.411310 0.000000 
#    z 0.000000 0.000000 2.425650 
# 
# From -- ./inp_files/3419.got.cif
#   From: 2010.05.17/outbox.cif.g08.bks.cpg/sg41_2_cif.got.tgz:3419.got - 2010.06.03 18:54:24.
