data_PCOD9367501
_publ_section_title
;
Structure prediction by ZEFSAII (Michael W. Deem and Ramdas Pophale) SiO2 
 PCOD9367501
Probable space group: A B A 2
;
_chemical_formula_sum "Si O2"
_cell_formula_units_Z 60
_cell_length_a 10.794348
_cell_length_b 11.523047
_cell_length_c 20.523923
_cell_angle_alpha 90.000000
_cell_angle_beta 90.000000
_cell_angle_gamma 90.000000
_cell_volume 2552.843110
_symmetry_space_group_name_H-M "A B A 2"
_symmetry_group_IT_number 41
_symmetry_cell_setting 'orthorhombic'
loop_
_space_group_symop_operation_xyz
x,y,z
-x,-y,z
1/2-x,y,1/2+z
1/2+x,-y,1/2+z
x,1/2+y,1/2+z
-x,1/2-y,1/2+z
1/2-x,1/2+y,z
1/2+x,1/2-y,z
loop_
_atom_site_type_symbol
_atom_site_label
_atom_site_fract_x
_atom_site_fract_y
_atom_site_fract_z
Si Si1 0.797013 0.511043 0.446250
Si Si2 0.000000 0.500000 0.742202
Si Si3 0.049617 0.373006 0.916889
Si Si4 0.935012 0.204400 0.015445
Si Si5 0.750810 0.905152 0.697826
Si Si6 0.861524 0.541820 0.306633
Si Si7 0.205767 0.673590 0.558523
Si Si8 0.831923 0.208354 0.297094
O O1 0.675328 0.590222 0.452695
O O2 0.910017 0.592671 0.469940
O O3 0.799750 0.479183 0.369390
O O4 0.789672 0.402544 0.493237
O O5 0.896516 0.418507 0.709059
O O6 0.908463 0.594828 0.774216
O O7 0.090763 0.276170 0.863669
O O8 0.000000 0.500000 0.893308
O O9 0.959201 0.312108 0.967232
O O10 0.806634 0.223952 0.053564
O O11 0.057903 0.199427 0.060803
O O12 0.757451 0.895677 0.620839
O O13 0.813301 0.800769 0.739992
O O14 0.817522 0.011679 0.733708
O O15 0.808611 0.671112 0.316467
O O16 0.000000 0.500000 0.310604
#
# Coordination Sequence:
#
# PCOD9367501 Si02
#       8
#     8   4   8   8   8   8   8   8
#     4  11  25  46  72 107 143 189 248 312 368 447
#     4  10  24  48  66 104 144 192 250 304 366 452
#     4  11  22  45  73 108 146 183 243 314 378 444
#     4  12  26  45  74 108 145 193 247 305 376 452
#     4  11  28  45  73 101 150 201 239 305 378 453
#     4  10  24  45  68 108 138 182 246 310 369 440
#     4  12  28  46  72 109 147 197 250 301 376 455
#     4  10  24  42  73 102 139 192 238 303 378 445
#
# _framework density 23.503208000000001
#
# number of rings (size 3 to 8) (size 9 to 14) (size 15 to 20)
#    0.000    1.067    3.333    1.200    9.333    2.133 
#    2.400    0.000    0.000    0.000    0.000    0.000 
#    0.000    0.000    0.000    0.000    0.000    0.000 
#
# Total GULP energy -167072.167048 kJ/mol
# GULP energy per Si atom -5569.072235 kJ/mol
# Density = 2.344971 g / cm^3
# Si number density = 23.503208 Si / 1000 Ang^3
#
#
#
# Elastic Constant Matrix: (Units=GPa)
#
#
# Indices 1 2 3 4 5 6 
#
# 1 120.3016 0.2863 4.9576 0.0000 0.0000 0.0000
# 2 0.2863 26.5989 -13.7731 0.0000 0.0000 0.0000
# 3 4.9576 -13.7731 70.7306 0.0000 0.0000 0.0000
# 4 0.0000 0.0000 0.0000 12.8653 0.0000 0.0000
# 5 0.0000 0.0000 0.0000 0.0000 1.2824 0.0000
# 6 0.0000 0.0000 0.0000 0.0000 0.0000 37.5267
#
#
#
# Elastic Compliance Matrix: (Units=1/GPa)
#
#
# Indices 1 2 3 4 5 6 
#
# 1 0.008341 -0.000437 -0.000670 0.000000 0.000000 0.000000
# 2 -0.000437 0.041834 0.008177 0.000000 0.000000 0.000000
# 3 -0.000670 0.008177 0.015777 0.000000 0.000000 0.000000
# 4 0.000000 0.000000 0.000000 0.077728 0.000000 0.000000
# 5 0.000000 0.000000 0.000000 0.000000 0.779795 0.000000
# 6 0.000000 0.000000 0.000000 0.000000 0.000000 0.026648
#
#
# Mechanical properties :
#
#
# Convention : Reuss Voigt Hill
#
# Bulk Modulus (GPa) = 12.48532 22.28586 17.38559
# Shear Modulus (GPa) = 5.19383 25.41223 15.30303
#
# Velocity S-wave (km/s) = 1.48817 3.29176 2.55444
# Velocity P-wave (km/s) = 2.87690 4.89390 4.01415
#
# Compressibility (1/GPa) = 0.08009406
#
# Stress axis : x y z
#
# Youngs Moduli (GPa) = 119.88859 23.90383 63.38199
#
# Poissons Ratio (x) = 0.01043 0.04244
# Poissons Ratio (y) = 0.05234 -0.51827
# Poissons Ratio (z) = 0.08028 -0.19546
#
# Static dielectric constant tensor:
#      x y z
#    x 1.965050 0.000000 0.000000 
#    y 0.000000 2.023910 0.000000 
#    z 0.000000 0.000000 1.891990 
# 
# From -- ./inp_files/11440.got.cif
#   From: 2010.05.17/outbox.cif.g08.bks.cpg/sg41_6_cif.got.tgz:11440.got - 2010.06.03 18:54:24.
