data_PCOD9367687
_publ_section_title
;
Structure prediction by ZEFSAII (Michael W. Deem and Ramdas Pophale) SiO2 
 PCOD9367687
Probable space group: A B A 2
;
_chemical_formula_sum "Si O2"
_cell_formula_units_Z 40
_cell_length_a 8.411517
_cell_length_b 21.820681
_cell_length_c 8.767406
_cell_angle_alpha 90.000000
_cell_angle_beta 90.000000
_cell_angle_gamma 90.000000
_cell_volume 1609.213790
_symmetry_space_group_name_H-M "A B A 2"
_symmetry_group_IT_number 41
_symmetry_cell_setting 'orthorhombic'
loop_
_space_group_symop_operation_xyz
x,y,z
-x,-y,z
1/2-x,y,1/2+z
1/2+x,-y,1/2+z
x,1/2+y,1/2+z
-x,1/2-y,1/2+z
1/2-x,1/2+y,z
1/2+x,1/2-y,z
loop_
_atom_site_type_symbol
_atom_site_label
_atom_site_fract_x
_atom_site_fract_y
_atom_site_fract_z
Si Si1 0.500000 0.000000 0.125000
Si Si2 0.500000 0.000000 0.644686
Si Si3 0.379176 0.716412 0.587098
Si Si4 0.774041 0.409039 0.189201
Si Si5 0.676519 0.707982 0.788485
Si Si6 0.418934 0.417741 0.877748
O O1 0.385859 0.053135 0.066892
O O2 0.618323 0.037290 0.238100
O O3 0.382247 0.050420 0.718735
O O4 0.596943 0.043956 0.529347
O O5 0.260611 0.659607 0.623168
O O6 0.551390 0.698430 0.649842
O O7 0.369763 0.741760 0.416536
O O8 0.331869 0.770375 0.702943
O O9 0.605570 0.403799 0.835536
O O10 0.680819 0.643348 0.873037
#
# Coordination Sequence:
#
# PCOD9367687 Si02
#       6
#     4   4   8   8   8   8
#     4   7  16  42  59  82 134 167 200 283 328 377
#     4  11  20  38  71  84 124 177 210 271 350 385
#     4  11  25  43  69  99 136 180 226 284 334 413
#     4   9  21  39  65  92 130 167 218 278 330 398
#     4  11  24  44  66  97 136 177 226 278 345 392
#     4   8  20  40  60  88 133 159 215 276 320 401
#
# _framework density 24.856857000000002
#
# number of rings (size 3 to 8) (size 9 to 14) (size 15 to 20)
#    1.200    1.200    0.000    1.200    8.400    1.600 
#    3.600    1.000    0.000    0.000    0.000    0.000 
#    0.000    0.000    0.000    0.000    0.000    0.000 
#
# Total GULP energy -111376.718752 kJ/mol
# GULP energy per Si atom -5568.835938 kJ/mol
# Density = 2.480028 g / cm^3
# Si number density = 24.856857 Si / 1000 Ang^3
#
#
#
# Elastic Constant Matrix: (Units=GPa)
#
#
# Indices 1 2 3 4 5 6 
#
# 1 47.2988 20.2754 18.1401 0.0000 0.0000 0.0000
# 2 20.2754 125.5281 16.7715 0.0000 0.0000 0.0000
# 3 18.1401 16.7715 103.7277 0.0000 0.0000 0.0000
# 4 0.0000 0.0000 0.0000 19.5610 0.0000 0.0000
# 5 0.0000 0.0000 0.0000 0.0000 6.9114 0.0000
# 6 0.0000 0.0000 0.0000 0.0000 0.0000 36.1091
#
#
#
# Elastic Compliance Matrix: (Units=1/GPa)
#
#
# Indices 1 2 3 4 5 6 
#
# 1 0.023994 -0.003388 -0.003648 0.000000 0.000000 0.000000
# 2 -0.003388 0.008621 -0.000801 0.000000 0.000000 0.000000
# 3 -0.003648 -0.000801 0.010408 0.000000 0.000000 0.000000
# 4 0.000000 0.000000 0.000000 0.051122 0.000000 0.000000
# 5 0.000000 0.000000 0.000000 0.000000 0.144689 0.000000
# 6 0.000000 0.000000 0.000000 0.000000 0.000000 0.027694
#
#
# Mechanical properties :
#
#
# Convention : Reuss Voigt Hill
#
# Bulk Modulus (GPa) = 36.56671 42.99206 39.77938
# Shear Modulus (GPa) = 17.16331 27.27413 22.21872
#
# Velocity S-wave (km/s) = 2.63056 3.31607 2.99300
# Velocity P-wave (km/s) = 4.89585 5.65642 5.28982
#
# Compressibility (1/GPa) = 0.02734728
#
# Stress axis : x y z
#
# Youngs Moduli (GPa) = 41.67757 116.00051 96.07802
#
# Poissons Ratio (x) = 0.39302 0.35052
# Poissons Ratio (y) = 0.14121 0.07699
# Poissons Ratio (z) = 0.15205 0.09296
#
# Static dielectric constant tensor:
#      x y z
#    x 2.040750 0.000000 0.000000 
#    y 0.000000 2.003940 0.000000 
#    z 0.000000 0.000000 1.989010 
# 
# From -- ./inp_files/4449.got.cif
#   From: 2010.05.17/outbox.cif.g08.bks.cpg/sg41_3_cif.got.tgz:4449.got - 2010.06.03 18:54:24.
