data_PCOD9367938
_publ_section_title
;
Structure prediction by ZEFSAII (Michael W. Deem and Ramdas Pophale) SiO2 
 PCOD9367938
Probable space group: A B A 2
;
_chemical_formula_sum "Si O2"
_cell_formula_units_Z 40
_cell_length_a 9.214160
_cell_length_b 8.860826
_cell_length_c 20.706460
_cell_angle_alpha 90.000000
_cell_angle_beta 90.000000
_cell_angle_gamma 90.000000
_cell_volume 1690.580345
_symmetry_space_group_name_H-M "A B A 2"
_symmetry_group_IT_number 41
_symmetry_cell_setting 'orthorhombic'
loop_
_space_group_symop_operation_xyz
x,y,z
-x,-y,z
1/2-x,y,1/2+z
1/2+x,-y,1/2+z
x,1/2+y,1/2+z
-x,1/2-y,1/2+z
1/2-x,1/2+y,z
1/2+x,1/2-y,z
loop_
_atom_site_type_symbol
_atom_site_label
_atom_site_fract_x
_atom_site_fract_y
_atom_site_fract_z
Si Si1 0.213825 0.446699 0.392750
Si Si2 0.049030 0.729982 0.441589
Si Si3 0.443583 0.174508 0.081571
Si Si4 0.832161 0.554667 0.246146
Si Si5 0.828637 0.331035 0.663492
O O1 0.158315 0.586635 0.435941
O O2 0.361410 0.373634 0.417449
O O3 0.218714 0.486929 0.317610
O O4 0.086244 0.321043 0.397863
O O5 0.984364 0.763123 0.511662
O O6 0.519625 0.282461 0.134103
O O7 0.276767 0.189134 0.101483
O O8 0.500000 0.000000 0.086717
O O9 0.726826 0.486756 0.191776
O O10 0.819074 0.728983 0.228028
O O11 0.000000 0.500000 0.238867
#
# Coordination Sequence:
#
# PCOD9367938 Si02
#       5
#     8   8   8   8   8
#     4  11  26  48  72 107 144 189 244 302 365 434
#     4  11  26  46  75 103 146 193 240 301 368 435
#     4  12  27  48  71 106 148 183 245 304 360 442
#     4  12  24  48  71 104 150 183 244 302 355 443
#     4  12  24  47  74 101 144 191 230 304 367 421
#
# _framework density 23.660513000000002
#
# number of rings (size 3 to 8) (size 9 to 14) (size 15 to 20)
#    0.000    0.400    6.000    2.400    5.600    4.000 
#    0.000    2.000    0.000    0.000    0.000    0.000 
#    0.000    0.000    0.000    0.000    0.000    0.000 
#
# Total GULP energy -111825.307305 kJ/mol
# GULP energy per Si atom -5591.265365 kJ/mol
# Density = 2.360666 g / cm^3
# Si number density = 23.660513 Si / 1000 Ang^3
#
#
#
# Elastic Constant Matrix: (Units=GPa)
#
#
# Indices 1 2 3 4 5 6 
#
# 1 61.8255 39.2586 19.7758 0.0000 0.0000 0.0000
# 2 39.2586 43.8838 32.8027 0.0000 0.0000 0.0000
# 3 19.7758 32.8027 143.9241 0.0000 0.0000 0.0000
# 4 0.0000 0.0000 0.0000 30.1602 0.0000 0.0000
# 5 0.0000 0.0000 0.0000 0.0000 138.7632 0.0000
# 6 0.0000 0.0000 0.0000 0.0000 0.0000 35.7038
#
#
#
# Elastic Compliance Matrix: (Units=1/GPa)
#
#
# Indices 1 2 3 4 5 6 
#
# 1 0.038554 -0.036800 0.003090 0.000000 0.000000 0.000000
# 2 -0.036800 0.062593 -0.009209 0.000000 0.000000 0.000000
# 3 0.003090 -0.009209 0.008623 0.000000 0.000000 0.000000
# 4 0.000000 0.000000 0.000000 0.033156 0.000000 0.000000
# 5 0.000000 0.000000 0.000000 0.000000 0.007207 0.000000
# 6 0.000000 0.000000 0.000000 0.000000 0.000000 0.028008
#
#
# Mechanical properties :
#
#
# Convention : Reuss Voigt Hill
#
# Bulk Modulus (GPa) = 41.78858 48.14527 44.96692
# Shear Modulus (GPa) = 18.38527 51.44518 34.91523
#
# Velocity S-wave (km/s) = 2.79058 4.66800 3.84562
# Velocity P-wave (km/s) = 5.29936 7.03180 6.22613
#
# Compressibility (1/GPa) = 0.02392998
#
# Stress axis : x y z
#
# Youngs Moduli (GPa) = 25.93766 15.97622 115.97519
#
# Poissons Ratio (x) = 0.58793 -0.35835
# Poissons Ratio (y) = 0.95451 1.06807
# Poissons Ratio (z) = -0.08014 0.14713
#
# Static dielectric constant tensor:
#      x y z
#    x 1.858290 0.000000 0.000000 
#    y 0.000000 2.008000 0.000000 
#    z 0.000000 0.000000 1.838920 
# 
# From -- ./inp_files/11927.got.cif
#   From: 2010.05.17/outbox.cif.g08.bks.cpg/sg41_6_cif.got.tgz:11927.got - 2010.06.03 18:54:24.
