data_PCOD9367008
_publ_section_title
;
Structure prediction by ZEFSAII (Michael W. Deem and Ramdas Pophale) SiO2 
 PCOD9367008
Probable space group: A B A 2
;
_chemical_formula_sum "Si O2"
_cell_formula_units_Z 64
_cell_length_a 20.944978
_cell_length_b 12.822173
_cell_length_c 12.792171
_cell_angle_alpha 90.000000
_cell_angle_beta 90.000000
_cell_angle_gamma 90.000000
_cell_volume 3435.467125
_symmetry_space_group_name_H-M "A B A 2"
_symmetry_group_IT_number 41
_symmetry_cell_setting 'orthorhombic'
loop_
_space_group_symop_operation_xyz
x,y,z
-x,-y,z
1/2-x,y,1/2+z
1/2+x,-y,1/2+z
x,1/2+y,1/2+z
-x,1/2-y,1/2+z
1/2-x,1/2+y,z
1/2+x,1/2-y,z
loop_
_atom_site_type_symbol
_atom_site_label
_atom_site_fract_x
_atom_site_fract_y
_atom_site_fract_z
Si Si1 0.188692 0.512571 0.556540
Si Si2 0.688135 0.163544 0.379879
Si Si3 0.816399 0.255684 0.470441
Si Si4 0.440320 0.924041 0.644661
Si Si5 0.941737 0.750067 0.467096
Si Si6 0.682698 0.078801 0.146189
Si Si7 0.061862 0.073150 0.639839
Si Si8 0.436855 0.748549 0.817234
O O1 0.187654 0.439314 0.453387
O O2 0.191645 0.632319 0.524002
O O3 0.124135 0.486881 0.619338
O O4 0.250638 0.478572 0.621813
O O5 0.752549 0.225493 0.407275
O O6 0.626041 0.229920 0.411991
O O7 0.685097 0.130501 0.259971
O O8 0.826122 0.167852 0.558797
O O9 0.876893 0.258533 0.394217
O O10 0.452528 0.846310 0.546943
O O11 0.431312 0.850712 0.744991
O O12 0.500000 0.000000 0.657741
O O13 0.939845 0.853489 0.537711
O O14 0.998520 0.753068 0.384114
O O15 0.624759 0.997642 0.140565
O O16 0.061974 0.149644 0.739746
O O17 0.000000 0.000000 0.642636
#
# Coordination Sequence:
#
# PCOD9367008 Si02
#       8
#     8   8   8   8   8   8   8   8
#     4  10  22  40  61  85 117 156 194 238 290 348
#     4  10  22  40  61  86 118 156 195 238 294 350
#     4  11  23  39  61  89 119 153 196 243 290 348
#     4  10  22  39  59  84 115 152 194 240 290 347
#     4  10  22  40  60  85 117 154 198 242 288 348
#     4  11  23  39  61  90 120 153 196 243 293 348
#     4  11  23  40  61  87 120 157 198 243 293 349
#     4  11  23  39  60  86 118 155 194 241 295 348
#
# _framework density 18.629197999999999
#
# number of rings (size 3 to 8) (size 9 to 14) (size 15 to 20)
#    0.000    1.500    0.000    4.500    0.000   11.000 
#    0.000    0.000    0.000    0.000    0.000    0.000 
#    0.000    0.000    0.000    0.000    0.000    0.000 
#
# Total GULP energy -178974.277512 kJ/mol
# GULP energy per Si atom -5592.946172 kJ/mol
# Density = 1.858680 g / cm^3
# Si number density = 18.629198 Si / 1000 Ang^3
#
#
#
# Elastic Constant Matrix: (Units=GPa)
#
#
# Indices 1 2 3 4 5 6 
#
# 1 176.2772 100.7666 93.3111 0.0000 0.0000 0.0000
# 2 100.7666 151.2518 76.9098 0.0000 0.0000 0.0000
# 3 93.3111 76.9098 135.6520 0.0000 0.0000 0.0000
# 4 0.0000 0.0000 0.0000 10.0866 0.0000 0.0000
# 5 0.0000 0.0000 0.0000 0.0000 10.1077 0.0000
# 6 0.0000 0.0000 0.0000 0.0000 0.0000 36.5773
#
#
#
# Elastic Compliance Matrix: (Units=1/GPa)
#
#
# Indices 1 2 3 4 5 6 
#
# 1 0.011012 -0.004896 -0.004799 0.000000 0.000000 0.000000
# 2 -0.004896 0.011467 -0.003133 0.000000 0.000000 0.000000
# 3 -0.004799 -0.003133 0.012449 0.000000 0.000000 0.000000
# 4 0.000000 0.000000 0.000000 0.099142 0.000000 0.000000
# 5 0.000000 0.000000 0.000000 0.000000 0.098935 0.000000
# 6 0.000000 0.000000 0.000000 0.000000 0.000000 0.027339
#
#
# Mechanical properties :
#
#
# Convention : Reuss Voigt Hill
#
# Bulk Modulus (GPa) = 107.85984 111.68400 109.77192
# Shear Modulus (GPa) = 17.29561 24.16720 20.73141
#
# Velocity S-wave (km/s) = 3.05029 3.60568 3.33955
# Velocity P-wave (km/s) = 8.39224 8.79862 8.59783
#
# Compressibility (1/GPa) = 0.00927129
#
# Stress axis : x y z
#
# Youngs Moduli (GPa) = 90.81019 87.20956 80.32643
#
# Poissons Ratio (x) = 0.42700 0.38547
# Poissons Ratio (y) = 0.44463 0.25168
# Poissons Ratio (z) = 0.43578 0.27324
#
# Static dielectric constant tensor:
#      x y z
#    x 1.606700 0.000000 0.000000 
#    y 0.000000 1.614110 0.000000 
#    z 0.000000 0.000000 1.614390 
# 
# From -- ./inp_files/6027.got.cif
#   From: 2010.05.17/outbox.cif.g08.bks.cpg/sg41_4_cif.got.tgz:6027.got - 2010.06.03 18:54:24.
