data_PCOD9367801
_publ_section_title
;
Structure prediction by ZEFSAII (Michael W. Deem and Ramdas Pophale) SiO2 
 PCOD9367801
Probable space group: A B A 2
;
_chemical_formula_sum "Si O2"
_cell_formula_units_Z 32
_cell_length_a 14.056484
_cell_length_b 10.716832
_cell_length_c 9.006857
_cell_angle_alpha 90.000000
_cell_angle_beta 90.000000
_cell_angle_gamma 90.000000
_cell_volume 1356.801743
_symmetry_space_group_name_H-M "A B A 2"
_symmetry_group_IT_number 41
_symmetry_cell_setting 'orthorhombic'
loop_
_space_group_symop_operation_xyz
x,y,z
-x,-y,z
1/2-x,y,1/2+z
1/2+x,-y,1/2+z
x,1/2+y,1/2+z
-x,1/2-y,1/2+z
1/2-x,1/2+y,z
1/2+x,1/2-y,z
loop_
_atom_site_type_symbol
_atom_site_label
_atom_site_fract_x
_atom_site_fract_y
_atom_site_fract_z
Si Si1 0.144113 0.922824 0.786470
Si Si2 0.476293 0.259926 0.335976
Si Si3 0.720646 0.197845 0.995386
Si Si4 0.899688 0.848967 0.566384
O O1 0.048870 0.857374 0.848242
O O2 0.189194 0.833784 0.661022
O O3 0.116769 0.042841 0.687497
O O4 0.224845 0.917950 0.914162
O O5 0.627125 0.241876 0.910133
O O6 0.452525 0.260441 0.161297
O O7 0.533480 0.367586 0.423548
O O8 0.799508 0.303885 0.005986
#
# Coordination Sequence:
#
# PCOD9367801 Si02
#       4
#     8   8   8   8
#     4  11  25  44  71 101 143 189 235 285 361 416
#     4  11  23  44  69 100 145 181 231 299 341 415
#     4  11  24  44  69 105 143 184 236 298 342 414
#     4  11  25  46  71 101 142 185 237 292 351 422
#
# _framework density 23.584876999999999
#
# number of rings (size 3 to 8) (size 9 to 14) (size 15 to 20)
#    0.000    1.000    5.000    0.750    3.500    0.000 
#    0.000    0.000    5.500    0.000    0.000    0.000 
#    0.000    0.000    0.000    0.000    0.000    0.000 
#
# Total GULP energy -89256.496811 kJ/mol
# GULP energy per Si atom -5578.531051 kJ/mol
# Density = 2.353120 g / cm^3
# Si number density = 23.584877 Si / 1000 Ang^3
#
#
#
# Elastic Constant Matrix: (Units=GPa)
#
#
# Indices 1 2 3 4 5 6 
#
# 1 191.5319 55.0713 40.0473 0.0000 0.0000 0.0000
# 2 55.0713 92.7817 35.1023 0.0000 0.0000 0.0000
# 3 40.0473 35.1023 72.9806 0.0000 0.0000 0.0000
# 4 0.0000 0.0000 0.0000 43.0399 0.0000 0.0000
# 5 0.0000 0.0000 0.0000 0.0000 38.0229 0.0000
# 6 0.0000 0.0000 0.0000 0.0000 0.0000 10.5509
#
#
#
# Elastic Compliance Matrix: (Units=1/GPa)
#
#
# Indices 1 2 3 4 5 6 
#
# 1 0.006550 -0.003091 -0.002108 0.000000 0.000000 0.000000
# 2 -0.003091 0.014634 -0.005343 0.000000 0.000000 0.000000
# 3 -0.002108 -0.005343 0.017429 0.000000 0.000000 0.000000
# 4 0.000000 0.000000 0.000000 0.023234 0.000000 0.000000
# 5 0.000000 0.000000 0.000000 0.000000 0.026300 0.000000
# 6 0.000000 0.000000 0.000000 0.000000 0.000000 0.094778
#
#
# Mechanical properties :
#
#
# Convention : Reuss Voigt Hill
#
# Bulk Modulus (GPa) = 57.04337 68.63733 62.84035
# Shear Modulus (GPa) = 23.82642 33.46098 28.64370
#
# Velocity S-wave (km/s) = 3.18188 3.77071 3.48874
# Velocity P-wave (km/s) = 6.14313 6.93708 6.55214
#
# Compressibility (1/GPa) = 0.01753052
#
# Stress axis : x y z
#
# Youngs Moduli (GPa) = 152.66132 68.33542 57.37658
#
# Poissons Ratio (x) = 0.21119 0.12095
# Poissons Ratio (y) = 0.47181 0.30654
# Poissons Ratio (z) = 0.32181 0.36509
#
# Static dielectric constant tensor:
#      x y z
#    x 1.895400 0.000000 0.000000 
#    y 0.000000 2.000340 0.000000 
#    z 0.000000 0.000000 1.887650 
# 
# From -- ./inp_files/1947.got.cif
#   From: 2010.05.17/outbox.cif.g08.bks.cpg/sg41_1_cif.got.tgz:1947.got - 2010.06.03 18:54:24.
