data_PCOD9367979
_publ_section_title
;
Structure prediction by ZEFSAII (Michael W. Deem and Ramdas Pophale) SiO2 
 PCOD9367979
Probable space group: A B A 2
;
_chemical_formula_sum "Si O2"
_cell_formula_units_Z 40
_cell_length_a 13.411710
_cell_length_b 18.101435
_cell_length_c 7.470116
_cell_angle_alpha 90.000000
_cell_angle_beta 90.000000
_cell_angle_gamma 90.000000
_cell_volume 1813.529002
_symmetry_space_group_name_H-M "A B A 2"
_symmetry_group_IT_number 41
_symmetry_cell_setting 'orthorhombic'
loop_
_space_group_symop_operation_xyz
x,y,z
-x,-y,z
1/2-x,y,1/2+z
1/2+x,-y,1/2+z
x,1/2+y,1/2+z
-x,1/2-y,1/2+z
1/2-x,1/2+y,z
1/2+x,1/2-y,z
loop_
_atom_site_type_symbol
_atom_site_label
_atom_site_fract_x
_atom_site_fract_y
_atom_site_fract_z
Si Si1 0.456538 0.665173 0.399140
Si Si2 0.406528 0.820452 0.243107
Si Si3 0.735742 0.064201 0.753355
Si Si4 0.615550 0.479232 0.553801
Si Si5 0.042590 0.918275 0.052252
O O1 0.406370 0.740815 0.335667
O O2 0.542452 0.681507 0.547491
O O3 0.383397 0.604561 0.486977
O O4 0.499813 0.626661 0.220924
O O5 0.299160 0.860155 0.248495
O O6 0.473759 0.872922 0.371111
O O7 0.660346 0.073193 0.586389
O O8 0.660802 0.035429 0.906084
O O9 0.815908 0.998863 0.721313
O O10 0.500000 0.500000 0.579214
O O11 0.000000 0.000000 0.047597
#
# Coordination Sequence:
#
# PCOD9367979 Si02
#       5
#     8   8   8   8   8
#     4  12  25  50  69 109 151 194 242 318 367 437
#     4  12  27  44  75 106 147 197 247 300 382 433
#     4  12  23  45  74 106 143 197 249 302 371 442
#     4  12  24  45  76 108 148 189 257 310 357 454
#     4  12  25  46  77 107 149 197 247 309 372 444
#
# _framework density 22.056441
#
# number of rings (size 3 to 8) (size 9 to 14) (size 15 to 20)
#    0.000    0.000   10.000    0.000    2.800    0.000 
#    3.600    2.000    0.000    0.000    0.000    0.000 
#    0.000    0.000    0.000    0.000    0.000    0.000 
#
# Total GULP energy -111833.163710 kJ/mol
# GULP energy per Si atom -5591.658185 kJ/mol
# Density = 2.200624 g / cm^3
# Si number density = 22.056441 Si / 1000 Ang^3
#
#
#
# Elastic Constant Matrix: (Units=GPa)
#
#
# Indices 1 2 3 4 5 6 
#
# 1 110.9284 59.5288 22.0634 0.0000 0.0000 0.0000
# 2 59.5288 201.8391 37.3634 0.0000 0.0000 0.0000
# 3 22.0634 37.3634 96.1028 0.0000 0.0000 0.0000
# 4 0.0000 0.0000 0.0000 45.0112 0.0000 0.0000
# 5 0.0000 0.0000 0.0000 0.0000 27.3325 0.0000
# 6 0.0000 0.0000 0.0000 0.0000 0.0000 39.9028
#
#
#
# Elastic Compliance Matrix: (Units=1/GPa)
#
#
# Indices 1 2 3 4 5 6 
#
# 1 0.010869 -0.002956 -0.001346 0.000000 0.000000 0.000000
# 2 -0.002956 0.006143 -0.001710 0.000000 0.000000 0.000000
# 3 -0.001346 -0.001710 0.011379 0.000000 0.000000 0.000000
# 4 0.000000 0.000000 0.000000 0.022217 0.000000 0.000000
# 5 0.000000 0.000000 0.000000 0.000000 0.036587 0.000000
# 6 0.000000 0.000000 0.000000 0.000000 0.000000 0.025061
#
#
# Mechanical properties :
#
#
# Convention : Reuss Voigt Hill
#
# Bulk Modulus (GPa) = 61.09737 71.86462 66.48100
# Shear Modulus (GPa) = 38.54017 41.77694 40.15855
#
# Velocity S-wave (km/s) = 4.18466 4.35684 4.27162
# Velocity P-wave (km/s) = 7.14906 7.61330 7.38483
#
# Compressibility (1/GPa) = 0.01636732
#
# Stress axis : x y z
#
# Youngs Moduli (GPa) = 92.00395 162.79060 87.88005
#
# Poissons Ratio (x) = 0.48129 0.11828
# Poissons Ratio (y) = 0.27201 0.15023
# Poissons Ratio (z) = 0.12383 0.27829
#
# Static dielectric constant tensor:
#      x y z
#    x 1.801360 0.000000 0.000000 
#    y 0.000000 1.788450 0.000000 
#    z 0.000000 0.000000 1.970210 
# 
# From -- ./inp_files/2008.got.cif
#   From: 2010.05.17/outbox.cif.g08.bks.cpg/sg41_2_cif.got.tgz:2008.got - 2010.06.03 18:54:24.
