data_PCOD9367986
_publ_section_title
;
Structure prediction by ZEFSAII (Michael W. Deem and Ramdas Pophale) SiO2 
 PCOD9367986
Probable space group: A B A 2
;
_chemical_formula_sum "Si O2"
_cell_formula_units_Z 44
_cell_length_a 12.266519
_cell_length_b 29.032892
_cell_length_c 4.885360
_cell_angle_alpha 90.000000
_cell_angle_beta 90.000000
_cell_angle_gamma 90.000000
_cell_volume 1739.835574
_symmetry_space_group_name_H-M "A B A 2"
_symmetry_group_IT_number 41
_symmetry_cell_setting 'orthorhombic'
loop_
_space_group_symop_operation_xyz
x,y,z
-x,-y,z
1/2-x,y,1/2+z
1/2+x,-y,1/2+z
x,1/2+y,1/2+z
-x,1/2-y,1/2+z
1/2-x,1/2+y,z
1/2+x,1/2-y,z
loop_
_atom_site_type_symbol
_atom_site_label
_atom_site_fract_x
_atom_site_fract_y
_atom_site_fract_z
Si Si1 0.320785 0.561003 0.620490
Si Si2 0.819941 0.250284 0.120415
Si Si3 0.500000 0.000000 0.413323
Si Si4 0.427348 0.346401 0.268026
Si Si5 0.680338 0.558392 0.217955
Si Si6 0.068776 0.654076 0.268010
O O1 0.283800 0.551347 0.312927
O O2 0.423986 0.532628 0.727664
O O3 0.349964 0.614384 0.670736
O O4 0.790226 0.251074 0.801493
O O5 0.880399 0.203428 0.197995
O O6 0.885229 0.295561 0.205704
O O7 0.576829 0.031558 0.602680
O O8 0.346470 0.387562 0.195901
O O9 0.535362 0.352154 0.082165
O O10 0.460570 0.350853 0.583426
O O11 0.783827 0.547903 0.025643
#
# Coordination Sequence:
#
# PCOD9367986 Si02
#       6
#     8   8   4   8   8   8
#     4  12  27  48  74 107 144 190 241 302 367 435
#     4  12  24  42  68 104 144 188 242 296 354 438
#     4  12  28  50  76 108 148 190 252 302 376 438
#     4  12  24  45  71 103 143 191 241 295 362 433
#     4  12  27  48  74 107 144 190 241 302 367 435
#     4  12  24  45  71 103 143 191 241 295 362 433
#
# _framework density 25.289746999999998
#
# number of rings (size 3 to 8) (size 9 to 14) (size 15 to 20)
#    0.000    0.000    1.818    8.727    0.000    1.455 
#    0.000    0.000    0.000    0.000    0.000    0.000 
#    0.000    0.000    0.000    0.000    0.000    0.000 
#
# Total GULP energy -123635.496976 kJ/mol
# GULP energy per Si atom -5619.795317 kJ/mol
# Density = 2.523219 g / cm^3
# Si number density = 25.289747 Si / 1000 Ang^3
#
#
#
# Elastic Constant Matrix: (Units=GPa)
#
#
# Indices 1 2 3 4 5 6 
#
# 1 80.6960 40.7517 12.9820 0.0000 0.0000 0.0000
# 2 40.7517 153.9293 16.1217 0.0000 0.0000 0.0000
# 3 12.9820 16.1217 90.6887 0.0000 0.0000 0.0000
# 4 0.0000 0.0000 0.0000 33.9109 0.0000 0.0000
# 5 0.0000 0.0000 0.0000 0.0000 41.7315 0.0000
# 6 0.0000 0.0000 0.0000 0.0000 0.0000 57.9558
#
#
#
# Elastic Compliance Matrix: (Units=1/GPa)
#
#
# Indices 1 2 3 4 5 6 
#
# 1 0.014481 -0.003685 -0.001418 0.000000 0.000000 0.000000
# 2 -0.003685 0.007558 -0.000816 0.000000 0.000000 0.000000
# 3 -0.001418 -0.000816 0.011375 0.000000 0.000000 0.000000
# 4 0.000000 0.000000 0.000000 0.029489 0.000000 0.000000
# 5 0.000000 0.000000 0.000000 0.000000 0.023963 0.000000
# 6 0.000000 0.000000 0.000000 0.000000 0.000000 0.017255
#
#
# Mechanical properties :
#
#
# Convention : Reuss Voigt Hill
#
# Bulk Modulus (GPa) = 46.34902 51.66943 49.00922
# Shear Modulus (GPa) = 40.60082 43.75021 42.17552
#
# Velocity S-wave (km/s) = 4.01112 4.16379 4.08817
# Velocity P-wave (km/s) = 6.31024 6.60239 6.45797
#
# Compressibility (1/GPa) = 0.02157543
#
# Stress axis : x y z
#
# Youngs Moduli (GPa) = 69.05412 132.31682 87.91402
#
# Poissons Ratio (x) = 0.48763 0.12465
# Poissons Ratio (y) = 0.25449 0.07173
# Poissons Ratio (z) = 0.09791 0.10797
#
# Static dielectric constant tensor:
#      x y z
#    x 1.973000 0.000000 0.000000 
#    y 0.000000 1.979690 0.000000 
#    z 0.000000 0.000000 1.907420 
# 
# From -- ./inp_files/280.got.cif
#   From: 2010.05.17/outbox.cif.g08.bks.cpg/sg41_1_cif.got.tgz:280.got - 2010.06.03 18:54:24.
