data_PCOD9367438
_publ_section_title
;
Structure prediction by ZEFSAII (Michael W. Deem and Ramdas Pophale) SiO2 
 PCOD9367438
Probable space group: A B A 2
;
_chemical_formula_sum "Si O2"
_cell_formula_units_Z 44
_cell_length_a 18.474404
_cell_length_b 7.331088
_cell_length_c 13.037695
_cell_angle_alpha 90.000000
_cell_angle_beta 90.000000
_cell_angle_gamma 90.000000
_cell_volume 1765.792575
_symmetry_space_group_name_H-M "A B A 2"
_symmetry_group_IT_number 41
_symmetry_cell_setting 'orthorhombic'
loop_
_space_group_symop_operation_xyz
x,y,z
-x,-y,z
1/2-x,y,1/2+z
1/2+x,-y,1/2+z
x,1/2+y,1/2+z
-x,1/2-y,1/2+z
1/2-x,1/2+y,z
1/2+x,1/2-y,z
loop_
_atom_site_type_symbol
_atom_site_label
_atom_site_fract_x
_atom_site_fract_y
_atom_site_fract_z
Si Si1 0.966027 0.270030 0.387460
Si Si2 0.000000 0.500000 0.578626
Si Si3 0.110980 0.385315 0.305425
Si Si4 0.344774 0.426141 0.163166
Si Si5 0.193093 0.023658 0.608042
Si Si6 0.351503 0.511957 0.387777
O O1 0.903121 0.419617 0.359779
O O2 0.931413 0.073411 0.390130
O O3 0.996614 0.330534 0.498221
O O4 0.028660 0.305071 0.303273
O O5 0.074321 0.495556 0.642158
O O6 0.153026 0.412295 0.198955
O O7 0.150494 0.229796 0.371996
O O8 0.340451 0.223857 0.119289
O O9 0.279329 0.540193 0.116787
O O10 0.322838 0.427478 0.282745
O O11 0.180719 0.951019 0.494486
#
# Coordination Sequence:
#
# PCOD9367438 Si02
#       6
#     8   4   8   8   8   8
#     4  10  23  46  77 114 162 206 258 325 388 472
#     4  10  26  48  80 114 158 214 264 332 398 472
#     4  10  23  48  71 112 158 198 258 320 382 466
#     4  12  29  51  78 116 160 205 271 328 401 479
#     4  12  28  52  78 114 157 211 263 334 402 474
#     4  12  27  46  79 115 152 205 263 318 398 467
#
# _framework density 24.91799
#
# number of rings (size 3 to 8) (size 9 to 14) (size 15 to 20)
#    0.000    1.091    1.818    3.818    7.636    5.818 
#    6.545    0.000    0.000    0.000    0.000    0.000 
#    0.000    0.000    0.000    0.000    0.000    0.000 
#
# Total GULP energy -123026.693642 kJ/mol
# GULP energy per Si atom -5592.122438 kJ/mol
# Density = 2.486128 g / cm^3
# Si number density = 24.917990 Si / 1000 Ang^3
#
#
#
# Elastic Constant Matrix: (Units=GPa)
#
#
# Indices 1 2 3 4 5 6 
#
# 1 133.3878 28.1080 59.1172 0.0000 0.0000 0.0000
# 2 28.1080 63.0905 24.8413 0.0000 0.0000 0.0000
# 3 59.1172 24.8413 164.6738 0.0000 0.0000 0.0000
# 4 0.0000 0.0000 0.0000 30.1819 0.0000 0.0000
# 5 0.0000 0.0000 0.0000 0.0000 33.1134 0.0000
# 6 0.0000 0.0000 0.0000 0.0000 0.0000 10.7615
#
#
#
# Elastic Compliance Matrix: (Units=1/GPa)
#
#
# Indices 1 2 3 4 5 6 
#
# 1 0.009438 -0.003052 -0.002928 0.000000 0.000000 0.000000
# 2 -0.003052 0.017838 -0.001595 0.000000 0.000000 0.000000
# 3 -0.002928 -0.001595 0.007364 0.000000 0.000000 0.000000
# 4 0.000000 0.000000 0.000000 0.033132 0.000000 0.000000
# 5 0.000000 0.000000 0.000000 0.000000 0.030199 0.000000
# 6 0.000000 0.000000 0.000000 0.000000 0.000000 0.092923
#
#
# Mechanical properties :
#
#
# Convention : Reuss Voigt Hill
#
# Bulk Modulus (GPa) = 51.30771 65.03165 58.16968
# Shear Modulus (GPa) = 23.52482 31.41708 27.47095
#
# Velocity S-wave (km/s) = 3.07594 3.55465 3.32393
# Velocity P-wave (km/s) = 5.76633 6.55762 6.17466
#
# Compressibility (1/GPa) = 0.01949025
#
# Stress axis : x y z
#
# Youngs Moduli (GPa) = 105.95938 56.05998 135.79051
#
# Poissons Ratio (x) = 0.17109 0.39755
# Poissons Ratio (y) = 0.32337 0.21662
# Poissons Ratio (z) = 0.31021 0.08943
#
# Static dielectric constant tensor:
#      x y z
#    x 1.774300 0.000000 0.000000 
#    y 0.000000 1.961950 0.000000 
#    z 0.000000 0.000000 1.949650 
# 
# From -- ./inp_files/8687.got.cif
#   From: 2010.05.17/outbox.cif.g08.bks.cpg/sg41_5_cif.got.tgz:8687.got - 2010.06.03 18:54:24.
