data_PCOD9367377
_publ_section_title
;
Structure prediction by ZEFSAII (Michael W. Deem and Ramdas Pophale) SiO2 
 PCOD9367377
Probable space group: A B A 2
;
_chemical_formula_sum "Si O2"
_cell_formula_units_Z 64
_cell_length_a 11.994389
_cell_length_b 8.836747
_cell_length_c 25.376795
_cell_angle_alpha 90.000000
_cell_angle_beta 90.000000
_cell_angle_gamma 90.000000
_cell_volume 2689.721548
_symmetry_space_group_name_H-M "A B A 2"
_symmetry_group_IT_number 41
_symmetry_cell_setting 'orthorhombic'
loop_
_space_group_symop_operation_xyz
x,y,z
-x,-y,z
1/2-x,y,1/2+z
1/2+x,-y,1/2+z
x,1/2+y,1/2+z
-x,1/2-y,1/2+z
1/2-x,1/2+y,z
1/2+x,1/2-y,z
loop_
_atom_site_type_symbol
_atom_site_label
_atom_site_fract_x
_atom_site_fract_y
_atom_site_fract_z
Si Si1 0.758434 0.450401 0.834560
Si Si2 0.103682 0.910024 0.995077
Si Si3 0.773304 0.328243 0.534492
Si Si4 0.741940 0.467083 0.649891
Si Si5 0.063931 0.844800 0.597280
Si Si6 0.086030 0.802874 0.180895
Si Si7 0.403119 0.295322 0.880705
Si Si8 0.589410 0.712482 0.295660
O O1 0.668373 0.565573 0.857979
O O2 0.820988 0.348659 0.878049
O O3 0.852301 0.551417 0.806340
O O4 0.689996 0.334363 0.798239
O O5 0.064622 0.843742 0.939336
O O6 0.163956 0.771256 0.024330
O O7 0.000000 0.000000 0.020505
O O8 0.196489 0.043689 0.992260
O O9 0.766154 0.411773 0.590587
O O10 0.843194 0.105174 0.639907
O O11 0.876342 0.214983 0.545084
O O12 0.676571 0.333549 0.678251
O O13 0.850355 0.538250 0.676008
O O14 0.988043 0.728013 0.629402
O O15 0.000000 0.000000 0.585539
O O16 0.032435 0.787634 0.238443
O O17 0.505354 0.256777 0.842336
#
# Coordination Sequence:
#
# PCOD9367377 Si02
#       8
#     8   8   8   8   8   8   8   8
#     4  10  23  43  75  95 150 183 231 308 367 407
#     4  12  28  45  78 105 138 194 251 298 391 434
#     4  12  25  47  70 103 144 187 245 312 359 447
#     4  11  22  45  66  99 149 186 238 294 356 438
#     4  10  24  41  70  99 149 186 234 299 361 431
#     4  11  24  41  70 105 147 194 239 287 367 437
#     4  11  24  48  69 105 140 184 248 312 358 444
#     4  11  23  43  73 109 144 193 244 294 368 445
#
# _framework density 23.794284999999999
#
# number of rings (size 3 to 8) (size 9 to 14) (size 15 to 20)
#    0.000    1.000    2.500    3.000    5.250    6.000 
#    4.500    1.250    0.000    0.000    0.000    0.000 
#    0.000    0.000    0.000    0.000    0.000    0.000 
#
# Total GULP energy -179038.805148 kJ/mol
# GULP energy per Si atom -5594.962661 kJ/mol
# Density = 2.374013 g / cm^3
# Si number density = 23.794285 Si / 1000 Ang^3
#
#
#
# Elastic Constant Matrix: (Units=GPa)
#
#
# Indices 1 2 3 4 5 6 
#
# 1 85.1391 37.6395 37.4702 0.0000 0.0000 0.0000
# 2 37.6395 110.4114 35.3421 0.0000 0.0000 0.0000
# 3 37.4702 35.3421 117.3734 0.0000 0.0000 0.0000
# 4 0.0000 0.0000 0.0000 13.1027 0.0000 0.0000
# 5 0.0000 0.0000 0.0000 0.0000 31.6641 0.0000
# 6 0.0000 0.0000 0.0000 0.0000 0.0000 56.0662
#
#
#
# Elastic Compliance Matrix: (Units=1/GPa)
#
#
# Indices 1 2 3 4 5 6 
#
# 1 0.015103 -0.003990 -0.003620 0.000000 0.000000 0.000000
# 2 -0.003990 0.011077 -0.002062 0.000000 0.000000 0.000000
# 3 -0.003620 -0.002062 0.010296 0.000000 0.000000 0.000000
# 4 0.000000 0.000000 0.000000 0.076320 0.000000 0.000000
# 5 0.000000 0.000000 0.000000 0.000000 0.031582 0.000000
# 6 0.000000 0.000000 0.000000 0.000000 0.000000 0.017836
#
#
# Mechanical properties :
#
#
# Convention : Reuss Voigt Hill
#
# Bulk Modulus (GPa) = 58.36696 59.31418 58.84057
# Shear Modulus (GPa) = 26.69977 33.66473 30.18225
#
# Velocity S-wave (km/s) = 3.35342 3.76550 3.56542
# Velocity P-wave (km/s) = 6.29103 6.62475 6.46004
#
# Compressibility (1/GPa) = 0.01713298
#
# Stress axis : x y z
#
# Youngs Moduli (GPa) = 66.21418 90.27631 97.12273
#
# Poissons Ratio (x) = 0.36018 0.35158
# Poissons Ratio (y) = 0.26418 0.20024
# Poissons Ratio (z) = 0.23969 0.18612
#
# Static dielectric constant tensor:
#      x y z
#    x 1.983250 0.000000 0.000000 
#    y 0.000000 1.938620 0.000000 
#    z 0.000000 0.000000 1.870980 
# 
# From -- ./inp_files/12250.got.cif
#   From: 2010.05.17/outbox.cif.g08.bks.cpg/sg41_7_cif.got.tgz:12250.got - 2010.06.03 18:54:24.
