data_PCOD9367875
_publ_section_title
;
Structure prediction by ZEFSAII (Michael W. Deem and Ramdas Pophale) SiO2 
 PCOD9367875
Probable space group: A B A 2
;
_chemical_formula_sum "Si O2"
_cell_formula_units_Z 40
_cell_length_a 15.881941
_cell_length_b 9.826161
_cell_length_c 11.072104
_cell_angle_alpha 90.000000
_cell_angle_beta 90.000000
_cell_angle_gamma 90.000000
_cell_volume 1727.896045
_symmetry_space_group_name_H-M "A B A 2"
_symmetry_group_IT_number 41
_symmetry_cell_setting 'orthorhombic'
loop_
_space_group_symop_operation_xyz
x,y,z
-x,-y,z
1/2-x,y,1/2+z
1/2+x,-y,1/2+z
x,1/2+y,1/2+z
-x,1/2-y,1/2+z
1/2-x,1/2+y,z
1/2+x,1/2-y,z
loop_
_atom_site_type_symbol
_atom_site_label
_atom_site_fract_x
_atom_site_fract_y
_atom_site_fract_z
Si Si1 0.229987 0.642987 0.538070
Si Si2 0.686136 0.127363 0.406985
Si Si3 0.497231 0.219298 0.342879
Si Si4 0.064045 0.809186 0.590018
Si Si5 0.644203 0.944800 0.219965
O O1 0.211081 0.485436 0.506971
O O2 0.146758 0.717190 0.581477
O O3 0.303470 0.654684 0.636969
O O4 0.265638 0.732405 0.426983
O O5 0.583756 0.878229 0.320716
O O6 0.708536 0.047351 0.284997
O O7 0.586316 0.156408 0.388588
O O8 0.512310 0.257817 0.201922
O O9 0.473931 0.313603 0.455800
O O10 0.088359 0.959477 0.634124
#
# Coordination Sequence:
#
# PCOD9367875 Si02
#       5
#     8   8   8   8   8
#     4  12  25  46  73 108 147 192 255 297 380 444
#     4  11  25  44  75 103 147 195 244 305 370 440
#     4  11  25  48  77 105 157 197 249 308 383 434
#     4  11  24  45  77 109 143 204 245 310 371 447
#     4  11  25  47  73 106 152 196 246 316 368 445
#
# _framework density 23.149539999999998
#
# number of rings (size 3 to 8) (size 9 to 14) (size 15 to 20)
#    0.000    0.800    4.000    3.600    5.600    0.000 
#    3.600    0.000   13.200    0.000    0.000    0.000 
#    0.000    0.000    0.000    0.000    0.000    0.000 
#
# Total GULP energy -111575.031689 kJ/mol
# GULP energy per Si atom -5578.751584 kJ/mol
# Density = 2.309685 g / cm^3
# Si number density = 23.149540 Si / 1000 Ang^3
#
#
#
# Elastic Constant Matrix: (Units=GPa)
#
#
# Indices 1 2 3 4 5 6 
#
# 1 65.7212 18.6594 29.9307 0.0000 0.0000 0.0000
# 2 18.6594 44.0251 5.2687 0.0000 0.0000 0.0000
# 3 29.9307 5.2687 116.9681 0.0000 0.0000 0.0000
# 4 0.0000 0.0000 0.0000 42.3896 0.0000 0.0000
# 5 0.0000 0.0000 0.0000 0.0000 50.9680 0.0000
# 6 0.0000 0.0000 0.0000 0.0000 0.0000 16.1670
#
#
#
# Elastic Compliance Matrix: (Units=1/GPa)
#
#
# Indices 1 2 3 4 5 6 
#
# 1 0.019524 -0.007719 -0.004648 0.000000 0.000000 0.000000
# 2 -0.007719 0.025889 0.000809 0.000000 0.000000 0.000000
# 3 -0.004648 0.000809 0.009702 0.000000 0.000000 0.000000
# 4 0.000000 0.000000 0.000000 0.023591 0.000000 0.000000
# 5 0.000000 0.000000 0.000000 0.000000 0.019620 0.000000
# 6 0.000000 0.000000 0.000000 0.000000 0.000000 0.061854
#
#
# Mechanical properties :
#
#
# Convention : Reuss Voigt Hill
#
# Bulk Modulus (GPa) = 31.25061 37.15911 34.20486
# Shear Modulus (GPa) = 25.77804 33.42862 29.60333
#
# Velocity S-wave (km/s) = 3.34060 3.80416 3.57989
# Velocity P-wave (km/s) = 5.32994 5.94829 5.64758
#
# Compressibility (1/GPa) = 0.03199938
#
# Stress axis : x y z
#
# Youngs Moduli (GPa) = 51.21839 38.62645 103.06781
#
# Poissons Ratio (x) = 0.29815 0.47909
# Poissons Ratio (y) = 0.39534 -0.08338
# Poissons Ratio (z) = 0.23808 -0.03125
#
# Static dielectric constant tensor:
#      x y z
#    x 1.892550 0.000000 0.000000 
#    y 0.000000 1.889760 0.000000 
#    z 0.000000 0.000000 1.897680 
# 
# From -- ./inp_files/5383.got.cif
#   From: 2010.05.17/outbox.cif.g08.bks.cpg/sg41_3_cif.got.tgz:5383.got - 2010.06.03 18:54:24.
