data_PCOD9367934
_publ_section_title
;
Structure prediction by ZEFSAII (Michael W. Deem and Ramdas Pophale) SiO2 
 PCOD9367934
Probable space group: A B A 2
;
_chemical_formula_sum "Si O2"
_cell_formula_units_Z 48
_cell_length_a 11.896526
_cell_length_b 11.807739
_cell_length_c 13.919798
_cell_angle_alpha 90.000000
_cell_angle_beta 90.000000
_cell_angle_gamma 90.000000
_cell_volume 1955.328975
_symmetry_space_group_name_H-M "A B A 2"
_symmetry_group_IT_number 41
_symmetry_cell_setting 'orthorhombic'
loop_
_space_group_symop_operation_xyz
x,y,z
-x,-y,z
1/2-x,y,1/2+z
1/2+x,-y,1/2+z
x,1/2+y,1/2+z
-x,1/2-y,1/2+z
1/2-x,1/2+y,z
1/2+x,1/2-y,z
loop_
_atom_site_type_symbol
_atom_site_label
_atom_site_fract_x
_atom_site_fract_y
_atom_site_fract_z
Si Si1 0.167369 0.724377 0.428750
Si Si2 0.301927 0.944026 0.371267
Si Si3 0.442607 0.892936 0.062450
Si Si4 0.505918 0.168771 0.268927
Si Si5 0.282411 0.033653 0.564121
Si Si6 0.106965 0.079104 0.268430
O O1 0.238795 0.824419 0.382383
O O2 0.074324 0.787087 0.494257
O O3 0.239028 0.651325 0.506167
O O4 0.099282 0.666974 0.341088
O O5 0.402179 0.922885 0.299569
O O6 0.348336 0.971898 0.477436
O O7 0.206965 0.032889 0.336410
O O8 0.512467 0.856642 0.156413
O O9 0.500000 0.000000 0.012101
O O10 0.320231 0.947927 0.085906
O O11 0.564548 0.292361 0.278707
O O12 0.347460 0.061008 0.660384
O O13 0.000000 0.000000 0.283007
#
# Coordination Sequence:
#
# PCOD9367934 Si02
#       6
#     8   8   8   8   8   8
#     4  11  26  46  72 106 141 197 241 301 372 442
#     4  11  26  44  72 106 142 194 243 307 364 442
#     4  11  27  47  73 106 145 193 245 313 371 443
#     4  12  26  46  74 107 147 189 249 300 376 440
#     4  11  26  48  71 104 147 188 252 300 375 439
#     4  12  25  49  72 104 147 197 243 309 372 445
#
# _framework density 24.548299
#
# number of rings (size 3 to 8) (size 9 to 14) (size 15 to 20)
#    0.000    0.667    5.000    1.000   11.667    1.333 
#    3.000    0.000    0.000    0.000    0.000    0.000 
#    0.000    0.000    0.000    0.000    0.000    0.000 
#
# Total GULP energy -134253.112955 kJ/mol
# GULP energy per Si atom -5593.879706 kJ/mol
# Density = 2.449243 g / cm^3
# Si number density = 24.548299 Si / 1000 Ang^3
#
#
#
# Elastic Constant Matrix: (Units=GPa)
#
#
# Indices 1 2 3 4 5 6 
#
# 1 73.7838 22.6480 46.2492 0.0000 0.0000 0.0000
# 2 22.6480 116.9373 27.8257 0.0000 0.0000 0.0000
# 3 46.2492 27.8257 153.4607 0.0000 0.0000 0.0000
# 4 0.0000 0.0000 0.0000 41.0980 0.0000 0.0000
# 5 0.0000 0.0000 0.0000 0.0000 30.0852 0.0000
# 6 0.0000 0.0000 0.0000 0.0000 0.0000 44.4575
#
#
#
# Elastic Compliance Matrix: (Units=1/GPa)
#
#
# Indices 1 2 3 4 5 6 
#
# 1 0.017233 -0.002197 -0.004795 0.000000 0.000000 0.000000
# 2 -0.002197 0.009217 -0.001009 0.000000 0.000000 0.000000
# 3 -0.004795 -0.001009 0.008145 0.000000 0.000000 0.000000
# 4 0.000000 0.000000 0.000000 0.024332 0.000000 0.000000
# 5 0.000000 0.000000 0.000000 0.000000 0.033239 0.000000
# 6 0.000000 0.000000 0.000000 0.000000 0.000000 0.022493
#
#
# Mechanical properties :
#
#
# Convention : Reuss Voigt Hill
#
# Bulk Modulus (GPa) = 53.78528 59.73639 56.76083
# Shear Modulus (GPa) = 36.53390 39.62540 38.07965
#
# Velocity S-wave (km/s) = 3.86196 4.02205 3.94282
# Velocity P-wave (km/s) = 6.46869 6.77910 6.62571
#
# Compressibility (1/GPa) = 0.01859245
#
# Stress axis : x y z
#
# Youngs Moduli (GPa) = 58.02762 108.49304 122.78182
#
# Poissons Ratio (x) = 0.23831 0.58878
# Poissons Ratio (y) = 0.12746 0.12392
# Poissons Ratio (z) = 0.27826 0.10950
#
# Static dielectric constant tensor:
#      x y z
#    x 1.928370 0.000000 0.000000 
#    y 0.000000 2.071430 0.000000 
#    z 0.000000 0.000000 1.909490 
# 
# From -- ./inp_files/8356.got.cif
#   From: 2010.05.17/outbox.cif.g08.bks.cpg/sg41_5_cif.got.tgz:8356.got - 2010.06.03 18:54:24.
