data_PCOD9367725
_publ_section_title
;
Structure prediction by ZEFSAII (Michael W. Deem and Ramdas Pophale) SiO2 
 PCOD9367725
Probable space group: A B A 2
;
_chemical_formula_sum "Si O2"
_cell_formula_units_Z 36
_cell_length_a 13.233889
_cell_length_b 11.658858
_cell_length_c 9.335986
_cell_angle_alpha 90.000000
_cell_angle_beta 90.000000
_cell_angle_gamma 90.000000
_cell_volume 1440.468257
_symmetry_space_group_name_H-M "A B A 2"
_symmetry_group_IT_number 41
_symmetry_cell_setting 'orthorhombic'
loop_
_space_group_symop_operation_xyz
x,y,z
-x,-y,z
1/2-x,y,1/2+z
1/2+x,-y,1/2+z
x,1/2+y,1/2+z
-x,1/2-y,1/2+z
1/2-x,1/2+y,z
1/2+x,1/2-y,z
loop_
_atom_site_type_symbol
_atom_site_label
_atom_site_fract_x
_atom_site_fract_y
_atom_site_fract_z
Si Si1 0.813983 0.731379 0.117470
Si Si2 0.066882 0.717446 0.351952
Si Si3 0.717616 0.870235 0.877910
Si Si4 0.500000 0.000000 0.467682
Si Si5 0.854203 0.567807 0.704075
O O1 0.840824 0.785638 0.269763
O O2 0.751661 0.617062 0.148182
O O3 0.906923 0.726312 0.007894
O O4 0.733034 0.813722 0.032100
O O5 0.167263 0.640195 0.321562
O O6 0.074383 0.824615 0.245395
O O7 0.987970 0.615864 0.376826
O O8 0.669003 0.991900 0.844202
O O9 0.594231 0.995725 0.577856
#
# Coordination Sequence:
#
# PCOD9367725 Si02
#       5
#     8   8   8   4   8
#     4   9  20  37  62  94 116 165 213 248 300 386
#     4   9  23  40  60  95 121 162 210 252 320 361
#     4   9  19  38  63  92 118 163 213 253 295 389
#     4  12  24  42  56  98 136 158 194 286 310 362
#     4  11  22  40  65  91 125 165 211 253 322 366
#
# _framework density 24.991873999999999
#
# number of rings (size 3 to 8) (size 9 to 14) (size 15 to 20)
#    1.333    0.889    2.222    0.000    6.222    1.778 
#    4.000    0.000    0.000    0.000    0.000    0.000 
#    0.000    0.000    0.000    0.000    0.000    0.000 
#
# Total GULP energy -100307.808356 kJ/mol
# GULP energy per Si atom -5572.656020 kJ/mol
# Density = 2.493499 g / cm^3
# Si number density = 24.991874 Si / 1000 Ang^3
#
#
#
# Elastic Constant Matrix: (Units=GPa)
#
#
# Indices 1 2 3 4 5 6 
#
# 1 21.6213 21.7074 -7.4222 0.0000 0.0000 0.0000
# 2 21.7074 122.2634 36.9206 0.0000 0.0000 0.0000
# 3 -7.4222 36.9206 87.3063 0.0000 0.0000 0.0000
# 4 0.0000 0.0000 0.0000 40.0826 0.0000 0.0000
# 5 0.0000 0.0000 0.0000 0.0000 21.7499 0.0000
# 6 0.0000 0.0000 0.0000 0.0000 0.0000 40.6501
#
#
#
# Elastic Compliance Matrix: (Units=1/GPa)
#
#
# Indices 1 2 3 4 5 6 
#
# 1 0.065781 -0.015325 0.012073 0.000000 0.000000 0.000000
# 2 -0.015325 0.012947 -0.006778 0.000000 0.000000 0.000000
# 3 0.012073 -0.006778 0.015347 0.000000 0.000000 0.000000
# 4 0.000000 0.000000 0.000000 0.024948 0.000000 0.000000
# 5 0.000000 0.000000 0.000000 0.000000 0.045977 0.000000
# 6 0.000000 0.000000 0.000000 0.000000 0.000000 0.024600
#
#
# Mechanical properties :
#
#
# Convention : Reuss Voigt Hill
#
# Bulk Modulus (GPa) = 13.51080 37.06696 25.28888
# Shear Modulus (GPa) = 21.33730 32.49554 26.91642
#
# Velocity S-wave (km/s) = 2.92510 3.60980 3.28534
# Velocity P-wave (km/s) = 4.10197 5.67785 4.95299
#
# Compressibility (1/GPa) = 0.07401489
#
# Stress axis : x y z
#
# Youngs Moduli (GPa) = 15.20191 77.23988 65.16131
#
# Poissons Ratio (x) = 1.18370 -0.78669
# Poissons Ratio (y) = 0.23297 0.44165
# Poissons Ratio (z) = -0.18353 0.52352
#
# Static dielectric constant tensor:
#      x y z
#    x 2.151450 0.000000 0.000000 
#    y 0.000000 1.980350 0.000000 
#    z 0.000000 0.000000 1.974410 
# 
# From -- ./inp_files/5339.got.cif
#   From: 2010.05.17/outbox.cif.g08.bks.cpg/sg41_3_cif.got.tgz:5339.got - 2010.06.03 18:54:24.
