data_PCOD9367296
_publ_section_title
;
Structure prediction by ZEFSAII (Michael W. Deem and Ramdas Pophale) SiO2 
 PCOD9367296
Probable space group: A B A 2
;
_chemical_formula_sum "Si O2"
_cell_formula_units_Z 32
_cell_length_a 18.276963
_cell_length_b 13.392769
_cell_length_c 5.114642
_cell_angle_alpha 90.000000
_cell_angle_beta 90.000000
_cell_angle_gamma 90.000000
_cell_volume 1251.957688
_symmetry_space_group_name_H-M "A B A 2"
_symmetry_group_IT_number 41
_symmetry_cell_setting 'orthorhombic'
loop_
_space_group_symop_operation_xyz
x,y,z
-x,-y,z
1/2-x,y,1/2+z
1/2+x,-y,1/2+z
x,1/2+y,1/2+z
-x,1/2-y,1/2+z
1/2-x,1/2+y,z
1/2+x,1/2-y,z
loop_
_atom_site_type_symbol
_atom_site_label
_atom_site_fract_x
_atom_site_fract_y
_atom_site_fract_z
Si Si1 0.102629 0.576741 0.393080
Si Si2 0.060736 0.865013 0.056100
Si Si3 0.202395 0.990895 0.515268
Si Si4 0.871360 0.214813 0.555517
O O1 0.104654 0.470004 0.540552
O O2 0.127007 0.546175 0.099809
O O3 0.148220 0.672901 0.482796
O O4 0.019561 0.611701 0.447266
O O5 0.099480 0.792462 0.849525
O O6 0.066947 0.821630 0.345660
O O7 0.244937 0.017353 0.256526
O O8 0.188695 0.871473 0.522145
#
# Coordination Sequence:
#
# PCOD9367296 Si02
#       4
#     8   8   8   8
#     4  10  23  41  68  93 127 170 206 263 333 376
#     4  10  23  40  64 101 129 153 209 270 323 395
#     4  11  25  43  61  91 130 171 224 264 298 376
#     4  11  23  41  65  93 128 166 209 265 326 380
#
# _framework density 25.559972999999999
#
# number of rings (size 3 to 8) (size 9 to 14) (size 15 to 20)
#    0.000    1.500    0.000    4.500    0.000   18.000 
#    0.000    0.000    0.000    0.000    0.000    0.000 
#    0.000    0.000    0.000    0.000    0.000    0.000 
#
# Total GULP energy -89525.681631 kJ/mol
# GULP energy per Si atom -5595.355102 kJ/mol
# Density = 2.550180 g / cm^3
# Si number density = 25.559973 Si / 1000 Ang^3
#
#
#
# Elastic Constant Matrix: (Units=GPa)
#
#
# Indices 1 2 3 4 5 6 
#
# 1 78.1332 14.8395 34.4990 0.0000 0.0000 0.0000
# 2 14.8395 194.1034 31.4529 0.0000 0.0000 0.0000
# 3 34.4990 31.4529 109.5402 0.0000 0.0000 0.0000
# 4 0.0000 0.0000 0.0000 32.8425 0.0000 0.0000
# 5 0.0000 0.0000 0.0000 0.0000 36.5577 0.0000
# 6 0.0000 0.0000 0.0000 0.0000 0.0000 38.7207
#
#
#
# Elastic Compliance Matrix: (Units=1/GPa)
#
#
# Indices 1 2 3 4 5 6 
#
# 1 0.014895 -0.000397 -0.004577 0.000000 0.000000 0.000000
# 2 -0.000397 0.005414 -0.001429 0.000000 0.000000 0.000000
# 3 -0.004577 -0.001429 0.010981 0.000000 0.000000 0.000000
# 4 0.000000 0.000000 0.000000 0.030448 0.000000 0.000000
# 5 0.000000 0.000000 0.000000 0.000000 0.027354 0.000000
# 6 0.000000 0.000000 0.000000 0.000000 0.000000 0.025826
#
#
# Mechanical properties :
#
#
# Convention : Reuss Voigt Hill
#
# Bulk Modulus (GPa) = 54.10458 60.37331 57.23894
# Shear Modulus (GPa) = 37.34505 41.68986 39.51746
#
# Velocity S-wave (km/s) = 3.82655 4.04302 3.93627
# Velocity P-wave (km/s) = 6.38255 6.74286 6.56518
#
# Compressibility (1/GPa) = 0.01848272
#
# Stress axis : x y z
#
# Youngs Moduli (GPa) = 67.13642 184.71032 91.06605
#
# Poissons Ratio (x) = 0.07334 0.41682
# Poissons Ratio (y) = 0.02666 0.13018
# Poissons Ratio (z) = 0.30729 0.26404
#
# Static dielectric constant tensor:
#      x y z
#    x 2.116680 0.000000 0.000000 
#    y 0.000000 1.981560 0.000000 
#    z 0.000000 0.000000 2.020430 
# 
# From -- ./inp_files/613.got.cif
#   From: 2010.05.17/outbox.cif.g08.bks.cpg/sg41_1_cif.got.tgz:613.got - 2010.06.03 18:54:24.
