data_PCOD9367593
_publ_section_title
;
Structure prediction by ZEFSAII (Michael W. Deem and Ramdas Pophale) SiO2 
 PCOD9367593
Probable space group: A B A 2
;
_chemical_formula_sum "Si O2"
_cell_formula_units_Z 64
_cell_length_a 8.798672
_cell_length_b 13.570824
_cell_length_c 23.610380
_cell_angle_alpha 90.000000
_cell_angle_beta 90.000000
_cell_angle_gamma 90.000000
_cell_volume 2819.202834
_symmetry_space_group_name_H-M "A B A 2"
_symmetry_group_IT_number 41
_symmetry_cell_setting 'orthorhombic'
loop_
_space_group_symop_operation_xyz
x,y,z
-x,-y,z
1/2-x,y,1/2+z
1/2+x,-y,1/2+z
x,1/2+y,1/2+z
-x,1/2-y,1/2+z
1/2-x,1/2+y,z
1/2+x,1/2-y,z
loop_
_atom_site_type_symbol
_atom_site_label
_atom_site_fract_x
_atom_site_fract_y
_atom_site_fract_z
Si Si1 0.052345 0.387547 0.244270
Si Si2 0.410255 0.902932 0.378273
Si Si3 0.345668 0.281305 0.190437
Si Si4 0.092014 0.778736 0.531624
Si Si5 0.871700 0.865567 0.124277
Si Si6 0.821781 0.487651 0.939241
Si Si7 0.339243 0.723906 0.449674
Si Si8 0.320759 0.474690 0.569279
O O1 0.064632 0.391308 0.312188
O O2 0.214080 0.349551 0.218515
O O3 0.000000 0.500000 0.226103
O O4 0.932112 0.300791 0.229289
O O5 0.430483 0.801735 0.412274
O O6 0.500000 0.000000 0.400034
O O7 0.240847 0.936690 0.393711
O O8 0.260094 0.206888 0.147350
O O9 0.481373 0.347896 0.163774
O O10 0.078572 0.676202 0.563122
O O11 0.194773 0.775113 0.476508
O O12 0.930576 0.808888 0.506387
O O13 0.167936 0.857300 0.573151
O O14 0.790675 0.969520 0.111943
O O15 0.792089 0.376060 0.919460
O O16 0.000000 0.500000 0.942843
O O17 0.767656 0.504467 0.004186
O O18 0.500000 0.500000 0.576890
#
# Coordination Sequence:
#
# PCOD9367593 Si02
#       8
#     8   8   8   8   8   8   8   8
#     4  10  25  51  78 104 145 185 248 327 374 428
#     4  11  25  42  67 102 136 186 237 300 368 429
#     4  10  24  48  75 106 138 185 255 305 371 436
#     4  12  22  36  60  92 134 184 217 272 345 427
#     4  11  23  42  68 102 139 184 237 290 362 440
#     4  11  21  40  61  95 138 188 234 279 348 443
#     4  12  22  37  62  92 140 180 224 277 344 432
#     4  11  20  38  61  93 143 188 227 282 350 435
#
# _framework density 22.701453000000001
#
# number of rings (size 3 to 8) (size 9 to 14) (size 15 to 20)
#    0.000    1.000    5.000    2.250    0.000    6.500 
#    0.000   10.625    0.000    0.000    0.000    0.000 
#    0.000    0.000    0.000    0.000    0.000    0.000 
#
# Total GULP energy -178642.820276 kJ/mol
# GULP energy per Si atom -5582.588134 kJ/mol
# Density = 2.264978 g / cm^3
# Si number density = 22.701453 Si / 1000 Ang^3
#
#
#
# Elastic Constant Matrix: (Units=GPa)
#
#
# Indices 1 2 3 4 5 6 
#
# 1 90.9608 42.5532 33.3980 0.0000 0.0000 0.0000
# 2 42.5532 149.4634 43.7966 0.0000 0.0000 0.0000
# 3 33.3980 43.7966 76.8588 0.0000 0.0000 0.0000
# 4 0.0000 0.0000 0.0000 37.9313 0.0000 0.0000
# 5 0.0000 0.0000 0.0000 0.0000 17.4453 0.0000
# 6 0.0000 0.0000 0.0000 0.0000 0.0000 37.9507
#
#
#
# Elastic Compliance Matrix: (Units=1/GPa)
#
#
# Indices 1 2 3 4 5 6 
#
# 1 0.013888 -0.002624 -0.004540 0.000000 0.000000 0.000000
# 2 -0.002624 0.008527 -0.003719 0.000000 0.000000 0.000000
# 3 -0.004540 -0.003719 0.017103 0.000000 0.000000 0.000000
# 4 0.000000 0.000000 0.000000 0.026363 0.000000 0.000000
# 5 0.000000 0.000000 0.000000 0.000000 0.057322 0.000000
# 6 0.000000 0.000000 0.000000 0.000000 0.000000 0.026350
#
#
# Mechanical properties :
#
#
# Convention : Reuss Voigt Hill
#
# Bulk Modulus (GPa) = 56.32825 61.86428 59.09626
# Shear Modulus (GPa) = 28.21088 31.83448 30.02268
#
# Velocity S-wave (km/s) = 3.52901 3.74881 3.64057
# Velocity P-wave (km/s) = 6.43985 6.78590 6.61514
#
# Compressibility (1/GPa) = 0.01775308
#
# Stress axis : x y z
#
# Youngs Moduli (GPa) = 72.00434 117.26942 58.46996
#
# Poissons Ratio (x) = 0.30769 0.26544
# Poissons Ratio (y) = 0.18892 0.21745
# Poissons Ratio (z) = 0.32688 0.43613
#
# Static dielectric constant tensor:
#      x y z
#    x 1.949660 0.000000 0.000000 
#    y 0.000000 1.926790 0.000000 
#    z 0.000000 0.000000 1.798380 
# 
# From -- ./inp_files/12045.got.cif
#   From: 2010.05.17/outbox.cif.g08.bks.cpg/sg41_7_cif.got.tgz:12045.got - 2010.06.03 18:54:24.
