data_PCOD9367230
_publ_section_title
;
Structure prediction by ZEFSAII (Michael W. Deem and Ramdas Pophale) SiO2 
 PCOD9367230
Probable space group: A B A 2
;
_chemical_formula_sum "Si O2"
_cell_formula_units_Z 48
_cell_length_a 16.001369
_cell_length_b 11.833748
_cell_length_c 10.889413
_cell_angle_alpha 90.000000
_cell_angle_beta 90.000000
_cell_angle_gamma 90.000000
_cell_volume 2061.977522
_symmetry_space_group_name_H-M "A B A 2"
_symmetry_group_IT_number 41
_symmetry_cell_setting 'orthorhombic'
loop_
_space_group_symop_operation_xyz
x,y,z
-x,-y,z
1/2-x,y,1/2+z
1/2+x,-y,1/2+z
x,1/2+y,1/2+z
-x,1/2-y,1/2+z
1/2-x,1/2+y,z
1/2+x,1/2-y,z
loop_
_atom_site_type_symbol
_atom_site_label
_atom_site_fract_x
_atom_site_fract_y
_atom_site_fract_z
Si Si1 0.151244 0.598752 0.943630
Si Si2 0.861559 0.290485 0.184957
Si Si3 0.584059 0.063706 0.765182
Si Si4 0.164793 0.547134 0.545804
Si Si5 0.403174 0.979649 0.298881
Si Si6 0.331857 0.750242 0.198952
O O1 0.105793 0.485202 0.898583
O O2 0.156672 0.678819 0.824701
O O3 0.108216 0.670595 0.051077
O O4 0.241542 0.562704 0.995936
O O5 0.918836 0.197671 0.250651
O O6 0.856287 0.406263 0.259654
O O7 0.767523 0.243142 0.176697
O O8 0.500000 0.000000 0.725592
O O9 0.655845 0.021517 0.671935
O O10 0.113847 0.477288 0.444561
O O11 0.134498 0.673200 0.586087
O O12 0.500000 0.000000 0.274504
O O13 0.370838 0.871643 0.225134
#
# Coordination Sequence:
#
# PCOD9367230 Si02
#       6
#     8   8   8   8   8   8
#     4  10  22  44  71 100 134 184 242 289 350 433
#     4  11  25  42  69 100 136 186 235 291 357 427
#     4  11  25  44  71 102 147 184 238 297 370 435
#     4  10  22  44  71  99 132 190 232 291 358 431
#     4  12  26  44  68 104 143 180 232 301 366 428
#     4  10  23  44  68  97 136 178 243 286 349 439
#
# _framework density 23.278625999999999
#
# number of rings (size 3 to 8) (size 9 to 14) (size 15 to 20)
#    0.000    1.333    1.667    2.500    9.333    2.000 
#    0.000    0.000    0.000    0.000    0.000    0.000 
#    0.000    0.000    0.000    0.000    0.000    0.000 
#
# Total GULP energy -134166.663153 kJ/mol
# GULP energy per Si atom -5590.277631 kJ/mol
# Density = 2.322564 g / cm^3
# Si number density = 23.278626 Si / 1000 Ang^3
#
#
#
# Elastic Constant Matrix: (Units=GPa)
#
#
# Indices 1 2 3 4 5 6 
#
# 1 61.7708 21.4351 0.7122 0.0000 0.0000 0.0000
# 2 21.4351 126.1596 35.5517 0.0000 0.0000 0.0000
# 3 0.7122 35.5517 75.4676 0.0000 0.0000 0.0000
# 4 0.0000 0.0000 0.0000 39.2120 0.0000 0.0000
# 5 0.0000 0.0000 0.0000 0.0000 10.1599 0.0000
# 6 0.0000 0.0000 0.0000 0.0000 0.0000 22.4148
#
#
#
# Elastic Compliance Matrix: (Units=1/GPa)
#
#
# Indices 1 2 3 4 5 6 
#
# 1 0.017332 -0.003342 0.001411 0.000000 0.000000 0.000000
# 2 -0.003342 0.009784 -0.004578 0.000000 0.000000 0.000000
# 3 0.001411 -0.004578 0.015394 0.000000 0.000000 0.000000
# 4 0.000000 0.000000 0.000000 0.025502 0.000000 0.000000
# 5 0.000000 0.000000 0.000000 0.000000 0.098426 0.000000
# 6 0.000000 0.000000 0.000000 0.000000 0.000000 0.044613
#
#
# Mechanical properties :
#
#
# Convention : Reuss Voigt Hill
#
# Bulk Modulus (GPa) = 33.90709 42.08846 37.99777
# Shear Modulus (GPa) = 21.37648 28.07062 24.72355
#
# Velocity S-wave (km/s) = 3.03361 3.47631 3.26248
# Velocity P-wave (km/s) = 5.18342 5.85086 5.52722
#
# Compressibility (1/GPa) = 0.02949235
#
# Stress axis : x y z
#
# Youngs Moduli (GPa) = 57.69513 102.20376 64.96078
#
# Poissons Ratio (x) = 0.34161 -0.09166
# Poissons Ratio (y) = 0.19285 0.29737
# Poissons Ratio (z) = -0.08141 0.46786
#
# Static dielectric constant tensor:
#      x y z
#    x 1.878220 0.000000 0.000000 
#    y 0.000000 1.919520 0.000000 
#    z 0.000000 0.000000 1.949890 
# 
# From -- ./inp_files/5908.got.cif
#   From: 2010.05.17/outbox.cif.g08.bks.cpg/sg41_3_cif.got.tgz:5908.got - 2010.06.03 18:54:24.
