data_PCOD9367287
_publ_section_title
;
Structure prediction by ZEFSAII (Michael W. Deem and Ramdas Pophale) SiO2 
 PCOD9367287
Probable space group: A B A 2
;
_chemical_formula_sum "Si O2"
_cell_formula_units_Z 64
_cell_length_a 16.855117
_cell_length_b 20.852877
_cell_length_c 7.949109
_cell_angle_alpha 90.000000
_cell_angle_beta 90.000000
_cell_angle_gamma 90.000000
_cell_volume 2793.934402
_symmetry_space_group_name_H-M "A B A 2"
_symmetry_group_IT_number 41
_symmetry_cell_setting 'orthorhombic'
loop_
_space_group_symop_operation_xyz
x,y,z
-x,-y,z
1/2-x,y,1/2+z
1/2+x,-y,1/2+z
x,1/2+y,1/2+z
-x,1/2-y,1/2+z
1/2-x,1/2+y,z
1/2+x,1/2-y,z
loop_
_atom_site_type_symbol
_atom_site_label
_atom_site_fract_x
_atom_site_fract_y
_atom_site_fract_z
Si Si1 0.379549 0.482572 0.151410
Si Si2 0.150760 0.900778 0.830617
Si Si3 0.625012 0.327534 0.464798
Si Si4 0.135967 0.266773 0.861577
Si Si5 0.966555 0.897931 0.221580
Si Si6 0.521812 0.200464 0.444220
Si Si7 0.180854 0.900406 0.441144
Si Si8 0.260555 0.206443 0.658451
O O1 0.458315 0.443697 0.205551
O O2 0.395173 0.557996 0.150471
O O3 0.323593 0.457351 0.303083
O O4 0.362788 0.458536 0.962740
O O5 0.078103 0.850545 0.848540
O O6 0.164783 0.917805 0.635141
O O7 0.231166 0.871823 0.911132
O O8 0.561291 0.379734 0.408319
O O9 0.576129 0.261680 0.485765
O O10 0.682024 0.316359 0.303981
O O11 0.690985 0.343251 0.604857
O O12 0.122455 0.341288 0.898594
O O13 0.201312 0.263033 0.715478
O O14 0.054488 0.227607 0.845770
O O15 0.182993 0.232655 0.013724
O O16 0.987179 0.836480 0.107415
#
# Coordination Sequence:
#
# PCOD9367287 Si02
#       8
#     8   8   8   8   8   8   8   8
#     4  10  24  46  70  96 138 190 233 310 353 420
#     4  11  24  42  69 105 136 185 248 301 360 426
#     4  11  22  41  64  98 131 183 221 278 359 428
#     4  11  22  38  61  98 137 176 222 292 359 429
#     4  10  23  47  67  96 142 181 236 294 364 424
#     4  11  24  38  69  99 136 180 227 293 365 433
#     4  12  22  42  69 103 137 184 246 298 357 434
#     4  10  23  38  59  95 144 171 219 285 356 430
#
# _framework density 22.906766000000001
#
# number of rings (size 3 to 8) (size 9 to 14) (size 15 to 20)
#    0.000    1.250    2.500    3.750    5.250    1.000 
#    2.250    6.250    0.000    0.000    0.000    0.000 
#    0.000    0.000    0.000    0.000    0.000    0.000 
#
# Total GULP energy -178524.388437 kJ/mol
# GULP energy per Si atom -5578.887139 kJ/mol
# Density = 2.285463 g / cm^3
# Si number density = 22.906766 Si / 1000 Ang^3
#
#
#
# Elastic Constant Matrix: (Units=GPa)
#
#
# Indices 1 2 3 4 5 6 
#
# 1 125.4460 26.1661 44.3981 0.0000 0.0000 0.0000
# 2 26.1661 62.9493 25.8628 0.0000 0.0000 0.0000
# 3 44.3981 25.8628 107.0540 0.0000 0.0000 0.0000
# 4 0.0000 0.0000 0.0000 17.9226 0.0000 0.0000
# 5 0.0000 0.0000 0.0000 0.0000 37.2929 0.0000
# 6 0.0000 0.0000 0.0000 0.0000 0.0000 23.0320
#
#
#
# Elastic Compliance Matrix: (Units=1/GPa)
#
#
# Indices 1 2 3 4 5 6 
#
# 1 0.009725 -0.002648 -0.003393 0.000000 0.000000 0.000000
# 2 -0.002648 0.018357 -0.003337 0.000000 0.000000 0.000000
# 3 -0.003393 -0.003337 0.011555 0.000000 0.000000 0.000000
# 4 0.000000 0.000000 0.000000 0.055795 0.000000 0.000000
# 5 0.000000 0.000000 0.000000 0.000000 0.026815 0.000000
# 6 0.000000 0.000000 0.000000 0.000000 0.000000 0.043418
#
#
# Mechanical properties :
#
#
# Convention : Reuss Voigt Hill
#
# Bulk Modulus (GPa) = 47.89181 54.25594 51.07387
# Shear Modulus (GPa) = 26.12584 28.91766 27.52175
#
# Velocity S-wave (km/s) = 3.38084 3.55689 3.46998
# Velocity P-wave (km/s) = 6.01604 6.37225 6.19671
#
# Compressibility (1/GPa) = 0.02088040
#
# Stress axis : x y z
#
# Youngs Moduli (GPa) = 102.82841 54.47389 86.54626
#
# Poissons Ratio (x) = 0.14426 0.29369
# Poissons Ratio (y) = 0.27231 0.28877
# Poissons Ratio (z) = 0.34894 0.18176
#
# Static dielectric constant tensor:
#      x y z
#    x 1.958040 0.000000 0.000000 
#    y 0.000000 1.878080 0.000000 
#    z 0.000000 0.000000 1.948830 
# 
# From -- ./inp_files/3218.got.cif
#   From: 2010.05.17/outbox.cif.g08.bks.cpg/sg41_2_cif.got.tgz:3218.got - 2010.06.03 18:54:24.
