data_PCOD9367237
_publ_section_title
;
Structure prediction by ZEFSAII (Michael W. Deem and Ramdas Pophale) SiO2 
 PCOD9367237
Probable space group: A B A 2
;
_chemical_formula_sum "Si O2"
_cell_formula_units_Z 40
_cell_length_a 14.448900
_cell_length_b 10.743763
_cell_length_c 10.656591
_cell_angle_alpha 90.000000
_cell_angle_beta 90.000000
_cell_angle_gamma 90.000000
_cell_volume 1654.281842
_symmetry_space_group_name_H-M "A B A 2"
_symmetry_group_IT_number 41
_symmetry_cell_setting 'orthorhombic'
loop_
_space_group_symop_operation_xyz
x,y,z
-x,-y,z
1/2-x,y,1/2+z
1/2+x,-y,1/2+z
x,1/2+y,1/2+z
-x,1/2-y,1/2+z
1/2-x,1/2+y,z
1/2+x,1/2-y,z
loop_
_atom_site_type_symbol
_atom_site_label
_atom_site_fract_x
_atom_site_fract_y
_atom_site_fract_z
Si Si1 0.815609 0.509648 0.391580
Si Si2 0.000000 0.500000 0.546208
Si Si3 0.033929 0.797884 0.258290
Si Si4 0.887294 0.622171 0.151066
Si Si5 0.294300 0.248781 0.443350
Si Si6 0.000000 0.000000 0.445354
O O1 0.912624 0.474157 0.457203
O O2 0.827901 0.541890 0.246024
O O3 0.777378 0.638502 0.444225
O O4 0.755216 0.387547 0.416796
O O5 0.966894 0.614089 0.635340
O O6 0.131137 0.773075 0.329528
O O7 0.977157 0.674870 0.223533
O O8 0.979060 0.881736 0.359347
O O9 0.839687 0.739046 0.081831
O O10 0.917760 0.537658 0.035900
#
# Coordination Sequence:
#
# PCOD9367237 Si02
#       6
#     8   4   8   8   8   4
#     4  12  27  47  75 112 155 206 257 319 401 460
#     4  11  23  46  78 106 155 207 256 314 392 483
#     4  10  22  44  75 105 144 197 257 315 385 465
#     4  11  23  45  74 102 150 195 252 316 388 469
#     4  11  27  47  71 116 151 202 260 330 388 466
#     4   9  21  38  68 108 135 183 252 306 366 459
#
# _framework density 24.179677000000002
#
# number of rings (size 3 to 8) (size 9 to 14) (size 15 to 20)
#    0.000    1.200    2.000    3.000    5.600    6.400 
#    0.000    0.000    0.000    0.000    0.000    0.000 
#    0.000    0.000    0.000    0.000    0.000    0.000 
#
# Total GULP energy -111840.566471 kJ/mol
# GULP energy per Si atom -5592.028324 kJ/mol
# Density = 2.412464 g / cm^3
# Si number density = 24.179677 Si / 1000 Ang^3
#
#
#
# Elastic Constant Matrix: (Units=GPa)
#
#
# Indices 1 2 3 4 5 6 
#
# 1 54.7598 28.0756 22.4962 0.0000 0.0000 0.0000
# 2 28.0756 138.2083 37.2081 0.0000 0.0000 0.0000
# 3 22.4962 37.2081 119.1214 0.0000 0.0000 0.0000
# 4 0.0000 0.0000 0.0000 14.0853 0.0000 0.0000
# 5 0.0000 0.0000 0.0000 0.0000 15.9517 0.0000
# 6 0.0000 0.0000 0.0000 0.0000 0.0000 28.3860
#
#
#
# Elastic Compliance Matrix: (Units=1/GPa)
#
#
# Indices 1 2 3 4 5 6 
#
# 1 0.021271 -0.003537 -0.002912 0.000000 0.000000 0.000000
# 2 -0.003537 0.008488 -0.001983 0.000000 0.000000 0.000000
# 3 -0.002912 -0.001983 0.009564 0.000000 0.000000 0.000000
# 4 0.000000 0.000000 0.000000 0.070996 0.000000 0.000000
# 5 0.000000 0.000000 0.000000 0.000000 0.062689 0.000000
# 6 0.000000 0.000000 0.000000 0.000000 0.000000 0.035229
#
#
# Mechanical properties :
#
#
# Convention : Reuss Voigt Hill
#
# Bulk Modulus (GPa) = 44.52681 54.18326 49.35504
# Shear Modulus (GPa) = 21.49717 26.63857 24.06787
#
# Velocity S-wave (km/s) = 2.98494 3.32278 3.15838
# Velocity P-wave (km/s) = 5.50770 6.09741 5.81004
#
# Compressibility (1/GPa) = 0.02245838
#
# Stress axis : x y z
#
# Youngs Moduli (GPa) = 47.01136 117.81483 104.55571
#
# Poissons Ratio (x) = 0.41671 0.30450
# Poissons Ratio (y) = 0.16628 0.20736
# Poissons Ratio (z) = 0.13691 0.23366
#
# Static dielectric constant tensor:
#      x y z
#    x 1.982530 0.000000 0.000000 
#    y 0.000000 1.973490 0.000000 
#    z 0.000000 0.000000 1.920060 
# 
# From -- ./inp_files/2936.got.cif
#   From: 2010.05.17/outbox.cif.g08.bks.cpg/sg41_2_cif.got.tgz:2936.got - 2010.06.03 18:54:24.
