data_PCOD9367508
_publ_section_title
;
Structure prediction by ZEFSAII (Michael W. Deem and Ramdas Pophale) SiO2 
 PCOD9367508
Probable space group: A B A 2
;
_chemical_formula_sum "Si O2"
_cell_formula_units_Z 64
_cell_length_a 8.289324
_cell_length_b 22.124400
_cell_length_c 16.042820
_cell_angle_alpha 90.000000
_cell_angle_beta 90.000000
_cell_angle_gamma 90.000000
_cell_volume 2942.194149
_symmetry_space_group_name_H-M "A B A 2"
_symmetry_group_IT_number 41
_symmetry_cell_setting 'orthorhombic'
loop_
_space_group_symop_operation_xyz
x,y,z
-x,-y,z
1/2-x,y,1/2+z
1/2+x,-y,1/2+z
x,1/2+y,1/2+z
-x,1/2-y,1/2+z
1/2-x,1/2+y,z
1/2+x,1/2-y,z
loop_
_atom_site_type_symbol
_atom_site_label
_atom_site_fract_x
_atom_site_fract_y
_atom_site_fract_z
Si Si1 0.639590 0.805067 0.975820
Si Si2 0.618027 0.557424 0.778850
Si Si3 0.935789 0.216427 0.129435
Si Si4 0.854562 0.892663 0.059385
Si Si5 0.682739 0.205797 0.899532
Si Si6 0.373344 0.312004 0.728950
Si Si7 0.306618 0.489311 0.614242
Si Si8 0.328237 0.911506 0.464168
O O1 0.503693 0.810180 0.905891
O O2 0.792905 0.772573 0.935097
O O3 0.580287 0.761667 0.050747
O O4 0.695543 0.867069 0.015077
O O5 0.500000 0.500000 0.785623
O O6 0.546896 0.622627 0.748745
O O7 0.734300 0.542899 0.701507
O O8 0.693805 0.565629 0.869857
O O9 0.060145 0.162298 0.109171
O O10 0.002846 0.259920 0.202842
O O11 0.763357 0.189114 0.156705
O O12 0.796041 0.949571 0.111229
O O13 0.984871 0.912886 0.990551
O O14 0.773118 0.201647 0.812536
O O15 0.769451 0.157616 0.960339
O O16 0.500000 0.500000 0.613124
O O17 0.262605 0.449383 0.534227
#
# Coordination Sequence:
#
# PCOD9367508 Si02
#       8
#     8   8   8   8   8   8   8   8
#     4  12  22  40  67  97 132 177 226 270 345 410
#     4  10  24  43  68  97 132 184 226 282 341 407
#     4  12  23  41  66 100 134 176 222 275 346 407
#     4  12  24  40  70 100 129 183 226 286 340 417
#     4  11  22  41  63  96 134 176 220 280 337 413
#     4  11  25  40  65  97 139 174 222 283 342 404
#     4  11  25  43  67 100 132 180 236 283 346 408
#     4  11  23  46  69  98 138 179 234 284 351 409
#
# _framework density 21.752473999999999
#
# number of rings (size 3 to 8) (size 9 to 14) (size 15 to 20)
#    0.000    0.750    3.750    3.375    5.250    1.000 
#    0.000    8.750    0.000    0.000    0.000    0.000 
#    0.000    0.000    0.000    0.000    0.000    0.000 
#
# Total GULP energy -178812.354470 kJ/mol
# GULP energy per Si atom -5587.886077 kJ/mol
# Density = 2.170296 g / cm^3
# Si number density = 21.752474 Si / 1000 Ang^3
#
#
#
# Elastic Constant Matrix: (Units=GPa)
#
#
# Indices 1 2 3 4 5 6 
#
# 1 62.2281 11.4039 9.2344 0.0000 0.0000 0.0000
# 2 11.4039 78.6282 49.6814 0.0000 0.0000 0.0000
# 3 9.2344 49.6814 113.7295 0.0000 0.0000 0.0000
# 4 0.0000 0.0000 0.0000 34.9317 0.0000 0.0000
# 5 0.0000 0.0000 0.0000 0.0000 23.2853 0.0000
# 6 0.0000 0.0000 0.0000 0.0000 0.0000 32.2105
#
#
#
# Elastic Compliance Matrix: (Units=1/GPa)
#
#
# Indices 1 2 3 4 5 6 
#
# 1 0.016522 -0.002139 -0.000407 0.000000 0.000000 0.000000
# 2 -0.002139 0.017844 -0.007621 0.000000 0.000000 0.000000
# 3 -0.000407 -0.007621 0.012155 0.000000 0.000000 0.000000
# 4 0.000000 0.000000 0.000000 0.028627 0.000000 0.000000
# 5 0.000000 0.000000 0.000000 0.000000 0.042946 0.000000
# 6 0.000000 0.000000 0.000000 0.000000 0.000000 0.031046
#
#
# Mechanical properties :
#
#
# Convention : Reuss Voigt Hill
#
# Bulk Modulus (GPa) = 38.18768 43.91390 41.05079
# Shear Modulus (GPa) = 28.05783 30.36990 29.21386
#
# Velocity S-wave (km/s) = 3.59537 3.74057 3.66869
# Velocity P-wave (km/s) = 5.90163 6.23600 6.07112
#
# Compressibility (1/GPa) = 0.02618646
#
# Stress axis : x y z
#
# Youngs Moduli (GPa) = 60.52409 56.04188 82.27013
#
# Poissons Ratio (x) = 0.11988 0.03349
# Poissons Ratio (y) = 0.12947 0.62700
# Poissons Ratio (z) = 0.02464 0.42711
#
# Static dielectric constant tensor:
#      x y z
#    x 1.795750 0.000000 0.000000 
#    y 0.000000 1.805190 0.000000 
#    z 0.000000 0.000000 1.811350 
# 
# From -- ./inp_files/9822.got.cif
#   From: 2010.05.17/outbox.cif.g08.bks.cpg/sg41_5_cif.got.tgz:9822.got - 2010.06.03 18:54:24.
