data_PCOD9367620
_publ_section_title
;
Structure prediction by ZEFSAII (Michael W. Deem and Ramdas Pophale) SiO2 
 PCOD9367620
Probable space group: A B A 2
;
_chemical_formula_sum "Si O2"
_cell_formula_units_Z 40
_cell_length_a 17.770653
_cell_length_b 10.194368
_cell_length_c 10.174533
_cell_angle_alpha 90.000000
_cell_angle_beta 90.000000
_cell_angle_gamma 90.000000
_cell_volume 1843.224262
_symmetry_space_group_name_H-M "A B A 2"
_symmetry_group_IT_number 41
_symmetry_cell_setting 'orthorhombic'
loop_
_space_group_symop_operation_xyz
x,y,z
-x,-y,z
1/2-x,y,1/2+z
1/2+x,-y,1/2+z
x,1/2+y,1/2+z
-x,1/2-y,1/2+z
1/2-x,1/2+y,z
1/2+x,1/2-y,z
loop_
_atom_site_type_symbol
_atom_site_label
_atom_site_fract_x
_atom_site_fract_y
_atom_site_fract_z
Si Si1 0.321421 0.527520 0.892580
Si Si2 0.345717 0.689355 0.647430
Si Si3 0.584501 0.044607 0.649137
Si Si4 0.591453 0.493100 0.435532
Si Si5 0.214825 0.809910 0.498515
O O1 0.344882 0.564204 0.744740
O O2 0.292113 0.670200 0.932061
O O3 0.261122 0.413439 0.910934
O O4 0.378849 0.489772 0.009467
O O5 0.375349 0.630825 0.511349
O O6 0.267128 0.769507 0.624044
O O7 0.404425 0.802445 0.684675
O O8 0.500000 0.000000 0.638112
O O9 0.614530 0.977785 0.782299
O O10 0.500000 0.500000 0.444145
O O11 0.632911 0.620534 0.500612
#
# Coordination Sequence:
#
# PCOD9367620 Si02
#       5
#     8   8   8   8   8
#     4  11  25  43  72  99 138 179 235 286 351 411
#     4  11  25  44  69 104 133 185 235 285 357 408
#     4  10  25  46  68 101 142 184 230 292 352 421
#     4  11  25  46  68 100 142 185 230 288 353 422
#     4  11  24  43  67 100 137 177 232 289 346 415
#
# _framework density 21.701104999999998
#
# number of rings (size 3 to 8) (size 9 to 14) (size 15 to 20)
#    0.000    1.200    4.000    0.000    8.400    0.800 
#    3.600    0.000    0.000    0.000    0.000    0.000 
#    0.000    0.000    0.000    0.000    0.000    0.000 
#
# Total GULP energy -111403.577731 kJ/mol
# GULP energy per Si atom -5570.178887 kJ/mol
# Density = 2.165171 g / cm^3
# Si number density = 21.701105 Si / 1000 Ang^3
#
#
#
# Elastic Constant Matrix: (Units=GPa)
#
#
# Indices 1 2 3 4 5 6 
#
# 1 72.2444 -1.0228 17.4397 0.0000 0.0000 0.0000
# 2 -1.0228 86.0001 3.8487 0.0000 0.0000 0.0000
# 3 17.4397 3.8487 85.9764 0.0000 0.0000 0.0000
# 4 0.0000 0.0000 0.0000 43.7376 0.0000 0.0000
# 5 0.0000 0.0000 0.0000 0.0000 -30.5986 0.0000
# 6 0.0000 0.0000 0.0000 0.0000 0.0000 12.5941
#
#
#
# Elastic Compliance Matrix: (Units=1/GPa)
#
#
# Indices 1 2 3 4 5 6 
#
# 1 0.014563 0.000306 -0.002968 0.000000 0.000000 0.000000
# 2 0.000306 0.011658 -0.000584 0.000000 0.000000 0.000000
# 3 -0.002968 -0.000584 0.012259 0.000000 0.000000 0.000000
# 4 0.000000 0.000000 0.000000 0.022864 0.000000 0.000000
# 5 0.000000 0.000000 0.000000 0.000000 -0.032681 0.000000
# 6 0.000000 0.000000 0.000000 0.000000 0.000000 0.079402
#
#
# Mechanical properties :
#
#
# Convention : Reuss Voigt Hill
#
# Bulk Modulus (GPa) = 31.26135 31.63913 31.45024
# Shear Modulus (GPa) = 39.93042 20.07697 30.00370
#
# Velocity S-wave (km/s) = 4.29420 3.04494 3.72235
# Velocity P-wave (km/s) = 6.24688 5.19359 5.74443
#
# Compressibility (1/GPa) = 0.03198838
#
# Stress axis : x y z
#
# Youngs Moduli (GPa) = 68.66902 85.78045 81.57136
#
# Poissons Ratio (x) = -0.02625 0.24207
# Poissons Ratio (y) = -0.02101 0.04763
# Poissons Ratio (z) = 0.20378 0.05009
#
# Static dielectric constant tensor:
#      x y z
#    x 1.843550 0.000000 0.000000 
#    y 0.000000 1.755920 0.000000 
#    z 0.000000 0.000000 2.025840 
# 
# From -- ./inp_files/5840.got.cif
#   From: 2010.05.17/outbox.cif.g08.bks.cpg/sg41_3_cif.got.tgz:5840.got - 2010.06.03 18:54:24.
