data_PCOD9367181
_publ_section_title
;
Structure prediction by ZEFSAII (Michael W. Deem and Ramdas Pophale) SiO2 
 PCOD9367181
Probable space group: A B A 2
;
_chemical_formula_sum "Si O2"
_cell_formula_units_Z 28
_cell_length_a 4.936747
_cell_length_b 18.817164
_cell_length_c 13.950117
_cell_angle_alpha 90.000000
_cell_angle_beta 90.000000
_cell_angle_gamma 90.000000
_cell_volume 1295.904181
_symmetry_space_group_name_H-M "A B A 2"
_symmetry_group_IT_number 41
_symmetry_cell_setting 'orthorhombic'
loop_
_space_group_symop_operation_xyz
x,y,z
-x,-y,z
1/2-x,y,1/2+z
1/2+x,-y,1/2+z
x,1/2+y,1/2+z
-x,1/2-y,1/2+z
1/2-x,1/2+y,z
1/2+x,1/2-y,z
loop_
_atom_site_type_symbol
_atom_site_label
_atom_site_fract_x
_atom_site_fract_y
_atom_site_fract_z
Si Si1 0.912048 0.204438 0.300680
Si Si2 0.322254 0.354056 0.092566
Si Si3 0.000000 0.500000 0.537038
Si Si4 0.307582 0.130887 0.973809
O O1 0.601746 0.226671 0.314357
O O2 0.918370 0.179289 0.191059
O O3 0.040349 0.149544 0.375993
O O4 0.357288 0.439527 0.099041
O O5 0.527782 0.331811 0.007077
O O6 0.017207 0.345862 0.057120
O O7 0.214611 0.548012 0.478035
#
# Coordination Sequence:
#
# PCOD9367181 Si02
#       4
#     8   8   4   8
#     4  12  26  42  65 103 137 182 229 268 354 420
#     4  10  22  43  66  96 134 172 223 285 333 399
#     4   8  22  44  66  96 126 172 224 278 350 380
#     4  10  22  43  68  97 131 174 225 286 329 409
#
# _framework density 21.606536999999999
#
# number of rings (size 3 to 8) (size 9 to 14) (size 15 to 20)
#    1.714    0.000    0.000    4.286    0.000    6.857 
#    5.143    0.000    0.000    0.000    0.000    0.000 
#    0.000    0.000    0.000    0.000    0.000    0.000 
#
# Total GULP energy -77950.020422 kJ/mol
# GULP energy per Si atom -5567.858602 kJ/mol
# Density = 2.155736 g / cm^3
# Si number density = 21.606537 Si / 1000 Ang^3
#
#
#
# Elastic Constant Matrix: (Units=GPa)
#
#
# Indices 1 2 3 4 5 6 
#
# 1 103.4471 19.9485 44.1256 0.0000 0.0000 0.0000
# 2 19.9485 72.7663 54.2453 0.0000 0.0000 0.0000
# 3 44.1256 54.2453 153.9751 0.0000 0.0000 0.0000
# 4 0.0000 0.0000 0.0000 8.4442 0.0000 0.0000
# 5 0.0000 0.0000 0.0000 0.0000 30.9614 0.0000
# 6 0.0000 0.0000 0.0000 0.0000 0.0000 15.1423
#
#
#
# Elastic Compliance Matrix: (Units=1/GPa)
#
#
# Indices 1 2 3 4 5 6 
#
# 1 0.011057 -0.000907 -0.002849 0.000000 0.000000 0.000000
# 2 -0.000907 0.018712 -0.006332 0.000000 0.000000 0.000000
# 3 -0.002849 -0.006332 0.009542 0.000000 0.000000 0.000000
# 4 0.000000 0.000000 0.000000 0.118425 0.000000 0.000000
# 5 0.000000 0.000000 0.000000 0.000000 0.032298 0.000000
# 6 0.000000 0.000000 0.000000 0.000000 0.000000 0.066040
#
#
# Mechanical properties :
#
#
# Convention : Reuss Voigt Hill
#
# Bulk Modulus (GPa) = 52.26401 62.98082 57.62241
# Shear Modulus (GPa) = 17.69104 25.03417 21.36261
#
# Velocity S-wave (km/s) = 2.86454 3.40757 3.14779
# Velocity P-wave (km/s) = 5.93147 6.68538 6.31967
#
# Compressibility (1/GPa) = 0.01913363
#
# Stress axis : x y z
#
# Youngs Moduli (GPa) = 90.44044 53.44221 104.80189
#
# Poissons Ratio (x) = 0.04849 0.29858
# Poissons Ratio (y) = 0.08206 0.66362
# Poissons Ratio (z) = 0.25767 0.33840
#
# Static dielectric constant tensor:
#      x y z
#    x 1.805790 0.000000 0.000000 
#    y 0.000000 1.823230 0.000000 
#    z 0.000000 0.000000 1.762940 
# 
# From -- ./inp_files/4052.got.cif
#   From: 2010.05.17/outbox.cif.g08.bks.cpg/sg41_3_cif.got.tgz:4052.got - 2010.06.03 18:54:24.
