data_PCOD9367701
_publ_section_title
;
Structure prediction by ZEFSAII (Michael W. Deem and Ramdas Pophale) SiO2 
 PCOD9367701
Probable space group: A B A 2
;
_chemical_formula_sum "Si O2"
_cell_formula_units_Z 48
_cell_length_a 13.655661
_cell_length_b 10.430641
_cell_length_c 14.397325
_cell_angle_alpha 90.000000
_cell_angle_beta 90.000000
_cell_angle_gamma 90.000000
_cell_volume 2050.716064
_symmetry_space_group_name_H-M "A B A 2"
_symmetry_group_IT_number 41
_symmetry_cell_setting 'orthorhombic'
loop_
_space_group_symop_operation_xyz
x,y,z
-x,-y,z
1/2-x,y,1/2+z
1/2+x,-y,1/2+z
x,1/2+y,1/2+z
-x,1/2-y,1/2+z
1/2-x,1/2+y,z
1/2+x,1/2-y,z
loop_
_atom_site_type_symbol
_atom_site_label
_atom_site_fract_x
_atom_site_fract_y
_atom_site_fract_z
Si Si1 0.414097 0.253931 0.275080
Si Si2 0.072173 0.123031 0.161033
Si Si3 0.721829 0.504561 0.280147
Si Si4 0.899747 0.915245 0.446747
Si Si5 0.518646 0.845996 0.462139
Si Si6 0.385610 0.530730 0.654713
O O1 0.521664 0.296576 0.242504
O O2 0.342542 0.369850 0.291542
O O3 0.420265 0.175085 0.368980
O O4 0.374696 0.176663 0.187760
O O5 0.175665 0.074859 0.194524
O O6 0.000000 0.000000 0.155283
O O7 0.071331 0.185217 0.060035
O O8 0.688901 0.429040 0.372968
O O9 0.826296 0.541102 0.236538
O O10 0.934668 0.766097 0.457072
O O11 0.864457 0.974317 0.545381
O O12 0.000000 0.000000 0.421584
O O13 0.500000 0.000000 0.463516
O O14 0.500000 0.500000 0.664227
#
# Coordination Sequence:
#
# PCOD9367701 Si02
#       6
#     8   8   8   8   8   8
#     4  11  21  43  69 106 143 188 242 300 377 439
#     4   9  19  37  69 101 141 185 233 291 364 440
#     4  11  23  45  74 106 142 199 246 299 373 462
#     4  11  21  46  77 108 146 199 247 300 382 455
#     4  11  21  38  73 113 148 190 235 302 374 440
#     4  11  27  45  70 108 148 191 251 319 368 440
#
# _framework density 23.406457
#
# number of rings (size 3 to 8) (size 9 to 14) (size 15 to 20)
#    0.000    1.333    5.000    1.000    0.000    2.667 
#    3.000    3.333    0.000    1.000    0.000    0.000 
#    0.000    0.000    0.000    0.000    0.000    0.000 
#
# Total GULP energy -133818.631952 kJ/mol
# GULP energy per Si atom -5575.776331 kJ/mol
# Density = 2.335318 g / cm^3
# Si number density = 23.406457 Si / 1000 Ang^3
#
#
#
# Elastic Constant Matrix: (Units=GPa)
#
#
# Indices 1 2 3 4 5 6 
#
# 1 74.8057 14.5900 59.8954 0.0000 0.0000 0.0000
# 2 14.5900 94.3169 22.2373 0.0000 0.0000 0.0000
# 3 59.8954 22.2373 197.4019 0.0000 0.0000 0.0000
# 4 0.0000 0.0000 0.0000 30.8807 0.0000 0.0000
# 5 0.0000 0.0000 0.0000 0.0000 29.0147 0.0000
# 6 0.0000 0.0000 0.0000 0.0000 0.0000 13.9906
#
#
#
# Elastic Compliance Matrix: (Units=1/GPa)
#
#
# Indices 1 2 3 4 5 6 
#
# 1 0.017869 -0.001526 -0.005250 0.000000 0.000000 0.000000
# 2 -0.001526 0.011022 -0.000779 0.000000 0.000000 0.000000
# 3 -0.005250 -0.000779 0.006746 0.000000 0.000000 0.000000
# 4 0.000000 0.000000 0.000000 0.032383 0.000000 0.000000
# 5 0.000000 0.000000 0.000000 0.000000 0.034465 0.000000
# 6 0.000000 0.000000 0.000000 0.000000 0.000000 0.071477
#
#
# Mechanical properties :
#
#
# Convention : Reuss Voigt Hill
#
# Bulk Modulus (GPa) = 48.71353 62.21889 55.46621
# Shear Modulus (GPa) = 25.52127 32.76396 29.14261
#
# Velocity S-wave (km/s) = 3.30563 3.74543 3.53238
# Velocity P-wave (km/s) = 5.95204 6.73379 6.35495
#
# Compressibility (1/GPa) = 0.02052818
#
# Stress axis : x y z
#
# Youngs Moduli (GPa) = 55.96231 90.72577 148.22667
#
# Poissons Ratio (x) = 0.13849 0.77817
# Poissons Ratio (y) = 0.08542 0.11540
# Poissons Ratio (z) = 0.29380 0.07063
#
# Static dielectric constant tensor:
#      x y z
#    x 1.693560 0.000000 0.000000 
#    y 0.000000 1.974550 0.000000 
#    z 0.000000 0.000000 1.869820 
# 
# From -- ./inp_files/8355.got.cif
#   From: 2010.05.17/outbox.cif.g08.bks.cpg/sg41_5_cif.got.tgz:8355.got - 2010.06.03 18:54:24.
