data_PCOD9367366
_publ_section_title
;
Structure prediction by ZEFSAII (Michael W. Deem and Ramdas Pophale) SiO2 
 PCOD9367366
Probable space group: A B A 2
;
_chemical_formula_sum "Si O2"
_cell_formula_units_Z 64
_cell_length_a 17.697109
_cell_length_b 11.622223
_cell_length_c 14.105550
_cell_angle_alpha 90.000000
_cell_angle_beta 90.000000
_cell_angle_gamma 90.000000
_cell_volume 2901.225959
_symmetry_space_group_name_H-M "A B A 2"
_symmetry_group_IT_number 41
_symmetry_cell_setting 'orthorhombic'
loop_
_space_group_symop_operation_xyz
x,y,z
-x,-y,z
1/2-x,y,1/2+z
1/2+x,-y,1/2+z
x,1/2+y,1/2+z
-x,1/2-y,1/2+z
1/2-x,1/2+y,z
1/2+x,1/2-y,z
loop_
_atom_site_type_symbol
_atom_site_label
_atom_site_fract_x
_atom_site_fract_y
_atom_site_fract_z
Si Si1 0.839264 0.622914 0.551910
Si Si2 0.190272 0.085134 0.914458
Si Si3 0.851367 0.509048 0.897079
Si Si4 0.469465 0.815000 0.171712
Si Si5 0.951493 0.316237 0.981793
Si Si6 0.678821 0.698934 0.557208
Si Si7 0.473140 0.616031 0.864380
Si Si8 0.064766 0.410054 0.723575
O O1 0.825607 0.535231 0.467090
O O2 0.883068 0.734131 0.514248
O O3 0.760727 0.665018 0.596758
O O4 0.889056 0.559320 0.629803
O O5 0.274564 0.062901 0.875100
O O6 0.117173 0.109602 0.848797
O O7 0.188872 0.187809 0.991977
O O8 0.916738 0.417292 0.920021
O O9 0.877582 0.588160 0.810403
O O10 0.841679 0.591999 0.987818
O O11 0.385101 0.786376 0.137013
O O12 0.476409 0.884393 0.268993
O O13 0.520994 0.706382 0.200068
O O14 0.508755 0.862626 0.076622
O O15 0.006933 0.229898 0.924880
O O16 0.500000 0.500000 0.918525
O O17 0.000000 0.500000 0.742979
#
# Coordination Sequence:
#
# PCOD9367366 Si02
#       8
#     8   8   8   8   8   8   8   8
#     4  10  23  43  68  99 136 188 234 293 360 432
#     4  11  22  45  69 100 139 188 233 293 365 442
#     4  11  26  43  71 101 144 189 237 303 366 440
#     4  11  26  42  69 103 140 184 237 296 354 433
#     4  11  23  45  68 102 141 188 237 299 354 437
#     4  11  23  44  70 100 143 188 236 291 373 432
#     4  12  25  42  70 104 139 182 243 294 360 427
#     4  11  24  44  69 101 135 182 241 286 356 429
#
# _framework density 22.059640000000002
#
# number of rings (size 3 to 8) (size 9 to 14) (size 15 to 20)
#    0.000    1.000    3.750    2.250    5.250    1.000 
#    2.250    3.750    0.000    0.000    0.000    0.000 
#    0.000    0.000    0.000    0.000    0.000    0.000 
#
# Total GULP energy -178825.558220 kJ/mol
# GULP energy per Si atom -5588.298694 kJ/mol
# Density = 2.200943 g / cm^3
# Si number density = 22.059640 Si / 1000 Ang^3
#
#
#
# Elastic Constant Matrix: (Units=GPa)
#
#
# Indices 1 2 3 4 5 6 
#
# 1 153.2852 22.8939 42.4718 0.0000 0.0000 0.0000
# 2 22.8939 70.9485 5.0367 0.0000 0.0000 0.0000
# 3 42.4718 5.0367 77.9872 0.0000 0.0000 0.0000
# 4 0.0000 0.0000 0.0000 23.5999 0.0000 0.0000
# 5 0.0000 0.0000 0.0000 0.0000 23.7558 0.0000
# 6 0.0000 0.0000 0.0000 0.0000 0.0000 33.5357
#
#
#
# Elastic Compliance Matrix: (Units=1/GPa)
#
#
# Indices 1 2 3 4 5 6 
#
# 1 0.008038 -0.002294 -0.004229 0.000000 0.000000 0.000000
# 2 -0.002294 0.014814 0.000292 0.000000 0.000000 0.000000
# 3 -0.004229 0.000292 0.015107 0.000000 0.000000 0.000000
# 4 0.000000 0.000000 0.000000 0.042373 0.000000 0.000000
# 5 0.000000 0.000000 0.000000 0.000000 0.042095 0.000000
# 6 0.000000 0.000000 0.000000 0.000000 0.000000 0.029819
#
#
# Mechanical properties :
#
#
# Convention : Reuss Voigt Hill
#
# Bulk Modulus (GPa) = 39.21883 49.22510 44.22196
# Shear Modulus (GPa) = 28.86717 31.63286 30.25001
#
# Velocity S-wave (km/s) = 3.62138 3.79089 3.70710
# Velocity P-wave (km/s) = 5.94163 6.44392 6.19787
#
# Compressibility (1/GPa) = 0.02549796
#
# Stress axis : x y z
#
# Youngs Moduli (GPa) = 124.40542 67.50341 66.19398
#
# Poissons Ratio (x) = 0.15482 0.27997
# Poissons Ratio (y) = 0.28533 -0.01935
# Poissons Ratio (z) = 0.52617 -0.01973
#
# Static dielectric constant tensor:
#      x y z
#    x 1.848480 0.000000 0.000000 
#    y 0.000000 1.730730 0.000000 
#    z 0.000000 0.000000 1.811470 
# 
# From -- ./inp_files/8845.got.cif
#   From: 2010.05.17/outbox.cif.g08.bks.cpg/sg41_5_cif.got.tgz:8845.got - 2010.06.03 18:54:24.
