data_PCOD9367978
_publ_section_title
;
Structure prediction by ZEFSAII (Michael W. Deem and Ramdas Pophale) SiO2 
 PCOD9367978
Probable space group: A B A 2
;
_chemical_formula_sum "Si O2"
_cell_formula_units_Z 48
_cell_length_a 17.576973
_cell_length_b 12.854315
_cell_length_c 8.098765
_cell_angle_alpha 90.000000
_cell_angle_beta 90.000000
_cell_angle_gamma 90.000000
_cell_volume 1829.834540
_symmetry_space_group_name_H-M "A B A 2"
_symmetry_group_IT_number 41
_symmetry_cell_setting 'orthorhombic'
loop_
_space_group_symop_operation_xyz
x,y,z
-x,-y,z
1/2-x,y,1/2+z
1/2+x,-y,1/2+z
x,1/2+y,1/2+z
-x,1/2-y,1/2+z
1/2-x,1/2+y,z
1/2+x,1/2-y,z
loop_
_atom_site_type_symbol
_atom_site_label
_atom_site_fract_x
_atom_site_fract_y
_atom_site_fract_z
Si Si1 0.296328 0.901700 0.131920
Si Si2 0.915830 0.854047 0.948349
Si Si3 0.132755 0.426760 0.489312
Si Si4 0.224727 0.160865 0.129059
Si Si5 0.462044 0.720730 0.589957
Si Si6 0.639223 0.932152 0.942401
O O1 0.340502 0.928729 0.299057
O O2 0.275972 0.782408 0.159926
O O3 0.211855 0.943011 0.087021
O O4 0.349462 0.945660 0.981977
O O5 0.950084 0.824722 0.772201
O O6 0.922244 0.973835 0.004000
O O7 0.825203 0.842641 0.960346
O O8 0.955033 0.770745 0.069313
O O9 0.092597 0.319248 0.542890
O O10 0.177392 0.108016 0.275942
O O11 0.307033 0.116432 0.087308
O O12 0.441027 0.624274 0.469650
#
# Coordination Sequence:
#
# PCOD9367978 Si02
#       6
#     8   8   8   8   8   8
#     4  12  24  42  72 112 140 184 240 306 371 442
#     4  12  28  49  72 104 147 200 249 310 377 450
#     4  12  26  45  75 108 150 184 247 311 371 451
#     4  12  24  42  72 105 145 186 246 306 368 447
#     4  12  26  48  72 102 148 203 248 308 377 447
#     4  12  23  42  71 105 145 189 240 307 373 437
#
# _framework density 26.23188
#
# number of rings (size 3 to 8) (size 9 to 14) (size 15 to 20)
#    0.000    0.000    6.667    3.500    2.333    0.000 
#    0.000    2.500    0.000    0.000    0.000    0.000 
#    0.000    0.000    0.000    0.000    0.000    0.000 
#
# Total GULP energy -134279.734794 kJ/mol
# GULP energy per Si atom -5594.988950 kJ/mol
# Density = 2.617218 g / cm^3
# Si number density = 26.231880 Si / 1000 Ang^3
#
#
#
# Elastic Constant Matrix: (Units=GPa)
#
#
# Indices 1 2 3 4 5 6 
#
# 1 67.0543 -7.9738 -21.7387 0.0000 0.0000 0.0000
# 2 -7.9738 90.7363 14.3353 0.0000 0.0000 0.0000
# 3 -21.7387 14.3353 91.2513 0.0000 0.0000 0.0000
# 4 0.0000 0.0000 0.0000 35.5459 0.0000 0.0000
# 5 0.0000 0.0000 0.0000 0.0000 34.0680 0.0000
# 6 0.0000 0.0000 0.0000 0.0000 0.0000 47.7917
#
#
#
# Elastic Compliance Matrix: (Units=1/GPa)
#
#
# Indices 1 2 3 4 5 6 
#
# 1 0.016223 0.000836 0.003733 0.000000 0.000000 0.000000
# 2 0.000836 0.011345 -0.001583 0.000000 0.000000 0.000000
# 3 0.003733 -0.001583 0.012097 0.000000 0.000000 0.000000
# 4 0.000000 0.000000 0.000000 0.028133 0.000000 0.000000
# 5 0.000000 0.000000 0.000000 0.000000 0.029353 0.000000
# 6 0.000000 0.000000 0.000000 0.000000 0.000000 0.020924
#
#
# Mechanical properties :
#
#
# Convention : Reuss Voigt Hill
#
# Bulk Modulus (GPa) = 21.91210 24.25419 23.08314
# Shear Modulus (GPa) = 39.27294 41.10905 40.19100
#
# Velocity S-wave (km/s) = 3.87349 3.96301 3.91851
# Velocity P-wave (km/s) = 5.32697 5.49606 5.41218
#
# Compressibility (1/GPa) = 0.04563689
#
# Stress axis : x y z
#
# Youngs Moduli (GPa) = 61.64062 88.14841 82.66601
#
# Poissons Ratio (x) = -0.07368 -0.30863
# Poissons Ratio (y) = -0.05152 0.13087
# Poissons Ratio (z) = -0.23013 0.13955
#
# Static dielectric constant tensor:
#      x y z
#    x 2.042880 0.000000 0.000000 
#    y 0.000000 2.196740 0.000000 
#    z 0.000000 0.000000 2.049570 
# 
# From -- ./inp_files/3035.got.cif
#   From: 2010.05.17/outbox.cif.g08.bks.cpg/sg41_2_cif.got.tgz:3035.got - 2010.06.03 18:54:24.
