data_PCOD9367207
_publ_section_title
;
Structure prediction by ZEFSAII (Michael W. Deem and Ramdas Pophale) SiO2 
 PCOD9367207
Probable space group: A B A 2
;
_chemical_formula_sum "Si O2"
_cell_formula_units_Z 64
_cell_length_a 18.544429
_cell_length_b 13.619157
_cell_length_c 10.569488
_cell_angle_alpha 90.000000
_cell_angle_beta 90.000000
_cell_angle_gamma 90.000000
_cell_volume 2669.424499
_symmetry_space_group_name_H-M "A B A 2"
_symmetry_group_IT_number 41
_symmetry_cell_setting 'orthorhombic'
loop_
_space_group_symop_operation_xyz
x,y,z
-x,-y,z
1/2-x,y,1/2+z
1/2+x,-y,1/2+z
x,1/2+y,1/2+z
-x,1/2-y,1/2+z
1/2-x,1/2+y,z
1/2+x,1/2-y,z
loop_
_atom_site_type_symbol
_atom_site_label
_atom_site_fract_x
_atom_site_fract_y
_atom_site_fract_z
Si Si1 0.243916 0.202731 0.064750
Si Si2 0.938593 0.620927 0.712277
Si Si3 0.729841 0.961963 0.380811
Si Si4 0.934318 0.433399 0.363125
Si Si5 0.518816 0.611364 0.494221
Si Si6 0.420086 0.197854 0.593874
Si Si7 0.211842 0.429296 0.630425
Si Si8 0.602757 0.333648 0.624251
O O1 0.263388 0.316755 0.096564
O O2 0.312947 0.148794 0.124315
O O3 0.241637 0.154537 0.920905
O O4 0.164421 0.182794 0.120496
O O5 0.939892 0.604039 0.861398
O O6 0.876337 0.560842 0.638683
O O7 0.910024 0.728676 0.683289
O O8 0.022473 0.630820 0.669936
O O9 0.644299 0.979302 0.371175
O O10 0.764539 0.020190 0.263299
O O11 0.747184 0.014391 0.513235
O O12 0.933104 0.337534 0.450260
O O13 0.939257 0.404192 0.218117
O O14 0.000000 0.500000 0.403535
O O15 0.500000 0.500000 0.523671
O O16 0.561540 0.685680 0.588011
O O17 0.438604 0.661517 0.490756
#
# Coordination Sequence:
#
# PCOD9367207 Si02
#       8
#     8   8   8   8   8   8   8   8
#     4  10  25  46  74 103 150 197 248 321 386 468
#     4  10  23  45  66  98 143 186 234 305 366 456
#     4  11  26  45  74 108 143 200 253 312 389 475
#     4  11  22  42  72  98 145 190 242 307 379 457
#     4  11  24  40  71 103 141 186 238 305 366 445
#     4  10  23  46  68 102 143 191 246 296 390 450
#     4  11  26  46  73 108 152 189 258 317 390 462
#     4  10  22  44  65 105 138 181 246 305 374 452
#
# _framework density 23.975204999999999
#
# number of rings (size 3 to 8) (size 9 to 14) (size 15 to 20)
#    0.000    1.500    1.250    1.875    3.500    7.500 
#   11.250    0.000    0.000    0.000    0.000    0.000 
#    0.000    0.000    0.000    0.000    0.000    0.000 
#
# Total GULP energy -178209.715133 kJ/mol
# GULP energy per Si atom -5569.053598 kJ/mol
# Density = 2.392064 g / cm^3
# Si number density = 23.975205 Si / 1000 Ang^3
#
#
#
# Elastic Constant Matrix: (Units=GPa)
#
#
# Indices 1 2 3 4 5 6 
#
# 1 108.6279 22.0150 15.4449 0.0000 0.0000 0.0000
# 2 22.0150 97.5086 29.5259 0.0000 0.0000 0.0000
# 3 15.4449 29.5259 96.2630 0.0000 0.0000 0.0000
# 4 0.0000 0.0000 0.0000 7.5116 0.0000 0.0000
# 5 0.0000 0.0000 0.0000 0.0000 13.1570 0.0000
# 6 0.0000 0.0000 0.0000 0.0000 0.0000 22.6165
#
#
#
# Elastic Compliance Matrix: (Units=1/GPa)
#
#
# Indices 1 2 3 4 5 6 
#
# 1 0.009730 -0.001901 -0.000978 0.000000 0.000000 0.000000
# 2 -0.001901 0.011677 -0.003277 0.000000 0.000000 0.000000
# 3 -0.000978 -0.003277 0.011550 0.000000 0.000000 0.000000
# 4 0.000000 0.000000 0.000000 0.133127 0.000000 0.000000
# 5 0.000000 0.000000 0.000000 0.000000 0.076005 0.000000
# 6 0.000000 0.000000 0.000000 0.000000 0.000000 0.044215
#
#
# Mechanical properties :
#
#
# Convention : Reuss Voigt Hill
#
# Bulk Modulus (GPa) = 48.43499 48.48567 48.46033
# Shear Modulus (GPa) = 16.36676 24.35127 20.35901
#
# Velocity S-wave (km/s) = 2.61560 3.19044 2.91721
# Velocity P-wave (km/s) = 5.41920 5.81713 5.62169
#
# Compressibility (1/GPa) = 0.02064623
#
# Stress axis : x y z
#
# Youngs Moduli (GPa) = 102.77496 85.64013 86.57906
#
# Poissons Ratio (x) = 0.16277 0.08469
# Poissons Ratio (y) = 0.19533 0.28368
# Poissons Ratio (z) = 0.10053 0.28061
#
# Static dielectric constant tensor:
#      x y z
#    x 1.947660 0.000000 0.000000 
#    y 0.000000 2.032040 0.000000 
#    z 0.000000 0.000000 1.991970 
# 
# From -- ./inp_files/6051.got.cif
#   From: 2010.05.17/outbox.cif.g08.bks.cpg/sg41_4_cif.got.tgz:6051.got - 2010.06.03 18:54:24.
