data_PCOD9367886
_publ_section_title
;
Structure prediction by ZEFSAII (Michael W. Deem and Ramdas Pophale) SiO2 
 PCOD9367886
Probable space group: A B A 2
;
_chemical_formula_sum "Si O2"
_cell_formula_units_Z 40
_cell_length_a 9.632457
_cell_length_b 8.997121
_cell_length_c 19.527171
_cell_angle_alpha 90.000000
_cell_angle_beta 90.000000
_cell_angle_gamma 90.000000
_cell_volume 1692.310190
_symmetry_space_group_name_H-M "A B A 2"
_symmetry_group_IT_number 41
_symmetry_cell_setting 'orthorhombic'
loop_
_space_group_symop_operation_xyz
x,y,z
-x,-y,z
1/2-x,y,1/2+z
1/2+x,-y,1/2+z
x,1/2+y,1/2+z
-x,1/2-y,1/2+z
1/2-x,1/2+y,z
1/2+x,1/2-y,z
loop_
_atom_site_type_symbol
_atom_site_label
_atom_site_fract_x
_atom_site_fract_y
_atom_site_fract_z
Si Si1 0.471372 0.673152 0.378690
Si Si2 0.841925 0.057744 0.210043
Si Si3 0.393346 0.122632 0.260823
Si Si4 0.273401 0.775194 0.968718
Si Si5 0.664884 0.978615 0.560113
O O1 0.500000 0.500000 0.360466
O O2 0.523907 0.793806 0.322644
O O3 0.318167 0.707509 0.407067
O O4 0.571617 0.702651 0.442954
O O5 0.846445 0.234325 0.217964
O O6 0.747504 0.975021 0.267045
O O7 0.781479 0.019884 0.135191
O O8 0.000000 0.000000 0.212920
O O9 0.500000 0.000000 0.232020
O O10 0.281522 0.681532 0.038248
O O11 0.209561 0.928086 0.993825
O O12 0.500000 0.000000 0.564343
#
# Coordination Sequence:
#
# PCOD9367886 Si02
#       5
#     8   8   8   8   8
#     4  12  29  46  75 110 155 201 256 317 387 467
#     4  11  26  50  76 111 151 205 258 322 386 462
#     4  12  29  49  76 111 153 202 262 318 389 463
#     4  12  25  46  73 110 147 196 246 318 388 455
#     4  11  24  46  75 109 150 190 256 315 384 464
#
# _framework density 23.636330999999998
#
# number of rings (size 3 to 8) (size 9 to 14) (size 15 to 20)
#    0.000    0.400    4.000    3.000   11.200    1.600 
#    3.600    0.000    0.000    0.000    0.000    0.000 
#    0.000    0.000    0.000    0.000    0.000    0.000 
#
# Total GULP energy -111749.838429 kJ/mol
# GULP energy per Si atom -5587.491921 kJ/mol
# Density = 2.358253 g / cm^3
# Si number density = 23.636331 Si / 1000 Ang^3
#
#
#
# Elastic Constant Matrix: (Units=GPa)
#
#
# Indices 1 2 3 4 5 6 
#
# 1 85.1416 28.6944 -8.3740 0.0000 0.0000 0.0000
# 2 28.6944 130.0884 23.2131 0.0000 0.0000 0.0000
# 3 -8.3740 23.2131 89.1990 0.0000 0.0000 0.0000
# 4 0.0000 0.0000 0.0000 -38.4315 0.0000 0.0000
# 5 0.0000 0.0000 0.0000 0.0000 44.1178 0.0000
# 6 0.0000 0.0000 0.0000 0.0000 0.0000 33.0294
#
#
#
# Elastic Compliance Matrix: (Units=1/GPa)
#
#
# Indices 1 2 3 4 5 6 
#
# 1 0.013043 -0.003246 0.002069 0.000000 0.000000 0.000000
# 2 -0.003246 0.008869 -0.002613 0.000000 0.000000 0.000000
# 3 0.002069 -0.002613 0.012085 0.000000 0.000000 0.000000
# 4 0.000000 0.000000 0.000000 -0.026020 0.000000 0.000000
# 5 0.000000 0.000000 0.000000 0.000000 0.022667 0.000000
# 6 0.000000 0.000000 0.000000 0.000000 0.000000 0.030276
#
#
# Mechanical properties :
#
#
# Convention : Reuss Voigt Hill
#
# Bulk Modulus (GPa) = 37.85367 43.49953 40.67660
# Shear Modulus (GPa) = 64.67895 25.13618 44.90757
#
# Velocity S-wave (km/s) = 5.23676 3.26460 4.36356
# Velocity P-wave (km/s) = 7.25359 5.71435 6.52949
#
# Compressibility (1/GPa) = 0.02641752
#
# Stress axis : x y z
#
# Youngs Moduli (GPa) = 76.67142 112.74788 82.74637
#
# Poissons Ratio (x) = 0.36599 -0.17122
# Poissons Ratio (y) = 0.24889 0.21621
# Poissons Ratio (z) = -0.15865 0.29460
#
# Static dielectric constant tensor:
#      x y z
#    x 1.773810 0.000000 0.000000 
#    y 0.000000 1.939070 0.000000 
#    z 0.000000 0.000000 1.903300 
# 
# From -- ./inp_files/11349.got.cif
#   From: 2010.05.17/outbox.cif.g08.bks.cpg/sg41_6_cif.got.tgz:11349.got - 2010.06.03 18:54:24.
