data_PCOD9367447
_publ_section_title
;
Structure prediction by ZEFSAII (Michael W. Deem and Ramdas Pophale) SiO2 
 PCOD9367447
Probable space group: A B A 2
;
_chemical_formula_sum "Si O2"
_cell_formula_units_Z 36
_cell_length_a 4.841772
_cell_length_b 23.232130
_cell_length_c 14.350424
_cell_angle_alpha 90.000000
_cell_angle_beta 90.000000
_cell_angle_gamma 90.000000
_cell_volume 1614.202802
_symmetry_space_group_name_H-M "A B A 2"
_symmetry_group_IT_number 41
_symmetry_cell_setting 'orthorhombic'
loop_
_space_group_symop_operation_xyz
x,y,z
-x,-y,z
1/2-x,y,1/2+z
1/2+x,-y,1/2+z
x,1/2+y,1/2+z
-x,1/2-y,1/2+z
1/2-x,1/2+y,z
1/2+x,1/2-y,z
loop_
_atom_site_type_symbol
_atom_site_label
_atom_site_fract_x
_atom_site_fract_y
_atom_site_fract_z
Si Si1 0.146906 0.907367 0.500000
Si Si2 0.682871 0.892560 0.179335
Si Si3 0.500000 0.000000 0.594708
Si Si4 0.347739 0.625127 0.883988
Si Si5 0.049127 0.212240 0.265938
O O1 0.389342 0.871183 0.450360
O O2 0.028543 0.881969 0.596092
O O3 0.885687 0.913488 0.432281
O O4 0.284551 0.966798 0.530280
O O5 0.557433 0.898433 0.283070
O O6 0.876610 0.836580 0.190729
O O7 0.849776 0.950377 0.154263
O O8 0.173663 0.682805 0.859472
O O9 0.732875 0.230155 0.258302
#
# Coordination Sequence:
#
# PCOD9367447 Si02
#       5
#     8   8   4   8   8
#     4  12  24  48  67 112 142 193 239 302 347 451
#     4  10  27  45  77 105 155 189 244 295 371 431
#     4  12  26  46  72 110 158 184 248 302 348 460
#     4  10  26  44  77  97 150 191 243 289 372 413
#     4  10  23  47  77 105 144 192 242 303 356 436
#
# _framework density 22.302028
#
# number of rings (size 3 to 8) (size 9 to 14) (size 15 to 20)
#    1.333    0.000    2.222    2.000    6.222    1.778 
#    0.000    6.667    0.000    0.000    0.000    0.000 
#    0.000    0.000    0.000    0.000    0.000    0.000 
#
# Total GULP energy -100461.725408 kJ/mol
# GULP energy per Si atom -5581.206967 kJ/mol
# Density = 2.225127 g / cm^3
# Si number density = 22.302028 Si / 1000 Ang^3
#
#
#
# Elastic Constant Matrix: (Units=GPa)
#
#
# Indices 1 2 3 4 5 6 
#
# 1 87.6381 10.3835 38.7905 0.0000 0.0000 0.0000
# 2 10.3835 78.2234 29.8335 0.0000 0.0000 0.0000
# 3 38.7905 29.8335 128.4963 0.0000 0.0000 0.0000
# 4 0.0000 0.0000 0.0000 50.2631 0.0000 0.0000
# 5 0.0000 0.0000 0.0000 0.0000 -23.7370 0.0000
# 6 0.0000 0.0000 0.0000 0.0000 0.0000 53.9665
#
#
#
# Elastic Compliance Matrix: (Units=1/GPa)
#
#
# Indices 1 2 3 4 5 6 
#
# 1 0.013175 -0.000255 -0.003918 0.000000 0.000000 0.000000
# 2 -0.000255 0.014031 -0.003181 0.000000 0.000000 0.000000
# 3 -0.003918 -0.003181 0.009704 0.000000 0.000000 0.000000
# 4 0.000000 0.000000 0.000000 0.019895 0.000000 0.000000
# 5 0.000000 0.000000 0.000000 0.000000 -0.042128 0.000000
# 6 0.000000 0.000000 0.000000 0.000000 0.000000 0.018530
#
#
# Mechanical properties :
#
#
# Convention : Reuss Voigt Hill
#
# Bulk Modulus (GPa) = 45.03993 50.26364 47.65178
# Shear Modulus (GPa) = 90.39291 30.45521 60.42406
#
# Velocity S-wave (km/s) = 6.37332 3.69938 5.21079
# Velocity P-wave (km/s) = 8.62544 6.39014 7.59053
#
# Compressibility (1/GPa) = 0.02220252
#
# Stress axis : x y z
#
# Youngs Moduli (GPa) = 75.90144 71.27180 103.05423
#
# Poissons Ratio (x) = 0.01814 0.40378
# Poissons Ratio (y) = 0.01932 0.32779
# Poissons Ratio (z) = 0.29739 0.22670
#
# Static dielectric constant tensor:
#      x y z
#    x 1.867340 0.000000 0.000000 
#    y 0.000000 1.826580 0.000000 
#    z 0.000000 0.000000 1.838550 
# 
# From -- ./inp_files/6788.got.cif
#   From: 2010.05.17/outbox.cif.g08.bks.cpg/sg41_4_cif.got.tgz:6788.got - 2010.06.03 18:54:24.
