data_PCOD9367175
_publ_section_title
;
Structure prediction by ZEFSAII (Michael W. Deem and Ramdas Pophale) SiO2 
 PCOD9367175
Probable space group: A B A 2
;
_chemical_formula_sum "Si O2"
_cell_formula_units_Z 40
_cell_length_a 9.271941
_cell_length_b 18.500398
_cell_length_c 9.608280
_cell_angle_alpha 90.000000
_cell_angle_beta 90.000000
_cell_angle_gamma 90.000000
_cell_volume 1648.152454
_symmetry_space_group_name_H-M "A B A 2"
_symmetry_group_IT_number 41
_symmetry_cell_setting 'orthorhombic'
loop_
_space_group_symop_operation_xyz
x,y,z
-x,-y,z
1/2-x,y,1/2+z
1/2+x,-y,1/2+z
x,1/2+y,1/2+z
-x,1/2-y,1/2+z
1/2-x,1/2+y,z
1/2+x,1/2-y,z
loop_
_atom_site_type_symbol
_atom_site_label
_atom_site_fract_x
_atom_site_fract_y
_atom_site_fract_z
Si Si1 0.667528 0.474007 0.902920
Si Si2 0.141680 0.833752 0.846423
Si Si3 0.453077 0.802526 0.845950
Si Si4 0.106911 0.571816 0.681050
Si Si5 0.680390 0.601573 0.562976
O O1 0.500000 0.500000 0.883009
O O2 0.749594 0.447534 0.767472
O O3 0.785364 0.526537 0.983801
O O4 0.645574 0.413768 0.021331
O O5 0.287773 0.792745 0.803625
O O6 0.019393 0.775782 0.846076
O O7 0.174157 0.860314 0.002748
O O8 0.148453 0.895985 0.726689
O O9 0.533498 0.859502 0.749282
O O10 0.440374 0.847964 0.991023
O O11 0.000000 0.500000 0.686031
#
# Coordination Sequence:
#
# PCOD9367175 Si02
#       5
#     8   8   8   8   8
#     4  11  23  41  69  96 130 174 218 269 332 393
#     4  10  23  39  67  90 129 172 212 266 336 374
#     4  10  24  41  65  92 134 165 219 272 321 393
#     4  11  22  45  65  95 135 170 214 275 330 391
#     4  10  22  43  65  91 134 164 217 272 321 391
#
# _framework density 24.269598999999999
#
# number of rings (size 3 to 8) (size 9 to 14) (size 15 to 20)
#    1.200    0.400    2.000    3.600    2.800    4.000 
#    3.600    0.000    0.000    0.000    0.000    0.000 
#    0.000    0.000    0.000    0.000    0.000    0.000 
#
# Total GULP energy -111389.845471 kJ/mol
# GULP energy per Si atom -5569.492274 kJ/mol
# Density = 2.421436 g / cm^3
# Si number density = 24.269599 Si / 1000 Ang^3
#
#
#
# Elastic Constant Matrix: (Units=GPa)
#
#
# Indices 1 2 3 4 5 6 
#
# 1 69.6219 1.3910 38.0466 0.0000 0.0000 0.0000
# 2 1.3910 46.9003 6.3558 0.0000 0.0000 0.0000
# 3 38.0466 6.3558 129.8036 0.0000 0.0000 0.0000
# 4 0.0000 0.0000 0.0000 0.5221 0.0000 0.0000
# 5 0.0000 0.0000 0.0000 0.0000 24.8939 0.0000
# 6 0.0000 0.0000 0.0000 0.0000 0.0000 49.3271
#
#
#
# Elastic Compliance Matrix: (Units=1/GPa)
#
#
# Indices 1 2 3 4 5 6 
#
# 1 0.017104 0.000173 -0.005022 0.000000 0.000000 0.000000
# 2 0.000173 0.021466 -0.001102 0.000000 0.000000 0.000000
# 3 -0.005022 -0.001102 0.009230 0.000000 0.000000 0.000000
# 4 0.000000 0.000000 0.000000 1.915485 0.000000 0.000000
# 5 0.000000 0.000000 0.000000 0.000000 0.040170 0.000000
# 6 0.000000 0.000000 0.000000 0.000000 0.000000 0.020273
#
#
# Mechanical properties :
#
#
# Convention : Reuss Voigt Hill
#
# Bulk Modulus (GPa) = 27.85585 37.54583 32.70084
# Shear Modulus (GPa) = 2.44189 28.31746 15.37967
#
# Velocity S-wave (km/s) = 1.00416 3.41953 2.52007
# Velocity P-wave (km/s) = 3.58428 5.57627 4.68732
#
# Compressibility (1/GPa) = 0.03589910
#
# Stress axis : x y z
#
# Youngs Moduli (GPa) = 58.46536 46.58530 108.34413
#
# Poissons Ratio (x) = -0.00807 0.54409
# Poissons Ratio (y) = -0.01013 0.11938
# Poissons Ratio (z) = 0.29360 0.05133
#
# Static dielectric constant tensor:
#      x y z
#    x 1.956690 0.000000 0.000000 
#    y 0.000000 1.973890 0.000000 
#    z 0.000000 0.000000 1.918320 
# 
# From -- ./inp_files/1691.got.cif
#   From: 2010.05.17/outbox.cif.g08.bks.cpg/sg41_1_cif.got.tgz:1691.got - 2010.06.03 18:54:24.
