data_PCOD9367465
_publ_section_title
;
Structure prediction by ZEFSAII (Michael W. Deem and Ramdas Pophale) SiO2 
 PCOD9367465
Probable space group: A B A 2
;
_chemical_formula_sum "Si O2"
_cell_formula_units_Z 40
_cell_length_a 21.561018
_cell_length_b 10.660020
_cell_length_c 8.975780
_cell_angle_alpha 90.000000
_cell_angle_beta 90.000000
_cell_angle_gamma 90.000000
_cell_volume 2063.001202
_symmetry_space_group_name_H-M "A B A 2"
_symmetry_group_IT_number 41
_symmetry_cell_setting 'orthorhombic'
loop_
_space_group_symop_operation_xyz
x,y,z
-x,-y,z
1/2-x,y,1/2+z
1/2+x,-y,1/2+z
x,1/2+y,1/2+z
-x,1/2-y,1/2+z
1/2-x,1/2+y,z
1/2+x,1/2-y,z
loop_
_atom_site_type_symbol
_atom_site_label
_atom_site_fract_x
_atom_site_fract_y
_atom_site_fract_z
Si Si1 0.248793 0.379869 0.309840
Si Si2 0.535976 0.629330 0.120109
Si Si3 0.337201 0.772525 0.055389
Si Si4 0.467867 0.367639 0.478542
Si Si5 0.335931 0.986922 0.562717
O O1 0.292544 0.294727 0.413768
O O2 0.203742 0.304362 0.199618
O O3 0.293206 0.463258 0.206596
O O4 0.206493 0.460692 0.420107
O O5 0.500000 0.500000 0.083007
O O6 0.534503 0.643495 0.299184
O O7 0.505814 0.750676 0.044922
O O8 0.606577 0.607749 0.069130
O O9 0.397716 0.859025 0.039730
O O10 0.358871 0.629232 0.061736
O O11 0.500000 0.500000 0.515942
#
# Coordination Sequence:
#
# PCOD9367465 Si02
#       5
#     8   8   8   8   8
#     4  10  24  40  63  98 125 167 209 263 322 379
#     4  11  24  44  66  91 127 172 211 265 320 379
#     4  11  22  44  65  95 129 165 214 265 317 384
#     4  11  26  43  65  95 131 168 217 268 320 377
#     4  11  22  42  67  91 128 166 213 262 321 382
#
# _framework density 19.389227000000002
#
# number of rings (size 3 to 8) (size 9 to 14) (size 15 to 20)
#    0.000    1.200    4.000    1.200    2.800    2.400 
#   14.400    0.000    0.000    0.000    0.000    0.000 
#    0.000    0.000    0.000    0.000    0.000    0.000 
#
# Total GULP energy -111786.465282 kJ/mol
# GULP energy per Si atom -5589.323264 kJ/mol
# Density = 1.934510 g / cm^3
# Si number density = 19.389227 Si / 1000 Ang^3
#
#
#
# Elastic Constant Matrix: (Units=GPa)
#
#
# Indices 1 2 3 4 5 6 
#
# 1 145.6159 52.0993 46.9337 0.0000 0.0000 0.0000
# 2 52.0993 107.5921 32.8803 0.0000 0.0000 0.0000
# 3 46.9337 32.8803 86.9162 0.0000 0.0000 0.0000
# 4 0.0000 0.0000 0.0000 14.0793 0.0000 0.0000
# 5 0.0000 0.0000 0.0000 0.0000 10.4955 0.0000
# 6 0.0000 0.0000 0.0000 0.0000 0.0000 37.7344
#
#
#
# Elastic Compliance Matrix: (Units=1/GPa)
#
#
# Indices 1 2 3 4 5 6 
#
# 1 0.009270 -0.003346 -0.003740 0.000000 0.000000 0.000000
# 2 -0.003346 0.011717 -0.002626 0.000000 0.000000 0.000000
# 3 -0.003740 -0.002626 0.014518 0.000000 0.000000 0.000000
# 4 0.000000 0.000000 0.000000 0.071026 0.000000 0.000000
# 5 0.000000 0.000000 0.000000 0.000000 0.095279 0.000000
# 6 0.000000 0.000000 0.000000 0.000000 0.000000 0.026501
#
#
# Mechanical properties :
#
#
# Convention : Reuss Voigt Hill
#
# Bulk Modulus (GPa) = 62.18152 67.10563 64.64358
# Shear Modulus (GPa) = 19.75547 26.34258 23.04903
#
# Velocity S-wave (km/s) = 3.19547 3.68994 3.45157
# Velocity P-wave (km/s) = 6.76420 7.26905 7.02117
#
# Compressibility (1/GPa) = 0.01608195
#
# Stress axis : x y z
#
# Youngs Moduli (GPa) = 107.87627 85.34639 68.87919
#
# Poissons Ratio (x) = 0.28555 0.25760
# Poissons Ratio (y) = 0.36094 0.18086
# Poissons Ratio (z) = 0.40345 0.22410
#
# Static dielectric constant tensor:
#      x y z
#    x 1.663910 0.000000 0.000000 
#    y 0.000000 1.648940 0.000000 
#    z 0.000000 0.000000 1.651460 
# 
# From -- ./inp_files/2898.got.cif
#   From: 2010.05.17/outbox.cif.g08.bks.cpg/sg41_2_cif.got.tgz:2898.got - 2010.06.03 18:54:24.
