data_PCOD9367214
_publ_section_title
;
Structure prediction by ZEFSAII (Michael W. Deem and Ramdas Pophale) SiO2 
 PCOD9367214
Probable space group: A B A 2
;
_chemical_formula_sum "Si O2"
_cell_formula_units_Z 64
_cell_length_a 10.916879
_cell_length_b 28.966140
_cell_length_c 8.625908
_cell_angle_alpha 90.000000
_cell_angle_beta 90.000000
_cell_angle_gamma 90.000000
_cell_volume 2727.683295
_symmetry_space_group_name_H-M "A B A 2"
_symmetry_group_IT_number 41
_symmetry_cell_setting 'orthorhombic'
loop_
_space_group_symop_operation_xyz
x,y,z
-x,-y,z
1/2-x,y,1/2+z
1/2+x,-y,1/2+z
x,1/2+y,1/2+z
-x,1/2-y,1/2+z
1/2-x,1/2+y,z
1/2+x,1/2-y,z
loop_
_atom_site_type_symbol
_atom_site_label
_atom_site_fract_x
_atom_site_fract_y
_atom_site_fract_z
Si Si1 0.227137 0.743898 0.656160
Si Si2 0.012604 0.656771 0.682218
Si Si3 0.874774 0.560657 0.036840
Si Si4 0.866379 0.955511 0.645727
Si Si5 0.235813 0.383565 0.787886
Si Si6 0.364021 0.586216 0.970292
Si Si7 0.755596 0.820705 0.876513
Si Si8 0.877086 0.198520 0.922799
O O1 0.239174 0.697125 0.550920
O O2 0.315886 0.722709 0.788106
O O3 0.126663 0.769333 0.768610
O O4 0.274039 0.781792 0.538596
O O5 0.042179 0.608511 0.593417
O O6 0.118567 0.671584 0.803915
O O7 0.882386 0.648863 0.763624
O O8 0.990396 0.693675 0.542028
O O9 0.856987 0.509259 0.101069
O O10 0.803812 0.598338 0.137202
O O11 0.020284 0.567118 0.052255
O O12 0.817608 0.570680 0.870316
O O13 0.744050 0.932690 0.578788
O O14 0.892865 0.948989 0.829985
O O15 0.336782 0.352662 0.874289
O O16 0.320620 0.630684 0.871248
#
# Coordination Sequence:
#
# PCOD9367214 Si02
#       8
#     8   8   8   8   8   8   8   8
#     4  10  22  44  66  96 142 180 242 288 346 414
#     4  12  24  42  75 104 138 200 236 294 377 434
#     4  11  25  44  71 101 139 184 238 296 358 428
#     4  11  25  44  71 101 139 184 238 296 358 428
#     4  12  23  46  70 102 142 183 239 292 365 436
#     4  12  23  46  70 102 142 183 239 292 365 436
#     4  11  22  44  67 100 141 185 236 292 355 433
#     4  11  22  44  67 100 141 185 236 292 355 433
#
# _framework density 23.463134
#
# number of rings (size 3 to 8) (size 9 to 14) (size 15 to 20)
#    0.000    0.750    5.000    2.250    0.000    0.000 
#    9.000    0.000    2.750    0.000    0.000    0.000 
#    0.000    0.000    0.000    0.000    0.000    0.000 
#
# Total GULP energy -178215.558367 kJ/mol
# GULP energy per Si atom -5569.236199 kJ/mol
# Density = 2.340973 g / cm^3
# Si number density = 23.463134 Si / 1000 Ang^3
#
#
#
# Elastic Constant Matrix: (Units=GPa)
#
#
# Indices 1 2 3 4 5 6 
#
# 1 71.2700 8.2688 11.6802 0.0000 0.0000 0.0000
# 2 8.2688 65.2187 15.5105 0.0000 0.0000 0.0000
# 3 11.6802 15.5105 56.4494 0.0000 0.0000 0.0000
# 4 0.0000 0.0000 0.0000 56.4991 0.0000 0.0000
# 5 0.0000 0.0000 0.0000 0.0000 38.4162 0.0000
# 6 0.0000 0.0000 0.0000 0.0000 0.0000 -21.3205
#
#
#
# Elastic Compliance Matrix: (Units=1/GPa)
#
#
# Indices 1 2 3 4 5 6 
#
# 1 0.014613 -0.001213 -0.002690 0.000000 0.000000 0.000000
# 2 -0.001213 0.016506 -0.004284 0.000000 0.000000 0.000000
# 3 -0.002690 -0.004284 0.019449 0.000000 0.000000 0.000000
# 4 0.000000 0.000000 0.000000 0.017699 0.000000 0.000000
# 5 0.000000 0.000000 0.000000 0.000000 0.026031 0.000000
# 6 0.000000 0.000000 0.000000 0.000000 0.000000 -0.046903
#
#
# Mechanical properties :
#
#
# Convention : Reuss Voigt Hill
#
# Bulk Modulus (GPa) = 29.24632 29.31745 29.28188
# Shear Modulus (GPa) = 66.51890 25.21754 45.86822
#
# Velocity S-wave (km/s) = 5.33028 3.28193 4.42623
# Velocity P-wave (km/s) = 7.09750 5.18495 6.21523
#
# Compressibility (1/GPa) = 0.03419234
#
# Stress axis : x y z
#
# Youngs Moduli (GPa) = 68.43325 60.58517 51.41695
#
# Poissons Ratio (x) = 0.07348 0.13833
# Poissons Ratio (y) = 0.08300 0.22028
# Poissons Ratio (z) = 0.18411 0.25956
#
# Static dielectric constant tensor:
#      x y z
#    x 1.927450 0.000000 0.000000 
#    y 0.000000 1.935610 0.000000 
#    z 0.000000 0.000000 1.946000 
# 
# From -- ./inp_files/2232.got.cif
#   From: 2010.05.17/outbox.cif.g08.bks.cpg/sg41_2_cif.got.tgz:2232.got - 2010.06.03 18:54:24.
