data_PCOD9367718
_publ_section_title
;
Structure prediction by ZEFSAII (Michael W. Deem and Ramdas Pophale) SiO2 
 PCOD9367718
Probable space group: A B A 2
;
_chemical_formula_sum "Si O2"
_cell_formula_units_Z 64
_cell_length_a 29.283560
_cell_length_b 8.415679
_cell_length_c 11.303313
_cell_angle_alpha 90.000000
_cell_angle_beta 90.000000
_cell_angle_gamma 90.000000
_cell_volume 2785.600222
_symmetry_space_group_name_H-M "A B A 2"
_symmetry_group_IT_number 41
_symmetry_cell_setting 'orthorhombic'
loop_
_space_group_symop_operation_xyz
x,y,z
-x,-y,z
1/2-x,y,1/2+z
1/2+x,-y,1/2+z
x,1/2+y,1/2+z
-x,1/2-y,1/2+z
1/2-x,1/2+y,z
1/2+x,1/2-y,z
loop_
_atom_site_type_symbol
_atom_site_label
_atom_site_fract_x
_atom_site_fract_y
_atom_site_fract_z
Si Si1 0.113969 0.926028 0.473340
Si Si2 0.546979 0.414887 0.312345
Si Si3 0.894181 0.901314 0.863177
Si Si4 0.167537 0.803091 0.785179
Si Si5 0.045515 0.426182 0.191508
Si Si6 0.713419 0.535568 0.589303
Si Si7 0.882244 0.479425 0.636660
Si Si8 0.696618 0.195890 0.547356
O O1 0.115030 0.785725 0.375459
O O2 0.082260 0.893899 0.588171
O O3 0.165909 0.937321 0.518555
O O4 0.086014 0.071634 0.413686
O O5 0.500000 0.500000 0.346767
O O6 0.539665 0.236350 0.265693
O O7 0.570476 0.508812 0.203430
O O8 0.859522 0.029923 0.805727
O O9 0.938038 0.940810 0.785292
O O10 0.895441 0.942619 0.001673
O O11 0.209714 0.857016 0.705455
O O12 0.141711 0.665484 0.710537
O O13 0.180366 0.751476 0.916828
O O14 0.000000 0.500000 0.136973
O O15 0.713011 0.350488 0.615649
O O16 0.760665 0.579452 0.527282
O O17 0.843964 0.613659 0.619604
#
# Coordination Sequence:
#
# PCOD9367718 Si02
#       8
#     8   8   8   8   8   8   8   8
#     4  12  26  47  73 103 145 192 245 301 363 442
#     4  12  26  47  70 108 145 185 247 299 359 445
#     4  11  21  45  75  98 137 191 230 298 363 422
#     4  11  23  48  71 101 146 183 239 300 363 432
#     4  12  26  48  71 104 148 190 240 301 368 437
#     4  12  25  47  72 105 143 189 246 296 364 436
#     4  11  23  49  72 103 148 186 242 301 362 440
#     4  11  29  43  73 110 142 193 239 302 366 434
#
# _framework density 22.975299
#
# number of rings (size 3 to 8) (size 9 to 14) (size 15 to 20)
#    0.000    0.500    5.000    2.625    5.250    4.500 
#    2.250    0.000    0.000    0.000    0.000    0.000 
#    0.000    0.000    0.000    0.000    0.000    0.000 
#
# Total GULP energy -178630.118344 kJ/mol
# GULP energy per Si atom -5582.191198 kJ/mol
# Density = 2.292301 g / cm^3
# Si number density = 22.975299 Si / 1000 Ang^3
#
#
#
# Elastic Constant Matrix: (Units=GPa)
#
#
# Indices 1 2 3 4 5 6 
#
# 1 101.3637 14.5725 25.6211 0.0000 0.0000 0.0000
# 2 14.5725 76.4782 29.6151 0.0000 0.0000 0.0000
# 3 25.6211 29.6151 104.2117 0.0000 0.0000 0.0000
# 4 0.0000 0.0000 0.0000 33.6965 0.0000 0.0000
# 5 0.0000 0.0000 0.0000 0.0000 28.1485 0.0000
# 6 0.0000 0.0000 0.0000 0.0000 0.0000 39.4712
#
#
#
# Elastic Compliance Matrix: (Units=1/GPa)
#
#
# Indices 1 2 3 4 5 6 
#
# 1 0.010606 -0.001136 -0.002285 0.000000 0.000000 0.000000
# 2 -0.001136 0.014814 -0.003931 0.000000 0.000000 0.000000
# 3 -0.002285 -0.003931 0.011275 0.000000 0.000000 0.000000
# 4 0.000000 0.000000 0.000000 0.029677 0.000000 0.000000
# 5 0.000000 0.000000 0.000000 0.000000 0.035526 0.000000
# 6 0.000000 0.000000 0.000000 0.000000 0.000000 0.025335
#
#
# Mechanical properties :
#
#
# Convention : Reuss Voigt Hill
#
# Bulk Modulus (GPa) = 45.47114 46.85233 46.16173
# Shear Modulus (GPa) = 33.49718 34.41291 33.95504
#
# Velocity S-wave (km/s) = 3.82247 3.87437 3.84851
# Velocity P-wave (km/s) = 6.27025 6.36011 6.31534
#
# Compressibility (1/GPa) = 0.02199197
#
# Stress axis : x y z
#
# Youngs Moduli (GPa) = 94.28353 67.50287 88.69522
#
# Poissons Ratio (x) = 0.07670 0.20264
# Poissons Ratio (y) = 0.10713 0.34862
# Poissons Ratio (z) = 0.21541 0.26533
#
# Static dielectric constant tensor:
#      x y z
#    x 1.923260 0.000000 0.000000 
#    y 0.000000 1.903070 0.000000 
#    z 0.000000 0.000000 1.868230 
# 
# From -- ./inp_files/6671.got.cif
#   From: 2010.05.17/outbox.cif.g08.bks.cpg/sg41_4_cif.got.tgz:6671.got - 2010.06.03 18:54:24.
