data_PCOD9367249
_publ_section_title
;
Structure prediction by ZEFSAII (Michael W. Deem and Ramdas Pophale) SiO2 
 PCOD9367249
Probable space group: A B A 2
;
_chemical_formula_sum "Si O2"
_cell_formula_units_Z 56
_cell_length_a 9.611244
_cell_length_b 18.181885
_cell_length_c 14.609816
_cell_angle_alpha 90.000000
_cell_angle_beta 90.000000
_cell_angle_gamma 90.000000
_cell_volume 2553.073135
_symmetry_space_group_name_H-M "A B A 2"
_symmetry_group_IT_number 41
_symmetry_cell_setting 'orthorhombic'
loop_
_space_group_symop_operation_xyz
x,y,z
-x,-y,z
1/2-x,y,1/2+z
1/2+x,-y,1/2+z
x,1/2+y,1/2+z
-x,1/2-y,1/2+z
1/2-x,1/2+y,z
1/2+x,1/2-y,z
loop_
_atom_site_type_symbol
_atom_site_label
_atom_site_fract_x
_atom_site_fract_y
_atom_site_fract_z
Si Si1 0.110411 0.647635 0.216850
Si Si2 0.500000 0.500000 0.248328
Si Si3 0.000000 0.500000 0.240174
Si Si4 0.870093 0.336962 0.426937
Si Si5 0.124908 0.102603 0.117780
Si Si6 0.321244 0.294211 0.964709
Si Si7 0.144383 0.805782 0.166910
Si Si8 0.756453 0.589908 0.819358
O O1 0.039338 0.572822 0.181259
O O2 0.113744 0.632846 0.325296
O O3 0.259715 0.649478 0.169150
O O4 0.066283 0.731835 0.201387
O O5 0.383277 0.528743 0.176716
O O6 0.590471 0.553941 0.311755
O O7 0.133658 0.468431 0.297111
O O8 0.850065 0.395262 0.509278
O O9 0.746116 0.278587 0.423162
O O10 0.012255 0.294210 0.452716
O O11 0.975336 0.137080 0.138786
O O12 0.270948 0.367694 0.913682
O O13 0.279560 0.292822 0.070916
O O14 0.239332 0.844489 0.243157
#
# Coordination Sequence:
#
# PCOD9367249 Si02
#       8
#     8   4   4   8   8   8   8   8
#     4  12  23  41  68  99 135 176 224 284 343 408
#     4  10  22  45  69  92 140 188 224 271 353 422
#     4  12  26  41  67 104 142 178 218 287 359 406
#     4  11  24  40  68  98 131 177 224 284 338 404
#     4  10  23  43  66  98 131 178 227 278 338 415
#     4  11  23  43  66 103 132 171 230 286 337 405
#     4  10  24  42  73  95 133 179 233 284 337 407
#     4  11  23  45  66  99 137 181 229 281 345 410
#
# _framework density 21.934349999999998
#
# number of rings (size 3 to 8) (size 9 to 14) (size 15 to 20)
#    0.000    1.143    5.714    0.000    4.000    0.571 
#    2.571    0.714    0.000    0.000    0.000    0.000 
#    0.000    0.000    0.000    0.000    0.000    0.000 
#
# Total GULP energy -156094.818459 kJ/mol
# GULP energy per Si atom -5574.814945 kJ/mol
# Density = 2.188443 g / cm^3
# Si number density = 21.934350 Si / 1000 Ang^3
#
#
#
# Elastic Constant Matrix: (Units=GPa)
#
#
# Indices 1 2 3 4 5 6 
#
# 1 41.0471 1.8519 11.7244 0.0000 0.0000 0.0000
# 2 1.8519 94.4908 21.3452 0.0000 0.0000 0.0000
# 3 11.7244 21.3452 96.8428 0.0000 0.0000 0.0000
# 4 0.0000 0.0000 0.0000 27.7229 0.0000 0.0000
# 5 0.0000 0.0000 0.0000 0.0000 21.2375 0.0000
# 6 0.0000 0.0000 0.0000 0.0000 0.0000 34.8762
#
#
#
# Elastic Compliance Matrix: (Units=1/GPa)
#
#
# Indices 1 2 3 4 5 6 
#
# 1 0.025239 0.000206 -0.003101 0.000000 0.000000 0.000000
# 2 0.000206 0.011139 -0.002480 0.000000 0.000000 0.000000
# 3 -0.003101 -0.002480 0.011248 0.000000 0.000000 0.000000
# 4 0.000000 0.000000 0.000000 0.036071 0.000000 0.000000
# 5 0.000000 0.000000 0.000000 0.000000 0.047087 0.000000
# 6 0.000000 0.000000 0.000000 0.000000 0.000000 0.028673
#
#
# Mechanical properties :
#
#
# Convention : Reuss Voigt Hill
#
# Bulk Modulus (GPa) = 27.11821 33.58041 30.34931
# Shear Modulus (GPa) = 27.39741 29.93127 28.66434
#
# Velocity S-wave (km/s) = 3.53804 3.69804 3.61892
# Velocity P-wave (km/s) = 5.39264 5.79454 5.59720
#
# Compressibility (1/GPa) = 0.03687559
#
# Stress axis : x y z
#
# Youngs Moduli (GPa) = 39.62170 89.77260 88.90410
#
# Poissons Ratio (x) = -0.01848 0.27568
# Poissons Ratio (y) = -0.00816 0.22049
# Poissons Ratio (z) = 0.12286 0.22265
#
# Static dielectric constant tensor:
#      x y z
#    x 1.847410 0.000000 0.000000 
#    y 0.000000 1.904590 0.000000 
#    z 0.000000 0.000000 1.839830 
# 
# From -- ./inp_files/7515.got.cif
#   From: 2010.05.17/outbox.cif.g08.bks.cpg/sg41_4_cif.got.tgz:7515.got - 2010.06.03 18:54:24.
