data_PCOD9367605
_publ_section_title
;
Structure prediction by ZEFSAII (Michael W. Deem and Ramdas Pophale) SiO2 
 PCOD9367605
Probable space group: A B A 2
;
_chemical_formula_sum "Si O2"
_cell_formula_units_Z 40
_cell_length_a 10.296458
_cell_length_b 9.449447
_cell_length_c 17.486351
_cell_angle_alpha 90.000000
_cell_angle_beta 90.000000
_cell_angle_gamma 90.000000
_cell_volume 1701.349107
_symmetry_space_group_name_H-M "A B A 2"
_symmetry_group_IT_number 41
_symmetry_cell_setting 'orthorhombic'
loop_
_space_group_symop_operation_xyz
x,y,z
-x,-y,z
1/2-x,y,1/2+z
1/2+x,-y,1/2+z
x,1/2+y,1/2+z
-x,1/2-y,1/2+z
1/2-x,1/2+y,z
1/2+x,1/2-y,z
loop_
_atom_site_type_symbol
_atom_site_label
_atom_site_fract_x
_atom_site_fract_y
_atom_site_fract_z
Si Si1 0.136365 0.625369 0.488810
Si Si2 0.653819 0.669871 0.935839
Si Si3 0.029904 0.158738 0.698909
Si Si4 0.314761 0.641336 0.151285
Si Si5 0.432185 0.632380 0.307905
O O1 0.176161 0.498179 0.431747
O O2 0.236830 0.753487 0.485182
O O3 0.144731 0.562068 0.574485
O O4 0.992341 0.677289 0.469241
O O5 0.650764 0.761039 0.858522
O O6 0.904659 0.218009 0.653432
O O7 0.039739 0.264015 0.770649
O O8 0.837902 0.834295 0.652345
O O9 0.000000 0.000000 0.723462
O O10 0.353956 0.574740 0.233491
O O11 0.500000 0.500000 0.348358
#
# Coordination Sequence:
#
# PCOD9367605 Si02
#       5
#     8   8   8   8   8
#     4  11  27  47  73 107 154 193 250 307 384 446
#     4  11  28  45  72 107 153 193 245 306 383 450
#     4  10  25  41  76 110 148 186 260 304 373 433
#     4  10  25  44  77 106 147 193 252 313 367 445
#     4  10  27  44  77 103 150 194 255 301 379 437
#
# _framework density 23.510755
#
# number of rings (size 3 to 8) (size 9 to 14) (size 15 to 20)
#    1.200    0.400    0.000    1.200   16.800    0.000 
#    0.000    0.000    0.000    0.000    0.000    0.000 
#    0.000    0.000    0.000    0.000    0.000    0.000 
#
# Total GULP energy -111639.284134 kJ/mol
# GULP energy per Si atom -5581.964207 kJ/mol
# Density = 2.345724 g / cm^3
# Si number density = 23.510755 Si / 1000 Ang^3
#
#
#
# Elastic Constant Matrix: (Units=GPa)
#
#
# Indices 1 2 3 4 5 6 
#
# 1 130.8225 54.3750 2.2173 0.0000 0.0000 0.0000
# 2 54.3750 123.2825 -2.4150 0.0000 0.0000 0.0000
# 3 2.2173 -2.4150 54.1687 0.0000 0.0000 0.0000
# 4 0.0000 0.0000 0.0000 13.9718 0.0000 0.0000
# 5 0.0000 0.0000 0.0000 0.0000 29.3058 0.0000
# 6 0.0000 0.0000 0.0000 0.0000 0.0000 36.9090
#
#
#
# Elastic Compliance Matrix: (Units=1/GPa)
#
#
# Indices 1 2 3 4 5 6 
#
# 1 0.009377 -0.004147 -0.000569 0.000000 0.000000 0.000000
# 2 -0.004147 0.009953 0.000613 0.000000 0.000000 0.000000
# 3 -0.000569 0.000613 0.018511 0.000000 0.000000 0.000000
# 4 0.000000 0.000000 0.000000 0.071573 0.000000 0.000000
# 5 0.000000 0.000000 0.000000 0.000000 0.034123 0.000000
# 6 0.000000 0.000000 0.000000 0.000000 0.000000 0.027094
#
#
# Mechanical properties :
#
#
# Convention : Reuss Voigt Hill
#
# Bulk Modulus (GPa) = 33.74205 46.29205 40.01705
# Shear Modulus (GPa) = 26.49509 32.97708 29.73608
#
# Velocity S-wave (km/s) = 3.36063 3.74924 3.56024
# Velocity P-wave (km/s) = 5.42599 6.20282 5.82736
#
# Compressibility (1/GPa) = 0.02963661
#
# Stress axis : x y z
#
# Youngs Moduli (GPa) = 106.64075 100.47648 54.02059
#
# Poissons Ratio (x) = 0.41668 0.03072
# Poissons Ratio (y) = 0.44225 -0.03314
# Poissons Ratio (z) = 0.06065 -0.06164
#
# Static dielectric constant tensor:
#      x y z
#    x 1.863730 0.000000 0.000000 
#    y 0.000000 1.852400 0.000000 
#    z 0.000000 0.000000 2.002970 
# 
# From -- ./inp_files/9903.got.cif
#   From: 2010.05.17/outbox.cif.g08.bks.cpg/sg41_5_cif.got.tgz:9903.got - 2010.06.03 18:54:24.
