data_PCOD9367456
_publ_section_title
;
Structure prediction by ZEFSAII (Michael W. Deem and Ramdas Pophale) SiO2 
 PCOD9367456
Probable space group: A B A 2
;
_chemical_formula_sum "Si O2"
_cell_formula_units_Z 48
_cell_length_a 11.351996
_cell_length_b 8.503609
_cell_length_c 21.070000
_cell_angle_alpha 90.000000
_cell_angle_beta 90.000000
_cell_angle_gamma 90.000000
_cell_volume 2033.948948
_symmetry_space_group_name_H-M "A B A 2"
_symmetry_group_IT_number 41
_symmetry_cell_setting 'orthorhombic'
loop_
_space_group_symop_operation_xyz
x,y,z
-x,-y,z
1/2-x,y,1/2+z
1/2+x,-y,1/2+z
x,1/2+y,1/2+z
-x,1/2-y,1/2+z
1/2-x,1/2+y,z
1/2+x,1/2-y,z
loop_
_atom_site_type_symbol
_atom_site_label
_atom_site_fract_x
_atom_site_fract_y
_atom_site_fract_z
Si Si1 0.134287 0.515072 0.426480
Si Si2 0.719922 0.337499 0.539239
Si Si3 0.000000 0.000000 0.699314
Si Si4 0.168984 0.323364 0.875684
Si Si5 0.000000 0.000000 0.476190
Si Si6 0.583462 0.652702 0.237873
Si Si7 0.262145 0.419480 0.627953
O O1 0.199980 0.606032 0.482326
O O2 0.201134 0.361112 0.402627
O O3 0.147351 0.638982 0.370058
O O4 0.000000 0.500000 0.443803
O O5 0.587825 0.392676 0.519387
O O6 0.767063 0.403492 0.606542
O O7 0.739327 0.157752 0.558291
O O8 0.033615 0.165656 0.735575
O O9 0.892874 0.061902 0.655247
O O10 0.143334 0.385037 0.805736
O O11 0.080520 0.397804 0.927968
O O12 0.500000 0.500000 0.226859
O O13 0.677168 0.644233 0.181315
#
# Coordination Sequence:
#
# PCOD9367456 Si02
#       7
#     8   8   4   8   4   8   8
#     4  11  28  46  76 113 151 203 255 322 392 466
#     4  11  24  45  77 110 156 200 257 321 400 470
#     4  12  29  52  76 116 160 209 262 328 392 466
#     4  11  27  49  76 110 153 199 265 316 393 468
#     4  10  23  48  80 110 156 203 258 336 388 468
#     4  12  29  52  82 112 157 209 265 325 394 472
#     4  12  26  48  74 114 154 204 259 322 394 468
#
# _framework density 23.599412000000001
#
# number of rings (size 3 to 8) (size 9 to 14) (size 15 to 20)
#    0.000    0.667    2.500    3.500   10.500    2.000 
#    0.000    0.000    0.000    0.000    0.000    0.000 
#    0.000    0.000    0.000    0.000    0.000    0.000 
#
# Total GULP energy -133907.497791 kJ/mol
# GULP energy per Si atom -5579.479075 kJ/mol
# Density = 2.354570 g / cm^3
# Si number density = 23.599412 Si / 1000 Ang^3
#
#
#
# Elastic Constant Matrix: (Units=GPa)
#
#
# Indices 1 2 3 4 5 6 
#
# 1 135.0844 47.8732 48.8617 0.0000 0.0000 0.0000
# 2 47.8732 95.4300 43.3872 0.0000 0.0000 0.0000
# 3 48.8617 43.3872 123.4348 0.0000 0.0000 0.0000
# 4 0.0000 0.0000 0.0000 33.0300 0.0000 0.0000
# 5 0.0000 0.0000 0.0000 0.0000 22.3738 0.0000
# 6 0.0000 0.0000 0.0000 0.0000 0.0000 31.2593
#
#
#
# Elastic Compliance Matrix: (Units=1/GPa)
#
#
# Indices 1 2 3 4 5 6 
#
# 1 0.009616 -0.003682 -0.002512 0.000000 0.000000 0.000000
# 2 -0.003682 0.013882 -0.003422 0.000000 0.000000 0.000000
# 3 -0.002512 -0.003422 0.010299 0.000000 0.000000 0.000000
# 4 0.000000 0.000000 0.000000 0.030275 0.000000 0.000000
# 5 0.000000 0.000000 0.000000 0.000000 0.044695 0.000000
# 6 0.000000 0.000000 0.000000 0.000000 0.000000 0.031990
#
#
# Mechanical properties :
#
#
# Convention : Reuss Voigt Hill
#
# Bulk Modulus (GPa) = 68.66072 70.46593 69.56332
# Shear Modulus (GPa) = 30.33145 31.58777 30.95961
#
# Velocity S-wave (km/s) = 3.58895 3.66252 3.62592
# Velocity P-wave (km/s) = 6.80672 6.91443 6.86079
#
# Compressibility (1/GPa) = 0.01456437
#
# Stress axis : x y z
#
# Youngs Moduli (GPa) = 103.98900 72.03729 97.09847
#
# Poissons Ratio (x) = 0.26523 0.24396
# Poissons Ratio (y) = 0.38287 0.33227
# Poissons Ratio (z) = 0.26127 0.24651
#
# Static dielectric constant tensor:
#      x y z
#    x 1.886710 0.000000 0.000000 
#    y 0.000000 1.954160 0.000000 
#    z 0.000000 0.000000 1.869390 
# 
# From -- ./inp_files/12123.got.cif
#   From: 2010.05.17/outbox.cif.g08.bks.cpg/sg41_7_cif.got.tgz:12123.got - 2010.06.03 18:54:24.
