data_PCOD9367051
_publ_section_title
;
Structure prediction by ZEFSAII (Michael W. Deem and Ramdas Pophale) SiO2 
 PCOD9367051
Probable space group: A B A 2
;
_chemical_formula_sum "Si O2"
_cell_formula_units_Z 60
_cell_length_a 16.904206
_cell_length_b 27.736313
_cell_length_c 5.667103
_cell_angle_alpha 90.000000
_cell_angle_beta 90.000000
_cell_angle_gamma 90.000000
_cell_volume 2657.079888
_symmetry_space_group_name_H-M "A B A 2"
_symmetry_group_IT_number 41
_symmetry_cell_setting 'orthorhombic'
loop_
_space_group_symop_operation_xyz
x,y,z
-x,-y,z
1/2-x,y,1/2+z
1/2+x,-y,1/2+z
x,1/2+y,1/2+z
-x,1/2-y,1/2+z
1/2-x,1/2+y,z
1/2+x,1/2-y,z
loop_
_atom_site_type_symbol
_atom_site_label
_atom_site_fract_x
_atom_site_fract_y
_atom_site_fract_z
Si Si1 0.471045 0.329350 0.149180
Si Si2 0.420538 0.926173 0.764952
Si Si3 0.500000 0.000000 0.404275
Si Si4 0.877586 0.841904 0.866823
Si Si5 0.579136 0.931295 0.054260
Si Si6 0.296522 0.005338 0.838223
Si Si7 0.734110 0.776948 0.855298
Si Si8 0.933595 0.272504 0.989499
O O1 0.409250 0.372158 0.172337
O O2 0.492685 0.302346 0.392406
O O3 0.553756 0.352721 0.056507
O O4 0.444276 0.284451 0.990940
O O5 0.490900 0.921389 0.957743
O O6 0.343552 0.954533 0.849115
O O7 0.457907 0.960164 0.563906
O O8 0.435163 0.026117 0.242310
O O9 0.883187 0.885409 0.681245
O O10 0.786758 0.825293 0.904474
O O11 0.910068 0.793600 0.740689
O O12 0.637019 0.952672 0.856751
O O13 0.253698 0.009509 0.582876
O O14 0.759441 0.751750 0.612131
O O15 0.641205 0.785792 0.827351
#
# Coordination Sequence:
#
# PCOD9367051 Si02
#       8
#     8   8   4   8   8   8   8   8
#     4  12  23  41  70 100 137 186 257 300 362 437
#     4  12  25  44  74 106 139 197 251 310 360 449
#     4  12  20  42  74 102 146 182 254 302 370 432
#     4  11  23  39  67 104 137 183 238 306 366 439
#     4  12  24  42  75 107 140 196 247 304 380 445
#     4  12  28  48  72 108 158 200 245 307 373 446
#     4  10  22  40  64  93 145 177 217 286 373 422
#     4  11  23  41  64 101 133 185 232 305 361 437
#
# _framework density 22.581181999999998
#
# number of rings (size 3 to 8) (size 9 to 14) (size 15 to 20)
#    0.000    0.533    8.000    0.800    0.000    2.133 
#    0.000    2.667    0.000    0.000    0.000    0.000 
#    0.000    0.000    0.000    0.000    0.000    0.000 
#
# Total GULP energy -167402.076381 kJ/mol
# GULP energy per Si atom -5580.069213 kJ/mol
# Density = 2.252979 g / cm^3
# Si number density = 22.581182 Si / 1000 Ang^3
#
#
#
# Elastic Constant Matrix: (Units=GPa)
#
#
# Indices 1 2 3 4 5 6 
#
# 1 55.9117 6.5924 8.4443 0.0000 0.0000 0.0000
# 2 6.5924 101.7627 1.0069 0.0000 0.0000 0.0000
# 3 8.4443 1.0069 83.9308 0.0000 0.0000 0.0000
# 4 0.0000 0.0000 0.0000 29.9769 0.0000 0.0000
# 5 0.0000 0.0000 0.0000 0.0000 39.0394 0.0000
# 6 0.0000 0.0000 0.0000 0.0000 0.0000 22.8955
#
#
#
# Elastic Compliance Matrix: (Units=1/GPa)
#
#
# Indices 1 2 3 4 5 6 
#
# 1 0.018299 -0.001167 -0.001827 0.000000 0.000000 0.000000
# 2 -0.001167 0.009902 -0.000001 0.000000 0.000000 0.000000
# 3 -0.001827 -0.000001 0.012098 0.000000 0.000000 0.000000
# 4 0.000000 0.000000 0.000000 0.033359 0.000000 0.000000
# 5 0.000000 0.000000 0.000000 0.000000 0.025615 0.000000
# 6 0.000000 0.000000 0.000000 0.000000 0.000000 0.043677
#
#
# Mechanical properties :
#
#
# Convention : Reuss Voigt Hill
#
# Bulk Modulus (GPa) = 29.14753 30.41027 29.77890
# Shear Modulus (GPa) = 31.17632 33.41982 32.29807
#
# Velocity S-wave (km/s) = 3.71972 3.85123 3.78605
# Velocity P-wave (km/s) = 5.60217 5.76821 5.68580
#
# Compressibility (1/GPa) = 0.03430822
#
# Stress axis : x y z
#
# Youngs Moduli (GPa) = 54.64802 100.98542 82.65547
#
# Poissons Ratio (x) = 0.11789 0.15102
# Poissons Ratio (y) = 0.06379 0.00011
# Poissons Ratio (z) = 0.09984 0.00014
#
# Static dielectric constant tensor:
#      x y z
#    x 1.937580 0.000000 0.000000 
#    y 0.000000 1.810270 0.000000 
#    z 0.000000 0.000000 1.953700 
# 
# From -- ./inp_files/567.got.cif
#   From: 2010.05.17/outbox.cif.g08.bks.cpg/sg41_1_cif.got.tgz:567.got - 2010.06.03 18:54:24.
