data_PCOD9367466
_publ_section_title
;
Structure prediction by ZEFSAII (Michael W. Deem and Ramdas Pophale) SiO2 
 PCOD9367466
Probable space group: A B A 2
;
_chemical_formula_sum "Si O2"
_cell_formula_units_Z 40
_cell_length_a 18.580556
_cell_length_b 6.767044
_cell_length_c 12.630489
_cell_angle_alpha 90.000000
_cell_angle_beta 90.000000
_cell_angle_gamma 90.000000
_cell_volume 1588.100092
_symmetry_space_group_name_H-M "A B A 2"
_symmetry_group_IT_number 41
_symmetry_cell_setting 'orthorhombic'
loop_
_space_group_symop_operation_xyz
x,y,z
-x,-y,z
1/2-x,y,1/2+z
1/2+x,-y,1/2+z
x,1/2+y,1/2+z
-x,1/2-y,1/2+z
1/2-x,1/2+y,z
1/2+x,1/2-y,z
loop_
_atom_site_type_symbol
_atom_site_label
_atom_site_fract_x
_atom_site_fract_y
_atom_site_fract_z
Si Si1 0.326208 0.870500 0.857810
Si Si2 0.124969 0.750805 0.128528
Si Si3 0.173229 0.475406 0.437243
Si Si4 0.500000 0.500000 0.546681
Si Si5 0.500000 0.500000 0.177422
Si Si6 0.944793 0.278938 0.863155
O O1 0.339621 0.768415 0.743333
O O2 0.334025 0.709577 0.951052
O O3 0.245529 0.950340 0.868561
O O4 0.384063 0.046651 0.865454
O O5 0.177832 0.316172 0.533542
O O6 0.073967 0.558248 0.108046
O O7 0.070590 0.938725 0.118362
O O8 0.100940 0.414840 0.374983
O O9 0.502156 0.318962 0.461522
O O10 0.514480 0.314579 0.254567
#
# Coordination Sequence:
#
# PCOD9367466 Si02
#       6
#     8   8   8   4   4   8
#     4  11  23  42  63  91 128 169 214 263 321 382
#     4  10  24  40  64  98 120 172 216 258 336 386
#     4  11  23  42  63  91 128 169 214 263 321 382
#     4   9  20  40  59  88 124 152 209 266 313 390
#     4   9  20  40  59  88 124 152 209 266 313 390
#     4   9  20  42  60  86 126 159 202 268 318 381
#
# _framework density 25.187331
#
# number of rings (size 3 to 8) (size 9 to 14) (size 15 to 20)
#    0.000    2.000    2.000    0.000    5.600    1.600 
#    0.000    0.000    0.000    0.000    0.000    0.000 
#    0.000    0.000    0.000    0.000    0.000    0.000 
#
# Total GULP energy -111544.791436 kJ/mol
# GULP energy per Si atom -5577.239572 kJ/mol
# Density = 2.513000 g / cm^3
# Si number density = 25.187331 Si / 1000 Ang^3
#
#
#
# Elastic Constant Matrix: (Units=GPa)
#
#
# Indices 1 2 3 4 5 6 
#
# 1 113.3284 13.4943 34.3292 0.0000 0.0000 0.0000
# 2 13.4943 71.1127 15.4061 0.0000 0.0000 0.0000
# 3 34.3292 15.4061 93.4392 0.0000 0.0000 0.0000
# 4 0.0000 0.0000 0.0000 21.2324 0.0000 0.0000
# 5 0.0000 0.0000 0.0000 0.0000 44.3151 0.0000
# 6 0.0000 0.0000 0.0000 0.0000 0.0000 49.8519
#
#
#
# Elastic Compliance Matrix: (Units=1/GPa)
#
#
# Indices 1 2 3 4 5 6 
#
# 1 0.010018 -0.001145 -0.003492 0.000000 0.000000 0.000000
# 2 -0.001145 0.014714 -0.002005 0.000000 0.000000 0.000000
# 3 -0.003492 -0.002005 0.012316 0.000000 0.000000 0.000000
# 4 0.000000 0.000000 0.000000 0.047098 0.000000 0.000000
# 5 0.000000 0.000000 0.000000 0.000000 0.022566 0.000000
# 6 0.000000 0.000000 0.000000 0.000000 0.000000 0.020059
#
#
# Mechanical properties :
#
#
# Convention : Reuss Voigt Hill
#
# Bulk Modulus (GPa) = 42.08087 44.92659 43.50373
# Shear Modulus (GPa) = 33.78943 37.38995 35.58969
#
# Velocity S-wave (km/s) = 3.66666 3.85707 3.76307
# Velocity P-wave (km/s) = 5.88806 6.14098 6.01585
#
# Compressibility (1/GPa) = 0.02376377
#
# Stress axis : x y z
#
# Youngs Moduli (GPa) = 99.82102 67.96323 81.19723
#
# Poissons Ratio (x) = 0.07778 0.28353
# Poissons Ratio (y) = 0.11425 0.16284
# Poissons Ratio (z) = 0.34856 0.13630
#
# Static dielectric constant tensor:
#      x y z
#    x 1.986180 0.000000 0.000000 
#    y 0.000000 1.987950 0.000000 
#    z 0.000000 0.000000 2.050110 
# 
# From -- ./inp_files/8924.got.cif
#   From: 2010.05.17/outbox.cif.g08.bks.cpg/sg41_5_cif.got.tgz:8924.got - 2010.06.03 18:54:24.
