data_PCOD9367445
_publ_section_title
;
Structure prediction by ZEFSAII (Michael W. Deem and Ramdas Pophale) SiO2 
 PCOD9367445
Probable space group: A B A 2
;
_chemical_formula_sum "Si O2"
_cell_formula_units_Z 40
_cell_length_a 9.469370
_cell_length_b 9.286190
_cell_length_c 17.370457
_cell_angle_alpha 90.000000
_cell_angle_beta 90.000000
_cell_angle_gamma 90.000000
_cell_volume 1527.460176
_symmetry_space_group_name_H-M "A B A 2"
_symmetry_group_IT_number 41
_symmetry_cell_setting 'orthorhombic'
loop_
_space_group_symop_operation_xyz
x,y,z
-x,-y,z
1/2-x,y,1/2+z
1/2+x,-y,1/2+z
x,1/2+y,1/2+z
-x,1/2-y,1/2+z
1/2-x,1/2+y,z
1/2+x,1/2-y,z
loop_
_atom_site_type_symbol
_atom_site_label
_atom_site_fract_x
_atom_site_fract_y
_atom_site_fract_z
Si Si1 0.148183 0.571774 0.375000
Si Si2 0.704296 0.562601 0.720235
Si Si3 0.811992 0.645964 0.507185
Si Si4 0.583230 0.281223 0.663331
Si Si5 0.964766 0.160137 0.437785
O O1 0.231241 0.518984 0.301384
O O2 0.172954 0.504444 0.460478
O O3 0.122746 0.740314 0.380794
O O4 0.000000 0.500000 0.353021
O O5 0.677336 0.428881 0.660769
O O6 0.565711 0.663871 0.699511
O O7 0.836607 0.666534 0.715084
O O8 0.896217 0.690271 0.583633
O O9 0.642440 0.659104 0.511455
O O10 0.889110 0.758725 0.450514
O O11 0.000000 0.000000 0.415510
#
# Coordination Sequence:
#
# PCOD9367445 Si02
#       5
#     8   8   8   8   8
#     4  10  23  47  72 109 153 199 256 318 375 476
#     4  11  26  50  78 108 165 204 266 316 403 465
#     4  11  25  44  78 114 153 198 256 321 389 468
#     4  11  26  48  76 111 156 207 254 327 392 472
#     4  11  25  45  78 116 152 195 258 323 394 451
#
# _framework density 26.187263000000002
#
# number of rings (size 3 to 8) (size 9 to 14) (size 15 to 20)
#    0.000    1.200    2.000    2.400   11.200    0.800 
#    3.600    0.000    0.000    0.000    0.000    0.000 
#    0.000    0.000    0.000    0.000    0.000    0.000 
#
# Total GULP energy -111448.638006 kJ/mol
# GULP energy per Si atom -5572.431900 kJ/mol
# Density = 2.612766 g / cm^3
# Si number density = 26.187263 Si / 1000 Ang^3
#
#
#
# Elastic Constant Matrix: (Units=GPa)
#
#
# Indices 1 2 3 4 5 6 
#
# 1 77.5405 36.2958 34.4525 0.0000 0.0000 0.0000
# 2 36.2958 189.3181 89.3058 0.0000 0.0000 0.0000
# 3 34.4525 89.3058 148.3858 0.0000 0.0000 0.0000
# 4 0.0000 0.0000 0.0000 37.3615 0.0000 0.0000
# 5 0.0000 0.0000 0.0000 0.0000 22.0948 0.0000
# 6 0.0000 0.0000 0.0000 0.0000 0.0000 59.1899
#
#
#
# Elastic Compliance Matrix: (Units=1/GPa)
#
#
# Indices 1 2 3 4 5 6 
#
# 1 0.014759 -0.001694 -0.002407 0.000000 0.000000 0.000000
# 2 -0.001694 0.007571 -0.004163 0.000000 0.000000 0.000000
# 3 -0.002407 -0.004163 0.009804 0.000000 0.000000 0.000000
# 4 0.000000 0.000000 0.000000 0.026765 0.000000 0.000000
# 5 0.000000 0.000000 0.000000 0.000000 0.045260 0.000000
# 6 0.000000 0.000000 0.000000 0.000000 0.000000 0.016895
#
#
# Mechanical properties :
#
#
# Convention : Reuss Voigt Hill
#
# Bulk Modulus (GPa) = 64.08339 81.70587 72.89463
# Shear Modulus (GPa) = 35.01805 40.74193 37.87999
#
# Velocity S-wave (km/s) = 3.66076 3.94863 3.80742
# Velocity P-wave (km/s) = 6.51096 7.21507 6.87204
#
# Compressibility (1/GPa) = 0.01560467
#
# Stress axis : x y z
#
# Youngs Moduli (GPa) = 67.75522 132.08761 102.00258
#
# Poissons Ratio (x) = 0.22376 0.24554
# Poissons Ratio (y) = 0.11478 0.42465
# Poissons Ratio (z) = 0.16310 0.54990
#
# Static dielectric constant tensor:
#      x y z
#    x 2.213770 0.000000 0.000000 
#    y 0.000000 2.040720 0.000000 
#    z 0.000000 0.000000 2.302950 
# 
# From -- ./inp_files/9906.got.cif
#   From: 2010.05.17/outbox.cif.g08.bks.cpg/sg41_5_cif.got.tgz:9906.got - 2010.06.03 18:54:24.
