data_PCOD9367436
_publ_section_title
;
Structure prediction by ZEFSAII (Michael W. Deem and Ramdas Pophale) SiO2 
 PCOD9367436
Probable space group: A B A 2
;
_chemical_formula_sum "Si O2"
_cell_formula_units_Z 32
_cell_length_a 8.682699
_cell_length_b 14.491787
_cell_length_c 10.186047
_cell_angle_alpha 90.000000
_cell_angle_beta 90.000000
_cell_angle_gamma 90.000000
_cell_volume 1281.688134
_symmetry_space_group_name_H-M "A B A 2"
_symmetry_group_IT_number 41
_symmetry_cell_setting 'orthorhombic'
loop_
_space_group_symop_operation_xyz
x,y,z
-x,-y,z
1/2-x,y,1/2+z
1/2+x,-y,1/2+z
x,1/2+y,1/2+z
-x,1/2-y,1/2+z
1/2-x,1/2+y,z
1/2+x,1/2-y,z
loop_
_atom_site_type_symbol
_atom_site_label
_atom_site_fract_x
_atom_site_fract_y
_atom_site_fract_z
Si Si1 0.133825 0.935430 0.240830
Si Si2 0.861368 0.435786 0.358442
Si Si3 0.035702 0.754402 0.399408
Si Si4 0.934146 0.649448 0.165872
O O1 0.077041 0.843930 0.314026
O O2 0.272317 0.902104 0.145389
O O3 0.211817 0.003221 0.347923
O O4 0.000000 0.000000 0.184107
O O5 0.849286 0.334024 0.417814
O O6 0.000000 0.500000 0.409467
O O7 0.921027 0.412382 0.209769
O O8 0.012617 0.788867 0.546003
O O9 0.910845 0.705050 0.304272
#
# Coordination Sequence:
#
# PCOD9367436 Si02
#       4
#     8   8   8   8
#     4  11  24  43  71 114 150 199 253 318 389 452
#     4   8  20  45  75 100 149 199 250 309 370 457
#     4  10  23  46  77 106 153 200 254 314 379 458
#     4   9  23  48  74 105 152 200 254 312 387 452
#
# _framework density 24.967072999999999
#
# number of rings (size 3 to 8) (size 9 to 14) (size 15 to 20)
#    1.500    1.000    0.000    0.000    3.500    5.000 
#    4.500    0.000    0.000    0.000    0.000    1.750 
#    0.000    0.000    0.000    0.000    0.000    0.000 
#
# Total GULP energy -89096.712909 kJ/mol
# GULP energy per Si atom -5568.544557 kJ/mol
# Density = 2.491025 g / cm^3
# Si number density = 24.967073 Si / 1000 Ang^3
#
#
#
# Elastic Constant Matrix: (Units=GPa)
#
#
# Indices 1 2 3 4 5 6 
#
# 1 75.6456 29.8193 9.6764 0.0000 0.0000 0.0000
# 2 29.8193 169.4062 29.0270 0.0000 0.0000 0.0000
# 3 9.6764 29.0270 108.3404 0.0000 0.0000 0.0000
# 4 0.0000 0.0000 0.0000 13.2288 0.0000 0.0000
# 5 0.0000 0.0000 0.0000 0.0000 2.1934 0.0000
# 6 0.0000 0.0000 0.0000 0.0000 0.0000 43.7249
#
#
#
# Elastic Compliance Matrix: (Units=1/GPa)
#
#
# Indices 1 2 3 4 5 6 
#
# 1 0.014246 -0.002400 -0.000629 0.000000 0.000000 0.000000
# 2 -0.002400 0.006591 -0.001552 0.000000 0.000000 0.000000
# 3 -0.000629 -0.001552 0.009702 0.000000 0.000000 0.000000
# 4 0.000000 0.000000 0.000000 0.075593 0.000000 0.000000
# 5 0.000000 0.000000 0.000000 0.000000 0.455922 0.000000
# 6 0.000000 0.000000 0.000000 0.000000 0.000000 0.022870
#
#
# Mechanical properties :
#
#
# Convention : Reuss Voigt Hill
#
# Bulk Modulus (GPa) = 46.77759 54.49306 50.63532
# Shear Modulus (GPa) = 8.31654 30.82072 19.56863
#
# Velocity S-wave (km/s) = 1.82708 3.51729 2.80264
# Velocity P-wave (km/s) = 4.81948 6.19423 5.54959
#
# Compressibility (1/GPa) = 0.02137776
#
# Stress axis : x y z
#
# Youngs Moduli (GPa) = 70.19493 151.71629 103.07049
#
# Poissons Ratio (x) = 0.36409 0.06488
# Poissons Ratio (y) = 0.16845 0.15993
# Poissons Ratio (z) = 0.04418 0.23541
#
# Static dielectric constant tensor:
#      x y z
#    x 2.057100 0.000000 0.000000 
#    y 0.000000 2.017070 0.000000 
#    z 0.000000 0.000000 1.957010 
# 
# From -- ./inp_files/4338.got.cif
#   From: 2010.05.17/outbox.cif.g08.bks.cpg/sg41_3_cif.got.tgz:4338.got - 2010.06.03 18:54:24.
