data_PCOD9367126
_publ_section_title
;
Structure prediction by ZEFSAII (Michael W. Deem and Ramdas Pophale) SiO2 
 PCOD9367126
Probable space group: A B A 2
;
_chemical_formula_sum "Si O2"
_cell_formula_units_Z 48
_cell_length_a 25.059223
_cell_length_b 12.279774
_cell_length_c 7.547952
_cell_angle_alpha 90.000000
_cell_angle_beta 90.000000
_cell_angle_gamma 90.000000
_cell_volume 2322.667829
_symmetry_space_group_name_H-M "A B A 2"
_symmetry_group_IT_number 41
_symmetry_cell_setting 'orthorhombic'
loop_
_space_group_symop_operation_xyz
x,y,z
-x,-y,z
1/2-x,y,1/2+z
1/2+x,-y,1/2+z
x,1/2+y,1/2+z
-x,1/2-y,1/2+z
1/2-x,1/2+y,z
1/2+x,1/2-y,z
loop_
_atom_site_type_symbol
_atom_site_label
_atom_site_fract_x
_atom_site_fract_y
_atom_site_fract_z
Si Si1 0.010475 0.250000 0.194290
Si Si2 0.779003 0.000000 0.944291
Si Si3 0.431493 0.623802 0.502885
Si Si4 0.568507 0.123804 0.885697
Si Si5 0.311088 0.368551 0.267879
Si Si6 0.311088 0.131448 0.120703
O O1 0.048609 0.212686 0.356448
O O2 0.967013 0.151241 0.211119
O O3 0.048609 0.287312 0.032132
O O4 0.967014 0.348760 0.177461
O O5 0.812471 0.042777 0.109440
O O6 0.738116 0.905035 0.999937
O O7 0.738117 0.094966 0.888644
O O8 0.812471 0.957223 0.779143
O O9 0.441439 0.499999 0.444291
O O10 0.368643 0.634486 0.530537
O O11 0.631357 0.134487 0.858046
O O12 0.300224 0.250000 0.194290
#
# Coordination Sequence:
#
# PCOD9367126 Si02
#       6
#     8   8   8   8   8   8
#     4  10  22  42  64  86 126 170 218 270 334 384
#     4  10  24  42  66  99 137 176 218 274 334 400
#     4  11  23  44  65  95 132 171 219 280 331 400
#     4  11  23  44  65  95 132 171 219 280 331 400
#     4  11  22  43  65  97 134 175 219 271 335 399
#     4  11  22  43  65  97 134 175 219 271 335 399
#
# _framework density 20.665890999999998
#
# number of rings (size 3 to 8) (size 9 to 14) (size 15 to 20)
#    0.000    1.333    3.333    3.000    0.000    2.667 
#    3.000    6.667    0.000    0.000    0.000    0.000 
#    0.000    0.000    0.000    0.000    0.000    0.000 
#
# Total GULP energy -133647.483526 kJ/mol
# GULP energy per Si atom -5568.645147 kJ/mol
# Density = 2.061885 g / cm^3
# Si number density = 20.665891 Si / 1000 Ang^3
#
#
#
# Elastic Constant Matrix: (Units=GPa)
#
#
# Indices 1 2 3 4 5 6 
#
# 1 97.7300 50.8503 35.6240 0.0000 0.0000 0.0000
# 2 50.8503 128.9639 40.4309 0.0000 0.0000 0.0000
# 3 35.6240 40.4309 73.1720 0.0000 0.0000 0.0000
# 4 0.0000 0.0000 0.0000 50.5888 0.0000 0.0000
# 5 0.0000 0.0000 0.0000 0.0000 122.7511 0.0000
# 6 0.0000 0.0000 0.0000 0.0000 0.0000 40.7025
#
#
#
# Elastic Compliance Matrix: (Units=1/GPa)
#
#
# Indices 1 2 3 4 5 6 
#
# 1 0.014030 -0.004101 -0.004565 0.000000 0.000000 0.000000
# 2 -0.004101 0.010577 -0.003848 0.000000 0.000000 0.000000
# 3 -0.004565 -0.003848 0.018015 0.000000 0.000000 0.000000
# 4 0.000000 0.000000 0.000000 0.019767 0.000000 0.000000
# 5 0.000000 0.000000 0.000000 0.000000 0.008147 0.000000
# 6 0.000000 0.000000 0.000000 0.000000 0.000000 0.024568
#
#
# Mechanical properties :
#
#
# Convention : Reuss Voigt Hill
#
# Bulk Modulus (GPa) = 56.83332 61.51958 59.17645
# Shear Modulus (GPa) = 39.68363 54.33922 47.01142
#
# Velocity S-wave (km/s) = 4.38682 5.13335 4.77469
# Velocity P-wave (km/s) = 7.29518 8.06029 7.68726
#
# Compressibility (1/GPa) = 0.01759531
#
# Stress axis : x y z
#
# Youngs Moduli (GPa) = 71.27638 94.54053 55.50970
#
# Poissons Ratio (x) = 0.38771 0.25338
# Poissons Ratio (y) = 0.29230 0.21360
# Poissons Ratio (z) = 0.32534 0.36379
#
# Static dielectric constant tensor:
#      x y z
#    x 1.737150 0.000000 0.000000 
#    y 0.000000 1.735750 0.000000 
#    z 0.000000 0.000000 1.836630 
# 
# From -- ./inp_files/3599.got.cif
#   From: 2010.05.17/outbox.cif.g08.bks.cpg/sg41_2_cif.got.tgz:3599.got - 2010.06.03 18:54:24.
