data_PCOD9367542
_publ_section_title
;
Structure prediction by ZEFSAII (Michael W. Deem and Ramdas Pophale) SiO2 
 PCOD9367542
Probable space group: A B A 2
;
_chemical_formula_sum "Si O2"
_cell_formula_units_Z 36
_cell_length_a 5.081563
_cell_length_b 15.930208
_cell_length_c 17.705219
_cell_angle_alpha 90.000000
_cell_angle_beta 90.000000
_cell_angle_gamma 90.000000
_cell_volume 1433.243773
_symmetry_space_group_name_H-M "A B A 2"
_symmetry_group_IT_number 41
_symmetry_cell_setting 'orthorhombic'
loop_
_space_group_symop_operation_xyz
x,y,z
-x,-y,z
1/2-x,y,1/2+z
1/2+x,-y,1/2+z
x,1/2+y,1/2+z
-x,1/2-y,1/2+z
1/2-x,1/2+y,z
1/2+x,1/2-y,z
loop_
_atom_site_type_symbol
_atom_site_label
_atom_site_fract_x
_atom_site_fract_y
_atom_site_fract_z
Si Si1 0.342650 0.569907 0.830070
Si Si2 0.084246 0.690974 0.941459
Si Si3 0.628832 0.196770 0.229539
Si Si4 0.000000 0.000000 0.194940
Si Si5 0.871396 0.408147 0.096914
O O1 0.500000 0.500000 0.877027
O O2 0.129903 0.620357 0.877745
O O3 0.540722 0.639912 0.799006
O O4 0.225682 0.519720 0.757721
O O5 0.305575 0.763273 0.936031
O O6 0.132263 0.643707 0.020483
O O7 0.929734 0.224317 0.231627
O O8 0.545377 0.144931 0.155920
O O9 0.088412 0.072684 0.135664
O O10 0.000000 0.500000 0.087057
#
# Coordination Sequence:
#
# PCOD9367542 Si02
#       5
#     8   8   8   4   8
#     4  11  27  45  77 111 151 203 266 314 391 463
#     4  12  30  52  78 114 164 206 256 326 406 466
#     4  11  24  43  70 104 150 193 244 308 379 451
#     4  10  24  44  76 110 148 196 266 318 380 448
#     4  11  27  45  77 111 151 203 266 314 391 463
#
# _framework density 25.117847000000001
#
# number of rings (size 3 to 8) (size 9 to 14) (size 15 to 20)
#    0.000    0.889    0.000    5.333   21.778    0.000 
#    0.000    0.000    0.000    0.000    0.000    0.000 
#    0.000    0.000    0.000    0.000    0.000    0.000 
#
# Total GULP energy -100730.811223 kJ/mol
# GULP energy per Si atom -5596.156179 kJ/mol
# Density = 2.506068 g / cm^3
# Si number density = 25.117847 Si / 1000 Ang^3
#
#
#
# Elastic Constant Matrix: (Units=GPa)
#
#
# Indices 1 2 3 4 5 6 
#
# 1 103.4410 38.5472 26.8892 0.0000 0.0000 0.0000
# 2 38.5472 102.2870 40.1083 0.0000 0.0000 0.0000
# 3 26.8892 40.1083 118.7463 0.0000 0.0000 0.0000
# 4 0.0000 0.0000 0.0000 32.5360 0.0000 0.0000
# 5 0.0000 0.0000 0.0000 0.0000 22.0427 0.0000
# 6 0.0000 0.0000 0.0000 0.0000 0.0000 14.6024
#
#
#
# Elastic Compliance Matrix: (Units=1/GPa)
#
#
# Indices 1 2 3 4 5 6 
#
# 1 0.011420 -0.003792 -0.001305 0.000000 0.000000 0.000000
# 2 -0.003792 0.012528 -0.003373 0.000000 0.000000 0.000000
# 3 -0.001305 -0.003373 0.009856 0.000000 0.000000 0.000000
# 4 0.000000 0.000000 0.000000 0.030735 0.000000 0.000000
# 5 0.000000 0.000000 0.000000 0.000000 0.045366 0.000000
# 6 0.000000 0.000000 0.000000 0.000000 0.000000 0.068482
#
#
# Mechanical properties :
#
#
# Convention : Reuss Voigt Hill
#
# Bulk Modulus (GPa) = 59.29774 59.50707 59.40241
# Shear Modulus (GPa) = 24.88203 28.43152 26.65678
#
# Velocity S-wave (km/s) = 3.15081 3.36806 3.26125
# Velocity P-wave (km/s) = 6.07420 6.23440 6.15482
#
# Compressibility (1/GPa) = 0.01686405
#
# Stress axis : x y z
#
# Youngs Moduli (GPa) = 87.56871 79.82187 101.46004
#
# Poissons Ratio (x) = 0.30266 0.13242
# Poissons Ratio (y) = 0.33204 0.34221
# Poissons Ratio (z) = 0.11429 0.26923
#
# Static dielectric constant tensor:
#      x y z
#    x 2.005600 0.000000 0.000000 
#    y 0.000000 2.044590 0.000000 
#    z 0.000000 0.000000 1.944740 
# 
# From -- ./inp_files/10898.got.cif
#   From: 2010.05.17/outbox.cif.g08.bks.cpg/sg41_6_cif.got.tgz:10898.got - 2010.06.03 18:54:24.
