data_PCOD9367865
_publ_section_title
;
Structure prediction by ZEFSAII (Michael W. Deem and Ramdas Pophale) SiO2 
 PCOD9367865
Probable space group: A B A 2
;
_chemical_formula_sum "Si O2"
_cell_formula_units_Z 40
_cell_length_a 9.870254
_cell_length_b 9.580429
_cell_length_c 20.530792
_cell_angle_alpha 90.000000
_cell_angle_beta 90.000000
_cell_angle_gamma 90.000000
_cell_volume 1941.417718
_symmetry_space_group_name_H-M "A B A 2"
_symmetry_group_IT_number 41
_symmetry_cell_setting 'orthorhombic'
loop_
_space_group_symop_operation_xyz
x,y,z
-x,-y,z
1/2-x,y,1/2+z
1/2+x,-y,1/2+z
x,1/2+y,1/2+z
-x,1/2-y,1/2+z
1/2-x,1/2+y,z
1/2+x,1/2-y,z
loop_
_atom_site_type_symbol
_atom_site_label
_atom_site_fract_x
_atom_site_fract_y
_atom_site_fract_z
Si Si1 0.084841 0.200635 0.612490
Si Si2 0.748411 0.227312 0.340162
Si Si3 0.693371 0.583279 0.564764
Si Si4 0.660511 0.975544 0.921314
Si Si5 0.995539 0.332738 0.257332
O O1 0.180450 0.322548 0.585743
O O2 0.041989 0.226515 0.686719
O O3 0.946597 0.172338 0.571671
O O4 0.167126 0.053982 0.608811
O O5 0.697722 0.319540 0.400914
O O6 0.884990 0.288699 0.310398
O O7 0.637422 0.224390 0.283561
O O8 0.773807 0.073122 0.366581
O O9 0.709080 0.523222 0.492192
O O10 0.500000 0.000000 0.919866
O O11 0.000000 0.500000 0.252055
#
# Coordination Sequence:
#
# PCOD9367865 Si02
#       5
#     8   8   8   8   8
#     4  11  24  45  69  97 133 178 226 286 340 407
#     4  12  26  42  70 100 136 182 223 281 347 404
#     4  11  24  45  69  97 135 176 227 286 342 407
#     4  12  24  44  68 100 138 177 229 283 341 417
#     4  12  24  44  68 100 138 177 231 282 338 415
#
# _framework density 20.6035
#
# number of rings (size 3 to 8) (size 9 to 14) (size 15 to 20)
#    0.000    0.400    8.000    2.400    0.000    0.800 
#    0.000    0.000    0.000    0.000    0.000    0.000 
#    0.000    0.000    0.000    0.000    0.000    0.000 
#
# Total GULP energy -111898.444598 kJ/mol
# GULP energy per Si atom -5594.922230 kJ/mol
# Density = 2.055661 g / cm^3
# Si number density = 20.603500 Si / 1000 Ang^3
#
#
#
# Elastic Constant Matrix: (Units=GPa)
#
#
# Indices 1 2 3 4 5 6 
#
# 1 48.4443 10.9449 12.5277 0.0000 0.0000 0.0000
# 2 10.9449 50.7479 10.1988 0.0000 0.0000 0.0000
# 3 12.5277 10.1988 76.5844 0.0000 0.0000 0.0000
# 4 0.0000 0.0000 0.0000 5.2933 0.0000 0.0000
# 5 0.0000 0.0000 0.0000 0.0000 31.1789 0.0000
# 6 0.0000 0.0000 0.0000 0.0000 0.0000 32.5785
#
#
#
# Elastic Compliance Matrix: (Units=1/GPa)
#
#
# Indices 1 2 3 4 5 6 
#
# 1 0.022395 -0.004206 -0.003103 0.000000 0.000000 0.000000
# 2 -0.004206 0.021037 -0.002113 0.000000 0.000000 0.000000
# 3 -0.003103 -0.002113 0.013847 0.000000 0.000000 0.000000
# 4 0.000000 0.000000 0.000000 0.188919 0.000000 0.000000
# 5 0.000000 0.000000 0.000000 0.000000 0.032073 0.000000
# 6 0.000000 0.000000 0.000000 0.000000 0.000000 0.030695
#
#
# Mechanical properties :
#
#
# Convention : Reuss Voigt Hill
#
# Bulk Modulus (GPa) = 26.01947 27.01328 26.51638
# Shear Modulus (GPa) = 14.67900 23.28383 18.98141
#
# Velocity S-wave (km/s) = 2.67207 3.36533 3.03854
# Velocity P-wave (km/s) = 4.70915 5.31414 5.02076
#
# Compressibility (1/GPa) = 0.03843275
#
# Stress axis : x y z
#
# Youngs Moduli (GPa) = 44.65259 47.53489 72.22009
#
# Poissons Ratio (x) = 0.19995 0.22412
# Poissons Ratio (y) = 0.18782 0.15263
# Poissons Ratio (z) = 0.13857 0.10046
#
# Static dielectric constant tensor:
#      x y z
#    x 1.716290 0.000000 0.000000 
#    y 0.000000 1.729430 0.000000 
#    z 0.000000 0.000000 1.721020 
# 
# From -- ./inp_files/9551.got.cif
#   From: 2010.05.17/outbox.cif.g08.bks.cpg/sg41_5_cif.got.tgz:9551.got - 2010.06.03 18:54:24.
