data_PCOD9367923
_publ_section_title
;
Structure prediction by ZEFSAII (Michael W. Deem and Ramdas Pophale) SiO2 
 PCOD9367923
Probable space group: A B A 2
;
_chemical_formula_sum "Si O2"
_cell_formula_units_Z 48
_cell_length_a 10.296694
_cell_length_b 16.545536
_cell_length_c 10.146733
_cell_angle_alpha 90.000000
_cell_angle_beta 90.000000
_cell_angle_gamma 90.000000
_cell_volume 1728.641281
_symmetry_space_group_name_H-M "A B A 2"
_symmetry_group_IT_number 41
_symmetry_cell_setting 'orthorhombic'
loop_
_space_group_symop_operation_xyz
x,y,z
-x,-y,z
1/2-x,y,1/2+z
1/2+x,-y,1/2+z
x,1/2+y,1/2+z
-x,1/2-y,1/2+z
1/2-x,1/2+y,z
1/2+x,1/2-y,z
loop_
_atom_site_type_symbol
_atom_site_label
_atom_site_fract_x
_atom_site_fract_y
_atom_site_fract_z
Si Si1 0.249629 0.727851 0.270760
Si Si2 0.722652 0.948451 0.896733
Si Si3 0.909931 0.660602 0.593593
Si Si4 0.000000 0.500000 0.714879
Si Si5 0.000000 0.500000 0.327825
Si Si6 0.401538 0.272721 0.510829
Si Si7 0.633481 0.569392 0.587985
O O1 0.272006 0.637664 0.324621
O O2 0.125453 0.763783 0.189856
O O3 0.356291 0.748473 0.159359
O O4 0.219031 0.768669 0.411089
O O5 0.631821 0.001604 0.801014
O O6 0.874018 0.971826 0.905263
O O7 0.659787 0.979021 0.034949
O O8 0.998139 0.586376 0.643405
O O9 0.773182 0.612869 0.582583
O O10 0.990633 0.705506 0.478336
O O11 0.934425 0.564468 0.228649
O O12 0.449427 0.364971 0.504853
#
# Coordination Sequence:
#
# PCOD9367923 Si02
#       7
#     8   8   8   4   4   8   8
#     4  11  27  47  77 114 157 217 270 349 431 518
#     4  12  27  48  82 117 166 217 286 360 437 528
#     4  11  25  48  78 114 165 217 285 353 430 528
#     4  12  23  49  80 110 160 218 292 352 434 512
#     4  12  27  49  80 116 170 210 278 354 446 514
#     4  11  26  50  78 113 164 215 279 353 436 521
#     4  11  27  48  79 118 159 213 287 350 433 521
#
# _framework density 27.767472999999999
#
# number of rings (size 3 to 8) (size 9 to 14) (size 15 to 20)
#    0.000    0.667    3.333    2.500    9.333    2.667 
#    6.000    0.000    0.000    0.000    0.000    0.000 
#    0.000    0.000    0.000    0.000    0.000    0.000 
#
# Total GULP energy -133858.033278 kJ/mol
# GULP energy per Si atom -5577.418053 kJ/mol
# Density = 2.770427 g / cm^3
# Si number density = 27.767473 Si / 1000 Ang^3
#
#
#
# Elastic Constant Matrix: (Units=GPa)
#
#
# Indices 1 2 3 4 5 6 
#
# 1 150.2282 35.8194 28.2386 0.0000 0.0000 0.0000
# 2 35.8194 121.1302 44.5554 0.0000 0.0000 0.0000
# 3 28.2386 44.5554 82.5584 0.0000 0.0000 0.0000
# 4 0.0000 0.0000 0.0000 45.3540 0.0000 0.0000
# 5 0.0000 0.0000 0.0000 0.0000 45.9463 0.0000
# 6 0.0000 0.0000 0.0000 0.0000 0.0000 59.2504
#
#
#
# Elastic Compliance Matrix: (Units=1/GPa)
#
#
# Indices 1 2 3 4 5 6 
#
# 1 0.007342 -0.001556 -0.001671 0.000000 0.000000 0.000000
# 2 -0.001556 0.010630 -0.005205 0.000000 0.000000 0.000000
# 3 -0.001671 -0.005205 0.015493 0.000000 0.000000 0.000000
# 4 0.000000 0.000000 0.000000 0.022049 0.000000 0.000000
# 5 0.000000 0.000000 0.000000 0.000000 0.021765 0.000000
# 6 0.000000 0.000000 0.000000 0.000000 0.000000 0.016878
#
#
# Mechanical properties :
#
#
# Convention : Reuss Voigt Hill
#
# Bulk Modulus (GPa) = 60.23843 63.46038 61.84941
# Shear Modulus (GPa) = 42.89860 46.46371 44.68115
#
# Velocity S-wave (km/s) = 3.93481 4.09505 4.01573
# Velocity P-wave (km/s) = 6.51035 6.72779 6.61996
#
# Compressibility (1/GPa) = 0.01660070
#
# Stress axis : x y z
#
# Youngs Moduli (GPa) = 136.20706 94.07158 64.54467
#
# Poissons Ratio (x) = 0.14640 0.10787
# Poissons Ratio (y) = 0.21198 0.33593
# Poissons Ratio (z) = 0.22764 0.48961
#
# Static dielectric constant tensor:
#      x y z
#    x 1.810290 0.000000 0.000000 
#    y 0.000000 2.205620 0.000000 
#    z 0.000000 0.000000 2.277780 
# 
# From -- ./inp_files/5017.got.cif
#   From: 2010.05.17/outbox.cif.g08.bks.cpg/sg41_3_cif.got.tgz:5017.got - 2010.06.03 18:54:24.
