data_PCOD9367931
_publ_section_title
;
Structure prediction by ZEFSAII (Michael W. Deem and Ramdas Pophale) SiO2 
 PCOD9367931
Probable space group: A B A 2
;
_chemical_formula_sum "Si O2"
_cell_formula_units_Z 32
_cell_length_a 9.108626
_cell_length_b 8.836942
_cell_length_c 15.350123
_cell_angle_alpha 90.000000
_cell_angle_beta 90.000000
_cell_angle_gamma 90.000000
_cell_volume 1235.568235
_symmetry_space_group_name_H-M "A B A 2"
_symmetry_group_IT_number 41
_symmetry_cell_setting 'orthorhombic'
loop_
_space_group_symop_operation_xyz
x,y,z
-x,-y,z
1/2-x,y,1/2+z
1/2+x,-y,1/2+z
x,1/2+y,1/2+z
-x,1/2-y,1/2+z
1/2-x,1/2+y,z
1/2+x,1/2-y,z
loop_
_atom_site_type_symbol
_atom_site_label
_atom_site_fract_x
_atom_site_fract_y
_atom_site_fract_z
Si Si1 0.163960 0.556342 0.440420
Si Si2 0.729469 0.054456 0.624304
Si Si3 0.886816 0.127052 0.367339
Si Si4 0.963060 0.280867 0.688231
O O1 0.248744 0.509280 0.527679
O O2 0.157294 0.734537 0.428109
O O3 0.238698 0.470713 0.359296
O O4 0.000000 0.500000 0.450080
O O5 0.873279 0.131382 0.664298
O O6 0.597965 0.179935 0.623839
O O7 0.654765 0.917565 0.678254
O O8 0.961325 0.202440 0.282618
O O9 0.000000 0.000000 0.399354
#
# Coordination Sequence:
#
# PCOD9367931 Si02
#       4
#     8   8   8   8
#     4  12  27  50  82 119 175 225 288 363 437 530
#     4  11  25  53  80 119 160 227 288 352 437 512
#     4  12  28  50  80 125 170 229 288 360 452 521
#     4  11  26  49  84 114 165 219 297 354 433 524
#
# _framework density 25.899016
#
# number of rings (size 3 to 8) (size 9 to 14) (size 15 to 20)
#    0.000    0.500    5.000    3.000    7.000    1.000 
#    0.000    0.000    0.000    0.000    0.000    0.000 
#    0.000    0.000    0.000    0.000    0.000    0.000 
#
# Total GULP energy -89648.581344 kJ/mol
# GULP energy per Si atom -5603.036334 kJ/mol
# Density = 2.584007 g / cm^3
# Si number density = 25.899016 Si / 1000 Ang^3
#
#
#
# Elastic Constant Matrix: (Units=GPa)
#
#
# Indices 1 2 3 4 5 6 
#
# 1 102.0252 75.5860 71.8064 0.0000 0.0000 0.0000
# 2 75.5860 164.4971 70.1526 0.0000 0.0000 0.0000
# 3 71.8064 70.1526 144.6094 0.0000 0.0000 0.0000
# 4 0.0000 0.0000 0.0000 20.5955 0.0000 0.0000
# 5 0.0000 0.0000 0.0000 0.0000 49.1296 0.0000
# 6 0.0000 0.0000 0.0000 0.0000 0.0000 65.6661
#
#
#
# Elastic Compliance Matrix: (Units=1/GPa)
#
#
# Indices 1 2 3 4 5 6 
#
# 1 0.018643 -0.005823 -0.006432 0.000000 0.000000 0.000000
# 2 -0.005823 0.009484 -0.001709 0.000000 0.000000 0.000000
# 3 -0.006432 -0.001709 0.010938 0.000000 0.000000 0.000000
# 4 0.000000 0.000000 0.000000 0.048554 0.000000 0.000000
# 5 0.000000 0.000000 0.000000 0.000000 0.020354 0.000000
# 6 0.000000 0.000000 0.000000 0.000000 0.000000 0.015229
#
#
# Mechanical properties :
#
#
# Convention : Reuss Voigt Hill
#
# Bulk Modulus (GPa) = 89.80211 94.02464 91.91337
# Shear Modulus (GPa) = 32.29082 39.98404 36.13743
#
# Velocity S-wave (km/s) = 3.53483 3.93344 3.73945
# Velocity P-wave (km/s) = 7.17003 7.55066 7.36280
#
# Compressibility (1/GPa) = 0.01113560
#
# Stress axis : x y z
#
# Youngs Moduli (GPa) = 53.64053 105.44309 91.42198
#
# Poissons Ratio (x) = 0.61401 0.58804
# Poissons Ratio (y) = 0.31236 0.15626
# Poissons Ratio (z) = 0.34502 0.18023
#
# Static dielectric constant tensor:
#      x y z
#    x 1.964680 0.000000 0.000000 
#    y 0.000000 2.087410 0.000000 
#    z 0.000000 0.000000 2.131060 
# 
# From -- ./inp_files/7105.got.cif
#   From: 2010.05.17/outbox.cif.g08.bks.cpg/sg41_4_cif.got.tgz:7105.got - 2010.06.03 18:54:24.
