data_PCOD9367826
_publ_section_title
;
Structure prediction by ZEFSAII (Michael W. Deem and Ramdas Pophale) SiO2 
 PCOD9367826
Probable space group: A B A 2
;
_chemical_formula_sum "Si O2"
_cell_formula_units_Z 48
_cell_length_a 22.790258
_cell_length_b 8.797987
_cell_length_c 9.864155
_cell_angle_alpha 90.000000
_cell_angle_beta 90.000000
_cell_angle_gamma 90.000000
_cell_volume 1977.845873
_symmetry_space_group_name_H-M "A B A 2"
_symmetry_group_IT_number 41
_symmetry_cell_setting 'orthorhombic'
loop_
_space_group_symop_operation_xyz
x,y,z
-x,-y,z
1/2-x,y,1/2+z
1/2+x,-y,1/2+z
x,1/2+y,1/2+z
-x,1/2-y,1/2+z
1/2-x,1/2+y,z
1/2+x,1/2-y,z
loop_
_atom_site_type_symbol
_atom_site_label
_atom_site_fract_x
_atom_site_fract_y
_atom_site_fract_z
Si Si1 0.381652 0.113906 0.519240
Si Si2 0.455001 0.882237 0.992011
Si Si3 0.167018 0.150731 0.719618
Si Si4 0.126673 0.628046 0.917520
Si Si5 0.213603 0.992746 0.221739
Si Si6 0.542980 0.620525 0.903947
O O1 0.407920 0.275208 0.566100
O O2 0.368771 0.128798 0.358216
O O3 0.323932 0.064840 0.598606
O O4 0.430547 0.981171 0.527440
O O5 0.498479 0.757136 0.932267
O O6 0.500000 0.000000 0.058752
O O7 0.417237 0.986891 0.890197
O O8 0.130519 0.142961 0.580364
O O9 0.218146 0.025862 0.709683
O O10 0.198188 0.315372 0.727102
O O11 0.188083 0.579334 0.853753
O O12 0.100467 0.784477 0.860172
O O13 0.500000 0.500000 0.832405
#
# Coordination Sequence:
#
# PCOD9367826 Si02
#       6
#     8   8   8   8   8   8
#     4  11  23  46  71 101 142 176 225 284 336 406
#     4   9  20  42  70 103 137 178 227 275 339 405
#     4  12  28  46  70 103 136 181 232 280 345 404
#     4  11  23  46  71 101 142 176 225 284 336 406
#     4  12  28  46  70 102 138 179 230 285 339 406
#     4   9  20  42  70 103 137 178 227 275 339 405
#
# _framework density 24.268827999999999
#
# number of rings (size 3 to 8) (size 9 to 14) (size 15 to 20)
#    0.000    1.333    3.333    1.000    4.667    2.667 
#    0.000   33.333    0.000    0.000    0.000    0.000 
#    0.000    0.000    0.000    0.000    0.000    0.000 
#
# Total GULP energy -133934.606592 kJ/mol
# GULP energy per Si atom -5580.608608 kJ/mol
# Density = 2.421359 g / cm^3
# Si number density = 24.268828 Si / 1000 Ang^3
#
#
#
# Elastic Constant Matrix: (Units=GPa)
#
#
# Indices 1 2 3 4 5 6 
#
# 1 98.1146 24.0616 11.3022 0.0000 0.0000 0.0000
# 2 24.0616 157.9834 -1.6099 0.0000 0.0000 0.0000
# 3 11.3022 -1.6099 94.8922 0.0000 0.0000 0.0000
# 4 0.0000 0.0000 0.0000 7.4176 0.0000 0.0000
# 5 0.0000 0.0000 0.0000 0.0000 551.6570 0.0000
# 6 0.0000 0.0000 0.0000 0.0000 0.0000 61.9481
#
#
#
# Elastic Compliance Matrix: (Units=1/GPa)
#
#
# Indices 1 2 3 4 5 6 
#
# 1 0.010748 -0.001650 -0.001308 0.000000 0.000000 0.000000
# 2 -0.001650 0.006584 0.000308 0.000000 0.000000 0.000000
# 3 -0.001308 0.000308 0.010699 0.000000 0.000000 0.000000
# 4 0.000000 0.000000 0.000000 0.134815 0.000000 0.000000
# 5 0.000000 0.000000 0.000000 0.000000 0.001813 0.000000
# 6 0.000000 0.000000 0.000000 0.000000 0.000000 0.016143
#
#
# Mechanical properties :
#
#
# Convention : Reuss Voigt Hill
#
# Bulk Modulus (GPa) = 43.99283 46.49979 45.24631
# Shear Modulus (GPa) = 25.81603 145.35362 85.58483
#
# Velocity S-wave (km/s) = 3.26506 7.74746 5.94490
# Velocity P-wave (km/s) = 5.69041 9.96156 8.11214
#
# Compressibility (1/GPa) = 0.02273098
#
# Stress axis : x y z
#
# Youngs Moduli (GPa) = 93.04446 151.87740 93.46397
#
# Poissons Ratio (x) = 0.25063 0.12226
# Poissons Ratio (y) = 0.15354 -0.02881
# Poissons Ratio (z) = 0.12171 -0.04682
#
# Static dielectric constant tensor:
#      x y z
#    x 1.898730 0.000000 0.000000 
#    y 0.000000 1.932560 0.000000 
#    z 0.000000 0.000000 1.958290 
# 
# From -- ./inp_files/6393.got.cif
#   From: 2010.05.17/outbox.cif.g08.bks.cpg/sg41_4_cif.got.tgz:6393.got - 2010.06.03 18:54:24.
