data_PCOD9367283
_publ_section_title
;
Structure prediction by ZEFSAII (Michael W. Deem and Ramdas Pophale) SiO2 
 PCOD9367283
Probable space group: A B A 2
;
_chemical_formula_sum "Si O2"
_cell_formula_units_Z 60
_cell_length_a 14.690838
_cell_length_b 7.986822
_cell_length_c 22.630363
_cell_angle_alpha 90.000000
_cell_angle_beta 90.000000
_cell_angle_gamma 90.000000
_cell_volume 2655.290829
_symmetry_space_group_name_H-M "A B A 2"
_symmetry_group_IT_number 41
_symmetry_cell_setting 'orthorhombic'
loop_
_space_group_symop_operation_xyz
x,y,z
-x,-y,z
1/2-x,y,1/2+z
1/2+x,-y,1/2+z
x,1/2+y,1/2+z
-x,1/2-y,1/2+z
1/2-x,1/2+y,z
1/2+x,1/2-y,z
loop_
_atom_site_type_symbol
_atom_site_label
_atom_site_fract_x
_atom_site_fract_y
_atom_site_fract_z
Si Si1 0.689854 0.671808 0.589800
Si Si2 0.936698 0.271407 0.815798
Si Si3 0.112431 0.226814 0.895391
Si Si4 0.443273 0.342734 0.693669
Si Si5 0.144620 0.187669 0.542471
Si Si6 0.540186 0.315554 0.018279
Si Si7 0.500000 0.000000 0.728823
Si Si8 0.308953 0.349585 0.914223
O O1 0.645647 0.667534 0.653901
O O2 0.795258 0.712830 0.589790
O O3 0.670265 0.504555 0.552423
O O4 0.633839 0.813434 0.553904
O O5 0.921641 0.137424 0.763417
O O6 0.866246 0.258383 0.867826
O O7 0.038153 0.244820 0.843229
O O8 0.924783 0.441044 0.776945
O O9 0.203056 0.338913 0.896560
O O10 0.149802 0.036628 0.906527
O O11 0.056360 0.265066 0.954739
O O12 0.500000 0.500000 0.673123
O O13 0.501955 0.169467 0.691411
O O14 0.173960 0.268499 0.479093
O O15 0.037887 0.211839 0.550470
O O16 0.500000 0.500000 0.010851
#
# Coordination Sequence:
#
# PCOD9367283 Si02
#       8
#     8   8   8   8   8   8   4   8
#     4  12  27  46  71 106 142 195 246 311 365 451
#     4  10  23  46  74 103 150 194 243 306 378 442
#     4  12  24  41  66 108 147 199 233 306 374 443
#     4  10  22  48  74 107 144 193 256 302 375 441
#     4  12  24  45  66 104 149 184 247 299 369 445
#     4  12  23  41  69  97 141 193 234 294 370 431
#     4   8  24  42  80 108 136 200 256 308 370 456
#     4  12  24  41  69 107 153 187 245 300 373 459
#
# _framework density 22.596394
#
# number of rings (size 3 to 8) (size 9 to 14) (size 15 to 20)
#    0.800    0.000    4.000    4.000    2.800    0.000 
#    2.400    5.333    0.000    0.000    0.000    0.000 
#    0.000    0.000    0.000    0.000    0.000    0.000 
#
# Total GULP energy -167448.755484 kJ/mol
# GULP energy per Si atom -5581.625183 kJ/mol
# Density = 2.254496 g / cm^3
# Si number density = 22.596394 Si / 1000 Ang^3
#
#
#
# Elastic Constant Matrix: (Units=GPa)
#
#
# Indices 1 2 3 4 5 6 
#
# 1 108.0876 41.4947 42.8947 0.0000 0.0000 0.0000
# 2 41.4947 104.1640 23.4069 0.0000 0.0000 0.0000
# 3 42.8947 23.4069 125.0058 0.0000 0.0000 0.0000
# 4 0.0000 0.0000 0.0000 -0.9696 0.0000 0.0000
# 5 0.0000 0.0000 0.0000 0.0000 18.7935 0.0000
# 6 0.0000 0.0000 0.0000 0.0000 0.0000 30.2830
#
#
#
# Elastic Compliance Matrix: (Units=1/GPa)
#
#
# Indices 1 2 3 4 5 6 
#
# 1 0.012173 -0.004082 -0.003413 0.000000 0.000000 0.000000
# 2 -0.004082 0.011391 -0.000732 0.000000 0.000000 0.000000
# 3 -0.003413 -0.000732 0.009308 0.000000 0.000000 0.000000
# 4 0.000000 0.000000 0.000000 -1.031379 0.000000 0.000000
# 5 0.000000 0.000000 0.000000 0.000000 0.053210 0.000000
# 6 0.000000 0.000000 0.000000 0.000000 0.000000 0.033022
#
#
# Mechanical properties :
#
#
# Convention : Reuss Voigt Hill
#
# Bulk Modulus (GPa) = 60.91039 61.42779 61.16909
# Shear Modulus (GPa) = -5.61578 24.91879 9.65151
#
# Velocity S-wave (km/s) = -1.57818 3.32441 2.06894
# Velocity P-wave (km/s) = 4.86759 6.47915 5.73031
#
# Compressibility (1/GPa) = 0.01641756
#
# Stress axis : x y z
#
# Youngs Moduli (GPa) = 82.14644 87.78829 107.43716
#
# Poissons Ratio (x) = 0.35839 0.36666
# Poissons Ratio (y) = 0.33536 0.07865
# Poissons Ratio (z) = 0.28035 0.06427
#
# Static dielectric constant tensor:
#      x y z
#    x 1.866110 0.000000 0.000000 
#    y 0.000000 1.947300 0.000000 
#    z 0.000000 0.000000 1.841680 
# 
# From -- ./inp_files/12224.got.cif
#   From: 2010.05.17/outbox.cif.g08.bks.cpg/sg41_7_cif.got.tgz:12224.got - 2010.06.03 18:54:24.
