data_PCOD9367010
_publ_section_title
;
Structure prediction by ZEFSAII (Michael W. Deem and Ramdas Pophale) SiO2 
 PCOD9367010
Probable space group: A B A 2
;
_chemical_formula_sum "Si O2"
_cell_formula_units_Z 52
_cell_length_a 21.189254
_cell_length_b 12.189854
_cell_length_c 8.893024
_cell_angle_alpha 90.000000
_cell_angle_beta 90.000000
_cell_angle_gamma 90.000000
_cell_volume 2297.013964
_symmetry_space_group_name_H-M "A B A 2"
_symmetry_group_IT_number 41
_symmetry_cell_setting 'orthorhombic'
loop_
_space_group_symop_operation_xyz
x,y,z
-x,-y,z
1/2-x,y,1/2+z
1/2+x,-y,1/2+z
x,1/2+y,1/2+z
-x,1/2-y,1/2+z
1/2-x,1/2+y,z
1/2+x,1/2-y,z
loop_
_atom_site_type_symbol
_atom_site_label
_atom_site_fract_x
_atom_site_fract_y
_atom_site_fract_z
Si Si1 0.985554 0.345200 0.545940
Si Si2 0.195776 0.731897 0.496912
Si Si3 0.077802 0.881111 0.554201
Si Si4 0.500000 0.500000 0.320471
Si Si5 0.595701 0.530450 0.891509
Si Si6 0.756777 0.411013 0.737292
Si Si7 0.242052 0.443592 0.478588
O O1 0.974403 0.216337 0.561627
O O2 0.935230 0.412857 0.440078
O O3 0.981823 0.401068 0.709455
O O4 0.053013 0.380298 0.478603
O O5 0.136970 0.811790 0.494409
O O6 0.192262 0.661560 0.650129
O O7 0.214616 0.662743 0.348794
O O8 0.252457 0.817836 0.519257
O O9 0.089263 0.938422 0.715488
O O10 0.056278 0.966907 0.430224
O O11 0.667994 0.535545 0.945674
O O12 0.725893 0.473636 0.597203
O O13 0.778240 0.517678 0.829082
#
# Coordination Sequence:
#
# PCOD9367010 Si02
#       7
#     8   8   8   4   8   8   8
#     4  10  23  43  64  92 129 168 216 269 319 382
#     4  11  24  39  63  94 124 168 215 259 323 389
#     4  12  23  42  66  92 129 169 216 268 319 385
#     4  10  24  40  64  96 120 164 216 260 324 376
#     4  10  22  41  65  92 128 171 212 264 330 387
#     4  10  22  39  60  89 123 163 207 253 317 379
#     4  11  22  41  62  91 131 163 206 270 320 384
#
# _framework density 22.638085
#
# number of rings (size 3 to 8) (size 9 to 14) (size 15 to 20)
#    0.000    1.538    0.000    6.462    0.000    6.154 
#    0.000    9.231    0.000    0.000    0.000    0.000 
#    0.000    0.000    0.000    0.000    0.000    0.000 
#
# Total GULP energy -144988.638761 kJ/mol
# GULP energy per Si atom -5576.486106 kJ/mol
# Density = 2.258656 g / cm^3
# Si number density = 22.638085 Si / 1000 Ang^3
#
#
#
# Elastic Constant Matrix: (Units=GPa)
#
#
# Indices 1 2 3 4 5 6 
#
# 1 82.2479 33.4438 41.6392 0.0000 0.0000 0.0000
# 2 33.4438 49.7243 35.3340 0.0000 0.0000 0.0000
# 3 41.6392 35.3340 141.9387 0.0000 0.0000 0.0000
# 4 0.0000 0.0000 0.0000 33.6372 0.0000 0.0000
# 5 0.0000 0.0000 0.0000 0.0000 41.3060 0.0000
# 6 0.0000 0.0000 0.0000 0.0000 0.0000 40.1544
#
#
#
# Elastic Compliance Matrix: (Units=1/GPa)
#
#
# Indices 1 2 3 4 5 6 
#
# 1 0.017538 -0.009889 -0.002683 0.000000 0.000000 0.000000
# 2 -0.009889 0.030009 -0.004569 0.000000 0.000000 0.000000
# 3 -0.002683 -0.004569 0.008970 0.000000 0.000000 0.000000
# 4 0.000000 0.000000 0.000000 0.029729 0.000000 0.000000
# 5 0.000000 0.000000 0.000000 0.000000 0.024210 0.000000
# 6 0.000000 0.000000 0.000000 0.000000 0.000000 0.024904
#
#
# Mechanical properties :
#
#
# Convention : Reuss Voigt Hill
#
# Bulk Modulus (GPa) = 44.97669 54.97167 49.97418
# Shear Modulus (GPa) = 28.24004 33.91912 31.07958
#
# Velocity S-wave (km/s) = 3.53577 3.87501 3.70927
# Velocity P-wave (km/s) = 6.04812 6.66007 6.36146
#
# Compressibility (1/GPa) = 0.02223374
#
# Stress axis : x y z
#
# Youngs Moduli (GPa) = 57.01955 33.32324 111.48377
#
# Poissons Ratio (x) = 0.32953 0.29913
# Poissons Ratio (y) = 0.56387 0.50941
# Poissons Ratio (z) = 0.15299 0.15227
#
# Static dielectric constant tensor:
#      x y z
#    x 1.913970 0.000000 0.000000 
#    y 0.000000 1.922210 0.000000 
#    z 0.000000 0.000000 1.870400 
# 
# From -- ./inp_files/3651.got.cif
#   From: 2010.05.17/outbox.cif.g08.bks.cpg/sg41_2_cif.got.tgz:3651.got - 2010.06.03 18:54:24.
