data_PCOD9367761
_publ_section_title
;
Structure prediction by ZEFSAII (Michael W. Deem and Ramdas Pophale) SiO2 
 PCOD9367761
Probable space group: A B A 2
;
_chemical_formula_sum "Si O2"
_cell_formula_units_Z 60
_cell_length_a 28.153484
_cell_length_b 11.926891
_cell_length_c 7.658920
_cell_angle_alpha 90.000000
_cell_angle_beta 90.000000
_cell_angle_gamma 90.000000
_cell_volume 2571.739231
_symmetry_space_group_name_H-M "A B A 2"
_symmetry_group_IT_number 41
_symmetry_cell_setting 'orthorhombic'
loop_
_space_group_symop_operation_xyz
x,y,z
-x,-y,z
1/2-x,y,1/2+z
1/2+x,-y,1/2+z
x,1/2+y,1/2+z
-x,1/2-y,1/2+z
1/2-x,1/2+y,z
1/2+x,1/2-y,z
loop_
_atom_site_type_symbol
_atom_site_label
_atom_site_fract_x
_atom_site_fract_y
_atom_site_fract_z
Si Si1 0.336507 0.497052 0.857410
Si Si2 0.933870 0.688893 0.071793
Si Si3 0.821159 0.871689 0.390736
Si Si4 0.074789 0.655055 0.282170
Si Si5 0.500000 0.000000 0.093445
Si Si6 0.402843 0.796092 0.458098
Si Si7 0.271890 0.173861 0.534931
Si Si8 0.326340 0.885684 0.996087
O O1 0.374528 0.592390 0.798897
O O2 0.367772 0.404134 0.962043
O O3 0.315920 0.433328 0.689599
O O4 0.294221 0.561856 0.951475
O O5 0.970090 0.596349 0.998914
O O6 0.935306 0.689522 0.283818
O O7 0.879974 0.658915 0.016689
O O8 0.941928 0.804543 0.972264
O O9 0.870971 0.812478 0.412178
O O10 0.784398 0.837518 0.541852
O O11 0.795401 0.822579 0.223155
O O12 0.825242 0.004772 0.377044
O O13 0.038891 0.565158 0.205567
O O14 0.075979 0.759466 0.144804
O O15 0.290952 0.286897 0.444378
#
# Coordination Sequence:
#
# PCOD9367761 Si02
#       8
#     8   8   8   8   4   8   8   8
#     4  11  22  46  68  99 137 177 241 289 345 425
#     4  11  25  49  72 105 143 182 241 291 358 436
#     4  12  25  42  69  99 141 187 240 290 350 414
#     4  12  25  47  75 102 144 189 227 301 364 418
#     4  12  26  48  72 110 150 172 238 312 342 440
#     4  11  24  48  74 103 142 195 239 288 359 430
#     4  12  27  41  66 104 137 187 238 294 347 421
#     4  11  23  47  67  93 143 180 230 297 346 415
#
# _framework density 23.330515999999999
#
# number of rings (size 3 to 8) (size 9 to 14) (size 15 to 20)
#    0.000    0.533    8.000    0.800    5.600    1.067 
#    2.400    1.333    0.000    0.000    0.000    0.000 
#    0.000    0.000    0.000    0.000    0.000    0.000 
#
# Total GULP energy -167777.661381 kJ/mol
# GULP energy per Si atom -5592.588713 kJ/mol
# Density = 2.327741 g / cm^3
# Si number density = 23.330516 Si / 1000 Ang^3
#
#
#
# Elastic Constant Matrix: (Units=GPa)
#
#
# Indices 1 2 3 4 5 6 
#
# 1 34.1630 -6.7047 -4.1553 0.0000 0.0000 0.0000
# 2 -6.7047 109.6155 15.2740 0.0000 0.0000 0.0000
# 3 -4.1553 15.2740 55.3334 0.0000 0.0000 0.0000
# 4 0.0000 0.0000 0.0000 35.1629 0.0000 0.0000
# 5 0.0000 0.0000 0.0000 0.0000 1.0611 0.0000
# 6 0.0000 0.0000 0.0000 0.0000 0.0000 29.1927
#
#
#
# Elastic Compliance Matrix: (Units=1/GPa)
#
#
# Indices 1 2 3 4 5 6 
#
# 1 0.029799 0.001571 0.001804 0.000000 0.000000 0.000000
# 2 0.001571 0.009571 -0.002524 0.000000 0.000000 0.000000
# 3 0.001804 -0.002524 0.018904 0.000000 0.000000 0.000000
# 4 0.000000 0.000000 0.000000 0.028439 0.000000 0.000000
# 5 0.000000 0.000000 0.000000 0.000000 0.942421 0.000000
# 6 0.000000 0.000000 0.000000 0.000000 0.000000 0.034255
#
#
# Mechanical properties :
#
#
# Convention : Reuss Voigt Hill
#
# Bulk Modulus (GPa) = 16.67299 23.10444 19.88872
# Shear Modulus (GPa) = 4.62244 26.06320 15.34282
#
# Velocity S-wave (km/s) = 1.40911 3.34597 2.56721
# Velocity P-wave (km/s) = 3.13200 4.98518 4.16301
#
# Compressibility (1/GPa) = 0.05997725
#
# Stress axis : x y z
#
# Youngs Moduli (GPa) = 33.55794 104.48686 52.89768
#
# Poissons Ratio (x) = -0.16418 -0.09543
# Poissons Ratio (y) = -0.05273 0.13350
# Poissons Ratio (z) = -0.06054 0.26371
#
# Static dielectric constant tensor:
#      x y z
#    x 1.928950 0.000000 0.000000 
#    y 0.000000 1.889130 0.000000 
#    z 0.000000 0.000000 1.940590 
# 
# From -- ./inp_files/3817.got.cif
#   From: 2010.05.17/outbox.cif.g08.bks.cpg/sg41_2_cif.got.tgz:3817.got - 2010.06.03 18:54:24.
