data_PCOD9367749
_publ_section_title
;
Structure prediction by ZEFSAII (Michael W. Deem and Ramdas Pophale) SiO2 
 PCOD9367749
Probable space group: A B A 2
;
_chemical_formula_sum "Si O2"
_cell_formula_units_Z 64
_cell_length_a 14.310348
_cell_length_b 9.324639
_cell_length_c 21.665076
_cell_angle_alpha 90.000000
_cell_angle_beta 90.000000
_cell_angle_gamma 90.000000
_cell_volume 2890.962373
_symmetry_space_group_name_H-M "A B A 2"
_symmetry_group_IT_number 41
_symmetry_cell_setting 'orthorhombic'
loop_
_space_group_symop_operation_xyz
x,y,z
-x,-y,z
1/2-x,y,1/2+z
1/2+x,-y,1/2+z
x,1/2+y,1/2+z
-x,1/2-y,1/2+z
1/2-x,1/2+y,z
1/2+x,1/2-y,z
loop_
_atom_site_type_symbol
_atom_site_label
_atom_site_fract_x
_atom_site_fract_y
_atom_site_fract_z
Si Si1 0.658110 0.302071 0.380660
Si Si2 0.991526 0.328393 0.985506
Si Si3 0.872032 0.302860 0.402310
Si Si4 0.132414 0.305146 0.682894
Si Si5 0.105168 0.458892 0.302857
Si Si6 0.594000 0.575313 0.310504
Si Si7 0.469196 0.839900 0.128140
Si Si8 0.203324 0.990821 0.672247
O O1 0.596737 0.288005 0.442907
O O2 0.763647 0.264101 0.399268
O O3 0.621307 0.200330 0.326417
O O4 0.653681 0.458253 0.348072
O O5 0.000000 0.500000 0.973269
O O6 0.077758 0.224268 0.966654
O O7 0.991440 0.318165 0.059377
O O8 0.879529 0.449899 0.365374
O O9 0.931196 0.190211 0.362008
O O10 0.139632 0.331605 0.756401
O O11 0.023334 0.278857 0.667908
O O12 0.190460 0.442419 0.659480
O O13 0.180301 0.157440 0.658814
O O14 0.172831 0.483206 0.244688
O O15 0.000000 0.500000 0.283418
O O16 0.500000 0.500000 0.287251
O O17 0.359339 0.868468 0.137707
O O18 0.500000 0.000000 0.148096
#
# Coordination Sequence:
#
# PCOD9367749 Si02
#       8
#     8   8   8   8   8   8   8   8
#     4  12  24  38  65  96 131 171 216 273 336 397
#     4  11  22  44  67  92 126 178 230 268 324 399
#     4  12  22  40  63  97 131 169 216 275 331 399
#     4  11  24  42  67 101 132 170 223 276 340 399
#     4  12  23  38  63  94 138 169 205 271 340 402
#     4  12  23  41  64  98 134 173 216 269 336 405
#     4   9  23  44  68  90 128 180 226 270 326 395
#     4  11  24  42  68  99 132 173 219 276 336 402
#
# _framework density 22.137958000000001
#
# number of rings (size 3 to 8) (size 9 to 14) (size 15 to 20)
#    0.000    0.750    5.000    3.375    3.500    1.000 
#    0.000    0.000    8.250    0.000    0.000    0.000 
#    0.000    0.000    0.000    0.000    0.000    0.000 
#
# Total GULP energy -178386.304083 kJ/mol
# GULP energy per Si atom -5574.572003 kJ/mol
# Density = 2.208757 g / cm^3
# Si number density = 22.137958 Si / 1000 Ang^3
#
#
#
# Elastic Constant Matrix: (Units=GPa)
#
#
# Indices 1 2 3 4 5 6 
#
# 1 92.9445 14.7125 18.9926 0.0000 0.0000 0.0000
# 2 14.7125 62.6867 1.9143 0.0000 0.0000 0.0000
# 3 18.9926 1.9143 74.2535 0.0000 0.0000 0.0000
# 4 0.0000 0.0000 0.0000 19.4884 0.0000 0.0000
# 5 0.0000 0.0000 0.0000 0.0000 6.7659 0.0000
# 6 0.0000 0.0000 0.0000 0.0000 0.0000 35.5681
#
#
#
# Elastic Compliance Matrix: (Units=1/GPa)
#
#
# Indices 1 2 3 4 5 6 
#
# 1 0.011785 -0.002676 -0.002945 0.000000 0.000000 0.000000
# 2 -0.002676 0.016573 0.000257 0.000000 0.000000 0.000000
# 3 -0.002945 0.000257 0.014214 0.000000 0.000000 0.000000
# 4 0.000000 0.000000 0.000000 0.051313 0.000000 0.000000
# 5 0.000000 0.000000 0.000000 0.000000 0.147800 0.000000
# 6 0.000000 0.000000 0.000000 0.000000 0.000000 0.028115
#
#
# Mechanical properties :
#
#
# Convention : Reuss Voigt Hill
#
# Bulk Modulus (GPa) = 31.40386 33.45817 32.43102
# Shear Modulus (GPa) = 17.17378 25.31550 21.24464
#
# Velocity S-wave (km/s) = 2.78827 3.38529 3.10118
# Velocity P-wave (km/s) = 4.95805 5.51602 5.24446
#
# Compressibility (1/GPa) = 0.03184322
#
# Stress axis : x y z
#
# Youngs Moduli (GPa) = 84.85697 60.34089 70.35276
#
# Poissons Ratio (x) = 0.16146 0.20721
# Poissons Ratio (y) = 0.22707 -0.01809
# Poissons Ratio (z) = 0.24993 -0.01552
#
# Static dielectric constant tensor:
#      x y z
#    x 1.949370 0.000000 0.000000 
#    y 0.000000 1.819600 0.000000 
#    z 0.000000 0.000000 1.825270 
# 
# From -- ./inp_files/12248.got.cif
#   From: 2010.05.17/outbox.cif.g08.bks.cpg/sg41_7_cif.got.tgz:12248.got - 2010.06.03 18:54:24.
