data_PCOD9367692
_publ_section_title
;
Structure prediction by ZEFSAII (Michael W. Deem and Ramdas Pophale) SiO2 
 PCOD9367692
Probable space group: A B A 2
;
_chemical_formula_sum "Si O2"
_cell_formula_units_Z 56
_cell_length_a 12.267024
_cell_length_b 11.440159
_cell_length_c 18.017957
_cell_angle_alpha 90.000000
_cell_angle_beta 90.000000
_cell_angle_gamma 90.000000
_cell_volume 2528.580717
_symmetry_space_group_name_H-M "A B A 2"
_symmetry_group_IT_number 41
_symmetry_cell_setting 'orthorhombic'
loop_
_space_group_symop_operation_xyz
x,y,z
-x,-y,z
1/2-x,y,1/2+z
1/2+x,-y,1/2+z
x,1/2+y,1/2+z
-x,1/2-y,1/2+z
1/2-x,1/2+y,z
1/2+x,1/2-y,z
loop_
_atom_site_type_symbol
_atom_site_label
_atom_site_fract_x
_atom_site_fract_y
_atom_site_fract_z
Si Si1 0.850052 0.895383 0.954070
Si Si2 0.663648 0.042181 0.662869
Si Si3 0.413064 0.905504 0.824949
Si Si4 0.778633 0.655695 0.435452
Si Si5 0.972217 0.332935 0.595463
Si Si6 0.912557 0.089490 0.663537
Si Si7 0.015929 0.340905 0.327998
O O1 0.761860 0.787331 0.962596
O O2 0.912071 0.897635 0.873112
O O3 0.806411 0.026896 0.973297
O O4 0.946780 0.860041 0.010347
O O5 0.644279 0.052685 0.750290
O O6 0.596087 0.143455 0.620247
O O7 0.790902 0.046805 0.650098
O O8 0.603946 0.925151 0.638002
O O9 0.324994 0.879910 0.886581
O O10 0.473710 0.786323 0.805549
O O11 0.500000 0.000000 0.850448
O O12 0.883989 0.674935 0.384166
O O13 0.932246 0.208389 0.620474
O O14 0.938650 0.105280 0.751423
O O15 0.000000 0.000000 0.633223
#
# Coordination Sequence:
#
# PCOD9367692 Si02
#       7
#     8   8   8   8   8   8   8
#     4  11  27  45  73 105 148 193 243 290 374 440
#     4  11  24  44  72  99 145 189 239 300 371 434
#     4  11  20  41  67 104 140 180 237 299 361 425
#     4  11  24  44  71 105 142 192 237 306 354 436
#     4  11  27  47  70 104 148 199 239 297 380 452
#     4  12  26  45  73 110 140 189 252 312 362 439
#     4  11  23  42  70 106 144 183 246 301 359 433
#
# _framework density 22.146811
#
# number of rings (size 3 to 8) (size 9 to 14) (size 15 to 20)
#    0.000    0.857    4.286    2.143    8.000    0.000 
#    0.000    2.857    0.000    0.000    0.000    0.000 
#    0.000    0.000    0.000    0.000    0.000    0.000 
#
# Total GULP energy -156380.511793 kJ/mol
# GULP energy per Si atom -5585.018278 kJ/mol
# Density = 2.209640 g / cm^3
# Si number density = 22.146811 Si / 1000 Ang^3
#
#
#
# Elastic Constant Matrix: (Units=GPa)
#
#
# Indices 1 2 3 4 5 6 
#
# 1 143.7538 46.9338 3.1489 0.0000 0.0000 0.0000
# 2 46.9338 83.4546 9.8784 0.0000 0.0000 0.0000
# 3 3.1489 9.8784 41.4211 0.0000 0.0000 0.0000
# 4 0.0000 0.0000 0.0000 23.0614 0.0000 0.0000
# 5 0.0000 0.0000 0.0000 0.0000 0.5442 0.0000
# 6 0.0000 0.0000 0.0000 0.0000 0.0000 19.6814
#
#
#
# Elastic Compliance Matrix: (Units=1/GPa)
#
#
# Indices 1 2 3 4 5 6 
#
# 1 0.008531 -0.004858 0.000510 0.000000 0.000000 0.000000
# 2 -0.004858 0.015097 -0.003231 0.000000 0.000000 0.000000
# 3 0.000510 -0.003231 0.024874 0.000000 0.000000 0.000000
# 4 0.000000 0.000000 0.000000 0.043362 0.000000 0.000000
# 5 0.000000 0.000000 0.000000 0.000000 1.837673 0.000000
# 6 0.000000 0.000000 0.000000 0.000000 0.000000 0.050809
#
#
# Mechanical properties :
#
#
# Convention : Reuss Voigt Hill
#
# Bulk Modulus (GPa) = 29.99046 43.17241 36.58143
# Shear Modulus (GPa) = 2.49175 22.56864 12.53019
#
# Velocity S-wave (km/s) = 1.06186 3.19571 2.38119
# Velocity P-wave (km/s) = 3.88258 5.75785 4.91056
#
# Compressibility (1/GPa) = 0.03334394
#
# Stress axis : x y z
#
# Youngs Moduli (GPa) = 117.21492 66.23706 40.20247
#
# Poissons Ratio (x) = 0.32180 -0.02051
# Poissons Ratio (y) = 0.56947 0.12990
# Poissons Ratio (z) = -0.05979 0.21402
#
# Static dielectric constant tensor:
#      x y z
#    x 1.787890 0.000000 0.000000 
#    y 0.000000 1.922780 0.000000 
#    z 0.000000 0.000000 1.844770 
# 
# From -- ./inp_files/11394.got.cif
#   From: 2010.05.17/outbox.cif.g08.bks.cpg/sg41_6_cif.got.tgz:11394.got - 2010.06.03 18:54:24.
