data_PCOD9367704
_publ_section_title
;
Structure prediction by ZEFSAII (Michael W. Deem and Ramdas Pophale) SiO2 
 PCOD9367704
Probable space group: A B A 2
;
_chemical_formula_sum "Si O2"
_cell_formula_units_Z 64
_cell_length_a 13.971873
_cell_length_b 23.973927
_cell_length_c 8.204701
_cell_angle_alpha 90.000000
_cell_angle_beta 90.000000
_cell_angle_gamma 90.000000
_cell_volume 2748.252090
_symmetry_space_group_name_H-M "A B A 2"
_symmetry_group_IT_number 41
_symmetry_cell_setting 'orthorhombic'
loop_
_space_group_symop_operation_xyz
x,y,z
-x,-y,z
1/2-x,y,1/2+z
1/2+x,-y,1/2+z
x,1/2+y,1/2+z
-x,1/2-y,1/2+z
1/2-x,1/2+y,z
1/2+x,1/2-y,z
loop_
_atom_site_type_symbol
_atom_site_label
_atom_site_fract_x
_atom_site_fract_y
_atom_site_fract_z
Si Si1 0.808154 0.042331 0.250000
Si Si2 0.808151 0.457668 0.020293
Si Si3 0.808756 0.209476 0.004525
Si Si4 0.992055 0.065957 0.080374
Si Si5 0.664462 0.864213 0.546008
Si Si6 0.808757 0.290522 0.265768
Si Si7 0.664460 0.135786 0.224284
Si Si8 0.992052 0.934043 0.689924
O O1 0.729089 0.086834 0.304314
O O2 0.890238 0.077431 0.160798
O O3 0.847150 0.000000 0.385148
O O4 0.750005 0.999999 0.135143
O O5 0.729090 0.413163 0.965974
O O6 0.890234 0.422570 0.109502
O O7 0.859531 0.249999 0.135147
O O8 0.732043 0.171549 0.103958
O O9 0.750000 0.249999 0.885146
O O10 0.869152 0.173134 0.877105
O O11 0.077944 0.105296 0.139441
O O12 0.000001 0.070181 0.885149
O O13 0.000000 0.000000 0.115009
O O14 0.732044 0.828449 0.666334
O O15 0.630847 0.826865 0.393189
O O16 0.577941 0.105296 0.130853
O O17 0.000000 0.000000 0.655289
#
# Coordination Sequence:
#
# PCOD9367704 Si02
#       8
#     8   8   8   8   8   8   8   8
#     4  12  24  41  65  99 142 191 232 271 343 438
#     4  12  24  41  65  99 142 191 232 271 343 438
#     4   9  20  40  70  98 124 175 241 293 348 405
#     4  11  23  39  62  95 144 185 222 275 340 425
#     4  11  21  40  67  96 134 179 224 290 352 403
#     4   9  20  40  70  98 124 175 241 293 348 405
#     4  11  21  40  67  96 134 179 224 290 352 403
#     4  11  23  39  62  95 144 185 222 275 340 425
#
# _framework density 23.28753
#
# number of rings (size 3 to 8) (size 9 to 14) (size 15 to 20)
#    0.000    1.250    2.500    4.500    0.000    0.500 
#    0.000    0.000    0.000   57.000    0.000    0.000 
#    0.000    0.000    0.000    0.000    0.000    0.000 
#
# Total GULP energy -178727.785698 kJ/mol
# GULP energy per Si atom -5585.243303 kJ/mol
# Density = 2.323453 g / cm^3
# Si number density = 23.287530 Si / 1000 Ang^3
#
#
#
# Elastic Constant Matrix: (Units=GPa)
#
#
# Indices 1 2 3 4 5 6 
#
# 1 112.2260 38.8066 27.1901 0.0000 0.0000 0.0000
# 2 38.8066 118.3010 39.1227 0.0000 0.0000 0.0000
# 3 27.1901 39.1227 90.5058 0.0000 0.0000 0.0000
# 4 0.0000 0.0000 0.0000 52.2739 0.0000 0.0000
# 5 0.0000 0.0000 0.0000 0.0000 25.3649 0.0000
# 6 0.0000 0.0000 0.0000 0.0000 0.0000 26.9102
#
#
#
# Elastic Compliance Matrix: (Units=1/GPa)
#
#
# Indices 1 2 3 4 5 6 
#
# 1 0.010326 -0.002755 -0.001911 0.000000 0.000000 0.000000
# 2 -0.002755 0.010598 -0.003753 0.000000 0.000000 0.000000
# 3 -0.001911 -0.003753 0.013246 0.000000 0.000000 0.000000
# 4 0.000000 0.000000 0.000000 0.019130 0.000000 0.000000
# 5 0.000000 0.000000 0.000000 0.000000 0.039425 0.000000
# 6 0.000000 0.000000 0.000000 0.000000 0.000000 0.037161
#
#
# Mechanical properties :
#
#
# Convention : Reuss Voigt Hill
#
# Bulk Modulus (GPa) = 57.70295 59.03020 58.36657
# Shear Modulus (GPa) = 32.78640 35.30403 34.04522
#
# Velocity S-wave (km/s) = 3.75626 3.89782 3.82769
# Velocity P-wave (km/s) = 6.60643 6.75727 6.68228
#
# Compressibility (1/GPa) = 0.01733014
#
# Stress axis : x y z
#
# Youngs Moduli (GPa) = 96.83899 94.35612 75.49620
#
# Poissons Ratio (x) = 0.25998 0.14429
# Poissons Ratio (y) = 0.26682 0.28337
# Poissons Ratio (z) = 0.18508 0.35416
#
# Static dielectric constant tensor:
#      x y z
#    x 1.977740 0.000000 0.000000 
#    y 0.000000 1.914580 0.000000 
#    z 0.000000 0.000000 1.944420 
# 
# From -- ./inp_files/2782.got.cif
#   From: 2010.05.17/outbox.cif.g08.bks.cpg/sg41_2_cif.got.tgz:2782.got - 2010.06.03 18:54:24.
