data_PCOD9367235
_publ_section_title
;
Structure prediction by ZEFSAII (Michael W. Deem and Ramdas Pophale) SiO2 
 PCOD9367235
Probable space group: A B A 2
;
_chemical_formula_sum "Si O2"
_cell_formula_units_Z 48
_cell_length_a 8.880472
_cell_length_b 13.059300
_cell_length_c 16.706619
_cell_angle_alpha 90.000000
_cell_angle_beta 90.000000
_cell_angle_gamma 90.000000
_cell_volume 1937.512515
_symmetry_space_group_name_H-M "A B A 2"
_symmetry_group_IT_number 41
_symmetry_cell_setting 'orthorhombic'
loop_
_space_group_symop_operation_xyz
x,y,z
-x,-y,z
1/2-x,y,1/2+z
1/2+x,-y,1/2+z
x,1/2+y,1/2+z
-x,1/2-y,1/2+z
1/2-x,1/2+y,z
1/2+x,1/2-y,z
loop_
_atom_site_type_symbol
_atom_site_label
_atom_site_fract_x
_atom_site_fract_y
_atom_site_fract_z
Si Si1 0.881730 0.283905 0.234720
Si Si2 0.116186 0.695383 0.636437
Si Si3 0.500000 0.500000 0.916532
Si Si4 0.746352 0.977378 0.054100
Si Si5 0.287765 0.823156 0.381870
Si Si6 0.500000 0.000000 0.171236
Si Si7 0.001186 0.179172 0.486492
O O1 0.778307 0.259969 0.157797
O O2 0.796987 0.240791 0.312279
O O3 0.025148 0.214899 0.216851
O O4 0.929486 0.403022 0.219465
O O5 0.145026 0.578210 0.617646
O O6 0.051985 0.746690 0.557435
O O7 0.410051 0.413729 0.864102
O O8 0.638188 0.484758 0.979503
O O9 0.637700 0.043488 0.114308
O O10 0.614794 0.905225 0.018972
O O11 0.395296 0.745230 0.428003
O O12 0.149801 0.858208 0.440568
#
# Coordination Sequence:
#
# PCOD9367235 Si02
#       7
#     8   8   4   8   8   4   8
#     4  11  25  42  73 110 158 208 261 329 422 509
#     4  11  20  42  73 107 139 202 257 320 409 493
#     4  12  26  42  75 114 155 202 280 350 401 500
#     4  11  23  40  77 114 147 193 271 350 401 489
#     4  12  25  44  71 113 160 212 269 330 431 504
#     4  10  22  44  73 114 151 198 262 342 421 496
#     4  12  21  45  75 107 146 204 263 330 417 504
#
# _framework density 24.774035000000001
#
# number of rings (size 3 to 8) (size 9 to 14) (size 15 to 20)
#    0.000    0.667    6.667    2.000    0.000    0.000 
#    0.000    7.500    3.667    8.000    0.000    0.000 
#    0.000    0.000    0.000    0.000    0.000    0.000 
#
# Total GULP energy -133650.214337 kJ/mol
# GULP energy per Si atom -5568.758931 kJ/mol
# Density = 2.471765 g / cm^3
# Si number density = 24.774035 Si / 1000 Ang^3
#
#
#
# Elastic Constant Matrix: (Units=GPa)
#
#
# Indices 1 2 3 4 5 6 
#
# 1 184.4885 71.9074 80.4524 0.0000 0.0000 0.0000
# 2 71.9074 95.4792 44.8815 0.0000 0.0000 0.0000
# 3 80.4524 44.8815 122.8716 0.0000 0.0000 0.0000
# 4 0.0000 0.0000 0.0000 12.7846 0.0000 0.0000
# 5 0.0000 0.0000 0.0000 0.0000 47.9353 0.0000
# 6 0.0000 0.0000 0.0000 0.0000 0.0000 56.3766
#
#
#
# Elastic Compliance Matrix: (Units=1/GPa)
#
#
# Indices 1 2 3 4 5 6 
#
# 1 0.009179 -0.004935 -0.004207 0.000000 0.000000 0.000000
# 2 -0.004935 0.015298 -0.002357 0.000000 0.000000 0.000000
# 3 -0.004207 -0.002357 0.011754 0.000000 0.000000 0.000000
# 4 0.000000 0.000000 0.000000 0.078219 0.000000 0.000000
# 5 0.000000 0.000000 0.000000 0.000000 0.020861 0.000000
# 6 0.000000 0.000000 0.000000 0.000000 0.000000 0.017738
#
#
# Mechanical properties :
#
#
# Convention : Reuss Voigt Hill
#
# Bulk Modulus (GPa) = 75.56879 88.59131 82.08005
# Shear Modulus (GPa) = 27.70735 37.12584 32.41659
#
# Velocity S-wave (km/s) = 3.34788 3.87535 3.62123
# Velocity P-wave (km/s) = 6.74640 7.47407 7.11954
#
# Compressibility (1/GPa) = 0.01323298
#
# Stress axis : x y z
#
# Youngs Moduli (GPa) = 108.94960 65.36876 85.07610
#
# Poissons Ratio (x) = 0.32259 0.35794
# Poissons Ratio (y) = 0.53765 0.20050
# Poissons Ratio (z) = 0.45838 0.15405
#
# Static dielectric constant tensor:
#      x y z
#    x 2.318140 0.000000 0.000000 
#    y 0.000000 2.094050 0.000000 
#    z 0.000000 0.000000 2.072800 
# 
# From -- ./inp_files/9686.got.cif
#   From: 2010.05.17/outbox.cif.g08.bks.cpg/sg41_5_cif.got.tgz:9686.got - 2010.06.03 18:54:24.
