data_PCOD9367545
_publ_section_title
;
Structure prediction by ZEFSAII (Michael W. Deem and Ramdas Pophale) SiO2 
 PCOD9367545
Probable space group: A B A 2
;
_chemical_formula_sum "Si O2"
_cell_formula_units_Z 40
_cell_length_a 8.278474
_cell_length_b 21.582134
_cell_length_c 8.716012
_cell_angle_alpha 90.000000
_cell_angle_beta 90.000000
_cell_angle_gamma 90.000000
_cell_volume 1557.264894
_symmetry_space_group_name_H-M "A B A 2"
_symmetry_group_IT_number 41
_symmetry_cell_setting 'orthorhombic'
loop_
_space_group_symop_operation_xyz
x,y,z
-x,-y,z
1/2-x,y,1/2+z
1/2+x,-y,1/2+z
x,1/2+y,1/2+z
-x,1/2-y,1/2+z
1/2-x,1/2+y,z
1/2+x,1/2-y,z
loop_
_atom_site_type_symbol
_atom_site_label
_atom_site_fract_x
_atom_site_fract_y
_atom_site_fract_z
Si Si1 0.092351 0.914861 0.093230
Si Si2 0.394937 0.717665 0.362515
Si Si3 0.185645 0.798031 0.571453
Si Si4 0.776682 0.407593 0.405450
Si Si5 0.000000 0.500000 0.340638
Si Si6 0.000000 0.500000 0.864713
O O1 0.225156 0.862271 0.103933
O O2 0.089769 0.953720 0.247173
O O3 0.909421 0.894480 0.040860
O O4 0.120646 0.962809 0.954866
O O5 0.322905 0.753116 0.508064
O O6 0.392052 0.764873 0.219921
O O7 0.567519 0.695916 0.425009
O O8 0.285921 0.657102 0.341269
O O9 0.624490 0.452117 0.443768
O O10 0.886882 0.445506 0.280949
#
# Coordination Sequence:
#
# PCOD9367545 Si02
#       6
#     8   8   8   8   4   4
#     4   9  23  49  73 105 161 196 260 322 398 471
#     4  12  29  47  82 114 159 210 271 322 407 472
#     4  12  28  53  77 118 158 214 263 336 397 486
#     4  10  24  44  78 110 152 204 259 326 391 487
#     4   7  20  46  69 106 148 197 252 313 392 475
#     4  11  24  44  81 112 150 201 266 323 398 481
#
# _framework density 25.686060999999999
#
# number of rings (size 3 to 8) (size 9 to 14) (size 15 to 20)
#    1.200    0.400    0.000    2.400   11.200    0.000 
#    3.600    1.000    0.000    0.000    0.000    0.000 
#    0.000    0.000    0.000    0.000    0.000    0.000 
#
# Total GULP energy -111617.801277 kJ/mol
# GULP energy per Si atom -5580.890064 kJ/mol
# Density = 2.562760 g / cm^3
# Si number density = 25.686061 Si / 1000 Ang^3
#
#
#
# Elastic Constant Matrix: (Units=GPa)
#
#
# Indices 1 2 3 4 5 6 
#
# 1 84.3059 50.0274 50.9455 0.0000 0.0000 0.0000
# 2 50.0274 164.3064 49.0885 0.0000 0.0000 0.0000
# 3 50.9455 49.0885 138.9199 0.0000 0.0000 0.0000
# 4 0.0000 0.0000 0.0000 7.2812 0.0000 0.0000
# 5 0.0000 0.0000 0.0000 0.0000 16.6351 0.0000
# 6 0.0000 0.0000 0.0000 0.0000 0.0000 60.1261
#
#
#
# Elastic Compliance Matrix: (Units=1/GPa)
#
#
# Indices 1 2 3 4 5 6 
#
# 1 0.017052 -0.003716 -0.004940 0.000000 0.000000 0.000000
# 2 -0.003716 0.007614 -0.001328 0.000000 0.000000 0.000000
# 3 -0.004940 -0.001328 0.009479 0.000000 0.000000 0.000000
# 4 0.000000 0.000000 0.000000 0.137341 0.000000 0.000000
# 5 0.000000 0.000000 0.000000 0.000000 0.060114 0.000000
# 6 0.000000 0.000000 0.000000 0.000000 0.000000 0.016632
#
#
# Mechanical properties :
#
#
# Convention : Reuss Voigt Hill
#
# Bulk Modulus (GPa) = 70.53478 76.40611 73.47044
# Shear Modulus (GPa) = 18.31996 32.63987 25.47991
#
# Velocity S-wave (km/s) = 2.67353 3.56859 3.15298
# Velocity P-wave (km/s) = 6.08689 6.84036 6.47459
#
# Compressibility (1/GPa) = 0.01417740
#
# Stress axis : x y z
#
# Youngs Moduli (GPa) = 58.64391 131.33153 105.49232
#
# Poissons Ratio (x) = 0.48802 0.52117
# Poissons Ratio (y) = 0.21792 0.14008
# Poissons Ratio (z) = 0.28972 0.17439
#
# Static dielectric constant tensor:
#      x y z
#    x 2.134280 0.000000 0.000000 
#    y 0.000000 2.089070 0.000000 
#    z 0.000000 0.000000 2.027890 
# 
# From -- ./inp_files/1727.got.cif
#   From: 2010.05.17/outbox.cif.g08.bks.cpg/sg41_1_cif.got.tgz:1727.got - 2010.06.03 18:54:24.
