data_PCOD9367660
_publ_section_title
;
Structure prediction by ZEFSAII (Michael W. Deem and Ramdas Pophale) SiO2 
 PCOD9367660
Probable space group: A B A 2
;
_chemical_formula_sum "Si O2"
_cell_formula_units_Z 52
_cell_length_a 13.115011
_cell_length_b 22.566957
_cell_length_c 7.934115
_cell_angle_alpha 90.000000
_cell_angle_beta 90.000000
_cell_angle_gamma 90.000000
_cell_volume 2348.227402
_symmetry_space_group_name_H-M "A B A 2"
_symmetry_group_IT_number 41
_symmetry_cell_setting 'orthorhombic'
loop_
_space_group_symop_operation_xyz
x,y,z
-x,-y,z
1/2-x,y,1/2+z
1/2+x,-y,1/2+z
x,1/2+y,1/2+z
-x,1/2-y,1/2+z
1/2-x,1/2+y,z
1/2+x,1/2-y,z
loop_
_atom_site_type_symbol
_atom_site_label
_atom_site_fract_x
_atom_site_fract_y
_atom_site_fract_z
Si Si1 0.560772 0.842376 0.012940
Si Si2 0.303129 0.366466 0.970554
Si Si3 0.891350 0.092935 0.311148
Si Si4 0.219303 0.733958 0.836969
Si Si5 0.012890 0.606909 0.369500
Si Si6 0.000000 0.500000 0.600720
Si Si7 0.415062 0.228078 0.502841
O O1 0.559531 0.878886 0.187376
O O2 0.492239 0.782289 0.022703
O O3 0.497531 0.881545 0.879315
O O4 0.669101 0.819430 0.944968
O O5 0.195202 0.399576 0.952399
O O6 0.300280 0.298504 0.914775
O O7 0.390126 0.397928 0.858449
O O8 0.340963 0.369186 0.161447
O O9 0.917105 0.030914 0.221871
O O10 0.161174 0.730987 0.660407
O O11 0.341540 0.731249 0.839368
O O12 0.031377 0.665350 0.482601
O O13 0.046263 0.550161 0.477004
#
# Coordination Sequence:
#
# PCOD9367660 Si02
#       7
#     8   8   8   8   8   4   8
#     4  12  23  39  69 101 139 177 223 289 355 414
#     4  11  20  37  65  99 134 172 231 277 336 422
#     4  11  24  42  68 101 135 181 232 285 342 404
#     4  12  23  36  63 104 141 178 214 275 361 421
#     4  11  24  44  66  97 138 184 235 284 343 412
#     4  10  26  48  66  88 138 184 240 292 334 404
#     4  12  23  39  62 102 142 172 219 285 348 422
#
# _framework density 22.144363999999999
#
# number of rings (size 3 to 8) (size 9 to 14) (size 15 to 20)
#    0.000    0.615    4.615    4.615    2.154    0.615 
#    0.000    9.231    0.000    0.000    0.000    0.000 
#    0.000    0.000    0.000    0.000    0.000    0.000 
#
# Total GULP energy -145320.257558 kJ/mol
# GULP energy per Si atom -5589.240675 kJ/mol
# Density = 2.209396 g / cm^3
# Si number density = 22.144364 Si / 1000 Ang^3
#
#
#
# Elastic Constant Matrix: (Units=GPa)
#
#
# Indices 1 2 3 4 5 6 
#
# 1 64.5972 26.1714 7.8626 0.0000 0.0000 0.0000
# 2 26.1714 119.1477 35.8410 0.0000 0.0000 0.0000
# 3 7.8626 35.8410 90.1737 0.0000 0.0000 0.0000
# 4 0.0000 0.0000 0.0000 32.0563 0.0000 0.0000
# 5 0.0000 0.0000 0.0000 0.0000 38.9997 0.0000
# 6 0.0000 0.0000 0.0000 0.0000 0.0000 22.5104
#
#
#
# Elastic Compliance Matrix: (Units=1/GPa)
#
#
# Indices 1 2 3 4 5 6 
#
# 1 0.016993 -0.003733 0.000002 0.000000 0.000000 0.000000
# 2 -0.003733 0.010353 -0.003789 0.000000 0.000000 0.000000
# 3 0.000002 -0.003789 0.012596 0.000000 0.000000 0.000000
# 4 0.000000 0.000000 0.000000 0.031195 0.000000 0.000000
# 5 0.000000 0.000000 0.000000 0.000000 0.025641 0.000000
# 6 0.000000 0.000000 0.000000 0.000000 0.000000 0.044424
#
#
# Mechanical properties :
#
#
# Convention : Reuss Voigt Hill
#
# Bulk Modulus (GPa) = 40.15996 45.96318 43.06157
# Shear Modulus (GPa) = 30.38726 32.31617 31.35172
#
# Velocity S-wave (km/s) = 3.70839 3.82428 3.76678
# Velocity P-wave (km/s) = 6.04244 6.34833 6.19727
#
# Compressibility (1/GPa) = 0.02490042
#
# Stress axis : x y z
#
# Youngs Moduli (GPa) = 58.84848 96.59169 79.39234
#
# Poissons Ratio (x) = 0.36060 -0.00017
# Poissons Ratio (y) = 0.21969 0.30085
# Poissons Ratio (z) = -0.00013 0.36602
#
# Static dielectric constant tensor:
#      x y z
#    x 1.881860 0.000000 0.000000 
#    y 0.000000 1.789860 0.000000 
#    z 0.000000 0.000000 1.927030 
# 
# From -- ./inp_files/2639.got.cif
#   From: 2010.05.17/outbox.cif.g08.bks.cpg/sg41_2_cif.got.tgz:2639.got - 2010.06.03 18:54:24.
