data_PCOD9367035
_publ_section_title
;
Structure prediction by ZEFSAII (Michael W. Deem and Ramdas Pophale) SiO2 
 PCOD9367035
Probable space group: A B A 2
;
_chemical_formula_sum "Si O2"
_cell_formula_units_Z 44
_cell_length_a 26.585417
_cell_length_b 14.690907
_cell_length_c 5.057471
_cell_angle_alpha 90.000000
_cell_angle_beta 90.000000
_cell_angle_gamma 90.000000
_cell_volume 1975.265541
_symmetry_space_group_name_H-M "A B A 2"
_symmetry_group_IT_number 41
_symmetry_cell_setting 'orthorhombic'
loop_
_space_group_symop_operation_xyz
x,y,z
-x,-y,z
1/2-x,y,1/2+z
1/2+x,-y,1/2+z
x,1/2+y,1/2+z
-x,1/2-y,1/2+z
1/2-x,1/2+y,z
1/2+x,1/2-y,z
loop_
_atom_site_type_symbol
_atom_site_label
_atom_site_fract_x
_atom_site_fract_y
_atom_site_fract_z
Si Si1 0.781964 0.941587 0.346190
Si Si2 0.380072 0.862138 0.495004
Si Si3 0.389420 0.976508 0.990318
Si Si4 0.000000 0.500000 0.112382
Si Si5 0.480838 0.299111 0.800510
Si Si6 0.222601 0.777175 0.816094
O O1 0.743243 0.973519 0.573490
O O2 0.781190 0.831913 0.333898
O O3 0.839443 0.969041 0.405696
O O4 0.387282 0.889567 0.797382
O O5 0.424133 0.795187 0.405284
O O6 0.326952 0.819413 0.434675
O O7 0.384505 0.949159 0.298114
O O8 0.446833 0.012313 0.957167
O O9 0.005818 0.406078 0.274388
O O10 0.486165 0.252662 0.516668
O O11 0.232568 0.804262 0.514951
#
# Coordination Sequence:
#
# PCOD9367035 Si02
#       6
#     8   8   8   4   8   8
#     4  10  22  41  61  94 125 169 220 258 332 403
#     4  11  24  42  62  99 125 163 227 260 331 398
#     4  11  24  42  67  92 135 171 213 282 325 397
#     4  10  26  48  66 106 140 176 234 284 338 402
#     4  11  25  45  69  99 133 181 225 276 337 405
#     4  10  22  40  62  91 130 166 210 270 324 392
#
# _framework density 22.275485
#
# number of rings (size 3 to 8) (size 9 to 14) (size 15 to 20)
#    0.000    1.455    0.000    4.364    2.545   10.909 
#    6.545    0.000    0.000    0.000    0.000    0.000 
#    0.000    0.000    0.000    0.000    0.000    0.000 
#
# Total GULP energy -122949.203618 kJ/mol
# GULP energy per Si atom -5588.600164 kJ/mol
# Density = 2.222479 g / cm^3
# Si number density = 22.275485 Si / 1000 Ang^3
#
#
#
# Elastic Constant Matrix: (Units=GPa)
#
#
# Indices 1 2 3 4 5 6 
#
# 1 136.7939 17.9635 5.6991 0.0000 0.0000 0.0000
# 2 17.9635 66.5979 17.6116 0.0000 0.0000 0.0000
# 3 5.6991 17.6116 70.7419 0.0000 0.0000 0.0000
# 4 0.0000 0.0000 0.0000 2.5440 0.0000 0.0000
# 5 0.0000 0.0000 0.0000 0.0000 39.9242 0.0000
# 6 0.0000 0.0000 0.0000 0.0000 0.0000 40.3501
#
#
#
# Elastic Compliance Matrix: (Units=1/GPa)
#
#
# Indices 1 2 3 4 5 6 
#
# 1 0.007579 -0.002016 -0.000109 0.000000 0.000000 0.000000
# 2 -0.002016 0.016610 -0.003973 0.000000 0.000000 0.000000
# 3 -0.000109 -0.003973 0.015134 0.000000 0.000000 0.000000
# 4 0.000000 0.000000 0.000000 0.393088 0.000000 0.000000
# 5 0.000000 0.000000 0.000000 0.000000 0.025047 0.000000
# 6 0.000000 0.000000 0.000000 0.000000 0.000000 0.024783
#
#
# Mechanical properties :
#
#
# Convention : Reuss Voigt Hill
#
# Bulk Modulus (GPa) = 36.86148 39.63134 38.24641
# Shear Modulus (GPa) = 9.93090 32.08762 21.00926
#
# Velocity S-wave (km/s) = 2.11374 3.79950 3.07442
# Velocity P-wave (km/s) = 4.74775 6.08920 5.45983
#
# Compressibility (1/GPa) = 0.02712859
#
# Stress axis : x y z
#
# Youngs Moduli (GPa) = 131.93497 60.20569 66.07778
#
# Poissons Ratio (x) = 0.12135 0.00719
# Poissons Ratio (y) = 0.26593 0.26251
# Poissons Ratio (z) = 0.01436 0.23918
#
# Static dielectric constant tensor:
#      x y z
#    x 1.808050 0.000000 0.000000 
#    y 0.000000 1.833340 0.000000 
#    z 0.000000 0.000000 1.785490 
# 
# From -- ./inp_files/936.got.cif
#   From: 2010.05.17/outbox.cif.g08.bks.cpg/sg41_1_cif.got.tgz:936.got - 2010.06.03 18:54:24.
