data_PCOD9367150
_publ_section_title
;
Structure prediction by ZEFSAII (Michael W. Deem and Ramdas Pophale) SiO2 
 PCOD9367150
Probable space group: A B A 2
;
_chemical_formula_sum "Si O2"
_cell_formula_units_Z 64
_cell_length_a 13.205307
_cell_length_b 17.727420
_cell_length_c 13.838590
_cell_angle_alpha 90.000000
_cell_angle_beta 90.000000
_cell_angle_gamma 90.000000
_cell_volume 3239.558889
_symmetry_space_group_name_H-M "A B A 2"
_symmetry_group_IT_number 41
_symmetry_cell_setting 'orthorhombic'
loop_
_space_group_symop_operation_xyz
x,y,z
-x,-y,z
1/2-x,y,1/2+z
1/2+x,-y,1/2+z
x,1/2+y,1/2+z
-x,1/2-y,1/2+z
1/2-x,1/2+y,z
1/2+x,1/2-y,z
loop_
_atom_site_type_symbol
_atom_site_label
_atom_site_fract_x
_atom_site_fract_y
_atom_site_fract_z
Si Si1 0.227599 0.521984 0.459710
Si Si2 0.550602 0.423952 0.463296
Si Si3 0.032668 0.859854 0.644707
Si Si4 0.262147 0.858730 0.032820
Si Si5 0.922504 0.705178 0.654142
Si Si6 0.083874 0.936893 0.839413
Si Si7 0.949224 0.858102 0.991348
Si Si8 0.099993 0.299264 0.882587
O O1 0.330409 0.568361 0.447520
O O2 0.247733 0.449584 0.529041
O O3 0.186771 0.480931 0.362620
O O4 0.138818 0.579028 0.491431
O O5 0.500000 0.500000 0.423131
O O6 0.524613 0.420040 0.577402
O O7 0.493194 0.352029 0.419003
O O8 0.134428 0.839523 0.588119
O O9 0.073226 0.883791 0.748450
O O10 0.954439 0.791916 0.649627
O O11 0.173164 0.816507 0.088221
O O12 0.293303 0.829834 0.925905
O O13 0.901711 0.692264 0.767045
O O14 0.015212 0.662896 0.599268
O O15 0.045898 0.893674 0.935323
O O16 0.000000 0.000000 0.821337
O O17 0.917184 0.784484 0.927964
#
# Coordination Sequence:
#
# PCOD9367150 Si02
#       8
#     8   8   8   8   8   8   8   8
#     4  11  24  44  70  99 135 186 234 292 346 411
#     4  11  22  44  68  96 143 184 228 293 348 411
#     4  11  23  42  69 102 138 186 232 276 358 421
#     4  11  25  43  67  99 140 181 227 295 342 410
#     4  12  25  45  72 100 138 191 227 282 356 423
#     4  10  22  42  68  97 135 183 230 280 342 413
#     4  11  23  46  68  97 138 177 234 288 342 412
#     4  11  25  47  68 102 141 184 233 287 356 415
#
# _framework density 19.755776000000001
#
# number of rings (size 3 to 8) (size 9 to 14) (size 15 to 20)
#    0.000    1.000    7.500    0.375    3.500    0.000 
#    6.750    0.000    0.000    0.000    0.000    0.000 
#    0.000    0.000    0.000    0.000    0.000    0.000 
#
# Total GULP energy -178412.496067 kJ/mol
# GULP energy per Si atom -5575.390502 kJ/mol
# Density = 1.971081 g / cm^3
# Si number density = 19.755776 Si / 1000 Ang^3
#
#
#
# Elastic Constant Matrix: (Units=GPa)
#
#
# Indices 1 2 3 4 5 6 
#
# 1 124.0314 46.2377 53.8418 0.0000 0.0000 0.0000
# 2 46.2377 98.8629 45.5178 0.0000 0.0000 0.0000
# 3 53.8418 45.5178 128.7574 0.0000 0.0000 0.0000
# 4 0.0000 0.0000 0.0000 27.3187 0.0000 0.0000
# 5 0.0000 0.0000 0.0000 0.0000 23.3959 0.0000
# 6 0.0000 0.0000 0.0000 0.0000 0.0000 34.9175
#
#
#
# Elastic Compliance Matrix: (Units=1/GPa)
#
#
# Indices 1 2 3 4 5 6 
#
# 1 0.010802 -0.003550 -0.003262 0.000000 0.000000 0.000000
# 2 -0.003550 0.013248 -0.003199 0.000000 0.000000 0.000000
# 3 -0.003262 -0.003199 0.010261 0.000000 0.000000 0.000000
# 4 0.000000 0.000000 0.000000 0.036605 0.000000 0.000000
# 5 0.000000 0.000000 0.000000 0.000000 0.042743 0.000000
# 6 0.000000 0.000000 0.000000 0.000000 0.000000 0.028639
#
#
# Mechanical properties :
#
#
# Convention : Reuss Voigt Hill
#
# Bulk Modulus (GPa) = 69.98114 71.42738 70.70426
# Shear Modulus (GPa) = 29.92519 30.86337 30.39428
#
# Velocity S-wave (km/s) = 3.89621 3.95681 3.92663
# Velocity P-wave (km/s) = 7.46596 7.55704 7.51164
#
# Compressibility (1/GPa) = 0.01428956
#
# Stress axis : x y z
#
# Youngs Moduli (GPa) = 92.57583 75.48172 97.45215
#
# Poissons Ratio (x) = 0.26797 0.31788
# Poissons Ratio (y) = 0.32866 0.31174
# Poissons Ratio (z) = 0.30198 0.24146
#
# Static dielectric constant tensor:
#      x y z
#    x 1.702380 0.000000 0.000000 
#    y 0.000000 1.727100 0.000000 
#    z 0.000000 0.000000 1.750050 
# 
# From -- ./inp_files/8103.got.cif
#   From: 2010.05.17/outbox.cif.g08.bks.cpg/sg41_5_cif.got.tgz:8103.got - 2010.06.03 18:54:24.
