data_PCOD9367011
_publ_section_title
;
Structure prediction by ZEFSAII (Michael W. Deem and Ramdas Pophale) SiO2 
 PCOD9367011
Probable space group: A B A 2
;
_chemical_formula_sum "Si O2"
_cell_formula_units_Z 36
_cell_length_a 5.085258
_cell_length_b 12.108723
_cell_length_c 27.272211
_cell_angle_alpha 90.000000
_cell_angle_beta 90.000000
_cell_angle_gamma 90.000000
_cell_volume 1679.313133
_symmetry_space_group_name_H-M "A B A 2"
_symmetry_group_IT_number 41
_symmetry_cell_setting 'orthorhombic'
loop_
_space_group_symop_operation_xyz
x,y,z
-x,-y,z
1/2-x,y,1/2+z
1/2+x,-y,1/2+z
x,1/2+y,1/2+z
-x,1/2-y,1/2+z
1/2-x,1/2+y,z
1/2+x,1/2-y,z
loop_
_atom_site_type_symbol
_atom_site_label
_atom_site_fract_x
_atom_site_fract_y
_atom_site_fract_z
Si Si1 0.966456 0.676906 0.761840
Si Si2 0.917848 0.827007 0.002930
Si Si3 0.500000 0.000000 0.846242
Si Si4 0.000000 0.500000 0.583072
Si Si5 0.294428 0.829086 0.657619
Si Si6 0.500000 0.500000 0.916900
O O1 0.766027 0.780571 0.761977
O O2 0.950320 0.601679 0.809339
O O3 0.865494 0.621453 0.711335
O O4 0.693721 0.735683 0.006495
O O5 0.943300 0.896766 0.952919
O O6 0.863827 0.913642 0.046460
O O7 0.749597 0.001948 0.881695
O O8 0.821014 0.575444 0.617793
O O9 0.518002 0.733731 0.652786
#
# Coordination Sequence:
#
# PCOD9367011 Si02
#       6
#     8   8   4   4   8   4
#     4  10  22  39  60  89 125 160 196 241 293 349
#     4  11  25  44  63  88 121 155 197 250 303 357
#     4  12  23  40  63  92 117 156 205 246 292 354
#     4  11  23  40  66  92 118 158 201 245 294 354
#     4  10  22  39  60  90 125 160 196 239 293 351
#     4  11  26  40  63  90 117 156 202 247 304 352
#
# _framework density 21.437338
#
# number of rings (size 3 to 8) (size 9 to 14) (size 15 to 20)
#    0.000    1.333    0.000    4.667    0.000   10.667 
#    0.000    6.667    0.000    0.000    0.000    0.000 
#    0.000    0.000    0.000    0.000    0.000    0.000 
#
# Total GULP energy -100550.119828 kJ/mol
# GULP energy per Si atom -5586.117768 kJ/mol
# Density = 2.138855 g / cm^3
# Si number density = 21.437338 Si / 1000 Ang^3
#
#
#
# Elastic Constant Matrix: (Units=GPa)
#
#
# Indices 1 2 3 4 5 6 
#
# 1 213.9944 118.1303 60.7712 0.0000 0.0000 0.0000
# 2 118.1303 179.5149 88.3106 0.0000 0.0000 0.0000
# 3 60.7712 88.3106 181.7105 0.0000 0.0000 0.0000
# 4 0.0000 0.0000 0.0000 167.7129 0.0000 0.0000
# 5 0.0000 0.0000 0.0000 0.0000 28.8514 0.0000
# 6 0.0000 0.0000 0.0000 0.0000 0.0000 16.2305
#
#
#
# Elastic Compliance Matrix: (Units=1/GPa)
#
#
# Indices 1 2 3 4 5 6 
#
# 1 0.007342 -0.004762 -0.000141 0.000000 0.000000 0.000000
# 2 -0.004762 0.010409 -0.003466 0.000000 0.000000 0.000000
# 3 -0.000141 -0.003466 0.007235 0.000000 0.000000 0.000000
# 4 0.000000 0.000000 0.000000 0.005963 0.000000 0.000000
# 5 0.000000 0.000000 0.000000 0.000000 0.034660 0.000000
# 6 0.000000 0.000000 0.000000 0.000000 0.000000 0.061612
#
#
# Mechanical properties :
#
#
# Convention : Reuss Voigt Hill
#
# Bulk Modulus (GPa) = 121.24827 123.29377 122.27102
# Shear Modulus (GPa) = 34.08098 63.09280 48.58689
#
# Velocity S-wave (km/s) = 3.99155 5.43094 4.76590
# Velocity P-wave (km/s) = 8.82754 9.84710 9.35122
#
# Compressibility (1/GPa) = 0.00824754
#
# Stress axis : x y z
#
# Youngs Moduli (GPa) = 136.20726 96.06756 138.21512
#
# Poissons Ratio (x) = 0.45746 0.01951
# Poissons Ratio (y) = 0.64860 0.47910
# Poissons Ratio (z) = 0.01922 0.33300
#
# Static dielectric constant tensor:
#      x y z
#    x 1.727620 0.000000 0.000000 
#    y 0.000000 1.772240 0.000000 
#    z 0.000000 0.000000 1.794080 
# 
# From -- ./inp_files/11805.got.cif
#   From: 2010.05.17/outbox.cif.g08.bks.cpg/sg41_6_cif.got.tgz:11805.got - 2010.06.03 18:54:24.
