data_PCOD9367806
_publ_section_title
;
Structure prediction by ZEFSAII (Michael W. Deem and Ramdas Pophale) SiO2 
 PCOD9367806
Probable space group: A B A 2
;
_chemical_formula_sum "Si O2"
_cell_formula_units_Z 32
_cell_length_a 14.612950
_cell_length_b 10.001724
_cell_length_c 8.602440
_cell_angle_alpha 90.000000
_cell_angle_beta 90.000000
_cell_angle_gamma 90.000000
_cell_volume 1257.286975
_symmetry_space_group_name_H-M "A B A 2"
_symmetry_group_IT_number 41
_symmetry_cell_setting 'orthorhombic'
loop_
_space_group_symop_operation_xyz
x,y,z
-x,-y,z
1/2-x,y,1/2+z
1/2+x,-y,1/2+z
x,1/2+y,1/2+z
-x,1/2-y,1/2+z
1/2-x,1/2+y,z
1/2+x,1/2-y,z
loop_
_atom_site_type_symbol
_atom_site_label
_atom_site_fract_x
_atom_site_fract_y
_atom_site_fract_z
Si Si1 0.119350 0.668231 0.095230
Si Si2 0.190637 0.495452 0.336998
Si Si3 0.559495 0.221866 0.287550
Si Si4 0.702185 0.218675 0.004652
O O1 0.170131 0.534961 0.157195
O O2 0.040788 0.705274 0.218457
O O3 0.075003 0.667446 0.921983
O O4 0.200582 0.773944 0.091509
O O5 0.098054 0.411863 0.371336
O O6 0.198839 0.639712 0.414384
O O7 0.276362 0.402562 0.384671
O O8 0.624205 0.233604 0.135584
#
# Coordination Sequence:
#
# PCOD9367806 Si02
#       4
#     8   8   8   8
#     4  11  23  44  73 109 153 200 254 320 396 477
#     4  11  24  45  71 106 151 201 256 315 387 468
#     4  11  25  45  74 112 156 201 255 326 404 480
#     4  11  25  46  75 109 154 206 258 325 398 477
#
# _framework density 25.451627999999999
#
# number of rings (size 3 to 8) (size 9 to 14) (size 15 to 20)
#    0.000    1.000    0.000    6.750    0.000    4.000 
#    0.000   10.000    0.000    3.000    0.000    0.000 
#    0.000    0.000    0.000    0.000    0.000    0.000 
#
# Total GULP energy -89202.454194 kJ/mol
# GULP energy per Si atom -5575.153387 kJ/mol
# Density = 2.539370 g / cm^3
# Si number density = 25.451628 Si / 1000 Ang^3
#
#
#
# Elastic Constant Matrix: (Units=GPa)
#
#
# Indices 1 2 3 4 5 6 
#
# 1 136.3056 25.5816 53.8898 0.0000 0.0000 0.0000
# 2 25.5816 126.3375 81.7777 0.0000 0.0000 0.0000
# 3 53.8898 81.7777 150.8600 0.0000 0.0000 0.0000
# 4 0.0000 0.0000 0.0000 51.9217 0.0000 0.0000
# 5 0.0000 0.0000 0.0000 0.0000 69.6874 0.0000
# 6 0.0000 0.0000 0.0000 0.0000 0.0000 20.8093
#
#
#
# Elastic Compliance Matrix: (Units=1/GPa)
#
#
# Indices 1 2 3 4 5 6 
#
# 1 0.008555 0.000379 -0.003261 0.000000 0.000000 0.000000
# 2 0.000379 0.012211 -0.006754 0.000000 0.000000 0.000000
# 3 -0.003261 -0.006754 0.011455 0.000000 0.000000 0.000000
# 4 0.000000 0.000000 0.000000 0.019260 0.000000 0.000000
# 5 0.000000 0.000000 0.000000 0.000000 0.014350 0.000000
# 6 0.000000 0.000000 0.000000 0.000000 0.000000 0.048055
#
#
# Mechanical properties :
#
#
# Convention : Reuss Voigt Hill
#
# Bulk Modulus (GPa) = 77.23976 81.77792 79.50884
# Shear Modulus (GPa) = 36.37028 45.30060 40.83544
#
# Velocity S-wave (km/s) = 3.78431 4.22343 4.00988
# Velocity P-wave (km/s) = 7.03621 7.48222 7.26264
#
# Compressibility (1/GPa) = 0.01294670
#
# Stress axis : x y z
#
# Youngs Moduli (GPa) = 116.89443 81.89511 87.29768
#
# Poissons Ratio (x) = -0.03102 0.28470
# Poissons Ratio (y) = -0.04427 0.58965
# Poissons Ratio (z) = 0.38122 0.55316
#
# Static dielectric constant tensor:
#      x y z
#    x 1.996330 0.000000 0.000000 
#    y 0.000000 2.151260 0.000000 
#    z 0.000000 0.000000 2.218000 
# 
# From -- ./inp_files/2886.got.cif
#   From: 2010.05.17/outbox.cif.g08.bks.cpg/sg41_2_cif.got.tgz:2886.got - 2010.06.03 18:54:24.
