data_PCOD9367768
_publ_section_title
;
Structure prediction by ZEFSAII (Michael W. Deem and Ramdas Pophale) SiO2 
 PCOD9367768
Probable space group: A B A 2
;
_chemical_formula_sum "Si O2"
_cell_formula_units_Z 48
_cell_length_a 15.838761
_cell_length_b 8.942711
_cell_length_c 13.908724
_cell_angle_alpha 90.000000
_cell_angle_beta 90.000000
_cell_angle_gamma 90.000000
_cell_volume 1970.052005
_symmetry_space_group_name_H-M "A B A 2"
_symmetry_group_IT_number 41
_symmetry_cell_setting 'orthorhombic'
loop_
_space_group_symop_operation_xyz
x,y,z
-x,-y,z
1/2-x,y,1/2+z
1/2+x,-y,1/2+z
x,1/2+y,1/2+z
-x,1/2-y,1/2+z
1/2-x,1/2+y,z
1/2+x,1/2-y,z
loop_
_atom_site_type_symbol
_atom_site_label
_atom_site_fract_x
_atom_site_fract_y
_atom_site_fract_z
Si Si1 0.500000 0.000000 0.875000
Si Si2 0.259552 0.372897 0.920479
Si Si3 0.423499 0.311603 0.518640
Si Si4 0.728029 0.862674 0.778745
Si Si5 0.500000 0.500000 0.681190
Si Si6 0.132865 0.511907 0.590455
Si Si7 0.405937 0.286502 0.235610
O O1 0.433216 0.924818 0.803260
O O2 0.501097 0.863316 0.950961
O O3 0.308375 0.235479 0.868206
O O4 0.254564 0.489108 0.833585
O O5 0.166400 0.331497 0.962748
O O6 0.304705 0.453041 0.008911
O O7 0.430436 0.421391 0.611151
O O8 0.424712 0.139703 0.546107
O O9 0.678823 0.904167 0.681288
O O10 0.812027 0.772643 0.750447
O O11 0.463762 0.639480 0.740867
O O12 0.090430 0.363932 0.632509
#
# Coordination Sequence:
#
# PCOD9367768 Si02
#       7
#     4   8   8   8   4   8   8
#     4  11  22  48  70  97 150 192 253 288 358 457
#     4  12  24  44  73 110 143 185 243 316 386 444
#     4  11  24  46  66 101 144 189 241 304 360 449
#     4  12  25  44  75 112 144 188 244 316 385 447
#     4  11  28  42  72  95 140 204 243 288 370 447
#     4  12  25  46  75 108 151 185 250 322 391 437
#     4  12  25  48  70 107 144 198 249 305 368 451
#
# _framework density 24.364839
#
# number of rings (size 3 to 8) (size 9 to 14) (size 15 to 20)
#    0.000    0.333    5.000    3.000    4.667    0.000 
#    0.000    3.333    0.000    0.000    0.000    0.000 
#    0.000    0.000    0.000    0.000    0.000    0.000 
#
# Total GULP energy -133927.839459 kJ/mol
# GULP energy per Si atom -5580.326644 kJ/mol
# Density = 2.430938 g / cm^3
# Si number density = 24.364839 Si / 1000 Ang^3
#
#
#
# Elastic Constant Matrix: (Units=GPa)
#
#
# Indices 1 2 3 4 5 6 
#
# 1 78.0619 40.0935 43.0586 0.0000 0.0000 0.0000
# 2 40.0935 132.0164 38.3271 0.0000 0.0000 0.0000
# 3 43.0586 38.3271 105.1362 0.0000 0.0000 0.0000
# 4 0.0000 0.0000 0.0000 -30.6579 0.0000 0.0000
# 5 0.0000 0.0000 0.0000 0.0000 31.8068 0.0000
# 6 0.0000 0.0000 0.0000 0.0000 0.0000 44.3261
#
#
#
# Elastic Compliance Matrix: (Units=1/GPa)
#
#
# Indices 1 2 3 4 5 6 
#
# 1 0.018055 -0.003732 -0.006034 0.000000 0.000000 0.000000
# 2 -0.003732 0.009243 -0.001841 0.000000 0.000000 0.000000
# 3 -0.006034 -0.001841 0.012654 0.000000 0.000000 0.000000
# 4 0.000000 0.000000 0.000000 -0.032618 0.000000 0.000000
# 5 0.000000 0.000000 0.000000 0.000000 0.031440 0.000000
# 6 0.000000 0.000000 0.000000 0.000000 0.000000 0.022560
#
#
# Mechanical properties :
#
#
# Convention : Reuss Voigt Hill
#
# Bulk Modulus (GPa) = 59.74390 62.01921 60.88155
# Shear Modulus (GPa) = 55.47726 22.01070 38.74398
#
# Velocity S-wave (km/s) = 4.77691 3.00889 3.99201
# Velocity P-wave (km/s) = 7.41612 6.13032 6.80367
#
# Compressibility (1/GPa) = 0.01673811
#
# Stress axis : x y z
#
# Youngs Moduli (GPa) = 55.38509 108.19458 79.02656
#
# Poissons Ratio (x) = 0.40374 0.47687
# Poissons Ratio (y) = 0.20667 0.14550
# Poissons Ratio (z) = 0.33421 0.19920
#
# Static dielectric constant tensor:
#      x y z
#    x 1.989550 0.000000 0.000000 
#    y 0.000000 1.970430 0.000000 
#    z 0.000000 0.000000 1.990230 
# 
# From -- ./inp_files/8724.got.cif
#   From: 2010.05.17/outbox.cif.g08.bks.cpg/sg41_5_cif.got.tgz:8724.got - 2010.06.03 18:54:24.
