data_PCOD9367004
_publ_section_title
;
Structure prediction by ZEFSAII (Michael W. Deem and Ramdas Pophale) SiO2 
 PCOD9367004
Probable space group: A B A 2
;
_chemical_formula_sum "Si O2"
_cell_formula_units_Z 36
_cell_length_a 18.798667
_cell_length_b 14.557643
_cell_length_c 5.721292
_cell_angle_alpha 90.000000
_cell_angle_beta 90.000000
_cell_angle_gamma 90.000000
_cell_volume 1565.713273
_symmetry_space_group_name_H-M "A B A 2"
_symmetry_group_IT_number 41
_symmetry_cell_setting 'orthorhombic'
loop_
_space_group_symop_operation_xyz
x,y,z
-x,-y,z
1/2-x,y,1/2+z
1/2+x,-y,1/2+z
x,1/2+y,1/2+z
-x,1/2-y,1/2+z
1/2-x,1/2+y,z
1/2+x,1/2-y,z
loop_
_atom_site_type_symbol
_atom_site_label
_atom_site_fract_x
_atom_site_fract_y
_atom_site_fract_z
Si Si1 0.209678 0.571863 0.439810
Si Si2 0.879487 0.241735 0.460857
Si Si3 0.500000 0.000000 0.976488
Si Si4 0.387751 0.431379 0.171943
Si Si5 0.524409 0.668030 0.815110
O O1 0.255969 0.566115 0.681021
O O2 0.170304 0.670280 0.448263
O O3 0.157724 0.484906 0.480733
O O4 0.852567 0.150621 0.324015
O O5 0.903984 0.217541 0.724363
O O6 0.955916 0.270067 0.351672
O O7 0.425295 0.004680 0.839895
O O8 0.494176 0.908719 0.126820
O O9 0.455158 0.385788 0.046339
#
# Coordination Sequence:
#
# PCOD9367004 Si02
#       5
#     8   8   4   8   8
#     4  12  32  51  72 102 151 212 259 302 362 457
#     4  11  25  43  76 109 147 185 248 315 393 448
#     4  10  22  38  72 106 140 178 228 316 380 454
#     4  11  25  44  72 105 145 191 249 311 380 460
#     4  11  22  42  73 111 142 178 237 321 397 443
#
# _framework density 22.992716000000001
#
# number of rings (size 3 to 8) (size 9 to 14) (size 15 to 20)
#    0.000    0.889    2.222    3.333   15.556    1.778 
#    0.000    0.000    0.000    0.000    0.000    0.000 
#    0.000    0.000    0.000    0.000    0.000    0.000 
#
# Total GULP energy -100560.954462 kJ/mol
# GULP energy per Si atom -5586.719692 kJ/mol
# Density = 2.294038 g / cm^3
# Si number density = 22.992716 Si / 1000 Ang^3
#
#
#
# Elastic Constant Matrix: (Units=GPa)
#
#
# Indices 1 2 3 4 5 6 
#
# 1 40.0426 34.5282 21.6161 0.0000 0.0000 0.0000
# 2 34.5282 88.2567 10.2324 0.0000 0.0000 0.0000
# 3 21.6161 10.2324 68.0178 0.0000 0.0000 0.0000
# 4 0.0000 0.0000 0.0000 25.6105 0.0000 0.0000
# 5 0.0000 0.0000 0.0000 0.0000 36.8740 0.0000
# 6 0.0000 0.0000 0.0000 0.0000 0.0000 41.5765
#
#
#
# Elastic Compliance Matrix: (Units=1/GPa)
#
#
# Indices 1 2 3 4 5 6 
#
# 1 0.045678 -0.016475 -0.012038 0.000000 0.000000 0.000000
# 2 -0.016475 0.017474 0.002607 0.000000 0.000000 0.000000
# 3 -0.012038 0.002607 0.018136 0.000000 0.000000 0.000000
# 4 0.000000 0.000000 0.000000 0.039046 0.000000 0.000000
# 5 0.000000 0.000000 0.000000 0.000000 0.027119 0.000000
# 6 0.000000 0.000000 0.000000 0.000000 0.000000 0.024052
#
#
# Mechanical properties :
#
#
# Convention : Reuss Voigt Hill
#
# Bulk Modulus (GPa) = 33.92641 36.56340 35.24491
# Shear Modulus (GPa) = 21.44624 29.47490 25.46057
#
# Velocity S-wave (km/s) = 3.05739 3.58428 3.33127
# Velocity P-wave (km/s) = 5.22024 5.75031 5.49167
#
# Compressibility (1/GPa) = 0.02947556
#
# Stress axis : x y z
#
# Youngs Moduli (GPa) = 21.89254 57.22924 55.14040
#
# Poissons Ratio (x) = 0.94283 0.66378
# Poissons Ratio (y) = 0.36067 -0.14375
# Poissons Ratio (z) = 0.26354 -0.14919
#
# Static dielectric constant tensor:
#      x y z
#    x 1.909870 0.000000 0.000000 
#    y 0.000000 1.885810 0.000000 
#    z 0.000000 0.000000 1.964830 
# 
# From -- ./inp_files/632.got.cif
#   From: 2010.05.17/outbox.cif.g08.bks.cpg/sg41_1_cif.got.tgz:632.got - 2010.06.03 18:54:24.
