data_PCOD9367345
_publ_section_title
;
Structure prediction by ZEFSAII (Michael W. Deem and Ramdas Pophale) SiO2 
 PCOD9367345
Probable space group: A B A 2
;
_chemical_formula_sum "Si O2"
_cell_formula_units_Z 44
_cell_length_a 24.912171
_cell_length_b 13.845404
_cell_length_c 5.145339
_cell_angle_alpha 90.000000
_cell_angle_beta 90.000000
_cell_angle_gamma 90.000000
_cell_volume 1774.725553
_symmetry_space_group_name_H-M "A B A 2"
_symmetry_group_IT_number 41
_symmetry_cell_setting 'orthorhombic'
loop_
_space_group_symop_operation_xyz
x,y,z
-x,-y,z
1/2-x,y,1/2+z
1/2+x,-y,1/2+z
x,1/2+y,1/2+z
-x,1/2-y,1/2+z
1/2-x,1/2+y,z
1/2+x,1/2-y,z
loop_
_atom_site_type_symbol
_atom_site_label
_atom_site_fract_x
_atom_site_fract_y
_atom_site_fract_z
Si Si1 0.773100 0.984443 0.706160
Si Si2 0.376522 0.802215 0.580357
Si Si3 0.385528 0.936221 0.087102
Si Si4 0.000000 0.500000 0.911863
Si Si5 0.478026 0.207287 0.852388
Si Si6 0.232856 0.731312 0.866618
O O1 0.733471 0.030315 0.491867
O O2 0.833151 0.993622 0.595817
O O3 0.751045 0.877250 0.784296
O O4 0.379970 0.859140 0.851384
O O5 0.423556 0.726910 0.509739
O O6 0.321828 0.745665 0.522993
O O7 0.383083 0.883149 0.360934
O O8 0.443636 0.986819 0.062233
O O9 0.009717 0.599027 0.759669
O O10 0.480711 0.268379 0.587553
O O11 0.226018 0.774363 0.578507
#
# Coordination Sequence:
#
# PCOD9367345 Si02
#       6
#     8   8   8   4   8   8
#     4  10  23  45  67 105 144 192 248 308 374 456
#     4  12  25  48  72 108 149 194 250 323 383 457
#     4  12  27  46  77 112 149 199 257 320 388 472
#     4  12  28  50  82 112 154 210 258 324 402 464
#     4  12  26  51  75 112 150 194 260 313 387 464
#     4  10  23  42  68 102 139 194 242 300 383 448
#
# _framework density 24.792566000000001
#
# number of rings (size 3 to 8) (size 9 to 14) (size 15 to 20)
#    0.000    0.727    3.636    2.182    5.091    7.273 
#    3.273    0.000    0.000    0.000    0.000    0.000 
#    0.000    0.000    0.000    0.000    0.000    0.000 
#
# Total GULP energy -122781.726844 kJ/mol
# GULP energy per Si atom -5580.987584 kJ/mol
# Density = 2.473614 g / cm^3
# Si number density = 24.792566 Si / 1000 Ang^3
#
#
#
# Elastic Constant Matrix: (Units=GPa)
#
#
# Indices 1 2 3 4 5 6 
#
# 1 178.5076 41.1688 42.7442 0.0000 0.0000 0.0000
# 2 41.1688 107.6096 18.6801 0.0000 0.0000 0.0000
# 3 42.7442 18.6801 190.5847 0.0000 0.0000 0.0000
# 4 0.0000 0.0000 0.0000 12.7661 0.0000 0.0000
# 5 0.0000 0.0000 0.0000 0.0000 29.6095 0.0000
# 6 0.0000 0.0000 0.0000 0.0000 0.0000 49.8413
#
#
#
# Elastic Compliance Matrix: (Units=1/GPa)
#
#
# Indices 1 2 3 4 5 6 
#
# 1 0.006411 -0.002241 -0.001218 0.000000 0.000000 0.000000
# 2 -0.002241 0.010237 -0.000501 0.000000 0.000000 0.000000
# 3 -0.001218 -0.000501 0.005569 0.000000 0.000000 0.000000
# 4 0.000000 0.000000 0.000000 0.078333 0.000000 0.000000
# 5 0.000000 0.000000 0.000000 0.000000 0.033773 0.000000
# 6 0.000000 0.000000 0.000000 0.000000 0.000000 0.020064
#
#
# Mechanical properties :
#
#
# Convention : Reuss Voigt Hill
#
# Bulk Modulus (GPa) = 69.94410 75.76535 72.85472
# Shear Modulus (GPa) = 29.92724 43.38395 36.65560
#
# Velocity S-wave (km/s) = 3.47811 4.18769 3.84929
# Velocity P-wave (km/s) = 6.66353 7.34904 7.01466
#
# Compressibility (1/GPa) = 0.01429713
#
# Stress axis : x y z
#
# Youngs Moduli (GPa) = 155.99336 97.68335 179.55619
#
# Poissons Ratio (x) = 0.21891 0.21872
# Poissons Ratio (y) = 0.34959 0.08992
# Poissons Ratio (z) = 0.19001 0.04892
#
# Static dielectric constant tensor:
#      x y z
#    x 2.070990 0.000000 0.000000 
#    y 0.000000 2.261410 0.000000 
#    z 0.000000 0.000000 2.119820 
# 
# From -- ./inp_files/1124.got.cif
#   From: 2010.05.17/outbox.cif.g08.bks.cpg/sg41_1_cif.got.tgz:1124.got - 2010.06.03 18:54:24.
