data_PCOD9367085
_publ_section_title
;
Structure prediction by ZEFSAII (Michael W. Deem and Ramdas Pophale) SiO2 
 PCOD9367085
Probable space group: A B A 2
;
_chemical_formula_sum "Si O2"
_cell_formula_units_Z 52
_cell_length_a 20.108187
_cell_length_b 15.818136
_cell_length_c 8.780227
_cell_angle_alpha 90.000000
_cell_angle_beta 90.000000
_cell_angle_gamma 90.000000
_cell_volume 2792.762245
_symmetry_space_group_name_H-M "A B A 2"
_symmetry_group_IT_number 41
_symmetry_cell_setting 'orthorhombic'
loop_
_space_group_symop_operation_xyz
x,y,z
-x,-y,z
1/2-x,y,1/2+z
1/2+x,-y,1/2+z
x,1/2+y,1/2+z
-x,1/2-y,1/2+z
1/2-x,1/2+y,z
1/2+x,1/2-y,z
loop_
_atom_site_type_symbol
_atom_site_label
_atom_site_fract_x
_atom_site_fract_y
_atom_site_fract_z
Si Si1 0.409405 0.567835 0.322140
Si Si2 0.000000 0.000000 0.585920
Si Si3 0.471321 0.337161 0.787936
Si Si4 0.519431 0.164324 0.636763
Si Si5 0.770877 0.679705 0.019364
Si Si6 0.336939 0.244542 0.800667
Si Si7 0.161836 0.402046 0.732867
O O1 0.439300 0.528634 0.476823
O O2 0.474023 0.596929 0.226050
O O3 0.368528 0.654449 0.339417
O O4 0.362694 0.498553 0.242601
O O5 0.981180 0.078999 0.691061
O O6 0.501964 0.257382 0.698567
O O7 0.394229 0.314794 0.811535
O O8 0.498463 0.342551 0.959237
O O9 0.596675 0.146889 0.671642
O O10 0.809962 0.743209 0.129993
O O11 0.724858 0.618574 0.124598
O O12 0.721363 0.733408 0.915351
O O13 0.818136 0.629592 0.902238
#
# Coordination Sequence:
#
# PCOD9367085 Si02
#       7
#     8   4   8   8   8   8   8
#     4  11  24  40  66  94 130 161 209 273 322 368
#     4  12  24  38  62 100 128 162 206 264 332 378
#     4  11  24  39  64  95 126 166 208 263 328 376
#     4  11  23  41  66  93 128 163 208 266 326 381
#     4  10  23  40  65  85 123 179 210 257 305 384
#     4  10  22  41  61  90 124 167 217 250 319 377
#     4  11  22  42  64  91 128 164 214 260 313 375
#
# _framework density 18.619558000000001
#
# number of rings (size 3 to 8) (size 9 to 14) (size 15 to 20)
#    0.000    1.231    3.077    2.769    6.462    1.231 
#    0.000    0.000    0.000    0.000    0.000    0.000 
#    0.000    0.000    0.000    0.000    0.000    0.000 
#
# Total GULP energy -145198.200108 kJ/mol
# GULP energy per Si atom -5584.546158 kJ/mol
# Density = 1.857718 g / cm^3
# Si number density = 18.619558 Si / 1000 Ang^3
#
#
#
# Elastic Constant Matrix: (Units=GPa)
#
#
# Indices 1 2 3 4 5 6 
#
# 1 57.9835 38.7147 27.4076 0.0000 0.0000 0.0000
# 2 38.7147 124.9937 65.4962 0.0000 0.0000 0.0000
# 3 27.4076 65.4962 136.8616 0.0000 0.0000 0.0000
# 4 0.0000 0.0000 0.0000 25.7310 0.0000 0.0000
# 5 0.0000 0.0000 0.0000 0.0000 24.1759 0.0000
# 6 0.0000 0.0000 0.0000 0.0000 0.0000 29.9166
#
#
#
# Elastic Compliance Matrix: (Units=1/GPa)
#
#
# Indices 1 2 3 4 5 6 
#
# 1 0.021979 -0.006008 -0.001526 0.000000 0.000000 0.000000
# 2 -0.006008 0.012320 -0.004693 0.000000 0.000000 0.000000
# 3 -0.001526 -0.004693 0.009858 0.000000 0.000000 0.000000
# 4 0.000000 0.000000 0.000000 0.038864 0.000000 0.000000
# 5 0.000000 0.000000 0.000000 0.000000 0.041363 0.000000
# 6 0.000000 0.000000 0.000000 0.000000 0.000000 0.033426
#
#
# Mechanical properties :
#
#
# Convention : Reuss Voigt Hill
#
# Bulk Modulus (GPa) = 50.75276 64.78619 57.76947
# Shear Modulus (GPa) = 26.47846 28.51274 27.49560
#
# Velocity S-wave (km/s) = 3.77514 3.91747 3.84696
# Velocity P-wave (km/s) = 6.80582 7.43857 7.12922
#
# Compressibility (1/GPa) = 0.01970336
#
# Stress axis : x y z
#
# Youngs Moduli (GPa) = 45.49770 81.16720 101.43928
#
# Poissons Ratio (x) = 0.48764 0.15484
# Poissons Ratio (y) = 0.27334 0.47604
# Poissons Ratio (z) = 0.06945 0.38090
#
# Static dielectric constant tensor:
#      x y z
#    x 1.650040 0.000000 0.000000 
#    y 0.000000 1.615190 0.000000 
#    z 0.000000 0.000000 1.664350 
# 
# From -- ./inp_files/3145.got.cif
#   From: 2010.05.17/outbox.cif.g08.bks.cpg/sg41_2_cif.got.tgz:3145.got - 2010.06.03 18:54:24.
