data_PCOD9367540
_publ_section_title
;
Structure prediction by ZEFSAII (Michael W. Deem and Ramdas Pophale) SiO2 
 PCOD9367540
Probable space group: A B A 2
;
_chemical_formula_sum "Si O2"
_cell_formula_units_Z 60
_cell_length_a 16.748820
_cell_length_b 8.117608
_cell_length_c 19.300580
_cell_angle_alpha 90.000000
_cell_angle_beta 90.000000
_cell_angle_gamma 90.000000
_cell_volume 2624.113713
_symmetry_space_group_name_H-M "A B A 2"
_symmetry_group_IT_number 41
_symmetry_cell_setting 'orthorhombic'
loop_
_space_group_symop_operation_xyz
x,y,z
-x,-y,z
1/2-x,y,1/2+z
1/2+x,-y,1/2+z
x,1/2+y,1/2+z
-x,1/2-y,1/2+z
1/2-x,1/2+y,z
1/2+x,1/2-y,z
loop_
_atom_site_type_symbol
_atom_site_label
_atom_site_fract_x
_atom_site_fract_y
_atom_site_fract_z
Si Si1 0.384789 0.599314 0.166880
Si Si2 0.910087 0.043180 0.659053
Si Si3 0.688114 0.747031 0.848414
Si Si4 0.500000 0.000000 0.544312
Si Si5 0.585683 0.559269 0.308853
Si Si6 0.661761 0.132860 0.499477
Si Si7 0.729001 0.420021 0.581502
Si Si8 0.150058 0.114963 0.792975
O O1 0.405889 0.779227 0.195648
O O2 0.440615 0.589759 0.098819
O O3 0.403617 0.465736 0.225464
O O4 0.292639 0.589640 0.143943
O O5 0.843336 0.044090 0.599089
O O6 0.878716 0.911720 0.714688
O O7 0.000000 0.000000 0.637446
O O8 0.643200 0.921098 0.840261
O O9 0.767392 0.786635 0.804253
O O10 0.655210 0.568190 0.824041
O O11 0.693644 0.714955 0.930084
O O12 0.566474 0.098691 0.500029
O O13 0.500000 0.500000 0.329581
O O14 0.592612 0.750687 0.327883
O O15 0.683721 0.251853 0.563726
O O16 0.715765 0.974637 0.517196
#
# Coordination Sequence:
#
# PCOD9367540 Si02
#       8
#     8   8   8   4   8   8   8   8
#     4  11  22  44  69 106 143 182 231 300 374 434
#     4  12  25  41  69 106 146 183 239 305 370 439
#     4  12  26  49  73 100 145 196 249 292 354 438
#     4  10  24  44  74 102 142 182 236 306 370 422
#     4  12  26  44  72 109 146 184 234 304 370 429
#     4  11  25  47  71 100 141 191 242 295 355 435
#     4  11  24  41  71 102 136 186 238 293 361 435
#     4  12  27  44  73 104 140 190 241 301 361 429
#
# _framework density 22.864863
#
# number of rings (size 3 to 8) (size 9 to 14) (size 15 to 20)
#    0.000    0.533    4.667    3.200    3.733    1.067 
#    0.000    2.000    0.000    0.000    0.000    0.000 
#    0.000    0.000    0.000    0.000    0.000    0.000 
#
# Total GULP energy -167415.616695 kJ/mol
# GULP energy per Si atom -5580.520556 kJ/mol
# Density = 2.281282 g / cm^3
# Si number density = 22.864863 Si / 1000 Ang^3
#
#
#
# Elastic Constant Matrix: (Units=GPa)
#
#
# Indices 1 2 3 4 5 6 
#
# 1 124.2431 -4.7571 14.6784 0.0000 0.0000 0.0000
# 2 -4.7571 94.0479 10.2841 0.0000 0.0000 0.0000
# 3 14.6784 10.2841 42.9920 0.0000 0.0000 0.0000
# 4 0.0000 0.0000 0.0000 29.9186 0.0000 0.0000
# 5 0.0000 0.0000 0.0000 0.0000 33.8887 0.0000
# 6 0.0000 0.0000 0.0000 0.0000 0.0000 29.0350
#
#
#
# Elastic Compliance Matrix: (Units=1/GPa)
#
#
# Indices 1 2 3 4 5 6 
#
# 1 0.008440 0.000762 -0.003064 0.000000 0.000000 0.000000
# 2 0.000762 0.010987 -0.002888 0.000000 0.000000 0.000000
# 3 -0.003064 -0.002888 0.024997 0.000000 0.000000 0.000000
# 4 0.000000 0.000000 0.000000 0.033424 0.000000 0.000000
# 5 0.000000 0.000000 0.000000 0.000000 0.029508 0.000000
# 6 0.000000 0.000000 0.000000 0.000000 0.000000 0.034441
#
#
# Mechanical properties :
#
#
# Convention : Reuss Voigt Hill
#
# Bulk Modulus (GPa) = 29.37401 33.52153 31.44777
# Shear Modulus (GPa) = 30.57612 34.64030 32.60821
#
# Velocity S-wave (km/s) = 3.66082 3.89652 3.78051
# Velocity P-wave (km/s) = 5.54468 5.91070 5.73061
#
# Compressibility (1/GPa) = 0.03404370
#
# Stress axis : x y z
#
# Youngs Moduli (GPa) = 118.48510 91.01450 40.00461
#
# Poissons Ratio (x) = -0.06935 0.12257
# Poissons Ratio (y) = -0.09028 0.11555
# Poissons Ratio (z) = 0.36302 0.26289
#
# Static dielectric constant tensor:
#      x y z
#    x 1.931950 0.000000 0.000000 
#    y 0.000000 2.121460 0.000000 
#    z 0.000000 0.000000 1.867780 
# 
# From -- ./inp_files/12216.got.cif
#   From: 2010.05.17/outbox.cif.g08.bks.cpg/sg41_7_cif.got.tgz:12216.got - 2010.06.03 18:54:24.
