data_PCOD9367558
_publ_section_title
;
Structure prediction by ZEFSAII (Michael W. Deem and Ramdas Pophale) SiO2 
 PCOD9367558
Probable space group: A B A 2
;
_chemical_formula_sum "Si O2"
_cell_formula_units_Z 60
_cell_length_a 8.119144
_cell_length_b 10.469657
_cell_length_c 27.059705
_cell_angle_alpha 90.000000
_cell_angle_beta 90.000000
_cell_angle_gamma 90.000000
_cell_volume 2300.200829
_symmetry_space_group_name_H-M "A B A 2"
_symmetry_group_IT_number 41
_symmetry_cell_setting 'orthorhombic'
loop_
_space_group_symop_operation_xyz
x,y,z
-x,-y,z
1/2-x,y,1/2+z
1/2+x,-y,1/2+z
x,1/2+y,1/2+z
-x,1/2-y,1/2+z
1/2-x,1/2+y,z
1/2+x,1/2-y,z
loop_
_atom_site_type_symbol
_atom_site_label
_atom_site_fract_x
_atom_site_fract_y
_atom_site_fract_z
Si Si1 0.178376 0.432221 0.580160
Si Si2 0.099969 0.249446 0.489342
Si Si3 0.248844 0.379531 0.250488
Si Si4 0.442029 0.339875 0.660774
Si Si5 0.500000 0.500000 0.526117
Si Si6 0.177964 0.929869 0.362232
Si Si7 0.136027 0.656850 0.417821
Si Si8 0.227176 0.125118 0.195316
O O1 0.131891 0.322136 0.540197
O O2 0.287520 0.373835 0.625625
O O3 0.326471 0.515420 0.554938
O O4 0.000000 0.500000 0.588737
O O5 0.247474 0.171826 0.465066
O O6 0.973516 0.131912 0.497445
O O7 0.038787 0.343997 0.445918
O O8 0.087350 0.387265 0.216765
O O9 0.250258 0.395782 0.308344
O O10 0.291814 0.235759 0.233331
O O11 0.328866 0.505190 0.226571
O O12 0.425055 0.188047 0.666320
O O13 0.627265 0.386192 0.654337
O O14 0.147654 0.791499 0.387902
O O15 0.297549 0.037261 0.386530
O O16 0.000000 0.000000 0.358264
#
# Coordination Sequence:
#
# PCOD9367558 Si02
#       8
#     8   8   8   8   4   8   8   8
#     4  12  30  49  83 121 157 215 279 330 421 495
#     4  12  26  51  78 110 156 205 265 339 405 497
#     4  10  25  46  75 107 160 204 269 321 415 478
#     4  10  27  47  76 110 158 201 270 322 405 480
#     4  12  28  50  82 110 168 204 266 346 412 484
#     4  12  27  48  77 117 156 208 271 338 412 501
#     4  12  26  49  78 112 158 206 265 337 411 480
#     4  10  24  45  75 106 156 210 250 334 392 478
#
# _framework density 26.084679000000001
#
# number of rings (size 3 to 8) (size 9 to 14) (size 15 to 20)
#    0.800    0.000    2.667    2.800    7.467    1.600 
#    4.800    0.000    0.000    0.000    0.000    0.000 
#    0.000    0.000    0.000    0.000    0.000    0.000 
#
# Total GULP energy -167170.067914 kJ/mol
# GULP energy per Si atom -5572.335597 kJ/mol
# Density = 2.602531 g / cm^3
# Si number density = 26.084679 Si / 1000 Ang^3
#
#
#
# Elastic Constant Matrix: (Units=GPa)
#
#
# Indices 1 2 3 4 5 6 
#
# 1 51.7413 10.3748 -3.2324 0.0000 0.0000 0.0000
# 2 10.3748 158.9579 78.8249 0.0000 0.0000 0.0000
# 3 -3.2324 78.8249 136.2146 0.0000 0.0000 0.0000
# 4 0.0000 0.0000 0.0000 65.9666 0.0000 0.0000
# 5 0.0000 0.0000 0.0000 0.0000 11.4264 0.0000
# 6 0.0000 0.0000 0.0000 0.0000 0.0000 44.0308
#
#
#
# Elastic Compliance Matrix: (Units=1/GPa)
#
#
# Indices 1 2 3 4 5 6 
#
# 1 0.019864 -0.002146 0.001713 0.000000 0.000000 0.000000
# 2 -0.002146 0.009055 -0.005291 0.000000 0.000000 0.000000
# 3 0.001713 -0.005291 0.010444 0.000000 0.000000 0.000000
# 4 0.000000 0.000000 0.000000 0.015159 0.000000 0.000000
# 5 0.000000 0.000000 0.000000 0.000000 0.087517 0.000000
# 6 0.000000 0.000000 0.000000 0.000000 0.000000 0.022711
#
#
# Mechanical properties :
#
#
# Convention : Reuss Voigt Hill
#
# Bulk Modulus (GPa) = 35.82232 57.64984 46.73608
# Shear Modulus (GPa) = 26.95392 41.68119 34.31755
#
# Velocity S-wave (km/s) = 3.21802 4.00173 3.63108
# Velocity P-wave (km/s) = 5.25076 6.59552 5.96118
#
# Compressibility (1/GPa) = 0.02791556
#
# Stress axis : x y z
#
# Youngs Moduli (GPa) = 50.34164 110.44106 95.75224
#
# Poissons Ratio (x) = 0.23702 -0.16405
# Poissons Ratio (y) = 0.10804 0.50659
# Poissons Ratio (z) = -0.08625 0.58431
#
# Static dielectric constant tensor:
#      x y z
#    x 2.257100 0.000000 0.000000 
#    y 0.000000 2.307520 0.000000 
#    z 0.000000 0.000000 2.037570 
# 
# From -- ./inp_files/12467.got.cif
#   From: 2010.05.17/outbox.cif.g08.bks.cpg/sg41_7_cif.got.tgz:12467.got - 2010.06.03 18:54:24.
