data_PCOD9367406
_publ_section_title
;
Structure prediction by ZEFSAII (Michael W. Deem and Ramdas Pophale) SiO2 
 PCOD9367406
Probable space group: A B A 2
;
_chemical_formula_sum "Si O2"
_cell_formula_units_Z 56
_cell_length_a 14.134707
_cell_length_b 15.142204
_cell_length_c 11.636553
_cell_angle_alpha 90.000000
_cell_angle_beta 90.000000
_cell_angle_gamma 90.000000
_cell_volume 2490.578617
_symmetry_space_group_name_H-M "A B A 2"
_symmetry_group_IT_number 41
_symmetry_cell_setting 'orthorhombic'
loop_
_space_group_symop_operation_xyz
x,y,z
-x,-y,z
1/2-x,y,1/2+z
1/2+x,-y,1/2+z
x,1/2+y,1/2+z
-x,1/2-y,1/2+z
1/2-x,1/2+y,z
1/2+x,1/2-y,z
loop_
_atom_site_type_symbol
_atom_site_label
_atom_site_fract_x
_atom_site_fract_y
_atom_site_fract_z
Si Si1 0.576277 0.067765 0.277640
Si Si2 0.887344 0.730324 0.441619
Si Si3 0.013982 0.119265 0.533318
Si Si4 0.343752 0.694364 0.222720
Si Si5 0.466584 0.403135 0.269522
Si Si6 0.723637 0.141543 0.637437
Si Si7 0.706244 0.458541 0.636734
O O1 0.580476 0.150610 0.360783
O O2 0.542814 0.095563 0.148320
O O3 0.500000 0.000000 0.325508
O O4 0.668058 0.007162 0.253904
O O5 0.971516 0.777452 0.509566
O O6 0.834413 0.801044 0.360856
O O7 0.816864 0.695813 0.533631
O O8 0.117430 0.079138 0.565367
O O9 0.972151 0.091928 0.409342
O O10 0.454752 0.665770 0.219926
O O11 0.303954 0.790943 0.184824
O O12 0.279394 0.618813 0.166051
O O13 0.500000 0.500000 0.227917
O O14 0.361932 0.376564 0.227515
O O15 0.749731 0.046496 0.583225
#
# Coordination Sequence:
#
# PCOD9367406 Si02
#       7
#     8   8   8   8   8   8   8
#     4  10  23  45  68 104 146 192 242 301 375 448
#     4  11  25  42  71 106 141 186 250 299 378 441
#     4  10  24  43  76 104 146 198 251 305 378 458
#     4  11  25  47  69 108 148 193 251 312 375 458
#     4  11  24  46  76 111 147 201 256 308 384 461
#     4  12  26  46  75 111 153 193 251 323 381 449
#     4  11  22  46  74 100 149 194 248 312 376 450
#
# _framework density 22.484735000000001
#
# number of rings (size 3 to 8) (size 9 to 14) (size 15 to 20)
#    0.000    1.143    4.286    1.286    4.000    5.143 
#    0.000    1.429    0.000    0.000    0.000    0.000 
#    0.000    0.000    0.000    0.000    0.000    0.000 
#
# Total GULP energy -156046.256353 kJ/mol
# GULP energy per Si atom -5573.080584 kJ/mol
# Density = 2.243356 g / cm^3
# Si number density = 22.484735 Si / 1000 Ang^3
#
#
#
# Elastic Constant Matrix: (Units=GPa)
#
#
# Indices 1 2 3 4 5 6 
#
# 1 78.5467 29.7500 21.6739 0.0000 0.0000 0.0000
# 2 29.7500 115.3358 31.7557 0.0000 0.0000 0.0000
# 3 21.6739 31.7557 79.5847 0.0000 0.0000 0.0000
# 4 0.0000 0.0000 0.0000 38.6667 0.0000 0.0000
# 5 0.0000 0.0000 0.0000 0.0000 10.4825 0.0000
# 6 0.0000 0.0000 0.0000 0.0000 0.0000 37.1466
#
#
#
# Elastic Compliance Matrix: (Units=1/GPa)
#
#
# Indices 1 2 3 4 5 6 
#
# 1 0.014640 -0.003009 -0.002786 0.000000 0.000000 0.000000
# 2 -0.003009 0.010359 -0.003314 0.000000 0.000000 0.000000
# 3 -0.002786 -0.003314 0.014646 0.000000 0.000000 0.000000
# 4 0.000000 0.000000 0.000000 0.025862 0.000000 0.000000
# 5 0.000000 0.000000 0.000000 0.000000 0.095397 0.000000
# 6 0.000000 0.000000 0.000000 0.000000 0.000000 0.026920
#
#
# Mechanical properties :
#
#
# Convention : Reuss Voigt Hill
#
# Bulk Modulus (GPa) = 46.67112 48.86962 47.77037
# Shear Modulus (GPa) = 23.45374 29.94499 26.69936
#
# Velocity S-wave (km/s) = 3.23320 3.65333 3.44967
# Velocity P-wave (km/s) = 5.89407 6.29107 6.09580
#
# Compressibility (1/GPa) = 0.02142653
#
# Stress axis : x y z
#
# Youngs Moduli (GPa) = 68.30685 96.53510 68.27642
#
# Poissons Ratio (x) = 0.29048 0.19024
# Poissons Ratio (y) = 0.20554 0.22626
# Poissons Ratio (z) = 0.19032 0.31991
#
# Static dielectric constant tensor:
#      x y z
#    x 1.914780 0.000000 0.000000 
#    y 0.000000 2.014470 0.000000 
#    z 0.000000 0.000000 1.820410 
# 
# From -- ./inp_files/5587.got.cif
#   From: 2010.05.17/outbox.cif.g08.bks.cpg/sg41_3_cif.got.tgz:5587.got - 2010.06.03 18:54:24.
