data_PCOD9367204
_publ_section_title
;
Structure prediction by ZEFSAII (Michael W. Deem and Ramdas Pophale) SiO2 
 PCOD9367204
Probable space group: A B A 2
;
_chemical_formula_sum "Si O2"
_cell_formula_units_Z 52
_cell_length_a 16.462685
_cell_length_b 16.629525
_cell_length_c 9.349442
_cell_angle_alpha 90.000000
_cell_angle_beta 90.000000
_cell_angle_gamma 90.000000
_cell_volume 2559.565245
_symmetry_space_group_name_H-M "A B A 2"
_symmetry_group_IT_number 41
_symmetry_cell_setting 'orthorhombic'
loop_
_space_group_symop_operation_xyz
x,y,z
-x,-y,z
1/2-x,y,1/2+z
1/2+x,-y,1/2+z
x,1/2+y,1/2+z
-x,1/2-y,1/2+z
1/2-x,1/2+y,z
1/2+x,1/2-y,z
loop_
_atom_site_type_symbol
_atom_site_label
_atom_site_fract_x
_atom_site_fract_y
_atom_site_fract_z
Si Si1 0.750109 0.112653 0.626600
Si Si2 0.170192 0.171786 0.405762
Si Si3 0.320539 0.485209 0.386617
Si Si4 0.560338 0.836390 0.650399
Si Si5 0.332657 0.251145 0.452775
Si Si6 0.500000 0.500000 0.276165
Si Si7 0.607744 0.729395 0.143874
O O1 0.728598 0.074896 0.780958
O O2 0.783686 0.037724 0.538514
O O3 0.814736 0.181427 0.574195
O O4 0.664718 0.156316 0.588447
O O5 0.097059 0.193388 0.300466
O O6 0.247489 0.227591 0.381007
O O7 0.142703 0.190744 0.568108
O O8 0.191904 0.080319 0.368221
O O9 0.418575 0.475123 0.364664
O O10 0.630455 0.825179 0.534325
O O11 0.484718 0.783291 0.602282
O O12 0.528434 0.925640 0.679414
O O13 0.386480 0.273465 0.315987
#
# Coordination Sequence:
#
# PCOD9367204 Si02
#       7
#     8   8   8   8   8   4   8
#     4  11  22  42  66  94 128 176 219 270 331 404
#     4  10  24  38  64  93 127 173 216 270 329 398
#     4  11  24  41  70  92 133 170 221 268 338 396
#     4  11  22  40  68  88 132 168 219 276 336 395
#     4  11  23  39  62  96 125 169 222 271 320 411
#     4  10  22  44  64 100 126 178 212 280 340 398
#     4  11  22  41  62  96 128 170 221 270 333 398
#
# _framework density 20.315950000000001
#
# number of rings (size 3 to 8) (size 9 to 14) (size 15 to 20)
#    0.000    1.231    3.077    2.769    8.615    1.231 
#    0.000    0.000    0.000    1.846    0.000    0.000 
#    0.000    0.000    0.000    0.000    0.000    0.000 
#
# Total GULP energy -144803.015043 kJ/mol
# GULP energy per Si atom -5569.346732 kJ/mol
# Density = 2.026971 g / cm^3
# Si number density = 20.315950 Si / 1000 Ang^3
#
#
#
# Elastic Constant Matrix: (Units=GPa)
#
#
# Indices 1 2 3 4 5 6 
#
# 1 46.9102 8.7721 25.5826 0.0000 0.0000 0.0000
# 2 8.7721 54.9032 8.8136 0.0000 0.0000 0.0000
# 3 25.5826 8.8136 60.8094 0.0000 0.0000 0.0000
# 4 0.0000 0.0000 0.0000 26.7133 0.0000 0.0000
# 5 0.0000 0.0000 0.0000 0.0000 32.0046 0.0000
# 6 0.0000 0.0000 0.0000 0.0000 0.0000 30.5388
#
#
#
# Elastic Compliance Matrix: (Units=1/GPa)
#
#
# Indices 1 2 3 4 5 6 
#
# 1 0.028035 -0.002648 -0.011411 0.000000 0.000000 0.000000
# 2 -0.002648 0.018898 -0.001625 0.000000 0.000000 0.000000
# 3 -0.011411 -0.001625 0.021481 0.000000 0.000000 0.000000
# 4 0.000000 0.000000 0.000000 0.037435 0.000000 0.000000
# 5 0.000000 0.000000 0.000000 0.000000 0.031246 0.000000
# 6 0.000000 0.000000 0.000000 0.000000 0.000000 0.032745
#
#
# Mechanical properties :
#
#
# Convention : Reuss Voigt Hill
#
# Bulk Modulus (GPa) = 26.99275 27.66217 27.32746
# Shear Modulus (GPa) = 23.41314 25.81497 24.61406
#
# Velocity S-wave (km/s) = 3.39846 3.56852 3.48453
# Velocity P-wave (km/s) = 5.35861 5.53396 5.44699
#
# Compressibility (1/GPa) = 0.03704699
#
# Stress axis : x y z
#
# Youngs Moduli (GPa) = 35.66928 52.91631 46.55299
#
# Poissons Ratio (x) = 0.14010 0.53121
# Poissons Ratio (y) = 0.09444 0.07566
# Poissons Ratio (z) = 0.40701 0.08600
#
# Static dielectric constant tensor:
#      x y z
#    x 1.721810 0.000000 0.000000 
#    y 0.000000 1.745860 0.000000 
#    z 0.000000 0.000000 1.711980 
# 
# From -- ./inp_files/3117.got.cif
#   From: 2010.05.17/outbox.cif.g08.bks.cpg/sg41_2_cif.got.tgz:3117.got - 2010.06.03 18:54:24.
