data_PCOD9367242
_publ_section_title
;
Structure prediction by ZEFSAII (Michael W. Deem and Ramdas Pophale) SiO2 
 PCOD9367242
Probable space group: A B A 2
;
_chemical_formula_sum "Si O2"
_cell_formula_units_Z 48
_cell_length_a 9.114006
_cell_length_b 21.553834
_cell_length_c 10.249636
_cell_angle_alpha 90.000000
_cell_angle_beta 90.000000
_cell_angle_gamma 90.000000
_cell_volume 2013.456662
_symmetry_space_group_name_H-M "A B A 2"
_symmetry_group_IT_number 41
_symmetry_cell_setting 'orthorhombic'
loop_
_space_group_symop_operation_xyz
x,y,z
-x,-y,z
1/2-x,y,1/2+z
1/2+x,-y,1/2+z
x,1/2+y,1/2+z
-x,1/2-y,1/2+z
1/2-x,1/2+y,z
1/2+x,1/2-y,z
loop_
_atom_site_type_symbol
_atom_site_label
_atom_site_fract_x
_atom_site_fract_y
_atom_site_fract_z
Si Si1 0.918725 0.645232 0.203550
Si Si2 0.299923 0.780783 0.549656
Si Si3 0.651982 0.535785 0.898922
Si Si4 0.288012 0.140651 0.062900
Si Si5 0.332124 0.014667 0.664068
Si Si6 0.596130 0.788517 0.400394
O O1 0.770751 0.666231 0.134921
O O2 0.885974 0.599312 0.324212
O O3 0.999183 0.703125 0.273305
O O4 0.042636 0.623856 0.097173
O O5 0.270946 0.712149 0.610635
O O6 0.468093 0.788524 0.510910
O O7 0.194046 0.772546 0.421736
O O8 0.500000 0.500000 0.915761
O O9 0.746424 0.498788 0.794989
O O10 0.719977 0.529742 0.043516
O O11 0.194082 0.085374 0.121623
O O12 0.213429 0.154838 0.920608
O O13 0.500000 0.000000 0.689800
#
# Coordination Sequence:
#
# PCOD9367242 Si02
#       6
#     8   8   8   8   8   8
#     4  12  24  44  68  95 138 183 221 290 348 415
#     4  10  23  40  65 102 133 173 224 278 341 411
#     4  11  25  45  71  97 136 181 234 284 351 406
#     4  10  22  45  67  92 136 171 234 272 347 408
#     4  11  25  46  69 102 133 183 233 292 345 411
#     4  10  23  41  63  97 134 174 223 275 341 410
#
# _framework density 23.839600999999998
#
# number of rings (size 3 to 8) (size 9 to 14) (size 15 to 20)
#    1.000    0.333    3.333    2.000    7.000    0.667 
#    0.000    0.000    0.000    0.000    0.000    0.000 
#    0.000    0.000    0.000    0.000    0.000    0.000 
#
# Total GULP energy -133732.517844 kJ/mol
# GULP energy per Si atom -5572.188244 kJ/mol
# Density = 2.378534 g / cm^3
# Si number density = 23.839601 Si / 1000 Ang^3
#
#
#
# Elastic Constant Matrix: (Units=GPa)
#
#
# Indices 1 2 3 4 5 6 
#
# 1 93.5792 7.3783 21.0912 0.0000 0.0000 0.0000
# 2 7.3783 87.3072 -0.5181 0.0000 0.0000 0.0000
# 3 21.0912 -0.5181 60.0355 0.0000 0.0000 0.0000
# 4 0.0000 0.0000 0.0000 40.7239 0.0000 0.0000
# 5 0.0000 0.0000 0.0000 0.0000 -1.2132 0.0000
# 6 0.0000 0.0000 0.0000 0.0000 0.0000 28.8662
#
#
#
# Elastic Compliance Matrix: (Units=1/GPa)
#
#
# Indices 1 2 3 4 5 6 
#
# 1 0.011694 -0.001013 -0.004117 0.000000 0.000000 0.000000
# 2 -0.001013 0.011542 0.000455 0.000000 0.000000 0.000000
# 3 -0.004117 0.000455 0.018107 0.000000 0.000000 0.000000
# 4 0.000000 0.000000 0.000000 0.024556 0.000000 0.000000
# 5 0.000000 0.000000 0.000000 0.000000 -0.824283 0.000000
# 6 0.000000 0.000000 0.000000 0.000000 0.000000 0.034643
#
#
# Mechanical properties :
#
#
# Convention : Reuss Voigt Hill
#
# Bulk Modulus (GPa) = 31.25532 32.98052 32.11792
# Shear Modulus (GPa) = -7.10501 27.87344 10.38422
#
# Velocity S-wave (km/s) = -1.72824 3.42308 2.08934
# Velocity P-wave (km/s) = 3.02601 5.43025 4.39570
#
# Compressibility (1/GPa) = 0.03199455
#
# Stress axis : x y z
#
# Youngs Moduli (GPa) = 85.51493 86.63944 55.22705
#
# Poissons Ratio (x) = 0.08774 0.22737
# Poissons Ratio (y) = 0.08660 -0.02515
# Poissons Ratio (z) = 0.35206 -0.03945
#
# Static dielectric constant tensor:
#      x y z
#    x 1.901320 0.000000 0.000000 
#    y 0.000000 1.949800 0.000000 
#    z 0.000000 0.000000 2.082150 
# 
# From -- ./inp_files/4485.got.cif
#   From: 2010.05.17/outbox.cif.g08.bks.cpg/sg41_3_cif.got.tgz:4485.got - 2010.06.03 18:54:24.
