data_PCOD9367972
_publ_section_title
;
Structure prediction by ZEFSAII (Michael W. Deem and Ramdas Pophale) SiO2 
 PCOD9367972
Probable space group: A B A 2
;
_chemical_formula_sum "Si O2"
_cell_formula_units_Z 56
_cell_length_a 5.645425
_cell_length_b 16.342483
_cell_length_c 28.599869
_cell_angle_alpha 90.000000
_cell_angle_beta 90.000000
_cell_angle_gamma 90.000000
_cell_volume 2638.631410
_symmetry_space_group_name_H-M "A B A 2"
_symmetry_group_IT_number 41
_symmetry_cell_setting 'orthorhombic'
loop_
_space_group_symop_operation_xyz
x,y,z
-x,-y,z
1/2-x,y,1/2+z
1/2+x,-y,1/2+z
x,1/2+y,1/2+z
-x,1/2-y,1/2+z
1/2-x,1/2+y,z
1/2+x,1/2-y,z
loop_
_atom_site_type_symbol
_atom_site_label
_atom_site_fract_x
_atom_site_fract_y
_atom_site_fract_z
Si Si1 0.650183 0.576842 0.210070
Si Si2 0.500000 0.000000 0.132443
Si Si3 0.639443 0.414788 0.067245
Si Si4 0.084356 0.700724 0.481855
Si Si5 0.115439 0.916482 0.798490
Si Si6 0.963513 0.796148 0.146496
Si Si7 0.109943 0.592803 0.392975
Si Si8 0.000000 0.000000 0.363293
O O1 0.500000 0.500000 0.228976
O O2 0.792272 0.623185 0.251190
O O3 0.464136 0.637792 0.187580
O O4 0.814907 0.544069 0.167573
O O5 0.624316 0.935789 0.097124
O O6 0.500000 0.500000 0.066892
O O7 0.518357 0.344849 0.098040
O O8 0.640017 0.375885 0.016132
O O9 0.324016 0.756440 0.489001
O O10 0.058137 0.661241 0.430302
O O11 0.948215 0.880771 0.839217
O O12 0.329877 0.949372 0.829721
O O13 0.000000 0.000000 0.779404
O O14 0.212384 0.748802 0.149609
O O15 0.383475 0.569130 0.394876
O O16 0.000000 0.500000 0.400050
#
# Coordination Sequence:
#
# PCOD9367972 Si02
#       8
#     8   4   8   8   8   8   8   4
#     4  12  22  39  68 105 136 195 246 298 355 431
#     4  12  22  41  72 106 144 174 255 304 358 408
#     4  12  26  46  74 104 132 187 243 304 352 424
#     4  12  30  49  72 104 146 189 230 291 373 446
#     4   9  18  33  65 103 134 171 240 304 346 406
#     4  12  26  44  64  96 147 187 227 287 359 430
#     4   9  21  42  69 103 132 184 236 301 353 421
#     4   8  16  33  66  96 124 164 227 300 334 390
#
# _framework density 21.223123999999999
#
# number of rings (size 3 to 8) (size 9 to 14) (size 15 to 20)
#    0.000    1.429    4.286    2.143    6.000    0.571 
#    0.000    1.429    0.000    0.000    0.000    0.000 
#    0.000    0.000    0.000    0.000    0.000    0.000 
#
# Total GULP energy -155903.700088 kJ/mol
# GULP energy per Si atom -5567.989289 kJ/mol
# Density = 2.117482 g / cm^3
# Si number density = 21.223124 Si / 1000 Ang^3
#
#
#
# Elastic Constant Matrix: (Units=GPa)
#
#
# Indices 1 2 3 4 5 6 
#
# 1 90.8685 28.0673 2.3795 0.0000 0.0000 0.0000
# 2 28.0673 50.8161 8.3947 0.0000 0.0000 0.0000
# 3 2.3795 8.3947 82.6884 0.0000 0.0000 0.0000
# 4 0.0000 0.0000 0.0000 -37.0788 0.0000 0.0000
# 5 0.0000 0.0000 0.0000 0.0000 19.2777 0.0000
# 6 0.0000 0.0000 0.0000 0.0000 0.0000 43.6484
#
#
#
# Elastic Compliance Matrix: (Units=1/GPa)
#
#
# Indices 1 2 3 4 5 6 
#
# 1 0.013280 -0.007396 0.000369 0.000000 0.000000 0.000000
# 2 -0.007396 0.024133 -0.002237 0.000000 0.000000 0.000000
# 3 0.000369 -0.002237 0.012310 0.000000 0.000000 0.000000
# 4 0.000000 0.000000 0.000000 -0.026970 0.000000 0.000000
# 5 0.000000 0.000000 0.000000 0.000000 0.051873 0.000000
# 6 0.000000 0.000000 0.000000 0.000000 0.000000 0.022910
#
#
# Mechanical properties :
#
#
# Convention : Reuss Voigt Hill
#
# Bulk Modulus (GPa) = 32.05687 33.56177 32.80932
# Shear Modulus (GPa) = 39.53704 17.53823 28.53763
#
# Velocity S-wave (km/s) = 4.32084 2.87779 3.67092
# Velocity P-wave (km/s) = 6.32696 5.18559 5.78449
#
# Compressibility (1/GPa) = 0.03119456
#
# Stress axis : x y z
#
# Youngs Moduli (GPa) = 75.30335 41.43665 81.23404
#
# Poissons Ratio (x) = 0.30645 -0.02995
# Poissons Ratio (y) = 0.55692 0.18174
# Poissons Ratio (z) = -0.02776 0.09270
#
# Static dielectric constant tensor:
#      x y z
#    x 2.037130 0.000000 0.000000 
#    y 0.000000 1.781370 0.000000 
#    z 0.000000 0.000000 1.772280 
# 
# From -- ./inp_files/12642.got.cif
#   From: 2010.05.17/outbox.cif.g08.bks.cpg/sg41_7_cif.got.tgz:12642.got - 2010.06.03 18:54:24.
