data_PCOD9367284
_publ_section_title
;
Structure prediction by ZEFSAII (Michael W. Deem and Ramdas Pophale) SiO2 
 PCOD9367284
Probable space group: A B A 2
;
_chemical_formula_sum "Si O2"
_cell_formula_units_Z 60
_cell_length_a 26.329619
_cell_length_b 8.607411
_cell_length_c 11.242753
_cell_angle_alpha 90.000000
_cell_angle_beta 90.000000
_cell_angle_gamma 90.000000
_cell_volume 2547.943451
_symmetry_space_group_name_H-M "A B A 2"
_symmetry_group_IT_number 41
_symmetry_cell_setting 'orthorhombic'
loop_
_space_group_symop_operation_xyz
x,y,z
-x,-y,z
1/2-x,y,1/2+z
1/2+x,-y,1/2+z
x,1/2+y,1/2+z
-x,1/2-y,1/2+z
1/2-x,1/2+y,z
1/2+x,1/2-y,z
loop_
_atom_site_type_symbol
_atom_site_label
_atom_site_fract_x
_atom_site_fract_y
_atom_site_fract_z
Si Si1 0.719476 0.595888 0.716140
Si Si2 0.105486 0.857690 0.122622
Si Si3 0.000000 0.500000 0.592215
Si Si4 0.394966 0.084507 0.931911
Si Si5 0.361199 0.669006 0.175885
Si Si6 0.288866 0.403679 0.447727
Si Si7 0.434110 0.263113 0.485083
Si Si8 0.350138 0.156593 0.328062
O O1 0.693785 0.765809 0.708407
O O2 0.736143 0.573296 0.578133
O O3 0.757144 0.574279 0.826754
O O4 0.672883 0.486594 0.757887
O O5 0.137615 0.783777 0.228191
O O6 0.138413 0.011397 0.098729
O O7 0.098755 0.727935 0.021827
O O8 0.050125 0.929163 0.154312
O O9 0.980464 0.346213 0.521954
O O10 0.391124 0.144508 0.798248
O O11 0.338715 0.011451 0.951459
O O12 0.435276 0.942079 0.942600
O O13 0.396438 0.781127 0.098131
O O14 0.310923 0.230030 0.423325
O O15 0.404542 0.153672 0.390845
#
# Coordination Sequence:
#
# PCOD9367284 Si02
#       8
#     8   8   4   8   8   8   8   8
#     4  12  27  45  75 109 153 201 259 319 372 454
#     4  11  23  47  77 103 149 193 250 309 384 459
#     4  10  26  44  72 120 142 182 262 322 368 476
#     4  11  23  46  76 101 146 210 236 302 395 448
#     4  11  23  43  75 103 142 196 242 301 376 448
#     4  11  26  46  70 113 146 197 264 309 368 463
#     4  10  22  49  68 109 151 187 251 305 385 463
#     4  11  23  47  75  98 154 198 242 305 392 450
#
# _framework density 23.548404000000001
#
# number of rings (size 3 to 8) (size 9 to 14) (size 15 to 20)
#    0.000    1.067    6.667    0.000    5.600    3.733 
#    4.800    0.000    2.933    0.000    0.000    0.000 
#    0.000    0.000    0.000    0.000    0.000    0.000 
#
# Total GULP energy -167230.001456 kJ/mol
# GULP energy per Si atom -5574.333382 kJ/mol
# Density = 2.349481 g / cm^3
# Si number density = 23.548404 Si / 1000 Ang^3
#
#
#
# Elastic Constant Matrix: (Units=GPa)
#
#
# Indices 1 2 3 4 5 6 
#
# 1 79.0994 43.6912 23.4854 0.0000 0.0000 0.0000
# 2 43.6912 108.7778 51.6585 0.0000 0.0000 0.0000
# 3 23.4854 51.6585 133.9431 0.0000 0.0000 0.0000
# 4 0.0000 0.0000 0.0000 34.8636 0.0000 0.0000
# 5 0.0000 0.0000 0.0000 0.0000 34.6070 0.0000
# 6 0.0000 0.0000 0.0000 0.0000 0.0000 35.0493
#
#
#
# Elastic Compliance Matrix: (Units=1/GPa)
#
#
# Indices 1 2 3 4 5 6 
#
# 1 0.016265 -0.006340 -0.000407 0.000000 0.000000 0.000000
# 2 -0.006340 0.013725 -0.004182 0.000000 0.000000 0.000000
# 3 -0.000407 -0.004182 0.009150 0.000000 0.000000 0.000000
# 4 0.000000 0.000000 0.000000 0.028683 0.000000 0.000000
# 5 0.000000 0.000000 0.000000 0.000000 0.028896 0.000000
# 6 0.000000 0.000000 0.000000 0.000000 0.000000 0.028531
#
#
# Mechanical properties :
#
#
# Convention : Reuss Voigt Hill
#
# Bulk Modulus (GPa) = 57.85872 62.16558 60.01215
# Shear Modulus (GPa) = 32.70778 34.43632 33.57205
#
# Velocity S-wave (km/s) = 3.73092 3.82823 3.77989
# Velocity P-wave (km/s) = 6.57139 6.78210 6.67757
#
# Compressibility (1/GPa) = 0.01728348
#
# Stress axis : x y z
#
# Youngs Moduli (GPa) = 61.48215 72.85742 109.28879
#
# Poissons Ratio (x) = 0.46189 0.04446
# Poissons Ratio (y) = 0.38978 0.45704
# Poissons Ratio (z) = 0.02501 0.30469
#
# Static dielectric constant tensor:
#      x y z
#    x 1.931010 0.000000 0.000000 
#    y 0.000000 1.972070 0.000000 
#    z 0.000000 0.000000 2.013380 
# 
# From -- ./inp_files/6586.got.cif
#   From: 2010.05.17/outbox.cif.g08.bks.cpg/sg41_4_cif.got.tgz:6586.got - 2010.06.03 18:54:24.
