data_PCOD9367534
_publ_section_title
;
Structure prediction by ZEFSAII (Michael W. Deem and Ramdas Pophale) SiO2 
 PCOD9367534
Probable space group: A B A 2
;
_chemical_formula_sum "Si O2"
_cell_formula_units_Z 40
_cell_length_a 11.058132
_cell_length_b 15.983593
_cell_length_c 9.028413
_cell_angle_alpha 90.000000
_cell_angle_beta 90.000000
_cell_angle_gamma 90.000000
_cell_volume 1595.760091
_symmetry_space_group_name_H-M "A B A 2"
_symmetry_group_IT_number 41
_symmetry_cell_setting 'orthorhombic'
loop_
_space_group_symop_operation_xyz
x,y,z
-x,-y,z
1/2-x,y,1/2+z
1/2+x,-y,1/2+z
x,1/2+y,1/2+z
-x,1/2-y,1/2+z
1/2-x,1/2+y,z
1/2+x,1/2-y,z
loop_
_atom_site_type_symbol
_atom_site_label
_atom_site_fract_x
_atom_site_fract_y
_atom_site_fract_z
Si Si1 0.335249 0.973584 0.582480
Si Si2 0.554755 0.869407 0.696976
Si Si3 0.584877 0.295514 0.693539
Si Si4 0.124979 0.900202 0.766474
Si Si5 0.783496 0.275530 0.908395
O O1 0.431851 0.924179 0.687355
O O2 0.208561 0.936949 0.637244
O O3 0.367572 0.957264 0.412155
O O4 0.353051 0.071604 0.608991
O O5 0.506017 0.778903 0.648749
O O6 0.626100 0.847252 0.846668
O O7 0.506875 0.379373 0.701432
O O8 0.647310 0.285594 0.852888
O O9 0.695644 0.280845 0.582205
O O10 0.172509 0.812464 0.838311
#
# Coordination Sequence:
#
# PCOD9367534 Si02
#       5
#     8   8   8   8   8
#     4  11  24  47  72 104 155 197 251 311 388 446
#     4  10  24  44  72 102 150 198 245 319 372 445
#     4  11  25  44  78 113 150 198 263 311 376 447
#     4  11  24  44  74 108 147 201 248 315 375 452
#     4  11  23  43  72 110 145 194 260 307 368 447
#
# _framework density 25.066423
#
# number of rings (size 3 to 8) (size 9 to 14) (size 15 to 20)
#    0.000    1.200    4.000    0.000    5.600    3.200 
#    3.600    2.000    0.000    0.000    0.000    0.000 
#    0.000    0.000    0.000    0.000    0.000    0.000 
#
# Total GULP energy -111815.404013 kJ/mol
# GULP energy per Si atom -5590.770201 kJ/mol
# Density = 2.500937 g / cm^3
# Si number density = 25.066423 Si / 1000 Ang^3
#
#
#
# Elastic Constant Matrix: (Units=GPa)
#
#
# Indices 1 2 3 4 5 6 
#
# 1 102.9097 22.5347 42.2997 0.0000 0.0000 0.0000
# 2 22.5347 86.7408 46.0667 0.0000 0.0000 0.0000
# 3 42.2997 46.0667 114.2993 0.0000 0.0000 0.0000
# 4 0.0000 0.0000 0.0000 27.3853 0.0000 0.0000
# 5 0.0000 0.0000 0.0000 0.0000 39.4302 0.0000
# 6 0.0000 0.0000 0.0000 0.0000 0.0000 51.7243
#
#
#
# Elastic Compliance Matrix: (Units=1/GPa)
#
#
# Indices 1 2 3 4 5 6 
#
# 1 0.011519 -0.000927 -0.003889 0.000000 0.000000 0.000000
# 2 -0.000927 0.014743 -0.005599 0.000000 0.000000 0.000000
# 3 -0.003889 -0.005599 0.012445 0.000000 0.000000 0.000000
# 4 0.000000 0.000000 0.000000 0.036516 0.000000 0.000000
# 5 0.000000 0.000000 0.000000 0.000000 0.025361 0.000000
# 6 0.000000 0.000000 0.000000 0.000000 0.000000 0.019333
#
#
# Mechanical properties :
#
#
# Convention : Reuss Voigt Hill
#
# Bulk Modulus (GPa) = 55.93981 58.41690 57.17836
# Shear Modulus (GPa) = 34.08175 36.57788 35.32982
#
# Velocity S-wave (km/s) = 3.69135 3.82414 3.75833
# Velocity P-wave (km/s) = 6.36657 6.54631 6.45707
#
# Compressibility (1/GPa) = 0.01787636
#
# Stress axis : x y z
#
# Youngs Moduli (GPa) = 86.81389 67.82935 80.35461
#
# Poissons Ratio (x) = 0.06288 0.31252
# Poissons Ratio (y) = 0.08048 0.44989
# Poissons Ratio (z) = 0.33764 0.37977
#
# Static dielectric constant tensor:
#      x y z
#    x 2.023390 0.000000 0.000000 
#    y 0.000000 1.996730 0.000000 
#    z 0.000000 0.000000 1.970990 
# 
# From -- ./inp_files/2016.got.cif
#   From: 2010.05.17/outbox.cif.g08.bks.cpg/sg41_2_cif.got.tgz:2016.got - 2010.06.03 18:54:24.
