data_PCOD9367980
_publ_section_title
;
Structure prediction by ZEFSAII (Michael W. Deem and Ramdas Pophale) SiO2 
 PCOD9367980
Probable space group: A B A 2
;
_chemical_formula_sum "Si O2"
_cell_formula_units_Z 24
_cell_length_a 10.933479
_cell_length_b 10.343355
_cell_length_c 9.995861
_cell_angle_alpha 90.000000
_cell_angle_beta 90.000000
_cell_angle_gamma 90.000000
_cell_volume 1130.420472
_symmetry_space_group_name_H-M "A B A 2"
_symmetry_group_IT_number 41
_symmetry_cell_setting 'orthorhombic'
loop_
_space_group_symop_operation_xyz
x,y,z
-x,-y,z
1/2-x,y,1/2+z
1/2+x,-y,1/2+z
x,1/2+y,1/2+z
-x,1/2-y,1/2+z
1/2-x,1/2+y,z
1/2+x,1/2-y,z
loop_
_atom_site_type_symbol
_atom_site_label
_atom_site_fract_x
_atom_site_fract_y
_atom_site_fract_z
Si Si1 0.887293 0.904500 0.791550
Si Si2 0.699664 0.450087 0.513911
Si Si3 0.027919 0.866541 0.371180
O O1 0.821984 0.931277 0.931840
O O2 0.793347 0.931531 0.671349
O O3 0.933938 0.757854 0.791472
O O4 0.000000 0.000000 0.770207
O O5 0.596168 0.349930 0.457268
O O6 0.635648 0.586192 0.471976
O O7 0.000000 0.000000 0.291074
#
# Coordination Sequence:
#
# PCOD9367980 Si02
#       3
#     8   8   8
#     4  12  23  45  77  99 142 190 231 289 354 412
#     4   9  24  44  66 104 143 174 237 289 340 421
#     4   8  22  46  62 100 143 176 232 286 339 409
#
# _framework density 21.231038000000002
#
# number of rings (size 3 to 8) (size 9 to 14) (size 15 to 20)
#    2.000    0.000    3.333    0.000    4.667    5.333 
#    6.000    0.000    0.000    0.000    0.000    0.000 
#    0.000    0.000    0.000    0.000    0.000    0.000 
#
# Total GULP energy -66843.737282 kJ/mol
# GULP energy per Si atom -5570.311440 kJ/mol
# Density = 2.118272 g / cm^3
# Si number density = 21.231038 Si / 1000 Ang^3
#
#
#
# Elastic Constant Matrix: (Units=GPa)
#
#
# Indices 1 2 3 4 5 6 
#
# 1 37.9229 8.1221 19.5622 0.0000 0.0000 0.0000
# 2 8.1221 113.6939 44.2916 0.0000 0.0000 0.0000
# 3 19.5622 44.2916 100.6950 0.0000 0.0000 0.0000
# 4 0.0000 0.0000 0.0000 6.5976 0.0000 0.0000
# 5 0.0000 0.0000 0.0000 0.0000 30.1245 0.0000
# 6 0.0000 0.0000 0.0000 0.0000 0.0000 2.6820
#
#
#
# Elastic Compliance Matrix: (Units=1/GPa)
#
#
# Indices 1 2 3 4 5 6 
#
# 1 0.029308 0.000150 -0.005760 0.000000 0.000000 0.000000
# 2 0.000150 0.010615 -0.004698 0.000000 0.000000 0.000000
# 3 -0.005760 -0.004698 0.013117 0.000000 0.000000 0.000000
# 4 0.000000 0.000000 0.000000 0.151569 0.000000 0.000000
# 5 0.000000 0.000000 0.000000 0.000000 0.033196 0.000000
# 6 0.000000 0.000000 0.000000 0.000000 0.000000 0.372855
#
#
# Mechanical properties :
#
#
# Convention : Reuss Voigt Hill
#
# Bulk Modulus (GPa) = 30.84144 44.02931 37.43537
# Shear Modulus (GPa) = 7.78715 19.90322 13.84518
#
# Velocity S-wave (km/s) = 1.91723 3.06512 2.55643
# Velocity P-wave (km/s) = 4.41125 5.77146 5.13658
#
# Compressibility (1/GPa) = 0.03242391
#
# Stress axis : x y z
#
# Youngs Moduli (GPa) = 34.12007 94.20498 76.23951
#
# Poissons Ratio (x) = -0.01414 0.43912
# Poissons Ratio (y) = -0.00512 0.35820
# Poissons Ratio (z) = 0.19652 0.44261
#
# Static dielectric constant tensor:
#      x y z
#    x 1.764010 0.000000 0.000000 
#    y 0.000000 1.773700 0.000000 
#    z 0.000000 0.000000 1.754210 
# 
# From -- ./inp_files/1839.got.cif
#   From: 2010.05.17/outbox.cif.g08.bks.cpg/sg41_1_cif.got.tgz:1839.got - 2010.06.03 18:54:24.
