data_PCOD9367458
_publ_section_title
;
Structure prediction by ZEFSAII (Michael W. Deem and Ramdas Pophale) SiO2 
 PCOD9367458
Probable space group: A B A 2
;
_chemical_formula_sum "Si O2"
_cell_formula_units_Z 48
_cell_length_a 8.173282
_cell_length_b 8.699724
_cell_length_c 26.174924
_cell_angle_alpha 90.000000
_cell_angle_beta 90.000000
_cell_angle_gamma 90.000000
_cell_volume 1861.175760
_symmetry_space_group_name_H-M "A B A 2"
_symmetry_group_IT_number 41
_symmetry_cell_setting 'orthorhombic'
loop_
_space_group_symop_operation_xyz
x,y,z
-x,-y,z
1/2-x,y,1/2+z
1/2+x,-y,1/2+z
x,1/2+y,1/2+z
-x,1/2-y,1/2+z
1/2-x,1/2+y,z
1/2+x,1/2-y,z
loop_
_atom_site_type_symbol
_atom_site_label
_atom_site_fract_x
_atom_site_fract_y
_atom_site_fract_z
Si Si1 0.792391 0.766952 0.835150
Si Si2 0.260004 0.951400 0.610828
Si Si3 0.032748 0.205587 0.569681
Si Si4 0.000000 0.000000 0.478054
Si Si5 0.500000 0.500000 0.200784
Si Si6 0.050119 0.818903 0.762537
Si Si7 0.302918 0.479279 0.905333
O O1 0.736494 0.700995 0.780383
O O2 0.752566 0.690758 0.889149
O O3 0.756439 0.942206 0.850498
O O4 0.983720 0.779975 0.820344
O O5 0.396949 0.871775 0.576344
O O6 0.339822 0.981185 0.665025
O O7 0.102104 0.839573 0.611890
O O8 0.187096 0.098075 0.583100
O O9 0.973055 0.147301 0.515150
O O10 0.167973 0.024402 0.447262
O O11 0.477245 0.667714 0.227582
O O12 0.000000 0.000000 0.749651
O O13 0.500000 0.500000 0.915828
#
# Coordination Sequence:
#
# PCOD9367458 Si02
#       7
#     8   8   8   4   4   8   8
#     4  12  22  51  70 105 162 219 254 332 419 456
#     4  10  23  49  76 108 154 204 253 327 425 479
#     4  10  24  52  78 107 162 207 248 343 425 496
#     4  10  26  47  76 126 150 208 288 329 410 504
#     4  12  28  49  82 122 150 220 282 339 402 508
#     4  12  27  50  76 113 165 213 279 343 401 491
#     4  12  25  46  78 116 161 216 275 338 394 500
#
# _framework density 25.790149
#
# number of rings (size 3 to 8) (size 9 to 14) (size 15 to 20)
#    0.000    1.000    3.333    3.000    0.000    5.333 
#   19.500    0.000    0.000    0.000    0.000    0.000 
#    0.000    0.000    0.000    0.000    0.000    0.000 
#
# Total GULP energy -133639.373848 kJ/mol
# GULP energy per Si atom -5568.307244 kJ/mol
# Density = 2.573145 g / cm^3
# Si number density = 25.790149 Si / 1000 Ang^3
#
#
#
# Elastic Constant Matrix: (Units=GPa)
#
#
# Indices 1 2 3 4 5 6 
#
# 1 112.3354 63.0449 65.6529 0.0000 0.0000 0.0000
# 2 63.0449 123.3615 54.1193 0.0000 0.0000 0.0000
# 3 65.6529 54.1193 113.8644 0.0000 0.0000 0.0000
# 4 0.0000 0.0000 0.0000 -47.7967 0.0000 0.0000
# 5 0.0000 0.0000 0.0000 0.0000 59.0010 0.0000
# 6 0.0000 0.0000 0.0000 0.0000 0.0000 48.0605
#
#
#
# Elastic Compliance Matrix: (Units=1/GPa)
#
#
# Indices 1 2 3 4 5 6 
#
# 1 0.015601 -0.005088 -0.006577 0.000000 0.000000 0.000000
# 2 -0.005088 0.011901 -0.002723 0.000000 0.000000 0.000000
# 3 -0.006577 -0.002723 0.013869 0.000000 0.000000 0.000000
# 4 0.000000 0.000000 0.000000 -0.020922 0.000000 0.000000
# 5 0.000000 0.000000 0.000000 0.000000 0.016949 0.000000
# 6 0.000000 0.000000 0.000000 0.000000 0.000000 0.020807
#
#
# Mechanical properties :
#
#
# Convention : Reuss Voigt Hill
#
# Bulk Modulus (GPa) = 79.39517 79.46620 79.43068
# Shear Modulus (GPa) = 54.83679 22.96923 38.90301
#
# Velocity S-wave (km/s) = 4.61615 2.98756 3.88808
# Velocity P-wave (km/s) = 7.69829 6.54066 7.14297
#
# Compressibility (1/GPa) = 0.01259522
#
# Stress axis : x y z
#
# Youngs Moduli (GPa) = 64.09744 84.02712 72.10296
#
# Poissons Ratio (x) = 0.42750 0.47425
# Poissons Ratio (y) = 0.32610 0.19634
# Poissons Ratio (z) = 0.42159 0.22881
#
# Static dielectric constant tensor:
#      x y z
#    x 2.077250 0.000000 0.000000 
#    y 0.000000 2.656890 0.000000 
#    z 0.000000 0.000000 1.963010 
# 
# From -- ./inp_files/12672.got.cif
#   From: 2010.05.17/outbox.cif.g08.bks.cpg/sg41_7_cif.got.tgz:12672.got - 2010.06.03 18:54:24.
