data_PCOD9367056
_publ_section_title
;
Structure prediction by ZEFSAII (Michael W. Deem and Ramdas Pophale) SiO2 
 PCOD9367056
Probable space group: A B A 2
;
_chemical_formula_sum "Si O2"
_cell_formula_units_Z 64
_cell_length_a 9.675492
_cell_length_b 14.917243
_cell_length_c 20.497203
_cell_angle_alpha 90.000000
_cell_angle_beta 90.000000
_cell_angle_gamma 90.000000
_cell_volume 2958.395443
_symmetry_space_group_name_H-M "A B A 2"
_symmetry_group_IT_number 41
_symmetry_cell_setting 'orthorhombic'
loop_
_space_group_symop_operation_xyz
x,y,z
-x,-y,z
1/2-x,y,1/2+z
1/2+x,-y,1/2+z
x,1/2+y,1/2+z
-x,1/2-y,1/2+z
1/2-x,1/2+y,z
1/2+x,1/2-y,z
loop_
_atom_site_type_symbol
_atom_site_label
_atom_site_fract_x
_atom_site_fract_y
_atom_site_fract_z
Si Si1 0.623316 0.824330 0.974440
Si Si2 0.389375 0.114448 0.181673
Si Si3 0.813040 0.198642 0.241340
Si Si4 0.393687 0.073033 0.333264
Si Si5 0.550986 0.251419 0.332767
Si Si6 0.310025 0.839712 0.006910
Si Si7 0.700309 0.567196 0.640103
Si Si8 0.337616 0.999879 0.917197
O O1 0.599535 0.799214 0.898189
O O2 0.678787 0.925680 0.974190
O O3 0.474543 0.822401 0.008731
O O4 0.727673 0.752009 0.001978
O O5 0.335360 0.215508 0.192683
O O6 0.394650 0.078089 0.255654
O O7 0.544259 0.104348 0.154292
O O8 0.301060 0.040529 0.143190
O O9 0.680615 0.218056 0.288636
O O10 0.949257 0.192180 0.286145
O O11 0.788109 0.111784 0.197807
O O12 0.451790 0.169057 0.354745
O O13 0.248406 0.037872 0.357667
O O14 0.500000 0.000000 0.358267
O O15 0.262086 0.894388 0.069906
O O16 0.291027 0.903302 0.943321
O O17 0.500000 0.000000 0.903395
#
# Coordination Sequence:
#
# PCOD9367056 Si02
#       8
#     8   8   8   8   8   8   8   8
#     4  11  23  43  61  96 125 172 213 276 334 383
#     4  10  22  40  65  94 126 174 216 267 327 394
#     4  11  21  40  67 101 127 174 212 274 339 389
#     4  11  18  37  64  93 125 167 209 265 335 393
#     4  11  22  38  66  97 137 161 218 275 334 400
#     4  11  26  41  66  91 129 175 223 267 322 402
#     4  11  23  41  65  94 129 178 225 261 323 404
#     4  10  24  40  62  94 127 170 219 272 329 390
#
# _framework density 21.633348000000002
#
# number of rings (size 3 to 8) (size 9 to 14) (size 15 to 20)
#    0.000    1.250    3.750    3.750    7.000    3.000 
#    0.000    0.625    0.000    3.000    0.000    0.000 
#    0.000    0.000    0.000    0.000    0.000    0.000 
#
# Total GULP energy -178869.371072 kJ/mol
# GULP energy per Si atom -5589.667846 kJ/mol
# Density = 2.158411 g / cm^3
# Si number density = 21.633348 Si / 1000 Ang^3
#
#
#
# Elastic Constant Matrix: (Units=GPa)
#
#
# Indices 1 2 3 4 5 6 
#
# 1 18.7241 -9.7099 5.1724 0.0000 0.0000 0.0000
# 2 -9.7099 62.9746 -20.3979 0.0000 0.0000 0.0000
# 3 5.1724 -20.3979 44.5993 0.0000 0.0000 0.0000
# 4 0.0000 0.0000 0.0000 25.2965 0.0000 0.0000
# 5 0.0000 0.0000 0.0000 0.0000 11.9866 0.0000
# 6 0.0000 0.0000 0.0000 0.0000 0.0000 42.0162
#
#
#
# Elastic Compliance Matrix: (Units=1/GPa)
#
#
# Indices 1 2 3 4 5 6 
#
# 1 0.058415 0.007997 -0.003117 0.000000 0.000000 0.000000
# 2 0.007997 0.019736 0.008099 0.000000 0.000000 0.000000
# 3 -0.003117 0.008099 0.026487 0.000000 0.000000 0.000000
# 4 0.000000 0.000000 0.000000 0.039531 0.000000 0.000000
# 5 0.000000 0.000000 0.000000 0.000000 0.083426 0.000000
# 6 0.000000 0.000000 0.000000 0.000000 0.000000 0.023800
#
#
# Mechanical properties :
#
#
# Convention : Reuss Voigt Hill
#
# Bulk Modulus (GPa) = 7.65716 8.49190 8.07453
# Shear Modulus (GPa) = 18.58938 25.94211 22.26574
#
# Velocity S-wave (km/s) = 2.93455 3.46666 3.21165
# Velocity P-wave (km/s) = 3.87677 4.46739 4.18252
#
# Compressibility (1/GPa) = 0.13059680
#
# Stress axis : x y z
#
# Youngs Moduli (GPa) = 17.11875 50.66938 37.75368
#
# Poissons Ratio (x) = -0.40522 0.11768
# Poissons Ratio (y) = -0.13690 -0.30576
# Poissons Ratio (z) = 0.05336 -0.41036
#
# Static dielectric constant tensor:
#      x y z
#    x 1.809970 0.000000 0.000000 
#    y 0.000000 1.858940 0.000000 
#    z 0.000000 0.000000 1.794610 
# 
# From -- ./inp_files/12053.got.cif
#   From: 2010.05.17/outbox.cif.g08.bks.cpg/sg41_7_cif.got.tgz:12053.got - 2010.06.03 18:54:24.
