data_PCOD9367494
_publ_section_title
;
Structure prediction by ZEFSAII (Michael W. Deem and Ramdas Pophale) SiO2 
 PCOD9367494
Probable space group: A B A 2
;
_chemical_formula_sum "Si O2"
_cell_formula_units_Z 56
_cell_length_a 28.227208
_cell_length_b 13.801866
_cell_length_c 5.704530
_cell_angle_alpha 90.000000
_cell_angle_beta 90.000000
_cell_angle_gamma 90.000000
_cell_volume 2222.417246
_symmetry_space_group_name_H-M "A B A 2"
_symmetry_group_IT_number 41
_symmetry_cell_setting 'orthorhombic'
loop_
_space_group_symop_operation_xyz
x,y,z
-x,-y,z
1/2-x,y,1/2+z
1/2+x,-y,1/2+z
x,1/2+y,1/2+z
-x,1/2-y,1/2+z
1/2-x,1/2+y,z
1/2+x,1/2-y,z
loop_
_atom_site_type_symbol
_atom_site_label
_atom_site_fract_x
_atom_site_fract_y
_atom_site_fract_z
Si Si1 0.037912 0.650455 0.731970
Si Si2 0.724135 0.273096 0.352621
Si Si3 0.448881 0.357815 0.521938
Si Si4 0.139204 0.903366 0.262387
Si Si5 0.589054 0.992888 0.379376
Si Si6 0.369061 0.114516 0.995443
Si Si7 0.744219 0.567222 0.317735
O O1 0.033687 0.759740 0.640246
O O2 0.056845 0.574362 0.541430
O O3 0.079141 0.653660 0.928270
O O4 0.987444 0.617769 0.827037
O O5 0.755327 0.296974 0.590018
O O6 0.673241 0.318370 0.411771
O O7 0.719919 0.156466 0.333547
O O8 0.397476 0.339422 0.406715
O O9 0.441911 0.450197 0.688319
O O10 0.193446 0.879425 0.298830
O O11 0.137157 0.013105 0.360828
O O12 0.117440 0.921029 0.008055
O O13 0.627405 0.920112 0.263238
O O14 0.747531 0.514678 0.569175
#
# Coordination Sequence:
#
# PCOD9367494 Si02
#       7
#     8   8   8   8   8   8   8
#     4  11  28  48  75 114 147 201 255 318 393 475
#     4  10  24  42  70 105 143 197 251 316 386 459
#     4  11  28  48  75 114 147 201 255 318 393 475
#     4  10  25  46  74 105 145 200 253 319 388 467
#     4  10  26  51  76 102 156 194 258 322 391 468
#     4  10  25  46  74 105 145 200 253 319 388 467
#     4  10  24  42  70 105 143 197 251 316 386 459
#
# _framework density 25.197787000000002
#
# number of rings (size 3 to 8) (size 9 to 14) (size 15 to 20)
#    0.000    1.714    0.000    0.000   16.000    9.714 
#    0.000    0.000    0.000    0.000    0.000    0.000 
#    0.000    0.000    0.000    0.000    0.000    0.000 
#
# Total GULP energy -156622.196639 kJ/mol
# GULP energy per Si atom -5593.649880 kJ/mol
# Density = 2.514044 g / cm^3
# Si number density = 25.197787 Si / 1000 Ang^3
#
#
#
# Elastic Constant Matrix: (Units=GPa)
#
#
# Indices 1 2 3 4 5 6 
#
# 1 66.9108 -12.1047 20.2312 0.0000 0.0000 0.0000
# 2 -12.1047 85.3885 8.4479 0.0000 0.0000 0.0000
# 3 20.2312 8.4479 138.8641 0.0000 0.0000 0.0000
# 4 0.0000 0.0000 0.0000 16.8518 0.0000 0.0000
# 5 0.0000 0.0000 0.0000 0.0000 35.2215 0.0000
# 6 0.0000 0.0000 0.0000 0.0000 0.0000 101.7871
#
#
#
# Elastic Compliance Matrix: (Units=1/GPa)
#
#
# Indices 1 2 3 4 5 6 
#
# 1 0.016163 0.002540 -0.002509 0.000000 0.000000 0.000000
# 2 0.002540 0.012181 -0.001111 0.000000 0.000000 0.000000
# 3 -0.002509 -0.001111 0.007634 0.000000 0.000000 0.000000
# 4 0.000000 0.000000 0.000000 0.059341 0.000000 0.000000
# 5 0.000000 0.000000 0.000000 0.000000 0.028392 0.000000
# 6 0.000000 0.000000 0.000000 0.000000 0.000000 0.009824
#
#
# Mechanical properties :
#
#
# Convention : Reuss Voigt Hill
#
# Bulk Modulus (GPa) = 29.57054 36.03468 32.80261
# Shear Modulus (GPa) = 34.02052 49.07801 41.54926
#
# Velocity S-wave (km/s) = 3.67841 4.41808 4.06510
# Velocity P-wave (km/s) = 5.45910 6.35277 5.92281
#
# Compressibility (1/GPa) = 0.03381744
#
# Stress axis : x y z
#
# Youngs Moduli (GPa) = 61.86798 82.09424 130.98495
#
# Poissons Ratio (x) = -0.20849 0.32869
# Poissons Ratio (y) = -0.15712 0.14553
# Poissons Ratio (z) = 0.15525 0.09121
#
# Static dielectric constant tensor:
#      x y z
#    x 2.046900 0.000000 0.000000 
#    y 0.000000 1.950620 0.000000 
#    z 0.000000 0.000000 2.133330 
# 
# From -- ./inp_files/1325.got.cif
#   From: 2010.05.17/outbox.cif.g08.bks.cpg/sg41_1_cif.got.tgz:1325.got - 2010.06.03 18:54:24.
