data_PCOD9367270
_publ_section_title
;
Structure prediction by ZEFSAII (Michael W. Deem and Ramdas Pophale) SiO2 
 PCOD9367270
Probable space group: A B A 2
;
_chemical_formula_sum "Si O2"
_cell_formula_units_Z 60
_cell_length_a 23.375626
_cell_length_b 23.068665
_cell_length_c 5.044177
_cell_angle_alpha 90.000000
_cell_angle_beta 90.000000
_cell_angle_gamma 90.000000
_cell_volume 2720.044630
_symmetry_space_group_name_H-M "A B A 2"
_symmetry_group_IT_number 41
_symmetry_cell_setting 'orthorhombic'
loop_
_space_group_symop_operation_xyz
x,y,z
-x,-y,z
1/2-x,y,1/2+z
1/2+x,-y,1/2+z
x,1/2+y,1/2+z
-x,1/2-y,1/2+z
1/2-x,1/2+y,z
1/2+x,1/2-y,z
loop_
_atom_site_type_symbol
_atom_site_label
_atom_site_fract_x
_atom_site_fract_y
_atom_site_fract_z
Si Si1 0.123987 0.817133 0.004410
Si Si2 0.390762 0.519172 0.617706
Si Si3 0.024143 0.602686 0.857518
Si Si4 0.000000 0.500000 0.486531
Si Si5 0.404800 0.390883 0.518393
Si Si6 0.709813 0.400883 0.771731
Si Si7 0.967659 0.766778 0.234095
Si Si8 0.288330 0.721159 0.609212
O O1 0.100523 0.853974 0.250341
O O2 0.130146 0.861649 0.758946
O O3 0.083016 0.768765 0.870984
O O4 0.175799 0.779681 0.123772
O O5 0.418864 0.569052 0.438621
O O6 0.442185 0.507610 0.822830
O O7 0.383177 0.456688 0.483392
O O8 0.333956 0.546735 0.736336
O O9 0.994400 0.557107 0.662808
O O10 0.039950 0.664553 0.741869
O O11 0.973856 0.610486 0.078095
O O12 0.738392 0.403152 0.059570
O O13 0.680670 0.338516 0.699728
O O14 0.020078 0.752355 0.434526
O O15 0.234591 0.720184 0.809290
#
# Coordination Sequence:
#
# PCOD9367270 Si02
#       8
#     8   8   8   4   8   8   8   8
#     4  12  24  44  65  98 136 184 216 289 348 410
#     4  12  26  44  71 105 141 196 240 292 349 434
#     4  12  24  41  65 100 139 192 225 283 347 415
#     4  12  24  42  70 100 148 186 246 278 356 430
#     4  12  24  42  66  97 145 179 225 276 348 416
#     4  10  25  48  75 103 138 180 240 311 354 405
#     4  12  25  40  63  95 138 172 222 277 335 416
#     4  10  22  46  73  99 130 175 239 295 351 412
#
# _framework density 22.058463
#
# number of rings (size 3 to 8) (size 9 to 14) (size 15 to 20)
#    0.000    0.533    5.333    2.400    3.733    0.000 
#    4.800    4.000    0.000    0.000    0.000    0.000 
#    0.000    0.000    0.000    0.000    0.000    0.000 
#
# Total GULP energy -167653.376293 kJ/mol
# GULP energy per Si atom -5588.445876 kJ/mol
# Density = 2.200826 g / cm^3
# Si number density = 22.058463 Si / 1000 Ang^3
#
#
#
# Elastic Constant Matrix: (Units=GPa)
#
#
# Indices 1 2 3 4 5 6 
#
# 1 35.9427 26.8612 -2.1425 0.0000 0.0000 0.0000
# 2 26.8612 168.7425 13.2133 0.0000 0.0000 0.0000
# 3 -2.1425 13.2133 62.4721 0.0000 0.0000 0.0000
# 4 0.0000 0.0000 0.0000 -381.3405 0.0000 0.0000
# 5 0.0000 0.0000 0.0000 0.0000 1.2979 0.0000
# 6 0.0000 0.0000 0.0000 0.0000 0.0000 44.0359
#
#
#
# Elastic Compliance Matrix: (Units=1/GPa)
#
#
# Indices 1 2 3 4 5 6 
#
# 1 0.031874 -0.005246 0.002203 0.000000 0.000000 0.000000
# 2 -0.005246 0.006890 -0.001637 0.000000 0.000000 0.000000
# 3 0.002203 -0.001637 0.016429 0.000000 0.000000 0.000000
# 4 0.000000 0.000000 0.000000 -0.002622 0.000000 0.000000
# 5 0.000000 0.000000 0.000000 0.000000 0.770503 0.000000
# 6 0.000000 0.000000 0.000000 0.000000 0.000000 0.022709
#
#
# Mechanical properties :
#
#
# Convention : Reuss Voigt Hill
#
# Bulk Modulus (GPa) = 21.81916 38.11348 29.96632
# Shear Modulus (GPa) = 5.74435 -51.91966 -23.08765
#
# Velocity S-wave (km/s) = 1.61549 -4.85679 -3.23872
# Velocity P-wave (km/s) = 3.65961 3.75969 0.60933
#
# Compressibility (1/GPa) = 0.04583129
#
# Stress axis : x y z
#
# Youngs Moduli (GPa) = 31.37338 145.14796 60.86812
#
# Poissons Ratio (x) = 0.76150 -0.13408
# Poissons Ratio (y) = 0.16460 0.09965
# Poissons Ratio (z) = -0.06911 0.23762
#
# Static dielectric constant tensor:
#      x y z
#    x 1.841180 0.000000 0.000000 
#    y 0.000000 1.994250 0.000000 
#    z 0.000000 0.000000 1.824270 
# 
# From -- ./inp_files/1011.got.cif
#   From: 2010.05.17/outbox.cif.g08.bks.cpg/sg41_1_cif.got.tgz:1011.got - 2010.06.03 18:54:24.
