data_PCOD9367021
_publ_section_title
;
Structure prediction by ZEFSAII (Michael W. Deem and Ramdas Pophale) SiO2 
 PCOD9367021
Probable space group: A B A 2
;
_chemical_formula_sum "Si O2"
_cell_formula_units_Z 28
_cell_length_a 10.961324
_cell_length_b 21.925091
_cell_length_c 4.534035
_cell_angle_alpha 90.000000
_cell_angle_beta 90.000000
_cell_angle_gamma 90.000000
_cell_volume 1089.655682
_symmetry_space_group_name_H-M "A B A 2"
_symmetry_group_IT_number 41
_symmetry_cell_setting 'orthorhombic'
loop_
_space_group_symop_operation_xyz
x,y,z
-x,-y,z
1/2-x,y,1/2+z
1/2+x,-y,1/2+z
x,1/2+y,1/2+z
-x,1/2-y,1/2+z
1/2-x,1/2+y,z
1/2+x,1/2-y,z
loop_
_atom_site_type_symbol
_atom_site_label
_atom_site_fract_x
_atom_site_fract_y
_atom_site_fract_z
Si Si1 0.500000 0.000000 0.599010
Si Si2 0.000000 0.414623 0.099011
Si Si3 0.166097 0.682733 0.413781
Si Si4 0.333903 0.317267 0.284240
O O1 0.435700 0.956311 0.354681
O O2 0.564300 0.956311 0.843340
O O3 0.912369 0.371811 0.289500
O O4 0.087632 0.371811 0.908521
O O5 0.201448 0.679737 0.754181
O O6 0.114303 0.750000 0.349011
O O7 0.201448 0.320263 0.443840
#
# Coordination Sequence:
#
# PCOD9367021 Si02
#       4
#     4   8   8   8
#     4  10  24  40  60  88 120 168 220 236 280 374
#     4  11  22  43  62  85 128 165 198 256 300 343
#     4  10  22  39  63  94 120 151 200 251 309 370
#     4  10  22  39  63  94 120 151 200 251 309 370
#
# _framework density 25.696192
#
# number of rings (size 3 to 8) (size 9 to 14) (size 15 to 20)
#    0.000    1.714    0.000    3.429    0.000    9.143 
#    0.000   28.571    0.000    0.000    0.000    0.000 
#    0.000    0.000    0.000    0.000    0.000    0.000 
#
# Total GULP energy -78135.458787 kJ/mol
# GULP energy per Si atom -5581.104199 kJ/mol
# Density = 2.563771 g / cm^3
# Si number density = 25.696192 Si / 1000 Ang^3
#
#
#
# Elastic Constant Matrix: (Units=GPa)
#
#
# Indices 1 2 3 4 5 6 
#
# 1 32.9338 26.8730 14.6942 0.0000 0.0000 0.0000
# 2 26.8730 151.3457 64.8969 0.0000 0.0000 0.0000
# 3 14.6942 64.8969 156.8569 0.0000 0.0000 0.0000
# 4 0.0000 0.0000 0.0000 76.7474 0.0000 0.0000
# 5 0.0000 0.0000 0.0000 0.0000 37.6559 0.0000
# 6 0.0000 0.0000 0.0000 0.0000 0.0000 20.8472
#
#
#
# Elastic Compliance Matrix: (Units=1/GPa)
#
#
# Indices 1 2 3 4 5 6 
#
# 1 0.035607 -0.005947 -0.000875 0.000000 0.000000 0.000000
# 2 -0.005947 0.009026 -0.003177 0.000000 0.000000 0.000000
# 3 -0.000875 -0.003177 0.007772 0.000000 0.000000 0.000000
# 4 0.000000 0.000000 0.000000 0.013030 0.000000 0.000000
# 5 0.000000 0.000000 0.000000 0.000000 0.026556 0.000000
# 6 0.000000 0.000000 0.000000 0.000000 0.000000 0.047968
#
#
# Mechanical properties :
#
#
# Convention : Reuss Voigt Hill
#
# Bulk Modulus (GPa) = 30.85876 61.56273 46.21074
# Shear Modulus (GPa) = 29.28100 42.69492 35.98796
#
# Velocity S-wave (km/s) = 3.37932 4.08061 3.74641
# Velocity P-wave (km/s) = 5.22126 6.79792 6.06108
#
# Compressibility (1/GPa) = 0.03240571
#
# Stress axis : x y z
#
# Youngs Moduli (GPa) = 28.08433 110.79455 128.67206
#
# Poissons Ratio (x) = 0.65891 0.11260
# Poissons Ratio (y) = 0.16702 0.40881
# Poissons Ratio (z) = 0.02458 0.35201
#
# Static dielectric constant tensor:
#      x y z
#    x 2.007750 0.000000 0.000000 
#    y 0.000000 2.114350 0.000000 
#    z 0.000000 0.000000 1.951650 
# 
# From -- ./inp_files/72.got.cif
#   From: 2010.05.17/outbox.cif.g08.bks.cpg/sg41_1_cif.got.tgz:72.got - 2010.06.03 18:54:24.
