data_PCOD9367881
_publ_section_title
;
Structure prediction by ZEFSAII (Michael W. Deem and Ramdas Pophale) SiO2 
 PCOD9367881
Probable space group: A B A 2
;
_chemical_formula_sum "Si O2"
_cell_formula_units_Z 52
_cell_length_a 11.134349
_cell_length_b 8.876896
_cell_length_c 23.220068
_cell_angle_alpha 90.000000
_cell_angle_beta 90.000000
_cell_angle_gamma 90.000000
_cell_volume 2295.035718
_symmetry_space_group_name_H-M "A B A 2"
_symmetry_group_IT_number 41
_symmetry_cell_setting 'orthorhombic'
loop_
_space_group_symop_operation_xyz
x,y,z
-x,-y,z
1/2-x,y,1/2+z
1/2+x,-y,1/2+z
x,1/2+y,1/2+z
-x,1/2-y,1/2+z
1/2-x,1/2+y,z
1/2+x,1/2-y,z
loop_
_atom_site_type_symbol
_atom_site_label
_atom_site_fract_x
_atom_site_fract_y
_atom_site_fract_z
Si Si1 0.876326 0.928602 0.763660
Si Si2 0.823636 0.758666 0.093797
Si Si3 0.500000 0.000000 0.617764
Si Si4 0.383734 0.598295 0.419401
Si Si5 0.127467 0.449710 0.393030
Si Si6 0.701295 0.137971 0.700175
Si Si7 0.123765 0.538048 0.049297
O O1 0.860351 0.759843 0.741497
O O2 0.877038 0.964756 0.831398
O O3 0.760897 0.012335 0.738974
O O4 0.000000 0.000000 0.740956
O O5 0.808404 0.699574 0.158793
O O6 0.816066 0.625957 0.047285
O O7 0.938501 0.863541 0.083775
O O8 0.707285 0.859659 0.086483
O O9 0.396289 0.931155 0.657380
O O10 0.500000 0.500000 0.398143
O O11 0.256528 0.508681 0.415972
O O12 0.374257 0.765967 0.391937
O O13 0.402797 0.612477 0.488273
O O14 0.000000 0.500000 0.422335
O O15 0.000000 0.500000 0.080521
#
# Coordination Sequence:
#
# PCOD9367881 Si02
#       7
#     8   8   4   8   8   8   8
#     4  11  25  43  67  97 136 177 226 277 340 405
#     4  12  23  43  65  98 137 179 225 277 332 403
#     4  12  24  40  68 100 140 184 230 274 340 396
#     4  11  24  46  72 103 139 180 233 293 357 419
#     4  11  24  46  72 103 139 180 233 293 357 419
#     4  12  23  43  65  98 137 179 225 277 332 403
#     4  11  25  43  67  97 136 177 226 277 340 405
#
# _framework density 22.657599000000001
#
# number of rings (size 3 to 8) (size 9 to 14) (size 15 to 20)
#    0.000    0.615    3.077    4.615    0.000    3.692 
#    2.769    0.000    0.000    0.000    0.000    0.000 
#    0.000    0.000    0.000    0.000    0.000    0.000 
#
# Total GULP energy -145226.605674 kJ/mol
# GULP energy per Si atom -5585.638680 kJ/mol
# Density = 2.260603 g / cm^3
# Si number density = 22.657599 Si / 1000 Ang^3
#
#
#
# Elastic Constant Matrix: (Units=GPa)
#
#
# Indices 1 2 3 4 5 6 
#
# 1 122.6419 22.8113 -12.4635 0.0000 0.0000 0.0000
# 2 22.8113 108.6818 -0.1713 0.0000 0.0000 0.0000
# 3 -12.4635 -0.1713 44.0059 0.0000 0.0000 0.0000
# 4 0.0000 0.0000 0.0000 25.7442 0.0000 0.0000
# 5 0.0000 0.0000 0.0000 0.0000 29.7926 0.0000
# 6 0.0000 0.0000 0.0000 0.0000 0.0000 42.7409
#
#
#
# Elastic Compliance Matrix: (Units=1/GPa)
#
#
# Indices 1 2 3 4 5 6 
#
# 1 0.008746 -0.001832 0.002470 0.000000 0.000000 0.000000
# 2 -0.001832 0.009585 -0.000481 0.000000 0.000000 0.000000
# 3 0.002470 -0.000481 0.023422 0.000000 0.000000 0.000000
# 4 0.000000 0.000000 0.000000 0.038844 0.000000 0.000000
# 5 0.000000 0.000000 0.000000 0.000000 0.033565 0.000000
# 6 0.000000 0.000000 0.000000 0.000000 0.000000 0.023397
#
#
# Mechanical properties :
#
#
# Convention : Reuss Voigt Hill
#
# Bulk Modulus (GPa) = 23.77245 32.85361 28.31303
# Shear Modulus (GPa) = 33.05419 37.33241 35.19330
#
# Velocity S-wave (km/s) = 3.82364 4.06356 3.94543
# Velocity P-wave (km/s) = 5.47800 6.04551 5.76874
#
# Compressibility (1/GPa) = 0.04206550
#
# Stress axis : x y z
#
# Youngs Moduli (GPa) = 114.34438 104.33108 42.69514
#
# Poissons Ratio (x) = 0.19110 -0.10545
# Poissons Ratio (y) = 0.20945 0.02056
# Poissons Ratio (z) = -0.28241 0.05023
#
# Static dielectric constant tensor:
#      x y z
#    x 1.928070 0.000000 0.000000 
#    y 0.000000 2.770650 0.000000 
#    z 0.000000 0.000000 1.818860 
# 
# From -- ./inp_files/12498.got.cif
#   From: 2010.05.17/outbox.cif.g08.bks.cpg/sg41_7_cif.got.tgz:12498.got - 2010.06.03 18:54:24.
