data_PCOD9367198
_publ_section_title
;
Structure prediction by ZEFSAII (Michael W. Deem and Ramdas Pophale) SiO2 
 PCOD9367198
Probable space group: A B A 2
;
_chemical_formula_sum "Si O2"
_cell_formula_units_Z 56
_cell_length_a 13.762498
_cell_length_b 15.193998
_cell_length_c 10.387914
_cell_angle_alpha 90.000000
_cell_angle_beta 90.000000
_cell_angle_gamma 90.000000
_cell_volume 2172.189346
_symmetry_space_group_name_H-M "A B A 2"
_symmetry_group_IT_number 41
_symmetry_cell_setting 'orthorhombic'
loop_
_space_group_symop_operation_xyz
x,y,z
-x,-y,z
1/2-x,y,1/2+z
1/2+x,-y,1/2+z
x,1/2+y,1/2+z
-x,1/2-y,1/2+z
1/2-x,1/2+y,z
1/2+x,1/2-y,z
loop_
_atom_site_type_symbol
_atom_site_label
_atom_site_fract_x
_atom_site_fract_y
_atom_site_fract_z
Si Si1 0.676579 0.431242 0.365730
Si Si2 0.152742 0.867823 0.657278
Si Si3 0.393209 0.248204 0.993296
Si Si4 0.500000 0.500000 0.213230
Si Si5 0.747491 0.101700 0.902830
Si Si6 0.229535 0.691291 0.650311
Si Si7 0.500000 0.000000 0.275469
Si Si8 0.933449 0.367119 0.491942
O O1 0.624426 0.348489 0.433194
O O2 0.592533 0.494761 0.307189
O O3 0.744639 0.499468 0.441170
O O4 0.733734 0.387519 0.248238
O O5 0.244088 0.897857 0.747588
O O6 0.169146 0.863301 0.504479
O O7 0.151829 0.764816 0.696858
O O8 0.069766 0.937215 0.691932
O O9 0.334715 0.233162 0.127316
O O10 0.502955 0.278651 0.983329
O O11 0.338235 0.335977 0.939900
O O12 0.520995 0.418769 0.115872
O O13 0.177578 0.658996 0.520092
O O14 0.552832 0.930889 0.370688
#
# Coordination Sequence:
#
# PCOD9367198 Si02
#       8
#     8   8   8   4   8   8   4   8
#     4  11  24  42  67 103 140 190 246 306 372 444
#     4  11  25  47  72 106 152 193 254 311 382 450
#     4  11  24  44  69 103 145 195 247 307 376 450
#     4   9  24  39  68 100 142 192 246 296 376 446
#     4  11  26  43  74 105 149 192 250 316 373 455
#     4  10  24  45  69 105 147 194 255 305 382 457
#     4  11  22  43  76 102 150 198 250 316 382 454
#     4  10  22  43  71 101 147 197 246 309 380 452
#
# _framework density 25.780442000000001
#
# number of rings (size 3 to 8) (size 9 to 14) (size 15 to 20)
#    0.000    1.429    2.857    0.000    8.000    4.000 
#    0.000    1.429    0.000    0.000    0.000    0.000 
#    0.000    0.000    0.000    0.000    0.000    0.000 
#
# Total GULP energy -156151.109815 kJ/mol
# GULP energy per Si atom -5576.825351 kJ/mol
# Density = 2.572176 g / cm^3
# Si number density = 25.780442 Si / 1000 Ang^3
#
#
#
# Elastic Constant Matrix: (Units=GPa)
#
#
# Indices 1 2 3 4 5 6 
#
# 1 70.0094 37.4200 18.9383 0.0000 0.0000 0.0000
# 2 37.4200 146.7256 12.0769 0.0000 0.0000 0.0000
# 3 18.9383 12.0769 51.5653 0.0000 0.0000 0.0000
# 4 0.0000 0.0000 0.0000 40.2306 0.0000 0.0000
# 5 0.0000 0.0000 0.0000 0.0000 20.0666 0.0000
# 6 0.0000 0.0000 0.0000 0.0000 0.0000 43.7297
#
#
#
# Elastic Compliance Matrix: (Units=1/GPa)
#
#
# Indices 1 2 3 4 5 6 
#
# 1 0.018020 -0.004131 -0.005651 0.000000 0.000000 0.000000
# 2 -0.004131 0.007896 -0.000332 0.000000 0.000000 0.000000
# 3 -0.005651 -0.000332 0.021546 0.000000 0.000000 0.000000
# 4 0.000000 0.000000 0.000000 0.024857 0.000000 0.000000
# 5 0.000000 0.000000 0.000000 0.000000 0.049834 0.000000
# 6 0.000000 0.000000 0.000000 0.000000 0.000000 0.022868
#
#
# Mechanical properties :
#
#
# Convention : Reuss Voigt Hill
#
# Bulk Modulus (GPa) = 36.71744 45.01895 40.86820
# Shear Modulus (GPa) = 28.68175 34.12972 31.40573
#
# Velocity S-wave (km/s) = 3.33909 3.64244 3.49406
# Velocity P-wave (km/s) = 5.39809 5.93213 5.67140
#
# Compressibility (1/GPa) = 0.02723501
#
# Stress axis : x y z
#
# Youngs Moduli (GPa) = 55.49311 126.64234 46.41215
#
# Poissons Ratio (x) = 0.52312 0.26227
# Poissons Ratio (y) = 0.22922 0.01542
# Poissons Ratio (z) = 0.31358 0.04208
#
# Static dielectric constant tensor:
#      x y z
#    x 2.078350 0.000000 0.000000 
#    y 0.000000 2.019890 0.000000 
#    z 0.000000 0.000000 2.132100 
# 
# From -- ./inp_files/5637.got.cif
#   From: 2010.05.17/outbox.cif.g08.bks.cpg/sg41_3_cif.got.tgz:5637.got - 2010.06.03 18:54:24.
