data_PCOD9367323
_publ_section_title
;
Structure prediction by ZEFSAII (Michael W. Deem and Ramdas Pophale) SiO2 
 PCOD9367323
Probable space group: A B A 2
;
_chemical_formula_sum "Si O2"
_cell_formula_units_Z 60
_cell_length_a 11.563577
_cell_length_b 11.786587
_cell_length_c 18.759818
_cell_angle_alpha 90.000000
_cell_angle_beta 90.000000
_cell_angle_gamma 90.000000
_cell_volume 2556.871389
_symmetry_space_group_name_H-M "A B A 2"
_symmetry_group_IT_number 41
_symmetry_cell_setting 'orthorhombic'
loop_
_space_group_symop_operation_xyz
x,y,z
-x,-y,z
1/2-x,y,1/2+z
1/2+x,-y,1/2+z
x,1/2+y,1/2+z
-x,1/2-y,1/2+z
1/2-x,1/2+y,z
1/2+x,1/2-y,z
loop_
_atom_site_type_symbol
_atom_site_label
_atom_site_fract_x
_atom_site_fract_y
_atom_site_fract_z
Si Si1 0.782082 0.753800 0.069270
Si Si2 0.459346 0.688235 0.233487
Si Si3 0.500000 0.500000 0.985161
Si Si4 0.666689 0.819579 0.421391
Si Si5 0.397491 0.925054 0.165029
Si Si6 0.449179 0.332514 0.098414
Si Si7 0.749074 0.940191 0.280960
Si Si8 0.919951 0.597831 0.869187
O O1 0.814367 0.628916 0.104214
O O2 0.650793 0.762248 0.100119
O O3 0.913492 0.805146 0.082486
O O4 0.754111 0.808369 0.991061
O O5 0.449818 0.816786 0.208089
O O6 0.544854 0.624852 0.179209
O O7 0.334757 0.631285 0.231216
O O8 0.504625 0.667207 0.311959
O O9 0.572442 0.415036 0.937298
O O10 0.421366 0.423509 0.037514
O O11 0.710541 0.851688 0.342783
O O12 0.620127 0.691400 0.423188
O O13 0.500000 0.000000 0.132975
O O14 0.337863 0.999368 0.227150
O O15 0.817100 0.036522 0.326247
O O16 0.000000 0.500000 0.900443
#
# Coordination Sequence:
#
# PCOD9367323 Si02
#       8
#     8   8   4   8   8   8   8   8
#     4  10  25  46  71 105 150 199 255 318 390 475
#     4  10  23  43  70 104 150 190 256 325 394 461
#     4  10  26  42  74 102 148 210 252 312 400 482
#     4  11  25  46  69 108 150 204 257 321 399 490
#     4  11  24  42  69 109 144 199 259 334 386 474
#     4  10  23  46  73 104 144 203 254 320 387 469
#     4  11  24  40  72 107 146 201 259 330 403 473
#     4  10  23  41  67 102 139 195 245 318 393 472
#
# _framework density 23.466179
#
# number of rings (size 3 to 8) (size 9 to 14) (size 15 to 20)
#    0.000    1.600    0.000    2.400    9.333   10.133 
#    4.800    0.000    0.000    0.000    0.000    0.000 
#    0.000    0.000    0.000    0.000    0.000    0.000 
#
# Total GULP energy -167006.142256 kJ/mol
# GULP energy per Si atom -5566.871409 kJ/mol
# Density = 2.341277 g / cm^3
# Si number density = 23.466179 Si / 1000 Ang^3
#
#
#
# Elastic Constant Matrix: (Units=GPa)
#
#
# Indices 1 2 3 4 5 6 
#
# 1 80.1118 35.9498 10.7131 0.0000 0.0000 0.0000
# 2 35.9498 95.7843 21.0630 0.0000 0.0000 0.0000
# 3 10.7131 21.0630 34.1994 0.0000 0.0000 0.0000
# 4 0.0000 0.0000 0.0000 48.9224 0.0000 0.0000
# 5 0.0000 0.0000 0.0000 0.0000 32.4726 0.0000
# 6 0.0000 0.0000 0.0000 0.0000 0.0000 30.4746
#
#
#
# Elastic Compliance Matrix: (Units=1/GPa)
#
#
# Indices 1 2 3 4 5 6 
#
# 1 0.015071 -0.005342 -0.001431 0.000000 0.000000 0.000000
# 2 -0.005342 0.013969 -0.006930 0.000000 0.000000 0.000000
# 3 -0.001431 -0.006930 0.033957 0.000000 0.000000 0.000000
# 4 0.000000 0.000000 0.000000 0.020441 0.000000 0.000000
# 5 0.000000 0.000000 0.000000 0.000000 0.030795 0.000000
# 6 0.000000 0.000000 0.000000 0.000000 0.000000 0.032814
#
#
# Mechanical properties :
#
#
# Convention : Reuss Voigt Hill
#
# Bulk Modulus (GPa) = 28.09705 38.39412 33.24559
# Shear Modulus (GPa) = 26.83616 31.86524 29.35070
#
# Velocity S-wave (km/s) = 3.38540 3.68900 3.54045
# Velocity P-wave (km/s) = 5.22309 5.87724 5.55979
#
# Compressibility (1/GPa) = 0.03559093
#
# Stress axis : x y z
#
# Youngs Moduli (GPa) = 66.35252 71.58761 29.44930
#
# Poissons Ratio (x) = 0.38240 0.04215
# Poissons Ratio (y) = 0.35444 0.20408
# Poissons Ratio (z) = 0.09496 0.49610
#
# Static dielectric constant tensor:
#      x y z
#    x 1.954650 0.000000 0.000000 
#    y 0.000000 1.614110 0.000000 
#    z 0.000000 0.000000 1.922010 
# 
# From -- ./inp_files/11426.got.cif
#   From: 2010.05.17/outbox.cif.g08.bks.cpg/sg41_6_cif.got.tgz:11426.got - 2010.06.03 18:54:24.
