data_PCOD9367626
_publ_section_title
;
Structure prediction by ZEFSAII (Michael W. Deem and Ramdas Pophale) SiO2 
 PCOD9367626
Probable space group: A B A 2
;
_chemical_formula_sum "Si O2"
_cell_formula_units_Z 40
_cell_length_a 15.531935
_cell_length_b 9.616421
_cell_length_c 9.916011
_cell_angle_alpha 90.000000
_cell_angle_beta 90.000000
_cell_angle_gamma 90.000000
_cell_volume 1481.071525
_symmetry_space_group_name_H-M "A B A 2"
_symmetry_group_IT_number 41
_symmetry_cell_setting 'orthorhombic'
loop_
_space_group_symop_operation_xyz
x,y,z
-x,-y,z
1/2-x,y,1/2+z
1/2+x,-y,1/2+z
x,1/2+y,1/2+z
-x,1/2-y,1/2+z
1/2-x,1/2+y,z
1/2+x,1/2-y,z
loop_
_atom_site_type_symbol
_atom_site_label
_atom_site_fract_x
_atom_site_fract_y
_atom_site_fract_z
Si Si1 0.647854 0.973830 0.363180
Si Si2 0.915615 0.178771 0.062673
Si Si3 0.948151 0.693053 0.921069
Si Si4 0.612108 0.447067 0.290848
Si Si5 0.266246 0.600031 0.615228
O O1 0.600334 0.825080 0.360232
O O2 0.683565 0.004906 0.215033
O O3 0.720094 0.951913 0.480042
O O4 0.589295 0.093576 0.423279
O O5 0.833414 0.279330 0.076630
O O6 0.907972 0.057878 0.172443
O O7 0.006362 0.259754 0.059864
O O8 0.884426 0.560579 0.914918
O O9 0.033246 0.644559 0.840247
O O10 0.690245 0.361583 0.224267
#
# Coordination Sequence:
#
# PCOD9367626 Si02
#       5
#     8   8   8   8   8
#     4  11  26  43  76 112 152 203 264 324 388 470
#     4  11  25  48  75 108 153 207 259 326 394 469
#     4  11  24  45  74 109 149 203 258 317 391 461
#     4  10  25  47  72 106 155 195 260 321 386 464
#     4  11  25  46  73 114 151 204 261 322 387 468
#
# _framework density 27.007472
#
# number of rings (size 3 to 8) (size 9 to 14) (size 15 to 20)
#    0.000    1.200    2.000    1.800   14.000    3.200 
#    3.600    6.000    0.000    0.000    0.000    0.000 
#    0.000    0.000    0.000    0.000    0.000    0.000 
#
# Total GULP energy -111739.819418 kJ/mol
# GULP energy per Si atom -5586.990971 kJ/mol
# Density = 2.694600 g / cm^3
# Si number density = 27.007472 Si / 1000 Ang^3
#
#
#
# Elastic Constant Matrix: (Units=GPa)
#
#
# Indices 1 2 3 4 5 6 
#
# 1 115.1102 45.7648 18.5395 0.0000 0.0000 0.0000
# 2 45.7648 129.4464 34.6520 0.0000 0.0000 0.0000
# 3 18.5395 34.6520 130.7465 0.0000 0.0000 0.0000
# 4 0.0000 0.0000 0.0000 34.3230 0.0000 0.0000
# 5 0.0000 0.0000 0.0000 0.0000 67.4417 0.0000
# 6 0.0000 0.0000 0.0000 0.0000 0.0000 42.0266
#
#
#
# Elastic Compliance Matrix: (Units=1/GPa)
#
#
# Indices 1 2 3 4 5 6 
#
# 1 0.010141 -0.003445 -0.000525 0.000000 0.000000 0.000000
# 2 -0.003445 0.009485 -0.002025 0.000000 0.000000 0.000000
# 3 -0.000525 -0.002025 0.008260 0.000000 0.000000 0.000000
# 4 0.000000 0.000000 0.000000 0.029135 0.000000 0.000000
# 5 0.000000 0.000000 0.000000 0.000000 0.014828 0.000000
# 6 0.000000 0.000000 0.000000 0.000000 0.000000 0.023794
#
#
# Mechanical properties :
#
#
# Convention : Reuss Voigt Hill
#
# Bulk Modulus (GPa) = 62.91000 63.69064 63.30032
# Shear Modulus (GPa) = 44.27411 47.18137 45.72774
#
# Velocity S-wave (km/s) = 4.05325 4.18422 4.11926
# Velocity P-wave (km/s) = 6.72676 6.85400 6.79068
#
# Compressibility (1/GPa) = 0.01589572
#
# Stress axis : x y z
#
# Youngs Moduli (GPa) = 98.60480 105.42608 121.07065
#
# Poissons Ratio (x) = 0.36318 0.06357
# Poissons Ratio (y) = 0.33968 0.24522
# Poissons Ratio (z) = 0.05177 0.21353
#
# Static dielectric constant tensor:
#      x y z
#    x 2.203680 0.000000 0.000000 
#    y 0.000000 2.060700 0.000000 
#    z 0.000000 0.000000 2.284560 
# 
# From -- ./inp_files/5820.got.cif
#   From: 2010.05.17/outbox.cif.g08.bks.cpg/sg41_3_cif.got.tgz:5820.got - 2010.06.03 18:54:24.
