data_PCOD9367954
_publ_section_title
;
Structure prediction by ZEFSAII (Michael W. Deem and Ramdas Pophale) SiO2 
 PCOD9367954
Probable space group: A B A 2
;
_chemical_formula_sum "Si O2"
_cell_formula_units_Z 56
_cell_length_a 13.965176
_cell_length_b 16.010045
_cell_length_c 11.568127
_cell_angle_alpha 90.000000
_cell_angle_beta 90.000000
_cell_angle_gamma 90.000000
_cell_volume 2586.437652
_symmetry_space_group_name_H-M "A B A 2"
_symmetry_group_IT_number 41
_symmetry_cell_setting 'orthorhombic'
loop_
_space_group_symop_operation_xyz
x,y,z
-x,-y,z
1/2-x,y,1/2+z
1/2+x,-y,1/2+z
x,1/2+y,1/2+z
-x,1/2-y,1/2+z
1/2-x,1/2+y,z
1/2+x,1/2-y,z
loop_
_atom_site_type_symbol
_atom_site_label
_atom_site_fract_x
_atom_site_fract_y
_atom_site_fract_z
Si Si1 0.021776 0.640813 0.051580
Si Si2 0.759199 0.330954 0.095120
Si Si3 0.880720 0.250000 0.427868
Si Si4 0.521776 0.140813 0.304156
Si Si5 0.667046 0.500000 0.177868
Si Si6 0.000000 0.500000 0.491081
Si Si7 0.259199 0.830954 0.260616
Si Si8 0.500000 0.500000 0.364654
O O1 0.132600 0.664376 0.050513
O O2 0.000000 0.604831 0.177868
O O3 0.950285 0.717557 0.028920
O O4 0.997927 0.578875 0.948403
O O5 0.729856 0.416456 0.160341
O O6 0.750000 0.250000 0.177868
O O7 0.688423 0.317534 0.986828
O O8 0.811577 0.182466 0.368908
O O9 0.950285 0.282443 0.326816
O O10 0.497927 0.078875 0.407333
O O11 0.632600 0.164376 0.305222
O O12 0.729855 0.583544 0.195395
O O13 0.594372 0.493361 0.285876
O O14 0.594372 0.506638 0.069860
#
# Coordination Sequence:
#
# PCOD9367954 Si02
#       8
#     8   8   8   8   8   4   8   4
#     4  12  27  45  74 109 154 193 258 315 383 455
#     4  12  28  48  77 110 151 202 257 316 390 463
#     4  12  26  50  72 110 150 206 252 322 384 460
#     4  12  27  45  74 109 154 193 258 315 383 455
#     4  11  28  50  75 108 152 198 259 312 387 464
#     4  11  27  48  74 106 153 203 248 316 386 463
#     4  12  28  48  77 110 151 202 257 316 390 463
#     4  11  27  48  74 106 153 203 248 316 386 463
#
# _framework density 21.651401
#
# number of rings (size 3 to 8) (size 9 to 14) (size 15 to 20)
#    0.000    0.286    5.714    1.286   12.000    1.143 
#    0.000    0.000    0.000    0.000    0.000    0.000 
#    0.000    0.000    0.000    0.000    0.000    0.000 
#
# Total GULP energy -156695.709470 kJ/mol
# GULP energy per Si atom -5596.275338 kJ/mol
# Density = 2.160212 g / cm^3
# Si number density = 21.651401 Si / 1000 Ang^3
#
#
#
# Elastic Constant Matrix: (Units=GPa)
#
#
# Indices 1 2 3 4 5 6 
#
# 1 185.0933 53.1435 49.7289 0.0000 0.0000 0.0000
# 2 53.1435 107.2475 30.7130 0.0000 0.0000 0.0000
# 3 49.7289 30.7130 114.8960 0.0000 0.0000 0.0000
# 4 0.0000 0.0000 0.0000 -4.3642 0.0000 0.0000
# 5 0.0000 0.0000 0.0000 0.0000 33.1823 0.0000
# 6 0.0000 0.0000 0.0000 0.0000 0.0000 18.9774
#
#
#
# Elastic Compliance Matrix: (Units=1/GPa)
#
#
# Indices 1 2 3 4 5 6 
#
# 1 0.006778 -0.002727 -0.002205 0.000000 0.000000 0.000000
# 2 -0.002727 0.011195 -0.001812 0.000000 0.000000 0.000000
# 3 -0.002205 -0.001812 0.010142 0.000000 0.000000 0.000000
# 4 0.000000 0.000000 0.000000 -0.229137 0.000000 0.000000
# 5 0.000000 0.000000 0.000000 0.000000 0.030137 0.000000
# 6 0.000000 0.000000 0.000000 0.000000 0.000000 0.052694
#
#
# Mechanical properties :
#
#
# Convention : Reuss Voigt Hill
#
# Bulk Modulus (GPa) = 68.36748 74.93419 71.65084
# Shear Modulus (GPa) = -50.08595 27.80252 -11.14172
#
# Velocity S-wave (km/s) = -4.81488 3.58732 -2.27093
# Velocity P-wave (km/s) = 0.85686 7.20021 5.12724
#
# Compressibility (1/GPa) = 0.01462684
#
# Stress axis : x y z
#
# Youngs Moduli (GPa) = 147.53486 89.32885 98.59902
#
# Poissons Ratio (x) = 0.24363 0.21737
# Poissons Ratio (y) = 0.40238 0.17866
# Poissons Ratio (z) = 0.32526 0.16186
#
# Static dielectric constant tensor:
#      x y z
#    x 1.778140 0.000000 0.000000 
#    y 0.000000 1.830100 0.000000 
#    z 0.000000 0.000000 1.790190 
# 
# From -- ./inp_files/5643.got.cif
#   From: 2010.05.17/outbox.cif.g08.bks.cpg/sg41_3_cif.got.tgz:5643.got - 2010.06.03 18:54:24.
