data_PCOD9367097
_publ_section_title
;
Structure prediction by ZEFSAII (Michael W. Deem and Ramdas Pophale) SiO2 
 PCOD9367097
Probable space group: A B A 2
;
_chemical_formula_sum "Si O2"
_cell_formula_units_Z 64
_cell_length_a 30.056658
_cell_length_b 16.750212
_cell_length_c 5.714132
_cell_angle_alpha 90.000000
_cell_angle_beta 90.000000
_cell_angle_gamma 90.000000
_cell_volume 2876.810575
_symmetry_space_group_name_H-M "A B A 2"
_symmetry_group_IT_number 41
_symmetry_cell_setting 'orthorhombic'
loop_
_space_group_symop_operation_xyz
x,y,z
-x,-y,z
1/2-x,y,1/2+z
1/2+x,-y,1/2+z
x,1/2+y,1/2+z
-x,1/2-y,1/2+z
1/2-x,1/2+y,z
1/2+x,1/2-y,z
loop_
_atom_site_type_symbol
_atom_site_label
_atom_site_fract_x
_atom_site_fract_y
_atom_site_fract_z
Si Si1 0.009553 0.632044 0.775230
Si Si2 0.561653 0.210105 0.433818
Si Si3 0.937971 0.572364 0.095974
Si Si4 0.265891 0.493272 0.559695
Si Si5 0.584387 0.939060 0.463770
Si Si6 0.766665 0.318720 0.139844
Si Si7 0.129359 0.677796 0.139374
Si Si8 0.137705 0.016356 0.347900
O O1 0.970302 0.658061 0.599643
O O2 0.033421 0.711964 0.864058
O O3 0.046512 0.578605 0.651637
O O4 0.985801 0.586227 0.984057
O O5 0.573399 0.156345 0.213622
O O6 0.606285 0.242616 0.550386
O O7 0.935148 0.502636 0.285863
O O8 0.900282 0.546088 0.915326
O O9 0.260379 0.460521 0.827434
O O10 0.253879 0.587257 0.604122
O O11 0.316213 0.491264 0.462547
O O12 0.598399 0.856395 0.344953
O O13 0.630563 0.972779 0.571836
O O14 0.742460 0.286152 0.375109
O O15 0.819001 0.312593 0.196026
O O16 0.128070 0.604867 0.951855
#
# Coordination Sequence:
#
# PCOD9367097 Si02
#       8
#     8   8   8   8   8   8   8   8
#     4  12  25  44  65  93 127 175 227 276 338 391
#     4  12  24  44  65  90 129 174 226 274 327 408
#     4  11  27  44  65  93 129 175 221 279 335 403
#     4   9  19  33  62  97 136 172 215 277 342 415
#     4  11  25  44  66  95 135 168 226 280 338 405
#     4   9  19  34  61 100 138 171 220 279 343 411
#     4  10  23  39  66  99 130 176 217 279 339 398
#     4  10  22  41  64  98 132 169 219 274 344 398
#
# _framework density 22.246859000000001
#
# number of rings (size 3 to 8) (size 9 to 14) (size 15 to 20)
#    0.000    1.500    2.500    1.500   10.500    3.000 
#    0.000    0.000    0.000    1.500    0.000    0.000 
#    0.000    0.000    0.000    0.000    0.000    0.000 
#
# Total GULP energy -178755.459131 kJ/mol
# GULP energy per Si atom -5586.108098 kJ/mol
# Density = 2.219622 g / cm^3
# Si number density = 22.246859 Si / 1000 Ang^3
#
#
#
# Elastic Constant Matrix: (Units=GPa)
#
#
# Indices 1 2 3 4 5 6 
#
# 1 77.4773 27.1604 24.3828 0.0000 0.0000 0.0000
# 2 27.1604 42.2537 12.5383 0.0000 0.0000 0.0000
# 3 24.3828 12.5383 83.1061 0.0000 0.0000 0.0000
# 4 0.0000 0.0000 0.0000 28.1849 0.0000 0.0000
# 5 0.0000 0.0000 0.0000 0.0000 33.7127 0.0000
# 6 0.0000 0.0000 0.0000 0.0000 0.0000 6.2874
#
#
#
# Elastic Compliance Matrix: (Units=1/GPa)
#
#
# Indices 1 2 3 4 5 6 
#
# 1 0.017648 -0.010267 -0.003629 0.000000 0.000000 0.000000
# 2 -0.010267 0.030749 -0.001627 0.000000 0.000000 0.000000
# 3 -0.003629 -0.001627 0.013343 0.000000 0.000000 0.000000
# 4 0.000000 0.000000 0.000000 0.035480 0.000000 0.000000
# 5 0.000000 0.000000 0.000000 0.000000 0.029662 0.000000
# 6 0.000000 0.000000 0.000000 0.000000 0.000000 0.159047
#
#
# Mechanical properties :
#
#
# Convention : Reuss Voigt Hill
#
# Bulk Modulus (GPa) = 32.57929 36.77779 34.67854
# Shear Modulus (GPa) = 15.28080 22.88737 19.08409
#
# Velocity S-wave (km/s) = 2.62367 3.21096 2.93206
# Velocity P-wave (km/s) = 4.88410 5.50587 5.20428
#
# Compressibility (1/GPa) = 0.03069434
#
# Stress axis : x y z
#
# Youngs Moduli (GPa) = 56.66236 32.52121 74.94611
#
# Poissons Ratio (x) = 0.33391 0.27197
# Poissons Ratio (y) = 0.58178 0.12192
# Poissons Ratio (z) = 0.20562 0.05290
#
# Static dielectric constant tensor:
#      x y z
#    x 1.799490 0.000000 0.000000 
#    y 0.000000 1.770030 0.000000 
#    z 0.000000 0.000000 1.918320 
# 
# From -- ./inp_files/1404.got.cif
#   From: 2010.05.17/outbox.cif.g08.bks.cpg/sg41_1_cif.got.tgz:1404.got - 2010.06.03 18:54:24.
