data_PCOD9367858
_publ_section_title
;
Structure prediction by ZEFSAII (Michael W. Deem and Ramdas Pophale) SiO2 
 PCOD9367858
Probable space group: A B A 2
;
_chemical_formula_sum "Si O2"
_cell_formula_units_Z 48
_cell_length_a 8.589176
_cell_length_b 16.060037
_cell_length_c 16.700746
_cell_angle_alpha 90.000000
_cell_angle_beta 90.000000
_cell_angle_gamma 90.000000
_cell_volume 2303.742394
_symmetry_space_group_name_H-M "A B A 2"
_symmetry_group_IT_number 41
_symmetry_cell_setting 'orthorhombic'
loop_
_space_group_symop_operation_xyz
x,y,z
-x,-y,z
1/2-x,y,1/2+z
1/2+x,-y,1/2+z
x,1/2+y,1/2+z
-x,1/2-y,1/2+z
1/2-x,1/2+y,z
1/2+x,1/2-y,z
loop_
_atom_site_type_symbol
_atom_site_label
_atom_site_fract_x
_atom_site_fract_y
_atom_site_fract_z
Si Si1 0.426914 0.167980 0.692970
Si Si2 0.832236 0.270174 0.927015
Si Si3 0.499585 0.907202 0.016925
Si Si4 0.456440 0.206459 0.314918
Si Si5 0.372739 0.074938 0.183598
Si Si6 0.736271 0.691602 0.096570
O O1 0.503720 0.204311 0.774237
O O2 0.313040 0.088032 0.703169
O O3 0.318815 0.244394 0.658612
O O4 0.572131 0.161166 0.632030
O O5 0.696751 0.299927 0.868730
O O6 0.907484 0.193706 0.878885
O O7 0.780474 0.241205 0.013933
O O8 0.959141 0.340456 0.949484
O O9 0.624655 0.905501 0.089038
O O10 0.346302 0.883574 0.068071
O O11 0.500000 0.000000 0.983826
O O12 0.445689 0.144120 0.241717
O O13 0.500000 0.000000 0.193257
#
# Coordination Sequence:
#
# PCOD9367858 Si02
#       6
#     8   8   8   8   8   8
#     4  12  20  40  73 100 128 185 246 282 341 426
#     4  12  22  38  69 102 131 180 233 287 347 421
#     4  11  24  44  67  95 144 181 225 294 358 412
#     4  12  22  38  68  99 134 175 232 283 344 420
#     4  11  24  44  66  95 142 182 222 293 358 411
#     4  12  20  40  71  98 129 180 246 285 330 434
#
# _framework density 20.835663
#
# number of rings (size 3 to 8) (size 9 to 14) (size 15 to 20)
#    0.000    0.333   10.000    0.000    0.000    0.000 
#    3.000    3.333    0.000    0.000    0.000    0.000 
#    0.000    0.000    0.000    0.000    0.000    0.000 
#
# Total GULP energy -133618.160803 kJ/mol
# GULP energy per Si atom -5567.423367 kJ/mol
# Density = 2.078824 g / cm^3
# Si number density = 20.835663 Si / 1000 Ang^3
#
#
#
# Elastic Constant Matrix: (Units=GPa)
#
#
# Indices 1 2 3 4 5 6 
#
# 1 101.5030 39.9685 14.2687 0.0000 0.0000 0.0000
# 2 39.9685 57.8069 18.2721 0.0000 0.0000 0.0000
# 3 14.2687 18.2721 101.1776 0.0000 0.0000 0.0000
# 4 0.0000 0.0000 0.0000 14.7146 0.0000 0.0000
# 5 0.0000 0.0000 0.0000 0.0000 47.5461 0.0000
# 6 0.0000 0.0000 0.0000 0.0000 0.0000 27.4915
#
#
#
# Elastic Compliance Matrix: (Units=1/GPa)
#
#
# Indices 1 2 3 4 5 6 
#
# 1 0.013543 -0.009290 -0.000232 0.000000 0.000000 0.000000
# 2 -0.009290 0.024719 -0.003154 0.000000 0.000000 0.000000
# 3 -0.000232 -0.003154 0.010486 0.000000 0.000000 0.000000
# 4 0.000000 0.000000 0.000000 0.067960 0.000000 0.000000
# 5 0.000000 0.000000 0.000000 0.000000 0.021032 0.000000
# 6 0.000000 0.000000 0.000000 0.000000 0.000000 0.036375
#
#
# Mechanical properties :
#
#
# Convention : Reuss Voigt Hill
#
# Bulk Modulus (GPa) = 42.74370 45.05623 43.89997
# Shear Modulus (GPa) = 24.12361 30.48234 27.30297
#
# Velocity S-wave (km/s) = 3.40634 3.82905 3.62387
# Velocity P-wave (km/s) = 6.00251 6.42031 6.21492
#
# Compressibility (1/GPa) = 0.02339526
#
# Stress axis : x y z
#
# Youngs Moduli (GPa) = 73.84017 40.45411 95.36583
#
# Poissons Ratio (x) = 0.37583 0.02214
# Poissons Ratio (y) = 0.68600 0.30078
# Poissons Ratio (z) = 0.01714 0.12759
#
# Static dielectric constant tensor:
#      x y z
#    x 1.858480 0.000000 0.000000 
#    y 0.000000 1.799170 0.000000 
#    z 0.000000 0.000000 1.735500 
# 
# From -- ./inp_files/7305.got.cif
#   From: 2010.05.17/outbox.cif.g08.bks.cpg/sg41_4_cif.got.tgz:7305.got - 2010.06.03 18:54:24.
