data_PCOD9367748
_publ_section_title
;
Structure prediction by ZEFSAII (Michael W. Deem and Ramdas Pophale) SiO2 
 PCOD9367748
Probable space group: A B A 2
;
_chemical_formula_sum "Si O2"
_cell_formula_units_Z 40
_cell_length_a 18.846139
_cell_length_b 8.515389
_cell_length_c 11.370696
_cell_angle_alpha 90.000000
_cell_angle_beta 90.000000
_cell_angle_gamma 90.000000
_cell_volume 1824.794363
_symmetry_space_group_name_H-M "A B A 2"
_symmetry_group_IT_number 41
_symmetry_cell_setting 'orthorhombic'
loop_
_space_group_symop_operation_xyz
x,y,z
-x,-y,z
1/2-x,y,1/2+z
1/2+x,-y,1/2+z
x,1/2+y,1/2+z
-x,1/2-y,1/2+z
1/2-x,1/2+y,z
1/2+x,1/2-y,z
loop_
_atom_site_type_symbol
_atom_site_label
_atom_site_fract_x
_atom_site_fract_y
_atom_site_fract_z
Si Si1 0.099868 0.820711 0.777420
Si Si2 0.311311 0.793429 0.053092
Si Si3 0.986459 0.816802 0.587514
Si Si4 0.339766 0.647264 0.499209
Si Si5 0.936015 0.904639 0.954732
O O1 0.164152 0.834491 0.685056
O O2 0.128924 0.706407 0.876509
O O3 0.033714 0.761229 0.698171
O O4 0.079570 0.985059 0.843095
O O5 0.231815 0.736292 0.034181
O O6 0.361746 0.649341 0.009802
O O7 0.326343 0.960829 0.991658
O O8 0.902259 0.800070 0.589120
O O9 0.021298 0.758561 0.464124
O O10 0.000000 0.000000 0.589491
O O11 0.000000 0.000000 0.022294
#
# Coordination Sequence:
#
# PCOD9367748 Si02
#       5
#     8   8   8   8   8
#     4  11  25  48  76 106 145 199 239 315 381 426
#     4  11  28  48  72 110 152 193 256 307 372 460
#     4  11  23  46  75 112 144 189 253 310 358 452
#     4  12  25  47  77 107 153 193 250 310 373 454
#     4  11  22  43  79 104 144 193 246 303 371 439
#
# _framework density 21.920278
#
# number of rings (size 3 to 8) (size 9 to 14) (size 15 to 20)
#    0.000    0.800    6.000    1.800    0.000    3.200 
#    0.000   20.000    0.000    0.000    0.000    0.000 
#    0.000    0.000    0.000    0.000    0.000    0.000 
#
# Total GULP energy -111344.351051 kJ/mol
# GULP energy per Si atom -5567.217553 kJ/mol
# Density = 2.187039 g / cm^3
# Si number density = 21.920278 Si / 1000 Ang^3
#
#
#
# Elastic Constant Matrix: (Units=GPa)
#
#
# Indices 1 2 3 4 5 6 
#
# 1 235.8056 68.8343 69.2760 0.0000 0.0000 0.0000
# 2 68.8343 88.3222 78.0195 0.0000 0.0000 0.0000
# 3 69.2760 78.0195 119.9424 0.0000 0.0000 0.0000
# 4 0.0000 0.0000 0.0000 35.3970 0.0000 0.0000
# 5 0.0000 0.0000 0.0000 0.0000 21.5902 0.0000
# 6 0.0000 0.0000 0.0000 0.0000 0.0000 40.8887
#
#
#
# Elastic Compliance Matrix: (Units=1/GPa)
#
#
# Indices 1 2 3 4 5 6 
#
# 1 0.005532 -0.003500 -0.000919 0.000000 0.000000 0.000000
# 2 -0.003500 0.028830 -0.016731 0.000000 0.000000 0.000000
# 3 -0.000919 -0.016731 0.019751 0.000000 0.000000 0.000000
# 4 0.000000 0.000000 0.000000 0.028251 0.000000 0.000000
# 5 0.000000 0.000000 0.000000 0.000000 0.046317 0.000000
# 6 0.000000 0.000000 0.000000 0.000000 0.000000 0.024457
#
#
# Mechanical properties :
#
#
# Convention : Reuss Voigt Hill
#
# Bulk Modulus (GPa) = 84.65252 97.36999 91.01125
# Shear Modulus (GPa) = 25.07815 34.77121 29.92468
#
# Velocity S-wave (km/s) = 3.38607 3.98711 3.69882
# Velocity P-wave (km/s) = 7.34775 8.10632 7.73634
#
# Compressibility (1/GPa) = 0.01181300
#
# Stress axis : x y z
#
# Youngs Moduli (GPa) = 180.75281 34.68616 50.62975
#
# Poissons Ratio (x) = 0.12141 0.04650
# Poissons Ratio (y) = 0.63270 0.84711
# Poissons Ratio (z) = 0.16602 0.58035
#
# Static dielectric constant tensor:
#      x y z
#    x 1.864560 0.000000 0.000000 
#    y 0.000000 1.977920 0.000000 
#    z 0.000000 0.000000 1.878170 
# 
# From -- ./inp_files/5826.got.cif
#   From: 2010.05.17/outbox.cif.g08.bks.cpg/sg41_3_cif.got.tgz:5826.got - 2010.06.03 18:54:24.
