data_PCOD9367955
_publ_section_title
;
Structure prediction by ZEFSAII (Michael W. Deem and Ramdas Pophale) SiO2 
 PCOD9367955
Probable space group: A B A 2
;
_chemical_formula_sum "Si O2"
_cell_formula_units_Z 52
_cell_length_a 14.953664
_cell_length_b 18.340907
_cell_length_c 7.074449
_cell_angle_alpha 90.000000
_cell_angle_beta 90.000000
_cell_angle_gamma 90.000000
_cell_volume 1940.264988
_symmetry_space_group_name_H-M "A B A 2"
_symmetry_group_IT_number 41
_symmetry_cell_setting 'orthorhombic'
loop_
_space_group_symop_operation_xyz
x,y,z
-x,-y,z
1/2-x,y,1/2+z
1/2+x,-y,1/2+z
x,1/2+y,1/2+z
-x,1/2-y,1/2+z
1/2-x,1/2+y,z
1/2+x,1/2-y,z
loop_
_atom_site_type_symbol
_atom_site_label
_atom_site_fract_x
_atom_site_fract_y
_atom_site_fract_z
Si Si1 0.101455 0.914774 0.148700
Si Si2 0.000000 0.500000 0.381485
Si Si3 0.381199 0.072317 0.138495
Si Si4 0.332832 0.217471 0.474702
Si Si5 0.822831 0.926844 0.207889
Si Si6 0.966209 0.167609 0.518829
Si Si7 0.865428 0.741781 0.541269
O O1 0.159495 0.989193 0.144728
O O2 0.070941 0.886034 0.354810
O O3 0.143506 0.844932 0.047917
O O4 0.013673 0.935378 0.031116
O O5 0.913771 0.498468 0.248257
O O6 0.027611 0.619545 0.157647
O O7 0.366108 0.072956 0.915075
O O8 0.366020 0.232049 0.261493
O O9 0.283760 0.086833 0.222705
O O10 0.381966 0.284095 0.585296
O O11 0.225896 0.225871 0.461316
O O12 0.352785 0.141423 0.578725
O O13 0.042395 0.227058 0.456009
#
# Coordination Sequence:
#
# PCOD9367955 Si02
#       7
#     8   4   8   8   8   8   8
#     4  11  28  49  80 116 169 214 285 361 423 508
#     4  12  28  48  78 120 154 224 280 358 432 498
#     4  12  27  48  82 116 167 219 283 349 433 510
#     4  11  27  48  83 119 169 221 283 350 431 513
#     4  12  26  51  78 121 167 220 276 359 421 509
#     4  11  27  49  78 120 162 222 281 345 425 516
#     4  11  27  50  78 123 163 225 277 351 430 517
#
# _framework density 26.800462
#
# number of rings (size 3 to 8) (size 9 to 14) (size 15 to 20)
#    0.000    0.615    1.538    3.692    8.615    8.615 
#    0.000    0.000    0.000    0.000    0.000    0.000 
#    0.000    0.000    0.000    0.000    0.000    0.000 
#
# Total GULP energy -145411.856133 kJ/mol
# GULP energy per Si atom -5592.763697 kJ/mol
# Density = 2.673946 g / cm^3
# Si number density = 26.800462 Si / 1000 Ang^3
#
#
#
# Elastic Constant Matrix: (Units=GPa)
#
#
# Indices 1 2 3 4 5 6 
#
# 1 125.4180 65.6002 8.4636 0.0000 0.0000 0.0000
# 2 65.6002 206.2938 50.1055 0.0000 0.0000 0.0000
# 3 8.4636 50.1055 98.5693 0.0000 0.0000 0.0000
# 4 0.0000 0.0000 0.0000 43.3522 0.0000 0.0000
# 5 0.0000 0.0000 0.0000 0.0000 46.3804 0.0000
# 6 0.0000 0.0000 0.0000 0.0000 0.0000 67.6123
#
#
#
# Elastic Compliance Matrix: (Units=1/GPa)
#
#
# Indices 1 2 3 4 5 6 
#
# 1 0.009624 -0.003262 0.000832 0.000000 0.000000 0.000000
# 2 -0.003262 0.006636 -0.003093 0.000000 0.000000 0.000000
# 3 0.000832 -0.003093 0.011646 0.000000 0.000000 0.000000
# 4 0.000000 0.000000 0.000000 0.023067 0.000000 0.000000
# 5 0.000000 0.000000 0.000000 0.000000 0.021561 0.000000
# 6 0.000000 0.000000 0.000000 0.000000 0.000000 0.014790
#
#
# Mechanical properties :
#
#
# Convention : Reuss Voigt Hill
#
# Bulk Modulus (GPa) = 59.31652 75.40219 67.35936
# Shear Modulus (GPa) = 48.08138 51.87643 49.97891
#
# Velocity S-wave (km/s) = 4.24022 4.40438 4.32308
# Velocity P-wave (km/s) = 6.79362 7.35258 7.07862
#
# Compressibility (1/GPa) = 0.01685871
#
# Stress axis : x y z
#
# Youngs Moduli (GPa) = 103.91171 150.68985 85.86588
#
# Poissons Ratio (x) = 0.49160 -0.07144
# Poissons Ratio (y) = 0.33899 0.26560
# Poissons Ratio (z) = -0.08645 0.46612
#
# Static dielectric constant tensor:
#      x y z
#    x 2.081120 0.000000 0.000000 
#    y 0.000000 2.253240 0.000000 
#    z 0.000000 0.000000 2.157660 
# 
# From -- ./inp_files/5978.got.cif
#   From: 2010.05.17/outbox.cif.g08.bks.cpg/sg41_3_cif.got.tgz:5978.got - 2010.06.03 18:54:24.
