data_PCOD9367365
_publ_section_title
;
Structure prediction by ZEFSAII (Michael W. Deem and Ramdas Pophale) SiO2 
 PCOD9367365
Probable space group: A B A 2
;
_chemical_formula_sum "Si O2"
_cell_formula_units_Z 60
_cell_length_a 9.094547
_cell_length_b 12.487114
_cell_length_c 25.268385
_cell_angle_alpha 90.000000
_cell_angle_beta 90.000000
_cell_angle_gamma 90.000000
_cell_volume 2869.595176
_symmetry_space_group_name_H-M "A B A 2"
_symmetry_group_IT_number 41
_symmetry_cell_setting 'orthorhombic'
loop_
_space_group_symop_operation_xyz
x,y,z
-x,-y,z
1/2-x,y,1/2+z
1/2+x,-y,1/2+z
x,1/2+y,1/2+z
-x,1/2-y,1/2+z
1/2-x,1/2+y,z
1/2+x,1/2-y,z
loop_
_atom_site_type_symbol
_atom_site_label
_atom_site_fract_x
_atom_site_fract_y
_atom_site_fract_z
Si Si1 0.072307 0.330386 0.594620
Si Si2 0.475693 0.379528 0.872548
Si Si3 0.799172 0.438030 0.624714
Si Si4 0.779519 0.772202 0.697153
Si Si5 0.978852 0.310703 0.999208
Si Si6 0.738251 0.774862 0.425796
Si Si7 0.042039 0.379023 0.248809
Si Si8 0.000000 0.500000 0.074552
O O1 0.134454 0.446997 0.609635
O O2 0.133758 0.260959 0.643476
O O3 0.098051 0.276407 0.538069
O O4 0.896163 0.349894 0.593919
O O5 0.500000 0.500000 0.892760
O O6 0.348302 0.316136 0.903780
O O7 0.636643 0.325714 0.880133
O O8 0.428195 0.383040 0.811303
O O9 0.804861 0.383629 0.682696
O O10 0.632100 0.455846 0.608969
O O11 0.673404 0.677219 0.716161
O O12 0.901584 0.803293 0.739452
O O13 0.041763 0.402283 0.036865
O O14 0.850731 0.349776 0.959045
O O15 0.113155 0.265414 0.965763
O O16 0.000000 0.500000 0.231494
#
# Coordination Sequence:
#
# PCOD9367365 Si02
#       8
#     8   8   8   8   8   8   8   4
#     4  11  24  43  58  93 140 174 215 264 321 386
#     4  10  23  46  69  96 130 168 218 289 349 397
#     4  11  25  39  62  89 133 179 215 264 315 379
#     4  12  23  42  66  95 134 174 222 271 327 403
#     4  11  23  39  64  96 133 175 220 264 326 395
#     4  10  23  43  67  95 128 170 221 276 334 401
#     4  11  25  43  71  98 128 173 226 280 349 408
#     4  12  24  36  64  94 130 178 222 260 318 388
#
# _framework density 20.908871999999999
#
# number of rings (size 3 to 8) (size 9 to 14) (size 15 to 20)
#    0.000    1.067    2.667    3.200    6.533    0.000 
#    9.600    0.000    0.000    4.800    0.000    0.000 
#    0.000    0.000    0.000    0.000    0.000    0.000 
#
# Total GULP energy -167270.001393 kJ/mol
# GULP energy per Si atom -5575.666713 kJ/mol
# Density = 2.086128 g / cm^3
# Si number density = 20.908872 Si / 1000 Ang^3
#
#
#
# Elastic Constant Matrix: (Units=GPa)
#
#
# Indices 1 2 3 4 5 6 
#
# 1 117.3543 44.5182 28.3052 0.0000 0.0000 0.0000
# 2 44.5182 111.3155 30.1719 0.0000 0.0000 0.0000
# 3 28.3052 30.1719 71.1915 0.0000 0.0000 0.0000
# 4 0.0000 0.0000 0.0000 62.4386 0.0000 0.0000
# 5 0.0000 0.0000 0.0000 0.0000 32.4731 0.0000
# 6 0.0000 0.0000 0.0000 0.0000 0.0000 35.1947
#
#
#
# Elastic Compliance Matrix: (Units=1/GPa)
#
#
# Indices 1 2 3 4 5 6 
#
# 1 0.010486 -0.003461 -0.002702 0.000000 0.000000 0.000000
# 2 -0.003461 0.011292 -0.003409 0.000000 0.000000 0.000000
# 3 -0.002702 -0.003409 0.016566 0.000000 0.000000 0.000000
# 4 0.000000 0.000000 0.000000 0.016016 0.000000 0.000000
# 5 0.000000 0.000000 0.000000 0.000000 0.030795 0.000000
# 6 0.000000 0.000000 0.000000 0.000000 0.000000 0.028413
#
#
# Mechanical properties :
#
#
# Convention : Reuss Voigt Hill
#
# Bulk Modulus (GPa) = 52.08886 56.20575 54.14731
# Shear Modulus (GPa) = 35.94206 39.14568 37.54387
#
# Velocity S-wave (km/s) = 4.15056 4.33159 4.24204
# Velocity P-wave (km/s) = 6.92358 7.20809 7.06727
#
# Compressibility (1/GPa) = 0.01919796
#
# Stress axis : x y z
#
# Youngs Moduli (GPa) = 95.36554 88.55952 60.36461
#
# Poissons Ratio (x) = 0.30652 0.16312
# Poissons Ratio (y) = 0.33008 0.20581
# Poissons Ratio (z) = 0.25770 0.30194
#
# Static dielectric constant tensor:
#      x y z
#    x 1.804880 0.000000 0.000000 
#    y 0.000000 1.782890 0.000000 
#    z 0.000000 0.000000 1.770970 
# 
# From -- ./inp_files/12464.got.cif
#   From: 2010.05.17/outbox.cif.g08.bks.cpg/sg41_7_cif.got.tgz:12464.got - 2010.06.03 18:54:24.
