data_PCOD9367658
_publ_section_title
;
Structure prediction by ZEFSAII (Michael W. Deem and Ramdas Pophale) SiO2 
 PCOD9367658
Probable space group: A B A 2
;
_chemical_formula_sum "Si O2"
_cell_formula_units_Z 36
_cell_length_a 9.217686
_cell_length_b 18.915092
_cell_length_c 8.089970
_cell_angle_alpha 90.000000
_cell_angle_beta 90.000000
_cell_angle_gamma 90.000000
_cell_volume 1410.513603
_symmetry_space_group_name_H-M "A B A 2"
_symmetry_group_IT_number 41
_symmetry_cell_setting 'orthorhombic'
loop_
_space_group_symop_operation_xyz
x,y,z
-x,-y,z
1/2-x,y,1/2+z
1/2+x,-y,1/2+z
x,1/2+y,1/2+z
-x,1/2-y,1/2+z
1/2-x,1/2+y,z
1/2+x,1/2-y,z
loop_
_atom_site_type_symbol
_atom_site_label
_atom_site_fract_x
_atom_site_fract_y
_atom_site_fract_z
Si Si1 0.065788 0.301750 0.990990
Si Si2 0.440972 0.134429 0.514126
Si Si3 0.187717 0.382369 0.299016
Si Si4 0.500000 0.500000 0.621540
Si Si5 0.161185 0.105297 0.373102
O O1 0.158646 0.347798 0.855759
O O2 0.899656 0.321112 0.949291
O O3 0.079474 0.218104 0.994651
O O4 0.114848 0.327748 0.171157
O O5 0.605364 0.116767 0.474993
O O6 0.333597 0.101442 0.379167
O O7 0.390030 0.103419 0.686398
O O8 0.126969 0.455966 0.218929
O O9 0.412638 0.550055 0.494848
#
# Coordination Sequence:
#
# PCOD9367658 Si02
#       5
#     8   8   8   4   8
#     4  11  22  41  66 102 132 167 217 274 338 390
#     4  12  23  42  67  99 129 170 217 275 339 385
#     4  11  25  41  68  94 134 174 214 274 323 399
#     4  10  26  48  62  96 130 176 228 256 328 396
#     4  11  25  41  68  94 134 174 214 273 322 399
#
# _framework density 25.522618999999999
#
# number of rings (size 3 to 8) (size 9 to 14) (size 15 to 20)
#    0.000    0.889    0.000    8.000    0.000    8.000 
#    0.000    0.000    0.000    0.000    0.000    0.000 
#    0.000    0.000    0.000    0.000    0.000    0.000 
#
# Total GULP energy -100638.987918 kJ/mol
# GULP energy per Si atom -5591.054884 kJ/mol
# Density = 2.546453 g / cm^3
# Si number density = 25.522619 Si / 1000 Ang^3
#
#
#
# Elastic Constant Matrix: (Units=GPa)
#
#
# Indices 1 2 3 4 5 6 
#
# 1 66.1736 3.8682 -20.5457 0.0000 0.0000 0.0000
# 2 3.8682 144.5088 31.1340 0.0000 0.0000 0.0000
# 3 -20.5457 31.1340 99.7689 0.0000 0.0000 0.0000
# 4 0.0000 0.0000 0.0000 31.4704 0.0000 0.0000
# 5 0.0000 0.0000 0.0000 0.0000 39.8849 0.0000
# 6 0.0000 0.0000 0.0000 0.0000 0.0000 23.0339
#
#
#
# Elastic Compliance Matrix: (Units=1/GPa)
#
#
# Indices 1 2 3 4 5 6 
#
# 1 0.016351 -0.001247 0.003756 0.000000 0.000000 0.000000
# 2 -0.001247 0.007514 -0.002602 0.000000 0.000000 0.000000
# 3 0.003756 -0.002602 0.011609 0.000000 0.000000 0.000000
# 4 0.000000 0.000000 0.000000 0.031776 0.000000 0.000000
# 5 0.000000 0.000000 0.000000 0.000000 0.025072 0.000000
# 6 0.000000 0.000000 0.000000 0.000000 0.000000 0.043414
#
#
# Mechanical properties :
#
#
# Convention : Reuss Voigt Hill
#
# Bulk Modulus (GPa) = 28.33752 37.70716 33.02234
# Shear Modulus (GPa) = 33.85625 38.61081 36.23353
#
# Velocity S-wave (km/s) = 3.64609 3.89370 3.77193
# Velocity P-wave (km/s) = 5.37144 5.91782 5.65124
#
# Compressibility (1/GPa) = 0.03528891
#
# Stress axis : x y z
#
# Youngs Moduli (GPa) = 61.15859 133.08706 86.14327
#
# Poissons Ratio (x) = 0.16596 -0.32358
# Poissons Ratio (y) = 0.07626 0.22411
# Poissons Ratio (z) = -0.22973 0.34624
#
# Static dielectric constant tensor:
#      x y z
#    x 2.115850 0.000000 0.000000 
#    y 0.000000 1.994280 0.000000 
#    z 0.000000 0.000000 1.990470 
# 
# From -- ./inp_files/1650.got.cif
#   From: 2010.05.17/outbox.cif.g08.bks.cpg/sg41_1_cif.got.tgz:1650.got - 2010.06.03 18:54:24.
