data_PCOD9367573
_publ_section_title
;
Structure prediction by ZEFSAII (Michael W. Deem and Ramdas Pophale) SiO2 
 PCOD9367573
Probable space group: A B A 2
;
_chemical_formula_sum "Si O2"
_cell_formula_units_Z 40
_cell_length_a 10.413283
_cell_length_b 14.579081
_cell_length_c 10.823557
_cell_angle_alpha 90.000000
_cell_angle_beta 90.000000
_cell_angle_gamma 90.000000
_cell_volume 1643.190172
_symmetry_space_group_name_H-M "A B A 2"
_symmetry_group_IT_number 41
_symmetry_cell_setting 'orthorhombic'
loop_
_space_group_symop_operation_xyz
x,y,z
-x,-y,z
1/2-x,y,1/2+z
1/2+x,-y,1/2+z
x,1/2+y,1/2+z
-x,1/2-y,1/2+z
1/2-x,1/2+y,z
1/2+x,1/2-y,z
loop_
_atom_site_type_symbol
_atom_site_label
_atom_site_fract_x
_atom_site_fract_y
_atom_site_fract_z
Si Si1 0.157908 0.673442 0.296930
Si Si2 0.697875 0.078982 0.500352
Si Si3 0.000000 0.500000 0.307647
Si Si4 0.457674 0.863427 0.898364
Si Si5 0.305853 0.702480 0.535947
Si Si6 0.500000 0.500000 0.194724
O O1 0.068631 0.589441 0.253947
O O2 0.093295 0.771118 0.330563
O O3 0.221856 0.653772 0.429741
O O4 0.242388 0.688876 0.174819
O O5 0.846844 0.073001 0.460307
O O6 0.687014 0.188326 0.517502
O O7 0.612414 0.046883 0.386661
O O8 0.625581 0.028056 0.613884
O O9 0.551980 0.832272 0.005994
O O10 0.525848 0.917533 0.788472
#
# Coordination Sequence:
#
# PCOD9367573 Si02
#       6
#     8   8   4   8   8   4
#     4  11  26  48  79 112 154 204 259 332 394 473
#     4  10  24  46  75 110 153 209 253 327 395 468
#     4  11  24  49  72 110 156 200 258 318 396 474
#     4  11  25  46  74 119 154 204 260 326 402 473
#     4  11  25  50  76 112 156 205 263 323 397 474
#     4  11  24  47  76 110 160 200 268 326 392 468
#
# _framework density 24.342891999999999
#
# number of rings (size 3 to 8) (size 9 to 14) (size 15 to 20)
#    0.000    1.200    4.000    0.000    2.800    8.800 
#    0.000    0.000    0.000    0.000    0.000    0.000 
#    0.000    0.000    0.000    0.000    0.000    0.000 
#
# Total GULP energy -111633.333377 kJ/mol
# GULP energy per Si atom -5581.666669 kJ/mol
# Density = 2.428749 g / cm^3
# Si number density = 24.342892 Si / 1000 Ang^3
#
#
#
# Elastic Constant Matrix: (Units=GPa)
#
#
# Indices 1 2 3 4 5 6 
#
# 1 71.3862 40.0727 31.6776 0.0000 0.0000 0.0000
# 2 40.0727 108.7302 48.1449 0.0000 0.0000 0.0000
# 3 31.6776 48.1449 150.8081 0.0000 0.0000 0.0000
# 4 0.0000 0.0000 0.0000 19.5603 0.0000 0.0000
# 5 0.0000 0.0000 0.0000 0.0000 -73.5842 0.0000
# 6 0.0000 0.0000 0.0000 0.0000 0.0000 52.0018
#
#
#
# Elastic Compliance Matrix: (Units=1/GPa)
#
#
# Indices 1 2 3 4 5 6 
#
# 1 0.018143 -0.005822 -0.001952 0.000000 0.000000 0.000000
# 2 -0.005822 0.012580 -0.002793 0.000000 0.000000 0.000000
# 3 -0.001952 -0.002793 0.007933 0.000000 0.000000 0.000000
# 4 0.000000 0.000000 0.000000 0.051124 0.000000 0.000000
# 5 0.000000 0.000000 0.000000 0.000000 -0.013590 0.000000
# 6 0.000000 0.000000 0.000000 0.000000 0.000000 0.019230
#
#
# Mechanical properties :
#
#
# Convention : Reuss Voigt Hill
#
# Bulk Modulus (GPa) = 57.07670 63.41277 60.24474
# Shear Modulus (GPa) = 40.85153 13.66418 27.25786
#
# Velocity S-wave (km/s) = 4.10099 2.37179 3.34989
# Velocity P-wave (km/s) = 6.77658 5.79715 6.30591
#
# Compressibility (1/GPa) = 0.01752028
#
# Stress axis : x y z
#
# Youngs Moduli (GPa) = 55.11795 79.49396 126.06076
#
# Poissons Ratio (x) = 0.46283 0.24610
# Poissons Ratio (y) = 0.32091 0.35209
# Poissons Ratio (z) = 0.10760 0.22203
#
# Static dielectric constant tensor:
#      x y z
#    x 2.729230 0.000000 0.000000 
#    y 0.000000 1.911250 0.000000 
#    z 0.000000 0.000000 1.925360 
# 
# From -- ./inp_files/4892.got.cif
#   From: 2010.05.17/outbox.cif.g08.bks.cpg/sg41_3_cif.got.tgz:4892.got - 2010.06.03 18:54:24.
