data_PCOD9367769
_publ_section_title
;
Structure prediction by ZEFSAII (Michael W. Deem and Ramdas Pophale) SiO2 
 PCOD9367769
Probable space group: A B A 2
;
_chemical_formula_sum "Si O2"
_cell_formula_units_Z 64
_cell_length_a 29.406121
_cell_length_b 9.307735
_cell_length_c 11.091823
_cell_angle_alpha 90.000000
_cell_angle_beta 90.000000
_cell_angle_gamma 90.000000
_cell_volume 3035.880556
_symmetry_space_group_name_H-M "A B A 2"
_symmetry_group_IT_number 41
_symmetry_cell_setting 'orthorhombic'
loop_
_space_group_symop_operation_xyz
x,y,z
-x,-y,z
1/2-x,y,1/2+z
1/2+x,-y,1/2+z
x,1/2+y,1/2+z
-x,1/2-y,1/2+z
1/2-x,1/2+y,z
1/2+x,1/2-y,z
loop_
_atom_site_type_symbol
_atom_site_label
_atom_site_fract_x
_atom_site_fract_y
_atom_site_fract_z
Si Si1 0.216101 0.599820 0.243000
Si Si2 0.115064 0.431503 0.656031
Si Si3 0.326670 0.620511 0.492302
Si Si4 0.457181 0.430891 0.773270
Si Si5 0.642260 0.575353 0.894813
Si Si6 0.540447 0.888016 0.792109
Si Si7 0.425830 0.633170 0.562736
Si Si8 0.205947 0.400988 0.804426
O O1 0.175888 0.513580 0.310080
O O2 0.258694 0.495444 0.228692
O O3 0.225685 0.742247 0.320930
O O4 0.200711 0.655707 0.112708
O O5 0.136323 0.486544 0.530087
O O6 0.084193 0.544687 0.726351
O O7 0.085890 0.290324 0.617884
O O8 0.156684 0.389435 0.742361
O O9 0.337992 0.763179 0.414336
O O10 0.376279 0.566998 0.533972
O O11 0.301348 0.494733 0.423157
O O12 0.500000 0.500000 0.844456
O O13 0.408624 0.423728 0.840425
O O14 0.469353 0.268416 0.738709
O O15 0.450039 0.533753 0.659329
O O16 0.500000 0.000000 0.776193
O O17 0.548849 0.862556 0.934841
#
# Coordination Sequence:
#
# PCOD9367769 Si02
#       8
#     8   8   8   8   8   8   8   8
#     4  12  27  45  70 104 143 182 235 296 347 420
#     4  11  23  47  72  99 141 182 232 292 351 416
#     4  11  23  47  74  98 140 184 231 289 351 414
#     4  12  24  44  70 102 138 182 233 290 348 417
#     4  11  23  48  72  98 142 183 230 292 355 412
#     4  12  26  45  70 102 141 185 235 290 352 421
#     4  11  22  48  72  98 140 181 230 291 349 413
#     4  12  25  44  71 103 137 185 235 286 353 417
#
# _framework density 21.081198000000001
#
# number of rings (size 3 to 8) (size 9 to 14) (size 15 to 20)
#    0.000    0.500    7.500    1.875    1.750    2.500 
#    9.000    0.000    0.000    0.000    0.000    0.000 
#    0.000    0.000    0.000    0.000    0.000    0.000 
#
# Total GULP energy -178842.169076 kJ/mol
# GULP energy per Si atom -5588.817784 kJ/mol
# Density = 2.103322 g / cm^3
# Si number density = 21.081198 Si / 1000 Ang^3
#
#
#
# Elastic Constant Matrix: (Units=GPa)
#
#
# Indices 1 2 3 4 5 6 
#
# 1 72.1970 47.3232 -1.2820 0.0000 0.0000 0.0000
# 2 47.3232 136.3601 36.8112 0.0000 0.0000 0.0000
# 3 -1.2820 36.8112 74.3261 0.0000 0.0000 0.0000
# 4 0.0000 0.0000 0.0000 16.8866 0.0000 0.0000
# 5 0.0000 0.0000 0.0000 0.0000 26.8767 0.0000
# 6 0.0000 0.0000 0.0000 0.0000 0.0000 35.9473
#
#
#
# Elastic Compliance Matrix: (Units=1/GPa)
#
#
# Indices 1 2 3 4 5 6 
#
# 1 0.018974 -0.007703 0.004142 0.000000 0.000000 0.000000
# 2 -0.007703 0.011593 -0.005874 0.000000 0.000000 0.000000
# 3 0.004142 -0.005874 0.016435 0.000000 0.000000 0.000000
# 4 0.000000 0.000000 0.000000 0.059219 0.000000 0.000000
# 5 0.000000 0.000000 0.000000 0.000000 0.037207 0.000000
# 6 0.000000 0.000000 0.000000 0.000000 0.000000 0.027818
#
#
# Mechanical properties :
#
#
# Convention : Reuss Voigt Hill
#
# Bulk Modulus (GPa) = 35.54757 49.84310 42.69533
# Shear Modulus (GPa) = 25.06362 29.27751 27.17057
#
# Velocity S-wave (km/s) = 3.45180 3.73070 3.59395
# Velocity P-wave (km/s) = 5.72585 6.50017 6.12526
#
# Compressibility (1/GPa) = 0.02813132
#
# Stress axis : x y z
#
# Youngs Moduli (GPa) = 52.70476 86.26203 60.84571
#
# Poissons Ratio (x) = 0.66447 -0.25204
# Poissons Ratio (y) = 0.40598 0.35742
# Poissons Ratio (z) = -0.21832 0.50673
#
# Static dielectric constant tensor:
#      x y z
#    x 1.775580 0.000000 0.000000 
#    y 0.000000 1.743870 0.000000 
#    z 0.000000 0.000000 1.766310 
# 
# From -- ./inp_files/6670.got.cif
#   From: 2010.05.17/outbox.cif.g08.bks.cpg/sg41_4_cif.got.tgz:6670.got - 2010.06.03 18:54:24.
