data_PCOD9367038
_publ_section_title
;
Structure prediction by ZEFSAII (Michael W. Deem and Ramdas Pophale) SiO2 
 PCOD9367038
Probable space group: A B A 2
;
_chemical_formula_sum "Si O2"
_cell_formula_units_Z 60
_cell_length_a 28.479966
_cell_length_b 11.533918
_cell_length_c 8.357808
_cell_angle_alpha 90.000000
_cell_angle_beta 90.000000
_cell_angle_gamma 90.000000
_cell_volume 2745.419513
_symmetry_space_group_name_H-M "A B A 2"
_symmetry_group_IT_number 41
_symmetry_cell_setting 'orthorhombic'
loop_
_space_group_symop_operation_xyz
x,y,z
-x,-y,z
1/2-x,y,1/2+z
1/2+x,-y,1/2+z
x,1/2+y,1/2+z
-x,1/2-y,1/2+z
1/2-x,1/2+y,z
1/2+x,1/2-y,z
loop_
_atom_site_type_symbol
_atom_site_label
_atom_site_fract_x
_atom_site_fract_y
_atom_site_fract_z
Si Si1 0.095563 0.584514 0.543680
Si Si2 0.813238 0.562105 0.124045
Si Si3 0.020444 0.266673 0.926371
Si Si4 0.500000 0.000000 0.114079
Si Si5 0.934204 0.181706 0.081502
Si Si6 0.184567 0.670306 0.691002
Si Si7 0.602593 0.410997 0.682476
Si Si8 0.244850 0.053535 0.909042
O O1 0.053682 0.678070 0.525274
O O2 0.081160 0.450922 0.569190
O O3 0.132794 0.616364 0.679677
O O4 0.118375 0.597386 0.366887
O O5 0.820967 0.694049 0.166949
O O6 0.863076 0.500154 0.095434
O O7 0.787456 0.494814 0.268288
O O8 0.776823 0.549816 0.979063
O O9 0.038518 0.294366 0.748939
O O10 0.015806 0.389915 0.011343
O O11 0.969169 0.208790 0.935198
O O12 0.548464 0.956888 0.195998
O O13 0.896569 0.286173 0.094571
O O14 0.213870 0.611975 0.546044
O O15 0.216292 0.642940 0.843761
#
# Coordination Sequence:
#
# PCOD9367038 Si02
#       8
#     8   8   8   4   8   8   8   8
#     4  11  23  40  66  95 131 171 220 266 333 388
#     4  11  22  45  69  97 136 172 217 278 330 399
#     4  10  23  41  65  95 129 173 214 270 324 382
#     4  10  22  40  62  96 134 166 224 264 326 392
#     4  10  24  42  65  94 131 175 220 270 318 397
#     4  11  23  43  67  98 127 171 214 267 332 390
#     4  10  23  41  63  95 132 175 211 272 328 379
#     4  10  24  43  66 101 129 171 218 269 333 398
#
# _framework density 21.854583000000002
#
# number of rings (size 3 to 8) (size 9 to 14) (size 15 to 20)
#    0.000    1.600    1.333    2.000    7.467    4.267 
#   12.000    0.000    0.000    0.000    0.000    0.000 
#    0.000    0.000    0.000    0.000    0.000    0.000 
#
# Total GULP energy -167560.511643 kJ/mol
# GULP energy per Si atom -5585.350388 kJ/mol
# Density = 2.180484 g / cm^3
# Si number density = 21.854583 Si / 1000 Ang^3
#
#
#
# Elastic Constant Matrix: (Units=GPa)
#
#
# Indices 1 2 3 4 5 6 
#
# 1 54.3785 27.0631 -3.3674 0.0000 0.0000 0.0000
# 2 27.0631 160.5470 -12.8762 0.0000 0.0000 0.0000
# 3 -3.3674 -12.8762 11.1558 0.0000 0.0000 0.0000
# 4 0.0000 0.0000 0.0000 10.3579 0.0000 0.0000
# 5 0.0000 0.0000 0.0000 0.0000 7.4842 0.0000
# 6 0.0000 0.0000 0.0000 0.0000 0.0000 31.9197
#
#
#
# Elastic Compliance Matrix: (Units=1/GPa)
#
#
# Indices 1 2 3 4 5 6 
#
# 1 0.020131 -0.003203 0.002380 0.000000 0.000000 0.000000
# 2 -0.003203 0.007374 0.007544 0.000000 0.000000 0.000000
# 3 0.002380 0.007544 0.099066 0.000000 0.000000 0.000000
# 4 0.000000 0.000000 0.000000 0.096545 0.000000 0.000000
# 5 0.000000 0.000000 0.000000 0.000000 0.133615 0.000000
# 6 0.000000 0.000000 0.000000 0.000000 0.000000 0.031329
#
#
# Mechanical properties :
#
#
# Convention : Reuss Voigt Hill
#
# Bulk Modulus (GPa) = 7.14217 27.52448 17.33333
# Shear Modulus (GPa) = 11.86841 24.30314 18.08578
#
# Velocity S-wave (km/s) = 2.33290 3.33834 2.87984
# Velocity P-wave (km/s) = 3.24526 5.24224 4.35963
#
# Compressibility (1/GPa) = 0.14001343
#
# Stress axis : x y z
#
# Youngs Moduli (GPa) = 49.67505 135.61899 10.09431
#
# Poissons Ratio (x) = 0.43432 -0.02403
# Poissons Ratio (y) = 0.15909 -0.07615
# Poissons Ratio (z) = -0.11823 -1.02312
#
# Static dielectric constant tensor:
#      x y z
#    x 1.827530 0.000000 0.000000 
#    y 0.000000 1.773950 0.000000 
#    z 0.000000 0.000000 1.838340 
# 
# From -- ./inp_files/3794.got.cif
#   From: 2010.05.17/outbox.cif.g08.bks.cpg/sg41_2_cif.got.tgz:3794.got - 2010.06.03 18:54:24.
