data_PCOD9367072
_publ_section_title
;
Structure prediction by ZEFSAII (Michael W. Deem and Ramdas Pophale) SiO2 
 PCOD9367072
Probable space group: A B A 2
;
_chemical_formula_sum "Si O2"
_cell_formula_units_Z 64
_cell_length_a 11.682078
_cell_length_b 30.969932
_cell_length_c 7.956651
_cell_angle_alpha 90.000000
_cell_angle_beta 90.000000
_cell_angle_gamma 90.000000
_cell_volume 2878.661918
_symmetry_space_group_name_H-M "A B A 2"
_symmetry_group_IT_number 41
_symmetry_cell_setting 'orthorhombic'
loop_
_space_group_symop_operation_xyz
x,y,z
-x,-y,z
1/2-x,y,1/2+z
1/2+x,-y,1/2+z
x,1/2+y,1/2+z
-x,1/2-y,1/2+z
1/2-x,1/2+y,z
1/2+x,1/2-y,z
loop_
_atom_site_type_symbol
_atom_site_label
_atom_site_fract_x
_atom_site_fract_y
_atom_site_fract_z
Si Si1 0.981705 0.705832 0.058380
Si Si2 0.716702 0.908170 0.957204
Si Si3 0.938545 0.954476 0.954660
Si Si4 0.484910 0.050289 0.053927
Si Si5 0.823061 0.839469 0.715976
Si Si6 0.587075 0.126835 0.531906
Si Si7 0.075876 0.700978 0.684434
Si Si8 0.157373 0.875156 0.642261
O O1 0.072408 0.693220 0.206193
O O2 0.933741 0.752793 0.097075
O O3 0.887521 0.668185 0.051763
O O4 0.046113 0.705900 0.880788
O O5 0.808858 0.943882 0.014207
O O6 0.793569 0.872691 0.863448
O O7 0.604373 0.934535 0.908928
O O8 0.649686 0.874973 0.076877
O O9 0.936441 0.949817 0.748788
O O10 0.000000 0.000000 0.989505
O O11 0.014618 0.916877 0.034740
O O12 0.594140 0.082304 0.066965
O O13 0.500000 0.000000 0.019675
O O14 0.705599 0.815533 0.674880
O O15 0.510243 0.166115 0.602046
O O16 0.706451 0.122240 0.629035
O O17 0.619744 0.131346 0.335426
#
# Coordination Sequence:
#
# PCOD9367072 Si02
#       8
#     8   8   8   8   8   8   8   8
#     4  12  27  45  70 101 134 175 226 280 342 408
#     4  12  21  43  71  98 131 182 226 286 338 404
#     4  10  22  40  66  99 135 178 227 282 339 399
#     4  10  22  41  67  98 136 178 226 282 340 400
#     4  12  24  44  72  97 133 174 230 282 341 403
#     4  11  24  43  67  94 138 180 222 277 337 400
#     4  12  27  44  70 101 134 176 226 280 341 407
#     4  11  23  44  65  94 137 181 221 277 340 397
#
# _framework density 22.232551000000001
#
# number of rings (size 3 to 8) (size 9 to 14) (size 15 to 20)
#    0.000    0.750    5.000    2.250    5.250    0.000 
#    0.000    0.625    0.000    0.000    0.000    0.000 
#    0.000    0.000    0.000    0.000    0.000    0.000 
#
# Total GULP energy -178546.470437 kJ/mol
# GULP energy per Si atom -5579.577201 kJ/mol
# Density = 2.218195 g / cm^3
# Si number density = 22.232551 Si / 1000 Ang^3
#
#
#
# Elastic Constant Matrix: (Units=GPa)
#
#
# Indices 1 2 3 4 5 6 
#
# 1 129.5388 54.3701 8.2545 0.0000 0.0000 0.0000
# 2 54.3701 171.7020 26.7519 0.0000 0.0000 0.0000
# 3 8.2545 26.7519 41.7996 0.0000 0.0000 0.0000
# 4 0.0000 0.0000 0.0000 4.6719 0.0000 0.0000
# 5 0.0000 0.0000 0.0000 0.0000 27.1324 0.0000
# 6 0.0000 0.0000 0.0000 0.0000 0.0000 26.9481
#
#
#
# Elastic Compliance Matrix: (Units=1/GPa)
#
#
# Indices 1 2 3 4 5 6 
#
# 1 0.008903 -0.002827 0.000051 0.000000 0.000000 0.000000
# 2 -0.002827 0.007367 -0.004157 0.000000 0.000000 0.000000
# 3 0.000051 -0.004157 0.026574 0.000000 0.000000 0.000000
# 4 0.000000 0.000000 0.000000 0.214046 0.000000 0.000000
# 5 0.000000 0.000000 0.000000 0.000000 0.036856 0.000000
# 6 0.000000 0.000000 0.000000 0.000000 0.000000 0.037108
#
#
# Mechanical properties :
#
#
# Convention : Reuss Voigt Hill
#
# Bulk Modulus (GPa) = 34.50801 57.97706 46.24253
# Shear Modulus (GPa) = 14.10920 28.66141 21.38530
#
# Velocity S-wave (km/s) = 2.52190 3.59439 3.10480
# Velocity P-wave (km/s) = 4.90255 6.58486 5.80497
#
# Compressibility (1/GPa) = 0.02897878
#
# Stress axis : x y z
#
# Youngs Moduli (GPa) = 112.32101 135.74251 37.63106
#
# Poissons Ratio (x) = 0.38377 -0.00193
# Poissons Ratio (y) = 0.31755 0.15642
# Poissons Ratio (z) = -0.00576 0.56422
#
# Static dielectric constant tensor:
#      x y z
#    x 1.812710 0.000000 0.000000 
#    y 0.000000 1.825450 0.000000 
#    z 0.000000 0.000000 1.964920 
# 
# From -- ./inp_files/2234.got.cif
#   From: 2010.05.17/outbox.cif.g08.bks.cpg/sg41_2_cif.got.tgz:2234.got - 2010.06.03 18:54:24.
