data_PCOD9367086
_publ_section_title
;
Structure prediction by ZEFSAII (Michael W. Deem and Ramdas Pophale) SiO2 
 PCOD9367086
Probable space group: A B A 2
;
_chemical_formula_sum "Si O2"
_cell_formula_units_Z 60
_cell_length_a 8.945085
_cell_length_b 10.473705
_cell_length_c 24.707136
_cell_angle_alpha 90.000000
_cell_angle_beta 90.000000
_cell_angle_gamma 90.000000
_cell_volume 2314.766642
_symmetry_space_group_name_H-M "A B A 2"
_symmetry_group_IT_number 41
_symmetry_cell_setting 'orthorhombic'
loop_
_space_group_symop_operation_xyz
x,y,z
-x,-y,z
1/2-x,y,1/2+z
1/2+x,-y,1/2+z
x,1/2+y,1/2+z
-x,1/2-y,1/2+z
1/2-x,1/2+y,z
1/2+x,1/2-y,z
loop_
_atom_site_type_symbol
_atom_site_label
_atom_site_fract_x
_atom_site_fract_y
_atom_site_fract_z
Si Si1 0.674385 0.754533 0.097290
Si Si2 0.419647 0.339820 0.383209
Si Si3 0.169062 0.993446 0.282006
Si Si4 0.664665 0.181081 0.198582
Si Si5 0.441945 0.647039 0.787190
Si Si6 0.310190 0.685843 0.455982
Si Si7 0.500000 0.000000 0.115449
Si Si8 0.560236 0.321422 0.029864
O O1 0.737755 0.767305 0.158153
O O2 0.598346 0.893042 0.085153
O O3 0.547576 0.648875 0.082185
O O4 0.816754 0.732141 0.058894
O O5 0.338933 0.437150 0.342357
O O6 0.468368 0.226832 0.341344
O O7 0.571597 0.378980 0.414986
O O8 0.295691 0.283906 0.423647
O O9 0.239445 0.893039 0.242024
O O10 0.265101 0.122230 0.279747
O O11 0.000000 0.000000 0.264867
O O12 0.520119 0.211774 0.235459
O O13 0.607217 0.078108 0.154972
O O14 0.500000 0.500000 0.792455
O O15 0.181521 0.606763 0.490267
O O16 0.432385 0.761714 0.492175
#
# Coordination Sequence:
#
# PCOD9367086 Si02
#       8
#     8   8   8   8   8   8   4   8
#     4  11  23  43  72  98 133 182 225 284 351 415
#     4  11  21  38  67  89 131 183 218 276 350 391
#     4  11  24  38  62 101 135 175 230 268 322 414
#     4  11  24  42  63  97 138 184 214 276 341 406
#     4  10  22  41  61  95 143 181 229 277 326 415
#     4   9  19  38  68  92 123 178 221 282 354 396
#     4  12  24  44  70  96 140 172 230 278 340 408
#     4   9  20  40  71  92 129 174 224 289 350 406
#
# _framework density 25.920539000000002
#
# number of rings (size 3 to 8) (size 9 to 14) (size 15 to 20)
#    0.000    1.600    3.333    2.400    1.867    2.133 
#    0.000    0.000   51.333    0.000    0.000    0.000 
#    0.000    0.000    0.000    0.000    0.000    0.000 
#
# Total GULP energy -167197.264489 kJ/mol
# GULP energy per Si atom -5573.242150 kJ/mol
# Density = 2.586154 g / cm^3
# Si number density = 25.920539 Si / 1000 Ang^3
#
#
#
# Elastic Constant Matrix: (Units=GPa)
#
#
# Indices 1 2 3 4 5 6 
#
# 1 187.6125 20.7605 62.2784 0.0000 0.0000 0.0000
# 2 20.7605 63.6052 24.6116 0.0000 0.0000 0.0000
# 3 62.2784 24.6116 128.5648 0.0000 0.0000 0.0000
# 4 0.0000 0.0000 0.0000 3.3776 0.0000 0.0000
# 5 0.0000 0.0000 0.0000 0.0000 80.2608 0.0000
# 6 0.0000 0.0000 0.0000 0.0000 0.0000 26.8984
#
#
#
# Elastic Compliance Matrix: (Units=1/GPa)
#
#
# Indices 1 2 3 4 5 6 
#
# 1 0.006405 -0.000961 -0.002919 0.000000 0.000000 0.000000
# 2 -0.000961 0.017124 -0.002812 0.000000 0.000000 0.000000
# 3 -0.002919 -0.002812 0.009731 0.000000 0.000000 0.000000
# 4 0.000000 0.000000 0.000000 0.296070 0.000000 0.000000
# 5 0.000000 0.000000 0.000000 0.000000 0.012459 0.000000
# 6 0.000000 0.000000 0.000000 0.000000 0.000000 0.037177
#
#
# Mechanical properties :
#
#
# Convention : Reuss Voigt Hill
#
# Bulk Modulus (GPa) = 50.31504 66.12038 58.21771
# Shear Modulus (GPa) = 12.53206 40.24950 26.39078
#
# Velocity S-wave (km/s) = 2.20120 3.94484 3.19429
# Velocity P-wave (km/s) = 5.09056 6.80538 6.00945
#
# Compressibility (1/GPa) = 0.01987477
#
# Stress axis : x y z
#
# Youngs Moduli (GPa) = 156.11774 58.39756 102.76962
#
# Poissons Ratio (x) = 0.05614 0.29997
# Poissons Ratio (y) = 0.15007 0.28904
# Poissons Ratio (z) = 0.45568 0.16424
#
# Static dielectric constant tensor:
#      x y z
#    x 2.151180 0.000000 0.000000 
#    y 0.000000 2.094460 0.000000 
#    z 0.000000 0.000000 2.129990 
# 
# From -- ./inp_files/12460.got.cif
#   From: 2010.05.17/outbox.cif.g08.bks.cpg/sg41_7_cif.got.tgz:12460.got - 2010.06.03 18:54:24.
