data_PCOD9367311
_publ_section_title
;
Structure prediction by ZEFSAII (Michael W. Deem and Ramdas Pophale) SiO2 
 PCOD9367311
Probable space group: A B A 2
;
_chemical_formula_sum "Si O2"
_cell_formula_units_Z 36
_cell_length_a 14.021770
_cell_length_b 5.622803
_cell_length_c 18.826651
_cell_angle_alpha 90.000000
_cell_angle_beta 90.000000
_cell_angle_gamma 90.000000
_cell_volume 1484.324237
_symmetry_space_group_name_H-M "A B A 2"
_symmetry_group_IT_number 41
_symmetry_cell_setting 'orthorhombic'
loop_
_space_group_symop_operation_xyz
x,y,z
-x,-y,z
1/2-x,y,1/2+z
1/2+x,-y,1/2+z
x,1/2+y,1/2+z
-x,1/2-y,1/2+z
1/2-x,1/2+y,z
1/2+x,1/2-y,z
loop_
_atom_site_type_symbol
_atom_site_label
_atom_site_fract_x
_atom_site_fract_y
_atom_site_fract_z
Si Si1 0.398832 0.119060 0.992400
Si Si2 0.357731 0.122264 0.707289
Si Si3 0.108649 0.407526 0.854971
Si Si4 0.500000 0.000000 0.396425
Si Si5 0.357718 0.626824 0.651745
O O1 0.432451 0.353202 0.950624
O O2 0.500000 0.000000 0.012847
O O3 0.346798 0.960394 0.931898
O O4 0.347589 0.137473 0.066767
O O5 0.399239 0.375578 0.680976
O O6 0.248981 0.133165 0.682016
O O7 0.351972 0.060879 0.791032
O O8 0.402924 0.878295 0.676145
O O9 0.000000 0.500000 0.862872
O O10 0.079799 0.132525 0.847848
#
# Coordination Sequence:
#
# PCOD9367311 Si02
#       5
#     8   8   8   4   8
#     4   9  20  37  63  89 121 159 210 255 312 371
#     4  10  23  41  60  87 128 165 205 252 307 374
#     4   9  20  37  63  89 121 159 210 255 312 371
#     4   8  18  36  64  94 120 156 212 270 314 364
#     4  10  23  41  60  87 128 165 205 252 307 374
#
# _framework density 24.253461000000001
#
# number of rings (size 3 to 8) (size 9 to 14) (size 15 to 20)
#    0.000    3.111    0.000    0.000   12.444    1.778 
#    0.000    8.889    0.000    0.000    0.000    0.000 
#    0.000    0.000    0.000    0.000    0.000    0.000 
#
# Total GULP energy -100207.550970 kJ/mol
# GULP energy per Si atom -5567.086165 kJ/mol
# Density = 2.419826 g / cm^3
# Si number density = 24.253461 Si / 1000 Ang^3
#
#
#
# Elastic Constant Matrix: (Units=GPa)
#
#
# Indices 1 2 3 4 5 6 
#
# 1 45.8221 13.6096 20.2381 0.0000 0.0000 0.0000
# 2 13.6096 183.8593 42.7043 0.0000 0.0000 0.0000
# 3 20.2381 42.7043 184.0738 0.0000 0.0000 0.0000
# 4 0.0000 0.0000 0.0000 21.4038 0.0000 0.0000
# 5 0.0000 0.0000 0.0000 0.0000 46.4322 0.0000
# 6 0.0000 0.0000 0.0000 0.0000 0.0000 18.7256
#
#
#
# Elastic Compliance Matrix: (Units=1/GPa)
#
#
# Indices 1 2 3 4 5 6 
#
# 1 0.023180 -0.001188 -0.002273 0.000000 0.000000 0.000000
# 2 -0.001188 0.005810 -0.001217 0.000000 0.000000 0.000000
# 3 -0.002273 -0.001217 0.005965 0.000000 0.000000 0.000000
# 4 0.000000 0.000000 0.000000 0.046721 0.000000 0.000000
# 5 0.000000 0.000000 0.000000 0.000000 0.021537 0.000000
# 6 0.000000 0.000000 0.000000 0.000000 0.000000 0.053403
#
#
# Mechanical properties :
#
#
# Convention : Reuss Voigt Hill
#
# Bulk Modulus (GPa) = 39.06469 62.98436 51.02453
# Shear Modulus (GPa) = 28.65263 39.79253 34.22258
#
# Velocity S-wave (km/s) = 3.44085 4.05494 3.76046
# Velocity P-wave (km/s) = 5.65047 6.92452 6.31968
#
# Compressibility (1/GPa) = 0.02559857
#
# Stress axis : x y z
#
# Youngs Moduli (GPa) = 43.14018 172.12931 167.64760
#
# Poissons Ratio (x) = 0.20447 0.38106
# Poissons Ratio (y) = 0.05125 0.20406
# Poissons Ratio (z) = 0.09806 0.20951
#
# Static dielectric constant tensor:
#      x y z
#    x 1.827420 0.000000 0.000000 
#    y 0.000000 2.456110 0.000000 
#    z 0.000000 0.000000 1.953600 
# 
# From -- ./inp_files/640.got.cif
#   From: 2010.05.17/outbox.cif.g08.bks.cpg/sg41_1_cif.got.tgz:640.got - 2010.06.03 18:54:24.
