data_PCOD9367906
_publ_section_title
;
Structure prediction by ZEFSAII (Michael W. Deem and Ramdas Pophale) SiO2 
 PCOD9367906
Probable space group: A B A 2
;
_chemical_formula_sum "Si O2"
_cell_formula_units_Z 48
_cell_length_a 7.829840
_cell_length_b 20.773775
_cell_length_c 11.449437
_cell_angle_alpha 90.000000
_cell_angle_beta 90.000000
_cell_angle_gamma 90.000000
_cell_volume 1862.312004
_symmetry_space_group_name_H-M "A B A 2"
_symmetry_group_IT_number 41
_symmetry_cell_setting 'orthorhombic'
loop_
_space_group_symop_operation_xyz
x,y,z
-x,-y,z
1/2-x,y,1/2+z
1/2+x,-y,1/2+z
x,1/2+y,1/2+z
-x,1/2-y,1/2+z
1/2-x,1/2+y,z
1/2+x,1/2-y,z
loop_
_atom_site_type_symbol
_atom_site_label
_atom_site_fract_x
_atom_site_fract_y
_atom_site_fract_z
Si Si1 0.633644 0.282454 0.776900
Si Si2 0.160532 0.459829 0.274026
Si Si3 0.925260 0.642328 0.467114
Si Si4 0.084801 0.350289 0.086143
Si Si5 0.496976 0.652544 0.327516
Si Si6 0.588808 0.441086 0.147818
O O1 0.518613 0.308219 0.883426
O O2 0.528619 0.301704 0.661749
O O3 0.815284 0.318228 0.783611
O O4 0.637012 0.206355 0.797071
O O5 0.173981 0.410497 0.385717
O O6 0.111436 0.413817 0.164347
O O7 0.266899 0.520891 0.219123
O O8 0.000000 0.500000 0.316413
O O9 0.774642 0.671527 0.547047
O O10 0.075458 0.613455 0.549902
O O11 0.988835 0.361535 0.963953
O O12 0.526906 0.588725 0.251849
O O13 0.500000 0.500000 0.084386
#
# Coordination Sequence:
#
# PCOD9367906 Si02
#       6
#     8   8   8   8   8   8
#     4  11  29  50  77 113 151 202 270 321 398 464
#     4  11  25  45  71 114 154 199 263 309 396 468
#     4  11  25  48  78 110 158 202 259 328 392 467
#     4  11  26  48  75 108 152 205 251 328 383 468
#     4  12  29  48  79 113 155 207 263 323 395 471
#     4  12  25  46  78 114 155 206 251 322 392 468
#
# _framework density 25.774412999999999
#
# number of rings (size 3 to 8) (size 9 to 14) (size 15 to 20)
#    0.000    0.667    1.667    4.500   11.667    2.000 
#    0.000    0.000    0.000    0.000    0.000    0.000 
#    0.000    0.000    0.000    0.000    0.000    0.000 
#
# Total GULP energy -134116.943219 kJ/mol
# GULP energy per Si atom -5588.205967 kJ/mol
# Density = 2.571575 g / cm^3
# Si number density = 25.774413 Si / 1000 Ang^3
#
#
#
# Elastic Constant Matrix: (Units=GPa)
#
#
# Indices 1 2 3 4 5 6 
#
# 1 82.2825 15.3986 24.0849 0.0000 0.0000 0.0000
# 2 15.3986 80.9923 55.6436 0.0000 0.0000 0.0000
# 3 24.0849 55.6436 196.3769 0.0000 0.0000 0.0000
# 4 0.0000 0.0000 0.0000 36.9599 0.0000 0.0000
# 5 0.0000 0.0000 0.0000 0.0000 42.1284 0.0000
# 6 0.0000 0.0000 0.0000 0.0000 0.0000 33.9998
#
#
#
# Elastic Compliance Matrix: (Units=1/GPa)
#
#
# Indices 1 2 3 4 5 6 
#
# 1 0.012787 -0.001681 -0.001092 0.000000 0.000000 0.000000
# 2 -0.001681 0.015552 -0.004201 0.000000 0.000000 0.000000
# 3 -0.001092 -0.004201 0.006416 0.000000 0.000000 0.000000
# 4 0.000000 0.000000 0.000000 0.027056 0.000000 0.000000
# 5 0.000000 0.000000 0.000000 0.000000 0.023737 0.000000
# 6 0.000000 0.000000 0.000000 0.000000 0.000000 0.029412
#
#
# Mechanical properties :
#
#
# Convention : Reuss Voigt Hill
#
# Bulk Modulus (GPa) = 48.05598 61.10065 54.57831
# Shear Modulus (GPa) = 36.80663 40.25259 38.52961
#
# Velocity S-wave (km/s) = 3.78303 3.95616 3.87056
# Velocity P-wave (km/s) = 6.14549 6.68024 6.41844
#
# Compressibility (1/GPa) = 0.02080906
#
# Stress axis : x y z
#
# Youngs Moduli (GPa) = 78.20154 64.29893 155.84984
#
# Poissons Ratio (x) = 0.10808 0.17019
# Poissons Ratio (y) = 0.13145 0.65467
# Poissons Ratio (z) = 0.08540 0.27010
#
# Static dielectric constant tensor:
#      x y z
#    x 2.111060 0.000000 0.000000 
#    y 0.000000 1.834100 0.000000 
#    z 0.000000 0.000000 1.974750 
# 
# From -- ./inp_files/4507.got.cif
#   From: 2010.05.17/outbox.cif.g08.bks.cpg/sg41_3_cif.got.tgz:4507.got - 2010.06.03 18:54:24.
