data_PCOD9367228
_publ_section_title
;
Structure prediction by ZEFSAII (Michael W. Deem and Ramdas Pophale) SiO2 
 PCOD9367228
Probable space group: A B A 2
;
_chemical_formula_sum "Si O2"
_cell_formula_units_Z 56
_cell_length_a 9.728740
_cell_length_b 16.447237
_cell_length_c 14.615431
_cell_angle_alpha 90.000000
_cell_angle_beta 90.000000
_cell_angle_gamma 90.000000
_cell_volume 2338.628158
_symmetry_space_group_name_H-M "A B A 2"
_symmetry_group_IT_number 41
_symmetry_cell_setting 'orthorhombic'
loop_
_space_group_symop_operation_xyz
x,y,z
-x,-y,z
1/2-x,y,1/2+z
1/2+x,-y,1/2+z
x,1/2+y,1/2+z
-x,1/2-y,1/2+z
1/2-x,1/2+y,z
1/2+x,1/2-y,z
loop_
_atom_site_type_symbol
_atom_site_label
_atom_site_fract_x
_atom_site_fract_y
_atom_site_fract_z
Si Si1 0.241018 0.834145 0.092290
Si Si2 0.613069 0.066993 0.972563
Si Si3 0.665078 0.005438 0.700140
Si Si4 0.297927 0.552702 0.881543
Si Si5 0.010839 0.331290 0.449741
Si Si6 0.451418 0.170543 0.838006
Si Si7 0.342212 0.169221 0.636491
O O1 0.188166 0.908078 0.153671
O O2 0.239783 0.746192 0.138246
O O3 0.385842 0.867572 0.054026
O O4 0.158719 0.833111 0.996965
O O5 0.568273 0.111344 0.878586
O O6 0.500000 0.000000 0.993218
O O7 0.747985 0.011998 0.956396
O O8 0.500000 0.000000 0.719701
O O9 0.763723 0.992129 0.786715
O O10 0.701198 0.925067 0.640117
O O11 0.446406 0.590253 0.900342
O O12 0.190311 0.629626 0.876636
O O13 0.917168 0.319140 0.539904
O O14 0.015298 0.257525 0.379742
O O15 0.431491 0.177263 0.729367
#
# Coordination Sequence:
#
# PCOD9367228 Si02
#       7
#     8   8   8   8   8   8   8
#     4  12  26  43  75 108 153 201 250 320 387 458
#     4  10  22  44  70  98 141 195 248 306 382 454
#     4  11  23  48  74 109 149 202 262 324 386 462
#     4  10  23  43  70 100 138 197 254 312 377 468
#     4  12  24  44  71 108 151 193 254 316 396 458
#     4  10  23  44  72 103 143 195 255 318 383 454
#     4  11  24  45  71 108 144 198 257 316 380 465
#
# _framework density 23.945661999999999
#
# number of rings (size 3 to 8) (size 9 to 14) (size 15 to 20)
#    0.000    1.143    2.857    3.857    0.000    4.571 
#    2.571    0.000    0.000    0.000    0.000    0.000 
#    0.000    0.000    0.000    0.000    0.000    0.000 
#
# Total GULP energy -156385.066720 kJ/mol
# GULP energy per Si atom -5585.180954 kJ/mol
# Density = 2.389116 g / cm^3
# Si number density = 23.945662 Si / 1000 Ang^3
#
#
#
# Elastic Constant Matrix: (Units=GPa)
#
#
# Indices 1 2 3 4 5 6 
#
# 1 38.7301 38.0732 21.7274 0.0000 0.0000 0.0000
# 2 38.0732 160.8265 37.8752 0.0000 0.0000 0.0000
# 3 21.7274 37.8752 105.2395 0.0000 0.0000 0.0000
# 4 0.0000 0.0000 0.0000 42.4339 0.0000 0.0000
# 5 0.0000 0.0000 0.0000 0.0000 33.3816 0.0000
# 6 0.0000 0.0000 0.0000 0.0000 0.0000 33.2772
#
#
#
# Elastic Compliance Matrix: (Units=1/GPa)
#
#
# Indices 1 2 3 4 5 6 
#
# 1 0.035681 -0.007334 -0.004727 0.000000 0.000000 0.000000
# 2 -0.007334 0.008301 -0.001473 0.000000 0.000000 0.000000
# 3 -0.004727 -0.001473 0.011008 0.000000 0.000000 0.000000
# 4 0.000000 0.000000 0.000000 0.023566 0.000000 0.000000
# 5 0.000000 0.000000 0.000000 0.000000 0.029957 0.000000
# 6 0.000000 0.000000 0.000000 0.000000 0.000000 0.030051
#
#
# Mechanical properties :
#
#
# Convention : Reuss Voigt Hill
#
# Bulk Modulus (GPa) = 35.81435 55.57196 45.69316
# Shear Modulus (GPa) = 28.58132 35.62655 32.10394
#
# Velocity S-wave (km/s) = 3.45859 3.86140 3.66553
# Velocity P-wave (km/s) = 5.56220 6.56798 6.08591
#
# Compressibility (1/GPa) = 0.02792177
#
# Stress axis : x y z
#
# Youngs Moduli (GPa) = 28.02617 120.46745 90.83986
#
# Poissons Ratio (x) = 0.88346 0.42942
# Poissons Ratio (y) = 0.20553 0.13384
# Poissons Ratio (z) = 0.13249 0.17750
#
# Static dielectric constant tensor:
#      x y z
#    x 2.050230 0.000000 0.000000 
#    y 0.000000 1.992600 0.000000 
#    z 0.000000 0.000000 1.907890 
# 
# From -- ./inp_files/7967.got.cif
#   From: 2010.05.17/outbox.cif.g08.bks.cpg/sg41_4_cif.got.tgz:7967.got - 2010.06.03 18:54:24.
