data_PCOD9367203
_publ_section_title
;
Structure prediction by ZEFSAII (Michael W. Deem and Ramdas Pophale) SiO2 
 PCOD9367203
Probable space group: A B A 2
;
_chemical_formula_sum "Si O2"
_cell_formula_units_Z 56
_cell_length_a 17.091431
_cell_length_b 16.604553
_cell_length_c 8.024016
_cell_angle_alpha 90.000000
_cell_angle_beta 90.000000
_cell_angle_gamma 90.000000
_cell_volume 2277.180210
_symmetry_space_group_name_H-M "A B A 2"
_symmetry_group_IT_number 41
_symmetry_cell_setting 'orthorhombic'
loop_
_space_group_symop_operation_xyz
x,y,z
-x,-y,z
1/2-x,y,1/2+z
1/2+x,-y,1/2+z
x,1/2+y,1/2+z
-x,1/2-y,1/2+z
1/2-x,1/2+y,z
1/2+x,1/2-y,z
loop_
_atom_site_type_symbol
_atom_site_label
_atom_site_fract_x
_atom_site_fract_y
_atom_site_fract_z
Si Si1 0.174354 0.630366 0.410900
Si Si2 0.043182 0.652048 0.678840
Si Si3 0.083134 0.772999 0.963421
Si Si4 0.408556 0.427384 0.364817
Si Si5 0.707223 0.206050 0.740055
Si Si6 0.674380 0.454613 0.570275
Si Si7 0.135554 0.876467 0.694172
O O1 0.194579 0.723152 0.372465
O O2 0.249998 0.583134 0.482216
O O3 0.148720 0.598595 0.227761
O O4 0.108145 0.622075 0.550789
O O5 0.978545 0.588280 0.740212
O O6 0.991608 0.718686 0.580673
O O7 0.077901 0.699247 0.836887
O O8 0.202851 0.809396 0.699009
O O9 0.088972 0.857192 0.860753
O O10 0.159092 0.769339 0.077507
O O11 0.384999 0.517058 0.423222
O O12 0.333222 0.377113 0.300735
O O13 0.423948 0.381953 0.540523
O O14 0.683516 0.541027 0.664312
#
# Coordination Sequence:
#
# PCOD9367203 Si02
#       7
#     8   8   8   8   8   8   8
#     4  12  27  47  77 116 158 195 257 331 390 451
#     4  11  24  46  78 114 155 204 252 329 389 456
#     4  11  23  42  76 117 150 187 269 318 375 456
#     4   9  22  46  75 107 148 207 254 305 389 475
#     4  11  23  39  80 116 145 197 262 321 376 448
#     4  10  27  47  74 110 159 199 255 319 388 477
#     4  10  22  43  77 105 147 207 250 317 372 466
#
# _framework density 24.591819000000001
#
# number of rings (size 3 to 8) (size 9 to 14) (size 15 to 20)
#    0.857    0.571    0.000    5.143    8.000    0.000 
#    0.000    0.714    6.286    1.714    0.000    0.000 
#    0.000    0.000    0.000    0.000    0.000    0.000 
#
# Total GULP energy -156504.714060 kJ/mol
# GULP energy per Si atom -5589.454074 kJ/mol
# Density = 2.453585 g / cm^3
# Si number density = 24.591819 Si / 1000 Ang^3
#
#
#
# Elastic Constant Matrix: (Units=GPa)
#
#
# Indices 1 2 3 4 5 6 
#
# 1 54.6517 29.0400 18.0102 0.0000 0.0000 0.0000
# 2 29.0400 90.9650 36.7286 0.0000 0.0000 0.0000
# 3 18.0102 36.7286 109.7725 0.0000 0.0000 0.0000
# 4 0.0000 0.0000 0.0000 49.1985 0.0000 0.0000
# 5 0.0000 0.0000 0.0000 0.0000 46.6970 0.0000
# 6 0.0000 0.0000 0.0000 0.0000 0.0000 32.5518
#
#
#
# Elastic Compliance Matrix: (Units=1/GPa)
#
#
# Indices 1 2 3 4 5 6 
#
# 1 0.022240 -0.006505 -0.001472 0.000000 0.000000 0.000000
# 2 -0.006505 0.014613 -0.003822 0.000000 0.000000 0.000000
# 3 -0.001472 -0.003822 0.010630 0.000000 0.000000 0.000000
# 4 0.000000 0.000000 0.000000 0.020326 0.000000 0.000000
# 5 0.000000 0.000000 0.000000 0.000000 0.021415 0.000000
# 6 0.000000 0.000000 0.000000 0.000000 0.000000 0.030720
#
#
# Mechanical properties :
#
#
# Convention : Reuss Voigt Hill
#
# Bulk Modulus (GPa) = 41.86973 46.99406 44.43190
# Shear Modulus (GPa) = 33.00236 37.13018 35.06627
#
# Velocity S-wave (km/s) = 3.66731 3.88991 3.78025
# Velocity P-wave (km/s) = 5.91567 6.27107 6.09596
#
# Compressibility (1/GPa) = 0.02388360
#
# Stress axis : x y z
#
# Youngs Moduli (GPa) = 44.96482 68.43082 94.07233
#
# Poissons Ratio (x) = 0.44517 0.13849
# Poissons Ratio (y) = 0.29252 0.35955
# Poissons Ratio (z) = 0.06620 0.26155
#
# Static dielectric constant tensor:
#      x y z
#    x 1.916710 0.000000 0.000000 
#    y 0.000000 2.009090 0.000000 
#    z 0.000000 0.000000 1.974650 
# 
# From -- ./inp_files/2695.got.cif
#   From: 2010.05.17/outbox.cif.g08.bks.cpg/sg41_2_cif.got.tgz:2695.got - 2010.06.03 18:54:24.
