data_PCOD9367849
_publ_section_title
;
Structure prediction by ZEFSAII (Michael W. Deem and Ramdas Pophale) SiO2 
 PCOD9367849
Probable space group: A B A 2
;
_chemical_formula_sum "Si O2"
_cell_formula_units_Z 64
_cell_length_a 9.499710
_cell_length_b 29.904011
_cell_length_c 9.957093
_cell_angle_alpha 90.000000
_cell_angle_beta 90.000000
_cell_angle_gamma 90.000000
_cell_volume 2828.605327
_symmetry_space_group_name_H-M "A B A 2"
_symmetry_group_IT_number 41
_symmetry_cell_setting 'orthorhombic'
loop_
_space_group_symop_operation_xyz
x,y,z
-x,-y,z
1/2-x,y,1/2+z
1/2+x,-y,1/2+z
x,1/2+y,1/2+z
-x,1/2-y,1/2+z
1/2-x,1/2+y,z
1/2+x,1/2-y,z
loop_
_atom_site_type_symbol
_atom_site_label
_atom_site_fract_x
_atom_site_fract_y
_atom_site_fract_z
Si Si1 0.333925 0.673621 0.223030
Si Si2 0.541544 0.371909 0.752643
Si Si3 0.879754 0.643869 0.779991
Si Si4 0.280256 0.763321 0.865560
Si Si5 0.834337 0.997899 0.576571
Si Si6 0.878796 0.464950 0.374200
Si Si7 0.790088 0.101289 0.554614
Si Si8 0.986767 0.703661 0.468678
O O1 0.194777 0.644151 0.200818
O O2 0.453193 0.647494 0.307585
O O3 0.285816 0.720529 0.289630
O O4 0.422371 0.684220 0.089584
O O5 0.559725 0.416254 0.842673
O O6 0.429428 0.383125 0.637072
O O7 0.490486 0.331448 0.846558
O O8 0.817518 0.693848 0.777283
O O9 0.839551 0.620842 0.639828
O O10 0.805442 0.618363 0.903127
O O11 0.425910 0.747160 0.926324
O O12 0.172594 0.779921 0.979654
O O13 0.780085 0.048077 0.557463
O O14 0.823339 0.983096 0.730842
O O15 0.745264 0.965609 0.481837
O O16 0.000000 0.000000 0.542912
O O17 0.000000 0.500000 0.416680
#
# Coordination Sequence:
#
# PCOD9367849 Si02
#       8
#     8   8   8   8   8   8   8   8
#     4  11  28  42  69 102 140 188 240 290 363 423
#     4  11  26  46  70 102 143 185 234 300 354 423
#     4  12  27  45  75 104 141 186 241 295 356 430
#     4  11  24  43  62 101 134 188 230 297 346 424
#     4  11  25  47  73 106 142 188 231 292 357 431
#     4  11  25  47  75 105 144 185 234 289 360 426
#     4  12  26  48  74 104 144 185 237 298 360 422
#     4  11  25  42  68  95 142 181 240 291 356 416
#
# _framework density 22.625990999999999
#
# number of rings (size 3 to 8) (size 9 to 14) (size 15 to 20)
#    0.000    0.750    5.000    1.500   10.500    0.500 
#    0.000    0.000    0.000    0.000    0.000    0.000 
#    0.000    0.000    0.000    0.000    0.000    0.000 
#
# Total GULP energy -179123.270646 kJ/mol
# GULP energy per Si atom -5597.602208 kJ/mol
# Density = 2.257449 g / cm^3
# Si number density = 22.625991 Si / 1000 Ang^3
#
#
#
# Elastic Constant Matrix: (Units=GPa)
#
#
# Indices 1 2 3 4 5 6 
#
# 1 66.3721 -3.3334 -2.6864 0.0000 0.0000 0.0000
# 2 -3.3334 77.7183 -17.8218 0.0000 0.0000 0.0000
# 3 -2.6864 -17.8218 48.0746 0.0000 0.0000 0.0000
# 4 0.0000 0.0000 0.0000 10.4221 0.0000 0.0000
# 5 0.0000 0.0000 0.0000 0.0000 20.6748 0.0000
# 6 0.0000 0.0000 0.0000 0.0000 0.0000 32.5355
#
#
#
# Elastic Compliance Matrix: (Units=1/GPa)
#
#
# Indices 1 2 3 4 5 6 
#
# 1 0.015161 0.000923 0.001189 0.000000 0.000000 0.000000
# 2 0.000923 0.014119 0.005286 0.000000 0.000000 0.000000
# 3 0.001189 0.005286 0.022827 0.000000 0.000000 0.000000
# 4 0.000000 0.000000 0.000000 0.095950 0.000000 0.000000
# 5 0.000000 0.000000 0.000000 0.000000 0.048368 0.000000
# 6 0.000000 0.000000 0.000000 0.000000 0.000000 0.030736
#
#
# Mechanical properties :
#
#
# Convention : Reuss Voigt Hill
#
# Bulk Modulus (GPa) = 14.94718 16.05354 15.50036
# Shear Modulus (GPa) = 21.30694 27.12692 24.21693
#
# Velocity S-wave (km/s) = 3.07205 3.46631 3.27512
# Velocity P-wave (km/s) = 4.38222 4.80947 4.60080
#
# Compressibility (1/GPa) = 0.06690225
#
# Stress axis : x y z
#
# Youngs Moduli (GPa) = 65.95844 70.82852 43.80808
#
# Poissons Ratio (x) = -0.06538 -0.05210
# Poissons Ratio (y) = -0.06088 -0.23155
# Poissons Ratio (z) = -0.07845 -0.37436
#
# Static dielectric constant tensor:
#      x y z
#    x 1.864140 0.000000 0.000000 
#    y 0.000000 1.815620 0.000000 
#    z 0.000000 0.000000 1.849620 
# 
# From -- ./inp_files/4652.got.cif
#   From: 2010.05.17/outbox.cif.g08.bks.cpg/sg41_3_cif.got.tgz:4652.got - 2010.06.03 18:54:24.
