data_PCOD9367628
_publ_section_title
;
Structure prediction by ZEFSAII (Michael W. Deem and Ramdas Pophale) SiO2 
 PCOD9367628
Probable space group: A B A 2
;
_chemical_formula_sum "Si O2"
_cell_formula_units_Z 32
_cell_length_a 26.733644
_cell_length_b 8.722902
_cell_length_c 5.360248
_cell_angle_alpha 90.000000
_cell_angle_beta 90.000000
_cell_angle_gamma 90.000000
_cell_volume 1249.982800
_symmetry_space_group_name_H-M "A B A 2"
_symmetry_group_IT_number 41
_symmetry_cell_setting 'orthorhombic'
loop_
_space_group_symop_operation_xyz
x,y,z
-x,-y,z
1/2-x,y,1/2+z
1/2+x,-y,1/2+z
x,1/2+y,1/2+z
-x,1/2-y,1/2+z
1/2-x,1/2+y,z
1/2+x,1/2-y,z
loop_
_atom_site_type_symbol
_atom_site_label
_atom_site_fract_x
_atom_site_fract_y
_atom_site_fract_z
Si Si1 0.900106 0.523026 0.163760
Si Si2 0.334754 0.753196 0.499351
Si Si3 0.737996 0.106928 0.826128
Si Si4 0.531924 0.760525 0.389511
O O1 0.872201 0.632195 0.360067
O O2 0.929938 0.625863 0.966100
O O3 0.938322 0.413186 0.312714
O O4 0.861516 0.407199 0.032145
O O5 0.314970 0.817429 0.765984
O O6 0.282957 0.767838 0.345813
O O7 0.754066 0.018169 0.579434
O O8 0.499528 0.782290 0.641863
#
# Coordination Sequence:
#
# PCOD9367628 Si02
#       4
#     8   8   8   8
#     4  12  29  50  86 116 154 204 274 322 381 498
#     4  10  25  47  74 120 154 212 258 311 385 448
#     4   8  20  46  68 110 162 208 248 314 376 450
#     4  12  31  59  80 118 156 206 256 343 419 462
#
# _framework density 25.600356000000001
#
# number of rings (size 3 to 8) (size 9 to 14) (size 15 to 20)
#    1.500    0.000    0.000    2.250    3.500   16.000 
#    0.000    0.000    0.000    0.000    0.000    0.000 
#    0.000    0.000    0.000    0.000    0.000    0.000 
#
# Total GULP energy -89565.165009 kJ/mol
# GULP energy per Si atom -5597.822813 kJ/mol
# Density = 2.554209 g / cm^3
# Si number density = 25.600356 Si / 1000 Ang^3
#
#
#
# Elastic Constant Matrix: (Units=GPa)
#
#
# Indices 1 2 3 4 5 6 
#
# 1 148.1878 70.1491 48.9081 0.0000 0.0000 0.0000
# 2 70.1491 135.4378 55.5962 0.0000 0.0000 0.0000
# 3 48.9081 55.5962 158.7657 0.0000 0.0000 0.0000
# 4 0.0000 0.0000 0.0000 39.1472 0.0000 0.0000
# 5 0.0000 0.0000 0.0000 0.0000 50.0327 0.0000
# 6 0.0000 0.0000 0.0000 0.0000 0.0000 41.2730
#
#
#
# Elastic Compliance Matrix: (Units=1/GPa)
#
#
# Indices 1 2 3 4 5 6 
#
# 1 0.009185 -0.004199 -0.001359 0.000000 0.000000 0.000000
# 2 -0.004199 0.010543 -0.002398 0.000000 0.000000 0.000000
# 3 -0.001359 -0.002398 0.007557 0.000000 0.000000 0.000000
# 4 0.000000 0.000000 0.000000 0.025545 0.000000 0.000000
# 5 0.000000 0.000000 0.000000 0.000000 0.019987 0.000000
# 6 0.000000 0.000000 0.000000 0.000000 0.000000 0.024229
#
#
# Mechanical properties :
#
#
# Convention : Reuss Voigt Hill
#
# Bulk Modulus (GPa) = 87.93786 87.96646 87.95216
# Shear Modulus (GPa) = 42.82720 43.93978 43.38349
#
# Velocity S-wave (km/s) = 4.09456 4.14741 4.12107
# Velocity P-wave (km/s) = 7.53517 7.57434 7.55478
#
# Compressibility (1/GPa) = 0.01137167
#
# Stress axis : x y z
#
# Youngs Moduli (GPa) = 108.87896 94.85025 132.32749
#
# Poissons Ratio (x) = 0.39830 0.17981
# Poissons Ratio (y) = 0.45721 0.31736
# Poissons Ratio (z) = 0.14795 0.22748
#
# Static dielectric constant tensor:
#      x y z
#    x 2.078570 0.000000 0.000000 
#    y 0.000000 1.946950 0.000000 
#    z 0.000000 0.000000 2.049830 
# 
# From -- ./inp_files/1275.got.cif
#   From: 2010.05.17/outbox.cif.g08.bks.cpg/sg41_1_cif.got.tgz:1275.got - 2010.06.03 18:54:24.
