data_PCOD9367735
_publ_section_title
;
Structure prediction by ZEFSAII (Michael W. Deem and Ramdas Pophale) SiO2 
 PCOD9367735
Probable space group: A B A 2
;
_chemical_formula_sum "Si O2"
_cell_formula_units_Z 44
_cell_length_a 17.580318
_cell_length_b 13.652364
_cell_length_c 7.422438
_cell_angle_alpha 90.000000
_cell_angle_beta 90.000000
_cell_angle_gamma 90.000000
_cell_volume 1781.480874
_symmetry_space_group_name_H-M "A B A 2"
_symmetry_group_IT_number 41
_symmetry_cell_setting 'orthorhombic'
loop_
_space_group_symop_operation_xyz
x,y,z
-x,-y,z
1/2-x,y,1/2+z
1/2+x,-y,1/2+z
x,1/2+y,1/2+z
-x,1/2-y,1/2+z
1/2-x,1/2+y,z
1/2+x,1/2-y,z
loop_
_atom_site_type_symbol
_atom_site_label
_atom_site_fract_x
_atom_site_fract_y
_atom_site_fract_z
Si Si1 0.379045 0.617653 0.442930
Si Si2 0.500000 0.000000 0.149619
Si Si3 0.781376 0.407173 0.580966
Si Si4 0.304634 0.365281 0.057461
Si Si5 0.570799 0.688860 0.779090
Si Si6 0.152490 0.767031 0.424935
O O1 0.429025 0.528941 0.520600
O O2 0.305696 0.630167 0.572281
O O3 0.330888 0.605937 0.260346
O O4 0.434495 0.709212 0.392051
O O5 0.512531 0.098057 0.269440
O O6 0.779953 0.522891 0.562702
O O7 0.830760 0.348802 0.432813
O O8 0.227817 0.306680 0.024772
O O9 0.348473 0.323767 0.234718
O O10 0.356252 0.354281 0.881728
O O11 0.587016 0.712649 0.569981
#
# Coordination Sequence:
#
# PCOD9367735 Si02
#       6
#     8   4   8   8   8   8
#     4  11  26  49  78 115 155 205 264 330 396 471
#     4  12  28  54  74 110 180 214 256 322 410 506
#     4  11  23  42  78 115 143 197 263 331 389 444
#     4  12  21  38  70 112 143 189 250 316 386 447
#     4  11  26  49  73 106 151 210 250 316 394 471
#     4  11  22  41  69 112 152 179 256 331 372 449
#
# _framework density 24.698551999999999
#
# number of rings (size 3 to 8) (size 9 to 14) (size 15 to 20)
#    0.000    0.727    3.636    4.364    2.545    0.000 
#   13.091    0.909    0.000    0.000    0.000    0.000 
#    0.000    0.000    0.000    0.000    0.000    0.000 
#
# Total GULP energy -122779.968490 kJ/mol
# GULP energy per Si atom -5580.907659 kJ/mol
# Density = 2.464234 g / cm^3
# Si number density = 24.698552 Si / 1000 Ang^3
#
#
#
# Elastic Constant Matrix: (Units=GPa)
#
#
# Indices 1 2 3 4 5 6 
#
# 1 106.9178 24.3437 36.2339 0.0000 0.0000 0.0000
# 2 24.3437 133.6755 30.1911 0.0000 0.0000 0.0000
# 3 36.2339 30.1911 126.3393 0.0000 0.0000 0.0000
# 4 0.0000 0.0000 0.0000 19.4552 0.0000 0.0000
# 5 0.0000 0.0000 0.0000 0.0000 -584.1752 0.0000
# 6 0.0000 0.0000 0.0000 0.0000 0.0000 23.9514
#
#
#
# Elastic Compliance Matrix: (Units=1/GPa)
#
#
# Indices 1 2 3 4 5 6 
#
# 1 0.010573 -0.001311 -0.002719 0.000000 0.000000 0.000000
# 2 -0.001311 0.008070 -0.001552 0.000000 0.000000 0.000000
# 3 -0.002719 -0.001552 0.009066 0.000000 0.000000 0.000000
# 4 0.000000 0.000000 0.000000 0.051400 0.000000 0.000000
# 5 0.000000 0.000000 0.000000 0.000000 -0.001712 0.000000
# 6 0.000000 0.000000 0.000000 0.000000 0.000000 0.041751
#
#
# Mechanical properties :
#
#
# Convention : Reuss Voigt Hill
#
# Bulk Modulus (GPa) = 60.44593 60.94111 60.69352
# Shear Modulus (GPa) = 36.81103 -89.74280 -26.46588
#
# Velocity S-wave (km/s) = 3.86477 -6.03441 -3.27701
# Velocity P-wave (km/s) = 6.66648 4.88105 3.21071
#
# Compressibility (1/GPa) = 0.01654371
#
# Stress axis : x y z
#
# Youngs Moduli (GPa) = 94.58057 123.91205 110.30267
#
# Poissons Ratio (x) = 0.16249 0.29991
# Poissons Ratio (y) = 0.12403 0.17124
# Poissons Ratio (z) = 0.25716 0.19237
#
# Static dielectric constant tensor:
#      x y z
#    x 2.078380 0.000000 0.000000 
#    y 0.000000 2.047380 0.000000 
#    z 0.000000 0.000000 2.012500 
# 
# From -- ./inp_files/3008.got.cif
#   From: 2010.05.17/outbox.cif.g08.bks.cpg/sg41_2_cif.got.tgz:3008.got - 2010.06.03 18:54:24.
