data_PCOD9367966
_publ_section_title
;
Structure prediction by ZEFSAII (Michael W. Deem and Ramdas Pophale) SiO2 
 PCOD9367966
Probable space group: A B A 2
;
_chemical_formula_sum "Si O2"
_cell_formula_units_Z 40
_cell_length_a 9.617131
_cell_length_b 9.662095
_cell_length_c 19.121060
_cell_angle_alpha 90.000000
_cell_angle_beta 90.000000
_cell_angle_gamma 90.000000
_cell_volume 1776.760127
_symmetry_space_group_name_H-M "A B A 2"
_symmetry_group_IT_number 41
_symmetry_cell_setting 'orthorhombic'
loop_
_space_group_symop_operation_xyz
x,y,z
-x,-y,z
1/2-x,y,1/2+z
1/2+x,-y,1/2+z
x,1/2+y,1/2+z
-x,1/2-y,1/2+z
1/2-x,1/2+y,z
1/2+x,1/2-y,z
loop_
_atom_site_type_symbol
_atom_site_label
_atom_site_fract_x
_atom_site_fract_y
_atom_site_fract_z
Si Si1 0.093920 0.818097 0.250000
Si Si2 0.817798 0.402574 0.799358
Si Si3 0.262421 0.739459 0.526867
Si Si4 0.340833 0.996552 0.433751
Si Si5 0.518559 0.657484 0.619539
O O1 0.209190 0.709211 0.272391
O O2 0.018546 0.764010 0.180794
O O3 0.969723 0.834383 0.306373
O O4 0.162067 0.969798 0.245551
O O5 0.761167 0.466905 0.870547
O O6 0.177600 0.613852 0.492805
O O7 0.403796 0.680976 0.559520
O O8 0.168628 0.810926 0.586703
O O9 0.299591 0.851279 0.467938
O O10 0.500000 0.000000 0.409155
O O11 0.500000 0.500000 0.644946
#
# Coordination Sequence:
#
# PCOD9367966 Si02
#       5
#     8   8   8   8   8
#     4  11  28  49  75 111 152 204 257 320 383 460
#     4  11  28  49  75 111 154 201 263 315 385 455
#     4  12  26  48  76 112 148 202 247 317 387 454
#     4  12  27  47  78 109 155 198 257 316 383 455
#     4  12  27  47  78 109 155 197 256 316 386 456
#
# _framework density 22.512888
#
# number of rings (size 3 to 8) (size 9 to 14) (size 15 to 20)
#    0.000    0.400    4.000    2.400   11.200    6.400 
#    0.000    0.000    0.000    0.000    0.000    0.000 
#    0.000    0.000    0.000    0.000    0.000    0.000 
#
# Total GULP energy -112091.327984 kJ/mol
# GULP energy per Si atom -5604.566399 kJ/mol
# Density = 2.246165 g / cm^3
# Si number density = 22.512888 Si / 1000 Ang^3
#
#
#
# Elastic Constant Matrix: (Units=GPa)
#
#
# Indices 1 2 3 4 5 6 
#
# 1 129.7037 41.1008 15.8509 0.0000 0.0000 0.0000
# 2 41.1008 121.5641 23.2807 0.0000 0.0000 0.0000
# 3 15.8509 23.2807 19.3951 0.0000 0.0000 0.0000
# 4 0.0000 0.0000 0.0000 38.3152 0.0000 0.0000
# 5 0.0000 0.0000 0.0000 0.0000 36.4696 0.0000
# 6 0.0000 0.0000 0.0000 0.0000 0.0000 44.9169
#
#
#
# Elastic Compliance Matrix: (Units=1/GPa)
#
#
# Indices 1 2 3 4 5 6 
#
# 1 0.008965 -0.002114 -0.004789 0.000000 0.000000 0.000000
# 2 -0.002114 0.011180 -0.011692 0.000000 0.000000 0.000000
# 3 -0.004789 -0.011692 0.069508 0.000000 0.000000 0.000000
# 4 0.000000 0.000000 0.000000 0.026099 0.000000 0.000000
# 5 0.000000 0.000000 0.000000 0.000000 0.027420 0.000000
# 6 0.000000 0.000000 0.000000 0.000000 0.000000 0.022263
#
#
# Mechanical properties :
#
#
# Convention : Reuss Voigt Hill
#
# Bulk Modulus (GPa) = 19.06129 47.90305 33.48217
# Shear Modulus (GPa) = 22.71546 36.63571 29.67558
#
# Velocity S-wave (km/s) = 3.17992 4.03838 3.63459
# Velocity P-wave (km/s) = 4.68697 6.56270 5.70249
#
# Compressibility (1/GPa) = 0.05246236
#
# Stress axis : x y z
#
# Youngs Moduli (GPa) = 111.54453 89.44572 14.38677
#
# Poissons Ratio (x) = 0.18907 0.06890
# Poissons Ratio (y) = 0.23579 0.16821
# Poissons Ratio (z) = 0.53424 1.04582
#
# Static dielectric constant tensor:
#      x y z
#    x 1.816140 0.000000 0.000000 
#    y 0.000000 1.812420 0.000000 
#    z 0.000000 0.000000 1.814790 
# 
# From -- ./inp_files/11919.got.cif
#   From: 2010.05.17/outbox.cif.g08.bks.cpg/sg41_6_cif.got.tgz:11919.got - 2010.06.03 18:54:24.
