data_PCOD9367472
_publ_section_title
;
Structure prediction by ZEFSAII (Michael W. Deem and Ramdas Pophale) SiO2 
 PCOD9367472
Probable space group: A B A 2
;
_chemical_formula_sum "Si O2"
_cell_formula_units_Z 48
_cell_length_a 10.484735
_cell_length_b 9.735918
_cell_length_c 21.306513
_cell_angle_alpha 90.000000
_cell_angle_beta 90.000000
_cell_angle_gamma 90.000000
_cell_volume 2174.937318
_symmetry_space_group_name_H-M "A B A 2"
_symmetry_group_IT_number 41
_symmetry_cell_setting 'orthorhombic'
loop_
_space_group_symop_operation_xyz
x,y,z
-x,-y,z
1/2-x,y,1/2+z
1/2+x,-y,1/2+z
x,1/2+y,1/2+z
-x,1/2-y,1/2+z
1/2-x,1/2+y,z
1/2+x,1/2-y,z
loop_
_atom_site_type_symbol
_atom_site_label
_atom_site_fract_x
_atom_site_fract_y
_atom_site_fract_z
Si Si1 0.524710 0.211721 0.645940
Si Si2 0.882085 0.904089 0.547498
Si Si3 0.125679 0.333406 0.863606
Si Si4 0.152000 0.138040 0.409368
Si Si5 0.920444 0.878172 0.756439
Si Si6 0.285405 0.515768 0.165540
O O1 0.559788 0.265568 0.577337
O O2 0.501949 0.336558 0.693623
O O3 0.403655 0.115769 0.651010
O O4 0.651277 0.133248 0.669860
O O5 0.811650 0.886498 0.481949
O O6 0.802481 0.971139 0.604052
O O7 0.000000 0.000000 0.532292
O O8 0.249720 0.250129 0.884909
O O9 0.156156 0.495886 0.869273
O O10 0.091232 0.257808 0.798316
O O11 0.996059 0.315776 0.904512
O O12 0.788744 0.936266 0.727713
O O13 0.000000 0.000000 0.789123
#
# Coordination Sequence:
#
# PCOD9367472 Si02
#       6
#     8   8   8   8   8   8
#     4  10  24  40  69 103 138 181 233 295 360 428
#     4  11  24  43  69  95 148 176 237 285 367 420
#     4  11  28  49  73 106 142 197 248 300 366 433
#     4  11  28  48  74 107 145 196 247 307 362 441
#     4  11  27  43  72  98 145 184 239 294 369 425
#     4  10  24  40  68 106 134 186 233 294 359 428
#
# _framework density 22.069602
#
# number of rings (size 3 to 8) (size 9 to 14) (size 15 to 20)
#    0.000    1.333    1.667    2.000   21.000    1.333 
#    0.000    0.000    0.000    0.000    0.000    0.000 
#    0.000    0.000    0.000    0.000    0.000    0.000 
#
# Total GULP energy -134075.342911 kJ/mol
# GULP energy per Si atom -5586.472621 kJ/mol
# Density = 2.201937 g / cm^3
# Si number density = 22.069602 Si / 1000 Ang^3
#
#
#
# Elastic Constant Matrix: (Units=GPa)
#
#
# Indices 1 2 3 4 5 6 
#
# 1 77.9290 21.9232 -3.4854 0.0000 0.0000 0.0000
# 2 21.9232 88.0870 9.4562 0.0000 0.0000 0.0000
# 3 -3.4854 9.4562 82.3568 0.0000 0.0000 0.0000
# 4 0.0000 0.0000 0.0000 14.9608 0.0000 0.0000
# 5 0.0000 0.0000 0.0000 0.0000 17.4068 0.0000
# 6 0.0000 0.0000 0.0000 0.0000 0.0000 37.6690
#
#
#
# Elastic Compliance Matrix: (Units=1/GPa)
#
#
# Indices 1 2 3 4 5 6 
#
# 1 0.013879 -0.003561 0.000996 0.000000 0.000000 0.000000
# 2 -0.003561 0.012408 -0.001575 0.000000 0.000000 0.000000
# 3 0.000996 -0.001575 0.012365 0.000000 0.000000 0.000000
# 4 0.000000 0.000000 0.000000 0.066841 0.000000 0.000000
# 5 0.000000 0.000000 0.000000 0.000000 0.057449 0.000000
# 6 0.000000 0.000000 0.000000 0.000000 0.000000 0.026547
#
#
# Mechanical properties :
#
#
# Convention : Reuss Voigt Hill
#
# Bulk Modulus (GPa) = 32.92583 33.79566 33.36074
# Shear Modulus (GPa) = 24.05084 28.70591 26.37838
#
# Velocity S-wave (km/s) = 3.30475 3.61043 3.46097
# Velocity P-wave (km/s) = 5.43262 5.72073 5.57853
#
# Compressibility (1/GPa) = 0.03037130
#
# Stress axis : x y z
#
# Youngs Moduli (GPa) = 72.05361 80.59442 80.87123
#
# Poissons Ratio (x) = 0.28700 -0.08057
# Poissons Ratio (y) = 0.25659 0.12740
# Poissons Ratio (z) = -0.07178 0.12697
#
# Static dielectric constant tensor:
#      x y z
#    x 1.807130 0.000000 0.000000 
#    y 0.000000 1.932020 0.000000 
#    z 0.000000 0.000000 1.821870 
# 
# From -- ./inp_files/12106.got.cif
#   From: 2010.05.17/outbox.cif.g08.bks.cpg/sg41_7_cif.got.tgz:12106.got - 2010.06.03 18:54:24.
