data_PCOD9367114
_publ_section_title
;
Structure prediction by ZEFSAII (Michael W. Deem and Ramdas Pophale) SiO2 
 PCOD9367114
Probable space group: A B A 2
;
_chemical_formula_sum "Si O2"
_cell_formula_units_Z 56
_cell_length_a 28.898263
_cell_length_b 14.036845
_cell_length_c 5.620897
_cell_angle_alpha 90.000000
_cell_angle_beta 90.000000
_cell_angle_gamma 90.000000
_cell_volume 2280.063124
_symmetry_space_group_name_H-M "A B A 2"
_symmetry_group_IT_number 41
_symmetry_cell_setting 'orthorhombic'
loop_
_space_group_symop_operation_xyz
x,y,z
-x,-y,z
1/2-x,y,1/2+z
1/2+x,-y,1/2+z
x,1/2+y,1/2+z
-x,1/2-y,1/2+z
1/2-x,1/2+y,z
1/2+x,1/2-y,z
loop_
_atom_site_type_symbol
_atom_site_label
_atom_site_fract_x
_atom_site_fract_y
_atom_site_fract_z
Si Si1 0.603522 0.102507 0.721020
Si Si2 0.491108 0.305249 0.630572
Si Si3 0.652947 0.471770 0.830538
Si Si4 0.099140 0.762071 0.827187
Si Si5 0.682756 0.647818 0.597616
Si Si6 0.273087 0.669181 0.996307
Si Si7 0.930219 0.933762 0.468866
O O1 0.588510 0.199540 0.592158
O O2 0.625868 0.035434 0.519026
O O3 0.646071 0.126247 0.891177
O O4 0.564979 0.032583 0.830014
O O5 0.497252 0.246711 0.383251
O O6 0.436023 0.321357 0.661998
O O7 0.524854 0.395389 0.604441
O O8 0.690614 0.545534 0.717181
O O9 0.678258 0.381519 0.940671
O O10 0.614441 0.443490 0.638527
O O11 0.152167 0.786232 0.776315
O O12 0.085053 0.653140 0.796994
O O13 0.722490 0.715716 0.501749
O O14 0.243331 0.642211 0.762037
#
# Coordination Sequence:
#
# PCOD9367114 Si02
#       7
#     8   8   8   8   8   8   8
#     4  10  22  42  71 102 130 188 230 282 350 417
#     4  10  24  40  67 103 134 186 234 280 346 397
#     4  10  24  44  70  99 137 179 227 282 353 414
#     4  10  22  41  72  96 139 183 233 284 342 415
#     4  10  24  44  70  99 137 179 227 282 353 414
#     4  12  30  46  72 106 134 180 232 286 354 422
#     4  10  22  41  72  96 139 183 233 284 342 415
#
# _framework density 24.560725000000001
#
# number of rings (size 3 to 8) (size 9 to 14) (size 15 to 20)
#    0.000    1.714    0.000    1.714   20.000    1.143 
#    0.000    7.857    0.000    0.000    0.000    0.000 
#    0.000    0.000    0.000    0.000    0.000    0.000 
#
# Total GULP energy -156451.824764 kJ/mol
# GULP energy per Si atom -5587.565170 kJ/mol
# Density = 2.450482 g / cm^3
# Si number density = 24.560725 Si / 1000 Ang^3
#
#
#
# Elastic Constant Matrix: (Units=GPa)
#
#
# Indices 1 2 3 4 5 6 
#
# 1 43.5004 -4.8485 13.9090 0.0000 0.0000 0.0000
# 2 -4.8485 85.7443 17.7642 0.0000 0.0000 0.0000
# 3 13.9090 17.7642 94.1177 0.0000 0.0000 0.0000
# 4 0.0000 0.0000 0.0000 45.1127 0.0000 0.0000
# 5 0.0000 0.0000 0.0000 0.0000 31.9748 0.0000
# 6 0.0000 0.0000 0.0000 0.0000 0.0000 42.2911
#
#
#
# Elastic Compliance Matrix: (Units=1/GPa)
#
#
# Indices 1 2 3 4 5 6 
#
# 1 0.024530 0.002225 -0.004045 0.000000 0.000000 0.000000
# 2 0.002225 0.012339 -0.002658 0.000000 0.000000 0.000000
# 3 -0.004045 -0.002658 0.011724 0.000000 0.000000 0.000000
# 4 0.000000 0.000000 0.000000 0.022167 0.000000 0.000000
# 5 0.000000 0.000000 0.000000 0.000000 0.031275 0.000000
# 6 0.000000 0.000000 0.000000 0.000000 0.000000 0.023646
#
#
# Mechanical properties :
#
#
# Convention : Reuss Voigt Hill
#
# Bulk Modulus (GPa) = 25.22845 30.77905 28.00375
# Shear Modulus (GPa) = 33.81849 36.97824 35.39837
#
# Velocity S-wave (km/s) = 3.71473 3.88440 3.80051
# Velocity P-wave (km/s) = 5.35660 5.71639 5.53941
#
# Compressibility (1/GPa) = 0.03963778
#
# Stress axis : x y z
#
# Youngs Moduli (GPa) = 40.76690 81.04364 85.29207
#
# Poissons Ratio (x) = -0.18033 0.34501
# Poissons Ratio (y) = -0.09071 0.22669
# Poissons Ratio (z) = 0.16490 0.21539
#
# Static dielectric constant tensor:
#      x y z
#    x 1.964090 0.000000 0.000000 
#    y 0.000000 1.949610 0.000000 
#    z 0.000000 0.000000 2.022800 
# 
# From -- ./inp_files/1358.got.cif
#   From: 2010.05.17/outbox.cif.g08.bks.cpg/sg41_1_cif.got.tgz:1358.got - 2010.06.03 18:54:24.
