data_PCOD9367988
_publ_section_title
;
Structure prediction by ZEFSAII (Michael W. Deem and Ramdas Pophale) SiO2 
 PCOD9367988
Probable space group: A B A 2
;
_chemical_formula_sum "Si O2"
_cell_formula_units_Z 36
_cell_length_a 19.574172
_cell_length_b 5.142457
_cell_length_c 15.101054
_cell_angle_alpha 90.000000
_cell_angle_beta 90.000000
_cell_angle_gamma 90.000000
_cell_volume 1520.062096
_symmetry_space_group_name_H-M "A B A 2"
_symmetry_group_IT_number 41
_symmetry_cell_setting 'orthorhombic'
loop_
_space_group_symop_operation_xyz
x,y,z
-x,-y,z
1/2-x,y,1/2+z
1/2+x,-y,1/2+z
x,1/2+y,1/2+z
-x,1/2-y,1/2+z
1/2-x,1/2+y,z
1/2+x,1/2-y,z
loop_
_atom_site_type_symbol
_atom_site_label
_atom_site_fract_x
_atom_site_fract_y
_atom_site_fract_z
Si Si1 0.500000 0.500000 0.842960
Si Si2 0.000000 0.500000 0.038983
Si Si3 0.206168 0.314001 0.591239
Si Si4 0.000000 0.000000 0.150780
Si Si5 0.112829 0.630390 0.931918
Si Si6 0.113812 0.370536 0.756723
O O1 0.448223 0.319603 0.899097
O O2 0.445654 0.672349 0.787784
O O3 0.020600 0.750677 0.094641
O O4 0.067482 0.419716 0.984701
O O5 0.231836 0.609546 0.590609
O O6 0.163461 0.257240 0.501951
O O7 0.165438 0.267600 0.683236
O O8 0.066641 0.081146 0.206258
O O9 0.145100 0.498806 0.844878
#
# Coordination Sequence:
#
# PCOD9367988 Si02
#       6
#     4   4   8   4   8   8
#     4  12  24  48  78 130 150 186 254 344 420 444
#     4  12  24  42  76 118 152 192 243 335 407 453
#     4  12  34  54  74 108 158 224 268 302 376 482
#     4  12  24  42  76 118 152 192 243 335 407 453
#     4  12  27  45  81 116 157 196 262 330 404 463
#     4  12  27  45  81 116 157 196 262 330 404 463
#
# _framework density 23.683243000000001
#
# number of rings (size 3 to 8) (size 9 to 14) (size 15 to 20)
#    0.000    0.000    6.667    1.333    9.333    1.778 
#    0.000    0.000    0.000    0.000    0.000    0.000 
#    0.000    0.000    0.000    0.000    0.000    0.000 
#
# Total GULP energy -100634.012460 kJ/mol
# GULP energy per Si atom -5590.778470 kJ/mol
# Density = 2.362934 g / cm^3
# Si number density = 23.683243 Si / 1000 Ang^3
#
#
#
# Elastic Constant Matrix: (Units=GPa)
#
#
# Indices 1 2 3 4 5 6 
#
# 1 61.6639 -2.8061 47.5888 0.0000 0.0000 0.0000
# 2 -2.8061 49.4606 18.5061 0.0000 0.0000 0.0000
# 3 47.5888 18.5061 173.8234 0.0000 0.0000 0.0000
# 4 0.0000 0.0000 0.0000 38.5944 0.0000 0.0000
# 5 0.0000 0.0000 0.0000 0.0000 45.1193 0.0000
# 6 0.0000 0.0000 0.0000 0.0000 0.0000 29.9780
#
#
#
# Elastic Compliance Matrix: (Units=1/GPa)
#
#
# Indices 1 2 3 4 5 6 
#
# 1 0.021128 0.003502 -0.006157 0.000000 0.000000 0.000000
# 2 0.003502 0.021638 -0.003263 0.000000 0.000000 0.000000
# 3 -0.006157 -0.003263 0.007786 0.000000 0.000000 0.000000
# 4 0.000000 0.000000 0.000000 0.025911 0.000000 0.000000
# 5 0.000000 0.000000 0.000000 0.000000 0.022163 0.000000
# 6 0.000000 0.000000 0.000000 0.000000 0.000000 0.033358
#
#
# Mechanical properties :
#
#
# Convention : Reuss Voigt Hill
#
# Bulk Modulus (GPa) = 25.82840 45.72504 35.77672
# Shear Modulus (GPa) = 31.90324 37.51561 34.70943
#
# Velocity S-wave (km/s) = 3.67424 3.98434 3.83243
# Velocity P-wave (km/s) = 5.37862 6.36517 5.89258
#
# Compressibility (1/GPa) = 0.03871707
#
# Stress axis : x y z
#
# Youngs Moduli (GPa) = 47.33015 46.21601 128.43505
#
# Poissons Ratio (x) = -0.16187 0.79081
# Poissons Ratio (y) = -0.16577 0.41902
# Poissons Ratio (z) = 0.29143 0.15078
#
# Static dielectric constant tensor:
#      x y z
#    x 1.849730 0.000000 0.000000 
#    y 0.000000 1.963390 0.000000 
#    z 0.000000 0.000000 2.145150 
# 
# From -- ./inp_files/8919.got.cif
#   From: 2010.05.17/outbox.cif.g08.bks.cpg/sg41_5_cif.got.tgz:8919.got - 2010.06.03 18:54:24.
