data_PCOD9367683
_publ_section_title
;
Structure prediction by ZEFSAII (Michael W. Deem and Ramdas Pophale) SiO2 
 PCOD9367683
Probable space group: A B A 2
;
_chemical_formula_sum "Si O2"
_cell_formula_units_Z 44
_cell_length_a 11.263697
_cell_length_b 19.518161
_cell_length_c 8.292746
_cell_angle_alpha 90.000000
_cell_angle_beta 90.000000
_cell_angle_gamma 90.000000
_cell_volume 1823.132440
_symmetry_space_group_name_H-M "A B A 2"
_symmetry_group_IT_number 41
_symmetry_cell_setting 'orthorhombic'
loop_
_space_group_symop_operation_xyz
x,y,z
-x,-y,z
1/2-x,y,1/2+z
1/2+x,-y,1/2+z
x,1/2+y,1/2+z
-x,1/2-y,1/2+z
1/2-x,1/2+y,z
1/2+x,1/2-y,z
loop_
_atom_site_type_symbol
_atom_site_label
_atom_site_fract_x
_atom_site_fract_y
_atom_site_fract_z
Si Si1 0.823117 0.166384 0.830060
Si Si2 0.635570 0.580498 0.122892
Si Si3 0.329143 0.643277 0.811937
Si Si4 0.000000 0.000000 0.329027
Si Si5 0.174892 0.238421 0.070962
Si Si6 0.194244 0.043354 0.554052
O O1 0.716611 0.130129 0.730853
O O2 0.891865 0.208431 0.689868
O O3 0.880530 0.108795 0.943095
O O4 0.765564 0.218889 0.958468
O O5 0.513245 0.565920 0.214752
O O6 0.704275 0.507618 0.117127
O O7 0.250234 0.690998 0.693340
O O8 0.377330 0.584819 0.691800
O O9 0.395760 0.693041 0.939602
O O10 0.246957 0.598943 0.931432
O O11 0.109556 0.996806 0.448196
#
# Coordination Sequence:
#
# PCOD9367683 Si02
#       6
#     8   8   8   4   8   8
#     4   9  17  33  60  89 122 152 209 245 301 376
#     4  11  20  37  59  91 124 161 199 258 308 373
#     4   9  17  33  60  89 122 152 209 245 301 376
#     4  12  24  36  62  90 128 164 206 252 338 356
#     4   8  16  30  60  92 104 172 198 238 316 358
#     4  11  20  37  59  91 124 161 199 258 308 373
#
# _framework density 24.134287
#
# number of rings (size 3 to 8) (size 9 to 14) (size 15 to 20)
#    0.000    2.182    3.636    0.000    0.000    0.000 
#    0.000    3.636    0.000   13.091    0.000    0.000 
#    0.000    0.000    0.000    0.000    0.000    0.000 
#
# Total GULP energy -122623.027986 kJ/mol
# GULP energy per Si atom -5573.773999 kJ/mol
# Density = 2.407936 g / cm^3
# Si number density = 24.134287 Si / 1000 Ang^3
#
#
#
# Elastic Constant Matrix: (Units=GPa)
#
#
# Indices 1 2 3 4 5 6 
#
# 1 28.1187 5.1800 11.9840 0.0000 0.0000 0.0000
# 2 5.1800 97.7102 62.8962 0.0000 0.0000 0.0000
# 3 11.9840 62.8962 171.5500 0.0000 0.0000 0.0000
# 4 0.0000 0.0000 0.0000 80.5000 0.0000 0.0000
# 5 0.0000 0.0000 0.0000 0.0000 17.5903 0.0000
# 6 0.0000 0.0000 0.0000 0.0000 0.0000 13.3809
#
#
#
# Elastic Compliance Matrix: (Units=1/GPa)
#
#
# Indices 1 2 3 4 5 6 
#
# 1 0.036666 -0.000386 -0.002420 0.000000 0.000000 0.000000
# 2 -0.000386 0.013400 -0.004886 0.000000 0.000000 0.000000
# 3 -0.002420 -0.004886 0.007790 0.000000 0.000000 0.000000
# 4 0.000000 0.000000 0.000000 0.012422 0.000000 0.000000
# 5 0.000000 0.000000 0.000000 0.000000 0.056849 0.000000
# 6 0.000000 0.000000 0.000000 0.000000 0.000000 0.074733
#
#
# Mechanical properties :
#
#
# Convention : Reuss Voigt Hill
#
# Bulk Modulus (GPa) = 23.54512 50.83326 37.18919
# Shear Modulus (GPa) = 21.60748 36.78217 29.19482
#
# Velocity S-wave (km/s) = 2.99541 3.90816 3.48182
# Velocity P-wave (km/s) = 4.66265 6.43998 5.62200
#
# Compressibility (1/GPa) = 0.04247165
#
# Stress axis : x y z
#
# Youngs Moduli (GPa) = 27.27329 74.62763 128.37671
#
# Poissons Ratio (x) = 0.02882 0.31065
# Poissons Ratio (y) = 0.01053 0.62723
# Poissons Ratio (z) = 0.06600 0.36462
#
# Static dielectric constant tensor:
#      x y z
#    x 1.871620 0.000000 0.000000 
#    y 0.000000 2.028780 0.000000 
#    z 0.000000 0.000000 1.916710 
# 
# From -- ./inp_files/2063.got.cif
#   From: 2010.05.17/outbox.cif.g08.bks.cpg/sg41_2_cif.got.tgz:2063.got - 2010.06.03 18:54:24.
