data_PCOD9367308
_publ_section_title
;
Structure prediction by ZEFSAII (Michael W. Deem and Ramdas Pophale) SiO2 
 PCOD9367308
Probable space group: A B A 2
;
_chemical_formula_sum "Si O2"
_cell_formula_units_Z 36
_cell_length_a 10.537802
_cell_length_b 7.877442
_cell_length_c 18.269429
_cell_angle_alpha 90.000000
_cell_angle_beta 90.000000
_cell_angle_gamma 90.000000
_cell_volume 1516.562183
_symmetry_space_group_name_H-M "A B A 2"
_symmetry_group_IT_number 41
_symmetry_cell_setting 'orthorhombic'
loop_
_space_group_symop_operation_xyz
x,y,z
-x,-y,z
1/2-x,y,1/2+z
1/2+x,-y,1/2+z
x,1/2+y,1/2+z
-x,1/2-y,1/2+z
1/2-x,1/2+y,z
1/2+x,1/2-y,z
loop_
_atom_site_type_symbol
_atom_site_label
_atom_site_fract_x
_atom_site_fract_y
_atom_site_fract_z
Si Si1 0.000000 0.000000 0.338861
Si Si2 0.113552 0.868124 0.087497
Si Si3 0.341875 0.554221 0.674915
Si Si4 0.412513 0.334054 0.917150
Si Si5 0.248687 0.348806 0.780621
O O1 0.879267 0.038411 0.287457
O O2 0.017806 0.163537 0.390727
O O3 0.084313 0.682841 0.122514
O O4 0.235642 0.958777 0.124909
O O5 0.130022 0.836762 0.001280
O O6 0.000000 0.000000 0.097756
O O7 0.372659 0.404582 0.732131
O O8 0.294329 0.684158 0.737268
O O9 0.500000 0.500000 0.906054
O O10 0.293466 0.337624 0.863242
#
# Coordination Sequence:
#
# PCOD9367308 Si02
#       5
#     4   8   8   8   8
#     4  12  26  44  78 106 146 184 250 302 354 426
#     4  10  25  46  66 102 144 184 235 289 368 428
#     4  10  23  40  70  99 137 183 226 298 343 431
#     4  11  26  46  73 104 140 189 243 296 360 430
#     4  11  23  44  71 103 135 188 240 295 358 419
#
# _framework density 23.7379
#
# number of rings (size 3 to 8) (size 9 to 14) (size 15 to 20)
#    0.000    1.333    2.222    1.333    9.333    3.556 
#    8.000    0.000    0.000    0.000    0.000    0.000 
#    0.000    0.000    0.000    0.000    0.000    0.000 
#
# Total GULP energy -100326.734417 kJ/mol
# GULP energy per Si atom -5573.707468 kJ/mol
# Density = 2.368387 g / cm^3
# Si number density = 23.737900 Si / 1000 Ang^3
#
#
#
# Elastic Constant Matrix: (Units=GPa)
#
#
# Indices 1 2 3 4 5 6 
#
# 1 63.4110 17.2285 44.7548 0.0000 0.0000 0.0000
# 2 17.2285 92.7000 22.8876 0.0000 0.0000 0.0000
# 3 44.7548 22.8876 140.2765 0.0000 0.0000 0.0000
# 4 0.0000 0.0000 0.0000 61.7493 0.0000 0.0000
# 5 0.0000 0.0000 0.0000 0.0000 10.9599 0.0000
# 6 0.0000 0.0000 0.0000 0.0000 0.0000 31.7566
#
#
#
# Elastic Compliance Matrix: (Units=1/GPa)
#
#
# Indices 1 2 3 4 5 6 
#
# 1 0.020823 -0.002323 -0.006264 0.000000 0.000000 0.000000
# 2 -0.002323 0.011500 -0.001135 0.000000 0.000000 0.000000
# 3 -0.006264 -0.001135 0.009313 0.000000 0.000000 0.000000
# 4 0.000000 0.000000 0.000000 0.016195 0.000000 0.000000
# 5 0.000000 0.000000 0.000000 0.000000 0.091242 0.000000
# 6 0.000000 0.000000 0.000000 0.000000 0.000000 0.031490
#
#
# Mechanical properties :
#
#
# Convention : Reuss Voigt Hill
#
# Bulk Modulus (GPa) = 45.06644 51.79215 48.42929
# Shear Modulus (GPa) = 24.10776 34.99426 29.55101
#
# Velocity S-wave (km/s) = 3.19028 3.84369 3.53212
# Velocity P-wave (km/s) = 5.70935 6.44704 6.08938
#
# Compressibility (1/GPa) = 0.02218946
#
# Stress axis : x y z
#
# Youngs Moduli (GPa) = 48.02466 86.96017 107.38158
#
# Poissons Ratio (x) = 0.20203 0.67267
# Poissons Ratio (y) = 0.11157 0.12188
# Poissons Ratio (z) = 0.30084 0.09870
#
# Static dielectric constant tensor:
#      x y z
#    x 2.803600 0.000000 0.000000 
#    y 0.000000 2.119240 0.000000 
#    z 0.000000 0.000000 1.858170 
# 
# From -- ./inp_files/11082.got.cif
#   From: 2010.05.17/outbox.cif.g08.bks.cpg/sg41_6_cif.got.tgz:11082.got - 2010.06.03 18:54:24.
