data_PCOD9367103
_publ_section_title
;
Structure prediction by ZEFSAII (Michael W. Deem and Ramdas Pophale) SiO2 
 PCOD9367103
Probable space group: A B A 2
;
_chemical_formula_sum "Si O2"
_cell_formula_units_Z 60
_cell_length_a 11.728459
_cell_length_b 22.215574
_cell_length_c 11.366887
_cell_angle_alpha 90.000000
_cell_angle_beta 90.000000
_cell_angle_gamma 90.000000
_cell_volume 2961.692977
_symmetry_space_group_name_H-M "A B A 2"
_symmetry_group_IT_number 41
_symmetry_cell_setting 'orthorhombic'
loop_
_space_group_symop_operation_xyz
x,y,z
-x,-y,z
1/2-x,y,1/2+z
1/2+x,-y,1/2+z
x,1/2+y,1/2+z
-x,1/2-y,1/2+z
1/2-x,1/2+y,z
1/2+x,1/2-y,z
loop_
_atom_site_type_symbol
_atom_site_label
_atom_site_fract_x
_atom_site_fract_y
_atom_site_fract_z
Si Si1 0.308769 0.676887 0.621940
Si Si2 0.508580 0.678415 0.457798
Si Si3 0.246938 0.309594 0.064774
Si Si4 0.031629 0.690807 0.345757
Si Si5 0.379481 0.883227 0.742847
Si Si6 0.000000 0.500000 0.449235
Si Si7 0.658776 0.104246 0.353766
Si Si8 0.410247 0.106370 0.569718
O O1 0.402304 0.653294 0.529659
O O2 0.274197 0.739225 0.557932
O O3 0.370302 0.690238 0.746620
O O4 0.200258 0.633200 0.634058
O O5 0.612287 0.687136 0.548212
O O6 0.495831 0.742922 0.390853
O O7 0.551649 0.633657 0.358350
O O8 0.310488 0.328061 0.184187
O O9 0.295043 0.356899 0.966698
O O10 0.068599 0.652692 0.461400
O O11 0.923042 0.654413 0.295784
O O12 0.268563 0.920673 0.783377
O O13 0.476196 0.898578 0.649220
O O14 0.074510 0.450513 0.381830
O O15 0.094095 0.538969 0.519954
#
# Coordination Sequence:
#
# PCOD9367103 Si02
#       8
#     8   8   8   8   8   4   8   8
#     4  12  24  38  64 100 141 171 223 277 338 419
#     4  11  23  35  61  98 139 174 211 273 334 417
#     4  11  20  37  62  95 137 174 209 272 340 408
#     4  11  21  39  60  96 136 175 212 267 344 396
#     4  11  22  40  66  95 135 174 224 266 349 397
#     4  10  22  50  70  90 136 174 234 276 336 400
#     4  10  22  41  67  93 128 179 223 273 330 404
#     4  11  25  44  65  95 130 179 224 280 336 397
#
# _framework density 20.258683999999999
#
# number of rings (size 3 to 8) (size 9 to 14) (size 15 to 20)
#    0.000    1.067    6.667    0.800    1.867    1.067 
#    4.800    0.000    0.000    2.400    0.000    0.000 
#    0.000    0.000    0.000    0.000    0.000    0.000 
#
# Total GULP energy -167043.350895 kJ/mol
# GULP energy per Si atom -5568.111696 kJ/mol
# Density = 2.021257 g / cm^3
# Si number density = 20.258684 Si / 1000 Ang^3
#
#
#
# Elastic Constant Matrix: (Units=GPa)
#
#
# Indices 1 2 3 4 5 6 
#
# 1 121.0964 34.3956 34.7302 0.0000 0.0000 0.0000
# 2 34.3956 56.3353 6.0487 0.0000 0.0000 0.0000
# 3 34.7302 6.0487 78.5892 0.0000 0.0000 0.0000
# 4 0.0000 0.0000 0.0000 6.2089 0.0000 0.0000
# 5 0.0000 0.0000 0.0000 0.0000 32.5036 0.0000
# 6 0.0000 0.0000 0.0000 0.0000 0.0000 17.9201
#
#
#
# Elastic Compliance Matrix: (Units=1/GPa)
#
#
# Indices 1 2 3 4 5 6 
#
# 1 0.011398 -0.006472 -0.004539 0.000000 0.000000 0.000000
# 2 -0.006472 0.021573 0.001200 0.000000 0.000000 0.000000
# 3 -0.004539 0.001200 0.014638 0.000000 0.000000 0.000000
# 4 0.000000 0.000000 0.000000 0.161059 0.000000 0.000000
# 5 0.000000 0.000000 0.000000 0.000000 0.030766 0.000000
# 6 0.000000 0.000000 0.000000 0.000000 0.000000 0.055803
#
#
# Mechanical properties :
#
#
# Convention : Reuss Voigt Hill
#
# Bulk Modulus (GPa) = 35.73065 45.15220 40.44142
# Shear Modulus (GPa) = 15.42318 23.38297 19.40307
#
# Velocity S-wave (km/s) = 2.76218 3.40107 3.09814
# Velocity P-wave (km/s) = 5.27715 6.14485 5.72746
#
# Compressibility (1/GPa) = 0.02798718
#
# Stress axis : x y z
#
# Youngs Moduli (GPa) = 87.73655 46.35355 68.31593
#
# Poissons Ratio (x) = 0.29998 0.31007
# Poissons Ratio (y) = 0.56779 -0.08195
# Poissons Ratio (z) = 0.39822 -0.05560
#
# Static dielectric constant tensor:
#      x y z
#    x 1.782860 0.000000 0.000000 
#    y 0.000000 1.697120 0.000000 
#    z 0.000000 0.000000 1.801380 
# 
# From -- ./inp_files/5123.got.cif
#   From: 2010.05.17/outbox.cif.g08.bks.cpg/sg41_3_cif.got.tgz:5123.got - 2010.06.03 18:54:24.
