data_PCOD9367831
_publ_section_title
;
Structure prediction by ZEFSAII (Michael W. Deem and Ramdas Pophale) SiO2 
 PCOD9367831
Probable space group: A B A 2
;
_chemical_formula_sum "Si O2"
_cell_formula_units_Z 60
_cell_length_a 12.671272
_cell_length_b 23.152846
_cell_length_c 9.681721
_cell_angle_alpha 90.000000
_cell_angle_beta 90.000000
_cell_angle_gamma 90.000000
_cell_volume 2840.384670
_symmetry_space_group_name_H-M "A B A 2"
_symmetry_group_IT_number 41
_symmetry_cell_setting 'orthorhombic'
loop_
_space_group_symop_operation_xyz
x,y,z
-x,-y,z
1/2-x,y,1/2+z
1/2+x,-y,1/2+z
x,1/2+y,1/2+z
-x,1/2-y,1/2+z
1/2-x,1/2+y,z
1/2+x,1/2-y,z
loop_
_atom_site_type_symbol
_atom_site_label
_atom_site_fract_x
_atom_site_fract_y
_atom_site_fract_z
Si Si1 0.568179 0.657538 0.534530
Si Si2 0.821454 0.867992 0.229183
Si Si3 0.163149 0.999093 0.192097
Si Si4 0.500000 0.500000 0.952279
Si Si5 0.199966 0.824885 0.994556
Si Si6 0.945139 0.117375 0.223105
Si Si7 0.341918 0.193913 0.022427
Si Si8 0.636839 0.579942 0.768782
O O1 0.680711 0.687835 0.543540
O O2 0.559513 0.644351 0.373380
O O3 0.460133 0.685925 0.580637
O O4 0.584964 0.602184 0.628916
O O5 0.823037 0.841657 0.382146
O O6 0.939904 0.865935 0.166763
O O7 0.808905 0.937316 0.246664
O O8 0.739851 0.832532 0.134151
O O9 0.077828 0.950906 0.244621
O O10 0.271101 0.963575 0.219465
O O11 0.105579 0.011602 0.044379
O O12 0.543642 0.551479 0.858281
O O13 0.158630 0.760660 0.976737
O O14 0.186532 0.868064 0.863309
O O15 0.139922 0.857846 0.117472
#
# Coordination Sequence:
#
# PCOD9367831 Si02
#       8
#     8   8   8   4   8   8   8   8
#     4  11  25  47  67 109 140 185 251 296 366 443
#     4  11  27  47  67 104 149 190 240 299 375 437
#     4  12  23  44  76 106 144 193 241 302 384 443
#     4  12  26  48  72 116 148 196 246 318 388 446
#     4  12  24  48  75 106 142 194 252 297 369 448
#     4  11  23  46  75 104 140 196 239 306 369 434
#     4  11  31  44  69 105 145 198 237 307 365 440
#     4  12  26  44  79 109 144 192 249 308 369 460
#
# _framework density 21.123898000000001
#
# number of rings (size 3 to 8) (size 9 to 14) (size 15 to 20)
#    0.000    0.533    5.333    0.000    9.333    2.133 
#    2.400    0.000    0.000    0.000    0.000    0.000 
#    0.000    0.000    0.000    0.000    0.000    0.000 
#
# Total GULP energy -167154.504375 kJ/mol
# GULP energy per Si atom -5571.816813 kJ/mol
# Density = 2.107582 g / cm^3
# Si number density = 21.123898 Si / 1000 Ang^3
#
#
#
# Elastic Constant Matrix: (Units=GPa)
#
#
# Indices 1 2 3 4 5 6 
#
# 1 143.5291 43.7255 32.7161 0.0000 0.0000 0.0000
# 2 43.7255 112.4521 8.0938 0.0000 0.0000 0.0000
# 3 32.7161 8.0938 55.5115 0.0000 0.0000 0.0000
# 4 0.0000 0.0000 0.0000 10.2055 0.0000 0.0000
# 5 0.0000 0.0000 0.0000 0.0000 -11.1454 0.0000
# 6 0.0000 0.0000 0.0000 0.0000 0.0000 -11.1024
#
#
#
# Elastic Compliance Matrix: (Units=1/GPa)
#
#
# Indices 1 2 3 4 5 6 
#
# 1 0.009041 -0.003165 -0.004867 0.000000 0.000000 0.000000
# 2 -0.003165 0.010095 0.000393 0.000000 0.000000 0.000000
# 3 -0.004867 0.000393 0.020825 0.000000 0.000000 0.000000
# 4 0.000000 0.000000 0.000000 0.097987 0.000000 0.000000
# 5 0.000000 0.000000 0.000000 0.000000 -0.089723 0.000000
# 6 0.000000 0.000000 0.000000 0.000000 0.000000 -0.090070
#
#
# Mechanical properties :
#
#
# Convention : Reuss Voigt Hill
#
# Bulk Modulus (GPa) = 40.51171 53.39596 46.95383
# Shear Modulus (GPa) = -272.61443 12.72201 -129.94621
#
# Velocity S-wave (km/s) = -11.37256 2.45675 -7.85174
# Velocity P-wave (km/s) = 12.37849 5.77754 7.74103
#
# Compressibility (1/GPa) = 0.02468422
#
# Stress axis : x y z
#
# Youngs Moduli (GPa) = 110.60969 99.05826 48.01882
#
# Poissons Ratio (x) = 0.31353 0.23370
# Poissons Ratio (y) = 0.35009 -0.01889
# Poissons Ratio (z) = 0.53831 -0.03898
#
# Static dielectric constant tensor:
#      x y z
#    x 1.836010 0.000000 0.000000 
#    y 0.000000 1.787930 0.000000 
#    z 0.000000 0.000000 1.767360 
# 
# From -- ./inp_files/5151.got.cif
#   From: 2010.05.17/outbox.cif.g08.bks.cpg/sg41_3_cif.got.tgz:5151.got - 2010.06.03 18:54:24.
