data_PCOD9367419
_publ_section_title
;
Structure prediction by ZEFSAII (Michael W. Deem and Ramdas Pophale) SiO2 
 PCOD9367419
Probable space group: A B A 2
;
_chemical_formula_sum "Si O2"
_cell_formula_units_Z 40
_cell_length_a 24.583539
_cell_length_b 13.421013
_cell_length_c 5.042783
_cell_angle_alpha 90.000000
_cell_angle_beta 90.000000
_cell_angle_gamma 90.000000
_cell_volume 1663.795634
_symmetry_space_group_name_H-M "A B A 2"
_symmetry_group_IT_number 41
_symmetry_cell_setting 'orthorhombic'
loop_
_space_group_symop_operation_xyz
x,y,z
-x,-y,z
1/2-x,y,1/2+z
1/2+x,-y,1/2+z
x,1/2+y,1/2+z
-x,1/2-y,1/2+z
1/2-x,1/2+y,z
1/2+x,1/2-y,z
loop_
_atom_site_type_symbol
_atom_site_label
_atom_site_fract_x
_atom_site_fract_y
_atom_site_fract_z
Si Si1 0.654703 0.522234 0.035940
Si Si2 0.469977 0.790962 0.071705
Si Si3 0.413588 0.480340 0.518078
Si Si4 0.874289 0.328166 0.811992
Si Si5 0.717090 0.212193 0.622001
O O1 0.607262 0.561057 0.234715
O O2 0.659343 0.408731 0.136625
O O3 0.704435 0.594934 0.085927
O O4 0.633644 0.528013 0.737890
O O5 0.510526 0.744475 0.286282
O O6 0.462415 0.909604 0.099914
O O7 0.410310 0.745794 0.138637
O O8 0.416754 0.598312 0.464806
O O9 0.834792 0.271361 0.011197
O O10 0.766381 0.234802 0.420779
#
# Coordination Sequence:
#
# PCOD9367419 Si02
#       5
#     8   8   8   8   8
#     4  10  23  45  73  96 143 186 232 289 356 414
#     4  12  27  46  75 109 143 188 243 294 354 426
#     4  10  23  46  73  98 139 188 233 286 355 419
#     4  10  28  47  76  97 153 188 232 297 365 413
#     4  12  27  44  74 110 141 187 244 292 353 427
#
# _framework density 24.041416999999999
#
# number of rings (size 3 to 8) (size 9 to 14) (size 15 to 20)
#    1.200    0.000    2.000    2.400    5.600    2.400 
#    0.000    0.000    0.000    0.000    0.000    0.000 
#    0.000    0.000    0.000    0.000    0.000    0.000 
#
# Total GULP energy -111797.443407 kJ/mol
# GULP energy per Si atom -5589.872170 kJ/mol
# Density = 2.398670 g / cm^3
# Si number density = 24.041417 Si / 1000 Ang^3
#
#
#
# Elastic Constant Matrix: (Units=GPa)
#
#
# Indices 1 2 3 4 5 6 
#
# 1 55.9872 41.2197 -6.6898 0.0000 0.0000 0.0000
# 2 41.2197 147.1894 17.4578 0.0000 0.0000 0.0000
# 3 -6.6898 17.4578 56.1268 0.0000 0.0000 0.0000
# 4 0.0000 0.0000 0.0000 33.7539 0.0000 0.0000
# 5 0.0000 0.0000 0.0000 0.0000 43.0209 0.0000
# 6 0.0000 0.0000 0.0000 0.0000 0.0000 32.0867
#
#
#
# Elastic Compliance Matrix: (Units=1/GPa)
#
#
# Indices 1 2 3 4 5 6 
#
# 1 0.023830 -0.007279 0.005104 0.000000 0.000000 0.000000
# 2 -0.007279 0.009278 -0.003753 0.000000 0.000000 0.000000
# 3 0.005104 -0.003753 0.019593 0.000000 0.000000 0.000000
# 4 0.000000 0.000000 0.000000 0.029626 0.000000 0.000000
# 5 0.000000 0.000000 0.000000 0.000000 0.023245 0.000000
# 6 0.000000 0.000000 0.000000 0.000000 0.000000 0.031166
#
#
# Mechanical properties :
#
#
# Convention : Reuss Voigt Hill
#
# Bulk Modulus (GPa) = 24.48298 40.36430 32.42364
# Shear Modulus (GPa) = 30.82477 35.59335 33.20906
#
# Velocity S-wave (km/s) = 3.58460 3.85190 3.72065
# Velocity P-wave (km/s) = 5.22860 6.05052 5.65451
#
# Compressibility (1/GPa) = 0.04084470
#
# Stress axis : x y z
#
# Youngs Moduli (GPa) = 41.96361 107.78686 51.03958
#
# Poissons Ratio (x) = 0.78457 -0.26053
# Poissons Ratio (y) = 0.30545 0.19157
# Poissons Ratio (z) = -0.21420 0.40456
#
# Static dielectric constant tensor:
#      x y z
#    x 1.940150 0.000000 0.000000 
#    y 0.000000 1.925980 0.000000 
#    z 0.000000 0.000000 1.849990 
# 
# From -- ./inp_files/1090.got.cif
#   From: 2010.05.17/outbox.cif.g08.bks.cpg/sg41_1_cif.got.tgz:1090.got - 2010.06.03 18:54:24.
