data_PCOD9367140
_publ_section_title
;
Structure prediction by ZEFSAII (Michael W. Deem and Ramdas Pophale) SiO2 
 PCOD9367140
Probable space group: A B A 2
;
_chemical_formula_sum "Si O2"
_cell_formula_units_Z 60
_cell_length_a 9.220547
_cell_length_b 24.192703
_cell_length_c 12.084824
_cell_angle_alpha 90.000000
_cell_angle_beta 90.000000
_cell_angle_gamma 90.000000
_cell_volume 2695.761147
_symmetry_space_group_name_H-M "A B A 2"
_symmetry_group_IT_number 41
_symmetry_cell_setting 'orthorhombic'
loop_
_space_group_symop_operation_xyz
x,y,z
-x,-y,z
1/2-x,y,1/2+z
1/2+x,-y,1/2+z
x,1/2+y,1/2+z
-x,1/2-y,1/2+z
1/2-x,1/2+y,z
1/2+x,1/2-y,z
loop_
_atom_site_type_symbol
_atom_site_label
_atom_site_fract_x
_atom_site_fract_y
_atom_site_fract_z
Si Si1 0.695095 0.511298 0.202320
Si Si2 0.465488 0.680454 0.318178
Si Si3 0.132910 0.563452 0.901156
Si Si4 0.416194 0.792405 0.056120
Si Si5 0.874245 0.408228 0.550756
Si Si6 0.153744 0.864539 0.130825
Si Si7 0.500000 0.000000 0.097178
Si Si8 0.770737 0.303413 0.155379
O O1 0.651236 0.488716 0.321528
O O2 0.625399 0.466250 0.117285
O O3 0.665293 0.575656 0.187279
O O4 0.863604 0.508099 0.174218
O O5 0.435989 0.616118 0.344006
O O6 0.523358 0.706162 0.431295
O O7 0.584367 0.678223 0.219480
O O8 0.312692 0.704422 0.272600
O O9 0.294658 0.580474 0.936897
O O10 0.044231 0.548458 0.011582
O O11 0.303142 0.841961 0.082248
O O12 0.318357 0.738492 0.077052
O O13 0.557872 0.796188 0.135921
O O14 0.773169 0.365413 0.618537
O O15 0.028477 0.378091 0.541420
#
# Coordination Sequence:
#
# PCOD9367140 Si02
#       8
#     8   8   8   8   8   8   4   8
#     4  11  22  40  69  99 147 189 238 289 354 425
#     4  11  24  46  74 105 138 192 239 292 369 429
#     4  11  20  41  70  98 140 197 231 284 367 409
#     4  12  27  49  75 105 145 187 238 311 359 443
#     4  10  22  42  67 104 138 184 234 300 348 432
#     4  11  24  44  69 106 150 185 243 295 361 427
#     4  10  24  38  62 100 142 182 240 290 338 422
#     4  11  24  47  74 102 140 182 242 298 364 430
#
# _framework density 22.257164
#
# number of rings (size 3 to 8) (size 9 to 14) (size 15 to 20)
#    0.000    1.067    4.000    3.600    1.867    3.200 
#    9.600    0.000    0.000    0.000    0.000    0.000 
#    0.000    0.000    0.000    0.000    0.000    0.000 
#
# Total GULP energy -167575.470686 kJ/mol
# GULP energy per Si atom -5585.849023 kJ/mol
# Density = 2.220651 g / cm^3
# Si number density = 22.257164 Si / 1000 Ang^3
#
#
#
# Elastic Constant Matrix: (Units=GPa)
#
#
# Indices 1 2 3 4 5 6 
#
# 1 193.0213 35.0107 54.4023 0.0000 0.0000 0.0000
# 2 35.0107 94.1639 13.1866 0.0000 0.0000 0.0000
# 3 54.4023 13.1866 66.2340 0.0000 0.0000 0.0000
# 4 0.0000 0.0000 0.0000 16.9128 0.0000 0.0000
# 5 0.0000 0.0000 0.0000 0.0000 39.1396 0.0000
# 6 0.0000 0.0000 0.0000 0.0000 0.0000 40.0887
#
#
#
# Elastic Compliance Matrix: (Units=1/GPa)
#
#
# Indices 1 2 3 4 5 6 
#
# 1 0.007045 -0.001861 -0.005416 0.000000 0.000000 0.000000
# 2 -0.001861 0.011416 -0.000744 0.000000 0.000000 0.000000
# 3 -0.005416 -0.000744 0.019695 0.000000 0.000000 0.000000
# 4 0.000000 0.000000 0.000000 0.059127 0.000000 0.000000
# 5 0.000000 0.000000 0.000000 0.000000 0.025550 0.000000
# 6 0.000000 0.000000 0.000000 0.000000 0.000000 0.024945
#
#
# Mechanical properties :
#
#
# Convention : Reuss Voigt Hill
#
# Bulk Modulus (GPa) = 45.22204 62.06872 53.64538
# Shear Modulus (GPa) = 29.20741 35.94951 32.57846
#
# Velocity S-wave (km/s) = 3.62646 4.02330 3.83002
# Velocity P-wave (km/s) = 6.15605 7.03777 6.61163
#
# Compressibility (1/GPa) = 0.02211311
#
# Stress axis : x y z
#
# Youngs Moduli (GPa) = 141.95005 87.59715 50.77545
#
# Poissons Ratio (x) = 0.16301 0.27499
# Poissons Ratio (y) = 0.26415 0.03780
# Poissons Ratio (z) = 0.76878 0.06520
#
# Static dielectric constant tensor:
#      x y z
#    x 1.827430 0.000000 0.000000 
#    y 0.000000 1.829200 0.000000 
#    z 0.000000 0.000000 1.826840 
# 
# From -- ./inp_files/4587.got.cif
#   From: 2010.05.17/outbox.cif.g08.bks.cpg/sg41_3_cif.got.tgz:4587.got - 2010.06.03 18:54:24.
