data_PCOD9367889
_publ_section_title
;
Structure prediction by ZEFSAII (Michael W. Deem and Ramdas Pophale) SiO2 
 PCOD9367889
Probable space group: A B A 2
;
_chemical_formula_sum "Si O2"
_cell_formula_units_Z 32
_cell_length_a 9.795750
_cell_length_b 16.044176
_cell_length_c 8.331848
_cell_angle_alpha 90.000000
_cell_angle_beta 90.000000
_cell_angle_gamma 90.000000
_cell_volume 1309.472700
_symmetry_space_group_name_H-M "A B A 2"
_symmetry_group_IT_number 41
_symmetry_cell_setting 'orthorhombic'
loop_
_space_group_symop_operation_xyz
x,y,z
-x,-y,z
1/2-x,y,1/2+z
1/2+x,-y,1/2+z
x,1/2+y,1/2+z
-x,1/2-y,1/2+z
1/2-x,1/2+y,z
1/2+x,1/2-y,z
loop_
_atom_site_type_symbol
_atom_site_label
_atom_site_fract_x
_atom_site_fract_y
_atom_site_fract_z
Si Si1 0.348060 0.522295 0.020780
Si Si2 0.207531 0.702439 0.010228
Si Si3 0.381184 0.453425 0.356849
Si Si4 0.060241 0.769358 0.322681
O O1 0.500000 0.500000 0.959033
O O2 0.354456 0.515800 0.211235
O O3 0.268338 0.608737 0.986666
O O4 0.252746 0.448185 0.960151
O O5 0.345712 0.754135 0.980122
O O6 0.097039 0.734773 0.878266
O O7 0.126868 0.715077 0.178966
O O8 0.500000 0.500000 0.455692
O O9 0.420874 0.366105 0.281614
#
# Coordination Sequence:
#
# PCOD9367889 Si02
#       4
#     8   8   8   8
#     4  11  26  47  75 105 150 196 253 313 381 464
#     4  12  27  49  75 114 152 205 257 322 390 462
#     4  11  24  47  70 107 148 194 253 311 382 463
#     4  12  27  46  76 110 155 199 262 321 389 465
#
# _framework density 24.437315999999999
#
# number of rings (size 3 to 8) (size 9 to 14) (size 15 to 20)
#    0.000    0.500    2.500    4.500   14.000    1.000 
#    4.500    0.000    0.000    0.000    0.000    0.000 
#    0.000    0.000    0.000    0.000    0.000    0.000 
#
# Total GULP energy -89275.198787 kJ/mol
# GULP energy per Si atom -5579.699924 kJ/mol
# Density = 2.438170 g / cm^3
# Si number density = 24.437316 Si / 1000 Ang^3
#
#
#
# Elastic Constant Matrix: (Units=GPa)
#
#
# Indices 1 2 3 4 5 6 
#
# 1 165.2132 17.2140 15.7814 0.0000 0.0000 0.0000
# 2 17.2140 85.8931 -4.9483 0.0000 0.0000 0.0000
# 3 15.7814 -4.9483 46.0817 0.0000 0.0000 0.0000
# 4 0.0000 0.0000 0.0000 28.6346 0.0000 0.0000
# 5 0.0000 0.0000 0.0000 0.0000 36.9246 0.0000
# 6 0.0000 0.0000 0.0000 0.0000 0.0000 42.0962
#
#
#
# Elastic Compliance Matrix: (Units=1/GPa)
#
#
# Indices 1 2 3 4 5 6 
#
# 1 0.006426 -0.001423 -0.002353 0.000000 0.000000 0.000000
# 2 -0.001423 0.012030 0.001779 0.000000 0.000000 0.000000
# 3 -0.002353 0.001779 0.022698 0.000000 0.000000 0.000000
# 4 0.000000 0.000000 0.000000 0.034923 0.000000 0.000000
# 5 0.000000 0.000000 0.000000 0.000000 0.027082 0.000000
# 6 0.000000 0.000000 0.000000 0.000000 0.000000 0.023755
#
#
# Mechanical properties :
#
#
# Convention : Reuss Voigt Hill
#
# Bulk Modulus (GPa) = 26.91180 39.25359 33.08270
# Shear Modulus (GPa) = 34.89300 39.47381 37.18340
#
# Velocity S-wave (km/s) = 3.78280 4.02345 3.90498
# Velocity P-wave (km/s) = 5.48780 6.13857 5.82228
#
# Compressibility (1/GPa) = 0.03715842
#
# Stress axis : x y z
#
# Youngs Moduli (GPa) = 155.62009 83.12447 44.05743
#
# Poissons Ratio (x) = 0.11832 0.10369
# Poissons Ratio (y) = 0.22151 -0.07839
# Poissons Ratio (z) = 0.36625 -0.14790
#
# Static dielectric constant tensor:
#      x y z
#    x 2.049830 0.000000 0.000000 
#    y 0.000000 1.961600 0.000000 
#    z 0.000000 0.000000 1.943480 
# 
# From -- ./inp_files/1641.got.cif
#   From: 2010.05.17/outbox.cif.g08.bks.cpg/sg41_1_cif.got.tgz:1641.got - 2010.06.03 18:54:24.
