data_PCOD9367896
_publ_section_title
;
Structure prediction by ZEFSAII (Michael W. Deem and Ramdas Pophale) SiO2 
 PCOD9367896
Probable space group: A B A 2
;
_chemical_formula_sum "Si O2"
_cell_formula_units_Z 64
_cell_length_a 14.951482
_cell_length_b 22.614563
_cell_length_c 7.811951
_cell_angle_alpha 90.000000
_cell_angle_beta 90.000000
_cell_angle_gamma 90.000000
_cell_volume 2641.386494
_symmetry_space_group_name_H-M "A B A 2"
_symmetry_group_IT_number 41
_symmetry_cell_setting 'orthorhombic'
loop_
_space_group_symop_operation_xyz
x,y,z
-x,-y,z
1/2-x,y,1/2+z
1/2+x,-y,1/2+z
x,1/2+y,1/2+z
-x,1/2-y,1/2+z
1/2-x,1/2+y,z
1/2+x,1/2-y,z
loop_
_atom_site_type_symbol
_atom_site_label
_atom_site_fract_x
_atom_site_fract_y
_atom_site_fract_z
Si Si1 0.729949 0.159592 0.303800
Si Si2 0.060611 0.359617 0.535673
Si Si3 0.106308 0.654499 0.004527
Si Si4 0.695689 0.044296 0.628623
Si Si5 0.420223 0.315842 0.411953
Si Si6 0.217486 0.044638 0.388681
Si Si7 0.636255 0.359589 0.881378
Si Si8 0.341137 0.726554 0.161049
O O1 0.635298 0.162483 0.401138
O O2 0.744371 0.097528 0.207947
O O3 0.819412 0.160872 0.417362
O O4 0.729504 0.222336 0.205335
O O5 0.104028 0.422392 0.586577
O O6 0.060259 0.318832 0.707075
O O7 0.963242 0.366918 0.455588
O O8 0.129455 0.673260 0.198643
O O9 0.152501 0.591785 0.971893
O O10 0.129003 0.697246 0.841674
O O11 0.999248 0.646616 0.994314
O O12 0.756705 0.015619 0.483046
O O13 0.672285 0.983173 0.723436
O O14 0.414564 0.258265 0.535028
O O15 0.308457 0.080566 0.351699
O O16 0.689780 0.324534 0.030463
#
# Coordination Sequence:
#
# PCOD9367896 Si02
#       8
#     8   8   8   8   8   8   8   8
#     4  11  26  50  81 120 157 216 278 333 413 489
#     4  11  25  48  80 115 163 210 278 338 410 484
#     4  12  29  51  81 119 165 221 268 333 421 494
#     4  11  24  51  84 112 160 212 276 347 399 481
#     4  11  26  47  75 116 159 210 268 329 407 486
#     4  12  26  54  80 116 163 212 281 336 408 496
#     4  12  29  50  80 125 163 219 273 339 418 498
#     4  12  29  47  79 117 165 209 271 336 409 499
#
# _framework density 24.229697999999999
#
# number of rings (size 3 to 8) (size 9 to 14) (size 15 to 20)
#    0.000    0.500    3.750    3.000    8.750    0.500 
#    2.250    0.000    0.000    0.000    0.000    0.000 
#    0.000    0.000    0.000    0.000    0.000    0.000 
#
# Total GULP energy -178615.314741 kJ/mol
# GULP energy per Si atom -5581.728586 kJ/mol
# Density = 2.417455 g / cm^3
# Si number density = 24.229698 Si / 1000 Ang^3
#
#
#
# Elastic Constant Matrix: (Units=GPa)
#
#
# Indices 1 2 3 4 5 6 
#
# 1 115.9419 67.7759 39.2468 0.0000 0.0000 0.0000
# 2 67.7759 144.8783 71.8133 0.0000 0.0000 0.0000
# 3 39.2468 71.8133 121.0574 0.0000 0.0000 0.0000
# 4 0.0000 0.0000 0.0000 60.4451 0.0000 0.0000
# 5 0.0000 0.0000 0.0000 0.0000 17.1001 0.0000
# 6 0.0000 0.0000 0.0000 0.0000 0.0000 28.8417
#
#
#
# Elastic Compliance Matrix: (Units=1/GPa)
#
#
# Indices 1 2 3 4 5 6 
#
# 1 0.011924 -0.005187 -0.000789 0.000000 0.000000 0.000000
# 2 -0.005187 0.012034 -0.005457 0.000000 0.000000 0.000000
# 3 -0.000789 -0.005457 0.011753 0.000000 0.000000 0.000000
# 4 0.000000 0.000000 0.000000 0.016544 0.000000 0.000000
# 5 0.000000 0.000000 0.000000 0.000000 0.058479 0.000000
# 6 0.000000 0.000000 0.000000 0.000000 0.000000 0.034672
#
#
# Mechanical properties :
#
#
# Convention : Reuss Voigt Hill
#
# Bulk Modulus (GPa) = 77.84734 82.17220 80.00977
# Shear Modulus (GPa) = 28.97628 34.81349 31.89489
#
# Velocity S-wave (km/s) = 3.46193 3.79464 3.63210
# Velocity P-wave (km/s) = 6.94108 7.29291 7.11917
#
# Compressibility (1/GPa) = 0.01284565
#
# Stress axis : x y z
#
# Youngs Moduli (GPa) = 83.86178 83.09750 85.08176
#
# Poissons Ratio (x) = 0.43107 0.06709
# Poissons Ratio (y) = 0.43503 0.46429
# Poissons Ratio (z) = 0.06613 0.45347
#
# Static dielectric constant tensor:
#      x y z
#    x 1.961260 0.000000 0.000000 
#    y 0.000000 1.890380 0.000000 
#    z 0.000000 0.000000 2.265020 
# 
# From -- ./inp_files/2811.got.cif
#   From: 2010.05.17/outbox.cif.g08.bks.cpg/sg41_2_cif.got.tgz:2811.got - 2010.06.03 18:54:24.
