data_PCOD9367836
_publ_section_title
;
Structure prediction by ZEFSAII (Michael W. Deem and Ramdas Pophale) SiO2 
 PCOD9367836
Probable space group: A B A 2
;
_chemical_formula_sum "Si O2"
_cell_formula_units_Z 36
_cell_length_a 12.290878
_cell_length_b 9.923815
_cell_length_c 11.353703
_cell_angle_alpha 90.000000
_cell_angle_beta 90.000000
_cell_angle_gamma 90.000000
_cell_volume 1384.838398
_symmetry_space_group_name_H-M "A B A 2"
_symmetry_group_IT_number 41
_symmetry_cell_setting 'orthorhombic'
loop_
_space_group_symop_operation_xyz
x,y,z
-x,-y,z
1/2-x,y,1/2+z
1/2+x,-y,1/2+z
x,1/2+y,1/2+z
-x,1/2-y,1/2+z
1/2-x,1/2+y,z
1/2+x,1/2-y,z
loop_
_atom_site_type_symbol
_atom_site_label
_atom_site_fract_x
_atom_site_fract_y
_atom_site_fract_z
Si Si1 0.181234 0.590802 0.946760
Si Si2 0.412977 0.315044 0.808021
Si Si3 0.875735 0.026258 0.046901
Si Si4 0.000000 0.500000 0.113069
Si Si5 0.097321 0.887719 0.290194
O O1 0.168937 0.689794 0.834364
O O2 0.292740 0.594842 0.019551
O O3 0.173705 0.438882 0.894482
O O4 0.076661 0.596535 0.033175
O O5 0.393519 0.398364 0.925066
O O6 0.419883 0.410301 0.694442
O O7 0.534245 0.250289 0.807886
O O8 0.841040 0.104620 0.165416
O O9 0.000000 0.000000 0.079109
O O10 0.000000 0.000000 0.300232
#
# Coordination Sequence:
#
# PCOD9367836 Si02
#       5
#     8   8   8   4   8
#     4  11  25  49  74 112 158 204 261 335 401 475
#     4  11  23  47  75 110 153 198 270 329 397 482
#     4  11  25  45  70 112 152 202 261 318 401 481
#     4  12  24  48  80 112 148 206 264 322 406 470
#     4   9  21  44  71  99 153 202 254 323 395 462
#
# _framework density 25.995812000000001
#
# number of rings (size 3 to 8) (size 9 to 14) (size 15 to 20)
#    0.000    1.333    4.444    1.333    3.111    1.778 
#    8.000    0.000    0.000    0.000    0.000    0.000 
#    0.000    0.000    0.000    0.000    0.000    0.000 
#
# Total GULP energy -100409.549217 kJ/mol
# GULP energy per Si atom -5578.308290 kJ/mol
# Density = 2.593664 g / cm^3
# Si number density = 25.995812 Si / 1000 Ang^3
#
#
#
# Elastic Constant Matrix: (Units=GPa)
#
#
# Indices 1 2 3 4 5 6 
#
# 1 121.6181 23.6550 36.3714 0.0000 0.0000 0.0000
# 2 23.6550 48.4249 14.7607 0.0000 0.0000 0.0000
# 3 36.3714 14.7607 138.0494 0.0000 0.0000 0.0000
# 4 0.0000 0.0000 0.0000 362.6812 0.0000 0.0000
# 5 0.0000 0.0000 0.0000 0.0000 64.4778 0.0000
# 6 0.0000 0.0000 0.0000 0.0000 0.0000 26.9879
#
#
#
# Elastic Compliance Matrix: (Units=1/GPa)
#
#
# Indices 1 2 3 4 5 6 
#
# 1 0.009644 -0.004069 -0.002106 0.000000 0.000000 0.000000
# 2 -0.004069 0.023063 -0.001394 0.000000 0.000000 0.000000
# 3 -0.002106 -0.001394 0.007948 0.000000 0.000000 0.000000
# 4 0.000000 0.000000 0.000000 0.002757 0.000000 0.000000
# 5 0.000000 0.000000 0.000000 0.000000 0.015509 0.000000
# 6 0.000000 0.000000 0.000000 0.000000 0.000000 0.037054
#
#
# Mechanical properties :
#
#
# Convention : Reuss Voigt Hill
#
# Bulk Modulus (GPa) = 39.18939 50.85183 45.02061
# Shear Modulus (GPa) = 41.79999 106.38307 74.09153
#
# Velocity S-wave (km/s) = 4.01428 6.40406 5.34446
# Velocity P-wave (km/s) = 6.04929 8.61897 7.44582
#
# Compressibility (1/GPa) = 0.02551711
#
# Stress axis : x y z
#
# Youngs Moduli (GPa) = 103.69558 43.35935 125.82396
#
# Poissons Ratio (x) = 0.17643 0.26495
# Poissons Ratio (y) = 0.42193 0.17539
# Poissons Ratio (z) = 0.21835 0.06044
#
# Static dielectric constant tensor:
#      x y z
#    x 1.071180 0.000000 0.000000 
#    y 0.000000 2.229610 0.000000 
#    z 0.000000 0.000000 2.009960 
# 
# From -- ./inp_files/4768.got.cif
#   From: 2010.05.17/outbox.cif.g08.bks.cpg/sg41_3_cif.got.tgz:4768.got - 2010.06.03 18:54:24.
