data_PCOD9367221
_publ_section_title
;
Structure prediction by ZEFSAII (Michael W. Deem and Ramdas Pophale) SiO2 
 PCOD9367221
Probable space group: A B A 2
;
_chemical_formula_sum "Si O2"
_cell_formula_units_Z 64
_cell_length_a 9.312577
_cell_length_b 13.073630
_cell_length_c 22.148468
_cell_angle_alpha 90.000000
_cell_angle_beta 90.000000
_cell_angle_gamma 90.000000
_cell_volume 2696.557951
_symmetry_space_group_name_H-M "A B A 2"
_symmetry_group_IT_number 41
_symmetry_cell_setting 'orthorhombic'
loop_
_space_group_symop_operation_xyz
x,y,z
-x,-y,z
1/2-x,y,1/2+z
1/2+x,-y,1/2+z
x,1/2+y,1/2+z
-x,1/2-y,1/2+z
1/2-x,1/2+y,z
1/2+x,1/2-y,z
loop_
_atom_site_type_symbol
_atom_site_label
_atom_site_fract_x
_atom_site_fract_y
_atom_site_fract_z
Si Si1 0.991388 0.226853 0.160970
Si Si2 0.256906 0.649077 0.946495
Si Si3 0.663272 0.481384 0.829277
Si Si4 0.452426 0.895156 0.996152
Si Si5 0.302018 0.868127 0.112038
Si Si6 0.068124 0.111272 0.278035
Si Si7 0.851443 0.644348 0.879848
Si Si8 0.640967 0.433858 0.075357
O O1 0.054629 0.339432 0.149123
O O2 0.018646 0.191656 0.228830
O O3 0.095428 0.154167 0.121242
O O4 0.832125 0.197648 0.138066
O O5 0.317322 0.572936 0.894383
O O6 0.305271 0.754959 0.915101
O O7 0.317897 0.611730 0.010742
O O8 0.089395 0.661679 0.967919
O O9 0.500000 0.500000 0.812370
O O10 0.763172 0.411332 0.786093
O O11 0.736857 0.593129 0.835665
O O12 0.348796 0.840675 0.043193
O O13 0.500000 0.000000 0.027757
O O14 0.371229 0.931715 0.936388
O O15 0.248835 0.985271 0.107053
O O16 0.997750 0.146108 0.341386
O O17 0.000000 0.000000 0.263084
O O18 0.500000 0.500000 0.063894
#
# Coordination Sequence:
#
# PCOD9367221 Si02
#       8
#     8   8   8   8   8   8   8   8
#     4  11  26  47  71 104 140 193 248 307 370 443
#     4  12  24  40  70 106 150 187 241 306 373 461
#     4  11  24  43  70 110 144 188 244 305 374 454
#     4  12  22  43  70 104 148 194 239 298 384 456
#     4  11  25  43  70 102 142 186 247 307 372 446
#     4  10  22  50  75  95 146 201 244 306 374 441
#     4  11  24  43  71 103 143 197 236 296 379 452
#     4  10  22  44  68  98 143 189 233 296 371 439
#
# _framework density 23.73396
#
# number of rings (size 3 to 8) (size 9 to 14) (size 15 to 20)
#    0.000    1.000    3.750    2.625    5.250    2.000 
#    0.000    5.000    0.000    0.000    0.000    0.000 
#    0.000    0.000    0.000    0.000    0.000    0.000 
#
# Total GULP energy -178598.327144 kJ/mol
# GULP energy per Si atom -5581.197723 kJ/mol
# Density = 2.367994 g / cm^3
# Si number density = 23.733960 Si / 1000 Ang^3
#
#
#
# Elastic Constant Matrix: (Units=GPa)
#
#
# Indices 1 2 3 4 5 6 
#
# 1 136.6402 20.1095 27.9623 0.0000 0.0000 0.0000
# 2 20.1095 69.1742 -1.7192 0.0000 0.0000 0.0000
# 3 27.9623 -1.7192 96.4334 0.0000 0.0000 0.0000
# 4 0.0000 0.0000 0.0000 23.5519 0.0000 0.0000
# 5 0.0000 0.0000 0.0000 0.0000 26.4221 0.0000
# 6 0.0000 0.0000 0.0000 0.0000 0.0000 28.1841
#
#
#
# Elastic Compliance Matrix: (Units=1/GPa)
#
#
# Indices 1 2 3 4 5 6 
#
# 1 0.008171 -0.002435 -0.002413 0.000000 0.000000 0.000000
# 2 -0.002435 0.015188 0.000977 0.000000 0.000000 0.000000
# 3 -0.002413 0.000977 0.011087 0.000000 0.000000 0.000000
# 4 0.000000 0.000000 0.000000 0.042459 0.000000 0.000000
# 5 0.000000 0.000000 0.000000 0.000000 0.037847 0.000000
# 6 0.000000 0.000000 0.000000 0.000000 0.000000 0.035481
#
#
# Mechanical properties :
#
#
# Convention : Reuss Voigt Hill
#
# Bulk Modulus (GPa) = 37.44746 43.88366 40.66556
# Shear Modulus (GPa) = 29.96225 32.69130 31.32677
#
# Velocity S-wave (km/s) = 3.55691 3.71537 3.63700
# Velocity P-wave (km/s) = 5.71674 6.07744 5.89984
#
# Compressibility (1/GPa) = 0.02670408
#
# Stress axis : x y z
#
# Youngs Moduli (GPa) = 122.39000 65.83939 90.19704
#
# Poissons Ratio (x) = 0.16033 0.21761
# Poissons Ratio (y) = 0.29805 -0.08811
# Poissons Ratio (z) = 0.29528 -0.06432
#
# Static dielectric constant tensor:
#      x y z
#    x 1.990110 0.000000 0.000000 
#    y 0.000000 2.009530 0.000000 
#    z 0.000000 0.000000 1.885510 
# 
# From -- ./inp_files/12042.got.cif
#   From: 2010.05.17/outbox.cif.g08.bks.cpg/sg41_7_cif.got.tgz:12042.got - 2010.06.03 18:54:24.
