data_PCOD9367263
_publ_section_title
;
Structure prediction by ZEFSAII (Michael W. Deem and Ramdas Pophale) SiO2 
 PCOD9367263
Probable space group: A B A 2
;
_chemical_formula_sum "Si O2"
_cell_formula_units_Z 60
_cell_length_a 14.242684
_cell_length_b 12.459086
_cell_length_c 14.247101
_cell_angle_alpha 90.000000
_cell_angle_beta 90.000000
_cell_angle_gamma 90.000000
_cell_volume 2528.159824
_symmetry_space_group_name_H-M "A B A 2"
_symmetry_group_IT_number 41
_symmetry_cell_setting 'orthorhombic'
loop_
_space_group_symop_operation_xyz
x,y,z
-x,-y,z
1/2-x,y,1/2+z
1/2+x,-y,1/2+z
x,1/2+y,1/2+z
-x,1/2-y,1/2+z
1/2-x,1/2+y,z
1/2+x,1/2-y,z
loop_
_atom_site_type_symbol
_atom_site_label
_atom_site_fract_x
_atom_site_fract_y
_atom_site_fract_z
Si Si1 0.298784 0.018369 0.082530
Si Si2 0.702916 0.179582 0.219006
Si Si3 0.613279 0.314095 0.704436
Si Si4 0.059591 0.820397 0.028131
Si Si5 0.251209 0.384939 0.924409
Si Si6 0.610666 0.371374 0.132604
Si Si7 0.062938 0.786717 0.384210
Si Si8 0.500000 0.500000 0.279772
O O1 0.380017 0.078396 0.142176
O O2 0.210535 0.096523 0.091853
O O3 0.281674 0.908454 0.139032
O O4 0.301464 0.986331 0.973021
O O5 0.783622 0.269296 0.230375
O O6 0.709367 0.116647 0.318000
O O7 0.617648 0.253135 0.180263
O O8 0.579807 0.225265 0.630826
O O9 0.560506 0.305202 0.803546
O O10 0.965111 0.885962 0.049915
O O11 0.154737 0.865776 0.985187
O O12 0.019522 0.731409 0.957716
O O13 0.167539 0.295935 0.928403
O O14 0.581529 0.452702 0.214107
O O15 0.043235 0.900794 0.335755
#
# Coordination Sequence:
#
# PCOD9367263 Si02
#       8
#     8   8   8   8   8   8   8   4
#     4  11  23  43  71 102 139 196 234 300 371 447
#     4  10  22  46  67 103 144 190 239 309 365 433
#     4  10  23  45  68  99 145 183 239 301 364 435
#     4  12  24  44  71 104 145 187 244 300 373 435
#     4  11  24  43  69 104 144 182 250 300 361 443
#     4  11  23  42  76 100 148 192 242 304 371 435
#     4  11  26  44  71 109 144 190 246 309 368 446
#     4  12  22  44  72 106 134 196 248 290 372 452
#
# _framework density 23.732676999999999
#
# number of rings (size 3 to 8) (size 9 to 14) (size 15 to 20)
#    0.000    1.067    2.667    4.000    3.733    1.067 
#    4.800    0.000    0.000    0.000    0.000    0.000 
#    0.000    0.000    0.000    0.000    0.000    0.000 
#
# Total GULP energy -167371.300143 kJ/mol
# GULP energy per Si atom -5579.043338 kJ/mol
# Density = 2.367866 g / cm^3
# Si number density = 23.732677 Si / 1000 Ang^3
#
#
#
# Elastic Constant Matrix: (Units=GPa)
#
#
# Indices 1 2 3 4 5 6 
#
# 1 50.4809 -5.3515 10.7095 0.0000 0.0000 0.0000
# 2 -5.3515 68.1730 26.1423 0.0000 0.0000 0.0000
# 3 10.7095 26.1423 98.5164 0.0000 0.0000 0.0000
# 4 0.0000 0.0000 0.0000 11.3425 0.0000 0.0000
# 5 0.0000 0.0000 0.0000 0.0000 0.4721 0.0000
# 6 0.0000 0.0000 0.0000 0.0000 0.0000 26.4354
#
#
#
# Elastic Compliance Matrix: (Units=1/GPa)
#
#
# Indices 1 2 3 4 5 6 
#
# 1 0.020738 0.002775 -0.002991 0.000000 0.000000 0.000000
# 2 0.002775 0.016702 -0.004734 0.000000 0.000000 0.000000
# 3 -0.002991 -0.004734 0.011732 0.000000 0.000000 0.000000
# 4 0.000000 0.000000 0.000000 0.088164 0.000000 0.000000
# 5 0.000000 0.000000 0.000000 0.000000 2.118173 0.000000
# 6 0.000000 0.000000 0.000000 0.000000 0.000000 0.037828
#
#
# Mechanical properties :
#
#
# Convention : Reuss Voigt Hill
#
# Bulk Modulus (GPa) = 25.46312 31.13008 28.29660
# Shear Modulus (GPa) = 2.15859 20.02800 11.09329
#
# Velocity S-wave (km/s) = 0.95473 2.90815 2.16435
# Velocity P-wave (km/s) = 3.45945 4.94185 4.26554
#
# Compressibility (1/GPa) = 0.03927248
#
# Stress axis : x y z
#
# Youngs Moduli (GPa) = 48.22039 59.87461 85.23834
#
# Poissons Ratio (x) = -0.16614 0.25492
# Poissons Ratio (y) = -0.13380 0.40348
# Poissons Ratio (z) = 0.14421 0.28342
#
# Static dielectric constant tensor:
#      x y z
#    x 2.012850 0.000000 0.000000 
#    y 0.000000 2.056410 0.000000 
#    z 0.000000 0.000000 1.928530 
# 
# From -- ./inp_files/8531.got.cif
#   From: 2010.05.17/outbox.cif.g08.bks.cpg/sg41_5_cif.got.tgz:8531.got - 2010.06.03 18:54:24.
