data_PCOD9367633
_publ_section_title
;
Structure prediction by ZEFSAII (Michael W. Deem and Ramdas Pophale) SiO2 
 PCOD9367633
Probable space group: A B A 2
;
_chemical_formula_sum "Si O2"
_cell_formula_units_Z 24
_cell_length_a 10.033153
_cell_length_b 10.258305
_cell_length_c 9.801967
_cell_angle_alpha 90.000000
_cell_angle_beta 90.000000
_cell_angle_gamma 90.000000
_cell_volume 1008.849257
_symmetry_space_group_name_H-M "A B A 2"
_symmetry_group_IT_number 41
_symmetry_cell_setting 'orthorhombic'
loop_
_space_group_symop_operation_xyz
x,y,z
-x,-y,z
1/2-x,y,1/2+z
1/2+x,-y,1/2+z
x,1/2+y,1/2+z
-x,1/2-y,1/2+z
1/2-x,1/2+y,z
1/2+x,1/2-y,z
loop_
_atom_site_type_symbol
_atom_site_label
_atom_site_fract_x
_atom_site_fract_y
_atom_site_fract_z
Si Si1 0.000000 0.500000 0.157920
Si Si2 0.739079 0.621163 0.072226
Si Si3 0.890735 0.733131 0.302686
Si Si4 0.000000 0.500000 0.744806
O O1 0.134031 0.475535 0.072857
O O2 0.998264 0.372989 0.256148
O O3 0.794504 0.735460 0.170628
O O4 0.618611 0.551035 0.148765
O O5 0.690094 0.674743 0.928816
O O6 0.952285 0.873297 0.326451
#
# Coordination Sequence:
#
# PCOD9367633 Si02
#       4
#     4   8   8   4
#     4   8  23  49  82 116 179 219 280 348 431 505
#     4  10  25  48  84 119 174 222 286 346 432 512
#     4  10  25  49  83 123 167 229 276 349 428 501
#     4  12  27  45  86 122 171 227 282 360 411 517
#
# _framework density 23.789480000000001
#
# number of rings (size 3 to 8) (size 9 to 14) (size 15 to 20)
#    2.000    0.000    0.000    1.000    4.667    6.667 
#    0.000    0.000    7.333    2.000    0.000    0.000 
#    0.000    0.000    0.000    0.000    0.000    0.000 
#
# Total GULP energy -67065.898576 kJ/mol
# GULP energy per Si atom -5588.824881 kJ/mol
# Density = 2.373533 g / cm^3
# Si number density = 23.789480 Si / 1000 Ang^3
#
#
#
# Elastic Constant Matrix: (Units=GPa)
#
#
# Indices 1 2 3 4 5 6 
#
# 1 155.4738 64.5752 69.0103 0.0000 0.0000 0.0000
# 2 64.5752 170.4676 75.9538 0.0000 0.0000 0.0000
# 3 69.0103 75.9538 130.9587 0.0000 0.0000 0.0000
# 4 0.0000 0.0000 0.0000 17.6023 0.0000 0.0000
# 5 0.0000 0.0000 0.0000 0.0000 20.5706 0.0000
# 6 0.0000 0.0000 0.0000 0.0000 0.0000 31.5095
#
#
#
# Elastic Compliance Matrix: (Units=1/GPa)
#
#
# Indices 1 2 3 4 5 6 
#
# 1 0.008746 -0.001698 -0.003624 0.000000 0.000000 0.000000
# 2 -0.001698 0.008240 -0.003884 0.000000 0.000000 0.000000
# 3 -0.003624 -0.003884 0.011798 0.000000 0.000000 0.000000
# 4 0.000000 0.000000 0.000000 0.056811 0.000000 0.000000
# 5 0.000000 0.000000 0.000000 0.000000 0.048613 0.000000
# 6 0.000000 0.000000 0.000000 0.000000 0.000000 0.031736
#
#
# Mechanical properties :
#
#
# Convention : Reuss Voigt Hill
#
# Bulk Modulus (GPa) = 96.41540 97.33095 96.87317
# Shear Modulus (GPa) = 26.62202 30.42721 28.52462
#
# Velocity S-wave (km/s) = 3.34887 3.58022 3.46648
# Velocity P-wave (km/s) = 7.45452 7.62187 7.53866
#
# Compressibility (1/GPa) = 0.01037179
#
# Stress axis : x y z
#
# Youngs Moduli (GPa) = 114.34021 121.35544 84.75821
#
# Poissons Ratio (x) = 0.20612 0.30713
# Poissons Ratio (y) = 0.19420 0.32922
# Poissons Ratio (z) = 0.41433 0.47137
#
# Static dielectric constant tensor:
#      x y z
#    x 1.910540 0.000000 0.000000 
#    y 0.000000 1.874520 0.000000 
#    z 0.000000 0.000000 1.883450 
# 
# From -- ./inp_files/4234.got.cif
#   From: 2010.05.17/outbox.cif.g08.bks.cpg/sg41_3_cif.got.tgz:4234.got - 2010.06.03 18:54:24.
