data_PCOD9367106
_publ_section_title
;
Structure prediction by ZEFSAII (Michael W. Deem and Ramdas Pophale) SiO2 
 PCOD9367106
Probable space group: A B A 2
;
_chemical_formula_sum "Si O2"
_cell_formula_units_Z 60
_cell_length_a 29.850354
_cell_length_b 10.739848
_cell_length_c 9.084840
_cell_angle_alpha 90.000000
_cell_angle_beta 90.000000
_cell_angle_gamma 90.000000
_cell_volume 2912.493091
_symmetry_space_group_name_H-M "A B A 2"
_symmetry_group_IT_number 41
_symmetry_cell_setting 'orthorhombic'
loop_
_space_group_symop_operation_xyz
x,y,z
-x,-y,z
1/2-x,y,1/2+z
1/2+x,-y,1/2+z
x,1/2+y,1/2+z
-x,1/2-y,1/2+z
1/2-x,1/2+y,z
1/2+x,1/2-y,z
loop_
_atom_site_type_symbol
_atom_site_label
_atom_site_fract_x
_atom_site_fract_y
_atom_site_fract_z
Si Si1 0.576354 0.354255 0.900890
Si Si2 0.500000 0.000000 0.550101
Si Si3 0.632878 0.100890 0.388408
Si Si4 0.416959 0.860526 0.669956
Si Si5 0.800433 0.281759 0.007233
Si Si6 0.211635 0.781733 0.334438
Si Si7 0.855985 0.751012 0.096364
Si Si8 0.331758 0.521673 0.286681
O O1 0.613898 0.462106 0.881418
O O2 0.576872 0.263047 0.763586
O O3 0.528793 0.411086 0.943255
O O4 0.594234 0.282314 0.044118
O O5 0.463193 0.933883 0.652275
O O6 0.597561 0.165602 0.500764
O O7 0.677655 0.146472 0.470618
O O8 0.639880 0.151662 0.225394
O O9 0.377408 0.944478 0.745944
O O10 0.796278 0.291474 0.182539
O O11 0.753806 0.273070 0.920108
O O12 0.829095 0.394834 0.935890
O O13 0.171485 0.783777 0.452158
O O14 0.210295 0.927490 0.287315
O O15 0.831382 0.871107 0.163961
#
# Coordination Sequence:
#
# PCOD9367106 Si02
#       8
#     8   4   8   8   8   8   8   8
#     4  11  22  44  70  97 138 174 223 275 346 413
#     4  10  24  42  70 102 136 172 220 292 336 412
#     4  10  22  41  67  98 132 179 219 278 334 399
#     4  11  22  48  70  97 140 176 224 282 349 413
#     4  11  24  42  69  99 139 181 237 280 335 393
#     4  12  25  45  64 105 134 185 232 284 329 392
#     4  11  22  41  72  97 131 182 225 271 345 396
#     4  11  23  45  67  98 135 181 228 278 339 398
#
# _framework density 20.600908
#
# number of rings (size 3 to 8) (size 9 to 14) (size 15 to 20)
#    0.000    1.067    5.333    1.600    0.000    8.533 
#    0.000    0.000    0.000    0.000    0.000    0.000 
#    0.000    0.000    0.000    0.000    0.000    0.000 
#
# Total GULP energy -167253.047941 kJ/mol
# GULP energy per Si atom -5575.101598 kJ/mol
# Density = 2.055402 g / cm^3
# Si number density = 20.600908 Si / 1000 Ang^3
#
#
#
# Elastic Constant Matrix: (Units=GPa)
#
#
# Indices 1 2 3 4 5 6 
#
# 1 91.8535 16.8784 47.8027 0.0000 0.0000 0.0000
# 2 16.8784 66.5930 44.5954 0.0000 0.0000 0.0000
# 3 47.8027 44.5954 161.2670 0.0000 0.0000 0.0000
# 4 0.0000 0.0000 0.0000 26.9381 0.0000 0.0000
# 5 0.0000 0.0000 0.0000 0.0000 23.6275 0.0000
# 6 0.0000 0.0000 0.0000 0.0000 0.0000 34.0901
#
#
#
# Elastic Compliance Matrix: (Units=1/GPa)
#
#
# Indices 1 2 3 4 5 6 
#
# 1 0.012914 -0.000871 -0.003587 0.000000 0.000000 0.000000
# 2 -0.000871 0.018488 -0.004854 0.000000 0.000000 0.000000
# 3 -0.003587 -0.004854 0.008607 0.000000 0.000000 0.000000
# 4 0.000000 0.000000 0.000000 0.037122 0.000000 0.000000
# 5 0.000000 0.000000 0.000000 0.000000 0.042324 0.000000
# 6 0.000000 0.000000 0.000000 0.000000 0.000000 0.029334
#
#
# Mechanical properties :
#
#
# Convention : Reuss Voigt Hill
#
# Bulk Modulus (GPa) = 46.76452 59.80740 53.28596
# Shear Modulus (GPa) = 28.64658 30.96026 29.80342
#
# Velocity S-wave (km/s) = 3.73305 3.88088 3.80768
# Velocity P-wave (km/s) = 6.42887 7.01257 6.72705
#
# Compressibility (1/GPa) = 0.02138373
#
# Stress axis : x y z
#
# Youngs Moduli (GPa) = 77.43698 54.08857 116.19030
#
# Poissons Ratio (x) = 0.04711 0.41678
# Poissons Ratio (y) = 0.06744 0.56404
# Poissons Ratio (z) = 0.27777 0.26257
#
# Static dielectric constant tensor:
#      x y z
#    x 1.767570 0.000000 0.000000 
#    y 0.000000 1.796420 0.000000 
#    z 0.000000 0.000000 1.752190 
# 
# From -- ./inp_files/3953.got.cif
#   From: 2010.05.17/outbox.cif.g08.bks.cpg/sg41_2_cif.got.tgz:3953.got - 2010.06.03 18:54:24.
