data_PCOD9367362
_publ_section_title
;
Structure prediction by ZEFSAII (Michael W. Deem and Ramdas Pophale) SiO2 
 PCOD9367362
Probable space group: A B A 2
;
_chemical_formula_sum "Si O2"
_cell_formula_units_Z 32
_cell_length_a 13.258739
_cell_length_b 9.075718
_cell_length_c 10.702733
_cell_angle_alpha 90.000000
_cell_angle_beta 90.000000
_cell_angle_gamma 90.000000
_cell_volume 1287.887434
_symmetry_space_group_name_H-M "A B A 2"
_symmetry_group_IT_number 41
_symmetry_cell_setting 'orthorhombic'
loop_
_space_group_symop_operation_xyz
x,y,z
-x,-y,z
1/2-x,y,1/2+z
1/2+x,-y,1/2+z
x,1/2+y,1/2+z
-x,1/2-y,1/2+z
1/2-x,1/2+y,z
1/2+x,1/2-y,z
loop_
_atom_site_type_symbol
_atom_site_label
_atom_site_fract_x
_atom_site_fract_y
_atom_site_fract_z
Si Si1 0.492166 0.194228 0.347900
Si Si2 0.323081 0.911999 0.869125
Si Si3 0.643623 0.016697 0.225806
Si Si4 0.330612 0.712618 0.502330
O O1 0.431649 0.345745 0.343778
O O2 0.558534 0.145062 0.225984
O O3 0.567492 0.201086 0.465063
O O4 0.401541 0.074959 0.344716
O O5 0.247784 0.903052 0.752811
O O6 0.264817 0.819796 0.978361
O O7 0.326257 0.083812 0.898357
O O8 0.657228 0.889943 0.123731
#
# Coordination Sequence:
#
# PCOD9367362 Si02
#       4
#     8   8   8   8
#     4  10  23  43  67 102 141 182 237 291 339 434
#     4  11  23  45  68 106 141 182 240 296 341 435
#     4  10  24  46  69 101 147 182 232 297 357 415
#     4  11  25  43  74  99 145 190 234 292 366 412
#
# _framework density 24.846893000000001
#
# number of rings (size 3 to 8) (size 9 to 14) (size 15 to 20)
#    0.000    1.500    2.500    0.750   10.500    0.000 
#    0.000    0.000    5.500    0.000    0.000    0.000 
#    0.000    0.000    0.000    0.000    0.000    0.000 
#
# Total GULP energy -89195.761193 kJ/mol
# GULP energy per Si atom -5574.735075 kJ/mol
# Density = 2.479034 g / cm^3
# Si number density = 24.846893 Si / 1000 Ang^3
#
#
#
# Elastic Constant Matrix: (Units=GPa)
#
#
# Indices 1 2 3 4 5 6 
#
# 1 94.5578 8.7248 22.9762 0.0000 0.0000 0.0000
# 2 8.7248 87.7372 27.8338 0.0000 0.0000 0.0000
# 3 22.9762 27.8338 88.3291 0.0000 0.0000 0.0000
# 4 0.0000 0.0000 0.0000 58.8064 0.0000 0.0000
# 5 0.0000 0.0000 0.0000 0.0000 10.3644 0.0000
# 6 0.0000 0.0000 0.0000 0.0000 0.0000 49.2178
#
#
#
# Elastic Compliance Matrix: (Units=1/GPa)
#
#
# Indices 1 2 3 4 5 6 
#
# 1 0.011293 -0.000212 -0.002871 0.000000 0.000000 0.000000
# 2 -0.000212 0.012668 -0.003937 0.000000 0.000000 0.000000
# 3 -0.002871 -0.003937 0.013308 0.000000 0.000000 0.000000
# 4 0.000000 0.000000 0.000000 0.017005 0.000000 0.000000
# 5 0.000000 0.000000 0.000000 0.000000 0.096484 0.000000
# 6 0.000000 0.000000 0.000000 0.000000 0.000000 0.020318
#
#
# Mechanical properties :
#
#
# Convention : Reuss Voigt Hill
#
# Bulk Modulus (GPa) = 43.04792 43.29931 43.17362
# Shear Modulus (GPa) = 25.92586 37.75034 31.83810
#
# Velocity S-wave (km/s) = 3.23371 3.90207 3.58351
# Velocity P-wave (km/s) = 5.59512 6.14539 5.87670
#
# Compressibility (1/GPa) = 0.02322992
#
# Stress axis : x y z
#
# Youngs Moduli (GPa) = 88.55326 78.94145 75.14027
#
# Poissons Ratio (x) = 0.01676 0.21569
# Poissons Ratio (y) = 0.01880 0.29579
# Poissons Ratio (z) = 0.25420 0.31076
#
# Static dielectric constant tensor:
#      x y z
#    x 2.032740 0.000000 0.000000 
#    y 0.000000 2.025400 0.000000 
#    z 0.000000 0.000000 2.059900 
# 
# From -- ./inp_files/5258.got.cif
#   From: 2010.05.17/outbox.cif.g08.bks.cpg/sg41_3_cif.got.tgz:5258.got - 2010.06.03 18:54:24.
