data_PCOD9367078
_publ_section_title
;
Structure prediction by ZEFSAII (Michael W. Deem and Ramdas Pophale) SiO2 
 PCOD9367078
Probable space group: A B A 2
;
_chemical_formula_sum "Si O2"
_cell_formula_units_Z 52
_cell_length_a 9.305836
_cell_length_b 15.933006
_cell_length_c 16.512456
_cell_angle_alpha 90.000000
_cell_angle_beta 90.000000
_cell_angle_gamma 90.000000
_cell_volume 2448.300874
_symmetry_space_group_name_H-M "A B A 2"
_symmetry_group_IT_number 41
_symmetry_cell_setting 'orthorhombic'
loop_
_space_group_symop_operation_xyz
x,y,z
-x,-y,z
1/2-x,y,1/2+z
1/2+x,-y,1/2+z
x,1/2+y,1/2+z
-x,1/2-y,1/2+z
1/2-x,1/2+y,z
1/2+x,1/2-y,z
loop_
_atom_site_type_symbol
_atom_site_label
_atom_site_fract_x
_atom_site_fract_y
_atom_site_fract_z
Si Si1 0.425531 0.140914 0.495600
Si Si2 0.236229 0.247870 0.126670
Si Si3 0.992936 0.688370 0.721483
Si Si4 0.743023 0.103624 0.514855
Si Si5 0.500000 0.500000 0.270715
Si Si6 0.941041 0.692332 0.905461
Si Si7 0.820065 0.449820 0.919245
O O1 0.313424 0.174092 0.564641
O O2 0.571183 0.094929 0.523122
O O3 0.479266 0.226383 0.455711
O O4 0.335926 0.091150 0.428010
O O5 0.399554 0.264795 0.152916
O O6 0.151365 0.223268 0.207163
O O7 0.197396 0.338277 0.087031
O O8 0.990230 0.586246 0.720394
O O9 0.940338 0.709242 0.810841
O O10 0.788179 0.158441 0.436353
O O11 0.816895 0.015553 0.493644
O O12 0.635420 0.492443 0.333611
O O13 0.060516 0.622231 0.925056
#
# Coordination Sequence:
#
# PCOD9367078 Si02
#       7
#     8   8   8   8   4   8   8
#     4  11  24  39  67  99 134 174 235 273 336 408
#     4  11  25  42  64  99 139 177 226 276 345 414
#     4  11  24  43  67  95 139 180 222 280 347 406
#     4  11  21  42  63 100 130 177 226 281 329 406
#     4  10  24  44  68 102 134 178 230 286 340 398
#     4  10  22  40  68  95 129 180 227 282 333 403
#     4  11  21  41  70  96 132 174 229 288 327 390
#
# _framework density 21.23922
#
# number of rings (size 3 to 8) (size 9 to 14) (size 15 to 20)
#    0.000    1.231    4.615    2.308    8.615    1.231 
#    0.000    0.000    0.000    0.000    0.000    0.000 
#    0.000    0.000    0.000    0.000    0.000    0.000 
#
# Total GULP energy -144871.881003 kJ/mol
# GULP energy per Si atom -5571.995423 kJ/mol
# Density = 2.119088 g / cm^3
# Si number density = 21.239220 Si / 1000 Ang^3
#
#
#
# Elastic Constant Matrix: (Units=GPa)
#
#
# Indices 1 2 3 4 5 6 
#
# 1 91.1978 30.0169 27.1972 0.0000 0.0000 0.0000
# 2 30.0169 73.0935 23.8707 0.0000 0.0000 0.0000
# 3 27.1972 23.8707 62.7677 0.0000 0.0000 0.0000
# 4 0.0000 0.0000 0.0000 32.7065 0.0000 0.0000
# 5 0.0000 0.0000 0.0000 0.0000 23.8915 0.0000
# 6 0.0000 0.0000 0.0000 0.0000 0.0000 29.0333
#
#
#
# Elastic Compliance Matrix: (Units=1/GPa)
#
#
# Indices 1 2 3 4 5 6 
#
# 1 0.013630 -0.004189 -0.004313 0.000000 0.000000 0.000000
# 2 -0.004189 0.016909 -0.004615 0.000000 0.000000 0.000000
# 3 -0.004313 -0.004615 0.019556 0.000000 0.000000 0.000000
# 4 0.000000 0.000000 0.000000 0.030575 0.000000 0.000000
# 5 0.000000 0.000000 0.000000 0.000000 0.041856 0.000000
# 6 0.000000 0.000000 0.000000 0.000000 0.000000 0.034443
#
#
# Mechanical properties :
#
#
# Convention : Reuss Voigt Hill
#
# Bulk Modulus (GPa) = 41.91071 43.24763 42.57917
# Shear Modulus (GPa) = 26.15662 26.85787 26.50725
#
# Velocity S-wave (km/s) = 3.51312 3.55990 3.53658
# Velocity P-wave (km/s) = 6.01926 6.10766 6.06362
#
# Compressibility (1/GPa) = 0.02386025
#
# Stress axis : x y z
#
# Youngs Moduli (GPa) = 73.36700 59.14147 51.13583
#
# Poissons Ratio (x) = 0.24774 0.22054
# Poissons Ratio (y) = 0.30733 0.23601
# Poissons Ratio (z) = 0.31642 0.27296
#
# Static dielectric constant tensor:
#      x y z
#    x 1.796010 0.000000 0.000000 
#    y 0.000000 1.822520 0.000000 
#    z 0.000000 0.000000 1.796160 
# 
# From -- ./inp_files/9726.got.cif
#   From: 2010.05.17/outbox.cif.g08.bks.cpg/sg41_5_cif.got.tgz:9726.got - 2010.06.03 18:54:24.
