data_PCOD9367964
_publ_section_title
;
Structure prediction by ZEFSAII (Michael W. Deem and Ramdas Pophale) SiO2 
 PCOD9367964
Probable space group: A B A 2
;
_chemical_formula_sum "Si O2"
_cell_formula_units_Z 40
_cell_length_a 7.129221
_cell_length_b 27.863526
_cell_length_c 7.316159
_cell_angle_alpha 90.000000
_cell_angle_beta 90.000000
_cell_angle_gamma 90.000000
_cell_volume 1453.320122
_symmetry_space_group_name_H-M "A B A 2"
_symmetry_group_IT_number 41
_symmetry_cell_setting 'orthorhombic'
loop_
_space_group_symop_operation_xyz
x,y,z
-x,-y,z
1/2-x,y,1/2+z
1/2+x,-y,1/2+z
x,1/2+y,1/2+z
-x,1/2-y,1/2+z
1/2-x,1/2+y,z
1/2+x,1/2-y,z
loop_
_atom_site_type_symbol
_atom_site_label
_atom_site_fract_x
_atom_site_fract_y
_atom_site_fract_z
Si Si1 0.827594 0.131271 0.113750
Si Si2 0.038626 0.189317 0.806277
Si Si3 0.526495 0.300566 0.382394
Si Si4 0.506891 0.943891 0.125049
Si Si5 0.931426 0.947692 0.057101
O O1 0.930428 0.151205 0.930313
O O2 0.626034 0.175820 0.749400
O O3 0.283653 0.067771 0.063477
O O4 0.967255 0.090089 0.185536
O O5 0.263094 0.184670 0.827542
O O6 0.988213 0.243076 0.869759
O O7 0.989188 0.186001 0.592389
O O8 0.350440 0.904110 0.076202
O O9 0.503950 0.945913 0.346383
O O10 0.500000 0.000000 0.063795
O O11 0.000000 0.000000 0.121322
#
# Coordination Sequence:
#
# PCOD9367964 Si02
#       5
#     8   8   8   8   8
#     4  12  28  54  88 133 186 249 315 390 481 580
#     4  12  26  54  85 132 192 258 322 406 479 578
#     4  12  26  54  87 130 194 255 326 400 484 573
#     4  11  27  56  89 132 184 245 319 399 488 573
#     4  11  27  54  85 127 184 241 310 401 473 574
#
# _framework density 27.523188000000001
#
# number of rings (size 3 to 8) (size 9 to 14) (size 15 to 20)
#    0.000    0.400    6.000    0.000    2.800    4.000 
#   18.000    0.000    0.000    0.000    0.000    0.000 
#    0.000    0.000    0.000    0.000    0.000    0.000 
#
# Total GULP energy -112050.881403 kJ/mol
# GULP energy per Si atom -5602.544070 kJ/mol
# Density = 2.746054 g / cm^3
# Si number density = 27.523188 Si / 1000 Ang^3
#
#
#
# Elastic Constant Matrix: (Units=GPa)
#
#
# Indices 1 2 3 4 5 6 
#
# 1 217.7223 86.3001 34.7099 0.0000 0.0000 0.0000
# 2 86.3001 246.1931 48.3696 0.0000 0.0000 0.0000
# 3 34.7099 48.3696 171.5189 0.0000 0.0000 0.0000
# 4 0.0000 0.0000 0.0000 7.4440 0.0000 0.0000
# 5 0.0000 0.0000 0.0000 0.0000 62.5918 0.0000
# 6 0.0000 0.0000 0.0000 0.0000 0.0000 45.5845
#
#
#
# Elastic Compliance Matrix: (Units=1/GPa)
#
#
# Indices 1 2 3 4 5 6 
#
# 1 0.005390 -0.001773 -0.000591 0.000000 0.000000 0.000000
# 2 -0.001773 0.004884 -0.001018 0.000000 0.000000 0.000000
# 3 -0.000591 -0.001018 0.006237 0.000000 0.000000 0.000000
# 4 0.000000 0.000000 0.000000 0.134336 0.000000 0.000000
# 5 0.000000 0.000000 0.000000 0.000000 0.015977 0.000000
# 6 0.000000 0.000000 0.000000 0.000000 0.000000 0.021937
#
#
# Mechanical properties :
#
#
# Convention : Reuss Voigt Hill
#
# Bulk Modulus (GPa) = 102.60765 108.24373 105.42569
# Shear Modulus (GPa) = 25.15417 54.19437 39.67427
#
# Velocity S-wave (km/s) = 3.02640 4.44221 3.80081
# Velocity P-wave (km/s) = 7.04085 8.10706 7.59269
#
# Compressibility (1/GPa) = 0.00974586
#
# Stress axis : x y z
#
# Youngs Moduli (GPa) = 185.52521 204.76855 160.33427
#
# Poissons Ratio (x) = 0.36313 0.09471
# Poissons Ratio (y) = 0.32901 0.16327
# Poissons Ratio (z) = 0.10959 0.20852
#
# Static dielectric constant tensor:
#      x y z
#    x -13.129080 0.000000 0.000000 
#    y 0.000000 2.137520 0.000000 
#    z 0.000000 0.000000 2.360880 
# 
# From -- ./inp_files/1754.got.cif
#   From: 2010.05.17/outbox.cif.g08.bks.cpg/sg41_1_cif.got.tgz:1754.got - 2010.06.03 18:54:24.
