data_PCOD9367373
_publ_section_title
;
Structure prediction by ZEFSAII (Michael W. Deem and Ramdas Pophale) SiO2 
 PCOD9367373
Probable space group: A B A 2
;
_chemical_formula_sum "Si O2"
_cell_formula_units_Z 64
_cell_length_a 15.653311
_cell_length_b 20.651120
_cell_length_c 9.292034
_cell_angle_alpha 90.000000
_cell_angle_beta 90.000000
_cell_angle_gamma 90.000000
_cell_volume 3003.728079
_symmetry_space_group_name_H-M "A B A 2"
_symmetry_group_IT_number 41
_symmetry_cell_setting 'orthorhombic'
loop_
_space_group_symop_operation_xyz
x,y,z
-x,-y,z
1/2-x,y,1/2+z
1/2+x,-y,1/2+z
x,1/2+y,1/2+z
-x,1/2-y,1/2+z
1/2-x,1/2+y,z
1/2+x,1/2-y,z
loop_
_atom_site_type_symbol
_atom_site_label
_atom_site_fract_x
_atom_site_fract_y
_atom_site_fract_z
Si Si1 0.852329 0.142383 0.252730
Si Si2 0.578877 0.848707 0.145356
Si Si3 0.220613 0.560189 0.061802
Si Si4 0.252677 0.970558 0.312827
Si Si5 0.525899 0.704338 0.064889
Si Si6 0.659384 0.830995 0.456019
Si Si7 0.903297 0.135245 0.780907
Si Si8 0.788869 0.701334 0.052398
O O1 0.827526 0.067516 0.244367
O O2 0.945177 0.167607 0.211073
O O3 0.820470 0.163742 0.410184
O O4 0.795262 0.176424 0.130441
O O5 0.635899 0.896009 0.047820
O O6 0.550509 0.779861 0.078634
O O7 0.636353 0.833208 0.287393
O O8 0.492355 0.883389 0.203306
O O9 0.226727 0.534601 0.223479
O O10 0.301248 0.603459 0.016383
O O11 0.224231 0.494913 0.968364
O O12 0.334624 0.922337 0.306931
O O13 0.426908 0.691512 0.034612
O O14 0.570801 0.669995 0.928370
O O15 0.724046 0.773825 0.497701
O O16 0.858088 0.186834 0.675975
#
# Coordination Sequence:
#
# PCOD9367373 Si02
#       8
#     8   8   8   8   8   8   8   8
#     4  11  22  40  68  99 128 182 222 283 326 412
#     4  11  23  45  69 103 138 172 229 288 366 414
#     4  12  25  45  67  97 135 190 224 284 333 417
#     4  11  24  45  67  95 138 179 246 263 333 412
#     4  11  22  43  71 100 136 168 226 283 371 412
#     4  11  24  42  64 101 139 170 218 289 353 419
#     4  10  23  43  71 100 134 182 218 296 338 422
#     4  11  21  39  66  99 134 166 223 277 357 394
#
# _framework density 21.306856
#
# number of rings (size 3 to 8) (size 9 to 14) (size 15 to 20)
#    0.000    1.000    3.750    4.500    0.000    1.500 
#    2.250    1.875    0.000    0.000    0.000    0.000 
#    0.000    0.000    0.000    0.000    0.000    0.000 
#
# Total GULP energy -178740.458191 kJ/mol
# GULP energy per Si atom -5585.639318 kJ/mol
# Density = 2.125836 g / cm^3
# Si number density = 21.306856 Si / 1000 Ang^3
#
#
#
# Elastic Constant Matrix: (Units=GPa)
#
#
# Indices 1 2 3 4 5 6 
#
# 1 45.2148 19.2057 26.2861 0.0000 0.0000 0.0000
# 2 19.2057 93.5916 19.8279 0.0000 0.0000 0.0000
# 3 26.2861 19.8279 57.5887 0.0000 0.0000 0.0000
# 4 0.0000 0.0000 0.0000 30.8963 0.0000 0.0000
# 5 0.0000 0.0000 0.0000 0.0000 25.4786 0.0000
# 6 0.0000 0.0000 0.0000 0.0000 0.0000 31.1426
#
#
#
# Elastic Compliance Matrix: (Units=1/GPa)
#
#
# Indices 1 2 3 4 5 6 
#
# 1 0.031223 -0.003654 -0.012993 0.000000 0.000000 0.000000
# 2 -0.003654 0.011953 -0.002447 0.000000 0.000000 0.000000
# 3 -0.012993 -0.002447 0.024138 0.000000 0.000000 0.000000
# 4 0.000000 0.000000 0.000000 0.032366 0.000000 0.000000
# 5 0.000000 0.000000 0.000000 0.000000 0.039249 0.000000
# 6 0.000000 0.000000 0.000000 0.000000 0.000000 0.032110
#
#
# Mechanical properties :
#
#
# Convention : Reuss Voigt Hill
#
# Bulk Modulus (GPa) = 34.33655 36.33717 35.33686
# Shear Modulus (GPa) = 22.83760 26.24184 24.53972
#
# Velocity S-wave (km/s) = 3.27745 3.51324 3.39739
# Velocity P-wave (km/s) = 5.52019 5.79210 5.65778
#
# Compressibility (1/GPa) = 0.02912349
#
# Stress axis : x y z
#
# Youngs Moduli (GPa) = 32.02801 83.66004 41.42862
#
# Poissons Ratio (x) = 0.30573 0.53829
# Poissons Ratio (y) = 0.11704 0.10139
# Poissons Ratio (z) = 0.41615 0.20475
#
# Static dielectric constant tensor:
#      x y z
#    x 1.842900 0.000000 0.000000 
#    y 0.000000 1.785330 0.000000 
#    z 0.000000 0.000000 1.803970 
# 
# From -- ./inp_files/3224.got.cif
#   From: 2010.05.17/outbox.cif.g08.bks.cpg/sg41_2_cif.got.tgz:3224.got - 2010.06.03 18:54:24.
