data_PCOD9367711
_publ_section_title
;
Structure prediction by ZEFSAII (Michael W. Deem and Ramdas Pophale) SiO2 
 PCOD9367711
Probable space group: A B A 2
;
_chemical_formula_sum "Si O2"
_cell_formula_units_Z 60
_cell_length_a 10.347210
_cell_length_b 8.351896
_cell_length_c 29.328096
_cell_angle_alpha 90.000000
_cell_angle_beta 90.000000
_cell_angle_gamma 90.000000
_cell_volume 2534.499502
_symmetry_space_group_name_H-M "A B A 2"
_symmetry_group_IT_number 41
_symmetry_cell_setting 'orthorhombic'
loop_
_space_group_symop_operation_xyz
x,y,z
-x,-y,z
1/2-x,y,1/2+z
1/2+x,-y,1/2+z
x,1/2+y,1/2+z
-x,1/2-y,1/2+z
1/2-x,1/2+y,z
1/2+x,1/2-y,z
loop_
_atom_site_type_symbol
_atom_site_label
_atom_site_fract_x
_atom_site_fract_y
_atom_site_fract_z
Si Si1 0.098426 0.198602 0.022620
Si Si2 0.122906 0.382933 0.661242
Si Si3 0.320765 0.819895 0.284404
Si Si4 0.162653 0.582384 0.218717
Si Si5 0.794203 0.417512 0.851511
Si Si6 0.586361 0.844978 0.424151
Si Si7 0.000000 0.500000 0.921875
Si Si8 0.324025 0.877111 0.558735
O O1 0.186950 0.348605 0.034537
O O2 0.944342 0.206028 0.031726
O O3 0.144024 0.064384 0.058324
O O4 0.145497 0.123962 0.974163
O O5 0.229621 0.489848 0.688089
O O6 0.092796 0.215285 0.687434
O O7 0.173326 0.331394 0.611630
O O8 0.000000 0.500000 0.657999
O O9 0.228409 0.700474 0.256351
O O10 0.384038 0.704111 0.322151
O O11 0.390815 0.928787 0.247309
O O12 0.250261 0.946966 0.316804
O O13 0.677855 0.334254 0.879859
O O14 0.874009 0.493083 0.891486
O O15 0.511397 0.681777 0.439462
O O16 0.500000 0.000000 0.414142
#
# Coordination Sequence:
#
# PCOD9367711 Si02
#       8
#     8   8   8   8   8   8   4   8
#     4  11  26  45  70 105 145 186 242 305 372 436
#     4  11  21  42  70  98 137 185 234 293 375 443
#     4   9  19  43  65  94 144 173 233 299 352 436
#     4   9  21  40  66 100 137 176 229 299 359 441
#     4  11  22  44  67  99 141 188 239 293 363 436
#     4  12  27  46  72 107 146 189 254 310 365 439
#     4  12  28  42  70 102 136 204 236 296 370 430
#     4  11  24  46  71 103 143 190 235 305 369 453
#
# _framework density 23.673313
#
# number of rings (size 3 to 8) (size 9 to 14) (size 15 to 20)
#    0.000    1.333    4.000    1.600    3.733    0.533 
#   10.800    5.333    0.000    0.000    0.000    0.000 
#    0.000    0.000    0.000    0.000    0.000    0.000 
#
# Total GULP energy -167011.274728 kJ/mol
# GULP energy per Si atom -5567.042491 kJ/mol
# Density = 2.361943 g / cm^3
# Si number density = 23.673313 Si / 1000 Ang^3
#
#
#
# Elastic Constant Matrix: (Units=GPa)
#
#
# Indices 1 2 3 4 5 6 
#
# 1 23.4618 4.6553 -1.7783 0.0000 0.0000 0.0000
# 2 4.6553 109.4901 17.7921 0.0000 0.0000 0.0000
# 3 -1.7783 17.7921 109.2461 0.0000 0.0000 0.0000
# 4 0.0000 0.0000 0.0000 40.9283 0.0000 0.0000
# 5 0.0000 0.0000 0.0000 0.0000 110.5010 0.0000
# 6 0.0000 0.0000 0.0000 0.0000 0.0000 33.4676
#
#
#
# Elastic Compliance Matrix: (Units=1/GPa)
#
#
# Indices 1 2 3 4 5 6 
#
# 1 0.043097 -0.001999 0.001027 0.000000 0.000000 0.000000
# 2 -0.001999 0.009474 -0.001576 0.000000 0.000000 0.000000
# 3 0.001027 -0.001576 0.009427 0.000000 0.000000 0.000000
# 4 0.000000 0.000000 0.000000 0.024433 0.000000 0.000000
# 5 0.000000 0.000000 0.000000 0.000000 0.009050 0.000000
# 6 0.000000 0.000000 0.000000 0.000000 0.000000 0.029880
#
#
# Mechanical properties :
#
#
# Convention : Reuss Voigt Hill
#
# Bulk Modulus (GPa) = 17.57382 31.50403 24.53892
# Shear Modulus (GPa) = 33.46192 51.74796 42.60494
#
# Velocity S-wave (km/s) = 3.76372 4.68045 4.24689
# Velocity P-wave (km/s) = 5.13098 6.52270 5.86824
#
# Compressibility (1/GPa) = 0.05690282
#
# Stress axis : x y z
#
# Youngs Moduli (GPa) = 23.20347 105.54894 106.07870
#
# Poissons Ratio (x) = 0.21103 -0.10896
# Poissons Ratio (y) = 0.04639 0.16713
# Poissons Ratio (z) = -0.02383 0.16630
#
# Static dielectric constant tensor:
#      x y z
#    x 1.880030 0.000000 0.000000 
#    y 0.000000 2.623150 0.000000 
#    z 0.000000 0.000000 1.917760 
# 
# From -- ./inp_files/12510.got.cif
#   From: 2010.05.17/outbox.cif.g08.bks.cpg/sg41_7_cif.got.tgz:12510.got - 2010.06.03 18:54:24.
