data_PCOD9367460
_publ_section_title
;
Structure prediction by ZEFSAII (Michael W. Deem and Ramdas Pophale) SiO2 
 PCOD9367460
Probable space group: A B A 2
;
_chemical_formula_sum "Si O2"
_cell_formula_units_Z 28
_cell_length_a 12.903401
_cell_length_b 7.471092
_cell_length_c 11.492004
_cell_angle_alpha 90.000000
_cell_angle_beta 90.000000
_cell_angle_gamma 90.000000
_cell_volume 1107.857869
_symmetry_space_group_name_H-M "A B A 2"
_symmetry_group_IT_number 41
_symmetry_cell_setting 'orthorhombic'
loop_
_space_group_symop_operation_xyz
x,y,z
-x,-y,z
1/2-x,y,1/2+z
1/2+x,-y,1/2+z
x,1/2+y,1/2+z
-x,1/2-y,1/2+z
1/2-x,1/2+y,z
1/2+x,1/2-y,z
loop_
_atom_site_type_symbol
_atom_site_label
_atom_site_fract_x
_atom_site_fract_y
_atom_site_fract_z
Si Si1 0.389567 0.563005 0.099700
Si Si2 0.815045 0.774793 0.525618
Si Si3 0.500000 0.500000 0.471179
Si Si4 0.449748 0.308149 0.816563
O O1 0.500000 0.500000 0.046988
O O2 0.418330 0.695534 0.203339
O O3 0.336355 0.371255 0.125785
O O4 0.300701 0.658699 0.026849
O O5 0.850005 0.685954 0.403174
O O6 0.898544 0.935274 0.539423
O O7 0.522941 0.670090 0.388904
O O8 0.500000 0.500000 0.793805
#
# Coordination Sequence:
#
# PCOD9367460 Si02
#       4
#     8   8   4   8
#     4  12  26  47  80 124 157 218 293 338 415 505
#     4  10  26  45  81 116 169 215 279 352 423 493
#     4   8  22  54  80 112 168 230 264 348 442 492
#     4  10  23  52  85 112 169 222 276 346 427 512
#
# _framework density 25.273997999999999
#
# number of rings (size 3 to 8) (size 9 to 14) (size 15 to 20)
#    1.714    0.000    1.429    0.857    4.000    4.571 
#    0.000    2.857    3.143    0.000    0.000    0.000 
#    0.000    0.000    0.000    0.000    0.000    0.000 
#
# Total GULP energy -78165.744371 kJ/mol
# GULP energy per Si atom -5583.267455 kJ/mol
# Density = 2.521647 g / cm^3
# Si number density = 25.273998 Si / 1000 Ang^3
#
#
#
# Elastic Constant Matrix: (Units=GPa)
#
#
# Indices 1 2 3 4 5 6 
#
# 1 212.4939 101.6452 83.0286 0.0000 0.0000 0.0000
# 2 101.6452 243.2086 78.7528 0.0000 0.0000 0.0000
# 3 83.0286 78.7528 98.6543 0.0000 0.0000 0.0000
# 4 0.0000 0.0000 0.0000 44.3286 0.0000 0.0000
# 5 0.0000 0.0000 0.0000 0.0000 22.1219 0.0000
# 6 0.0000 0.0000 0.0000 0.0000 0.0000 61.5290
#
#
#
# Elastic Compliance Matrix: (Units=1/GPa)
#
#
# Indices 1 2 3 4 5 6 
#
# 1 0.007370 -0.001445 -0.005049 0.000000 0.000000 0.000000
# 2 -0.001445 0.005828 -0.003436 0.000000 0.000000 0.000000
# 3 -0.005049 -0.003436 0.017129 0.000000 0.000000 0.000000
# 4 0.000000 0.000000 0.000000 0.022559 0.000000 0.000000
# 5 0.000000 0.000000 0.000000 0.000000 0.045204 0.000000
# 6 0.000000 0.000000 0.000000 0.000000 0.000000 0.016253
#
#
# Mechanical properties :
#
#
# Convention : Reuss Voigt Hill
#
# Bulk Modulus (GPa) = 95.54633 120.13445 107.84039
# Shear Modulus (GPa) = 36.31266 44.99124 40.65195
#
# Velocity S-wave (km/s) = 3.79457 4.22375 4.01490
# Velocity P-wave (km/s) = 7.55544 8.45120 8.01584
#
# Compressibility (1/GPa) = 0.01046613
#
# Stress axis : x y z
#
# Youngs Moduli (GPa) = 135.68061 171.57259 58.38097
#
# Poissons Ratio (x) = 0.24798 0.29477
# Poissons Ratio (y) = 0.19610 0.20061
# Poissons Ratio (z) = 0.68507 0.58957
#
# Static dielectric constant tensor:
#      x y z
#    x 1.957200 0.000000 0.000000 
#    y 0.000000 2.089640 0.000000 
#    z 0.000000 0.000000 2.091700 
# 
# From -- ./inp_files/7639.got.cif
#   From: 2010.05.17/outbox.cif.g08.bks.cpg/sg41_4_cif.got.tgz:7639.got - 2010.06.03 18:54:24.
