data_PCOD9367340
_publ_section_title
;
Structure prediction by ZEFSAII (Michael W. Deem and Ramdas Pophale) SiO2 
 PCOD9367340
Probable space group: A B A 2
;
_chemical_formula_sum "Si O2"
_cell_formula_units_Z 48
_cell_length_a 10.001956
_cell_length_b 17.719633
_cell_length_c 13.915192
_cell_angle_alpha 90.000000
_cell_angle_beta 90.000000
_cell_angle_gamma 90.000000
_cell_volume 2466.203249
_symmetry_space_group_name_H-M "A B A 2"
_symmetry_group_IT_number 41
_symmetry_cell_setting 'orthorhombic'
loop_
_space_group_symop_operation_xyz
x,y,z
-x,-y,z
1/2-x,y,1/2+z
1/2+x,-y,1/2+z
x,1/2+y,1/2+z
-x,1/2-y,1/2+z
1/2-x,1/2+y,z
1/2+x,1/2-y,z
loop_
_atom_site_type_symbol
_atom_site_label
_atom_site_fract_x
_atom_site_fract_y
_atom_site_fract_z
Si Si1 0.340139 0.488552 0.050380
Si Si2 0.326127 0.100011 0.717145
Si Si3 0.199480 0.242952 0.804151
Si Si4 0.945163 0.770682 0.437745
Si Si5 0.407676 0.829861 0.624196
Si Si6 0.617130 0.945966 0.924784
O O1 0.500000 0.500000 0.038606
O O2 0.285190 0.539568 0.137924
O O3 0.330765 0.401094 0.078313
O O4 0.256300 0.519383 0.961165
O O5 0.218217 0.159044 0.758801
O O6 0.449214 0.144970 0.668228
O O7 0.381191 0.056569 0.809628
O O8 0.334616 0.258333 0.862248
O O9 0.173018 0.295832 0.713284
O O10 0.083597 0.254760 0.882840
O O11 0.934154 0.728628 0.538687
O O12 0.912539 0.859325 0.453235
O O13 0.500000 0.000000 0.960737
#
# Coordination Sequence:
#
# PCOD9367340 Si02
#       6
#     8   8   8   8   8   8
#     4  10  24  41  67  93 129 180 219 276 345 412
#     4  10  23  42  66  90 137 172 219 276 346 403
#     4  11  23  44  64 102 129 184 222 292 343 412
#     4  11  27  39  73  99 137 178 237 286 355 419
#     4  11  23  42  69  99 134 179 232 278 354 421
#     4  11  23  44  64  96 134 175 223 282 346 413
#
# _framework density 19.463117
#
# number of rings (size 3 to 8) (size 9 to 14) (size 15 to 20)
#    0.000    1.333    3.333    2.500   14.000    0.000 
#    3.000    0.833    0.000    0.000    0.000    0.000 
#    0.000    0.000    0.000    0.000    0.000    0.000 
#
# Total GULP energy -133967.980583 kJ/mol
# GULP energy per Si atom -5581.999191 kJ/mol
# Density = 1.941882 g / cm^3
# Si number density = 19.463117 Si / 1000 Ang^3
#
#
#
# Elastic Constant Matrix: (Units=GPa)
#
#
# Indices 1 2 3 4 5 6 
#
# 1 49.1504 32.4012 7.4291 0.0000 0.0000 0.0000
# 2 32.4012 85.0233 47.8154 0.0000 0.0000 0.0000
# 3 7.4291 47.8154 107.0415 0.0000 0.0000 0.0000
# 4 0.0000 0.0000 0.0000 22.7671 0.0000 0.0000
# 5 0.0000 0.0000 0.0000 0.0000 26.2657 0.0000
# 6 0.0000 0.0000 0.0000 0.0000 0.0000 24.2509
#
#
#
# Elastic Compliance Matrix: (Units=1/GPa)
#
#
# Indices 1 2 3 4 5 6 
#
# 1 0.028289 -0.012923 0.003809 0.000000 0.000000 0.000000
# 2 -0.012923 0.021611 -0.008757 0.000000 0.000000 0.000000
# 3 0.003809 -0.008757 0.012989 0.000000 0.000000 0.000000
# 4 0.000000 0.000000 0.000000 0.043923 0.000000 0.000000
# 5 0.000000 0.000000 0.000000 0.000000 0.038073 0.000000
# 6 0.000000 0.000000 0.000000 0.000000 0.000000 0.041236
#
#
# Mechanical properties :
#
#
# Convention : Reuss Voigt Hill
#
# Bulk Modulus (GPa) = 36.83410 46.27851 41.55630
# Shear Modulus (GPa) = 21.65345 24.89470 23.27408
#
# Velocity S-wave (km/s) = 3.33909 3.58029 3.46179
# Velocity P-wave (km/s) = 5.81655 6.39691 6.11362
#
# Compressibility (1/GPa) = 0.02714876
#
# Stress axis : x y z
#
# Youngs Moduli (GPa) = 35.34950 46.27335 76.98601
#
# Poissons Ratio (x) = 0.59798 -0.29326
# Poissons Ratio (y) = 0.45681 0.67414
# Poissons Ratio (z) = -0.13465 0.40520
#
# Static dielectric constant tensor:
#      x y z
#    x 1.681830 0.000000 0.000000 
#    y 0.000000 1.708610 0.000000 
#    z 0.000000 0.000000 1.657240 
# 
# From -- ./inp_files/7312.got.cif
#   From: 2010.05.17/outbox.cif.g08.bks.cpg/sg41_4_cif.got.tgz:7312.got - 2010.06.03 18:54:24.
