data_PCOD9367453
_publ_section_title
;
Structure prediction by ZEFSAII (Michael W. Deem and Ramdas Pophale) SiO2 
 PCOD9367453
Probable space group: A B A 2
;
_chemical_formula_sum "Si O2"
_cell_formula_units_Z 60
_cell_length_a 26.807604
_cell_length_b 8.787316
_cell_length_c 12.180799
_cell_angle_alpha 90.000000
_cell_angle_beta 90.000000
_cell_angle_gamma 90.000000
_cell_volume 2869.392908
_symmetry_space_group_name_H-M "A B A 2"
_symmetry_group_IT_number 41
_symmetry_cell_setting 'orthorhombic'
loop_
_space_group_symop_operation_xyz
x,y,z
-x,-y,z
1/2-x,y,1/2+z
1/2+x,-y,1/2+z
x,1/2+y,1/2+z
-x,1/2-y,1/2+z
1/2-x,1/2+y,z
1/2+x,1/2-y,z
loop_
_atom_site_type_symbol
_atom_site_label
_atom_site_fract_x
_atom_site_fract_y
_atom_site_fract_z
Si Si1 0.582002 0.910556 0.430390
Si Si2 0.185943 0.693759 0.445335
Si Si3 0.730895 0.923579 0.238598
Si Si4 0.000000 0.000000 0.098458
Si Si5 0.133826 0.789934 0.987973
Si Si6 0.163640 0.510246 0.835618
Si Si7 0.082342 0.305518 0.716840
Si Si8 0.763348 0.172163 0.089751
O O1 0.630613 0.835175 0.486820
O O2 0.575879 0.820629 0.314268
O O3 0.536193 0.908187 0.514647
O O4 0.598865 0.087846 0.425359
O O5 0.198896 0.574605 0.348733
O O6 0.231071 0.699877 0.528848
O O7 0.185900 0.868305 0.403221
O O8 0.789534 0.923315 0.268222
O O9 0.714752 0.761946 0.192629
O O10 0.726511 0.051296 0.145938
O O11 0.967920 0.112335 0.175308
O O12 0.107438 0.747200 0.103551
O O13 0.187674 0.865017 0.019981
O O14 0.144209 0.642751 0.914838
O O15 0.119261 0.436466 0.764475
#
# Coordination Sequence:
#
# PCOD9367453 Si02
#       8
#     8   8   8   4   8   8   8   8
#     4  10  24  45  72  99 132 176 227 290 339 411
#     4  11  24  40  59  92 135 173 229 269 328 407
#     4  12  23  37  56  91 130 182 223 268 326 399
#     4  10  24  46  76 100 134 172 228 296 356 394
#     4  11  22  42  65  96 138 177 222 272 332 402
#     4  11  23  41  60  92 133 180 222 277 335 398
#     4  10  23  48  70 100 135 172 224 284 346 406
#     4  12  23  35  60  89 132 181 223 263 329 396
#
# _framework density 20.910346000000001
#
# number of rings (size 3 to 8) (size 9 to 14) (size 15 to 20)
#    0.000    1.067    4.000    2.400    5.600    2.133 
#    0.000    4.000    0.000    0.000    0.000    0.000 
#    0.000    0.000    0.000    0.000    0.000    0.000 
#
# Total GULP energy -167306.492618 kJ/mol
# GULP energy per Si atom -5576.883087 kJ/mol
# Density = 2.086275 g / cm^3
# Si number density = 20.910346 Si / 1000 Ang^3
#
#
#
# Elastic Constant Matrix: (Units=GPa)
#
#
# Indices 1 2 3 4 5 6 
#
# 1 111.0854 14.1738 52.7438 0.0000 0.0000 0.0000
# 2 14.1738 62.1153 49.6508 0.0000 0.0000 0.0000
# 3 52.7438 49.6508 107.7544 0.0000 0.0000 0.0000
# 4 0.0000 0.0000 0.0000 52.4364 0.0000 0.0000
# 5 0.0000 0.0000 0.0000 0.0000 37.7023 0.0000
# 6 0.0000 0.0000 0.0000 0.0000 0.0000 30.1098
#
#
#
# Elastic Compliance Matrix: (Units=1/GPa)
#
#
# Indices 1 2 3 4 5 6 
#
# 1 0.012099 0.003123 -0.007361 0.000000 0.000000 0.000000
# 2 0.003123 0.026292 -0.013644 0.000000 0.000000 0.000000
# 3 -0.007361 -0.013644 0.019170 0.000000 0.000000 0.000000
# 4 0.000000 0.000000 0.000000 0.019071 0.000000 0.000000
# 5 0.000000 0.000000 0.000000 0.000000 0.026524 0.000000
# 6 0.000000 0.000000 0.000000 0.000000 0.000000 0.033212
#
#
# Mechanical properties :
#
#
# Convention : Reuss Voigt Hill
#
# Bulk Modulus (GPa) = 45.87570 57.12131 51.49850
# Shear Modulus (GPa) = 27.87121 35.00883 31.44002
#
# Velocity S-wave (km/s) = 3.65484 4.09618 3.88179
# Velocity P-wave (km/s) = 6.30851 7.05324 6.69124
#
# Compressibility (1/GPa) = 0.02179803
#
# Stress axis : x y z
#
# Youngs Moduli (GPa) = 82.65331 38.03400 52.16408
#
# Poissons Ratio (x) = -0.11879 0.38399
# Poissons Ratio (y) = -0.25816 0.71171
# Poissons Ratio (z) = 0.60843 0.51892
#
# Static dielectric constant tensor:
#      x y z
#    x 1.747300 0.000000 0.000000 
#    y 0.000000 1.774190 0.000000 
#    z 0.000000 0.000000 1.836160 
# 
# From -- ./inp_files/6574.got.cif
#   From: 2010.05.17/outbox.cif.g08.bks.cpg/sg41_4_cif.got.tgz:6574.got - 2010.06.03 18:54:24.
