data_PCOD9367075
_publ_section_title
;
Structure prediction by ZEFSAII (Michael W. Deem and Ramdas Pophale) SiO2 
 PCOD9367075
Probable space group: A B A 2
;
_chemical_formula_sum "Si O2"
_cell_formula_units_Z 52
_cell_length_a 5.571582
_cell_length_b 25.843430
_cell_length_c 16.634890
_cell_angle_alpha 90.000000
_cell_angle_beta 90.000000
_cell_angle_gamma 90.000000
_cell_volume 2395.237673
_symmetry_space_group_name_H-M "A B A 2"
_symmetry_group_IT_number 41
_symmetry_cell_setting 'orthorhombic'
loop_
_space_group_symop_operation_xyz
x,y,z
-x,-y,z
1/2-x,y,1/2+z
1/2+x,-y,1/2+z
x,1/2+y,1/2+z
-x,1/2-y,1/2+z
1/2-x,1/2+y,z
1/2+x,1/2-y,z
loop_
_atom_site_type_symbol
_atom_site_label
_atom_site_fract_x
_atom_site_fract_y
_atom_site_fract_z
Si Si1 0.849073 0.135918 0.196070
Si Si2 0.000000 0.000000 0.705541
Si Si3 0.000000 0.500000 0.605210
Si Si4 0.135727 0.923096 0.834686
Si Si5 0.864213 0.751465 0.734127
Si Si6 0.000000 0.500000 0.918892
Si Si7 0.847182 0.356727 0.131431
Si Si8 0.336386 0.585549 0.989884
O O1 0.784880 0.120202 0.287089
O O2 0.864626 0.197697 0.186214
O O3 0.614466 0.120548 0.144140
O O4 0.116877 0.117393 0.176111
O O5 0.016236 0.048821 0.765592
O O6 0.250775 0.998411 0.655942
O O7 0.997550 0.550097 0.547152
O O8 0.693113 0.031368 0.866949
O O9 0.976461 0.902482 0.907860
O O10 0.614153 0.750036 0.781273
O O11 0.863449 0.800149 0.673282
O O12 0.127399 0.544695 0.969522
O O13 0.768534 0.366107 0.039389
#
# Coordination Sequence:
#
# PCOD9367075 Si02
#       8
#     8   4   4   8   8   4   8   8
#     4  10  22  40  67  98 122 167 220 272 324 387
#     4  12  24  40  61  87 122 168 228 264 308 374
#     4  12  24  40  61  87 122 168 228 264 308 374
#     4  12  25  41  61  91 134 182 212 271 328 391
#     4   8  16  36  64  92 122 152 204 276 324 372
#     4  12  24  44  60  84 144 182 222 258 326 396
#     4  10  22  40  67  98 122 167 220 272 324 387
#     4  12  25  41  61  91 134 182 212 271 328 391
#
# _framework density 21.709745999999999
#
# number of rings (size 3 to 8) (size 9 to 14) (size 15 to 20)
#    0.000    1.231    3.077    2.769    4.308    0.000 
#    0.000    0.000    0.000   16.615    0.000    0.000 
#    0.000    0.000    0.000    0.000    0.000    0.000 
#
# Total GULP energy -144883.486827 kJ/mol
# GULP energy per Si atom -5572.441801 kJ/mol
# Density = 2.166033 g / cm^3
# Si number density = 21.709746 Si / 1000 Ang^3
#
#
#
# Elastic Constant Matrix: (Units=GPa)
#
#
# Indices 1 2 3 4 5 6 
#
# 1 185.3655 5.7998 35.7944 0.0000 0.0000 0.0000
# 2 5.7998 63.7473 17.3731 0.0000 0.0000 0.0000
# 3 35.7944 17.3731 80.3325 0.0000 0.0000 0.0000
# 4 0.0000 0.0000 0.0000 6.9827 0.0000 0.0000
# 5 0.0000 0.0000 0.0000 0.0000 31.5290 0.0000
# 6 0.0000 0.0000 0.0000 0.0000 0.0000 28.5228
#
#
#
# Elastic Compliance Matrix: (Units=1/GPa)
#
#
# Indices 1 2 3 4 5 6 
#
# 1 0.005905 0.000191 -0.002672 0.000000 0.000000 0.000000
# 2 0.000191 0.016676 -0.003691 0.000000 0.000000 0.000000
# 3 -0.002672 -0.003691 0.014437 0.000000 0.000000 0.000000
# 4 0.000000 0.000000 0.000000 0.143210 0.000000 0.000000
# 5 0.000000 0.000000 0.000000 0.000000 0.031717 0.000000
# 6 0.000000 0.000000 0.000000 0.000000 0.000000 0.035060
#
#
# Mechanical properties :
#
#
# Convention : Reuss Voigt Hill
#
# Bulk Modulus (GPa) = 40.53146 49.70888 45.12017
# Shear Modulus (GPa) = 18.68640 31.43878 25.06259
#
# Velocity S-wave (km/s) = 2.93702 3.80957 3.40139
# Velocity P-wave (km/s) = 5.49651 6.50363 6.02117
#
# Compressibility (1/GPa) = 0.02467219
#
# Stress axis : x y z
#
# Youngs Moduli (GPa) = 169.35347 59.96787 69.26473
#
# Poissons Ratio (x) = -0.01146 0.18510
# Poissons Ratio (y) = -0.03236 0.25569
# Poissons Ratio (z) = 0.45258 0.22137
#
# Static dielectric constant tensor:
#      x y z
#    x 1.924000 0.000000 0.000000 
#    y 0.000000 1.837170 0.000000 
#    z 0.000000 0.000000 1.803760 
# 
# From -- ./inp_files/9488.got.cif
#   From: 2010.05.17/outbox.cif.g08.bks.cpg/sg41_5_cif.got.tgz:9488.got - 2010.06.03 18:54:24.
