data_PCOD9367618
_publ_section_title
;
Structure prediction by ZEFSAII (Michael W. Deem and Ramdas Pophale) SiO2 
 PCOD9367618
Probable space group: A B A 2
;
_chemical_formula_sum "Si O2"
_cell_formula_units_Z 32
_cell_length_a 9.720992
_cell_length_b 9.081127
_cell_length_c 13.466532
_cell_angle_alpha 90.000000
_cell_angle_beta 90.000000
_cell_angle_gamma 90.000000
_cell_volume 1188.792626
_symmetry_space_group_name_H-M "A B A 2"
_symmetry_group_IT_number 41
_symmetry_cell_setting 'orthorhombic'
loop_
_space_group_symop_operation_xyz
x,y,z
-x,-y,z
1/2-x,y,1/2+z
1/2+x,-y,1/2+z
x,1/2+y,1/2+z
-x,1/2-y,1/2+z
1/2-x,1/2+y,z
1/2+x,1/2-y,z
loop_
_atom_site_type_symbol
_atom_site_label
_atom_site_fract_x
_atom_site_fract_y
_atom_site_fract_z
Si Si1 0.798591 0.075539 0.485980
Si Si2 0.500000 0.000000 0.544162
Si Si3 0.826711 0.751709 0.799387
Si Si4 0.063763 0.792244 0.672628
Si Si5 0.500000 0.000000 0.846123
O O1 0.828069 0.220797 0.417526
O O2 0.858686 0.100786 0.594821
O O3 0.638638 0.039728 0.484454
O O4 0.885818 0.949938 0.427817
O O5 0.530196 0.850198 0.605045
O O6 0.676978 0.754651 0.754226
O O7 0.931847 0.850647 0.735928
O O8 0.903519 0.596242 0.777125
#
# Coordination Sequence:
#
# PCOD9367618 Si02
#       5
#     8   4   8   8   4
#     4  10  26  46  76 108 149 197 243 312 372 444
#     4  12  27  48  73 112 150 194 253 304 375 446
#     4  10  25  45  74 104 151 194 248 304 370 444
#     4  12  25  47  75 109 150 197 250 307 371 446
#     4   8  23  50  71 110 146 194 249 304 373 438
#
# _framework density 26.918067000000001
#
# number of rings (size 3 to 8) (size 9 to 14) (size 15 to 20)
#    1.500    0.000    2.500    0.750    7.000    2.000 
#    0.000    1.250    0.000    0.000    0.000    0.000 
#    0.000    0.000    0.000    0.000    0.000    0.000 
#
# Total GULP energy -89127.135028 kJ/mol
# GULP energy per Si atom -5570.445939 kJ/mol
# Density = 2.685680 g / cm^3
# Si number density = 26.918067 Si / 1000 Ang^3
#
#
#
# Elastic Constant Matrix: (Units=GPa)
#
#
# Indices 1 2 3 4 5 6 
#
# 1 196.9092 8.3803 70.0530 0.0000 0.0000 0.0000
# 2 8.3803 64.3490 18.2515 0.0000 0.0000 0.0000
# 3 70.0530 18.2515 162.6400 0.0000 0.0000 0.0000
# 4 0.0000 0.0000 0.0000 12.0904 0.0000 0.0000
# 5 0.0000 0.0000 0.0000 0.0000 46.9795 0.0000
# 6 0.0000 0.0000 0.0000 0.0000 0.0000 44.7560
#
#
#
# Elastic Compliance Matrix: (Units=1/GPa)
#
#
# Indices 1 2 3 4 5 6 
#
# 1 0.005998 -0.000050 -0.002578 0.000000 0.000000 0.000000
# 2 -0.000050 0.016052 -0.001780 0.000000 0.000000 0.000000
# 3 -0.002578 -0.001780 0.007459 0.000000 0.000000 0.000000
# 4 0.000000 0.000000 0.000000 0.082711 0.000000 0.000000
# 5 0.000000 0.000000 0.000000 0.000000 0.021286 0.000000
# 6 0.000000 0.000000 0.000000 0.000000 0.000000 0.022343
#
#
# Mechanical properties :
#
#
# Convention : Reuss Voigt Hill
#
# Bulk Modulus (GPa) = 48.32589 68.58532 58.45561
# Shear Modulus (GPa) = 29.14430 42.57941 35.86185
#
# Velocity S-wave (km/s) = 3.29402 3.98152 3.65397
# Velocity P-wave (km/s) = 5.69731 6.83164 6.29009
#
# Compressibility (1/GPa) = 0.02069284
#
# Stress axis : x y z
#
# Youngs Moduli (GPa) = 166.73140 62.29917 134.07399
#
# Poissons Ratio (x) = 0.00311 0.34561
# Poissons Ratio (y) = 0.00833 0.23862
# Poissons Ratio (z) = 0.42979 0.11088
#
# Static dielectric constant tensor:
#      x y z
#    x 2.159440 0.000000 0.000000 
#    y 0.000000 2.466570 0.000000 
#    z 0.000000 0.000000 2.180480 
# 
# From -- ./inp_files/7085.got.cif
#   From: 2010.05.17/outbox.cif.g08.bks.cpg/sg41_4_cif.got.tgz:7085.got - 2010.06.03 18:54:24.
