data_PCOD9367638
_publ_section_title
;
Structure prediction by ZEFSAII (Michael W. Deem and Ramdas Pophale) SiO2 
 PCOD9367638
Probable space group: A B A 2
;
_chemical_formula_sum "Si O2"
_cell_formula_units_Z 24
_cell_length_a 9.268235
_cell_length_b 9.976795
_cell_length_c 9.626818
_cell_angle_alpha 90.000000
_cell_angle_beta 90.000000
_cell_angle_gamma 90.000000
_cell_volume 890.165681
_symmetry_space_group_name_H-M "A B A 2"
_symmetry_group_IT_number 41
_symmetry_cell_setting 'orthorhombic'
loop_
_space_group_symop_operation_xyz
x,y,z
-x,-y,z
1/2-x,y,1/2+z
1/2+x,-y,1/2+z
x,1/2+y,1/2+z
-x,1/2-y,1/2+z
1/2-x,1/2+y,z
1/2+x,1/2-y,z
loop_
_atom_site_type_symbol
_atom_site_label
_atom_site_fract_x
_atom_site_fract_y
_atom_site_fract_z
Si Si1 0.615409 0.187915 0.936680
Si Si2 0.920077 0.867506 0.169335
Si Si3 0.165905 0.528509 0.322065
O O1 0.493285 0.152925 0.822888
O O2 0.669229 0.337557 0.911222
O O3 0.745797 0.088699 0.899735
O O4 0.565403 0.222607 0.093597
O O5 0.759129 0.922565 0.191083
O O6 0.000000 0.000000 0.108112
O O7 0.000000 0.500000 0.294460
#
# Coordination Sequence:
#
# PCOD9367638 Si02
#       3
#     8   8   8
#     4  11  25  49  78 111 153 201 256 314 381 456
#     4  10  25  50  79 114 152 200 258 317 382 454
#     4  11  25  45  73 113 155 197 250 315 383 454
#
# _framework density 26.961274
#
# number of rings (size 3 to 8) (size 9 to 14) (size 15 to 20)
#    0.000    1.333    0.000    3.000    0.000   13.333 
#    0.000   21.667    0.000    0.000    0.000    2.333 
#    0.000    0.000    0.000    0.000    0.000    0.000 
#
# Total GULP energy -67093.643563 kJ/mol
# GULP energy per Si atom -5591.136964 kJ/mol
# Density = 2.689991 g / cm^3
# Si number density = 26.961274 Si / 1000 Ang^3
#
#
#
# Elastic Constant Matrix: (Units=GPa)
#
#
# Indices 1 2 3 4 5 6 
#
# 1 211.0020 80.6201 81.6131 0.0000 0.0000 0.0000
# 2 80.6201 203.9303 66.3317 0.0000 0.0000 0.0000
# 3 81.6131 66.3317 132.6906 0.0000 0.0000 0.0000
# 4 0.0000 0.0000 0.0000 88.3574 0.0000 0.0000
# 5 0.0000 0.0000 0.0000 0.0000 23.1660 0.0000
# 6 0.0000 0.0000 0.0000 0.0000 0.0000 54.2248
#
#
#
# Elastic Compliance Matrix: (Units=1/GPa)
#
#
# Indices 1 2 3 4 5 6 
#
# 1 0.006600 -0.001539 -0.003290 0.000000 0.000000 0.000000
# 2 -0.001539 0.006215 -0.002160 0.000000 0.000000 0.000000
# 3 -0.003290 -0.002160 0.010640 0.000000 0.000000 0.000000
# 4 0.000000 0.000000 0.000000 0.011318 0.000000 0.000000
# 5 0.000000 0.000000 0.000000 0.000000 0.043167 0.000000
# 6 0.000000 0.000000 0.000000 0.000000 0.000000 0.018442
#
#
# Mechanical properties :
#
#
# Convention : Reuss Voigt Hill
#
# Bulk Modulus (GPa) = 105.52940 111.63917 108.58428
# Shear Modulus (GPa) = 44.04622 54.42018 49.23320
#
# Velocity S-wave (km/s) = 4.04627 4.49760 4.27789
# Velocity P-wave (km/s) = 7.81382 8.27456 8.04749
#
# Compressibility (1/GPa) = 0.00947603
#
# Stress axis : x y z
#
# Youngs Moduli (GPa) = 151.51883 160.90971 93.98761
#
# Poissons Ratio (x) = 0.24764 0.30922
# Poissons Ratio (y) = 0.23319 0.20302
# Poissons Ratio (z) = 0.49849 0.34758
#
# Static dielectric constant tensor:
#      x y z
#    x 2.177010 0.000000 0.000000 
#    y 0.000000 2.042360 0.000000 
#    z 0.000000 0.000000 3.060030 
# 
# From -- ./inp_files/4227.got.cif
#   From: 2010.05.17/outbox.cif.g08.bks.cpg/sg41_3_cif.got.tgz:4227.got - 2010.06.03 18:54:24.
