data_PCOD9367719
_publ_section_title
;
Structure prediction by ZEFSAII (Michael W. Deem and Ramdas Pophale) SiO2 
 PCOD9367719
Probable space group: A B A 2
;
_chemical_formula_sum "Si O2"
_cell_formula_units_Z 40
_cell_length_a 11.091440
_cell_length_b 16.777802
_cell_length_c 9.156885
_cell_angle_alpha 90.000000
_cell_angle_beta 90.000000
_cell_angle_gamma 90.000000
_cell_volume 1704.004585
_symmetry_space_group_name_H-M "A B A 2"
_symmetry_group_IT_number 41
_symmetry_cell_setting 'orthorhombic'
loop_
_space_group_symop_operation_xyz
x,y,z
-x,-y,z
1/2-x,y,1/2+z
1/2+x,-y,1/2+z
x,1/2+y,1/2+z
-x,1/2-y,1/2+z
1/2-x,1/2+y,z
1/2+x,1/2-y,z
loop_
_atom_site_type_symbol
_atom_site_label
_atom_site_fract_x
_atom_site_fract_y
_atom_site_fract_z
Si Si1 0.340798 0.699944 0.303720
Si Si2 0.475206 0.842477 0.409212
Si Si3 0.735386 0.574231 0.438836
Si Si4 0.169215 0.332119 0.687859
Si Si5 0.218732 0.602929 0.523569
O O1 0.228495 0.758902 0.270479
O O2 0.451613 0.762109 0.318140
O O3 0.321533 0.660726 0.461549
O O4 0.326199 0.631170 0.182303
O O5 0.370047 0.906625 0.375152
O O6 0.439965 0.820307 0.576932
O O7 0.605112 0.881525 0.415623
O O8 0.729123 0.636134 0.572747
O O9 0.646734 0.599087 0.308562
O O10 0.736412 0.486686 0.504560
#
# Coordination Sequence:
#
# PCOD9367719 Si02
#       5
#     8   8   8   8   8
#     4  11  22  37  59  88 118 156 195 252 293 359
#     4   9  22  36  59  82 120 158 191 239 308 357
#     4   9  19  36  59  83 112 155 190 240 290 354
#     4   9  18  39  54  80 116 154 189 227 310 344
#     4  12  22  37  61  90 117 150 211 247 297 348
#
# _framework density 23.474115000000001
#
# number of rings (size 3 to 8) (size 9 to 14) (size 15 to 20)
#    1.200    0.800    2.000    1.800    2.800    0.000 
#    0.000    0.000    0.000    0.000   10.400    0.000 
#    0.000    0.000    0.000    0.000    0.000    0.000 
#
# Total GULP energy -111427.380821 kJ/mol
# GULP energy per Si atom -5571.369041 kJ/mol
# Density = 2.342069 g / cm^3
# Si number density = 23.474115 Si / 1000 Ang^3
#
#
#
# Elastic Constant Matrix: (Units=GPa)
#
#
# Indices 1 2 3 4 5 6 
#
# 1 24.1599 -7.3555 -12.5604 0.0000 0.0000 0.0000
# 2 -7.3555 97.9703 28.3055 0.0000 0.0000 0.0000
# 3 -12.5604 28.3055 103.6572 0.0000 0.0000 0.0000
# 4 0.0000 0.0000 0.0000 45.6065 0.0000 0.0000
# 5 0.0000 0.0000 0.0000 0.0000 21.0458 0.0000
# 6 0.0000 0.0000 0.0000 0.0000 0.0000 11.1443
#
#
#
# Elastic Compliance Matrix: (Units=1/GPa)
#
#
# Indices 1 2 3 4 5 6 
#
# 1 0.044509 0.001936 0.004865 0.000000 0.000000 0.000000
# 2 0.001936 0.011166 -0.002814 0.000000 0.000000 0.000000
# 3 0.004865 -0.002814 0.011005 0.000000 0.000000 0.000000
# 4 0.000000 0.000000 0.000000 0.021927 0.000000 0.000000
# 5 0.000000 0.000000 0.000000 0.000000 0.047515 0.000000
# 6 0.000000 0.000000 0.000000 0.000000 0.000000 0.089732
#
#
# Mechanical properties :
#
#
# Convention : Reuss Voigt Hill
#
# Bulk Modulus (GPa) = 13.39525 26.95183 20.17354
# Shear Modulus (GPa) = 20.59596 30.05249 25.32423
#
# Velocity S-wave (km/s) = 2.96529 3.58193 3.28810
# Velocity P-wave (km/s) = 4.17645 5.34915 4.79875
#
# Compressibility (1/GPa) = 0.07465330
#
# Stress axis : x y z
#
# Youngs Moduli (GPa) = 22.46712 89.56017 90.86645
#
# Poissons Ratio (x) = -0.17341 -0.44203
# Poissons Ratio (y) = -0.04350 0.25573
# Poissons Ratio (z) = -0.10929 0.25206
#
# Static dielectric constant tensor:
#      x y z
#    x 1.945350 0.000000 0.000000 
#    y 0.000000 1.880130 0.000000 
#    z 0.000000 0.000000 1.959870 
# 
# From -- ./inp_files/1984.got.cif
#   From: 2010.05.17/outbox.cif.g08.bks.cpg/sg41_1_cif.got.tgz:1984.got - 2010.06.03 18:54:24.
