data_PCOD9367411
_publ_section_title
;
Structure prediction by ZEFSAII (Michael W. Deem and Ramdas Pophale) SiO2 
 PCOD9367411
Probable space group: A B A 2
;
_chemical_formula_sum "Si O2"
_cell_formula_units_Z 60
_cell_length_a 13.660974
_cell_length_b 8.942608
_cell_length_c 24.985580
_cell_angle_alpha 90.000000
_cell_angle_beta 90.000000
_cell_angle_gamma 90.000000
_cell_volume 3052.356769
_symmetry_space_group_name_H-M "A B A 2"
_symmetry_group_IT_number 41
_symmetry_cell_setting 'orthorhombic'
loop_
_space_group_symop_operation_xyz
x,y,z
-x,-y,z
1/2-x,y,1/2+z
1/2+x,-y,1/2+z
x,1/2+y,1/2+z
-x,1/2-y,1/2+z
1/2-x,1/2+y,z
1/2+x,1/2-y,z
loop_
_atom_site_type_symbol
_atom_site_label
_atom_site_fract_x
_atom_site_fract_y
_atom_site_fract_z
Si Si1 0.000000 0.500000 0.762311
Si Si2 0.383528 0.021019 0.587486
Si Si3 0.724863 0.521873 0.720830
Si Si4 0.927283 0.257927 0.677676
Si Si5 0.318267 0.982055 0.830329
Si Si6 0.730539 0.266464 0.406650
Si Si7 0.119459 0.002234 0.962565
Si Si8 0.649008 0.739813 0.160614
O O1 0.951233 0.377564 0.723836
O O2 0.918006 0.562253 0.801861
O O3 0.373308 0.164864 0.626660
O O4 0.362166 0.036706 0.525278
O O5 0.500000 0.000000 0.592730
O O6 0.335066 0.865990 0.608721
O O7 0.635672 0.631120 0.706139
O O8 0.740985 0.478754 0.782526
O O9 0.820587 0.616467 0.704540
O O10 0.707024 0.382560 0.681945
O O11 0.035906 0.210989 0.659272
O O12 0.333001 0.119936 0.870738
O O13 0.277758 0.847418 0.864876
O O14 0.816887 0.369264 0.432365
O O15 0.666475 0.159144 0.445783
O O16 0.000000 0.000000 0.953398
#
# Coordination Sequence:
#
# PCOD9367411 Si02
#       8
#     4   8   8   8   8   8   8   8
#     4  12  20  36  64  84 128 170 192 248 340 368
#     4   9  19  40  66  91 127 167 210 263 332 379
#     4  12  23  37  59  87 130 168 209 252 311 388
#     4  11  21  38  60  92 127 166 206 255 310 399
#     4  11  23  39  61  89 128 165 215 266 316 380
#     4  10  24  44  62  96 125 159 236 275 309 396
#     4  10  23  45  70  92 128 171 215 287 339 372
#     4  11  21  37  55  90 124 163 207 251 304 393
#
# _framework density 19.656942999999998
#
# number of rings (size 3 to 8) (size 9 to 14) (size 15 to 20)
#    0.000    1.333    3.333    3.600    1.867    2.133 
#    0.000    1.333    0.000    6.400    0.000    0.000 
#    0.000    0.000    0.000    0.000    0.000    0.000 
#
# Total GULP energy -167032.841590 kJ/mol
# GULP energy per Si atom -5567.761386 kJ/mol
# Density = 1.961220 g / cm^3
# Si number density = 19.656943 Si / 1000 Ang^3
#
#
#
# Elastic Constant Matrix: (Units=GPa)
#
#
# Indices 1 2 3 4 5 6 
#
# 1 84.2584 40.7593 44.3777 0.0000 0.0000 0.0000
# 2 40.7593 94.6842 26.9108 0.0000 0.0000 0.0000
# 3 44.3777 26.9108 95.1526 0.0000 0.0000 0.0000
# 4 0.0000 0.0000 0.0000 17.1854 0.0000 0.0000
# 5 0.0000 0.0000 0.0000 0.0000 31.9457 0.0000
# 6 0.0000 0.0000 0.0000 0.0000 0.0000 34.7083
#
#
#
# Elastic Compliance Matrix: (Units=1/GPa)
#
#
# Indices 1 2 3 4 5 6 
#
# 1 0.018375 -0.005953 -0.006886 0.000000 0.000000 0.000000
# 2 -0.005953 0.013413 -0.001017 0.000000 0.000000 0.000000
# 3 -0.006886 -0.001017 0.014009 0.000000 0.000000 0.000000
# 4 0.000000 0.000000 0.000000 0.058189 0.000000 0.000000
# 5 0.000000 0.000000 0.000000 0.000000 0.031303 0.000000
# 6 0.000000 0.000000 0.000000 0.000000 0.000000 0.028812
#
#
# Mechanical properties :
#
#
# Convention : Reuss Voigt Hill
#
# Bulk Modulus (GPa) = 55.29648 55.35455 55.32551
# Shear Modulus (GPa) = 25.27295 27.57105 26.42200
#
# Velocity S-wave (km/s) = 3.58956 3.74921 3.67025
# Velocity P-wave (km/s) = 6.73585 6.85299 6.79468
#
# Compressibility (1/GPa) = 0.01808433
#
# Stress axis : x y z
#
# Youngs Moduli (GPa) = 54.42282 74.55442 71.38422
#
# Poissons Ratio (x) = 0.44380 0.49156
# Poissons Ratio (y) = 0.32396 0.07261
# Poissons Ratio (z) = 0.37476 0.07584
#
# Static dielectric constant tensor:
#      x y z
#    x 1.770160 0.000000 0.000000 
#    y 0.000000 1.753940 0.000000 
#    z 0.000000 0.000000 1.716840 
# 
# From -- ./inp_files/12203.got.cif
#   From: 2010.05.17/outbox.cif.g08.bks.cpg/sg41_7_cif.got.tgz:12203.got - 2010.06.03 18:54:24.
