data_PCOD9367995
_publ_section_title
;
Structure prediction by ZEFSAII (Michael W. Deem and Ramdas Pophale) SiO2 
 PCOD9367995
Probable space group: A B A 2
;
_chemical_formula_sum "Si O2"
_cell_formula_units_Z 36
_cell_length_a 24.722318
_cell_length_b 7.469304
_cell_length_c 7.423669
_cell_angle_alpha 90.000000
_cell_angle_beta 90.000000
_cell_angle_gamma 90.000000
_cell_volume 1370.843647
_symmetry_space_group_name_H-M "A B A 2"
_symmetry_group_IT_number 41
_symmetry_cell_setting 'orthorhombic'
loop_
_space_group_symop_operation_xyz
x,y,z
-x,-y,z
1/2-x,y,1/2+z
1/2+x,-y,1/2+z
x,1/2+y,1/2+z
-x,1/2-y,1/2+z
1/2-x,1/2+y,z
1/2+x,1/2-y,z
loop_
_atom_site_type_symbol
_atom_site_label
_atom_site_fract_x
_atom_site_fract_y
_atom_site_fract_z
Si Si1 0.810247 0.526355 0.174410
Si Si2 0.573876 0.471513 0.818847
Si Si3 0.500000 0.000000 0.011956
Si Si4 0.809587 0.421561 0.776717
Si Si5 0.574917 0.064754 0.720722
O O1 0.861663 0.484667 0.296765
O O2 0.815365 0.409623 0.993318
O O3 0.750526 0.495849 0.250803
O O4 0.954911 0.436317 0.864929
O O5 0.543122 0.576911 0.658988
O O6 0.560256 0.264065 0.782945
O O7 0.685877 0.741618 0.659093
O O8 0.441805 0.469462 0.017017
O O9 0.860619 0.542276 0.727454
#
# Coordination Sequence:
#
# PCOD9367995 Si02
#       5
#     8   8   4   8   8
#     4  12  24  45  74 111 154 197 255 324 397 478
#     4  12  28  49  78 112 155 204 263 326 398 475
#     4  12  30  48  78 106 160 196 276 306 404 470
#     4  12  24  45  74 111 154 197 255 324 397 478
#     4  12  28  49  78 112 155 204 263 326 398 475
#
# _framework density 26.261202999999998
#
# number of rings (size 3 to 8) (size 9 to 14) (size 15 to 20)
#    0.000    0.000    2.222    7.333    6.222    0.000 
#    0.000    0.000    0.000    0.000    0.000    0.000 
#    0.000    0.000    0.000    0.000    0.000    0.000 
#
# Total GULP energy -100675.519391 kJ/mol
# GULP energy per Si atom -5593.084411 kJ/mol
# Density = 2.620143 g / cm^3
# Si number density = 26.261203 Si / 1000 Ang^3
#
#
#
# Elastic Constant Matrix: (Units=GPa)
#
#
# Indices 1 2 3 4 5 6 
#
# 1 192.1276 24.2001 47.5357 0.0000 0.0000 0.0000
# 2 24.2001 98.7654 8.0478 0.0000 0.0000 0.0000
# 3 47.5357 8.0478 212.8920 0.0000 0.0000 0.0000
# 4 0.0000 0.0000 0.0000 19.0363 0.0000 0.0000
# 5 0.0000 0.0000 0.0000 0.0000 40.5312 0.0000
# 6 0.0000 0.0000 0.0000 0.0000 0.0000 18.8554
#
#
#
# Elastic Compliance Matrix: (Units=1/GPa)
#
#
# Indices 1 2 3 4 5 6 
#
# 1 0.005668 -0.001290 -0.001217 0.000000 0.000000 0.000000
# 2 -0.001290 0.010450 -0.000107 0.000000 0.000000 0.000000
# 3 -0.001217 -0.000107 0.004973 0.000000 0.000000 0.000000
# 4 0.000000 0.000000 0.000000 0.052531 0.000000 0.000000
# 5 0.000000 0.000000 0.000000 0.000000 0.024672 0.000000
# 6 0.000000 0.000000 0.000000 0.000000 0.000000 0.053035
#
#
# Mechanical properties :
#
#
# Convention : Reuss Voigt Hill
#
# Bulk Modulus (GPa) = 63.03689 73.70579 68.37134
# Shear Modulus (GPa) = 30.89368 43.95134 37.42251
#
# Velocity S-wave (km/s) = 3.43359 4.09543 3.77903
# Velocity P-wave (km/s) = 6.30677 7.10568 6.71811
#
# Compressibility (1/GPa) = 0.01586373
#
# Stress axis : x y z
#
# Youngs Moduli (GPa) = 176.41614 95.69607 201.08655
#
# Poissons Ratio (x) = 0.12342 0.24471
# Poissons Ratio (y) = 0.22753 0.02152
# Poissons Ratio (z) = 0.21468 0.01024
#
# Static dielectric constant tensor:
#      x y z
#    x 2.022610 0.000000 0.000000 
#    y 0.000000 2.541840 0.000000 
#    z 0.000000 0.000000 2.058500 
# 
# From -- ./inp_files/3315.got.cif
#   From: 2010.05.17/outbox.cif.g08.bks.cpg/sg41_2_cif.got.tgz:3315.got - 2010.06.03 18:54:24.
