data_PCOD9367048
_publ_section_title
;
Structure prediction by ZEFSAII (Michael W. Deem and Ramdas Pophale) SiO2 
 PCOD9367048
Probable space group: A B A 2
;
_chemical_formula_sum "Si O2"
_cell_formula_units_Z 56
_cell_length_a 13.323150
_cell_length_b 13.049303
_cell_length_c 10.601231
_cell_angle_alpha 90.000000
_cell_angle_beta 90.000000
_cell_angle_gamma 90.000000
_cell_volume 1843.106924
_symmetry_space_group_name_H-M "A B A 2"
_symmetry_group_IT_number 41
_symmetry_cell_setting 'orthorhombic'
loop_
_space_group_symop_operation_xyz
x,y,z
-x,-y,z
1/2-x,y,1/2+z
1/2+x,-y,1/2+z
x,1/2+y,1/2+z
-x,1/2-y,1/2+z
1/2-x,1/2+y,z
1/2+x,1/2-y,z
loop_
_atom_site_type_symbol
_atom_site_label
_atom_site_fract_x
_atom_site_fract_y
_atom_site_fract_z
Si Si1 0.184020 0.472394 0.479840
Si Si2 0.813300 0.780679 0.263155
Si Si3 0.440191 0.218112 0.967349
Si Si4 0.500000 0.000000 0.887649
Si Si5 0.440191 0.718112 0.764441
Si Si6 0.500000 0.000000 0.344142
Si Si7 0.186700 0.219321 0.968634
Si Si8 0.684020 0.527606 0.251951
O O1 0.182938 0.594746 0.477943
O O2 0.250000 0.433445 0.365895
O O3 0.216908 0.440787 0.615895
O O4 0.073626 0.440932 0.439522
O O5 0.937034 0.753145 0.298651
O O6 0.812951 0.765686 0.435605
O O7 0.817062 0.905254 0.253847
O O8 0.815259 0.744390 0.115895
O O9 0.449310 0.090804 0.965510
O O10 0.562965 0.253146 0.933138
O O11 0.438407 0.249115 0.115895
O O12 0.426374 0.940932 0.792269
O O13 0.449310 0.590804 0.766280
O O14 0.312951 0.734314 0.796185
#
# Coordination Sequence:
#
# PCOD9367048 Si02
#       8
#     8   8   8   4   8   4   8   8
#     4   9  18  32  55  86 119 155 199 246 297 358
#     4   9  17  32  55  83 115 153 194 240 294 352
#     4  11  23  39  60  88 119 154 198 246 296 356
#     4  10  22  40  64  88 120 162 202 246 304 360
#     4  11  23  39  60  88 119 154 198 246 296 356
#     4  10  22  40  64  88 120 162 202 246 304 360
#     4   9  17  32  55  83 115 153 194 240 294 352
#     4   9  18  32  55  86 119 155 199 246 297 358
#
# _framework density 30.383478
#
# number of rings (size 3 to 8) (size 9 to 14) (size 15 to 20)
#    0.000    2.286    0.000    2.571    0.000   11.429 
#    0.000    1.429    0.000    3.429    0.000    0.000 
#    0.000    0.000    0.000    0.000    0.000    0.000 
#
# Total GULP energy -156639.328829 kJ/mol
# GULP energy per Si atom -5594.261744 kJ/mol
# Density = 3.031432 g / cm^3
# Si number density = 30.383478 Si / 1000 Ang^3
#
#
#
# Elastic Constant Matrix: (Units=GPa)
#
#
# Indices 1 2 3 4 5 6 
#
# 1 288.9386 58.3313 201.9979 0.0000 0.0000 0.0000
# 2 58.3313 181.7333 46.1549 0.0000 0.0000 0.0000
# 3 201.9979 46.1549 377.8228 0.0000 0.0000 0.0000
# 4 0.0000 0.0000 0.0000 37.4413 0.0000 0.0000
# 5 0.0000 0.0000 0.0000 0.0000 88.5887 0.0000
# 6 0.0000 0.0000 0.0000 0.0000 0.0000 61.3533
#
#
#
# Elastic Compliance Matrix: (Units=1/GPa)
#
#
# Indices 1 2 3 4 5 6 
#
# 1 0.005730 -0.001095 -0.002930 0.000000 0.000000 0.000000
# 2 -0.001095 0.005888 -0.000134 0.000000 0.000000 0.000000
# 3 -0.002930 -0.000134 0.004229 0.000000 0.000000 0.000000
# 4 0.000000 0.000000 0.000000 0.026708 0.000000 0.000000
# 5 0.000000 0.000000 0.000000 0.000000 0.011288 0.000000
# 6 0.000000 0.000000 0.000000 0.000000 0.000000 0.016299
#
#
# Mechanical properties :
#
#
# Convention : Reuss Voigt Hill
#
# Bulk Modulus (GPa) = 132.79715 162.38478 147.59097
# Shear Modulus (GPa) = 61.75040 73.61069 67.68054
#
# Velocity S-wave (km/s) = 4.51307 4.92745 4.72481
# Velocity P-wave (km/s) = 8.42371 9.27007 8.85701
#
# Compressibility (1/GPa) = 0.00753028
#
# Stress axis : x y z
#
# Youngs Moduli (GPa) = 174.51097 169.83517 236.43539
#
# Poissons Ratio (x) = 0.18600 0.69272
# Poissons Ratio (y) = 0.19112 0.03163
# Poissons Ratio (z) = 0.51129 0.02272
#
# Static dielectric constant tensor:
#      x y z
#    x 2.523280 0.000000 0.000000 
#    y 0.000000 2.179980 0.000000 
#    z 0.000000 0.000000 2.326480 
# 
# From -- ./inp_files/3209.got.cif
#   From: 2010.05.17/outbox.cif.g08.bks.cpg/sg41_2_cif.got.tgz:3209.got - 2010.06.03 18:54:24.
