data_PCOD9367190
_publ_section_title
;
Structure prediction by ZEFSAII (Michael W. Deem and Ramdas Pophale) SiO2 
 PCOD9367190
Probable space group: A B A 2
;
_chemical_formula_sum "Si O2"
_cell_formula_units_Z 32
_cell_length_a 13.094340
_cell_length_b 12.407172
_cell_length_c 8.196329
_cell_angle_alpha 90.000000
_cell_angle_beta 90.000000
_cell_angle_gamma 90.000000
_cell_volume 1331.606170
_symmetry_space_group_name_H-M "A B A 2"
_symmetry_group_IT_number 41
_symmetry_cell_setting 'orthorhombic'
loop_
_space_group_symop_operation_xyz
x,y,z
-x,-y,z
1/2-x,y,1/2+z
1/2+x,-y,1/2+z
x,1/2+y,1/2+z
-x,1/2-y,1/2+z
1/2-x,1/2+y,z
1/2+x,1/2-y,z
loop_
_atom_site_type_symbol
_atom_site_label
_atom_site_fract_x
_atom_site_fract_y
_atom_site_fract_z
Si Si1 0.672912 0.604616 0.939620
Si Si2 0.327089 0.104612 0.238222
Si Si3 0.616432 0.844701 0.869726
Si Si4 0.383568 0.844697 0.808115
O O1 0.638997 0.500002 0.838921
O O2 0.629670 0.715004 0.862390
O O3 0.796193 0.611312 0.927140
O O4 0.643183 0.613608 0.127593
O O5 0.203808 0.111307 0.250703
O O6 0.370333 0.215000 0.315449
O O7 0.356817 0.113604 0.050249
O O8 0.500000 0.872867 0.838921
#
# Coordination Sequence:
#
# PCOD9367190 Si02
#       4
#     8   8   8   8
#     4  10  22  43  69  99 139 180 230 288 344 410
#     4  10  22  43  69  99 139 180 230 288 344 410
#     4  10  23  42  67 102 141 180 228 287 345 408
#     4  10  23  42  67 102 141 180 228 287 345 408
#
# _framework density 24.031129
#
# number of rings (size 3 to 8) (size 9 to 14) (size 15 to 20)
#    0.000    2.000    0.000    1.500    0.000   18.000 
#    0.000   15.000    0.000    0.000    0.000    0.000 
#    0.000    0.000    0.000    0.000    0.000    0.000 
#
# Total GULP energy -89660.643435 kJ/mol
# GULP energy per Si atom -5603.790215 kJ/mol
# Density = 2.397643 g / cm^3
# Si number density = 24.031129 Si / 1000 Ang^3
#
#
#
# Elastic Constant Matrix: (Units=GPa)
#
#
# Indices 1 2 3 4 5 6 
#
# 1 195.0064 28.0881 74.7500 0.0000 0.0000 0.0000
# 2 28.0881 225.4017 65.0522 0.0000 0.0000 0.0000
# 3 74.7500 65.0522 105.9998 0.0000 0.0000 0.0000
# 4 0.0000 0.0000 0.0000 45.0168 0.0000 0.0000
# 5 0.0000 0.0000 0.0000 0.0000 5.6556 0.0000
# 6 0.0000 0.0000 0.0000 0.0000 0.0000 -1.1550
#
#
#
# Elastic Compliance Matrix: (Units=1/GPa)
#
#
# Indices 1 2 3 4 5 6 
#
# 1 0.007113 0.000682 -0.005435 0.000000 0.000000 0.000000
# 2 0.000682 0.005457 -0.003830 0.000000 0.000000 0.000000
# 3 -0.005435 -0.003830 0.015617 0.000000 0.000000 0.000000
# 4 0.000000 0.000000 0.000000 0.022214 0.000000 0.000000
# 5 0.000000 0.000000 0.000000 0.000000 0.176817 0.000000
# 6 0.000000 0.000000 0.000000 0.000000 0.000000 -0.865779
#
#
# Mechanical properties :
#
#
# Convention : Reuss Voigt Hill
#
# Bulk Modulus (GPa) = 90.72883 95.79872 93.26378
# Shear Modulus (GPa) = -8.09423 33.80464 12.85520
#
# Velocity S-wave (km/s) = -1.83726 3.75467 2.31539
# Velocity P-wave (km/s) = 5.77373 7.66471 6.78541
#
# Compressibility (1/GPa) = 0.01102185
#
# Stress axis : x y z
#
# Youngs Moduli (GPa) = 140.58789 183.25590 64.03360
#
# Poissons Ratio (x) = -0.12500 0.34800
# Poissons Ratio (y) = -0.09589 0.24524
# Poissons Ratio (z) = 0.76404 0.70185
#
# Static dielectric constant tensor:
#      x y z
#    x 1.870840 0.000000 0.000000 
#    y 0.000000 1.991950 0.000000 
#    z 0.000000 0.000000 1.863040 
# 
# From -- ./inp_files/1912.got.cif
#   From: 2010.05.17/outbox.cif.g08.bks.cpg/sg41_1_cif.got.tgz:1912.got - 2010.06.03 18:54:24.
