data_PCOD9367448
_publ_section_title
;
Structure prediction by ZEFSAII (Michael W. Deem and Ramdas Pophale) SiO2 
 PCOD9367448
Probable space group: A B A 2
;
_chemical_formula_sum "Si O2"
_cell_formula_units_Z 40
_cell_length_a 8.506154
_cell_length_b 13.129125
_cell_length_c 13.665583
_cell_angle_alpha 90.000000
_cell_angle_beta 90.000000
_cell_angle_gamma 90.000000
_cell_volume 1526.149886
_symmetry_space_group_name_H-M "A B A 2"
_symmetry_group_IT_number 41
_symmetry_cell_setting 'orthorhombic'
loop_
_space_group_symop_operation_xyz
x,y,z
-x,-y,z
1/2-x,y,1/2+z
1/2+x,-y,1/2+z
x,1/2+y,1/2+z
-x,1/2-y,1/2+z
1/2-x,1/2+y,z
1/2+x,1/2-y,z
loop_
_atom_site_type_symbol
_atom_site_label
_atom_site_fract_x
_atom_site_fract_y
_atom_site_fract_z
Si Si1 0.426841 0.387270 0.595960
Si Si2 0.257871 0.643080 0.697944
Si Si3 0.655930 0.059220 0.738901
Si Si4 0.658219 0.310786 0.987182
Si Si5 0.951103 0.286002 0.859352
O O1 0.500000 0.500000 0.571467
O O2 0.565688 0.337622 0.661860
O O3 0.262181 0.397478 0.652974
O O4 0.377472 0.308200 0.512327
O O5 0.259917 0.540351 0.763863
O O6 0.165358 0.637514 0.593228
O O7 0.165958 0.721654 0.766131
O O8 0.584983 0.136589 0.818159
O O9 0.500000 0.000000 0.704966
O O10 0.524898 0.318278 0.903154
O O11 0.827936 0.326662 0.940212
#
# Coordination Sequence:
#
# PCOD9367448 Si02
#       5
#     8   8   8   8   8
#     4  10  23  47  79 109 156 217 263 327 407 487
#     4  10  24  48  75 109 158 212 265 333 410 481
#     4   9  22  46  77 103 154 211 255 325 407 480
#     4  12  26  44  75 117 154 204 275 331 409 492
#     4  11  27  43  74 115 152 204 267 335 406 491
#
# _framework density 26.209745000000002
#
# number of rings (size 3 to 8) (size 9 to 14) (size 15 to 20)
#    0.000    1.600    2.000    0.000   11.200    2.400 
#    0.000    0.000    0.000    0.000    0.000    0.000 
#    0.000    0.000    0.000    0.000    0.000    0.000 
#
# Total GULP energy -111398.957649 kJ/mol
# GULP energy per Si atom -5569.947882 kJ/mol
# Density = 2.615009 g / cm^3
# Si number density = 26.209745 Si / 1000 Ang^3
#
#
#
# Elastic Constant Matrix: (Units=GPa)
#
#
# Indices 1 2 3 4 5 6 
#
# 1 89.0951 15.0981 58.4469 0.0000 0.0000 0.0000
# 2 15.0981 73.1882 38.5178 0.0000 0.0000 0.0000
# 3 58.4469 38.5178 120.7011 0.0000 0.0000 0.0000
# 4 0.0000 0.0000 0.0000 37.2681 0.0000 0.0000
# 5 0.0000 0.0000 0.0000 0.0000 56.4454 0.0000
# 6 0.0000 0.0000 0.0000 0.0000 0.0000 52.5746
#
#
#
# Elastic Compliance Matrix: (Units=1/GPa)
#
#
# Indices 1 2 3 4 5 6 
#
# 1 0.016505 0.000963 -0.008300 0.000000 0.000000 0.000000
# 2 0.000963 0.016478 -0.005725 0.000000 0.000000 0.000000
# 3 -0.008300 -0.005725 0.014131 0.000000 0.000000 0.000000
# 4 0.000000 0.000000 0.000000 0.026833 0.000000 0.000000
# 5 0.000000 0.000000 0.000000 0.000000 0.017716 0.000000
# 6 0.000000 0.000000 0.000000 0.000000 0.000000 0.019021
#
#
# Mechanical properties :
#
#
# Convention : Reuss Voigt Hill
#
# Bulk Modulus (GPa) = 47.63916 56.34555 51.99236
# Shear Modulus (GPa) = 34.76987 40.65238 37.71113
#
# Velocity S-wave (km/s) = 3.64620 3.94260 3.79729
# Velocity P-wave (km/s) = 5.99516 6.50154 6.25348
#
# Compressibility (1/GPa) = 0.02099113
#
# Stress axis : x y z
#
# Youngs Moduli (GPa) = 60.58614 60.68881 70.76783
#
# Poissons Ratio (x) = -0.05845 0.58735
# Poissons Ratio (y) = -0.05835 0.40512
# Poissons Ratio (z) = 0.50285 0.34742
#
# Static dielectric constant tensor:
#      x y z
#    x 2.304320 0.000000 0.000000 
#    y 0.000000 2.206850 0.000000 
#    z 0.000000 0.000000 2.253380 
# 
# From -- ./inp_files/7193.got.cif
#   From: 2010.05.17/outbox.cif.g08.bks.cpg/sg41_4_cif.got.tgz:7193.got - 2010.06.03 18:54:24.
