data_PCOD9367285
_publ_section_title
;
Structure prediction by ZEFSAII (Michael W. Deem and Ramdas Pophale) SiO2 
 PCOD9367285
Probable space group: A B A 2
;
_chemical_formula_sum "Si O2"
_cell_formula_units_Z 64
_cell_length_a 24.713931
_cell_length_b 8.827550
_cell_length_c 12.972001
_cell_angle_alpha 90.000000
_cell_angle_beta 90.000000
_cell_angle_gamma 90.000000
_cell_volume 2830.016642
_symmetry_space_group_name_H-M "A B A 2"
_symmetry_group_IT_number 41
_symmetry_cell_setting 'orthorhombic'
loop_
_space_group_symop_operation_xyz
x,y,z
-x,-y,z
1/2-x,y,1/2+z
1/2+x,-y,1/2+z
x,1/2+y,1/2+z
-x,1/2-y,1/2+z
1/2-x,1/2+y,z
1/2+x,1/2-y,z
loop_
_atom_site_type_symbol
_atom_site_label
_atom_site_fract_x
_atom_site_fract_y
_atom_site_fract_z
Si Si1 0.635342 0.902028 0.608720
Si Si2 0.823659 0.160704 0.251011
Si Si3 0.917260 0.595614 0.066867
Si Si4 0.073966 0.117992 0.754209
Si Si5 0.498493 0.833320 0.880601
Si Si6 0.940069 0.574039 0.449944
Si Si7 0.694341 0.003077 0.963086
Si Si8 0.750454 0.755717 0.565684
O O1 0.600061 0.750326 0.625650
O O2 0.692002 0.836891 0.565709
O O3 0.651276 0.007769 0.702865
O O4 0.601668 0.013026 0.533657
O O5 0.873061 0.277863 0.259976
O O6 0.800258 0.097437 0.357962
O O7 0.781110 0.243806 0.175104
O O8 0.935033 0.466706 0.146818
O O9 0.958344 0.645592 0.977804
O O10 0.865115 0.531525 0.006952
O O11 0.079671 0.992520 0.842004
O O12 0.024659 0.221387 0.793909
O O13 0.550367 0.752052 0.931109
O O14 0.500000 0.000000 0.834140
O O15 0.000000 0.500000 0.471401
O O16 0.735796 0.083734 0.040693
O O17 0.711421 0.829315 0.977821
#
# Coordination Sequence:
#
# PCOD9367285 Si02
#       8
#     8   8   8   8   8   8   8   8
#     4  11  24  47  71 110 147 192 256 312 373 462
#     4  12  25  44  72 109 145 190 253 309 379 468
#     4  11  23  47  75 105 149 198 243 312 382 456
#     4  11  23  46  73 106 148 192 251 306 382 454
#     4  11  25  46  77 111 152 199 259 314 394 455
#     4  10  22  49  75 102 151 198 249 319 375 442
#     4  11  24  45  70 100 149 190 239 308 382 454
#     4  11  24  45  67 106 145 191 243 305 381 454
#
# _framework density 22.614706999999999
#
# number of rings (size 3 to 8) (size 9 to 14) (size 15 to 20)
#    0.000    1.000    6.250    0.750    3.500    2.500 
#    6.750    0.625    0.000    0.000    0.000    0.000 
#    0.000    0.000    0.000    0.000    0.000    0.000 
#
# Total GULP energy -178779.936201 kJ/mol
# GULP energy per Si atom -5586.873006 kJ/mol
# Density = 2.256324 g / cm^3
# Si number density = 22.614707 Si / 1000 Ang^3
#
#
#
# Elastic Constant Matrix: (Units=GPa)
#
#
# Indices 1 2 3 4 5 6 
#
# 1 56.4027 27.4750 34.2974 0.0000 0.0000 0.0000
# 2 27.4750 102.4008 22.6121 0.0000 0.0000 0.0000
# 3 34.2974 22.6121 77.6197 0.0000 0.0000 0.0000
# 4 0.0000 0.0000 0.0000 39.3145 0.0000 0.0000
# 5 0.0000 0.0000 0.0000 0.0000 35.9249 0.0000
# 6 0.0000 0.0000 0.0000 0.0000 0.0000 29.6902
#
#
#
# Elastic Compliance Matrix: (Units=1/GPa)
#
#
# Indices 1 2 3 4 5 6 
#
# 1 0.026276 -0.004795 -0.010214 0.000000 0.000000 0.000000
# 2 -0.004795 0.011312 -0.001177 0.000000 0.000000 0.000000
# 3 -0.010214 -0.001177 0.017739 0.000000 0.000000 0.000000
# 4 0.000000 0.000000 0.000000 0.025436 0.000000 0.000000
# 5 0.000000 0.000000 0.000000 0.000000 0.027836 0.000000
# 6 0.000000 0.000000 0.000000 0.000000 0.000000 0.033681
#
#
# Mechanical properties :
#
#
# Convention : Reuss Voigt Hill
#
# Bulk Modulus (GPa) = 43.55999 45.02133 44.29066
# Shear Modulus (GPa) = 27.42697 31.12182 29.27439
#
# Velocity S-wave (km/s) = 3.48630 3.71371 3.60180
# Velocity P-wave (km/s) = 5.95897 6.19193 6.07657
#
# Compressibility (1/GPa) = 0.02295685
#
# Stress axis : x y z
#
# Youngs Moduli (GPa) = 38.05764 88.40285 56.37237
#
# Poissons Ratio (x) = 0.42386 0.57577
# Poissons Ratio (y) = 0.18247 0.06634
# Poissons Ratio (z) = 0.38871 0.10403
#
# Static dielectric constant tensor:
#      x y z
#    x 1.849830 0.000000 0.000000 
#    y 0.000000 1.948370 0.000000 
#    z 0.000000 0.000000 1.833840 
# 
# From -- ./inp_files/6692.got.cif
#   From: 2010.05.17/outbox.cif.g08.bks.cpg/sg41_4_cif.got.tgz:6692.got - 2010.06.03 18:54:24.
