data_PCOD9367918
_publ_section_title
;
Structure prediction by ZEFSAII (Michael W. Deem and Ramdas Pophale) SiO2 
 PCOD9367918
Probable space group: A B A 2
;
_chemical_formula_sum "Si O2"
_cell_formula_units_Z 52
_cell_length_a 11.297104
_cell_length_b 27.469234
_cell_length_c 7.746059
_cell_angle_alpha 90.000000
_cell_angle_beta 90.000000
_cell_angle_gamma 90.000000
_cell_volume 2403.778666
_symmetry_space_group_name_H-M "A B A 2"
_symmetry_group_IT_number 41
_symmetry_cell_setting 'orthorhombic'
loop_
_space_group_symop_operation_xyz
x,y,z
-x,-y,z
1/2-x,y,1/2+z
1/2+x,-y,1/2+z
x,1/2+y,1/2+z
-x,1/2-y,1/2+z
1/2-x,1/2+y,z
1/2+x,1/2-y,z
loop_
_atom_site_type_symbol
_atom_site_label
_atom_site_fract_x
_atom_site_fract_y
_atom_site_fract_z
Si Si1 0.147013 0.561374 0.500000
Si Si2 0.500000 0.000000 0.768402
Si Si3 0.538140 0.687625 0.771850
Si Si4 0.298246 0.969208 0.995311
Si Si5 0.610139 0.285959 0.437051
Si Si6 0.845269 0.329734 0.573217
Si Si7 0.904857 0.579078 0.318227
O O1 0.250680 0.523660 0.462784
O O2 0.191842 0.613976 0.556548
O O3 0.077819 0.535129 0.652696
O O4 0.042158 0.567990 0.359453
O O5 0.410887 0.965449 0.872112
O O6 0.489288 0.703790 0.583471
O O7 0.609469 0.731789 0.858411
O O8 0.601706 0.635284 0.761400
O O9 0.434470 0.679650 0.914612
O O10 0.186944 0.932783 0.972424
O O11 0.353675 0.958320 0.179695
O O12 0.731313 0.297065 0.536883
O O13 0.602904 0.319173 0.263604
#
# Coordination Sequence:
#
# PCOD9367918 Si02
#       7
#     8   4   8   8   8   8   8
#     4  11  25  48  67 103 145 186 241 299 338 437
#     4  12  26  40  72 100 142 192 234 280 354 424
#     4  11  26  46  74 105 144 181 246 302 364 439
#     4  12  25  44  69 104 146 191 231 292 360 420
#     4  12  24  48  72 108 136 189 235 304 362 429
#     4  11  26  43  74 103 143 184 242 294 368 424
#     4  11  25  47  70 103 143 191 236 297 360 427
#
# _framework density 21.632607
#
# number of rings (size 3 to 8) (size 9 to 14) (size 15 to 20)
#    0.000    0.615    6.154    0.000    6.462    1.231 
#    0.000    0.000    0.000    0.000    0.000    0.000 
#    0.000    0.000    0.000    0.000    0.000    0.000 
#
# Total GULP energy -145217.359542 kJ/mol
# GULP energy per Si atom -5585.283059 kJ/mol
# Density = 2.158337 g / cm^3
# Si number density = 21.632607 Si / 1000 Ang^3
#
#
#
# Elastic Constant Matrix: (Units=GPa)
#
#
# Indices 1 2 3 4 5 6 
#
# 1 42.9596 20.0745 18.8991 0.0000 0.0000 0.0000
# 2 20.0745 136.2379 32.3083 0.0000 0.0000 0.0000
# 3 18.8991 32.3083 115.8189 0.0000 0.0000 0.0000
# 4 0.0000 0.0000 0.0000 1603.8802 0.0000 0.0000
# 5 0.0000 0.0000 0.0000 0.0000 28.7698 0.0000
# 6 0.0000 0.0000 0.0000 0.0000 0.0000 25.7281
#
#
#
# Elastic Compliance Matrix: (Units=1/GPa)
#
#
# Indices 1 2 3 4 5 6 
#
# 1 0.026210 -0.003049 -0.003426 0.000000 0.000000 0.000000
# 2 -0.003049 0.008215 -0.001794 0.000000 0.000000 0.000000
# 3 -0.003426 -0.001794 0.009694 0.000000 0.000000 0.000000
# 4 0.000000 0.000000 0.000000 0.000623 0.000000 0.000000
# 5 0.000000 0.000000 0.000000 0.000000 0.034759 0.000000
# 6 0.000000 0.000000 0.000000 0.000000 0.000000 0.038868
#
#
# Mechanical properties :
#
#
# Convention : Reuss Voigt Hill
#
# Bulk Modulus (GPa) = 36.25928 48.62004 42.43966
# Shear Modulus (GPa) = 34.69785 346.59125 190.64455
#
# Velocity S-wave (km/s) = 4.00929 12.67142 9.39785
# Velocity P-wave (km/s) = 6.18307 15.38215 11.72265
#
# Compressibility (1/GPa) = 0.02757915
#
# Stress axis : x y z
#
# Youngs Moduli (GPa) = 38.15342 121.73043 103.15980
#
# Poissons Ratio (x) = 0.37122 0.35345
# Poissons Ratio (y) = 0.11635 0.18507
# Poissons Ratio (z) = 0.13072 0.21838
#
# Static dielectric constant tensor:
#      x y z
#    x 1.907670 0.000000 0.000000 
#    y 0.000000 -0.606800 0.000000 
#    z 0.000000 0.000000 1.847510 
# 
# From -- ./inp_files/2153.got.cif
#   From: 2010.05.17/outbox.cif.g08.bks.cpg/sg41_2_cif.got.tgz:2153.got - 2010.06.03 18:54:24.
