data_PCOD9367818
_publ_section_title
;
Structure prediction by ZEFSAII (Michael W. Deem and Ramdas Pophale) SiO2 
 PCOD9367818
Probable space group: A B A 2
;
_chemical_formula_sum "Si O2"
_cell_formula_units_Z 48
_cell_length_a 16.949199
_cell_length_b 11.570529
_cell_length_c 10.953226
_cell_angle_alpha 90.000000
_cell_angle_beta 90.000000
_cell_angle_gamma 90.000000
_cell_volume 2148.050279
_symmetry_space_group_name_H-M "A B A 2"
_symmetry_group_IT_number 41
_symmetry_cell_setting 'orthorhombic'
loop_
_space_group_symop_operation_xyz
x,y,z
-x,-y,z
1/2-x,y,1/2+z
1/2+x,-y,1/2+z
x,1/2+y,1/2+z
-x,1/2-y,1/2+z
1/2-x,1/2+y,z
1/2+x,1/2-y,z
loop_
_atom_site_type_symbol
_atom_site_label
_atom_site_fract_x
_atom_site_fract_y
_atom_site_fract_z
Si Si1 0.691306 0.395905 0.296750
Si Si2 0.873658 0.446488 0.329484
Si Si3 0.382886 0.318540 0.690171
Si Si4 0.910067 0.517108 0.595701
Si Si5 0.416323 0.947736 0.952083
Si Si6 0.446593 0.280055 0.219419
O O1 0.780099 0.427903 0.327245
O O2 0.681552 0.262994 0.254979
O O3 0.657717 0.465811 0.180440
O O4 0.636187 0.444543 0.405702
O O5 0.894649 0.568375 0.270593
O O6 0.904380 0.455241 0.466925
O O7 0.910780 0.342465 0.254084
O O8 0.373081 0.370034 0.554272
O O9 0.461977 0.241906 0.691332
O O10 0.904565 0.656101 0.605548
O O11 0.000000 0.500000 0.642464
O O12 0.433960 0.863622 0.836861
O O13 0.500000 0.000000 0.996945
#
# Coordination Sequence:
#
# PCOD9367818 Si02
#       6
#     8   8   8   8   8   8
#     4  11  26  47  67 104 148 191 239 311 377 436
#     4  12  29  41  71 110 147 182 249 308 381 441
#     4  12  25  45  72 103 141 188 248 302 363 456
#     4  11  23  50  75  98 143 199 245 296 371 453
#     4  11  23  45  74 101 139 190 244 300 367 445
#     4  11  23  45  73 105 139 191 249 301 362 452
#
# _framework density 22.345845000000001
#
# number of rings (size 3 to 8) (size 9 to 14) (size 15 to 20)
#    0.000    0.667    3.333    4.500    9.333    1.333 
#    0.000    0.000    0.000    0.000    0.000    0.000 
#    0.000    0.000    0.000    0.000    0.000    0.000 
#
# Total GULP energy -134212.131778 kJ/mol
# GULP energy per Si atom -5592.172157 kJ/mol
# Density = 2.229498 g / cm^3
# Si number density = 22.345845 Si / 1000 Ang^3
#
#
#
# Elastic Constant Matrix: (Units=GPa)
#
#
# Indices 1 2 3 4 5 6 
#
# 1 59.1306 0.4614 -4.0727 0.0000 0.0000 0.0000
# 2 0.4614 121.8929 4.5699 0.0000 0.0000 0.0000
# 3 -4.0727 4.5699 43.1797 0.0000 0.0000 0.0000
# 4 0.0000 0.0000 0.0000 39.1171 0.0000 0.0000
# 5 0.0000 0.0000 0.0000 0.0000 22.6038 0.0000
# 6 0.0000 0.0000 0.0000 0.0000 0.0000 49.6168
#
#
#
# Elastic Compliance Matrix: (Units=1/GPa)
#
#
# Indices 1 2 3 4 5 6 
#
# 1 0.017024 -0.000125 0.001619 0.000000 0.000000 0.000000
# 2 -0.000125 0.008238 -0.000884 0.000000 0.000000 0.000000
# 3 0.001619 -0.000884 0.023405 0.000000 0.000000 0.000000
# 4 0.000000 0.000000 0.000000 0.025564 0.000000 0.000000
# 5 0.000000 0.000000 0.000000 0.000000 0.044240 0.000000
# 6 0.000000 0.000000 0.000000 0.000000 0.000000 0.020154
#
#
# Mechanical properties :
#
#
# Convention : Reuss Voigt Hill
#
# Bulk Modulus (GPa) = 20.04516 25.12449 22.58483
# Shear Modulus (GPa) = 32.46023 37.15053 34.80538
#
# Velocity S-wave (km/s) = 3.81547 4.08183 3.95090
# Velocity P-wave (km/s) = 5.32920 5.78645 5.56252
#
# Compressibility (1/GPa) = 0.04988736
#
# Stress axis : x y z
#
# Youngs Moduli (GPa) = 58.73992 121.39567 42.72548
#
# Poissons Ratio (x) = 0.01519 -0.06917
# Poissons Ratio (y) = 0.00735 0.03775
# Poissons Ratio (z) = -0.09510 0.10727
#
# Static dielectric constant tensor:
#      x y z
#    x 1.779860 0.000000 0.000000 
#    y 0.000000 1.871340 0.000000 
#    z 0.000000 0.000000 1.855380 
# 
# From -- ./inp_files/5935.got.cif
#   From: 2010.05.17/outbox.cif.g08.bks.cpg/sg41_3_cif.got.tgz:5935.got - 2010.06.03 18:54:24.
