data_PCOD9367007
_publ_section_title
;
Structure prediction by ZEFSAII (Michael W. Deem and Ramdas Pophale) SiO2 
 PCOD9367007
Probable space group: A B A 2
;
_chemical_formula_sum "Si O2"
_cell_formula_units_Z 44
_cell_length_a 22.309555
_cell_length_b 8.212300
_cell_length_c 9.226089
_cell_angle_alpha 90.000000
_cell_angle_beta 90.000000
_cell_angle_gamma 90.000000
_cell_volume 1690.337216
_symmetry_space_group_name_H-M "A B A 2"
_symmetry_group_IT_number 41
_symmetry_cell_setting 'orthorhombic'
loop_
_space_group_symop_operation_xyz
x,y,z
-x,-y,z
1/2-x,y,1/2+z
1/2+x,-y,1/2+z
x,1/2+y,1/2+z
-x,1/2-y,1/2+z
1/2-x,1/2+y,z
1/2+x,1/2-y,z
loop_
_atom_site_type_symbol
_atom_site_label
_atom_site_fract_x
_atom_site_fract_y
_atom_site_fract_z
Si Si1 0.016992 0.720614 0.171410
Si Si2 0.882917 0.963836 0.835757
Si Si3 0.500000 0.500000 0.403211
Si Si4 0.624556 0.040096 0.631410
Si Si5 0.782321 0.301448 0.136977
Si Si6 0.830455 0.321005 0.833590
O O1 0.055197 0.587241 0.263349
O O2 0.072635 0.829204 0.109977
O O3 0.988064 0.853395 0.280779
O O4 0.983936 0.635881 0.034794
O O5 0.828386 0.886561 0.746752
O O6 0.867875 0.155406 0.841321
O O7 0.882379 0.911273 0.003549
O O8 0.689961 0.121574 0.619814
O O9 0.625868 0.968889 0.792782
O O10 0.717523 0.296902 0.205691
O O11 0.793184 0.367743 0.976156
#
# Coordination Sequence:
#
# PCOD9367007 Si02
#       6
#     8   8   4   8   8   8
#     4  11  30  50  80 115 149 197 251 323 402 475
#     4  10  24  42  69 100 147 192 248 312 377 458
#     4  12  32  54  86 116 156 196 260 328 400 490
#     4  10  24  42  69 101 145 195 247 312 376 460
#     4  10  22  39  59 105 140 200 250 300 373 440
#     4  11  22  38  68  97 151 194 254 305 368 454
#
# _framework density 26.030308000000002
#
# number of rings (size 3 to 8) (size 9 to 14) (size 15 to 20)
#    0.000    1.455    0.000    2.182   15.273    5.818 
#    0.000    0.000    0.000    0.000    0.000    0.000 
#    0.000    0.000    0.000    0.000    0.000    0.000 
#
# Total GULP energy -122534.206010 kJ/mol
# GULP energy per Si atom -5569.736637 kJ/mol
# Density = 2.597106 g / cm^3
# Si number density = 26.030308 Si / 1000 Ang^3
#
#
#
# Elastic Constant Matrix: (Units=GPa)
#
#
# Indices 1 2 3 4 5 6 
#
# 1 95.9855 26.7423 27.0981 0.0000 0.0000 0.0000
# 2 26.7423 74.8674 48.0902 0.0000 0.0000 0.0000
# 3 27.0981 48.0902 170.9046 0.0000 0.0000 0.0000
# 4 0.0000 0.0000 0.0000 50.7917 0.0000 0.0000
# 5 0.0000 0.0000 0.0000 0.0000 0.7116 0.0000
# 6 0.0000 0.0000 0.0000 0.0000 0.0000 33.4105
#
#
#
# Elastic Compliance Matrix: (Units=1/GPa)
#
#
# Indices 1 2 3 4 5 6 
#
# 1 0.011664 -0.003636 -0.000826 0.000000 0.000000 0.000000
# 2 -0.003636 0.017437 -0.004330 0.000000 0.000000 0.000000
# 3 -0.000826 -0.004330 0.007201 0.000000 0.000000 0.000000
# 4 0.000000 0.000000 0.000000 0.019688 0.000000 0.000000
# 5 0.000000 0.000000 0.000000 0.000000 1.405313 0.000000
# 6 0.000000 0.000000 0.000000 0.000000 0.000000 0.029931
#
#
# Mechanical properties :
#
#
# Convention : Reuss Voigt Hill
#
# Bulk Modulus (GPa) = 53.42510 60.62430 57.02470
# Shear Modulus (GPa) = 3.30020 32.97121 18.13571
#
# Velocity S-wave (km/s) = 1.12720 3.56286 2.64240
# Velocity P-wave (km/s) = 4.71835 6.34553 5.59145
#
# Compressibility (1/GPa) = 0.01871779
#
# Stress axis : x y z
#
# Youngs Moduli (GPa) = 85.73037 57.34945 138.87567
#
# Poissons Ratio (x) = 0.20850 0.11478
# Poissons Ratio (y) = 0.31168 0.60134
# Poissons Ratio (z) = 0.07085 0.24833
#
# Static dielectric constant tensor:
#      x y z
#    x 2.040630 0.000000 0.000000 
#    y 0.000000 2.150600 0.000000 
#    z 0.000000 0.000000 2.098960 
# 
# From -- ./inp_files/3891.got.cif
#   From: 2010.05.17/outbox.cif.g08.bks.cpg/sg41_2_cif.got.tgz:3891.got - 2010.06.03 18:54:24.
