data_PCOD9367811
_publ_section_title
;
Structure prediction by ZEFSAII (Michael W. Deem and Ramdas Pophale) SiO2 
 PCOD9367811
Probable space group: A B A 2
;
_chemical_formula_sum "Si O2"
_cell_formula_units_Z 64
_cell_length_a 11.660957
_cell_length_b 14.374717
_cell_length_c 16.261430
_cell_angle_alpha 90.000000
_cell_angle_beta 90.000000
_cell_angle_gamma 90.000000
_cell_volume 2725.788979
_symmetry_space_group_name_H-M "A B A 2"
_symmetry_group_IT_number 41
_symmetry_cell_setting 'orthorhombic'
loop_
_space_group_symop_operation_xyz
x,y,z
-x,-y,z
1/2-x,y,1/2+z
1/2+x,-y,1/2+z
x,1/2+y,1/2+z
-x,1/2-y,1/2+z
1/2-x,1/2+y,z
1/2+x,1/2-y,z
loop_
_atom_site_type_symbol
_atom_site_label
_atom_site_fract_x
_atom_site_fract_y
_atom_site_fract_z
Si Si1 0.891709 0.428354 0.521120
Si Si2 0.687096 0.836362 0.259970
Si Si3 0.712568 0.635700 0.730181
Si Si4 0.991642 0.389695 0.129162
Si Si5 0.031811 0.894995 0.437122
Si Si6 0.511454 0.300309 0.903242
Si Si7 0.205899 0.422553 0.408536
Si Si8 0.629857 0.473260 0.204360
O O1 0.912014 0.327605 0.482112
O O2 0.804192 0.483955 0.462306
O O3 0.868747 0.421586 0.616884
O O4 0.000000 0.500000 0.515250
O O5 0.736532 0.732370 0.261377
O O6 0.621220 0.852741 0.173812
O O7 0.585761 0.843181 0.328251
O O8 0.793606 0.908245 0.263618
O O9 0.603849 0.652354 0.672747
O O10 0.683764 0.573467 0.810587
O O11 0.806986 0.571480 0.686973
O O12 0.000000 0.500000 0.145964
O O13 0.993960 0.379337 0.031306
O O14 0.986461 0.807124 0.386606
O O15 0.167939 0.886559 0.426156
O O16 0.000000 0.000000 0.413802
O O17 0.393198 0.349173 0.928254
O O18 0.500000 0.500000 0.228953
#
# Coordination Sequence:
#
# PCOD9367811 Si02
#       8
#     8   8   8   8   8   8   8   8
#     4   9  22  41  71 102 137 189 243 295 367 436
#     4  12  26  45  74 112 144 202 250 304 379 450
#     4  12  25  44  73 103 146 190 239 312 366 449
#     4  11  25  47  74 102 145 194 251 299 373 449
#     4  11  27  47  70 110 146 191 243 313 374 437
#     4  11  24  48  75 105 145 196 253 297 373 459
#     4  11  23  45  71 105 142 191 242 308 368 443
#     4  11  26  46  71 109 150 192 246 315 370 437
#
# _framework density 23.479441000000001
#
# number of rings (size 3 to 8) (size 9 to 14) (size 15 to 20)
#    0.000    1.000    3.750    1.500    5.250    4.500 
#    2.250    0.000    0.000    0.000    0.000    0.000 
#    0.000    0.000    0.000    0.000    0.000    0.000 
#
# Total GULP energy -178780.883137 kJ/mol
# GULP energy per Si atom -5586.902598 kJ/mol
# Density = 2.342600 g / cm^3
# Si number density = 23.479441 Si / 1000 Ang^3
#
#
#
# Elastic Constant Matrix: (Units=GPa)
#
#
# Indices 1 2 3 4 5 6 
#
# 1 118.2555 42.0066 10.7400 0.0000 0.0000 0.0000
# 2 42.0066 121.4668 8.9804 0.0000 0.0000 0.0000
# 3 10.7400 8.9804 72.8587 0.0000 0.0000 0.0000
# 4 0.0000 0.0000 0.0000 12.4989 0.0000 0.0000
# 5 0.0000 0.0000 0.0000 0.0000 56.3106 0.0000
# 6 0.0000 0.0000 0.0000 0.0000 0.0000 23.9067
#
#
#
# Elastic Compliance Matrix: (Units=1/GPa)
#
#
# Indices 1 2 3 4 5 6 
#
# 1 0.009716 -0.003284 -0.001027 0.000000 0.000000 0.000000
# 2 -0.003284 0.009418 -0.000677 0.000000 0.000000 0.000000
# 3 -0.001027 -0.000677 0.013960 0.000000 0.000000 0.000000
# 4 0.000000 0.000000 0.000000 0.080007 0.000000 0.000000
# 5 0.000000 0.000000 0.000000 0.000000 0.017759 0.000000
# 6 0.000000 0.000000 0.000000 0.000000 0.000000 0.041829
#
#
# Mechanical properties :
#
#
# Convention : Reuss Voigt Hill
#
# Bulk Modulus (GPa) = 43.25645 48.44834 45.85240
# Shear Modulus (GPa) = 26.26427 35.26683 30.76555
#
# Velocity S-wave (km/s) = 3.34819 3.87981 3.62376
# Velocity P-wave (km/s) = 5.78016 6.38355 6.08933
#
# Compressibility (1/GPa) = 0.02311794
#
# Stress axis : x y z
#
# Youngs Moduli (GPa) = 102.92117 106.17413 71.63284
#
# Poissons Ratio (x) = 0.34869 0.07360
# Poissons Ratio (y) = 0.33801 0.04848
# Poissons Ratio (z) = 0.10575 0.07186
#
# Static dielectric constant tensor:
#      x y z
#    x 1.901970 0.000000 0.000000 
#    y 0.000000 2.126740 0.000000 
#    z 0.000000 0.000000 1.941070 
# 
# From -- ./inp_files/10129.got.cif
#   From: 2010.05.17/outbox.cif.g08.bks.cpg/sg41_6_cif.got.tgz:10129.got - 2010.06.03 18:54:24.
