data_PCOD9367614
_publ_section_title
;
Structure prediction by ZEFSAII (Michael W. Deem and Ramdas Pophale) SiO2 
 PCOD9367614
Probable space group: A B A 2
;
_chemical_formula_sum "Si O2"
_cell_formula_units_Z 48
_cell_length_a 16.380802
_cell_length_b 17.049968
_cell_length_c 8.097456
_cell_angle_alpha 90.000000
_cell_angle_beta 90.000000
_cell_angle_gamma 90.000000
_cell_volume 2261.555895
_symmetry_space_group_name_H-M "A B A 2"
_symmetry_group_IT_number 41
_symmetry_cell_setting 'orthorhombic'
loop_
_space_group_symop_operation_xyz
x,y,z
-x,-y,z
1/2-x,y,1/2+z
1/2+x,-y,1/2+z
x,1/2+y,1/2+z
-x,1/2-y,1/2+z
1/2-x,1/2+y,z
1/2+x,1/2-y,z
loop_
_atom_site_type_symbol
_atom_site_label
_atom_site_fract_x
_atom_site_fract_y
_atom_site_fract_z
Si Si1 0.350826 0.123104 0.570140
Si Si2 0.579796 0.045480 0.015824
Si Si3 0.795281 0.969004 0.752092
Si Si4 0.971994 0.079029 0.143976
Si Si5 0.682237 0.131757 0.445346
Si Si6 0.336661 0.301696 0.620613
O O1 0.286115 0.075394 0.686349
O O2 0.341398 0.084404 0.388294
O O3 0.441164 0.121574 0.652318
O O4 0.335459 0.215323 0.549367
O O5 0.567501 0.054225 0.819056
O O6 0.500000 0.000000 0.078551
O O7 0.593054 0.135195 0.075450
O O8 0.652654 0.992383 0.089027
O O9 0.790048 0.052872 0.847817
O O10 0.900916 0.118177 0.041993
O O11 0.000000 0.000000 0.052622
O O12 0.666579 0.200968 0.316738
O O13 0.754479 0.156206 0.562665
#
# Coordination Sequence:
#
# PCOD9367614 Si02
#       6
#     8   8   8   8   8   8
#     4  12  27  45  70 108 145 178 237 302 366 414
#     4  10  25  44  74  97 136 183 247 281 358 428
#     4  11  25  43  74  98 140 188 239 285 357 443
#     4  11  25  44  72 105 138 183 241 303 344 421
#     4  11  23  44  72  96 140 189 239 280 355 430
#     4  11  25  44  70 103 143 186 233 295 363 426
#
# _framework density 21.224326000000001
#
# number of rings (size 3 to 8) (size 9 to 14) (size 15 to 20)
#    0.000    1.000    1.667    4.000   14.000    1.333 
#    3.000    0.000    0.000    0.000    0.000    0.000 
#    0.000    0.000    0.000    0.000    0.000    0.000 
#
# Total GULP energy -133903.161121 kJ/mol
# GULP energy per Si atom -5579.298380 kJ/mol
# Density = 2.117602 g / cm^3
# Si number density = 21.224326 Si / 1000 Ang^3
#
#
#
# Elastic Constant Matrix: (Units=GPa)
#
#
# Indices 1 2 3 4 5 6 
#
# 1 143.1501 56.9944 56.5614 0.0000 0.0000 0.0000
# 2 56.9944 108.3755 29.2126 0.0000 0.0000 0.0000
# 3 56.5614 29.2126 115.6441 0.0000 0.0000 0.0000
# 4 0.0000 0.0000 0.0000 26.2716 0.0000 0.0000
# 5 0.0000 0.0000 0.0000 0.0000 26.9662 0.0000
# 6 0.0000 0.0000 0.0000 0.0000 0.0000 11.1375
#
#
#
# Elastic Compliance Matrix: (Units=1/GPa)
#
#
# Indices 1 2 3 4 5 6 
#
# 1 0.010264 -0.004340 -0.003924 0.000000 0.000000 0.000000
# 2 -0.004340 0.011737 -0.000842 0.000000 0.000000 0.000000
# 3 -0.003924 -0.000842 0.010779 0.000000 0.000000 0.000000
# 4 0.000000 0.000000 0.000000 0.038064 0.000000 0.000000
# 5 0.000000 0.000000 0.000000 0.000000 0.037083 0.000000
# 6 0.000000 0.000000 0.000000 0.000000 0.000000 0.089787
#
#
# Mechanical properties :
#
#
# Convention : Reuss Voigt Hill
#
# Bulk Modulus (GPa) = 68.64445 72.52294 70.58370
# Shear Modulus (GPa) = 22.64681 27.83515 25.24098
#
# Velocity S-wave (km/s) = 3.27007 3.62536 3.45229
# Velocity P-wave (km/s) = 6.83157 7.19501 7.01565
#
# Compressibility (1/GPa) = 0.01456782
#
# Stress axis : x y z
#
# Youngs Moduli (GPa) = 97.42743 85.20333 92.77278
#
# Poissons Ratio (x) = 0.36980 0.36402
# Poissons Ratio (y) = 0.42285 0.07811
# Poissons Ratio (z) = 0.38228 0.07174
#
# Static dielectric constant tensor:
#      x y z
#    x 1.855420 0.000000 0.000000 
#    y 0.000000 1.773760 0.000000 
#    z 0.000000 0.000000 1.803900 
# 
# From -- ./inp_files/2547.got.cif
#   From: 2010.05.17/outbox.cif.g08.bks.cpg/sg41_2_cif.got.tgz:2547.got - 2010.06.03 18:54:24.
