data_PCOD9367920
_publ_section_title
;
Structure prediction by ZEFSAII (Michael W. Deem and Ramdas Pophale) SiO2 
 PCOD9367920
Probable space group: A B A 2
;
_chemical_formula_sum "Si O2"
_cell_formula_units_Z 44
_cell_length_a 26.995909
_cell_length_b 13.235398
_cell_length_c 4.875121
_cell_angle_alpha 90.000000
_cell_angle_beta 90.000000
_cell_angle_gamma 90.000000
_cell_volume 1741.888533
_symmetry_space_group_name_H-M "A B A 2"
_symmetry_group_IT_number 41
_symmetry_cell_setting 'orthorhombic'
loop_
_space_group_symop_operation_xyz
x,y,z
-x,-y,z
1/2-x,y,1/2+z
1/2+x,-y,1/2+z
x,1/2+y,1/2+z
-x,1/2-y,1/2+z
1/2-x,1/2+y,z
1/2+x,1/2-y,z
loop_
_atom_site_type_symbol
_atom_site_label
_atom_site_fract_x
_atom_site_fract_y
_atom_site_fract_z
Si Si1 0.632383 0.314378 0.626220
Si Si2 0.781473 0.924196 0.306788
Si Si3 0.000000 0.000000 0.057597
Si Si4 0.603574 0.522089 0.906521
Si Si5 0.973113 0.296352 0.848619
Si Si6 0.154701 0.391768 0.908650
O O1 0.673920 0.355893 0.418072
O O2 0.617403 0.408676 0.819759
O O3 0.581726 0.282688 0.471095
O O4 0.653467 0.221345 0.801139
O O5 0.733510 0.905328 0.495544
O O6 0.796579 0.041210 0.356555
O O7 0.115251 0.952272 0.220071
O O8 0.954529 0.036582 0.873262
O O9 0.520165 0.409822 0.242820
O O10 0.637319 0.594055 0.719218
O O11 0.987229 0.231043 0.582421
#
# Coordination Sequence:
#
# PCOD9367920 Si02
#       6
#     8   8   4   8   8   8
#     4  11  27  48  74 106 148 194 241 304 370 434
#     4  11  25  47  74 107 140 181 244 304 369 452
#     4  12  26  46  70 100 150 196 236 300 352 402
#     4  11  26  44  69 104 141 190 243 290 351 428
#     4  12  29  47  71 109 149 197 253 297 355 441
#     4  11  26  47  71 101 141 183 233 298 363 427
#
# _framework density 25.259937000000001
#
# number of rings (size 3 to 8) (size 9 to 14) (size 15 to 20)
#    0.000    0.727    0.000    6.545    0.000   24.000 
#    0.000    0.000    0.000    0.000    0.000    0.000 
#    0.000    0.000    0.000    0.000    0.000    0.000 
#
# Total GULP energy -123515.351395 kJ/mol
# GULP energy per Si atom -5614.334154 kJ/mol
# Density = 2.520244 g / cm^3
# Si number density = 25.259937 Si / 1000 Ang^3
#
#
#
# Elastic Constant Matrix: (Units=GPa)
#
#
# Indices 1 2 3 4 5 6 
#
# 1 83.5635 12.8024 11.0802 0.0000 0.0000 0.0000
# 2 12.8024 140.2712 30.8512 0.0000 0.0000 0.0000
# 3 11.0802 30.8512 73.1720 0.0000 0.0000 0.0000
# 4 0.0000 0.0000 0.0000 41.8016 0.0000 0.0000
# 5 0.0000 0.0000 0.0000 0.0000 34.0179 0.0000
# 6 0.0000 0.0000 0.0000 0.0000 0.0000 39.7165
#
#
#
# Elastic Compliance Matrix: (Units=1/GPa)
#
#
# Indices 1 2 3 4 5 6 
#
# 1 0.012290 -0.000785 -0.001530 0.000000 0.000000 0.000000
# 2 -0.000785 0.007908 -0.003215 0.000000 0.000000 0.000000
# 3 -0.001530 -0.003215 0.015254 0.000000 0.000000 0.000000
# 4 0.000000 0.000000 0.000000 0.023923 0.000000 0.000000
# 5 0.000000 0.000000 0.000000 0.000000 0.029396 0.000000
# 6 0.000000 0.000000 0.000000 0.000000 0.000000 0.025178
#
#
# Mechanical properties :
#
#
# Convention : Reuss Voigt Hill
#
# Bulk Modulus (GPa) = 40.99902 45.16380 43.08141
# Shear Modulus (GPa) = 37.55440 39.25873 38.40656
#
# Velocity S-wave (km/s) = 3.85998 3.94660 3.90353
# Velocity P-wave (km/s) = 6.01099 6.21980 6.11629
#
# Compressibility (1/GPa) = 0.02439083
#
# Stress axis : x y z
#
# Youngs Moduli (GPa) = 81.36619 126.45622 65.55764
#
# Poissons Ratio (x) = 0.09929 0.10030
# Poissons Ratio (y) = 0.06389 0.21079
# Poissons Ratio (z) = 0.12449 0.40659
#
# Static dielectric constant tensor:
#      x y z
#    x 1.990360 0.000000 0.000000 
#    y 0.000000 1.994810 0.000000 
#    z 0.000000 0.000000 1.940280 
# 
# From -- ./inp_files/1130.got.cif
#   From: 2010.05.17/outbox.cif.g08.bks.cpg/sg41_1_cif.got.tgz:1130.got - 2010.06.03 18:54:24.
