data_PCOD9367525
_publ_section_title
;
Structure prediction by ZEFSAII (Michael W. Deem and Ramdas Pophale) SiO2 
 PCOD9367525
Probable space group: A B A 2
;
_chemical_formula_sum "Si O2"
_cell_formula_units_Z 48
_cell_length_a 7.918336
_cell_length_b 22.275994
_cell_length_c 12.135574
_cell_angle_alpha 90.000000
_cell_angle_beta 90.000000
_cell_angle_gamma 90.000000
_cell_volume 2140.579399
_symmetry_space_group_name_H-M "A B A 2"
_symmetry_group_IT_number 41
_symmetry_cell_setting 'orthorhombic'
loop_
_space_group_symop_operation_xyz
x,y,z
-x,-y,z
1/2-x,y,1/2+z
1/2+x,-y,1/2+z
x,1/2+y,1/2+z
-x,1/2-y,1/2+z
1/2-x,1/2+y,z
1/2+x,1/2-y,z
loop_
_atom_site_type_symbol
_atom_site_label
_atom_site_fract_x
_atom_site_fract_y
_atom_site_fract_z
Si Si1 0.000000 0.000000 0.232911
Si Si2 0.288771 0.428559 0.079784
Si Si3 0.197101 0.324760 0.758039
Si Si4 0.570534 0.807475 0.202433
Si Si5 0.263382 0.091766 0.822077
Si Si6 0.997890 0.861793 0.479002
Si Si7 0.000000 0.000000 0.903041
O O1 0.836997 0.017472 0.161140
O O2 0.062478 0.056827 0.298906
O O3 0.336403 0.370067 0.154310
O O4 0.100383 0.416049 0.037736
O O5 0.398831 0.450528 0.975756
O O6 0.400167 0.323136 0.769869
O O7 0.107702 0.341045 0.873613
O O8 0.136372 0.258296 0.727995
O O9 0.707947 0.857826 0.235927
O O10 0.519953 0.812853 0.074715
O O11 0.310350 0.122630 0.937667
O O12 0.125276 0.040677 0.833906
#
# Coordination Sequence:
#
# PCOD9367525 Si02
#       7
#     4   8   8   8   8   8   4
#     4  11  24  44  71  98 152 183 228 310 343 446
#     4  10  24  44  67 104 139 188 240 294 357 427
#     4  11  24  49  70 104 150 184 246 306 358 436
#     4  11  28  45  75 106 142 189 245 304 358 446
#     4  12  26  45  70 106 148 192 244 294 365 430
#     4  11  25  46  73 105 138 197 236 297 375 420
#     4  11  26  40  71 106 146 201 238 296 359 440
#
# _framework density 22.423832999999998
#
# number of rings (size 3 to 8) (size 9 to 14) (size 15 to 20)
#    0.000    1.000    1.667    3.000    9.333    6.667 
#    3.000    0.000    0.000    0.000    0.000    0.000 
#    0.000    0.000    0.000    0.000    0.000    0.000 
#
# Total GULP energy -133947.211477 kJ/mol
# GULP energy per Si atom -5581.133812 kJ/mol
# Density = 2.237280 g / cm^3
# Si number density = 22.423833 Si / 1000 Ang^3
#
#
#
# Elastic Constant Matrix: (Units=GPa)
#
#
# Indices 1 2 3 4 5 6 
#
# 1 41.1063 23.6567 8.8551 0.0000 0.0000 0.0000
# 2 23.6567 93.3620 41.8219 0.0000 0.0000 0.0000
# 3 8.8551 41.8219 80.1125 0.0000 0.0000 0.0000
# 4 0.0000 0.0000 0.0000 18.4566 0.0000 0.0000
# 5 0.0000 0.0000 0.0000 0.0000 32.1604 0.0000
# 6 0.0000 0.0000 0.0000 0.0000 0.0000 40.9687
#
#
#
# Elastic Compliance Matrix: (Units=1/GPa)
#
#
# Indices 1 2 3 4 5 6 
#
# 1 0.028520 -0.007589 0.000809 0.000000 0.000000 0.000000
# 2 -0.007589 0.016000 -0.007514 0.000000 0.000000 0.000000
# 3 0.000809 -0.007514 0.016315 0.000000 0.000000 0.000000
# 4 0.000000 0.000000 0.000000 0.054181 0.000000 0.000000
# 5 0.000000 0.000000 0.000000 0.000000 0.031094 0.000000
# 6 0.000000 0.000000 0.000000 0.000000 0.000000 0.024409
#
#
# Mechanical properties :
#
#
# Convention : Reuss Voigt Hill
#
# Bulk Modulus (GPa) = 31.00908 40.36092 35.68500
# Shear Modulus (GPa) = 23.82581 27.66694 25.74637
#
# Velocity S-wave (km/s) = 3.26317 3.51639 3.39214
# Velocity P-wave (km/s) = 5.29683 5.87578 5.59380
#
# Compressibility (1/GPa) = 0.03224862
#
# Stress axis : x y z
#
# Youngs Moduli (GPa) = 35.06259 62.50074 61.29172
#
# Poissons Ratio (x) = 0.47434 -0.04961
# Poissons Ratio (y) = 0.26610 0.46053
# Poissons Ratio (z) = -0.02838 0.46961
#
# Static dielectric constant tensor:
#      x y z
#    x 1.895320 0.000000 0.000000 
#    y 0.000000 1.807150 0.000000 
#    z 0.000000 0.000000 1.861520 
# 
# From -- ./inp_files/4530.got.cif
#   From: 2010.05.17/outbox.cif.g08.bks.cpg/sg41_3_cif.got.tgz:4530.got - 2010.06.03 18:54:24.
