data_PCOD9367765
_publ_section_title
;
Structure prediction by ZEFSAII (Michael W. Deem and Ramdas Pophale) SiO2 
 PCOD9367765
Probable space group: A B A 2
;
_chemical_formula_sum "Si O2"
_cell_formula_units_Z 64
_cell_length_a 29.562843
_cell_length_b 10.450664
_cell_length_c 9.905103
_cell_angle_alpha 90.000000
_cell_angle_beta 90.000000
_cell_angle_gamma 90.000000
_cell_volume 3060.194836
_symmetry_space_group_name_H-M "A B A 2"
_symmetry_group_IT_number 41
_symmetry_cell_setting 'orthorhombic'
loop_
_space_group_symop_operation_xyz
x,y,z
-x,-y,z
1/2-x,y,1/2+z
1/2+x,-y,1/2+z
x,1/2+y,1/2+z
-x,1/2-y,1/2+z
1/2-x,1/2+y,z
1/2+x,1/2-y,z
loop_
_atom_site_type_symbol
_atom_site_label
_atom_site_fract_x
_atom_site_fract_y
_atom_site_fract_z
Si Si1 0.891203 0.369453 0.981440
Si Si2 0.242534 0.342674 0.887929
Si Si3 0.376699 0.961495 0.229060
Si Si4 0.197868 0.755857 0.647884
Si Si5 0.974684 0.137395 0.674255
Si Si6 0.837948 0.502348 0.766908
Si Si7 0.993173 0.852229 0.383974
Si Si8 0.659646 0.610371 0.990627
O O1 0.875243 0.480809 0.880181
O O2 0.942806 0.340175 0.947400
O O3 0.858580 0.250491 0.951187
O O4 0.884043 0.417320 0.133390
O O5 0.261503 0.272181 0.755659
O O6 0.207637 0.449581 0.838369
O O7 0.286787 0.396725 0.964504
O O8 0.216978 0.255902 0.997102
O O9 0.335202 0.877109 0.170425
O O10 0.423149 0.882528 0.220009
O O11 0.364446 0.984636 0.385246
O O12 0.171892 0.628341 0.687099
O O13 0.996899 0.248349 0.765404
O O14 0.975398 0.169587 0.514899
O O15 0.000000 0.000000 0.689186
O O16 0.851798 0.595394 0.646604
O O17 0.000000 0.000000 0.338643
#
# Coordination Sequence:
#
# PCOD9367765 Si02
#       8
#     8   8   8   8   8   8   8   8
#     4  12  23  47  70  94 141 175 219 289 338 401
#     4  11  23  40  61  96 130 175 228 271 334 388
#     4  11  22  47  68  93 142 177 214 283 343 392
#     4  11  24  41  66  94 134 178 222 287 327 399
#     4  11  23  46  71 105 138 180 225 278 346 420
#     4  12  25  42  68  97 134 177 231 276 336 399
#     4  11  24  45  74 104 138 178 227 281 350 415
#     4  11  26  42  64 101 131 178 225 277 335 402
#
# _framework density 20.913701
#
# number of rings (size 3 to 8) (size 9 to 14) (size 15 to 20)
#    0.000    0.750    8.750    0.000    1.750    4.500 
#    4.500    0.000    0.000    0.000    0.000    0.000 
#    0.000    0.000    0.000    0.000    0.000    0.000 
#
# Total GULP energy -178800.220846 kJ/mol
# GULP energy per Si atom -5587.506901 kJ/mol
# Density = 2.086610 g / cm^3
# Si number density = 20.913701 Si / 1000 Ang^3
#
#
#
# Elastic Constant Matrix: (Units=GPa)
#
#
# Indices 1 2 3 4 5 6 
#
# 1 51.3408 -16.9290 3.9342 0.0000 0.0000 0.0000
# 2 -16.9290 55.5611 27.1665 0.0000 0.0000 0.0000
# 3 3.9342 27.1665 93.2297 0.0000 0.0000 0.0000
# 4 0.0000 0.0000 0.0000 36.8742 0.0000 0.0000
# 5 0.0000 0.0000 0.0000 0.0000 25.2404 0.0000
# 6 0.0000 0.0000 0.0000 0.0000 0.0000 17.9641
#
#
#
# Elastic Compliance Matrix: (Units=1/GPa)
#
#
# Indices 1 2 3 4 5 6 
#
# 1 0.022564 0.008560 -0.003447 0.000000 0.000000 0.000000
# 2 0.008560 0.024236 -0.007424 0.000000 0.000000 0.000000
# 3 -0.003447 -0.007424 0.013035 0.000000 0.000000 0.000000
# 4 0.000000 0.000000 0.000000 0.027119 0.000000 0.000000
# 5 0.000000 0.000000 0.000000 0.000000 0.039619 0.000000
# 6 0.000000 0.000000 0.000000 0.000000 0.000000 0.055666
#
#
# Mechanical properties :
#
#
# Convention : Reuss Voigt Hill
#
# Bulk Modulus (GPa) = 18.11069 25.38612 21.74840
# Shear Modulus (GPa) = 24.35877 28.41309 26.38593
#
# Velocity S-wave (km/s) = 3.41651 3.68990 3.55584
# Velocity P-wave (km/s) = 4.92361 5.50624 5.22306
#
# Compressibility (1/GPa) = 0.05521601
#
# Stress axis : x y z
#
# Youngs Moduli (GPa) = 44.31745 41.26063 76.71770
#
# Poissons Ratio (x) = -0.35321 0.26442
# Poissons Ratio (y) = -0.37938 0.56951
# Poissons Ratio (z) = 0.15275 0.30630
#
# Static dielectric constant tensor:
#      x y z
#    x 1.729100 0.000000 0.000000 
#    y 0.000000 1.755910 0.000000 
#    z 0.000000 0.000000 1.752770 
# 
# From -- ./inp_files/3976.got.cif
#   From: 2010.05.17/outbox.cif.g08.bks.cpg/sg41_2_cif.got.tgz:3976.got - 2010.06.03 18:54:24.
