data_PCOD9367187
_publ_section_title
;
Structure prediction by ZEFSAII (Michael W. Deem and Ramdas Pophale) SiO2 
 PCOD9367187
Probable space group: A B A 2
;
_chemical_formula_sum "Si O2"
_cell_formula_units_Z 56
_cell_length_a 19.552339
_cell_length_b 9.790192
_cell_length_c 10.740907
_cell_angle_alpha 90.000000
_cell_angle_beta 90.000000
_cell_angle_gamma 90.000000
_cell_volume 2056.036801
_symmetry_space_group_name_H-M "A B A 2"
_symmetry_group_IT_number 41
_symmetry_cell_setting 'orthorhombic'
loop_
_space_group_symop_operation_xyz
x,y,z
-x,-y,z
1/2-x,y,1/2+z
1/2+x,-y,1/2+z
x,1/2+y,1/2+z
-x,1/2-y,1/2+z
1/2-x,1/2+y,z
1/2+x,1/2-y,z
loop_
_atom_site_type_symbol
_atom_site_label
_atom_site_fract_x
_atom_site_fract_y
_atom_site_fract_z
Si Si1 0.186282 0.604049 0.049410
Si Si2 0.072350 0.005104 0.731885
Si Si3 0.935381 0.217959 0.354790
Si Si4 0.089140 0.699797 0.828064
Si Si5 0.209868 0.788144 0.448526
Si Si6 0.199653 0.477875 0.428785
Si Si7 0.921426 0.523896 0.622244
O O1 0.133745 0.562802 0.152734
O O2 0.229584 0.467041 0.015541
O O3 0.245149 0.717654 0.062692
O O4 0.141927 0.651977 0.931451
O O5 0.090891 0.857732 0.786416
O O6 0.059331 0.119459 0.836945
O O7 0.000000 0.000000 0.661733
O O8 0.872489 0.178823 0.443687
O O9 0.921041 0.149233 0.219888
O O10 0.012757 0.173158 0.383881
O O11 0.097147 0.607720 0.705314
O O12 0.201154 0.631069 0.382934
O O13 0.264758 0.859957 0.349773
O O14 0.135386 0.453789 0.517132
O O15 0.000000 0.500000 0.580764
#
# Coordination Sequence:
#
# PCOD9367187 Si02
#       7
#     8   8   8   8   8   8   8
#     4  10  24  40  68 101 139 174 233 280 353 417
#     4  10  23  42  69 104 141 185 238 292 350 425
#     4  10  22  44  67  96 141 183 231 291 354 419
#     4  10  23  43  70 103 136 188 233 290 359 415
#     4  10  24  42  61  96 137 174 230 282 350 422
#     4  10  24  42  60 102 129 175 232 277 355 421
#     4  10  22  43  68  94 138 183 229 292 358 412
#
# _framework density 27.236868999999999
#
# number of rings (size 3 to 8) (size 9 to 14) (size 15 to 20)
#    0.857    1.143    0.000    1.714    4.000    5.143 
#    7.714    0.000    0.000    0.000    0.000    0.000 
#    0.000    0.000    0.000    0.000    0.000    0.000 
#
# Total GULP energy -156319.199979 kJ/mol
# GULP energy per Si atom -5582.828571 kJ/mol
# Density = 2.717488 g / cm^3
# Si number density = 27.236869 Si / 1000 Ang^3
#
#
#
# Elastic Constant Matrix: (Units=GPa)
#
#
# Indices 1 2 3 4 5 6 
#
# 1 200.5396 22.5132 60.5607 0.0000 0.0000 0.0000
# 2 22.5132 180.3016 39.9399 0.0000 0.0000 0.0000
# 3 60.5607 39.9399 83.7987 0.0000 0.0000 0.0000
# 4 0.0000 0.0000 0.0000 21.6556 0.0000 0.0000
# 5 0.0000 0.0000 0.0000 0.0000 48.3031 0.0000
# 6 0.0000 0.0000 0.0000 0.0000 0.0000 46.1196
#
#
#
# Elastic Compliance Matrix: (Units=1/GPa)
#
#
# Indices 1 2 3 4 5 6 
#
# 1 0.006389 0.000252 -0.004737 0.000000 0.000000 0.000000
# 2 0.000252 0.006211 -0.003142 0.000000 0.000000 0.000000
# 3 -0.004737 -0.003142 0.016854 0.000000 0.000000 0.000000
# 4 0.000000 0.000000 0.000000 0.046177 0.000000 0.000000
# 5 0.000000 0.000000 0.000000 0.000000 0.020703 0.000000
# 6 0.000000 0.000000 0.000000 0.000000 0.000000 0.021683
#
#
# Mechanical properties :
#
#
# Convention : Reuss Voigt Hill
#
# Bulk Modulus (GPa) = 70.42736 78.96309 74.69523
# Shear Modulus (GPa) = 36.23059 45.99073 41.11066
#
# Velocity S-wave (km/s) = 3.65115 4.11365 3.88928
# Velocity P-wave (km/s) = 6.60969 7.18450 6.90308
#
# Compressibility (1/GPa) = 0.01419903
#
# Stress axis : x y z
#
# Youngs Moduli (GPa) = 156.52265 161.00827 59.33176
#
# Poissons Ratio (x) = -0.04051 0.28106
# Poissons Ratio (y) = -0.03938 0.18642
# Poissons Ratio (z) = 0.74146 0.50589
#
# Static dielectric constant tensor:
#      x y z
#    x 2.301230 0.000000 0.000000 
#    y 0.000000 2.481220 0.000000 
#    z 0.000000 0.000000 2.146450 
# 
# From -- ./inp_files/9033.got.cif
#   From: 2010.05.17/outbox.cif.g08.bks.cpg/sg41_5_cif.got.tgz:9033.got - 2010.06.03 18:54:24.
