data_PCOD9367266
_publ_section_title
;
Structure prediction by ZEFSAII (Michael W. Deem and Ramdas Pophale) SiO2 
 PCOD9367266
Probable space group: A B A 2
;
_chemical_formula_sum "Si O2"
_cell_formula_units_Z 56
_cell_length_a 22.362855
_cell_length_b 13.924070
_cell_length_c 8.729296
_cell_angle_alpha 90.000000
_cell_angle_beta 90.000000
_cell_angle_gamma 90.000000
_cell_volume 2718.145284
_symmetry_space_group_name_H-M "A B A 2"
_symmetry_group_IT_number 41
_symmetry_cell_setting 'orthorhombic'
loop_
_space_group_symop_operation_xyz
x,y,z
-x,-y,z
1/2-x,y,1/2+z
1/2+x,-y,1/2+z
x,1/2+y,1/2+z
-x,1/2-y,1/2+z
1/2-x,1/2+y,z
1/2+x,1/2-y,z
loop_
_atom_site_type_symbol
_atom_site_label
_atom_site_fract_x
_atom_site_fract_y
_atom_site_fract_z
Si Si1 0.911982 0.450686 0.668210
Si Si2 0.000000 0.000000 0.920107
Si Si3 0.216051 0.723845 0.027148
Si Si4 0.835328 0.767939 0.192799
Si Si5 0.683601 0.097846 0.709214
Si Si6 0.800018 0.006335 0.547110
Si Si7 0.081745 0.406310 0.170091
Si Si8 0.000000 0.500000 0.926291
O O1 0.859405 0.375120 0.684538
O O2 0.879047 0.552857 0.654260
O O3 0.952303 0.447827 0.819073
O O4 0.956782 0.437422 0.527746
O O5 0.956634 0.063803 0.816202
O O6 0.285807 0.742537 0.061483
O O7 0.184848 0.790664 0.156778
O O8 0.205495 0.609121 0.036033
O O9 0.195004 0.753672 0.857423
O O10 0.891770 0.699489 0.173117
O O11 0.740007 0.049232 0.622121
O O12 0.690189 0.061275 0.884793
O O13 0.858446 0.029551 0.648709
O O14 0.037507 0.427444 0.030011
#
# Coordination Sequence:
#
# PCOD9367266 Si02
#       8
#     8   4   8   8   8   8   8   4
#     4  11  23  45  68  98 134 184 233 288 347 417
#     4  10  26  44  68  94 134 190 236 290 342 404
#     4  12  24  42  66 108 141 182 216 281 361 431
#     4  12  25  41  68 100 141 174 233 278 356 425
#     4  12  24  41  71 101 143 179 224 289 354 425
#     4  12  24  43  69 101 141 182 225 288 355 424
#     4  11  24  45  66  99 135 181 235 288 341 419
#     4  10  22  46  68  84 136 186 232 286 342 390
#
# _framework density 20.602281999999999
#
# number of rings (size 3 to 8) (size 9 to 14) (size 15 to 20)
#    0.000    0.571    5.714    1.714    2.000    2.286 
#    0.000    5.714    0.000    0.000    0.000    0.000 
#    0.000    0.000    0.000    0.000    0.000    0.000 
#
# Total GULP energy -156456.733610 kJ/mol
# GULP energy per Si atom -5587.740486 kJ/mol
# Density = 2.055539 g / cm^3
# Si number density = 20.602282 Si / 1000 Ang^3
#
#
#
# Elastic Constant Matrix: (Units=GPa)
#
#
# Indices 1 2 3 4 5 6 
#
# 1 86.4289 -7.2604 43.6849 0.0000 0.0000 0.0000
# 2 -7.2604 83.9112 24.0020 0.0000 0.0000 0.0000
# 3 43.6849 24.0020 108.0858 0.0000 0.0000 0.0000
# 4 0.0000 0.0000 0.0000 36.0425 0.0000 0.0000
# 5 0.0000 0.0000 0.0000 0.0000 23.2051 0.0000
# 6 0.0000 0.0000 0.0000 0.0000 0.0000 32.8095
#
#
#
# Elastic Compliance Matrix: (Units=1/GPa)
#
#
# Indices 1 2 3 4 5 6 
#
# 1 0.015358 0.003315 -0.006943 0.000000 0.000000 0.000000
# 2 0.003315 0.013441 -0.004325 0.000000 0.000000 0.000000
# 3 -0.006943 -0.004325 0.013019 0.000000 0.000000 0.000000
# 4 0.000000 0.000000 0.000000 0.027745 0.000000 0.000000
# 5 0.000000 0.000000 0.000000 0.000000 0.043094 0.000000
# 6 0.000000 0.000000 0.000000 0.000000 0.000000 0.030479
#
#
# Mechanical properties :
#
#
# Convention : Reuss Voigt Hill
#
# Bulk Modulus (GPa) = 38.59245 44.36431 41.47838
# Shear Modulus (GPa) = 29.81883 32.94472 31.38178
#
# Velocity S-wave (km/s) = 3.80854 4.00319 3.90708
# Velocity P-wave (km/s) = 6.17355 6.55346 6.36634
#
# Compressibility (1/GPa) = 0.02591180
#
# Stress axis : x y z
#
# Youngs Moduli (GPa) = 65.11185 74.39812 76.81338
#
# Poissons Ratio (x) = -0.24663 0.53335
# Poissons Ratio (y) = -0.21584 0.33219
# Poissons Ratio (z) = 0.45210 0.32174
#
# Static dielectric constant tensor:
#      x y z
#    x 1.720090 0.000000 0.000000 
#    y 0.000000 1.676300 0.000000 
#    z 0.000000 0.000000 1.755170 
# 
# From -- ./inp_files/3445.got.cif
#   From: 2010.05.17/outbox.cif.g08.bks.cpg/sg41_2_cif.got.tgz:3445.got - 2010.06.03 18:54:24.
