data_PCOD9367792
_publ_section_title
;
Structure prediction by ZEFSAII (Michael W. Deem and Ramdas Pophale) SiO2 
 PCOD9367792
Probable space group: A B A 2
;
_chemical_formula_sum "Si O2"
_cell_formula_units_Z 48
_cell_length_a 27.137256
_cell_length_b 8.393745
_cell_length_c 8.702022
_cell_angle_alpha 90.000000
_cell_angle_beta 90.000000
_cell_angle_gamma 90.000000
_cell_volume 1982.174477
_symmetry_space_group_name_H-M "A B A 2"
_symmetry_group_IT_number 41
_symmetry_cell_setting 'orthorhombic'
loop_
_space_group_symop_operation_xyz
x,y,z
-x,-y,z
1/2-x,y,1/2+z
1/2+x,-y,1/2+z
x,1/2+y,1/2+z
-x,1/2-y,1/2+z
1/2-x,1/2+y,z
1/2+x,1/2-y,z
loop_
_atom_site_type_symbol
_atom_site_label
_atom_site_fract_x
_atom_site_fract_y
_atom_site_fract_z
Si Si1 0.951167 0.445522 0.618670
Si Si2 0.549047 0.604688 0.552703
Si Si3 0.196373 0.548318 0.352741
Si Si4 0.133327 0.563345 0.861705
Si Si5 0.220796 0.396126 0.696871
Si Si6 0.599550 0.606469 0.876118
O O1 0.959708 0.289981 0.515269
O O2 0.901974 0.421972 0.714206
O O3 0.937368 0.593403 0.515108
O O4 0.000000 0.500000 0.707586
O O5 0.500000 0.500000 0.535121
O O6 0.598466 0.540410 0.471176
O O7 0.564680 0.611898 0.730151
O O8 0.212321 0.480503 0.526059
O O9 0.222122 0.424291 0.236793
O O10 0.137440 0.538395 0.357302
O O11 0.209884 0.716565 0.265285
O O12 0.185542 0.497567 0.811212
O O13 0.134758 0.744646 0.915671
#
# Coordination Sequence:
#
# PCOD9367792 Si02
#       6
#     8   8   8   8   8   8
#     4  11  23  43  66  96 138 180 236 293 361 429
#     4  11  25  41  66 101 137 187 239 297 358 434
#     4  12  27  47  75 107 147 190 238 304 366 445
#     4  11  25  43  69 100 140 181 239 293 363 434
#     4  12  27  47  75 107 147 188 242 298 372 441
#     4  11  25  43  69 101 139 184 236 293 366 427
#
# _framework density 24.215828999999999
#
# number of rings (size 3 to 8) (size 9 to 14) (size 15 to 20)
#    0.000    0.667    1.667    5.000    7.000    6.667 
#    0.000    0.000    0.000    0.000    0.000    0.000 
#    0.000    0.000    0.000    0.000    0.000    0.000 
#
# Total GULP energy -133649.438077 kJ/mol
# GULP energy per Si atom -5568.726587 kJ/mol
# Density = 2.416071 g / cm^3
# Si number density = 24.215829 Si / 1000 Ang^3
#
#
#
# Elastic Constant Matrix: (Units=GPa)
#
#
# Indices 1 2 3 4 5 6 
#
# 1 70.6010 -6.7528 -0.7984 0.0000 0.0000 0.0000
# 2 -6.7528 92.8976 9.8031 0.0000 0.0000 0.0000
# 3 -0.7984 9.8031 60.1906 0.0000 0.0000 0.0000
# 4 0.0000 0.0000 0.0000 20.2536 0.0000 0.0000
# 5 0.0000 0.0000 0.0000 0.0000 58.4692 0.0000
# 6 0.0000 0.0000 0.0000 0.0000 0.0000 46.0840
#
#
#
# Elastic Compliance Matrix: (Units=1/GPa)
#
#
# Indices 1 2 3 4 5 6 
#
# 1 0.014263 0.001035 0.000021 0.000000 0.000000 0.000000
# 2 0.001035 0.011028 -0.001782 0.000000 0.000000 0.000000
# 3 0.000021 -0.001782 0.016904 0.000000 0.000000 0.000000
# 4 0.000000 0.000000 0.000000 0.049374 0.000000 0.000000
# 5 0.000000 0.000000 0.000000 0.000000 0.017103 0.000000
# 6 0.000000 0.000000 0.000000 0.000000 0.000000 0.021700
#
#
# Mechanical properties :
#
#
# Convention : Reuss Voigt Hill
#
# Bulk Modulus (GPa) = 24.54501 25.35479 24.94990
# Shear Modulus (GPa) = 34.38633 39.72383 37.05508
#
# Velocity S-wave (km/s) = 3.77237 4.05459 3.91602
# Velocity P-wave (km/s) = 5.39743 5.69321 5.54729
#
# Compressibility (1/GPa) = 0.04074148
#
# Stress axis : x y z
#
# Youngs Moduli (GPa) = 70.11000 90.67961 59.15602
#
# Poissons Ratio (x) = -0.09382 -0.00122
# Poissons Ratio (y) = -0.07254 0.10544
# Poissons Ratio (z) = -0.00145 0.16162
#
# Static dielectric constant tensor:
#      x y z
#    x 1.818100 0.000000 0.000000 
#    y 0.000000 2.089850 0.000000 
#    z 0.000000 0.000000 2.022510 
# 
# From -- ./inp_files/3928.got.cif
#   From: 2010.05.17/outbox.cif.g08.bks.cpg/sg41_2_cif.got.tgz:3928.got - 2010.06.03 18:54:24.
