data_PCOD9367418
_publ_section_title
;
Structure prediction by ZEFSAII (Michael W. Deem and Ramdas Pophale) SiO2 
 PCOD9367418
Probable space group: A B A 2
;
_chemical_formula_sum "Si O2"
_cell_formula_units_Z 60
_cell_length_a 23.025116
_cell_length_b 9.783650
_cell_length_c 11.337598
_cell_angle_alpha 90.000000
_cell_angle_beta 90.000000
_cell_angle_gamma 90.000000
_cell_volume 2554.017030
_symmetry_space_group_name_H-M "A B A 2"
_symmetry_group_IT_number 41
_symmetry_cell_setting 'orthorhombic'
loop_
_space_group_symop_operation_xyz
x,y,z
-x,-y,z
1/2-x,y,1/2+z
1/2+x,-y,1/2+z
x,1/2+y,1/2+z
-x,1/2-y,1/2+z
1/2-x,1/2+y,z
1/2+x,1/2-y,z
loop_
_atom_site_type_symbol
_atom_site_label
_atom_site_fract_x
_atom_site_fract_y
_atom_site_fract_z
Si Si1 0.339192 0.452267 0.876910
Si Si2 0.244569 0.130250 0.247711
Si Si3 0.290904 0.885580 0.613243
Si Si4 0.028987 0.256525 0.535212
Si Si5 0.377768 0.673136 0.353878
Si Si6 0.086012 0.905584 0.239383
Si Si7 0.936657 0.362144 0.368198
Si Si8 0.000000 0.000000 0.659241
O O1 0.300129 0.561624 0.809091
O O2 0.370338 0.328534 0.806928
O O3 0.389922 0.544457 0.934616
O O4 0.300151 0.372906 0.973767
O O5 0.255118 0.278412 0.191713
O O6 0.188368 0.119162 0.333660
O O7 0.233953 0.035001 0.134976
O O8 0.353988 0.885919 0.671048
O O9 0.088853 0.195825 0.478680
O O10 0.038949 0.354561 0.645841
O O11 0.996630 0.340254 0.434667
O O12 0.989015 0.130125 0.576588
O O13 0.416325 0.559854 0.286729
O O14 0.085661 0.790331 0.340888
O O15 0.950219 0.439552 0.245051
#
# Coordination Sequence:
#
# PCOD9367418 Si02
#       8
#     8   8   8   8   8   8   8   4
#     4  12  25  46  71 101 145 187 239 301 365 431
#     4  11  25  47  70 104 144 183 241 303 357 432
#     4  11  24  45  70 103 137 188 236 293 362 432
#     4  11  23  48  73 105 147 189 241 297 364 436
#     4  11  24  46  72 104 145 188 237 301 360 429
#     4  10  23  45  73 102 140 187 238 288 357 426
#     4  11  24  48  71 105 147 188 241 302 360 431
#     4  10  24  44  70 106 138 184 236 298 356 420
#
# _framework density 23.492404000000001
#
# number of rings (size 3 to 8) (size 9 to 14) (size 15 to 20)
#    0.000    1.067    4.000    1.600    1.867    0.000 
#   16.800    0.000    0.000    0.000    0.000    0.000 
#    0.000    0.000    0.000    0.000    0.000    0.000 
#
# Total GULP energy -167424.974367 kJ/mol
# GULP energy per Si atom -5580.832479 kJ/mol
# Density = 2.343893 g / cm^3
# Si number density = 23.492404 Si / 1000 Ang^3
#
#
#
# Elastic Constant Matrix: (Units=GPa)
#
#
# Indices 1 2 3 4 5 6 
#
# 1 51.7025 37.8487 18.0916 0.0000 0.0000 0.0000
# 2 37.8487 125.7416 45.8369 0.0000 0.0000 0.0000
# 3 18.0916 45.8369 67.4331 0.0000 0.0000 0.0000
# 4 0.0000 0.0000 0.0000 36.2015 0.0000 0.0000
# 5 0.0000 0.0000 0.0000 0.0000 17.5360 0.0000
# 6 0.0000 0.0000 0.0000 0.0000 0.0000 35.6493
#
#
#
# Elastic Compliance Matrix: (Units=1/GPa)
#
#
# Indices 1 2 3 4 5 6 
#
# 1 0.025034 -0.006763 -0.002119 0.000000 0.000000 0.000000
# 2 -0.006763 0.012399 -0.006614 0.000000 0.000000 0.000000
# 3 -0.002119 -0.006614 0.019894 0.000000 0.000000 0.000000
# 4 0.000000 0.000000 0.000000 0.027623 0.000000 0.000000
# 5 0.000000 0.000000 0.000000 0.000000 0.057025 0.000000
# 6 0.000000 0.000000 0.000000 0.000000 0.000000 0.028051
#
#
# Mechanical properties :
#
#
# Convention : Reuss Voigt Hill
#
# Bulk Modulus (GPa) = 37.97257 49.82575 43.89916
# Shear Modulus (GPa) = 23.83254 27.41735 25.62495
#
# Velocity S-wave (km/s) = 3.18854 3.41995 3.30627
# Velocity P-wave (km/s) = 5.45478 6.07043 5.77082
#
# Compressibility (1/GPa) = 0.02633480
#
# Stress axis : x y z
#
# Youngs Moduli (GPa) = 39.94624 80.64899 50.26654
#
# Poissons Ratio (x) = 0.54540 0.10654
# Poissons Ratio (y) = 0.27014 0.33246
# Poissons Ratio (z) = 0.08467 0.53341
#
# Static dielectric constant tensor:
#      x y z
#    x 1.925620 0.000000 0.000000 
#    y 0.000000 1.899440 0.000000 
#    z 0.000000 0.000000 1.889960 
# 
# From -- ./inp_files/6631.got.cif
#   From: 2010.05.17/outbox.cif.g08.bks.cpg/sg41_4_cif.got.tgz:6631.got - 2010.06.03 18:54:24.
