data_PCOD9367059
_publ_section_title
;
Structure prediction by ZEFSAII (Michael W. Deem and Ramdas Pophale) SiO2 
 PCOD9367059
Probable space group: A B A 2
;
_chemical_formula_sum "Si O2"
_cell_formula_units_Z 48
_cell_length_a 7.899438
_cell_length_b 27.361263
_cell_length_c 8.833801
_cell_angle_alpha 90.000000
_cell_angle_beta 90.000000
_cell_angle_gamma 90.000000
_cell_volume 1909.325387
_symmetry_space_group_name_H-M "A B A 2"
_symmetry_group_IT_number 41
_symmetry_cell_setting 'orthorhombic'
loop_
_space_group_symop_operation_xyz
x,y,z
-x,-y,z
1/2-x,y,1/2+z
1/2+x,-y,1/2+z
x,1/2+y,1/2+z
-x,1/2-y,1/2+z
1/2-x,1/2+y,z
1/2+x,1/2-y,z
loop_
_atom_site_type_symbol
_atom_site_label
_atom_site_fract_x
_atom_site_fract_y
_atom_site_fract_z
Si Si1 0.001465 0.200920 0.845990
Si Si2 0.087823 0.620972 0.866344
Si Si3 0.810994 0.547540 0.184102
Si Si4 0.713664 0.938201 0.128142
Si Si5 0.173134 0.714632 0.676256
Si Si6 0.207271 0.891863 0.948326
O O1 0.129691 0.201965 0.702833
O O2 0.860093 0.237184 0.778539
O O3 0.918646 0.148647 0.885398
O O4 0.096474 0.216426 0.005229
O O5 0.154027 0.579363 0.752670
O O6 0.096674 0.670728 0.773528
O O7 0.900685 0.623461 0.931406
O O8 0.215211 0.605263 0.003334
O O9 0.750744 0.496119 0.118888
O O10 0.801604 0.556336 0.361832
O O11 0.010483 0.557140 0.155957
O O12 0.696132 0.592103 0.121460
#
# Coordination Sequence:
#
# PCOD9367059 Si02
#       6
#     8   8   8   8   8   8
#     4  12  27  48  74 108 142 186 237 294 363 437
#     4  11  23  42  68 100 139 184 234 292 352 422
#     4  10  22  41  64  96 139 184 234 291 348 421
#     4  10  22  40  65  98 137 184 236 289 352 417
#     4  12  26  46  73 105 145 187 236 295 359 434
#     4  11  24  43  68  99 138 181 233 290 352 423
#
# _framework density 25.139768
#
# number of rings (size 3 to 8) (size 9 to 14) (size 15 to 20)
#    0.000    1.000    0.000    6.000    0.000    8.667 
#    0.000    0.000    0.000    0.000    0.000    0.000 
#    0.000    0.000    0.000    0.000    0.000    0.000 
#
# Total GULP energy -133703.625407 kJ/mol
# GULP energy per Si atom -5570.984392 kJ/mol
# Density = 2.508255 g / cm^3
# Si number density = 25.139768 Si / 1000 Ang^3
#
#
#
# Elastic Constant Matrix: (Units=GPa)
#
#
# Indices 1 2 3 4 5 6 
#
# 1 -391.4875 -248.9642 -139.5797 0.0000 0.0000 0.0000
# 2 -248.9642 -76.2551 -52.0986 0.0000 0.0000 0.0000
# 3 -139.5797 -52.0986 39.6678 0.0000 0.0000 0.0000
# 4 0.0000 0.0000 0.0000 24.5495 0.0000 0.0000
# 5 0.0000 0.0000 0.0000 0.0000 25.5208 0.0000
# 6 0.0000 0.0000 0.0000 0.0000 0.0000 33.4224
#
#
#
# Elastic Compliance Matrix: (Units=1/GPa)
#
#
# Indices 1 2 3 4 5 6 
#
# 1 0.002445 -0.007306 -0.000991 0.000000 0.000000 0.000000
# 2 -0.007306 0.014917 -0.006116 0.000000 0.000000 0.000000
# 3 -0.000991 -0.006116 0.013689 0.000000 0.000000 0.000000
# 4 0.000000 0.000000 0.000000 0.040734 0.000000 0.000000
# 5 0.000000 0.000000 0.000000 0.000000 0.039184 0.000000
# 6 0.000000 0.000000 0.000000 0.000000 0.000000 0.029920
#
#
# Mechanical properties :
#
#
# Convention : Reuss Voigt Hill
#
# Bulk Modulus (GPa) = 449.39968 -145.48443 151.95763
# Shear Modulus (GPa) = 29.33317 17.53638 23.43477
#
# Velocity S-wave (km/s) = 3.41956 2.64399 3.05647
# Velocity P-wave (km/s) = 13.95492 6.97674 8.54590
#
# Compressibility (1/GPa) = 0.00222519
#
# Stress axis : x y z
#
# Youngs Moduli (GPa) = 408.97882 67.03952 73.05221
#
# Poissons Ratio (x) = 0.48977 0.07242
# Poissons Ratio (y) = 2.98787 0.44676
# Poissons Ratio (z) = 0.40546 0.40999
#
# Static dielectric constant tensor:
#      x y z
#    x 1.171270 0.000000 0.000000 
#    y 0.000000 1.888710 0.000000 
#    z 0.000000 0.000000 2.121470 
# 
# From -- ./inp_files/1803.got.cif
#   From: 2010.05.17/outbox.cif.g08.bks.cpg/sg41_1_cif.got.tgz:1803.got - 2010.06.03 18:54:24.
