data_PCOD9367333
_publ_section_title
;
Structure prediction by ZEFSAII (Michael W. Deem and Ramdas Pophale) SiO2 
 PCOD9367333
Probable space group: A B A 2
;
_chemical_formula_sum "Si O2"
_cell_formula_units_Z 40
_cell_length_a 8.632081
_cell_length_b 12.274288
_cell_length_c 13.960607
_cell_angle_alpha 90.000000
_cell_angle_beta 90.000000
_cell_angle_gamma 90.000000
_cell_volume 1479.163283
_symmetry_space_group_name_H-M "A B A 2"
_symmetry_group_IT_number 41
_symmetry_cell_setting 'orthorhombic'
loop_
_space_group_symop_operation_xyz
x,y,z
-x,-y,z
1/2-x,y,1/2+z
1/2+x,-y,1/2+z
x,1/2+y,1/2+z
-x,1/2-y,1/2+z
1/2-x,1/2+y,z
1/2+x,1/2-y,z
loop_
_atom_site_type_symbol
_atom_site_label
_atom_site_fract_x
_atom_site_fract_y
_atom_site_fract_z
Si Si1 0.713910 0.589284 0.045660
Si Si2 0.152107 0.566881 0.194214
Si Si3 0.606702 0.595569 0.367393
Si Si4 0.160967 0.219659 0.308388
Si Si5 0.475065 0.746808 0.097803
O O1 0.734242 0.514144 0.138286
O O2 0.544300 0.641573 0.045314
O O3 0.826000 0.694997 0.055254
O O4 0.800713 0.538648 0.954655
O O5 0.213449 0.626186 0.288115
O O6 0.098829 0.657154 0.117160
O O7 0.000000 0.500000 0.218874
O O8 0.500000 0.500000 0.321293
O O9 0.745024 0.668094 0.321312
O O10 0.469167 0.685547 0.384989
O O11 0.070105 0.217809 0.207289
#
# Coordination Sequence:
#
# PCOD9367333 Si02
#       5
#     8   8   8   8   8
#     4  11  24  45  72 104 147 197 251 311 391 455
#     4  10  23  41  75 101 142 193 260 311 367 471
#     4  12  28  46  74 112 162 201 249 333 398 459
#     4  12  25  45  74 112 149 201 257 316 386 456
#     4  11  21  44  72 101 141 197 255 307 367 472
#
# _framework density 27.042316
#
# number of rings (size 3 to 8) (size 9 to 14) (size 15 to 20)
#    0.000    0.800    4.000    3.000    8.400    0.000 
#    0.000    0.000    4.400    0.000    0.000    0.000 
#    0.000    0.000    0.000    0.000    0.000    0.000 
#
# Total GULP energy -111773.755309 kJ/mol
# GULP energy per Si atom -5588.687765 kJ/mol
# Density = 2.698077 g / cm^3
# Si number density = 27.042316 Si / 1000 Ang^3
#
#
#
# Elastic Constant Matrix: (Units=GPa)
#
#
# Indices 1 2 3 4 5 6 
#
# 1 79.3449 50.4180 17.9326 0.0000 0.0000 0.0000
# 2 50.4180 111.8511 28.2545 0.0000 0.0000 0.0000
# 3 17.9326 28.2545 65.0274 0.0000 0.0000 0.0000
# 4 0.0000 0.0000 0.0000 47.7164 0.0000 0.0000
# 5 0.0000 0.0000 0.0000 0.0000 29.6578 0.0000
# 6 0.0000 0.0000 0.0000 0.0000 0.0000 60.5839
#
#
#
# Elastic Compliance Matrix: (Units=1/GPa)
#
#
# Indices 1 2 3 4 5 6 
#
# 1 0.017809 -0.007624 -0.001599 0.000000 0.000000 0.000000
# 2 -0.007624 0.013306 -0.003679 0.000000 0.000000 0.000000
# 3 -0.001599 -0.003679 0.017418 0.000000 0.000000 0.000000
# 4 0.000000 0.000000 0.000000 0.020957 0.000000 0.000000
# 5 0.000000 0.000000 0.000000 0.000000 0.033718 0.000000
# 6 0.000000 0.000000 0.000000 0.000000 0.000000 0.016506
#
#
# Mechanical properties :
#
#
# Convention : Reuss Voigt Hill
#
# Bulk Modulus (GPa) = 43.99542 49.93708 46.96625
# Shear Modulus (GPa) = 32.65979 38.23285 35.44632
#
# Velocity S-wave (km/s) = 3.47901 3.76415 3.62439
# Velocity P-wave (km/s) = 5.69583 6.11540 5.90934
#
# Compressibility (1/GPa) = 0.02272964
#
# Stress axis : x y z
#
# Youngs Moduli (GPa) = 56.15203 75.15232 57.41314
#
# Poissons Ratio (x) = 0.57294 0.09178
# Poissons Ratio (y) = 0.42808 0.21124
# Poissons Ratio (z) = 0.08977 0.27650
#
# Static dielectric constant tensor:
#      x y z
#    x 2.222600 0.000000 0.000000 
#    y 0.000000 2.163600 0.000000 
#    z 0.000000 0.000000 2.261740 
# 
# From -- ./inp_files/9556.got.cif
#   From: 2010.05.17/outbox.cif.g08.bks.cpg/sg41_5_cif.got.tgz:9556.got - 2010.06.03 18:54:24.
