data_PCOD9367697
_publ_section_title
;
Structure prediction by ZEFSAII (Michael W. Deem and Ramdas Pophale) SiO2 
 PCOD9367697
Probable space group: A B A 2
;
_chemical_formula_sum "Si O2"
_cell_formula_units_Z 40
_cell_length_a 18.439287
_cell_length_b 17.731554
_cell_length_c 4.921366
_cell_angle_alpha 90.000000
_cell_angle_beta 90.000000
_cell_angle_gamma 90.000000
_cell_volume 1609.076112
_symmetry_space_group_name_H-M "A B A 2"
_symmetry_group_IT_number 41
_symmetry_cell_setting 'orthorhombic'
loop_
_space_group_symop_operation_xyz
x,y,z
-x,-y,z
1/2-x,y,1/2+z
1/2+x,-y,1/2+z
x,1/2+y,1/2+z
-x,1/2-y,1/2+z
1/2-x,1/2+y,z
1/2+x,1/2-y,z
loop_
_atom_site_type_symbol
_atom_site_label
_atom_site_fract_x
_atom_site_fract_y
_atom_site_fract_z
Si Si1 0.098089 0.938776 0.372740
Si Si2 0.793277 0.689609 0.028532
Si Si3 0.029394 0.364693 0.358084
Si Si4 0.600136 0.295513 0.177100
Si Si5 0.304780 0.084407 0.950513
O O1 0.163303 0.883907 0.455475
O O2 0.033888 0.911701 0.577729
O O3 0.134604 0.019408 0.410034
O O4 0.074886 0.915153 0.070749
O O5 0.723002 0.690695 0.845711
O O6 0.842535 0.760794 0.965653
O O7 0.060237 0.279694 0.296205
O O8 0.954433 0.348174 0.510653
O O9 0.647689 0.341346 0.391600
O O10 0.239273 0.079315 0.730599
#
# Coordination Sequence:
#
# PCOD9367697 Si02
#       5
#     8   8   8   8   8
#     4  11  24  45  70  98 135 184 231 279 346 420
#     4  11  21  36  63  95 130 173 218 270 335 405
#     4  11  25  45  71  99 137 185 232 281 340 424
#     4  11  25  45  70 103 138 177 233 290 348 407
#     4  12  27  47  72 106 144 181 232 300 357 415
#
# _framework density 24.858986999999999
#
# number of rings (size 3 to 8) (size 9 to 14) (size 15 to 20)
#    0.000    0.800    0.000    8.400    0.000    8.800 
#    0.000    4.000    0.000    0.000    0.000    0.000 
#    0.000    0.000    0.000    0.000    0.000    0.000 
#
# Total GULP energy -111963.349203 kJ/mol
# GULP energy per Si atom -5598.167460 kJ/mol
# Density = 2.480241 g / cm^3
# Si number density = 24.858987 Si / 1000 Ang^3
#
#
#
# Elastic Constant Matrix: (Units=GPa)
#
#
# Indices 1 2 3 4 5 6 
#
# 1 37.1978 -19.5963 -9.4844 0.0000 0.0000 0.0000
# 2 -19.5963 74.8752 0.1915 0.0000 0.0000 0.0000
# 3 -9.4844 0.1915 98.2362 0.0000 0.0000 0.0000
# 4 0.0000 0.0000 0.0000 17.5640 0.0000 0.0000
# 5 0.0000 0.0000 0.0000 0.0000 7.4677 0.0000
# 6 0.0000 0.0000 0.0000 0.0000 0.0000 -5.9546
#
#
#
# Elastic Compliance Matrix: (Units=1/GPa)
#
#
# Indices 1 2 3 4 5 6 
#
# 1 0.032089 0.008391 0.003082 0.000000 0.000000 0.000000
# 2 0.008391 0.015550 0.000780 0.000000 0.000000 0.000000
# 3 0.003082 0.000780 0.010476 0.000000 0.000000 0.000000
# 4 0.000000 0.000000 0.000000 0.056935 0.000000 0.000000
# 5 0.000000 0.000000 0.000000 0.000000 0.133910 0.000000
# 6 0.000000 0.000000 0.000000 0.000000 0.000000 -0.167936
#
#
# Mechanical properties :
#
#
# Convention : Reuss Voigt Hill
#
# Bulk Modulus (GPa) = 12.10381 16.94786 14.52583
# Shear Modulus (GPa) = 59.48271 19.76198 39.62235
#
# Velocity S-wave (km/s) = 4.89694 2.82257 3.99668
# Velocity P-wave (km/s) = 6.07066 4.17791 5.21094
#
# Compressibility (1/GPa) = 0.08261860
#
# Stress axis : x y z
#
# Youngs Moduli (GPa) = 31.16300 64.31059 95.46029
#
# Poissons Ratio (x) = -0.53960 -0.29419
# Poissons Ratio (y) = -0.26147 -0.07444
# Poissons Ratio (z) = -0.09604 -0.05015
#
# Static dielectric constant tensor:
#      x y z
#    x 2.029530 0.000000 0.000000 
#    y 0.000000 2.027310 0.000000 
#    z 0.000000 0.000000 1.943240 
# 
# From -- ./inp_files/430.got.cif
#   From: 2010.05.17/outbox.cif.g08.bks.cpg/sg41_1_cif.got.tgz:430.got - 2010.06.03 18:54:24.
