data_PCOD9367170
_publ_section_title
;
Structure prediction by ZEFSAII (Michael W. Deem and Ramdas Pophale) SiO2 
 PCOD9367170
Probable space group: A B A 2
;
_chemical_formula_sum "Si O2"
_cell_formula_units_Z 44
_cell_length_a 23.893725
_cell_length_b 13.900432
_cell_length_c 4.824257
_cell_angle_alpha 90.000000
_cell_angle_beta 90.000000
_cell_angle_gamma 90.000000
_cell_volume 1602.295431
_symmetry_space_group_name_H-M "A B A 2"
_symmetry_group_IT_number 41
_symmetry_cell_setting 'orthorhombic'
loop_
_space_group_symop_operation_xyz
x,y,z
-x,-y,z
1/2-x,y,1/2+z
1/2+x,-y,1/2+z
x,1/2+y,1/2+z
-x,1/2-y,1/2+z
1/2-x,1/2+y,z
1/2+x,1/2-y,z
loop_
_atom_site_type_symbol
_atom_site_label
_atom_site_fract_x
_atom_site_fract_y
_atom_site_fract_z
Si Si1 0.087014 0.380527 0.806910
Si Si2 0.500000 0.000000 0.129598
Si Si3 0.336504 0.358667 0.815824
Si Si4 0.562759 0.331871 0.901701
Si Si5 0.638285 0.352129 0.398616
Si Si6 0.218433 0.041377 0.005697
O O1 0.109340 0.389719 0.497259
O O2 0.053504 0.279639 0.826307
O O3 0.050257 0.464994 0.932219
O O4 0.142523 0.369604 0.001208
O O5 0.483036 0.090623 0.318967
O O6 0.326790 0.246941 0.874149
O O7 0.288538 0.429073 0.925423
O O8 0.616142 0.363253 0.709244
O O9 0.581687 0.332339 0.218963
O O10 0.668223 0.431500 0.209475
O O11 0.229747 0.078128 0.695400
#
# Coordination Sequence:
#
# PCOD9367170 Si02
#       6
#     8   4   8   8   8   8
#     4  10  23  40  63  91 124 169 214 255 312 385
#     4  12  24  40  68  96 132 166 212 280 324 356
#     4  10  22  43  62  84 125 168 204 252 318 383
#     4  10  23  40  63  91 124 169 214 255 312 385
#     4  10  22  43  62  84 125 168 204 252 318 383
#     4  12  24  37  62  95 120 151 208 265 314 380
#
# _framework density 27.460605999999999
#
# number of rings (size 3 to 8) (size 9 to 14) (size 15 to 20)
#    0.000    1.455    0.000    4.364    0.000    8.727 
#    0.000    0.000    0.000    0.000    0.000    0.000 
#    0.000    0.000    0.000    0.000    0.000    0.000 
#
# Total GULP energy -123211.407099 kJ/mol
# GULP energy per Si atom -5600.518505 kJ/mol
# Density = 2.739810 g / cm^3
# Si number density = 27.460606 Si / 1000 Ang^3
#
#
#
# Elastic Constant Matrix: (Units=GPa)
#
#
# Indices 1 2 3 4 5 6 
#
# 1 43.6903 10.9650 3.3085 0.0000 0.0000 0.0000
# 2 10.9650 132.6764 14.5195 0.0000 0.0000 0.0000
# 3 3.3085 14.5195 157.3055 0.0000 0.0000 0.0000
# 4 0.0000 0.0000 0.0000 41.4181 0.0000 0.0000
# 5 0.0000 0.0000 0.0000 0.0000 26.9322 0.0000
# 6 0.0000 0.0000 0.0000 0.0000 0.0000 33.2018
#
#
#
# Elastic Compliance Matrix: (Units=1/GPa)
#
#
# Indices 1 2 3 4 5 6 
#
# 1 0.023389 -0.001898 -0.000317 0.000000 0.000000 0.000000
# 2 -0.001898 0.007768 -0.000677 0.000000 0.000000 0.000000
# 3 -0.000317 -0.000677 0.006426 0.000000 0.000000 0.000000
# 4 0.000000 0.000000 0.000000 0.024144 0.000000 0.000000
# 5 0.000000 0.000000 0.000000 0.000000 0.037130 0.000000
# 6 0.000000 0.000000 0.000000 0.000000 0.000000 0.030119
#
#
# Mechanical properties :
#
#
# Convention : Reuss Voigt Hill
#
# Bulk Modulus (GPa) = 31.44757 43.47312 37.46034
# Shear Modulus (GPa) = 34.39733 40.63570 37.51652
#
# Velocity S-wave (km/s) = 3.54306 3.85097 3.70022
# Velocity P-wave (km/s) = 5.31173 5.96982 5.65036
#
# Compressibility (1/GPa) = 0.03179896
#
# Stress axis : x y z
#
# Youngs Moduli (GPa) = 42.75553 128.73133 155.61262
#
# Poissons Ratio (x) = 0.24437 0.04928
# Poissons Ratio (y) = 0.08116 0.10536
# Poissons Ratio (z) = 0.01354 0.08716
#
# Static dielectric constant tensor:
#      x y z
#    x 2.270170 0.000000 0.000000 
#    y 0.000000 2.111730 0.000000 
#    z 0.000000 0.000000 2.005670 
# 
# From -- ./inp_files/1305.got.cif
#   From: 2010.05.17/outbox.cif.g08.bks.cpg/sg41_1_cif.got.tgz:1305.got - 2010.06.03 18:54:24.
