data_PCOD9367229
_publ_section_title
;
Structure prediction by ZEFSAII (Michael W. Deem and Ramdas Pophale) SiO2 
 PCOD9367229
Probable space group: A B A 2
;
_chemical_formula_sum "Si O2"
_cell_formula_units_Z 48
_cell_length_a 15.559545
_cell_length_b 10.575225
_cell_length_c 12.040194
_cell_angle_alpha 90.000000
_cell_angle_beta 90.000000
_cell_angle_gamma 90.000000
_cell_volume 1981.162021
_symmetry_space_group_name_H-M "A B A 2"
_symmetry_group_IT_number 41
_symmetry_cell_setting 'orthorhombic'
loop_
_space_group_symop_operation_xyz
x,y,z
-x,-y,z
1/2-x,y,1/2+z
1/2+x,-y,1/2+z
x,1/2+y,1/2+z
-x,1/2-y,1/2+z
1/2-x,1/2+y,z
1/2+x,1/2-y,z
loop_
_atom_site_type_symbol
_atom_site_label
_atom_site_fract_x
_atom_site_fract_y
_atom_site_fract_z
Si Si1 0.633781 0.282308 0.419550
Si Si2 0.636546 0.032566 0.020977
Si Si3 0.583159 0.716063 0.689969
Si Si4 0.674631 0.930338 0.584503
Si Si5 0.666639 0.284423 0.878041
Si Si6 0.401137 0.323404 0.154912
O O1 0.595221 0.417954 0.452656
O O2 0.583348 0.213126 0.322260
O O3 0.730759 0.299545 0.377626
O O4 0.637156 0.209836 0.535028
O O5 0.587174 0.083032 0.128572
O O6 0.729126 0.980867 0.063642
O O7 0.646446 0.152083 0.939932
O O8 0.665773 0.795982 0.646781
O O9 0.501868 0.796290 0.649888
O O10 0.636774 0.897251 0.461087
O O11 0.625936 0.030658 0.662686
O O12 0.632255 0.265343 0.754314
#
# Coordination Sequence:
#
# PCOD9367229 Si02
#       6
#     8   8   8   8   8   8
#     4  11  25  42  71  99 136 189 232 287 357 418
#     4  10  22  45  71 100 134 182 246 286 343 429
#     4  11  26  43  70 101 146 183 233 297 365 417
#     4  10  22  44  71 100 133 189 239 288 348 427
#     4  10  23  43  71 101 136 184 242 289 345 429
#     4  12  25  45  69 106 145 180 236 296 362 425
#
# _framework density 24.228204999999999
#
# number of rings (size 3 to 8) (size 9 to 14) (size 15 to 20)
#    0.000    1.333    1.667    2.500    9.333    2.000 
#    0.000    0.000    0.000    0.000    0.000    0.000 
#    0.000    0.000    0.000    0.000    0.000    0.000 
#
# Total GULP energy -134209.339830 kJ/mol
# GULP energy per Si atom -5592.055826 kJ/mol
# Density = 2.417306 g / cm^3
# Si number density = 24.228205 Si / 1000 Ang^3
#
#
#
# Elastic Constant Matrix: (Units=GPa)
#
#
# Indices 1 2 3 4 5 6 
#
# 1 53.9020 -9.1657 29.1236 0.0000 0.0000 0.0000
# 2 -9.1657 56.1892 29.5791 0.0000 0.0000 0.0000
# 3 29.1236 29.5791 170.2696 0.0000 0.0000 0.0000
# 4 0.0000 0.0000 0.0000 40.5076 0.0000 0.0000
# 5 0.0000 0.0000 0.0000 0.0000 14.7995 0.0000
# 6 0.0000 0.0000 0.0000 0.0000 0.0000 23.1147
#
#
#
# Elastic Compliance Matrix: (Units=1/GPa)
#
#
# Indices 1 2 3 4 5 6 
#
# 1 0.022244 0.006198 -0.004881 0.000000 0.000000 0.000000
# 2 0.006198 0.021315 -0.004763 0.000000 0.000000 0.000000
# 3 -0.004881 -0.004763 0.007535 0.000000 0.000000 0.000000
# 4 0.000000 0.000000 0.000000 0.024687 0.000000 0.000000
# 5 0.000000 0.000000 0.000000 0.000000 0.067570 0.000000
# 6 0.000000 0.000000 0.000000 0.000000 0.000000 0.043263
#
#
# Mechanical properties :
#
#
# Convention : Reuss Voigt Hill
#
# Bulk Modulus (GPa) = 22.62358 42.15944 32.39151
# Shear Modulus (GPa) = 24.01075 31.07260 27.54167
#
# Velocity S-wave (km/s) = 3.15147 3.58508 3.37525
# Velocity P-wave (km/s) = 4.75398 5.88012 5.34678
#
# Compressibility (1/GPa) = 0.04420167
#
# Stress axis : x y z
#
# Youngs Moduli (GPa) = 44.95688 46.91438 132.70702
#
# Poissons Ratio (x) = -0.29078 0.64779
# Poissons Ratio (y) = -0.27864 0.63209
# Poissons Ratio (z) = 0.21945 0.22346
#
# Static dielectric constant tensor:
#      x y z
#    x 1.947740 0.000000 0.000000 
#    y 0.000000 2.001950 0.000000 
#    z 0.000000 0.000000 1.953910 
# 
# From -- ./inp_files/5932.got.cif
#   From: 2010.05.17/outbox.cif.g08.bks.cpg/sg41_3_cif.got.tgz:5932.got - 2010.06.03 18:54:24.
