data_PCOD9367753
_publ_section_title
;
Structure prediction by ZEFSAII (Michael W. Deem and Ramdas Pophale) SiO2 
 PCOD9367753
Probable space group: A B A 2
;
_chemical_formula_sum "Si O2"
_cell_formula_units_Z 56
_cell_length_a 12.009580
_cell_length_b 13.046340
_cell_length_c 14.917341
_cell_angle_alpha 90.000000
_cell_angle_beta 90.000000
_cell_angle_gamma 90.000000
_cell_volume 2337.264859
_symmetry_space_group_name_H-M "A B A 2"
_symmetry_group_IT_number 41
_symmetry_cell_setting 'orthorhombic'
loop_
_space_group_symop_operation_xyz
x,y,z
-x,-y,z
1/2-x,y,1/2+z
1/2+x,-y,1/2+z
x,1/2+y,1/2+z
-x,1/2-y,1/2+z
1/2-x,1/2+y,z
1/2+x,1/2-y,z
loop_
_atom_site_type_symbol
_atom_site_label
_atom_site_fract_x
_atom_site_fract_y
_atom_site_fract_z
Si Si1 0.895279 0.152092 0.723120
Si Si2 0.500000 0.500000 0.096758
Si Si3 0.130793 0.112743 0.237543
Si Si4 0.364450 0.401057 0.532732
Si Si5 0.128222 0.101682 0.825409
Si Si6 0.023428 0.702936 0.477048
Si Si7 0.000000 0.000000 0.385565
Si Si8 0.823570 0.120411 0.899314
O O1 0.895253 0.273199 0.701664
O O2 0.866800 0.080577 0.638081
O O3 0.793582 0.141821 0.795612
O O4 0.016816 0.118799 0.764193
O O5 0.396944 0.526796 0.162529
O O6 0.501778 0.603009 0.037280
O O7 0.257732 0.107813 0.270835
O O8 0.045867 0.086545 0.318810
O O9 0.451519 0.307616 0.524957
O O10 0.402184 0.479651 0.456264
O O11 0.248161 0.371882 0.488447
O O12 0.122669 0.183240 0.906344
O O13 0.129454 0.994541 0.881644
O O14 0.915963 0.706480 0.414988
#
# Coordination Sequence:
#
# PCOD9367753 Si02
#       8
#     8   4   8   8   8   8   4   8
#     4  11  25  44  73 107 147 195 255 310 367 463
#     4  11  22  44  71 102 146 186 247 306 373 440
#     4  11  24  46  69 106 147 198 244 309 380 441
#     4  12  26  45  72 111 146 190 252 309 370 448
#     4  11  23  46  73  99 147 199 238 307 382 442
#     4  11  22  46  71 102 143 189 245 305 366 455
#     4  11  24  44  69 104 152 192 243 318 367 442
#     4  11  24  46  70 102 145 196 240 306 385 437
#
# _framework density 23.959629
#
# number of rings (size 3 to 8) (size 9 to 14) (size 15 to 20)
#    0.000    0.857    4.286    3.857    2.000    2.286 
#    2.571    0.000    0.000    0.000    0.000    0.000 
#    0.000    0.000    0.000    0.000    0.000    0.000 
#
# Total GULP energy -155986.839397 kJ/mol
# GULP energy per Si atom -5570.958550 kJ/mol
# Density = 2.390510 g / cm^3
# Si number density = 23.959629 Si / 1000 Ang^3
#
#
#
# Elastic Constant Matrix: (Units=GPa)
#
#
# Indices 1 2 3 4 5 6 
#
# 1 84.9729 -10.6956 13.0399 0.0000 0.0000 0.0000
# 2 -10.6956 52.2190 -4.8877 0.0000 0.0000 0.0000
# 3 13.0399 -4.8877 118.2496 0.0000 0.0000 0.0000
# 4 0.0000 0.0000 0.0000 29.6193 0.0000 0.0000
# 5 0.0000 0.0000 0.0000 0.0000 32.8984 0.0000
# 6 0.0000 0.0000 0.0000 0.0000 0.0000 23.4497
#
#
#
# Elastic Compliance Matrix: (Units=1/GPa)
#
#
# Indices 1 2 3 4 5 6 
#
# 1 0.012262 0.002394 -0.001253 0.000000 0.000000 0.000000
# 2 0.002394 0.019692 0.000550 0.000000 0.000000 0.000000
# 3 -0.001253 0.000550 0.008618 0.000000 0.000000 0.000000
# 4 0.000000 0.000000 0.000000 0.033762 0.000000 0.000000
# 5 0.000000 0.000000 0.000000 0.000000 0.030397 0.000000
# 6 0.000000 0.000000 0.000000 0.000000 0.000000 0.042644
#
#
# Mechanical properties :
#
#
# Convention : Reuss Voigt Hill
#
# Bulk Modulus (GPa) = 22.75125 27.81718 25.28421
# Shear Modulus (GPa) = 31.51715 34.39249 32.95482
#
# Velocity S-wave (km/s) = 3.63082 3.79282 3.71270
# Velocity P-wave (km/s) = 5.20513 5.55121 5.38095
#
# Compressibility (1/GPa) = 0.04395364
#
# Stress axis : x y z
#
# Youngs Moduli (GPa) = 81.55178 50.78207 116.04134
#
# Poissons Ratio (x) = -0.12158 0.14543
# Poissons Ratio (y) = -0.19526 -0.06381
# Poissons Ratio (z) = 0.10220 -0.02793
#
# Static dielectric constant tensor:
#      x y z
#    x 1.732150 0.000000 0.000000 
#    y 0.000000 2.009100 0.000000 
#    z 0.000000 0.000000 2.022210 
# 
# From -- ./inp_files/7986.got.cif
#   From: 2010.05.17/outbox.cif.g08.bks.cpg/sg41_4_cif.got.tgz:7986.got - 2010.06.03 18:54:24.
