data_PCOD9367372
_publ_section_title
;
Structure prediction by ZEFSAII (Michael W. Deem and Ramdas Pophale) SiO2 
 PCOD9367372
Probable space group: A B A 2
;
_chemical_formula_sum "Si O2"
_cell_formula_units_Z 44
_cell_length_a 17.812892
_cell_length_b 7.537860
_cell_length_c 14.159989
_cell_angle_alpha 90.000000
_cell_angle_beta 90.000000
_cell_angle_gamma 90.000000
_cell_volume 1901.277102
_symmetry_space_group_name_H-M "A B A 2"
_symmetry_group_IT_number 41
_symmetry_cell_setting 'orthorhombic'
loop_
_space_group_symop_operation_xyz
x,y,z
-x,-y,z
1/2-x,y,1/2+z
1/2+x,-y,1/2+z
x,1/2+y,1/2+z
-x,1/2-y,1/2+z
1/2-x,1/2+y,z
1/2+x,1/2-y,z
loop_
_atom_site_type_symbol
_atom_site_label
_atom_site_fract_x
_atom_site_fract_y
_atom_site_fract_z
Si Si1 0.939894 0.240514 0.684240
Si Si2 0.983483 0.741748 0.976610
Si Si3 0.319579 0.441084 0.155921
Si Si4 0.665185 0.937071 0.246797
Si Si5 0.870288 0.565196 0.448450
Si Si6 0.500000 0.500000 0.334632
O O1 0.985655 0.215425 0.588242
O O2 0.873569 0.387926 0.670006
O O3 0.905676 0.053961 0.714736
O O4 0.986339 0.336832 0.765081
O O5 0.067840 0.778558 0.938800
O O6 0.946008 0.589101 0.913408
O O7 0.928183 0.905565 0.965780
O O8 0.237193 0.496616 0.188623
O O9 0.342640 0.269905 0.219084
O O10 0.323811 0.399556 0.043827
O O11 0.674700 0.002148 0.355893
#
# Coordination Sequence:
#
# PCOD9367372 Si02
#       6
#     8   8   8   8   8   4
#     4  11  24  45  67 101 140 172 235 288 341 415
#     4  10  23  43  70  99 131 178 224 292 345 408
#     4  11  25  45  66  99 137 181 225 289 338 415
#     4  12  24  44  69  97 133 186 226 276 353 416
#     4  10  23  46  66  98 137 173 233 283 344 417
#     4  12  22  44  72 102 138 184 230 290 356 408
#
# _framework density 23.142337999999999
#
# number of rings (size 3 to 8) (size 9 to 14) (size 15 to 20)
#    0.000    1.091    3.636    3.273    2.545    1.455 
#    3.273    0.000    0.000    0.000    0.000    0.000 
#    0.000    0.000    0.000    0.000    0.000    0.000 
#
# Total GULP energy -122738.255978 kJ/mol
# GULP energy per Si atom -5579.011635 kJ/mol
# Density = 2.308966 g / cm^3
# Si number density = 23.142338 Si / 1000 Ang^3
#
#
#
# Elastic Constant Matrix: (Units=GPa)
#
#
# Indices 1 2 3 4 5 6 
#
# 1 63.7681 1.9423 34.3883 0.0000 0.0000 0.0000
# 2 1.9423 92.8223 8.3079 0.0000 0.0000 0.0000
# 3 34.3883 8.3079 175.5965 0.0000 0.0000 0.0000
# 4 0.0000 0.0000 0.0000 27.9745 0.0000 0.0000
# 5 0.0000 0.0000 0.0000 0.0000 13.2455 0.0000
# 6 0.0000 0.0000 0.0000 0.0000 0.0000 26.8239
#
#
#
# Elastic Compliance Matrix: (Units=1/GPa)
#
#
# Indices 1 2 3 4 5 6 
#
# 1 0.017534 -0.000060 -0.003431 0.000000 0.000000 0.000000
# 2 -0.000060 0.010819 -0.000500 0.000000 0.000000 0.000000
# 3 -0.003431 -0.000500 0.006390 0.000000 0.000000 0.000000
# 4 0.000000 0.000000 0.000000 0.035747 0.000000 0.000000
# 5 0.000000 0.000000 0.000000 0.000000 0.075497 0.000000
# 6 0.000000 0.000000 0.000000 0.000000 0.000000 0.037280
#
#
# Mechanical properties :
#
#
# Convention : Reuss Voigt Hill
#
# Bulk Modulus (GPa) = 37.36679 46.82932 42.09806
# Shear Modulus (GPa) = 24.97872 32.77867 28.87869
#
# Velocity S-wave (km/s) = 3.28891 3.76758 3.53636
# Velocity P-wave (km/s) = 5.53210 6.26143 5.90803
#
# Compressibility (1/GPa) = 0.02676173
#
# Stress axis : x y z
#
# Youngs Moduli (GPa) = 57.03255 92.42747 156.48364
#
# Poissons Ratio (x) = 0.00553 0.53689
# Poissons Ratio (y) = 0.00341 0.07827
# Poissons Ratio (z) = 0.19568 0.04623
#
# Static dielectric constant tensor:
#      x y z
#    x 1.898720 0.000000 0.000000 
#    y 0.000000 8.613560 0.000000 
#    z 0.000000 0.000000 1.907360 
# 
# From -- ./inp_files/8679.got.cif
#   From: 2010.05.17/outbox.cif.g08.bks.cpg/sg41_5_cif.got.tgz:8679.got - 2010.06.03 18:54:24.
