data_PCOD9367030
_publ_section_title
;
Structure prediction by ZEFSAII (Michael W. Deem and Ramdas Pophale) SiO2 
 PCOD9367030
Probable space group: A B A 2
;
_chemical_formula_sum "Si O2"
_cell_formula_units_Z 56
_cell_length_a 16.857410
_cell_length_b 15.828225
_cell_length_c 7.645555
_cell_angle_alpha 90.000000
_cell_angle_beta 90.000000
_cell_angle_gamma 90.000000
_cell_volume 2040.008992
_symmetry_space_group_name_H-M "A B A 2"
_symmetry_group_IT_number 41
_symmetry_cell_setting 'orthorhombic'
loop_
_space_group_symop_operation_xyz
x,y,z
-x,-y,z
1/2-x,y,1/2+z
1/2+x,-y,1/2+z
x,1/2+y,1/2+z
-x,1/2-y,1/2+z
1/2-x,1/2+y,z
1/2+x,1/2-y,z
loop_
_atom_site_type_symbol
_atom_site_label
_atom_site_fract_x
_atom_site_fract_y
_atom_site_fract_z
Si Si1 0.906108 0.929419 0.629440
Si Si2 0.223196 0.122727 0.179298
Si Si3 0.615685 0.781522 0.912114
Si Si4 0.861216 0.105769 0.753188
Si Si5 0.436304 0.819299 0.742004
Si Si6 0.070309 0.163071 0.970024
Si Si7 0.811802 0.066654 0.152704
O O1 0.814786 0.896133 0.646836
O O2 0.930070 0.870698 0.463862
O O3 0.946842 0.898147 0.808570
O O4 0.904994 0.030965 0.644973
O O5 0.198804 0.187069 0.331509
O O6 0.195809 0.027935 0.220327
O O7 0.160422 0.150468 0.030195
O O8 0.600368 0.698838 0.784171
O O9 0.613549 0.735768 0.098778
O O10 0.773382 0.111832 0.667919
O O11 0.843460 0.070410 0.951937
O O12 0.512740 0.848886 0.633951
O O13 0.447762 0.756425 0.900322
O O14 0.376570 0.893101 0.778757
#
# Coordination Sequence:
#
# PCOD9367030 Si02
#       7
#     8   8   8   8   8   8   8
#     4  10  22  40  64  97 134 179 231 291 355 416
#     4  11  22  38  65  99 131 177 224 292 344 422
#     4  10  23  38  64  96 135 176 231 284 357 414
#     4  10  22  40  58  98 136 178 227 292 340 434
#     4  10  24  43  66  98 132 190 227 285 350 427
#     4  11  22  43  69  94 141 177 237 286 346 436
#     4  10  23  40  63  97 137 176 229 280 358 414
#
# _framework density 27.450861
#
# number of rings (size 3 to 8) (size 9 to 14) (size 15 to 20)
#    0.000    1.714    1.429    1.714   14.000    0.571 
#    0.000    0.000    0.000    0.000    0.000    0.000 
#    0.000    0.000    0.000    0.000    0.000    0.000 
#
# Total GULP energy -156467.641035 kJ/mol
# GULP energy per Si atom -5588.130037 kJ/mol
# Density = 2.738838 g / cm^3
# Si number density = 27.450861 Si / 1000 Ang^3
#
#
#
# Elastic Constant Matrix: (Units=GPa)
#
#
# Indices 1 2 3 4 5 6 
#
# 1 99.3761 61.2622 47.0044 0.0000 0.0000 0.0000
# 2 61.2622 157.1037 66.1292 0.0000 0.0000 0.0000
# 3 47.0044 66.1292 111.5639 0.0000 0.0000 0.0000
# 4 0.0000 0.0000 0.0000 38.2485 0.0000 0.0000
# 5 0.0000 0.0000 0.0000 0.0000 38.8731 0.0000
# 6 0.0000 0.0000 0.0000 0.0000 0.0000 58.8558
#
#
#
# Elastic Compliance Matrix: (Units=1/GPa)
#
#
# Indices 1 2 3 4 5 6 
#
# 1 0.014263 -0.004041 -0.003614 0.000000 0.000000 0.000000
# 2 -0.004041 0.009626 -0.004003 0.000000 0.000000 0.000000
# 3 -0.003614 -0.004003 0.012859 0.000000 0.000000 0.000000
# 4 0.000000 0.000000 0.000000 0.026145 0.000000 0.000000
# 5 0.000000 0.000000 0.000000 0.000000 0.025725 0.000000
# 6 0.000000 0.000000 0.000000 0.000000 0.000000 0.016991
#
#
# Mechanical properties :
#
#
# Convention : Reuss Voigt Hill
#
# Bulk Modulus (GPa) = 74.44997 79.64837 77.04917
# Shear Modulus (GPa) = 37.48051 40.10534 38.79293
#
# Velocity S-wave (km/s) = 3.69910 3.82643 3.76330
# Velocity P-wave (km/s) = 6.73977 6.97137 6.85655
#
# Compressibility (1/GPa) = 0.01343184
#
# Stress axis : x y z
#
# Youngs Moduli (GPa) = 70.11030 103.88584 77.76459
#
# Poissons Ratio (x) = 0.41975 0.28107
# Poissons Ratio (y) = 0.28328 0.31132
# Poissons Ratio (z) = 0.25341 0.41590
#
# Static dielectric constant tensor:
#      x y z
#    x 2.299750 0.000000 0.000000 
#    y 0.000000 2.128480 0.000000 
#    z 0.000000 0.000000 2.231440 
# 
# From -- ./inp_files/3428.got.cif
#   From: 2010.05.17/outbox.cif.g08.bks.cpg/sg41_2_cif.got.tgz:3428.got - 2010.06.03 18:54:24.
