data_PCOD9367055
_publ_section_title
;
Structure prediction by ZEFSAII (Michael W. Deem and Ramdas Pophale) SiO2 
 PCOD9367055
Probable space group: A B A 2
;
_chemical_formula_sum "Si O2"
_cell_formula_units_Z 40
_cell_length_a 8.754061
_cell_length_b 8.637543
_cell_length_c 18.011883
_cell_angle_alpha 90.000000
_cell_angle_beta 90.000000
_cell_angle_gamma 90.000000
_cell_volume 1361.942926
_symmetry_space_group_name_H-M "A B A 2"
_symmetry_group_IT_number 41
_symmetry_cell_setting 'orthorhombic'
loop_
_space_group_symop_operation_xyz
x,y,z
-x,-y,z
1/2-x,y,1/2+z
1/2+x,-y,1/2+z
x,1/2+y,1/2+z
-x,1/2-y,1/2+z
1/2-x,1/2+y,z
1/2+x,1/2-y,z
loop_
_atom_site_type_symbol
_atom_site_label
_atom_site_fract_x
_atom_site_fract_y
_atom_site_fract_z
Si Si1 0.404900 0.254471 0.651160
Si Si2 0.782821 0.517181 0.745369
Si Si3 0.839622 0.719655 0.544007
Si Si4 0.016530 0.192699 0.338140
Si Si5 0.500000 0.500000 0.925757
Si Si6 0.500000 0.500000 0.471821
O O1 0.361245 0.386576 0.711643
O O2 0.332823 0.298706 0.570689
O O3 0.574334 0.222082 0.623166
O O4 0.331743 0.094638 0.678474
O O5 0.823005 0.393570 0.814529
O O6 0.905190 0.647871 0.770883
O O7 0.893766 0.587391 0.488124
O O8 0.877499 0.888235 0.510354
O O9 0.025906 0.366113 0.363232
O O10 0.933810 0.120684 0.410874
#
# Coordination Sequence:
#
# PCOD9367055 Si02
#       6
#     8   8   8   8   4   4
#     4  12  24  42  70 104 148 190 240 306 366 442
#     4  10  22  40  64  98 141 186 238 290 360 433
#     4  11  22  41  69 104 142 189 242 301 370 436
#     4   9  20  45  69  98 142 195 244 299 360 440
#     4  10  22  44  74 102 142 196 250 302 362 436
#     4   8  18  38  62  94 136 180 234 290 358 430
#
# _framework density 29.369803999999998
#
# number of rings (size 3 to 8) (size 9 to 14) (size 15 to 20)
#    0.000    2.000    0.000    4.800    0.000    1.600 
#    0.000   32.000    0.000    0.000    0.000    2.800 
#    0.000    0.000    0.000    0.000    0.000    0.000 
#
# Total GULP energy -111437.443884 kJ/mol
# GULP energy per Si atom -5571.872194 kJ/mol
# Density = 2.930296 g / cm^3
# Si number density = 29.369804 Si / 1000 Ang^3
#
#
#
# Elastic Constant Matrix: (Units=GPa)
#
#
# Indices 1 2 3 4 5 6 
#
# 1 85.1111 39.2469 28.1653 0.0000 0.0000 0.0000
# 2 39.2469 174.9040 67.3423 0.0000 0.0000 0.0000
# 3 28.1653 67.3423 205.0317 0.0000 0.0000 0.0000
# 4 0.0000 0.0000 0.0000 75.5341 0.0000 0.0000
# 5 0.0000 0.0000 0.0000 0.0000 27.1646 0.0000
# 6 0.0000 0.0000 0.0000 0.0000 0.0000 34.0037
#
#
#
# Elastic Compliance Matrix: (Units=1/GPa)
#
#
# Indices 1 2 3 4 5 6 
#
# 1 0.013271 -0.002605 -0.000967 0.000000 0.000000 0.000000
# 2 -0.002605 0.007057 -0.001960 0.000000 0.000000 0.000000
# 3 -0.000967 -0.001960 0.005654 0.000000 0.000000 0.000000
# 4 0.000000 0.000000 0.000000 0.013239 0.000000 0.000000
# 5 0.000000 0.000000 0.000000 0.000000 0.036813 0.000000
# 6 0.000000 0.000000 0.000000 0.000000 0.000000 0.029409
#
#
# Mechanical properties :
#
#
# Convention : Reuss Voigt Hill
#
# Bulk Modulus (GPa) = 67.04076 81.61731 74.32904
# Shear Modulus (GPa) = 41.15944 49.35997 45.25970
#
# Velocity S-wave (km/s) = 3.74762 4.10400 3.92985
# Velocity P-wave (km/s) = 6.44997 7.09274 6.77898
#
# Compressibility (1/GPa) = 0.01491630
#
# Stress axis : x y z
#
# Youngs Moduli (GPa) = 75.35299 141.71045 176.86991
#
# Poissons Ratio (x) = 0.36922 0.17108
# Poissons Ratio (y) = 0.19633 0.34664
# Poissons Ratio (z) = 0.07289 0.27773
#
# Static dielectric constant tensor:
#      x y z
#    x 2.452370 0.000000 0.000000 
#    y 0.000000 2.354910 0.000000 
#    z 0.000000 0.000000 2.349040 
# 
# From -- ./inp_files/9911.got.cif
#   From: 2010.05.17/outbox.cif.g08.bks.cpg/sg41_5_cif.got.tgz:9911.got - 2010.06.03 18:54:24.
