data_PCOD9367141
_publ_section_title
;
Structure prediction by ZEFSAII (Michael W. Deem and Ramdas Pophale) SiO2 
 PCOD9367141
Probable space group: A B A 2
;
_chemical_formula_sum "Si O2"
_cell_formula_units_Z 48
_cell_length_a 20.595092
_cell_length_b 11.529704
_cell_length_c 7.744130
_cell_angle_alpha 90.000000
_cell_angle_beta 90.000000
_cell_angle_gamma 90.000000
_cell_volume 1838.884826
_symmetry_space_group_name_H-M "A B A 2"
_symmetry_group_IT_number 41
_symmetry_cell_setting 'orthorhombic'
loop_
_space_group_symop_operation_xyz
x,y,z
-x,-y,z
1/2-x,y,1/2+z
1/2+x,-y,1/2+z
x,1/2+y,1/2+z
-x,1/2-y,1/2+z
1/2-x,1/2+y,z
1/2+x,1/2-y,z
loop_
_atom_site_type_symbol
_atom_site_label
_atom_site_fract_x
_atom_site_fract_y
_atom_site_fract_z
Si Si1 0.464579 0.754310 0.055450
Si Si2 0.357272 0.999917 0.226139
Si Si3 0.796933 0.272167 0.152734
Si Si4 0.662215 0.742540 0.782140
Si Si5 0.000000 0.500000 0.194577
Si Si6 0.883314 0.596304 0.837693
Si Si7 0.500000 0.000000 0.630092
O O1 0.408643 0.745307 0.201936
O O2 0.498525 0.630240 0.047073
O O3 0.501718 0.876335 0.092607
O O4 0.427316 0.790096 0.881590
O O5 0.321195 0.117849 0.260316
O O6 0.431469 0.002065 0.289238
O O7 0.324742 0.892832 0.319541
O O8 0.362528 0.958063 0.023138
O O9 0.719258 0.276350 0.151684
O O10 0.824666 0.151801 0.229664
O O11 0.827081 0.298008 0.966198
O O12 0.932746 0.510736 0.740411
#
# Coordination Sequence:
#
# PCOD9367141 Si02
#       7
#     8   8   8   8   4   8   4
#     4  10  22  42  67  99 134 174 218 267 324 388
#     4  10  22  42  67  92 129 171 208 261 320 384
#     4  12  24  44  67  91 127 172 214 267 327 382
#     4  10  24  41  65  96 126 167 220 266 320 385
#     4   8  17  42  67  90 131 172 207 254 319 382
#     4  10  23  42  64  96 132 168 213 265 322 386
#     4  12  23  38  71 104 131 168 217 270 325 388
#
# _framework density 26.102775999999999
#
# number of rings (size 3 to 8) (size 9 to 14) (size 15 to 20)
#    0.000    2.000    0.000    6.000    0.000    6.667 
#    0.000    8.333    0.000    0.000    0.000    0.000 
#    0.000    0.000    0.000    0.000    0.000    0.000 
#
# Total GULP energy -134139.267318 kJ/mol
# GULP energy per Si atom -5589.136138 kJ/mol
# Density = 2.604336 g / cm^3
# Si number density = 26.102776 Si / 1000 Ang^3
#
#
#
# Elastic Constant Matrix: (Units=GPa)
#
#
# Indices 1 2 3 4 5 6 
#
# 1 73.2368 39.6676 5.4485 0.0000 0.0000 0.0000
# 2 39.6676 186.4087 25.9082 0.0000 0.0000 0.0000
# 3 5.4485 25.9082 69.8096 0.0000 0.0000 0.0000
# 4 0.0000 0.0000 0.0000 30.3202 0.0000 0.0000
# 5 0.0000 0.0000 0.0000 0.0000 23.2716 0.0000
# 6 0.0000 0.0000 0.0000 0.0000 0.0000 16.1662
#
#
#
# Elastic Compliance Matrix: (Units=1/GPa)
#
#
# Indices 1 2 3 4 5 6 
#
# 1 0.015433 -0.003286 0.000015 0.000000 0.000000 0.000000
# 2 -0.003286 0.006356 -0.002102 0.000000 0.000000 0.000000
# 3 0.000015 -0.002102 0.015104 0.000000 0.000000 0.000000
# 4 0.000000 0.000000 0.000000 0.032981 0.000000 0.000000
# 5 0.000000 0.000000 0.000000 0.000000 0.042971 0.000000
# 6 0.000000 0.000000 0.000000 0.000000 0.000000 0.061858
#
#
# Mechanical properties :
#
#
# Convention : Reuss Voigt Hill
#
# Bulk Modulus (GPa) = 38.24700 52.38928 45.31814
# Shear Modulus (GPa) = 25.75126 31.18030 28.46578
#
# Velocity S-wave (km/s) = 3.14432 3.45993 3.30590
# Velocity P-wave (km/s) = 5.27888 6.00629 5.65429
#
# Compressibility (1/GPa) = 0.02614584
#
# Stress axis : x y z
#
# Youngs Moduli (GPa) = 64.79550 157.32967 66.20861
#
# Poissons Ratio (x) = 0.51703 -0.00100
# Poissons Ratio (y) = 0.21294 0.13920
# Poissons Ratio (z) = -0.00098 0.33077
#
# Static dielectric constant tensor:
#      x y z
#    x 2.037990 0.000000 0.000000 
#    y 0.000000 2.016250 0.000000 
#    z 0.000000 0.000000 2.104830 
# 
# From -- ./inp_files/3631.got.cif
#   From: 2010.05.17/outbox.cif.g08.bks.cpg/sg41_2_cif.got.tgz:3631.got - 2010.06.03 18:54:24.
