data_PCOD9367338
_publ_section_title
;
Structure prediction by ZEFSAII (Michael W. Deem and Ramdas Pophale) SiO2 
 PCOD9367338
Probable space group: A B A 2
;
_chemical_formula_sum "Si O2"
_cell_formula_units_Z 60
_cell_length_a 17.764973
_cell_length_b 11.655662
_cell_length_c 12.406348
_cell_angle_alpha 90.000000
_cell_angle_beta 90.000000
_cell_angle_gamma 90.000000
_cell_volume 2568.889690
_symmetry_space_group_name_H-M "A B A 2"
_symmetry_group_IT_number 41
_symmetry_cell_setting 'orthorhombic'
loop_
_space_group_symop_operation_xyz
x,y,z
-x,-y,z
1/2-x,y,1/2+z
1/2+x,-y,1/2+z
x,1/2+y,1/2+z
-x,1/2-y,1/2+z
1/2-x,1/2+y,z
1/2+x,1/2-y,z
loop_
_atom_site_type_symbol
_atom_site_label
_atom_site_fract_x
_atom_site_fract_y
_atom_site_fract_z
Si Si1 0.652388 0.997097 0.338420
Si Si2 0.770904 0.322142 0.176303
Si Si3 0.500000 0.500000 0.705045
Si Si4 0.911932 0.816787 0.553680
Si Si5 0.857639 0.299670 0.513678
Si Si6 0.202527 0.878230 0.344424
Si Si7 0.571508 0.430256 0.339688
Si Si8 0.003375 0.127548 0.108937
O O1 0.704836 0.925195 0.254543
O O2 0.572747 0.029372 0.281807
O O3 0.643571 0.912175 0.438989
O O4 0.710504 0.094825 0.371060
O O5 0.825397 0.344448 0.076129
O O6 0.689018 0.316080 0.123646
O O7 0.791089 0.207086 0.242231
O O8 0.536116 0.401562 0.627644
O O9 0.918578 0.830958 0.426386
O O10 0.924883 0.690143 0.601227
O O11 0.829341 0.193854 0.444614
O O12 0.944521 0.287195 0.542125
O O13 0.143862 0.985036 0.329183
O O14 0.500000 0.500000 0.384917
O O15 0.540102 0.385643 0.225983
O O16 0.000000 0.000000 0.063444
#
# Coordination Sequence:
#
# PCOD9367338 Si02
#       8
#     8   8   4   8   8   8   8   8
#     4  10  24  45  68  98 142 188 243 295 365 427
#     4  10  23  42  65  99 141 179 236 296 354 436
#     4  10  24  44  72 106 140 192 244 310 356 440
#     4  11  23  43  71 103 141 186 239 296 366 424
#     4  11  25  44  67 105 141 185 243 294 366 428
#     4  11  24  43  72 100 139 193 238 304 358 436
#     4  11  22  42  71 103 141 182 241 289 365 439
#     4  11  26  44  69 101 146 190 233 297 359 438
#
# _framework density 23.356394999999999
#
# number of rings (size 3 to 8) (size 9 to 14) (size 15 to 20)
#    0.000    1.333    0.667    4.000    2.800    7.467 
#    0.000    0.000    0.000    0.000    0.000    0.000 
#    0.000    0.000    0.000    0.000    0.000    0.000 
#
# Total GULP energy -167488.868071 kJ/mol
# GULP energy per Si atom -5582.962269 kJ/mol
# Density = 2.330323 g / cm^3
# Si number density = 23.356395 Si / 1000 Ang^3
#
#
#
# Elastic Constant Matrix: (Units=GPa)
#
#
# Indices 1 2 3 4 5 6 
#
# 1 93.4402 8.3400 11.7809 0.0000 0.0000 0.0000
# 2 8.3400 52.0608 10.7460 0.0000 0.0000 0.0000
# 3 11.7809 10.7460 61.0586 0.0000 0.0000 0.0000
# 4 0.0000 0.0000 0.0000 8.5693 0.0000 0.0000
# 5 0.0000 0.0000 0.0000 0.0000 26.3332 0.0000
# 6 0.0000 0.0000 0.0000 0.0000 0.0000 28.1021
#
#
#
# Elastic Compliance Matrix: (Units=1/GPa)
#
#
# Indices 1 2 3 4 5 6 
#
# 1 0.011064 -0.001382 -0.001891 0.000000 0.000000 0.000000
# 2 -0.001382 0.020105 -0.003272 0.000000 0.000000 0.000000
# 3 -0.001891 -0.003272 0.017318 0.000000 0.000000 0.000000
# 4 0.000000 0.000000 0.000000 0.116695 0.000000 0.000000
# 5 0.000000 0.000000 0.000000 0.000000 0.037975 0.000000
# 6 0.000000 0.000000 0.000000 0.000000 0.000000 0.035585
#
#
# Mechanical properties :
#
#
# Convention : Reuss Voigt Hill
#
# Bulk Modulus (GPa) = 28.25103 29.81039 29.03071
# Shear Modulus (GPa) = 18.96586 24.31376 21.63981
#
# Velocity S-wave (km/s) = 2.85269 3.22994 3.04716
# Velocity P-wave (km/s) = 4.79295 5.16730 4.98364
#
# Compressibility (1/GPa) = 0.03539694
#
# Stress axis : x y z
#
# Youngs Moduli (GPa) = 90.38438 49.73882 57.74181
#
# Poissons Ratio (x) = 0.06874 0.10922
# Poissons Ratio (y) = 0.12491 0.18892
# Poissons Ratio (z) = 0.17096 0.16273
#
# Static dielectric constant tensor:
#      x y z
#    x 1.873910 0.000000 0.000000 
#    y 0.000000 1.925010 0.000000 
#    z 0.000000 0.000000 1.855150 
# 
# From -- ./inp_files/6275.got.cif
#   From: 2010.05.17/outbox.cif.g08.bks.cpg/sg41_4_cif.got.tgz:6275.got - 2010.06.03 18:54:24.
