data_PCOD9367475
_publ_section_title
;
Structure prediction by ZEFSAII (Michael W. Deem and Ramdas Pophale) SiO2 
 PCOD9367475
Probable space group: A B A 2
;
_chemical_formula_sum "Si O2"
_cell_formula_units_Z 36
_cell_length_a 19.141279
_cell_length_b 13.050078
_cell_length_c 5.265979
_cell_angle_alpha 90.000000
_cell_angle_beta 90.000000
_cell_angle_gamma 90.000000
_cell_volume 1315.416193
_symmetry_space_group_name_H-M "A B A 2"
_symmetry_group_IT_number 41
_symmetry_cell_setting 'orthorhombic'
loop_
_space_group_symop_operation_xyz
x,y,z
-x,-y,z
1/2-x,y,1/2+z
1/2+x,-y,1/2+z
x,1/2+y,1/2+z
-x,1/2-y,1/2+z
1/2-x,1/2+y,z
1/2+x,1/2-y,z
loop_
_atom_site_type_symbol
_atom_site_label
_atom_site_fract_x
_atom_site_fract_y
_atom_site_fract_z
Si Si1 0.023303 0.191327 0.152980
Si Si2 0.163441 0.345297 0.587165
Si Si3 0.370003 0.622968 0.798212
Si Si4 0.000000 0.000000 0.876875
Si Si5 0.681248 0.570939 0.594065
O O1 0.999776 0.230077 0.427011
O O2 0.980645 0.090957 0.069787
O O3 0.102932 0.155379 0.081399
O O4 0.146573 0.230251 0.668410
O O5 0.246361 0.368441 0.553086
O O6 0.137450 0.367104 0.303308
O O7 0.147377 0.422771 0.818101
O O8 0.310463 0.541058 0.724293
O O9 0.438269 0.554490 0.718875
#
# Coordination Sequence:
#
# PCOD9367475 Si02
#       5
#     8   8   8   4   8
#     4  10  24  42  64  94 131 167 212 258 322 381
#     4  10  24  41  68  89 132 168 218 259 321 370
#     4  10  24  40  70  95 130 172 210 267 320 382
#     4   8  24  42  64 100 126 170 212 262 322 384
#     4  10  24  44  62  97 126 171 214 268 310 384
#
# _framework density 27.367763
#
# number of rings (size 3 to 8) (size 9 to 14) (size 15 to 20)
#    1.333    0.889    0.000    0.000    6.222   11.556 
#    0.000    0.000    0.000    0.000    0.000    0.000 
#    0.000    0.000    0.000    0.000    0.000    0.000 
#
# Total GULP energy -100303.368157 kJ/mol
# GULP energy per Si atom -5572.409342 kJ/mol
# Density = 2.730547 g / cm^3
# Si number density = 27.367763 Si / 1000 Ang^3
#
#
#
# Elastic Constant Matrix: (Units=GPa)
#
#
# Indices 1 2 3 4 5 6 
#
# 1 78.1725 13.1035 18.8022 0.0000 0.0000 0.0000
# 2 13.1035 168.2235 19.2609 0.0000 0.0000 0.0000
# 3 18.8022 19.2609 131.8659 0.0000 0.0000 0.0000
# 4 0.0000 0.0000 0.0000 20.8699 0.0000 0.0000
# 5 0.0000 0.0000 0.0000 0.0000 40.8308 0.0000
# 6 0.0000 0.0000 0.0000 0.0000 0.0000 54.8447
#
#
#
# Elastic Compliance Matrix: (Units=1/GPa)
#
#
# Indices 1 2 3 4 5 6 
#
# 1 0.013361 -0.000837 -0.001783 0.000000 0.000000 0.000000
# 2 -0.000837 0.006098 -0.000771 0.000000 0.000000 0.000000
# 3 -0.001783 -0.000771 0.007950 0.000000 0.000000 0.000000
# 4 0.000000 0.000000 0.000000 0.047916 0.000000 0.000000
# 5 0.000000 0.000000 0.000000 0.000000 0.024491 0.000000
# 6 0.000000 0.000000 0.000000 0.000000 0.000000 0.018233
#
#
# Mechanical properties :
#
#
# Convention : Reuss Voigt Hill
#
# Bulk Modulus (GPa) = 48.47849 53.39946 50.93897
# Shear Modulus (GPa) = 37.96280 45.11545 41.53912
#
# Velocity S-wave (km/s) = 3.72847 4.06456 3.90014
# Velocity P-wave (km/s) = 6.02391 6.44839 6.23976
#
# Compressibility (1/GPa) = 0.02062770
#
# Stress axis : x y z
#
# Youngs Moduli (GPa) = 74.84308 163.98923 125.78052
#
# Poissons Ratio (x) = 0.13720 0.22426
# Poissons Ratio (y) = 0.06262 0.09703
# Poissons Ratio (z) = 0.13344 0.12650
#
# Static dielectric constant tensor:
#      x y z
#    x 3.033450 0.000000 0.000000 
#    y 0.000000 2.174530 0.000000 
#    z 0.000000 0.000000 2.202040 
# 
# From -- ./inp_files/652.got.cif
#   From: 2010.05.17/outbox.cif.g08.bks.cpg/sg41_1_cif.got.tgz:652.got - 2010.06.03 18:54:24.
