data_PCOD9367180
_publ_section_title
;
Structure prediction by ZEFSAII (Michael W. Deem and Ramdas Pophale) SiO2 
 PCOD9367180
Probable space group: A B A 2
;
_chemical_formula_sum "Si O2"
_cell_formula_units_Z 64
_cell_length_a 16.865624
_cell_length_b 17.801505
_cell_length_c 8.748280
_cell_angle_alpha 90.000000
_cell_angle_beta 90.000000
_cell_angle_gamma 90.000000
_cell_volume 2626.526636
_symmetry_space_group_name_H-M "A B A 2"
_symmetry_group_IT_number 41
_symmetry_cell_setting 'orthorhombic'
loop_
_space_group_symop_operation_xyz
x,y,z
-x,-y,z
1/2-x,y,1/2+z
1/2+x,-y,1/2+z
x,1/2+y,1/2+z
-x,1/2-y,1/2+z
1/2-x,1/2+y,z
1/2+x,1/2-y,z
loop_
_atom_site_type_symbol
_atom_site_label
_atom_site_fract_x
_atom_site_fract_y
_atom_site_fract_z
Si Si1 0.271421 0.436792 0.611540
Si Si2 0.111571 0.356852 0.908283
Si Si3 0.382896 0.578223 0.953799
Si Si4 0.798693 0.903946 0.528994
Si Si5 0.878854 0.787104 0.729621
Si Si6 0.944615 0.215124 0.721877
Si Si7 0.064553 0.115876 0.291460
Si Si8 0.633104 0.089248 0.399948
O O1 0.327267 0.418797 0.465681
O O2 0.287488 0.524736 0.639354
O O3 0.303399 0.399545 0.763794
O O4 0.183299 0.414239 0.557476
O O5 0.094543 0.314169 0.067559
O O6 0.146875 0.291142 0.802480
O O7 0.027736 0.388528 0.843795
O O8 0.287919 0.592939 0.957118
O O9 0.418990 0.582471 0.124015
O O10 0.404873 0.648909 0.850934
O O11 0.401904 0.495105 0.890281
O O12 0.817387 0.826983 0.617661
O O13 0.872768 0.915125 0.414906
O O14 0.965586 0.771221 0.663426
O O15 0.915223 0.295686 0.776974
O O16 0.927721 0.154961 0.857717
#
# Coordination Sequence:
#
# PCOD9367180 Si02
#       8
#     8   8   8   8   8   8   8   8
#     4  10  23  43  64  92 131 169 213 266 336 386
#     4  10  22  43  66  93 131 170 213 275 322 395
#     4  11  23  40  64  97 130 166 218 269 321 389
#     4  11  23  40  66  92 129 171 214 269 324 387
#     4  11  21  42  65  93 125 172 217 265 326 384
#     4  10  22  43  66  92 132 169 215 269 331 387
#     4  11  23  42  67  96 129 171 220 270 323 390
#     4  10  23  43  64  93 131 170 210 271 327 394
#
# _framework density 24.366781
#
# number of rings (size 3 to 8) (size 9 to 14) (size 15 to 20)
#    0.000    1.500    3.750    0.750    5.250    3.000 
#    4.500    1.250    0.000    0.000    0.000    0.000 
#    0.000    0.000    0.000    0.000    0.000    0.000 
#
# Total GULP energy -178679.709643 kJ/mol
# GULP energy per Si atom -5583.740926 kJ/mol
# Density = 2.431132 g / cm^3
# Si number density = 24.366781 Si / 1000 Ang^3
#
#
#
# Elastic Constant Matrix: (Units=GPa)
#
#
# Indices 1 2 3 4 5 6 
#
# 1 63.7871 25.9327 10.8759 0.0000 0.0000 0.0000
# 2 25.9327 98.8444 19.2108 0.0000 0.0000 0.0000
# 3 10.8759 19.2108 73.0318 0.0000 0.0000 0.0000
# 4 0.0000 0.0000 0.0000 42.3491 0.0000 0.0000
# 5 0.0000 0.0000 0.0000 0.0000 71.8931 0.0000
# 6 0.0000 0.0000 0.0000 0.0000 0.0000 26.6117
#
#
#
# Elastic Compliance Matrix: (Units=1/GPa)
#
#
# Indices 1 2 3 4 5 6 
#
# 1 0.017702 -0.004354 -0.001491 0.000000 0.000000 0.000000
# 2 -0.004354 0.011733 -0.002438 0.000000 0.000000 0.000000
# 3 -0.001491 -0.002438 0.014556 0.000000 0.000000 0.000000
# 4 0.000000 0.000000 0.000000 0.023613 0.000000 0.000000
# 5 0.000000 0.000000 0.000000 0.000000 0.013910 0.000000
# 6 0.000000 0.000000 0.000000 0.000000 0.000000 0.037578
#
#
# Mechanical properties :
#
#
# Convention : Reuss Voigt Hill
#
# Bulk Modulus (GPa) = 36.46360 38.63355 37.54857
# Shear Modulus (GPa) = 34.53070 40.14702 37.33886
#
# Velocity S-wave (km/s) = 3.76855 4.06348 3.91879
# Velocity P-wave (km/s) = 5.82520 6.15673 5.99326
#
# Compressibility (1/GPa) = 0.02742461
#
# Stress axis : x y z
#
# Youngs Moduli (GPa) = 56.49199 85.22856 68.70048
#
# Poissons Ratio (x) = 0.37112 0.10241
# Poissons Ratio (y) = 0.24599 0.16748
# Poissons Ratio (z) = 0.08421 0.20778
#
# Static dielectric constant tensor:
#      x y z
#    x 0.696110 0.000000 0.000000 
#    y 0.000000 2.080360 0.000000 
#    z 0.000000 0.000000 1.997640 
# 
# From -- ./inp_files/3242.got.cif
#   From: 2010.05.17/outbox.cif.g08.bks.cpg/sg41_2_cif.got.tgz:3242.got - 2010.06.03 18:54:24.
