data_PCOD9367132
_publ_section_title
;
Structure prediction by ZEFSAII (Michael W. Deem and Ramdas Pophale) SiO2 
 PCOD9367132
Probable space group: A B A 2
;
_chemical_formula_sum "Si O2"
_cell_formula_units_Z 60
_cell_length_a 21.343174
_cell_length_b 21.650834
_cell_length_c 5.089053
_cell_angle_alpha 90.000000
_cell_angle_beta 90.000000
_cell_angle_gamma 90.000000
_cell_volume 2351.638757
_symmetry_space_group_name_H-M "A B A 2"
_symmetry_group_IT_number 41
_symmetry_cell_setting 'orthorhombic'
loop_
_space_group_symop_operation_xyz
x,y,z
-x,-y,z
1/2-x,y,1/2+z
1/2+x,-y,1/2+z
x,1/2+y,1/2+z
-x,1/2-y,1/2+z
1/2-x,1/2+y,z
1/2+x,1/2-y,z
loop_
_atom_site_type_symbol
_atom_site_label
_atom_site_fract_x
_atom_site_fract_y
_atom_site_fract_z
Si Si1 0.098476 0.709671 0.994910
Si Si2 0.321744 0.390387 0.585358
Si Si3 0.530401 0.823385 0.494256
Si Si4 0.000000 0.000000 0.320581
Si Si5 0.219546 0.758242 0.723356
Si Si6 0.906247 0.420829 0.173282
Si Si7 0.590359 0.603343 0.082970
Si Si8 0.219300 0.023114 0.554112
O O1 0.046734 0.705095 0.770937
O O2 0.155401 0.748038 0.880521
O O3 0.063542 0.718396 0.271264
O O4 0.120973 0.638766 0.021291
O O5 0.280754 0.330906 0.658000
O O6 0.368825 0.379015 0.339443
O O7 0.280018 0.449383 0.518174
O O8 0.364460 0.405383 0.837542
O O9 0.565165 0.889549 0.433632
O O10 0.458193 0.842971 0.494189
O O11 0.950481 0.042150 0.158162
O O12 0.038939 0.046335 0.509421
O O13 0.228633 0.732561 0.428431
O O14 0.847225 0.464300 0.187345
O O15 0.229945 0.047439 0.261256
#
# Coordination Sequence:
#
# PCOD9367132 Si02
#       8
#     8   8   8   4   8   8   8   8
#     4  10  23  43  68 100 136 173 231 297 342 418
#     4  12  26  45  68 104 136 180 246 291 349 437
#     4  10  22  42  66 102 142 168 221 290 350 426
#     4  12  22  44  74 108 142 198 228 282 358 454
#     4  12  26  49  77  97 132 193 251 303 358 424
#     4  10  25  42  70 103 145 183 237 287 352 443
#     4  12  24  40  74 103 141 184 225 284 364 429
#     4  12  27  42  62  95 143 185 223 292 359 410
#
# _framework density 25.514120999999999
#
# number of rings (size 3 to 8) (size 9 to 14) (size 15 to 20)
#    0.800    0.000    2.667    4.800    3.733    1.600 
#    0.000    2.667    0.000    0.000    0.000    0.000 
#    0.000    0.000    0.000    0.000    0.000    0.000 
#
# Total GULP energy -167765.776039 kJ/mol
# GULP energy per Si atom -5592.192535 kJ/mol
# Density = 2.545605 g / cm^3
# Si number density = 25.514121 Si / 1000 Ang^3
#
#
#
# Elastic Constant Matrix: (Units=GPa)
#
#
# Indices 1 2 3 4 5 6 
#
# 1 67.8271 -9.2636 24.4951 0.0000 0.0000 0.0000
# 2 -9.2636 45.9436 -5.3591 0.0000 0.0000 0.0000
# 3 24.4951 -5.3591 119.2340 0.0000 0.0000 0.0000
# 4 0.0000 0.0000 0.0000 -13.3499 0.0000 0.0000
# 5 0.0000 0.0000 0.0000 0.0000 51.5362 0.0000
# 6 0.0000 0.0000 0.0000 0.0000 0.0000 36.4298
#
#
#
# Elastic Compliance Matrix: (Units=1/GPa)
#
#
# Indices 1 2 3 4 5 6 
#
# 1 0.016303 0.002912 -0.003218 0.000000 0.000000 0.000000
# 2 0.002912 0.022401 0.000409 0.000000 0.000000 0.000000
# 3 -0.003218 0.000409 0.009066 0.000000 0.000000 0.000000
# 4 0.000000 0.000000 0.000000 -0.074907 0.000000 0.000000
# 5 0.000000 0.000000 0.000000 0.000000 0.019404 0.000000
# 6 0.000000 0.000000 0.000000 0.000000 0.000000 0.027450
#
#
# Mechanical properties :
#
#
# Convention : Reuss Voigt Hill
#
# Bulk Modulus (GPa) = 20.84444 28.08326 24.46385
# Shear Modulus (GPa) = 140.82598 29.79870 85.31234
#
# Velocity S-wave (km/s) = 7.43741 3.42121 5.78877
# Velocity P-wave (km/s) = 9.05213 5.16111 7.36811
#
# Compressibility (1/GPa) = 0.04797442
#
# Stress axis : x y z
#
# Youngs Moduli (GPa) = 61.33703 44.64166 110.29708
#
# Poissons Ratio (x) = -0.12999 0.35498
# Poissons Ratio (y) = -0.17860 -0.04507
# Poissons Ratio (z) = 0.19741 -0.01824
#
# Static dielectric constant tensor:
#      x y z
#    x 2.001200 0.000000 0.000000 
#    y 0.000000 2.169610 0.000000 
#    z 0.000000 0.000000 1.967080 
# 
# From -- ./inp_files/1001.got.cif
#   From: 2010.05.17/outbox.cif.g08.bks.cpg/sg41_1_cif.got.tgz:1001.got - 2010.06.03 18:54:24.
