data_PCOD9367153
_publ_section_title
;
Structure prediction by ZEFSAII (Michael W. Deem and Ramdas Pophale) SiO2 
 PCOD9367153
Probable space group: A B A 2
;
_chemical_formula_sum "Si O2"
_cell_formula_units_Z 48
_cell_length_a 15.431912
_cell_length_b 17.076858
_cell_length_c 6.829146
_cell_angle_alpha 90.000000
_cell_angle_beta 90.000000
_cell_angle_gamma 90.000000
_cell_volume 1799.675079
_symmetry_space_group_name_H-M "A B A 2"
_symmetry_group_IT_number 41
_symmetry_cell_setting 'orthorhombic'
loop_
_space_group_symop_operation_xyz
x,y,z
-x,-y,z
1/2-x,y,1/2+z
1/2+x,-y,1/2+z
x,1/2+y,1/2+z
-x,1/2-y,1/2+z
1/2-x,1/2+y,z
1/2+x,1/2-y,z
loop_
_atom_site_type_symbol
_atom_site_label
_atom_site_fract_x
_atom_site_fract_y
_atom_site_fract_z
Si Si1 0.924249 0.723128 0.586660
Si Si2 0.084800 0.448041 0.722559
Si Si3 0.258628 0.065152 0.794067
Si Si4 0.241412 0.685581 0.057093
Si Si5 0.890147 0.699219 0.130628
Si Si6 0.408362 0.967189 0.254019
O O1 0.919521 0.648017 0.732222
O O2 0.855273 0.791417 0.632441
O O3 0.893627 0.703180 0.367786
O O4 0.021998 0.755097 0.573746
O O5 0.167382 0.497837 0.800180
O O6 0.086669 0.450753 0.485067
O O7 0.000000 0.500000 0.775876
O O8 0.278556 0.163244 0.807547
O O9 0.165364 0.030064 0.745242
O O10 0.232311 0.089871 0.039924
O O11 0.306194 0.759180 0.041320
O O12 0.889565 0.605800 0.113558
O O13 0.500000 0.000000 0.195074
#
# Coordination Sequence:
#
# PCOD9367153 Si02
#       6
#     8   8   8   8   8   8
#     4  11  25  43  70 102 139 182 235 287 352 420
#     4  10  22  42  69  97 136 183 227 281 346 416
#     4  12  23  44  69  98 135 179 232 285 349 415
#     4  12  25  43  68  99 139 180 232 291 349 420
#     4  11  25  44  69 101 139 185 232 291 351 417
#     4  10  22  42  69  97 136 181 228 281 347 414
#
# _framework density 26.671482000000001
#
# number of rings (size 3 to 8) (size 9 to 14) (size 15 to 20)
#    0.000    1.000    3.333    3.000    7.000    0.000 
#    3.000    0.833    0.000    0.000    0.000    0.000 
#    0.000    0.000    0.000    0.000    0.000    0.000 
#
# Total GULP energy -133968.069564 kJ/mol
# GULP energy per Si atom -5582.002899 kJ/mol
# Density = 2.661078 g / cm^3
# Si number density = 26.671482 Si / 1000 Ang^3
#
#
#
# Elastic Constant Matrix: (Units=GPa)
#
#
# Indices 1 2 3 4 5 6 
#
# 1 179.8692 115.6743 9.8657 0.0000 0.0000 0.0000
# 2 115.6743 229.4922 46.9377 0.0000 0.0000 0.0000
# 3 9.8657 46.9377 155.2604 0.0000 0.0000 0.0000
# 4 0.0000 0.0000 0.0000 38.2902 0.0000 0.0000
# 5 0.0000 0.0000 0.0000 0.0000 64.9777 0.0000
# 6 0.0000 0.0000 0.0000 0.0000 0.0000 34.1513
#
#
#
# Elastic Compliance Matrix: (Units=1/GPa)
#
#
# Indices 1 2 3 4 5 6 
#
# 1 0.008315 -0.004352 0.000787 0.000000 0.000000 0.000000
# 2 -0.004352 0.006923 -0.001816 0.000000 0.000000 0.000000
# 3 0.000787 -0.001816 0.006940 0.000000 0.000000 0.000000
# 4 0.000000 0.000000 0.000000 0.026116 0.000000 0.000000
# 5 0.000000 0.000000 0.000000 0.000000 0.015390 0.000000
# 6 0.000000 0.000000 0.000000 0.000000 0.000000 0.029281
#
#
# Mechanical properties :
#
#
# Convention : Reuss Voigt Hill
#
# Bulk Modulus (GPa) = 87.60039 101.06412 94.33226
# Shear Modulus (GPa) = 46.49714 53.62677 50.06196
#
# Velocity S-wave (km/s) = 4.17985 4.48888 4.33712
# Velocity P-wave (km/s) = 7.49736 8.05240 7.77983
#
# Compressibility (1/GPa) = 0.01141547
#
# Stress axis : x y z
#
# Youngs Moduli (GPa) = 120.25814 144.45157 144.09533
#
# Poissons Ratio (x) = 0.62871 -0.11346
# Poissons Ratio (y) = 0.52341 0.26172
# Poissons Ratio (z) = -0.09469 0.26237
#
# Static dielectric constant tensor:
#      x y z
#    x 1.952560 0.000000 0.000000 
#    y 0.000000 2.034780 0.000000 
#    z 0.000000 0.000000 2.650150 
# 
# From -- ./inp_files/2539.got.cif
#   From: 2010.05.17/outbox.cif.g08.bks.cpg/sg41_2_cif.got.tgz:2539.got - 2010.06.03 18:54:24.
