data_PCOD9367511
_publ_section_title
;
Structure prediction by ZEFSAII (Michael W. Deem and Ramdas Pophale) SiO2 
 PCOD9367511
Probable space group: A B A 2
;
_chemical_formula_sum "Si O2"
_cell_formula_units_Z 64
_cell_length_a 9.570887
_cell_length_b 28.442058
_cell_length_c 10.499368
_cell_angle_alpha 90.000000
_cell_angle_beta 90.000000
_cell_angle_gamma 90.000000
_cell_volume 2858.093053
_symmetry_space_group_name_H-M "A B A 2"
_symmetry_group_IT_number 41
_symmetry_cell_setting 'orthorhombic'
loop_
_space_group_symop_operation_xyz
x,y,z
-x,-y,z
1/2-x,y,1/2+z
1/2+x,-y,1/2+z
x,1/2+y,1/2+z
-x,1/2-y,1/2+z
1/2-x,1/2+y,z
1/2+x,1/2-y,z
loop_
_atom_site_type_symbol
_atom_site_label
_atom_site_fract_x
_atom_site_fract_y
_atom_site_fract_z
Si Si1 0.677919 0.077179 0.598720
Si Si2 0.715495 0.130360 0.875840
Si Si3 0.741266 0.800227 0.935276
Si Si4 0.647591 0.487741 0.611677
Si Si5 0.248176 0.275565 0.740033
Si Si6 0.494885 0.245880 0.577739
Si Si7 0.408995 0.606216 0.447494
Si Si8 0.578067 0.458135 0.233330
O O1 0.712925 0.102007 0.737838
O O2 0.674445 0.111467 0.478705
O O3 0.529475 0.051478 0.619362
O O4 0.789691 0.036715 0.557809
O O5 0.746504 0.184617 0.846713
O O6 0.568173 0.124887 0.952572
O O7 0.752341 0.777795 0.794436
O O8 0.705634 0.853893 0.962098
O O9 0.885812 0.785555 0.000539
O O10 0.604283 0.773841 0.990936
O O11 0.500000 0.500000 0.671672
O O12 0.624009 0.441389 0.525294
O O13 0.768350 0.475128 0.708326
O O14 0.388828 0.279073 0.657402
O O15 0.101467 0.282282 0.667892
O O16 0.405593 0.590582 0.301878
O O17 0.500000 0.500000 0.310496
#
# Coordination Sequence:
#
# PCOD9367511 Si02
#       8
#     8   8   8   8   8   8   8   8
#     4  10  24  44  70 103 139 183 239 291 359 433
#     4  11  24  43  75 102 138 190 244 291 362 437
#     4  11  24  44  70 103 140 188 241 295 369 437
#     4  11  22  42  67  96 138 183 232 298 354 421
#     4  11  24  44  68 100 139 189 233 304 359 429
#     4  10  24  43  69  96 146 179 237 297 360 430
#     4  11  23  41  71  96 142 186 237 290 373 424
#     4   9  22  44  66  98 137 183 232 294 355 428
#
# _framework density 22.392555000000002
#
# number of rings (size 3 to 8) (size 9 to 14) (size 15 to 20)
#    0.000    1.500    1.250    2.625    8.750    4.000 
#    4.500    0.000    0.000    0.000    0.000    0.000 
#    0.000    0.000    0.000    0.000    0.000    0.000 
#
# Total GULP energy -178445.466748 kJ/mol
# GULP energy per Si atom -5576.420836 kJ/mol
# Density = 2.234159 g / cm^3
# Si number density = 22.392555 Si / 1000 Ang^3
#
#
#
# Elastic Constant Matrix: (Units=GPa)
#
#
# Indices 1 2 3 4 5 6 
#
# 1 157.8592 33.6065 28.1543 0.0000 0.0000 0.0000
# 2 33.6065 73.2256 17.6955 0.0000 0.0000 0.0000
# 3 28.1543 17.6955 54.5878 0.0000 0.0000 0.0000
# 4 0.0000 0.0000 0.0000 34.9778 0.0000 0.0000
# 5 0.0000 0.0000 0.0000 0.0000 19.1647 0.0000
# 6 0.0000 0.0000 0.0000 0.0000 0.0000 14.5681
#
#
#
# Elastic Compliance Matrix: (Units=1/GPa)
#
#
# Indices 1 2 3 4 5 6 
#
# 1 0.007437 -0.002698 -0.002961 0.000000 0.000000 0.000000
# 2 -0.002698 0.015796 -0.003729 0.000000 0.000000 0.000000
# 3 -0.002961 -0.003729 0.021055 0.000000 0.000000 0.000000
# 4 0.000000 0.000000 0.000000 0.028590 0.000000 0.000000
# 5 0.000000 0.000000 0.000000 0.000000 0.052179 0.000000
# 6 0.000000 0.000000 0.000000 0.000000 0.000000 0.068643
#
#
# Mechanical properties :
#
#
# Convention : Reuss Voigt Hill
#
# Bulk Modulus (GPa) = 39.19716 49.39834 44.29775
# Shear Modulus (GPa) = 22.62644 27.48986 25.05815
#
# Velocity S-wave (km/s) = 3.18220 3.50756 3.34883
# Velocity P-wave (km/s) = 5.57175 6.20581 5.89731
#
# Compressibility (1/GPa) = 0.02551205
#
# Stress axis : x y z
#
# Youngs Moduli (GPa) = 134.45889 63.30851 47.49403
#
# Poissons Ratio (x) = 0.17078 0.14065
# Poissons Ratio (y) = 0.36272 0.17711
# Poissons Ratio (z) = 0.39818 0.23608
#
# Static dielectric constant tensor:
#      x y z
#    x 1.812990 0.000000 0.000000 
#    y 0.000000 1.899800 0.000000 
#    z 0.000000 0.000000 1.902740 
# 
# From -- ./inp_files/4629.got.cif
#   From: 2010.05.17/outbox.cif.g08.bks.cpg/sg41_3_cif.got.tgz:4629.got - 2010.06.03 18:54:24.
