data_PCOD9367571
_publ_section_title
;
Structure prediction by ZEFSAII (Michael W. Deem and Ramdas Pophale) SiO2 
 PCOD9367571
Probable space group: A B A 2
;
_chemical_formula_sum "Si O2"
_cell_formula_units_Z 32
_cell_length_a 11.777688
_cell_length_b 5.282278
_cell_length_c 19.514283
_cell_angle_alpha 90.000000
_cell_angle_beta 90.000000
_cell_angle_gamma 90.000000
_cell_volume 1214.042522
_symmetry_space_group_name_H-M "A B A 2"
_symmetry_group_IT_number 41
_symmetry_cell_setting 'orthorhombic'
loop_
_space_group_symop_operation_xyz
x,y,z
-x,-y,z
1/2-x,y,1/2+z
1/2+x,-y,1/2+z
x,1/2+y,1/2+z
-x,1/2-y,1/2+z
1/2-x,1/2+y,z
1/2+x,1/2-y,z
loop_
_atom_site_type_symbol
_atom_site_label
_atom_site_fract_x
_atom_site_fract_y
_atom_site_fract_z
Si Si1 0.193048 0.773037 0.834030
Si Si2 0.831261 0.287679 0.512143
Si Si3 0.711415 0.220635 0.680828
Si Si4 0.500000 0.000000 0.908826
Si Si5 0.000000 0.000000 0.125813
O O1 0.277027 0.551223 0.858817
O O2 0.220169 0.767966 0.752568
O O3 0.072726 0.680419 0.859027
O O4 0.767998 0.566433 0.507688
O O5 0.920103 0.334445 0.575875
O O6 0.919896 0.175405 0.455782
O O7 0.729301 0.484759 0.645379
O O8 0.579630 0.161643 0.676616
#
# Coordination Sequence:
#
# PCOD9367571 Si02
#       5
#     8   8   8   4   4
#     4  10  24  46  73 111 152 197 259 318 386 481
#     4  12  28  48  74 118 160 208 276 332 390 484
#     4  10  24  46  73 111 152 197 259 318 386 481
#     4  12  26  49  82 114 160 215 256 332 412 464
#     4  12  26  49  82 114 160 215 256 332 412 464
#
# _framework density 26.358221
#
# number of rings (size 3 to 8) (size 9 to 14) (size 15 to 20)
#    0.000    1.000    0.000    4.500    0.000   14.000 
#    0.000   10.000    0.000    0.000    0.000    0.000 
#    0.000    0.000    0.000    0.000    0.000    0.000 
#
# Total GULP energy -89305.453523 kJ/mol
# GULP energy per Si atom -5581.590845 kJ/mol
# Density = 2.629823 g / cm^3
# Si number density = 26.358221 Si / 1000 Ang^3
#
#
#
# Elastic Constant Matrix: (Units=GPa)
#
#
# Indices 1 2 3 4 5 6 
#
# 1 172.2768 56.1226 52.2154 0.0000 0.0000 0.0000
# 2 56.1226 198.3186 -8.1350 0.0000 0.0000 0.0000
# 3 52.2154 -8.1350 111.8080 0.0000 0.0000 0.0000
# 4 0.0000 0.0000 0.0000 15.7795 0.0000 0.0000
# 5 0.0000 0.0000 0.0000 0.0000 61.6022 0.0000
# 6 0.0000 0.0000 0.0000 0.0000 0.0000 62.5900
#
#
#
# Elastic Compliance Matrix: (Units=1/GPa)
#
#
# Indices 1 2 3 4 5 6 
#
# 1 0.007708 -0.002336 -0.003770 0.000000 0.000000 0.000000
# 2 -0.002336 0.005765 0.001510 0.000000 0.000000 0.000000
# 3 -0.003770 0.001510 0.010814 0.000000 0.000000 0.000000
# 4 0.000000 0.000000 0.000000 0.063374 0.000000 0.000000
# 5 0.000000 0.000000 0.000000 0.000000 0.016233 0.000000
# 6 0.000000 0.000000 0.000000 0.000000 0.000000 0.015977
#
#
# Mechanical properties :
#
#
# Convention : Reuss Voigt Hill
#
# Bulk Modulus (GPa) = 66.23727 75.86771 71.05249
# Shear Modulus (GPa) = 37.28708 53.47436 45.38072
#
# Velocity S-wave (km/s) = 3.76523 4.50906 4.15383
# Velocity P-wave (km/s) = 6.63979 7.48028 7.07253
#
# Compressibility (1/GPa) = 0.01509724
#
# Stress axis : x y z
#
# Youngs Moduli (GPa) = 129.73229 173.44806 92.47006
#
# Poissons Ratio (x) = 0.40517 0.34859
# Poissons Ratio (y) = 0.30305 -0.13967
# Poissons Ratio (z) = 0.48906 -0.26198
#
# Static dielectric constant tensor:
#      x y z
#    x 2.047280 0.000000 0.000000 
#    y 0.000000 2.170730 0.000000 
#    z 0.000000 0.000000 2.319480 
# 
# From -- ./inp_files/11342.got.cif
#   From: 2010.05.17/outbox.cif.g08.bks.cpg/sg41_6_cif.got.tgz:11342.got - 2010.06.03 18:54:24.
