data_PCOD9367700
_publ_section_title
;
Structure prediction by ZEFSAII (Michael W. Deem and Ramdas Pophale) SiO2 
 PCOD9367700
Probable space group: A B A 2
;
_chemical_formula_sum "Si O2"
_cell_formula_units_Z 64
_cell_length_a 8.410022
_cell_length_b 24.338176
_cell_length_c 13.661100
_cell_angle_alpha 90.000000
_cell_angle_beta 90.000000
_cell_angle_gamma 90.000000
_cell_volume 2796.216729
_symmetry_space_group_name_H-M "A B A 2"
_symmetry_group_IT_number 41
_symmetry_cell_setting 'orthorhombic'
loop_
_space_group_symop_operation_xyz
x,y,z
-x,-y,z
1/2-x,y,1/2+z
1/2+x,-y,1/2+z
x,1/2+y,1/2+z
-x,1/2-y,1/2+z
1/2-x,1/2+y,z
1/2+x,1/2-y,z
loop_
_atom_site_type_symbol
_atom_site_label
_atom_site_fract_x
_atom_site_fract_y
_atom_site_fract_z
Si Si1 0.430890 0.281425 0.035380
Si Si2 0.121667 0.041210 0.635035
Si Si3 0.574091 0.326434 0.322483
Si Si4 0.896955 0.614355 0.227874
Si Si5 0.621667 0.041210 0.719885
Si Si6 0.569110 0.281425 0.819540
Si Si7 0.603045 0.385645 0.127046
Si Si8 0.074090 0.326435 0.032437
O O1 0.537548 0.330179 0.079961
O O2 0.247661 0.298033 0.027063
O O3 0.456838 0.220285 0.078443
O O4 0.500000 0.273936 0.927460
O O5 0.229284 0.090559 0.589774
O O6 0.030513 0.067694 0.728135
O O7 0.250000 0.000000 0.677460
O O8 0.000000 0.000000 0.579718
O O9 0.456838 0.279715 0.276477
O O10 0.605715 0.374107 0.244184
O O11 0.500000 0.342903 0.427460
O O12 0.747661 0.298033 0.327857
O O13 0.729284 0.590559 0.265146
O O14 0.962452 0.669821 0.274959
O O15 0.894285 0.625893 0.110736
O O16 0.530512 0.067694 0.626785
O O17 0.500000 0.000000 0.775202
#
# Coordination Sequence:
#
# PCOD9367700 Si02
#       8
#     8   8   8   8   8   8   8   8
#     4  11  24  38  59  92 130 164 203 254 302 373
#     4   9  20  38  62  92 116 152 205 262 310 359
#     4  11  24  38  59  92 130 164 203 253 304 373
#     4  11  21  38  67  90 118 169 208 245 317 377
#     4   9  20  38  62  92 116 152 205 262 310 359
#     4  11  24  38  59  92 130 164 203 254 302 373
#     4  11  21  38  67  90 118 169 208 245 317 377
#     4  11  24  38  59  92 130 164 203 253 304 373
#
# _framework density 22.888069000000002
#
# number of rings (size 3 to 8) (size 9 to 14) (size 15 to 20)
#    0.000    1.500    2.500    3.750    7.000    2.000 
#    0.000    0.000    0.000   22.500    0.000    0.000 
#    0.000    0.000    0.000    0.000    0.000    0.000 
#
# Total GULP energy -178371.701799 kJ/mol
# GULP energy per Si atom -5574.115681 kJ/mol
# Density = 2.283597 g / cm^3
# Si number density = 22.888069 Si / 1000 Ang^3
#
#
#
# Elastic Constant Matrix: (Units=GPa)
#
#
# Indices 1 2 3 4 5 6 
#
# 1 141.2871 28.0891 10.7882 0.0000 0.0000 0.0000
# 2 28.0891 108.9291 28.0091 0.0000 0.0000 0.0000
# 3 10.7882 28.0091 42.8376 0.0000 0.0000 0.0000
# 4 0.0000 0.0000 0.0000 8.3079 0.0000 0.0000
# 5 0.0000 0.0000 0.0000 0.0000 20.7983 0.0000
# 6 0.0000 0.0000 0.0000 0.0000 0.0000 63.5856
#
#
#
# Elastic Compliance Matrix: (Units=1/GPa)
#
#
# Indices 1 2 3 4 5 6 
#
# 1 0.007480 -0.001736 -0.000748 0.000000 0.000000 0.000000
# 2 -0.001736 0.011439 -0.007042 0.000000 0.000000 0.000000
# 3 -0.000748 -0.007042 0.028137 0.000000 0.000000 0.000000
# 4 0.000000 0.000000 0.000000 0.120367 0.000000 0.000000
# 5 0.000000 0.000000 0.000000 0.000000 0.048081 0.000000
# 6 0.000000 0.000000 0.000000 0.000000 0.000000 0.015727
#
#
# Mechanical properties :
#
#
# Convention : Reuss Voigt Hill
#
# Bulk Modulus (GPa) = 35.71149 47.42518 41.56834
# Shear Modulus (GPa) = 19.25907 33.61619 26.43763
#
# Velocity S-wave (km/s) = 2.90392 3.83655 3.40234
# Velocity P-wave (km/s) = 5.18461 6.35539 5.79962
#
# Compressibility (1/GPa) = 0.02800219
#
# Stress axis : x y z
#
# Youngs Moduli (GPa) = 133.68714 87.42237 35.54071
#
# Poissons Ratio (x) = 0.15180 0.02660
# Poissons Ratio (y) = 0.23214 0.25027
# Poissons Ratio (z) = 0.10006 0.61561
#
# Static dielectric constant tensor:
#      x y z
#    x 1.988380 0.000000 0.000000 
#    y 0.000000 2.059130 0.000000 
#    z 0.000000 0.000000 1.848960 
# 
# From -- ./inp_files/7577.got.cif
#   From: 2010.05.17/outbox.cif.g08.bks.cpg/sg41_4_cif.got.tgz:7577.got - 2010.06.03 18:54:24.
