data_PCOD9367250
_publ_section_title
;
Structure prediction by ZEFSAII (Michael W. Deem and Ramdas Pophale) SiO2 
 PCOD9367250
Probable space group: A B A 2
;
_chemical_formula_sum "Si O2"
_cell_formula_units_Z 64
_cell_length_a 11.237883
_cell_length_b 19.657554
_cell_length_c 13.359858
_cell_angle_alpha 90.000000
_cell_angle_beta 90.000000
_cell_angle_gamma 90.000000
_cell_volume 2951.316771
_symmetry_space_group_name_H-M "A B A 2"
_symmetry_group_IT_number 41
_symmetry_cell_setting 'orthorhombic'
loop_
_space_group_symop_operation_xyz
x,y,z
-x,-y,z
1/2-x,y,1/2+z
1/2+x,-y,1/2+z
x,1/2+y,1/2+z
-x,1/2-y,1/2+z
1/2-x,1/2+y,z
1/2+x,1/2-y,z
loop_
_atom_site_type_symbol
_atom_site_label
_atom_site_fract_x
_atom_site_fract_y
_atom_site_fract_z
Si Si1 0.769031 0.841342 0.382290
Si Si2 0.874233 0.701629 0.375293
Si Si3 0.942583 0.429699 0.648679
Si Si4 0.831644 0.936372 0.715854
Si Si5 0.399461 0.413423 0.708870
Si Si6 0.921785 0.296362 0.525385
Si Si7 0.825203 0.155523 0.522907
Si Si8 0.501543 0.577666 0.380552
O O1 0.816678 0.771204 0.334036
O O2 0.688579 0.884388 0.307059
O O3 0.702667 0.822568 0.482878
O O4 0.879496 0.887372 0.410115
O O5 0.884893 0.643390 0.293355
O O6 0.794715 0.678931 0.470025
O O7 0.000316 0.716266 0.426050
O O8 0.797469 0.435646 0.660310
O O9 0.968394 0.358924 0.591434
O O10 0.999246 0.422210 0.759716
O O11 0.000000 0.500000 0.606115
O O12 0.961968 0.916734 0.671363
O O13 0.856780 0.013738 0.749956
O O14 0.317401 0.395994 0.614253
O O15 0.896195 0.221257 0.567126
O O16 0.895763 0.119711 0.432798
O O17 0.500000 0.500000 0.414308
#
# Coordination Sequence:
#
# PCOD9367250 Si02
#       8
#     8   8   8   8   8   8   8   8
#     4  10  22  45  69  95 139 181 223 290 347 405
#     4  11  25  45  69 101 141 181 233 289 348 422
#     4  10  25  42  70 101 140 188 233 282 347 414
#     4  10  24  46  67 101 140 180 236 284 349 408
#     4  11  26  45  70 103 136 185 235 290 348 420
#     4  11  24  44  66 104 136 184 234 280 352 415
#     4  11  27  41  69 101 137 179 231 293 344 420
#     4  10  23  43  67  96 132 183 230 282 345 410
#
# _framework density 21.685236
#
# number of rings (size 3 to 8) (size 9 to 14) (size 15 to 20)
#    0.000    1.500    2.500    0.000   14.000    1.000 
#    0.000    0.000    0.000    0.000    0.000    0.000 
#    0.000    0.000    0.000    0.000    0.000    0.000 
#
# Total GULP energy -178595.106990 kJ/mol
# GULP energy per Si atom -5581.097093 kJ/mol
# Density = 2.163588 g / cm^3
# Si number density = 21.685236 Si / 1000 Ang^3
#
#
#
# Elastic Constant Matrix: (Units=GPa)
#
#
# Indices 1 2 3 4 5 6 
#
# 1 31.6994 26.7345 6.2413 0.0000 0.0000 0.0000
# 2 26.7345 155.4542 36.1730 0.0000 0.0000 0.0000
# 3 6.2413 36.1730 39.7710 0.0000 0.0000 0.0000
# 4 0.0000 0.0000 0.0000 31.4900 0.0000 0.0000
# 5 0.0000 0.0000 0.0000 0.0000 23.0850 0.0000
# 6 0.0000 0.0000 0.0000 0.0000 0.0000 36.2530
#
#
#
# Elastic Compliance Matrix: (Units=1/GPa)
#
#
# Indices 1 2 3 4 5 6 
#
# 1 0.036898 -0.006340 -0.000024 0.000000 0.000000 0.000000
# 2 -0.006340 0.009249 -0.007417 0.000000 0.000000 0.000000
# 3 -0.000024 -0.007417 0.031894 0.000000 0.000000 0.000000
# 4 0.000000 0.000000 0.000000 0.031756 0.000000 0.000000
# 5 0.000000 0.000000 0.000000 0.000000 0.043318 0.000000
# 6 0.000000 0.000000 0.000000 0.000000 0.000000 0.027584
#
#
# Mechanical properties :
#
#
# Convention : Reuss Voigt Hill
#
# Bulk Modulus (GPa) = 19.81044 40.58024 30.19534
# Shear Modulus (GPa) = 22.21350 28.68399 25.44874
#
# Velocity S-wave (km/s) = 3.20404 3.64090 3.42943
# Velocity P-wave (km/s) = 4.77944 6.03563 5.44389
#
# Compressibility (1/GPa) = 0.05047844
#
# Stress axis : x y z
#
# Youngs Moduli (GPa) = 27.10168 108.11899 31.35378
#
# Poissons Ratio (x) = 0.68548 0.00075
# Poissons Ratio (y) = 0.17183 0.23256
# Poissons Ratio (z) = 0.00065 0.80196
#
# Static dielectric constant tensor:
#      x y z
#    x 1.882520 0.000000 0.000000 
#    y 0.000000 1.805310 0.000000 
#    z 0.000000 0.000000 1.773760 
# 
# From -- ./inp_files/8099.got.cif
#   From: 2010.05.17/outbox.cif.g08.bks.cpg/sg41_5_cif.got.tgz:8099.got - 2010.06.03 18:54:24.
