data_PCOD9367957
_publ_section_title
;
Structure prediction by ZEFSAII (Michael W. Deem and Ramdas Pophale) SiO2 
 PCOD9367957
Probable space group: A B A 2
;
_chemical_formula_sum "Si O2"
_cell_formula_units_Z 48
_cell_length_a 11.625181
_cell_length_b 8.122824
_cell_length_c 22.475832
_cell_angle_alpha 90.000000
_cell_angle_beta 90.000000
_cell_angle_gamma 90.000000
_cell_volume 2122.377065
_symmetry_space_group_name_H-M "A B A 2"
_symmetry_group_IT_number 41
_symmetry_cell_setting 'orthorhombic'
loop_
_space_group_symop_operation_xyz
x,y,z
-x,-y,z
1/2-x,y,1/2+z
1/2+x,-y,1/2+z
x,1/2+y,1/2+z
-x,1/2-y,1/2+z
1/2-x,1/2+y,z
1/2+x,1/2-y,z
loop_
_atom_site_type_symbol
_atom_site_label
_atom_site_fract_x
_atom_site_fract_y
_atom_site_fract_z
Si Si1 0.204222 0.555165 0.697890
Si Si2 0.156531 0.257351 0.616888
Si Si3 0.601863 0.360952 0.795936
Si Si4 0.132863 0.551408 0.427007
Si Si5 0.500000 0.500000 0.568890
Si Si6 0.500000 0.000000 0.771168
Si Si7 0.788329 0.153122 0.502059
O O1 0.161525 0.381147 0.671808
O O2 0.239451 0.639862 0.636636
O O3 0.310666 0.583376 0.743017
O O4 0.093614 0.605111 0.734404
O O5 0.040241 0.153291 0.609275
O O6 0.193514 0.328259 0.553599
O O7 0.500000 0.500000 0.792143
O O8 0.658325 0.388262 0.860612
O O9 0.566747 0.163255 0.798122
O O10 0.152709 0.680957 0.479931
O O11 0.221913 0.410741 0.444494
O O12 0.000000 0.500000 0.428144
O O13 0.609919 0.541526 0.528580
#
# Coordination Sequence:
#
# PCOD9367957 Si02
#       7
#     8   8   8   8   4   4   8
#     4  12  26  47  74 115 151 203 259 324 399 480
#     4  12  25  45  76 108 154 201 257 324 396 477
#     4  11  28  51  78 113 155 205 269 327 398 478
#     4  11  27  49  75 107 153 200 268 325 390 479
#     4  12  26  43  74 114 154 201 264 318 408 476
#     4  12  28  47  80 116 158 215 258 332 410 474
#     4  12  25  48  74 111 147 208 255 327 394 474
#
# _framework density 22.616150000000001
#
# number of rings (size 3 to 8) (size 9 to 14) (size 15 to 20)
#    0.000    0.333    5.000    2.000    5.833    2.000 
#    1.500    0.000    0.000    0.000    0.000    0.000 
#    0.000    0.000    0.000    0.000    0.000    0.000 
#
# Total GULP energy -133737.185752 kJ/mol
# GULP energy per Si atom -5572.382740 kJ/mol
# Density = 2.256467 g / cm^3
# Si number density = 22.616150 Si / 1000 Ang^3
#
#
#
# Elastic Constant Matrix: (Units=GPa)
#
#
# Indices 1 2 3 4 5 6 
#
# 1 75.7430 30.8902 29.1566 0.0000 0.0000 0.0000
# 2 30.8902 69.1449 40.4878 0.0000 0.0000 0.0000
# 3 29.1566 40.4878 126.2670 0.0000 0.0000 0.0000
# 4 0.0000 0.0000 0.0000 3.0646 0.0000 0.0000
# 5 0.0000 0.0000 0.0000 0.0000 -20.4920 0.0000
# 6 0.0000 0.0000 0.0000 0.0000 0.0000 41.2013
#
#
#
# Elastic Compliance Matrix: (Units=1/GPa)
#
#
# Indices 1 2 3 4 5 6 
#
# 1 0.016461 -0.006314 -0.001777 0.000000 0.000000 0.000000
# 2 -0.006314 0.020227 -0.005028 0.000000 0.000000 0.000000
# 3 -0.001777 -0.005028 0.009942 0.000000 0.000000 0.000000
# 4 0.000000 0.000000 0.000000 0.326303 0.000000 0.000000
# 5 0.000000 0.000000 0.000000 0.000000 -0.048800 0.000000
# 6 0.000000 0.000000 0.000000 0.000000 0.000000 0.024271
#
#
# Mechanical properties :
#
#
# Convention : Reuss Voigt Hill
#
# Bulk Modulus (GPa) = 49.03388 52.46934 50.75161
# Shear Modulus (GPa) = 13.10823 16.12949 14.61886
#
# Velocity S-wave (km/s) = 2.41009 2.67345 2.54518
# Velocity P-wave (km/s) = 5.42888 5.72539 5.57910
#
# Compressibility (1/GPa) = 0.02039406
#
# Stress axis : x y z
#
# Youngs Moduli (GPa) = 60.74838 49.43856 100.58143
#
# Poissons Ratio (x) = 0.31214 0.17869
# Poissons Ratio (y) = 0.38355 0.50572
# Poissons Ratio (z) = 0.10793 0.24858
#
# Static dielectric constant tensor:
#      x y z
#    x 1.854350 0.000000 0.000000 
#    y 0.000000 2.071110 0.000000 
#    z 0.000000 0.000000 1.792110 
# 
# From -- ./inp_files/12134.got.cif
#   From: 2010.05.17/outbox.cif.g08.bks.cpg/sg41_7_cif.got.tgz:12134.got - 2010.06.03 18:54:24.
