data_PCOD9367921
_publ_section_title
;
Structure prediction by ZEFSAII (Michael W. Deem and Ramdas Pophale) SiO2 
 PCOD9367921
Probable space group: A B A 2
;
_chemical_formula_sum "Si O2"
_cell_formula_units_Z 56
_cell_length_a 20.259969
_cell_length_b 10.054811
_cell_length_c 11.317701
_cell_angle_alpha 90.000000
_cell_angle_beta 90.000000
_cell_angle_gamma 90.000000
_cell_volume 2305.530672
_symmetry_space_group_name_H-M "A B A 2"
_symmetry_group_IT_number 41
_symmetry_cell_setting 'orthorhombic'
loop_
_space_group_symop_operation_xyz
x,y,z
-x,-y,z
1/2-x,y,1/2+z
1/2+x,-y,1/2+z
x,1/2+y,1/2+z
-x,1/2-y,1/2+z
1/2-x,1/2+y,z
1/2+x,1/2-y,z
loop_
_atom_site_type_symbol
_atom_site_label
_atom_site_fract_x
_atom_site_fract_y
_atom_site_fract_z
Si Si1 0.000000 0.500000 0.445410
Si Si2 0.808450 0.514559 0.211170
Si Si3 0.500000 0.500000 0.541455
Si Si4 0.613300 0.938351 0.853016
Si Si5 0.877692 0.522030 0.600045
Si Si6 0.262928 0.099242 0.449827
Si Si7 0.442674 0.332881 0.738413
Si Si8 0.286440 0.772549 0.594364
O O1 0.060134 0.533036 0.531748
O O2 0.020985 0.384477 0.355910
O O3 0.801898 0.462163 0.342619
O O4 0.880069 0.577281 0.202267
O O5 0.798056 0.377299 0.138695
O O6 0.756136 0.631059 0.177752
O O7 0.561859 0.477990 0.453854
O O8 0.490231 0.370268 0.627525
O O9 0.614779 0.036352 0.740307
O O10 0.686806 0.932036 0.908517
O O11 0.588253 0.807363 0.779719
O O12 0.813382 0.441368 0.557053
O O13 0.856860 0.669135 0.560236
O O14 0.256382 0.256684 0.474765
#
# Coordination Sequence:
#
# PCOD9367921 Si02
#       8
#     4   8   4   8   8   8   8   8
#     4  11  25  48  74 110 161 209 276 334 410 503
#     4  12  25  48  76 116 160 200 273 336 409 490
#     4  11  29  52  78 118 161 221 276 346 414 513
#     4  12  27  53  79 118 167 213 284 344 421 508
#     4  12  26  49  76 118 159 217 272 344 421 498
#     4  12  24  47  80 114 159 209 266 347 410 491
#     4  11  26  52  80 116 158 218 274 342 424 502
#     4  12  26  45  77 118 155 208 264 339 413 492
#
# _framework density 24.289417
#
# number of rings (size 3 to 8) (size 9 to 14) (size 15 to 20)
#    0.000    0.286    4.286    3.857    4.000    0.000 
#   12.857    0.000    0.000    0.000    0.000    0.000 
#    0.000    0.000    0.000    0.000    0.000    0.000 
#
# Total GULP energy -156073.857290 kJ/mol
# GULP energy per Si atom -5574.066332 kJ/mol
# Density = 2.423413 g / cm^3
# Si number density = 24.289417 Si / 1000 Ang^3
#
#
#
# Elastic Constant Matrix: (Units=GPa)
#
#
# Indices 1 2 3 4 5 6 
#
# 1 109.9051 -1.7191 43.3031 0.0000 0.0000 0.0000
# 2 -1.7191 64.5786 11.2062 0.0000 0.0000 0.0000
# 3 43.3031 11.2062 130.7308 0.0000 0.0000 0.0000
# 4 0.0000 0.0000 0.0000 27.3125 0.0000 0.0000
# 5 0.0000 0.0000 0.0000 0.0000 75.1563 0.0000
# 6 0.0000 0.0000 0.0000 0.0000 0.0000 19.8081
#
#
#
# Elastic Compliance Matrix: (Units=1/GPa)
#
#
# Indices 1 2 3 4 5 6 
#
# 1 0.010515 0.000898 -0.003560 0.000000 0.000000 0.000000
# 2 0.000898 0.015795 -0.001651 0.000000 0.000000 0.000000
# 3 -0.003560 -0.001651 0.008970 0.000000 0.000000 0.000000
# 4 0.000000 0.000000 0.000000 0.036613 0.000000 0.000000
# 5 0.000000 0.000000 0.000000 0.000000 0.013306 0.000000
# 6 0.000000 0.000000 0.000000 0.000000 0.000000 0.050484
#
#
# Mechanical properties :
#
#
# Convention : Reuss Voigt Hill
#
# Bulk Modulus (GPa) = 37.51838 45.64388 41.58113
# Shear Modulus (GPa) = 32.63786 41.28367 36.96077
#
# Velocity S-wave (km/s) = 3.66964 4.12716 3.90511
# Velocity P-wave (km/s) = 5.78229 6.44544 6.12285
#
# Compressibility (1/GPa) = 0.02665360
#
# Stress axis : x y z
#
# Youngs Moduli (GPa) = 95.09780 63.30934 111.48153
#
# Poissons Ratio (x) = -0.05683 0.39688
# Poissons Ratio (y) = -0.08537 0.18409
# Poissons Ratio (z) = 0.33856 0.10454
#
# Static dielectric constant tensor:
#      x y z
#    x 2.142360 0.000000 0.000000 
#    y 0.000000 2.044000 0.000000 
#    z 0.000000 0.000000 2.160900 
# 
# From -- ./inp_files/6244.got.cif
#   From: 2010.05.17/outbox.cif.g08.bks.cpg/sg41_4_cif.got.tgz:6244.got - 2010.06.03 18:54:24.
