data_PCOD9367608
_publ_section_title
;
Structure prediction by ZEFSAII (Michael W. Deem and Ramdas Pophale) SiO2 
 PCOD9367608
Probable space group: A B A 2
;
_chemical_formula_sum "Si O2"
_cell_formula_units_Z 64
_cell_length_a 16.552795
_cell_length_b 12.072541
_cell_length_c 14.726167
_cell_angle_alpha 90.000000
_cell_angle_beta 90.000000
_cell_angle_gamma 90.000000
_cell_volume 2942.793220
_symmetry_space_group_name_H-M "A B A 2"
_symmetry_group_IT_number 41
_symmetry_cell_setting 'orthorhombic'
loop_
_space_group_symop_operation_xyz
x,y,z
-x,-y,z
1/2-x,y,1/2+z
1/2+x,-y,1/2+z
x,1/2+y,1/2+z
-x,1/2-y,1/2+z
1/2-x,1/2+y,z
1/2+x,1/2-y,z
loop_
_atom_site_type_symbol
_atom_site_label
_atom_site_fract_x
_atom_site_fract_y
_atom_site_fract_z
Si Si1 0.630026 0.442475 0.755370
Si Si2 0.178852 0.586188 0.738479
Si Si3 0.144898 0.833277 0.673201
Si Si4 0.410519 0.046203 0.457977
Si Si5 0.098645 0.170660 0.567302
Si Si6 0.566907 0.714731 0.501945
Si Si7 0.187068 0.403064 0.585801
Si Si8 0.901604 0.001321 0.420809
O O1 0.724592 0.410246 0.753612
O O2 0.629243 0.575423 0.748105
O O3 0.591651 0.419250 0.852445
O O4 0.589831 0.386744 0.666795
O O5 0.154188 0.709925 0.710256
O O6 0.160532 0.493447 0.661715
O O7 0.133613 0.546872 0.828928
O O8 0.073556 0.837983 0.601300
O O9 0.221645 0.874155 0.614018
O O10 0.397604 0.163848 0.506262
O O11 0.500000 0.000000 0.480424
O O12 0.341334 0.961665 0.492015
O O13 0.146507 0.282612 0.588414
O O14 0.029423 0.215756 0.497110
O O15 0.133400 0.071035 0.504479
O O16 0.612570 0.632804 0.433914
O O17 0.000000 0.000000 0.424396
#
# Coordination Sequence:
#
# PCOD9367608 Si02
#       8
#     8   8   8   8   8   8   8   8
#     4  11  27  42  68 101 138 177 230 283 343 413
#     4  11  25  44  68 103 132 184 228 278 352 409
#     4  11  24  44  69  96 134 183 224 278 348 405
#     4  12  27  44  67 106 136 181 230 285 350 407
#     4  11  23  47  68  97 138 182 227 288 339 405
#     4  11  24  44  71  95 135 182 226 278 345 407
#     4  11  25  45  65  99 141 174 225 287 336 403
#     4  10  25  42  69 102 133 179 230 277 343 413
#
# _framework density 21.748044
#
# number of rings (size 3 to 8) (size 9 to 14) (size 15 to 20)
#    0.000    1.000    5.000    0.000    7.000    2.500 
#    0.000    0.000    0.000    0.000    0.000    0.000 
#    0.000    0.000    0.000    0.000    0.000    0.000 
#
# Total GULP energy -178402.375584 kJ/mol
# GULP energy per Si atom -5575.074237 kJ/mol
# Density = 2.169854 g / cm^3
# Si number density = 21.748044 Si / 1000 Ang^3
#
#
#
# Elastic Constant Matrix: (Units=GPa)
#
#
# Indices 1 2 3 4 5 6 
#
# 1 19.4321 22.9488 11.3945 0.0000 0.0000 0.0000
# 2 22.9488 130.2365 19.1087 0.0000 0.0000 0.0000
# 3 11.3945 19.1087 94.5163 0.0000 0.0000 0.0000
# 4 0.0000 0.0000 0.0000 26.5592 0.0000 0.0000
# 5 0.0000 0.0000 0.0000 0.0000 23.3650 0.0000
# 6 0.0000 0.0000 0.0000 0.0000 0.0000 16.3956
#
#
#
# Elastic Compliance Matrix: (Units=1/GPa)
#
#
# Indices 1 2 3 4 5 6 
#
# 1 0.068093 -0.011124 -0.005960 0.000000 0.000000 0.000000
# 2 -0.011124 0.009730 -0.000626 0.000000 0.000000 0.000000
# 3 -0.005960 -0.000626 0.011425 0.000000 0.000000 0.000000
# 4 0.000000 0.000000 0.000000 0.037652 0.000000 0.000000
# 5 0.000000 0.000000 0.000000 0.000000 0.042799 0.000000
# 6 0.000000 0.000000 0.000000 0.000000 0.000000 0.060992
#
#
# Mechanical properties :
#
#
# Convention : Reuss Voigt Hill
#
# Bulk Modulus (GPa) = 18.57760 39.00988 28.79374
# Shear Modulus (GPa) = 17.60221 25.97948 21.79085
#
# Velocity S-wave (km/s) = 2.84803 3.46000 3.16882
# Velocity P-wave (km/s) = 4.40179 5.82566 5.16304
#
# Compressibility (1/GPa) = 0.05382826
#
# Stress axis : x y z
#
# Youngs Moduli (GPa) = 14.68575 102.77085 87.52513
#
# Poissons Ratio (x) = 1.14324 0.52165
# Poissons Ratio (y) = 0.16337 0.05480
# Poissons Ratio (z) = 0.08753 0.06435
#
# Static dielectric constant tensor:
#      x y z
#    x 1.852940 0.000000 0.000000 
#    y 0.000000 1.793540 0.000000 
#    z 0.000000 0.000000 1.775240 
# 
# From -- ./inp_files/8816.got.cif
#   From: 2010.05.17/outbox.cif.g08.bks.cpg/sg41_5_cif.got.tgz:8816.got - 2010.06.03 18:54:24.
