data_PCOD9367400
_publ_section_title
;
Structure prediction by ZEFSAII (Michael W. Deem and Ramdas Pophale) SiO2 
 PCOD9367400
Probable space group: A B A 2
;
_chemical_formula_sum "Si O2"
_cell_formula_units_Z 48
_cell_length_a 19.376798
_cell_length_b 10.670174
_cell_length_c 9.212152
_cell_angle_alpha 90.000000
_cell_angle_beta 90.000000
_cell_angle_gamma 90.000000
_cell_volume 1904.647490
_symmetry_space_group_name_H-M "A B A 2"
_symmetry_group_IT_number 41
_symmetry_cell_setting 'orthorhombic'
loop_
_space_group_symop_operation_xyz
x,y,z
-x,-y,z
1/2-x,y,1/2+z
1/2+x,-y,1/2+z
x,1/2+y,1/2+z
-x,1/2-y,1/2+z
1/2-x,1/2+y,z
1/2+x,1/2-y,z
loop_
_atom_site_type_symbol
_atom_site_label
_atom_site_fract_x
_atom_site_fract_y
_atom_site_fract_z
Si Si1 0.000000 0.000000 0.289290
Si Si2 0.145430 0.035419 0.308076
Si Si3 0.823294 0.198855 0.514137
Si Si4 0.000000 0.500000 0.275331
Si Si5 0.241923 0.707958 0.248986
Si Si6 0.400305 0.149389 0.099828
Si Si7 0.478331 0.742918 0.971541
O O1 0.013469 0.876508 0.388329
O O2 0.924975 0.984573 0.217449
O O3 0.209337 0.088655 0.220473
O O4 0.123475 0.132856 0.434482
O O5 0.168089 0.919155 0.407455
O O6 0.769929 0.281535 0.420319
O O7 0.786070 0.183807 0.668729
O O8 0.899334 0.258361 0.523769
O O9 0.066767 0.523172 0.171284
O O10 0.001819 0.622997 0.375708
O O11 0.164914 0.695686 0.188475
O O12 0.464890 0.244230 0.097805
#
# Coordination Sequence:
#
# PCOD9367400 Si02
#       7
#     4   8   8   4   8   8   8
#     4   8  19  44  71 100 144 189 247 304 374 435
#     4  10  23  44  72 100 142 197 243 308 374 453
#     4  11  25  47  68 105 145 194 250 308 381 458
#     4  12  23  44  79 106 150 201 257 316 384 459
#     4  12  25  45  69 104 148 188 243 311 382 446
#     4  11  24  45  71 105 145 190 248 308 376 448
#     4  10  23  46  72 108 145 197 254 309 373 459
#
# _framework density 25.201514
#
# number of rings (size 3 to 8) (size 9 to 14) (size 15 to 20)
#    0.000    1.333    3.333    3.000    2.333    6.667 
#    3.000    0.833    0.000    0.000    0.000    0.000 
#    0.000    0.000    0.000    0.000    0.000    0.000 
#
# Total GULP energy -134075.581221 kJ/mol
# GULP energy per Si atom -5586.482551 kJ/mol
# Density = 2.514415 g / cm^3
# Si number density = 25.201514 Si / 1000 Ang^3
#
#
#
# Elastic Constant Matrix: (Units=GPa)
#
#
# Indices 1 2 3 4 5 6 
#
# 1 209.9887 41.2218 41.9159 0.0000 0.0000 0.0000
# 2 41.2218 94.6166 29.7671 0.0000 0.0000 0.0000
# 3 41.9159 29.7671 77.7799 0.0000 0.0000 0.0000
# 4 0.0000 0.0000 0.0000 21.1326 0.0000 0.0000
# 5 0.0000 0.0000 0.0000 0.0000 31.2870 0.0000
# 6 0.0000 0.0000 0.0000 0.0000 0.0000 34.2606
#
#
#
# Elastic Compliance Matrix: (Units=1/GPa)
#
#
# Indices 1 2 3 4 5 6 
#
# 1 0.005562 -0.001683 -0.002353 0.000000 0.000000 0.000000
# 2 -0.001683 0.012525 -0.003886 0.000000 0.000000 0.000000
# 3 -0.002353 -0.003886 0.015612 0.000000 0.000000 0.000000
# 4 0.000000 0.000000 0.000000 0.047320 0.000000 0.000000
# 5 0.000000 0.000000 0.000000 0.000000 0.031962 0.000000
# 6 0.000000 0.000000 0.000000 0.000000 0.000000 0.029188
#
#
# Mechanical properties :
#
#
# Convention : Reuss Voigt Hill
#
# Bulk Modulus (GPa) = 56.01002 67.57721 61.79361
# Shear Modulus (GPa) = 30.49389 35.30139 32.89764
#
# Velocity S-wave (km/s) = 3.48228 3.74674 3.61693
# Velocity P-wave (km/s) = 6.20012 6.75206 6.48197
#
# Compressibility (1/GPa) = 0.01785395
#
# Stress axis : x y z
#
# Youngs Moduli (GPa) = 179.78163 79.84114 64.05138
#
# Poissons Ratio (x) = 0.13437 0.15074
# Poissons Ratio (y) = 0.30256 0.24893
# Poissons Ratio (z) = 0.42311 0.31030
#
# Static dielectric constant tensor:
#      x y z
#    x 2.018680 0.000000 0.000000 
#    y 0.000000 2.081810 0.000000 
#    z 0.000000 0.000000 2.042630 
# 
# From -- ./inp_files/5948.got.cif
#   From: 2010.05.17/outbox.cif.g08.bks.cpg/sg41_3_cif.got.tgz:5948.got - 2010.06.03 18:54:24.
