data_PCOD9367987
_publ_section_title
;
Structure prediction by ZEFSAII (Michael W. Deem and Ramdas Pophale) SiO2 
 PCOD9367987
Probable space group: A B A 2
;
_chemical_formula_sum "Si O2"
_cell_formula_units_Z 52
_cell_length_a 8.179545
_cell_length_b 13.999363
_cell_length_c 20.989330
_cell_angle_alpha 90.000000
_cell_angle_beta 90.000000
_cell_angle_gamma 90.000000
_cell_volume 2403.455007
_symmetry_space_group_name_H-M "A B A 2"
_symmetry_group_IT_number 41
_symmetry_cell_setting 'orthorhombic'
loop_
_space_group_symop_operation_xyz
x,y,z
-x,-y,z
1/2-x,y,1/2+z
1/2+x,-y,1/2+z
x,1/2+y,1/2+z
-x,1/2-y,1/2+z
1/2-x,1/2+y,z
1/2+x,1/2-y,z
loop_
_atom_site_type_symbol
_atom_site_label
_atom_site_fract_x
_atom_site_fract_y
_atom_site_fract_z
Si Si1 0.000000 0.000000 0.936121
Si Si2 0.355381 0.214263 0.610516
Si Si3 0.655698 0.226831 0.257939
Si Si4 0.179798 0.031055 0.631257
Si Si5 0.358729 0.112785 0.321929
Si Si6 0.670857 0.119592 0.544418
Si Si7 0.667576 0.539778 0.254263
O O1 0.894004 0.926508 0.892522
O O2 0.104430 0.924694 0.978520
O O3 0.382309 0.250883 0.683366
O O4 0.202534 0.141917 0.618708
O O5 0.509746 0.154324 0.584002
O O6 0.297765 0.293801 0.559440
O O7 0.511018 0.169127 0.291826
O O8 0.710186 0.316675 0.300874
O O9 0.807507 0.152151 0.256205
O O10 0.230315 0.970635 0.570908
O O11 0.311747 0.998353 0.683041
O O12 0.000000 0.000000 0.652173
O O13 0.314869 0.013883 0.288123
O O14 0.500000 0.500000 0.281609
#
# Coordination Sequence:
#
# PCOD9367987 Si02
#       7
#     4   8   8   8   8   8   8
#     4  12  28  52  70  96 150 200 242 294 344 424
#     4  12  24  42  75 111 138 180 235 302 368 424
#     4  12  24  42  75 111 138 180 235 302 368 424
#     4  12  24  43  71 110 149 180 227 300 371 423
#     4  12  26  47  72 105 146 191 237 292 356 429
#     4  12  26  47  72 105 146 191 237 292 356 429
#     4  12  24  43  71 110 149 180 227 300 371 423
#
# _framework density 21.635521000000001
#
# number of rings (size 3 to 8) (size 9 to 14) (size 15 to 20)
#    0.000    0.000    6.154    4.615    0.000    1.231 
#    0.000    0.769    0.000    0.000    0.000    0.000 
#    0.000    0.000    0.000    0.000    0.000    0.000 
#
# Total GULP energy -145095.542487 kJ/mol
# GULP energy per Si atom -5580.597788 kJ/mol
# Density = 2.158628 g / cm^3
# Si number density = 21.635521 Si / 1000 Ang^3
#
#
#
# Elastic Constant Matrix: (Units=GPa)
#
#
# Indices 1 2 3 4 5 6 
#
# 1 94.9180 30.1613 31.3952 0.0000 0.0000 0.0000
# 2 30.1613 136.5070 56.6577 0.0000 0.0000 0.0000
# 3 31.3952 56.6577 99.5915 0.0000 0.0000 0.0000
# 4 0.0000 0.0000 0.0000 42.3930 0.0000 0.0000
# 5 0.0000 0.0000 0.0000 0.0000 31.8977 0.0000
# 6 0.0000 0.0000 0.0000 0.0000 0.0000 34.5816
#
#
#
# Elastic Compliance Matrix: (Units=1/GPa)
#
#
# Indices 1 2 3 4 5 6 
#
# 1 0.011966 -0.001412 -0.002969 0.000000 0.000000 0.000000
# 2 -0.001412 0.009757 -0.005106 0.000000 0.000000 0.000000
# 3 -0.002969 -0.005106 0.013882 0.000000 0.000000 0.000000
# 4 0.000000 0.000000 0.000000 0.023589 0.000000 0.000000
# 5 0.000000 0.000000 0.000000 0.000000 0.031350 0.000000
# 6 0.000000 0.000000 0.000000 0.000000 0.000000 0.028917
#
#
# Mechanical properties :
#
#
# Convention : Reuss Voigt Hill
#
# Bulk Modulus (GPa) = 60.12616 63.04942 61.58779
# Shear Modulus (GPa) = 34.72786 35.96130 35.34458
#
# Velocity S-wave (km/s) = 4.01076 4.08136 4.04621
# Velocity P-wave (km/s) = 7.02133 7.17042 7.09626
#
# Compressibility (1/GPa) = 0.01663170
#
# Stress axis : x y z
#
# Youngs Moduli (GPa) = 83.56997 102.49480 72.03800
#
# Poissons Ratio (x) = 0.14468 0.21389
# Poissons Ratio (y) = 0.11796 0.36779
# Poissons Ratio (z) = 0.24813 0.52329
#
# Static dielectric constant tensor:
#      x y z
#    x 1.457100 0.000000 0.000000 
#    y 0.000000 1.835360 0.000000 
#    z 0.000000 0.000000 2.222360 
# 
# From -- ./inp_files/11175.got.cif
#   From: 2010.05.17/outbox.cif.g08.bks.cpg/sg41_6_cif.got.tgz:11175.got - 2010.06.03 18:54:24.
