data_PCOD9367349
_publ_section_title
;
Structure prediction by ZEFSAII (Michael W. Deem and Ramdas Pophale) SiO2 
 PCOD9367349
Probable space group: A B A 2
;
_chemical_formula_sum "Si O2"
_cell_formula_units_Z 40
_cell_length_a 5.021957
_cell_length_b 26.246218
_cell_length_c 11.108889
_cell_angle_alpha 90.000000
_cell_angle_beta 90.000000
_cell_angle_gamma 90.000000
_cell_volume 1464.233534
_symmetry_space_group_name_H-M "A B A 2"
_symmetry_group_IT_number 41
_symmetry_cell_setting 'orthorhombic'
loop_
_space_group_symop_operation_xyz
x,y,z
-x,-y,z
1/2-x,y,1/2+z
1/2+x,-y,1/2+z
x,1/2+y,1/2+z
-x,1/2-y,1/2+z
1/2-x,1/2+y,z
1/2+x,1/2-y,z
loop_
_atom_site_type_symbol
_atom_site_label
_atom_site_fract_x
_atom_site_fract_y
_atom_site_fract_z
Si Si1 0.539282 0.939858 0.409860
Si Si2 0.633011 0.443764 0.648656
Si Si3 0.203856 0.213980 0.820198
Si Si4 0.604239 0.145602 0.885553
Si Si5 0.132688 0.837770 0.639202
O O1 0.720954 0.935270 0.287604
O O2 0.661133 0.932716 0.542181
O O3 0.268130 0.907690 0.390539
O O4 0.500000 0.000000 0.408753
O O5 0.500000 0.500000 0.635820
O O6 0.430540 0.397614 0.630997
O O7 0.448460 0.251324 0.845606
O O8 0.288658 0.161567 0.890423
O O9 0.122843 0.194132 0.685769
O O10 0.670724 0.165658 0.751672
O O11 0.715091 0.174348 0.004572
#
# Coordination Sequence:
#
# PCOD9367349 Si02
#       5
#     8   8   8   8   8
#     4  10  23  44  71 118 167 220 279 344 424 513
#     4  10  23  42  70 115 159 219 275 339 416 508
#     4  12  28  54  78 118 160 217 282 354 427 503
#     4  11  27  49  81 120 164 220 280 353 430 514
#     4  11  27  47  82 118 164 215 280 352 429 512
#
# _framework density 27.318045000000001
#
# number of rings (size 3 to 8) (size 9 to 14) (size 15 to 20)
#    0.000    1.200    2.000    1.200    8.400    2.400 
#    0.000    0.000    0.000    0.000    0.000    0.000 
#    0.000    0.000    0.000    0.000    0.000    0.000 
#
# Total GULP energy -111450.749496 kJ/mol
# GULP energy per Si atom -5572.537475 kJ/mol
# Density = 2.725587 g / cm^3
# Si number density = 27.318045 Si / 1000 Ang^3
#
#
#
# Elastic Constant Matrix: (Units=GPa)
#
#
# Indices 1 2 3 4 5 6 
#
# 1 158.6608 70.2755 65.4146 0.0000 0.0000 0.0000
# 2 70.2755 170.3371 42.9566 0.0000 0.0000 0.0000
# 3 65.4146 42.9566 207.8415 0.0000 0.0000 0.0000
# 4 0.0000 0.0000 0.0000 42.2688 0.0000 0.0000
# 5 0.0000 0.0000 0.0000 0.0000 -168.5896 0.0000
# 6 0.0000 0.0000 0.0000 0.0000 0.0000 33.3542
#
#
#
# Elastic Compliance Matrix: (Units=1/GPa)
#
#
# Indices 1 2 3 4 5 6 
#
# 1 0.008466 -0.002976 -0.002049 0.000000 0.000000 0.000000
# 2 -0.002976 0.007240 -0.000560 0.000000 0.000000 0.000000
# 3 -0.002049 -0.000560 0.005572 0.000000 0.000000 0.000000
# 4 0.000000 0.000000 0.000000 0.023658 0.000000 0.000000
# 5 0.000000 0.000000 0.000000 0.000000 -0.005932 0.000000
# 6 0.000000 0.000000 0.000000 0.000000 0.000000 0.029981
#
#
# Mechanical properties :
#
#
# Convention : Reuss Voigt Hill
#
# Bulk Modulus (GPa) = 98.93615 99.34809 99.14212
# Shear Modulus (GPa) = 59.86277 5.28619 32.57448
#
# Velocity S-wave (km/s) = 4.68624 1.39257 3.45688
# Velocity P-wave (km/s) = 8.09791 6.24755 7.23215
#
# Compressibility (1/GPa) = 0.01010753
#
# Stress axis : x y z
#
# Youngs Moduli (GPa) = 118.12203 138.12913 179.46712
#
# Poissons Ratio (x) = 0.41106 0.36780
# Poissons Ratio (y) = 0.35152 0.10044
# Poissons Ratio (z) = 0.24208 0.07731
#
# Static dielectric constant tensor:
#      x y z
#    x 4.328970 0.000000 0.000000 
#    y 0.000000 2.218560 0.000000 
#    z 0.000000 0.000000 2.183110 
# 
# From -- ./inp_files/4141.got.cif
#   From: 2010.05.17/outbox.cif.g08.bks.cpg/sg41_3_cif.got.tgz:4141.got - 2010.06.03 18:54:24.
