data_PCOD9367705
_publ_section_title
;
Structure prediction by ZEFSAII (Michael W. Deem and Ramdas Pophale) SiO2 
 PCOD9367705
Probable space group: A B A 2
;
_chemical_formula_sum "Si O2"
_cell_formula_units_Z 40
_cell_length_a 12.606371
_cell_length_b 8.420810
_cell_length_c 16.818000
_cell_angle_alpha 90.000000
_cell_angle_beta 90.000000
_cell_angle_gamma 90.000000
_cell_volume 1785.329169
_symmetry_space_group_name_H-M "A B A 2"
_symmetry_group_IT_number 41
_symmetry_cell_setting 'orthorhombic'
loop_
_space_group_symop_operation_xyz
x,y,z
-x,-y,z
1/2-x,y,1/2+z
1/2+x,-y,1/2+z
x,1/2+y,1/2+z
-x,1/2-y,1/2+z
1/2-x,1/2+y,z
1/2+x,1/2-y,z
loop_
_atom_site_type_symbol
_atom_site_label
_atom_site_fract_x
_atom_site_fract_y
_atom_site_fract_z
Si Si1 0.957327 0.326377 0.218940
Si Si2 0.121922 0.935230 0.521554
Si Si3 0.155092 0.120718 0.264999
Si Si4 0.232639 0.193457 0.609860
Si Si5 0.668590 0.708635 0.351896
O O1 0.879478 0.256807 0.150607
O O2 0.898613 0.340742 0.304459
O O3 0.000000 0.500000 0.195763
O O4 0.050598 0.205618 0.235744
O O5 0.175603 0.818012 0.587264
O O6 0.140053 0.834837 0.441299
O O7 0.197486 0.089246 0.534022
O O8 0.000000 0.000000 0.524458
O O9 0.223208 0.095489 0.185044
O O10 0.213237 0.237095 0.328412
O O11 0.142495 0.953788 0.306411
#
# Coordination Sequence:
#
# PCOD9367705 Si02
#       5
#     8   8   8   8   8
#     4  11  22  41  69  98 129 176 234 293 350 420
#     4  12  25  44  64  98 143 182 230 295 358 423
#     4  11  21  41  65  94 128 171 230 285 339 417
#     4  11  23  40  67  94 131 180 228 283 350 418
#     4  11  24  40  66  96 130 175 223 280 350 418
#
# _framework density 22.404831999999999
#
# number of rings (size 3 to 8) (size 9 to 14) (size 15 to 20)
#    0.000    0.800    0.000   10.800    0.000    0.000 
#    0.000    3.000    0.000    4.800    0.000    0.000 
#    0.000    0.000    0.000    0.000    0.000    0.000 
#
# Total GULP energy -111543.263038 kJ/mol
# GULP energy per Si atom -5577.163152 kJ/mol
# Density = 2.235384 g / cm^3
# Si number density = 22.404832 Si / 1000 Ang^3
#
#
#
# Elastic Constant Matrix: (Units=GPa)
#
#
# Indices 1 2 3 4 5 6 
#
# 1 106.5254 38.4338 51.0201 0.0000 0.0000 0.0000
# 2 38.4338 89.2186 32.4996 0.0000 0.0000 0.0000
# 3 51.0201 32.4996 139.7241 0.0000 0.0000 0.0000
# 4 0.0000 0.0000 0.0000 45.4908 0.0000 0.0000
# 5 0.0000 0.0000 0.0000 0.0000 14.4705 0.0000
# 6 0.0000 0.0000 0.0000 0.0000 0.0000 44.3874
#
#
#
# Elastic Compliance Matrix: (Units=1/GPa)
#
#
# Indices 1 2 3 4 5 6 
#
# 1 0.012618 -0.004105 -0.003653 0.000000 0.000000 0.000000
# 2 -0.004105 0.013582 -0.001660 0.000000 0.000000 0.000000
# 3 -0.003653 -0.001660 0.008877 0.000000 0.000000 0.000000
# 4 0.000000 0.000000 0.000000 0.021982 0.000000 0.000000
# 5 0.000000 0.000000 0.000000 0.000000 0.069106 0.000000
# 6 0.000000 0.000000 0.000000 0.000000 0.000000 0.022529
#
#
# Mechanical properties :
#
#
# Convention : Reuss Voigt Hill
#
# Bulk Modulus (GPa) = 61.57320 64.37499 62.97410
# Shear Modulus (GPa) = 28.91131 35.10406 32.00769
#
# Velocity S-wave (km/s) = 3.59612 3.96259 3.78379
# Velocity P-wave (km/s) = 6.69212 7.05203 6.87443
#
# Compressibility (1/GPa) = 0.01624083
#
# Stress axis : x y z
#
# Youngs Moduli (GPa) = 79.25246 73.62940 112.65278
#
# Poissons Ratio (x) = 0.30225 0.41147
# Poissons Ratio (y) = 0.32533 0.18701
# Poissons Ratio (z) = 0.28948 0.12223
#
# Static dielectric constant tensor:
#      x y z
#    x 1.930200 0.000000 0.000000 
#    y 0.000000 1.835550 0.000000 
#    z 0.000000 0.000000 1.877540 
# 
# From -- ./inp_files/9896.got.cif
#   From: 2010.05.17/outbox.cif.g08.bks.cpg/sg41_5_cif.got.tgz:9896.got - 2010.06.03 18:54:24.
