data_PCOD9367092
_publ_section_title
;
Structure prediction by ZEFSAII (Michael W. Deem and Ramdas Pophale) SiO2 
 PCOD9367092
Probable space group: A B A 2
;
_chemical_formula_sum "Si O2"
_cell_formula_units_Z 40
_cell_length_a 18.110138
_cell_length_b 11.875128
_cell_length_c 7.535172
_cell_angle_alpha 90.000000
_cell_angle_beta 90.000000
_cell_angle_gamma 90.000000
_cell_volume 1620.515649
_symmetry_space_group_name_H-M "A B A 2"
_symmetry_group_IT_number 41
_symmetry_cell_setting 'orthorhombic'
loop_
_space_group_symop_operation_xyz
x,y,z
-x,-y,z
1/2-x,y,1/2+z
1/2+x,-y,1/2+z
x,1/2+y,1/2+z
-x,1/2-y,1/2+z
1/2-x,1/2+y,z
1/2+x,1/2-y,z
loop_
_atom_site_type_symbol
_atom_site_label
_atom_site_fract_x
_atom_site_fract_y
_atom_site_fract_z
Si Si1 0.753133 0.276398 0.576930
Si Si2 0.418255 0.192090 0.443953
Si Si3 0.343681 0.332417 0.861966
Si Si4 0.123355 0.047740 0.626070
Si Si5 0.535135 0.848643 0.834738
O O1 0.831108 0.294848 0.478001
O O2 0.702773 0.162808 0.542661
O O3 0.787407 0.256277 0.772553
O O4 0.697857 0.381954 0.586372
O O5 0.425535 0.115207 0.271119
O O6 0.453428 0.140713 0.623902
O O7 0.454650 0.311847 0.398354
O O8 0.355870 0.434067 0.728889
O O9 0.419233 0.265819 0.885477
O O10 0.075505 0.054578 0.446362
#
# Coordination Sequence:
#
# PCOD9367092 Si02
#       5
#     8   8   8   8   8
#     4  10  22  41  63  97 130 175 216 280 332 394
#     4  11  21  42  69  90 138 176 216 273 342 394
#     4  10  23  39  66  96 129 167 231 267 330 401
#     4  11  23  43  68  94 135 174 221 275 334 396
#     4  10  23  43  67  95 131 183 215 275 339 398
#
# _framework density 24.683501
#
# number of rings (size 3 to 8) (size 9 to 14) (size 15 to 20)
#    0.000    1.600    4.000    0.000    2.800    0.800 
#    0.000    0.000   13.200    0.000    0.000    0.000 
#    0.000    0.000    0.000    0.000    0.000    0.000 
#
# Total GULP energy -111615.943805 kJ/mol
# GULP energy per Si atom -5580.797190 kJ/mol
# Density = 2.462732 g / cm^3
# Si number density = 24.683501 Si / 1000 Ang^3
#
#
#
# Elastic Constant Matrix: (Units=GPa)
#
#
# Indices 1 2 3 4 5 6 
#
# 1 76.1111 27.5782 22.0934 0.0000 0.0000 0.0000
# 2 27.5782 115.9367 26.3522 0.0000 0.0000 0.0000
# 3 22.0934 26.3522 99.2061 0.0000 0.0000 0.0000
# 4 0.0000 0.0000 0.0000 25.4269 0.0000 0.0000
# 5 0.0000 0.0000 0.0000 0.0000 37.4284 0.0000
# 6 0.0000 0.0000 0.0000 0.0000 0.0000 18.1171
#
#
#
# Elastic Compliance Matrix: (Units=1/GPa)
#
#
# Indices 1 2 3 4 5 6 
#
# 1 0.014956 -0.002980 -0.002539 0.000000 0.000000 0.000000
# 2 -0.002980 0.009774 -0.001932 0.000000 0.000000 0.000000
# 3 -0.002539 -0.001932 0.011159 0.000000 0.000000 0.000000
# 4 0.000000 0.000000 0.000000 0.039328 0.000000 0.000000
# 5 0.000000 0.000000 0.000000 0.000000 0.026718 0.000000
# 6 0.000000 0.000000 0.000000 0.000000 0.000000 0.055196
#
#
# Mechanical properties :
#
#
# Convention : Reuss Voigt Hill
#
# Bulk Modulus (GPa) = 47.65451 49.25572 48.45512
# Shear Modulus (GPa) = 27.92844 30.54316 29.23580
#
# Velocity S-wave (km/s) = 3.36737 3.52147 3.44528
# Velocity P-wave (km/s) = 5.87086 6.04422 5.95817
#
# Compressibility (1/GPa) = 0.02098437
#
# Stress axis : x y z
#
# Youngs Moduli (GPa) = 66.86443 102.31647 89.61564
#
# Poissons Ratio (x) = 0.30495 0.22753
# Poissons Ratio (y) = 0.19929 0.17317
# Poissons Ratio (z) = 0.16977 0.19772
#
# Static dielectric constant tensor:
#      x y z
#    x 2.153180 0.000000 0.000000 
#    y 0.000000 1.989810 0.000000 
#    z 0.000000 0.000000 2.571020 
# 
# From -- ./inp_files/2963.got.cif
#   From: 2010.05.17/outbox.cif.g08.bks.cpg/sg41_2_cif.got.tgz:2963.got - 2010.06.03 18:54:24.
