data_PCOD9367195
_publ_section_title
;
Structure prediction by ZEFSAII (Michael W. Deem and Ramdas Pophale) SiO2 
 PCOD9367195
Probable space group: A B A 2
;
_chemical_formula_sum "Si O2"
_cell_formula_units_Z 40
_cell_length_a 7.741836
_cell_length_b 11.711873
_cell_length_c 17.396869
_cell_angle_alpha 90.000000
_cell_angle_beta 90.000000
_cell_angle_gamma 90.000000
_cell_volume 1577.398468
_symmetry_space_group_name_H-M "A B A 2"
_symmetry_group_IT_number 41
_symmetry_cell_setting 'orthorhombic'
loop_
_space_group_symop_operation_xyz
x,y,z
-x,-y,z
1/2-x,y,1/2+z
1/2+x,-y,1/2+z
x,1/2+y,1/2+z
-x,1/2-y,1/2+z
1/2-x,1/2+y,z
1/2+x,1/2-y,z
loop_
_atom_site_type_symbol
_atom_site_label
_atom_site_fract_x
_atom_site_fract_y
_atom_site_fract_z
Si Si1 0.281063 0.859052 0.762630
Si Si2 0.901448 0.330712 0.662222
Si Si3 0.500000 0.000000 0.950658
Si Si4 0.000000 0.000000 0.833402
Si Si5 0.724727 0.826179 0.399098
Si Si6 0.388790 0.680128 0.555241
O O1 0.468846 0.880764 0.726179
O O2 0.285453 0.775720 0.837638
O O3 0.175343 0.781846 0.702544
O O4 0.162186 0.967053 0.780960
O O5 0.027063 0.287670 0.595238
O O6 0.734963 0.383259 0.618449
O O7 0.635459 0.932439 0.896838
O O8 0.469729 0.900101 0.013679
O O9 0.046945 0.107122 0.886112
O O10 0.767547 0.785352 0.483935
#
# Coordination Sequence:
#
# PCOD9367195 Si02
#       6
#     8   8   4   4   8   8
#     4  11  24  45  71 104 146 193 247 313 371 461
#     4  10  22  43  71 100 148 195 234 311 385 427
#     4   8  22  43  72 105 144 186 250 296 386 431
#     4  12  26  43  74 107 140 196 254 302 390 445
#     4  10  24  44  72 102 144 190 249 312 364 459
#     4   9  22  43  67 104 140 192 241 303 369 462
#
# _framework density 25.35821
#
# number of rings (size 3 to 8) (size 9 to 14) (size 15 to 20)
#    1.200    0.800    2.000    0.000    5.600    2.400 
#    3.600    0.000    4.400    0.000    0.000    0.000 
#    0.000    0.000    0.000    0.000    0.000    0.000 
#
# Total GULP energy -111370.377554 kJ/mol
# GULP energy per Si atom -5568.518878 kJ/mol
# Density = 2.530049 g / cm^3
# Si number density = 25.358210 Si / 1000 Ang^3
#
#
#
# Elastic Constant Matrix: (Units=GPa)
#
#
# Indices 1 2 3 4 5 6 
#
# 1 85.9350 38.8056 24.2352 0.0000 0.0000 0.0000
# 2 38.8056 78.2271 31.2805 0.0000 0.0000 0.0000
# 3 24.2352 31.2805 130.0027 0.0000 0.0000 0.0000
# 4 0.0000 0.0000 0.0000 62.7221 0.0000 0.0000
# 5 0.0000 0.0000 0.0000 0.0000 16.1749 0.0000
# 6 0.0000 0.0000 0.0000 0.0000 0.0000 34.4280
#
#
#
# Elastic Compliance Matrix: (Units=1/GPa)
#
#
# Indices 1 2 3 4 5 6 
#
# 1 0.015143 -0.007062 -0.001124 0.000000 0.000000 0.000000
# 2 -0.007062 0.017438 -0.002879 0.000000 0.000000 0.000000
# 3 -0.001124 -0.002879 0.008594 0.000000 0.000000 0.000000
# 4 0.000000 0.000000 0.000000 0.015943 0.000000 0.000000
# 5 0.000000 0.000000 0.000000 0.000000 0.061824 0.000000
# 6 0.000000 0.000000 0.000000 0.000000 0.000000 0.029046
#
#
# Mechanical properties :
#
#
# Convention : Reuss Voigt Hill
#
# Bulk Modulus (GPa) = 52.50840 53.64526 53.07683
# Shear Modulus (GPa) = 28.33381 35.98792 32.16087
#
# Velocity S-wave (km/s) = 3.34629 3.77129 3.56513
# Velocity P-wave (km/s) = 5.97343 6.33754 6.15818
#
# Compressibility (1/GPa) = 0.01904457
#
# Stress axis : x y z
#
# Youngs Moduli (GPa) = 66.03814 57.34592 116.35494
#
# Poissons Ratio (x) = 0.40500 0.13074
# Poissons Ratio (y) = 0.46639 0.33501
# Poissons Ratio (z) = 0.07420 0.16511
#
# Static dielectric constant tensor:
#      x y z
#    x 2.099510 0.000000 0.000000 
#    y 0.000000 1.993840 0.000000 
#    z 0.000000 0.000000 2.024580 
# 
# From -- ./inp_files/9561.got.cif
#   From: 2010.05.17/outbox.cif.g08.bks.cpg/sg41_5_cif.got.tgz:9561.got - 2010.06.03 18:54:24.
