data_PCOD9367777
_publ_section_title
;
Structure prediction by ZEFSAII (Michael W. Deem and Ramdas Pophale) SiO2 
 PCOD9367777
Probable space group: A B A 2
;
_chemical_formula_sum "Si O2"
_cell_formula_units_Z 36
_cell_length_a 10.370566
_cell_length_b 13.898404
_cell_length_c 13.288288
_cell_angle_alpha 90.000000
_cell_angle_beta 90.000000
_cell_angle_gamma 90.000000
_cell_volume 1915.298301
_symmetry_space_group_name_H-M "A B A 2"
_symmetry_group_IT_number 41
_symmetry_cell_setting 'orthorhombic'
loop_
_space_group_symop_operation_xyz
x,y,z
-x,-y,z
1/2-x,y,1/2+z
1/2+x,-y,1/2+z
x,1/2+y,1/2+z
-x,1/2-y,1/2+z
1/2-x,1/2+y,z
1/2+x,1/2-y,z
loop_
_atom_site_type_symbol
_atom_site_label
_atom_site_fract_x
_atom_site_fract_y
_atom_site_fract_z
Si Si1 0.000000 0.000000 0.008371
Si Si2 0.134502 0.648777 0.392047
Si Si3 0.610350 0.304075 0.659114
Si Si4 0.160072 0.806132 0.560865
Si Si5 0.720743 0.478062 0.531396
O O1 0.868422 0.993900 0.069506
O O2 0.008147 0.092903 0.935068
O O3 0.123970 0.675085 0.276863
O O4 0.155821 0.741597 0.460895
O O5 0.248037 0.573121 0.423856
O O6 0.711450 0.224119 0.621061
O O7 0.464804 0.280171 0.627333
O O8 0.648985 0.401543 0.599947
O O9 0.157458 0.918144 0.532084
#
# Coordination Sequence:
#
# PCOD9367777 Si02
#       5
#     4   8   8   8   8
#     4   8  18  40  60  82 122 164 184 262 302 358
#     4   9  22  40  62  87 127 163 203 248 324 353
#     4  11  24  39  63  96 119 168 210 246 315 372
#     4  11  23  40  63  92 126 159 210 263 296 372
#     4   9  21  38  64  84 123 156 206 250 312 355
#
# _framework density 18.796026000000001
#
# number of rings (size 3 to 8) (size 9 to 14) (size 15 to 20)
#    1.333    0.889    0.000    2.000    3.111    7.111 
#    0.000    0.000    9.778    0.000    0.000    0.000 
#    0.000    0.000    0.000    0.000    0.000    0.000 
#
# Total GULP energy -100218.369796 kJ/mol
# GULP energy per Si atom -5567.687211 kJ/mol
# Density = 1.875325 g / cm^3
# Si number density = 18.796026 Si / 1000 Ang^3
#
#
#
# Elastic Constant Matrix: (Units=GPa)
#
#
# Indices 1 2 3 4 5 6 
#
# 1 77.2179 5.2055 30.4083 0.0000 0.0000 0.0000
# 2 5.2055 91.9697 42.9474 0.0000 0.0000 0.0000
# 3 30.4083 42.9474 67.9289 0.0000 0.0000 0.0000
# 4 0.0000 0.0000 0.0000 7.2480 0.0000 0.0000
# 5 0.0000 0.0000 0.0000 0.0000 13.5484 0.0000
# 6 0.0000 0.0000 0.0000 0.0000 0.0000 20.8587
#
#
#
# Elastic Compliance Matrix: (Units=1/GPa)
#
#
# Indices 1 2 3 4 5 6 
#
# 1 0.016509 0.003571 -0.009648 0.000000 0.000000 0.000000
# 2 0.003571 0.016201 -0.011841 0.000000 0.000000 0.000000
# 3 -0.009648 -0.011841 0.026527 0.000000 0.000000 0.000000
# 4 0.000000 0.000000 0.000000 0.137969 0.000000 0.000000
# 5 0.000000 0.000000 0.000000 0.000000 0.073809 0.000000
# 6 0.000000 0.000000 0.000000 0.000000 0.000000 0.047942
#
#
# Mechanical properties :
#
#
# Convention : Reuss Voigt Hill
#
# Bulk Modulus (GPa) = 42.73539 43.80435 43.26987
# Shear Modulus (GPa) = 13.78958 18.90138 16.34548
#
# Velocity S-wave (km/s) = 2.71152 3.17457 2.95214
# Velocity P-wave (km/s) = 5.70867 6.06571 5.88990
#
# Compressibility (1/GPa) = 0.02339981
#
# Stress axis : x y z
#
# Youngs Moduli (GPa) = 60.57317 61.72633 37.69799
#
# Poissons Ratio (x) = -0.22042 0.36371
# Poissons Ratio (y) = -0.21630 0.44639
# Poissons Ratio (z) = 0.58440 0.73091
#
# Static dielectric constant tensor:
#      x y z
#    x 1.703070 0.000000 0.000000 
#    y 0.000000 1.677680 0.000000 
#    z 0.000000 0.000000 1.598120 
# 
# From -- ./inp_files/4765.got.cif
#   From: 2010.05.17/outbox.cif.g08.bks.cpg/sg41_3_cif.got.tgz:4765.got - 2010.06.03 18:54:24.
