data_PCOD9367682
_publ_section_title
;
Structure prediction by ZEFSAII (Michael W. Deem and Ramdas Pophale) SiO2 
 PCOD9367682
Probable space group: A B A 2
;
_chemical_formula_sum "Si O2"
_cell_formula_units_Z 60
_cell_length_a 5.298201
_cell_length_b 27.831807
_cell_length_c 19.291776
_cell_angle_alpha 90.000000
_cell_angle_beta 90.000000
_cell_angle_gamma 90.000000
_cell_volume 2844.736499
_symmetry_space_group_name_H-M "A B A 2"
_symmetry_group_IT_number 41
_symmetry_cell_setting 'orthorhombic'
loop_
_space_group_symop_operation_xyz
x,y,z
-x,-y,z
1/2-x,y,1/2+z
1/2+x,-y,1/2+z
x,1/2+y,1/2+z
-x,1/2-y,1/2+z
1/2-x,1/2+y,z
1/2+x,1/2-y,z
loop_
_atom_site_type_symbol
_atom_site_label
_atom_site_fract_x
_atom_site_fract_y
_atom_site_fract_z
Si Si1 0.500000 0.000000 0.309170
Si Si2 0.227155 0.407802 0.236991
Si Si3 0.752660 0.515739 0.441429
Si Si4 0.807118 0.279919 0.581505
Si Si5 0.744682 0.815340 0.426956
Si Si6 0.286883 0.724175 0.780252
Si Si7 0.225716 0.634664 0.685923
Si Si8 0.752301 0.625583 0.893116
O O1 0.628774 0.040486 0.263280
O O2 0.711102 0.985804 0.367830
O O3 0.497417 0.402315 0.199929
O O4 0.246087 0.378075 0.309415
O O5 0.002687 0.388173 0.188874
O O6 0.500000 0.500000 0.477016
O O7 0.741577 0.571254 0.421718
O O8 0.000000 0.500000 0.482171
O O9 0.559499 0.249162 0.600284
O O10 0.783833 0.289222 0.499769
O O11 0.810949 0.331259 0.619780
O O12 0.726962 0.778901 0.362923
O O13 0.506733 0.850527 0.417617
O O14 0.006488 0.844468 0.419018
O O15 0.564283 0.740253 0.757656
O O16 0.224297 0.672406 0.749580
#
# Coordination Sequence:
#
# PCOD9367682 Si02
#       8
#     4   8   8   8   8   8   8   8
#     4   8  22  30  60  90 132 154 198 244 306 366
#     4  11  21  38  61  97 127 161 200 257 312 374
#     4   9  18  29  52  85 129 159 187 237 308 360
#     4  12  26  47  65  86 122 168 220 258 309 380
#     4  12  23  39  61  88 119 164 205 258 309 368
#     4  12  22  35  55  85 118 152 197 252 308 354
#     4  12  24  40  63  89 124 162 210 255 315 367
#     4  11  20  36  58  93 126 151 203 252 307 366
#
# _framework density 21.091586
#
# number of rings (size 3 to 8) (size 9 to 14) (size 15 to 20)
#    0.400    0.533    2.667    5.600    3.733    0.000 
#    0.000    0.000    0.000    0.000   17.333    0.000 
#    0.000    0.000    0.000    0.000    0.000    0.000 
#
# Total GULP energy -167596.941719 kJ/mol
# GULP energy per Si atom -5586.564724 kJ/mol
# Density = 2.104358 g / cm^3
# Si number density = 21.091586 Si / 1000 Ang^3
#
#
#
# Elastic Constant Matrix: (Units=GPa)
#
#
# Indices 1 2 3 4 5 6 
#
# 1 151.1086 31.5665 -12.6917 0.0000 0.0000 0.0000
# 2 31.5665 40.3641 -14.7240 0.0000 0.0000 0.0000
# 3 -12.6917 -14.7240 57.4553 0.0000 0.0000 0.0000
# 4 0.0000 0.0000 0.0000 21.6473 0.0000 0.0000
# 5 0.0000 0.0000 0.0000 0.0000 9.4425 0.0000
# 6 0.0000 0.0000 0.0000 0.0000 0.0000 -25.3470
#
#
#
# Elastic Compliance Matrix: (Units=1/GPa)
#
#
# Indices 1 2 3 4 5 6 
#
# 1 0.007912 -0.006122 0.000179 0.000000 0.000000 0.000000
# 2 -0.006122 0.032066 0.006865 0.000000 0.000000 0.000000
# 3 0.000179 0.006865 0.019204 0.000000 0.000000 0.000000
# 4 0.000000 0.000000 0.000000 0.046195 0.000000 0.000000
# 5 0.000000 0.000000 0.000000 0.000000 0.105904 0.000000
# 6 0.000000 0.000000 0.000000 0.000000 0.000000 -0.039452
#
#
# Mechanical properties :
#
#
# Convention : Reuss Voigt Hill
#
# Bulk Modulus (GPa) = 16.38650 28.58107 22.48378
# Shear Modulus (GPa) = 26.27062 17.46705 21.86884
#
# Velocity S-wave (km/s) = 3.53306 2.88089 3.22351
# Velocity P-wave (km/s) = 4.94262 4.96451 4.95358
#
# Compressibility (1/GPa) = 0.06102586
#
# Stress axis : x y z
#
# Youngs Moduli (GPa) = 126.39571 31.18521 52.07333
#
# Poissons Ratio (x) = 0.19092 -0.00931
# Poissons Ratio (y) = 0.77380 -0.35750
# Poissons Ratio (z) = -0.02260 -0.21410
#
# Static dielectric constant tensor:
#      x y z
#    x 1.809870 0.000000 0.000000 
#    y 0.000000 1.727820 0.000000 
#    z 0.000000 0.000000 1.753210 
# 
# From -- ./inp_files/9470.got.cif
#   From: 2010.05.17/outbox.cif.g08.bks.cpg/sg41_5_cif.got.tgz:9470.got - 2010.06.03 18:54:24.
