data_PCOD9367738
_publ_section_title
;
Structure prediction by ZEFSAII (Michael W. Deem and Ramdas Pophale) SiO2 
 PCOD9367738
Probable space group: A B A 2
;
_chemical_formula_sum "Si O2"
_cell_formula_units_Z 64
_cell_length_a 17.262011
_cell_length_b 15.565096
_cell_length_c 10.655740
_cell_angle_alpha 90.000000
_cell_angle_beta 90.000000
_cell_angle_gamma 90.000000
_cell_volume 2863.035993
_symmetry_space_group_name_H-M "A B A 2"
_symmetry_group_IT_number 41
_symmetry_cell_setting 'orthorhombic'
loop_
_space_group_symop_operation_xyz
x,y,z
-x,-y,z
1/2-x,y,1/2+z
1/2+x,-y,1/2+z
x,1/2+y,1/2+z
-x,1/2-y,1/2+z
1/2-x,1/2+y,z
1/2+x,1/2-y,z
loop_
_atom_site_type_symbol
_atom_site_label
_atom_site_fract_x
_atom_site_fract_y
_atom_site_fract_z
Si Si1 0.577703 0.316565 0.661870
Si Si2 0.363470 0.697742 0.925808
Si Si3 0.167835 0.350590 0.573870
Si Si4 0.349700 0.040713 0.023563
Si Si5 0.909427 0.633495 0.072828
Si Si6 0.695358 0.663982 0.779118
Si Si7 0.194028 0.151023 0.313910
Si Si8 0.672758 0.963077 0.579287
O O1 0.577850 0.297832 0.809994
O O2 0.615813 0.233255 0.596256
O O3 0.628263 0.403677 0.645225
O O4 0.495373 0.338005 0.603507
O O5 0.276910 0.681583 0.869676
O O6 0.368791 0.787397 0.000285
O O7 0.373443 0.612496 0.009618
O O8 0.229359 0.346285 0.689991
O O9 0.199139 0.348316 0.429035
O O10 0.131402 0.445398 0.586060
O O11 0.257840 0.020326 0.017508
O O12 0.398641 0.955737 0.999657
O O13 0.361007 0.113425 0.919155
O O14 0.867459 0.608305 0.204676
O O15 0.663859 0.760577 0.758348
O O16 0.196986 0.077072 0.211820
#
# Coordination Sequence:
#
# PCOD9367738 Si02
#       8
#     8   8   8   8   8   8   8   8
#     4  12  27  47  68 103 147 197 242 298 369 445
#     4  11  25  45  70 106 145 185 243 309 363 439
#     4  12  27  43  75 105 145 187 245 301 368 438
#     4  11  24  43  70 104 138 183 242 299 361 442
#     4  12  28  46  72 101 145 200 242 297 369 446
#     4  12  24  46  69 105 140 188 239 302 357 434
#     4  11  22  41  74 104 139 175 234 313 364 418
#     4  11  24  41  72 111 135 178 239 311 372 420
#
# _framework density 22.353892999999999
#
# number of rings (size 3 to 8) (size 9 to 14) (size 15 to 20)
#    0.000    0.500    6.250    1.125    8.750    0.000 
#    0.000    0.625    0.000    0.000    0.000    0.000 
#    0.000    0.000    0.000    0.000    0.000    0.000 
#
# Total GULP energy -178565.161338 kJ/mol
# GULP energy per Si atom -5580.161292 kJ/mol
# Density = 2.230301 g / cm^3
# Si number density = 22.353893 Si / 1000 Ang^3
#
#
#
# Elastic Constant Matrix: (Units=GPa)
#
#
# Indices 1 2 3 4 5 6 
#
# 1 41.5869 4.3185 8.3457 0.0000 0.0000 0.0000
# 2 4.3185 166.4432 34.0885 0.0000 0.0000 0.0000
# 3 8.3457 34.0885 96.7858 0.0000 0.0000 0.0000
# 4 0.0000 0.0000 0.0000 29.4335 0.0000 0.0000
# 5 0.0000 0.0000 0.0000 0.0000 13.1710 0.0000
# 6 0.0000 0.0000 0.0000 0.0000 0.0000 17.2525
#
#
#
# Elastic Compliance Matrix: (Units=1/GPa)
#
#
# Indices 1 2 3 4 5 6 
#
# 1 0.024477 -0.000219 -0.002034 0.000000 0.000000 0.000000
# 2 -0.000219 0.006477 -0.002262 0.000000 0.000000 0.000000
# 3 -0.002034 -0.002262 0.011304 0.000000 0.000000 0.000000
# 4 0.000000 0.000000 0.000000 0.033975 0.000000 0.000000
# 5 0.000000 0.000000 0.000000 0.000000 0.075925 0.000000
# 6 0.000000 0.000000 0.000000 0.000000 0.000000 0.057963
#
#
# Mechanical properties :
#
#
# Convention : Reuss Voigt Hill
#
# Bulk Modulus (GPa) = 30.09421 44.25792 37.17606
# Shear Modulus (GPa) = 21.71780 29.17560 25.44670
#
# Velocity S-wave (km/s) = 3.12034 3.61663 3.37761
# Velocity P-wave (km/s) = 5.14528 6.10588 5.64605
#
# Compressibility (1/GPa) = 0.03322899
#
# Stress axis : x y z
#
# Youngs Moduli (GPa) = 40.85494 154.39047 88.46207
#
# Poissons Ratio (x) = 0.03375 0.17990
# Poissons Ratio (y) = 0.00893 0.20014
# Poissons Ratio (z) = 0.08308 0.34930
#
# Static dielectric constant tensor:
#      x y z
#    x 1.846100 0.000000 0.000000 
#    y 0.000000 1.838720 0.000000 
#    z 0.000000 0.000000 1.904940 
# 
# From -- ./inp_files/6042.got.cif
#   From: 2010.05.17/outbox.cif.g08.bks.cpg/sg41_4_cif.got.tgz:6042.got - 2010.06.03 18:54:24.
