data_PCOD9367654
_publ_section_title
;
Structure prediction by ZEFSAII (Michael W. Deem and Ramdas Pophale) SiO2 
 PCOD9367654
Probable space group: A B A 2
;
_chemical_formula_sum "Si O2"
_cell_formula_units_Z 40
_cell_length_a 18.198842
_cell_length_b 10.017108
_cell_length_c 10.054175
_cell_angle_alpha 90.000000
_cell_angle_beta 90.000000
_cell_angle_gamma 90.000000
_cell_volume 1832.873748
_symmetry_space_group_name_H-M "A B A 2"
_symmetry_group_IT_number 41
_symmetry_cell_setting 'orthorhombic'
loop_
_space_group_symop_operation_xyz
x,y,z
-x,-y,z
1/2-x,y,1/2+z
1/2+x,-y,1/2+z
x,1/2+y,1/2+z
-x,1/2-y,1/2+z
1/2-x,1/2+y,z
1/2+x,1/2-y,z
loop_
_atom_site_type_symbol
_atom_site_label
_atom_site_fract_x
_atom_site_fract_y
_atom_site_fract_z
Si Si1 0.645871 0.833732 0.595670
Si Si2 0.606251 0.115605 0.287191
Si Si3 0.732571 0.679851 0.992315
Si Si4 0.564265 0.831043 0.333601
Si Si5 0.336364 0.914978 0.765837
O O1 0.632918 0.689086 0.656382
O O2 0.723265 0.819374 0.516279
O O3 0.583334 0.858067 0.487791
O O4 0.642786 0.938113 0.715838
O O5 0.657524 0.167328 0.407473
O O6 0.521925 0.156462 0.311330
O O7 0.606243 0.956227 0.266815
O O8 0.788185 0.595585 0.898955
O O9 0.711184 0.634270 0.139669
O O10 0.597555 0.690185 0.287617
#
# Coordination Sequence:
#
# PCOD9367654 Si02
#       5
#     8   8   8   8   8
#     4  11  25  45  71 102 135 183 235 284 355 408
#     4  11  24  45  70  97 142 181 235 283 347 420
#     4  11  24  42  68 105 134 181 228 292 341 416
#     4  10  26  47  66 102 140 189 225 292 351 416
#     4  11  25  44  73  99 143 178 234 286 356 407
#
# _framework density 21.823651000000002
#
# number of rings (size 3 to 8) (size 9 to 14) (size 15 to 20)
#    0.000    1.200    4.000    0.000    8.400    0.800 
#    3.600    0.000    0.000    0.000    0.000    0.000 
#    0.000    0.000    0.000    0.000    0.000    0.000 
#
# Total GULP energy -111627.000575 kJ/mol
# GULP energy per Si atom -5581.350029 kJ/mol
# Density = 2.177398 g / cm^3
# Si number density = 21.823651 Si / 1000 Ang^3
#
#
#
# Elastic Constant Matrix: (Units=GPa)
#
#
# Indices 1 2 3 4 5 6 
#
# 1 96.2371 36.5488 20.1448 0.0000 0.0000 0.0000
# 2 36.5488 98.3817 30.7698 0.0000 0.0000 0.0000
# 3 20.1448 30.7698 91.5488 0.0000 0.0000 0.0000
# 4 0.0000 0.0000 0.0000 29.9821 0.0000 0.0000
# 5 0.0000 0.0000 0.0000 0.0000 70.4787 0.0000
# 6 0.0000 0.0000 0.0000 0.0000 0.0000 28.2529
#
#
#
# Elastic Compliance Matrix: (Units=1/GPa)
#
#
# Indices 1 2 3 4 5 6 
#
# 1 0.012235 -0.004138 -0.001301 0.000000 0.000000 0.000000
# 2 -0.004138 0.012758 -0.003377 0.000000 0.000000 0.000000
# 3 -0.001301 -0.003377 0.012345 0.000000 0.000000 0.000000
# 4 0.000000 0.000000 0.000000 0.033353 0.000000 0.000000
# 5 0.000000 0.000000 0.000000 0.000000 0.014189 0.000000
# 6 0.000000 0.000000 0.000000 0.000000 0.000000 0.035395
#
#
# Mechanical properties :
#
#
# Convention : Reuss Voigt Hill
#
# Bulk Modulus (GPa) = 50.75195 51.23271 50.99233
# Shear Modulus (GPa) = 34.60768 38.98968 36.79868
#
# Velocity S-wave (km/s) = 3.98652 4.23138 4.11077
# Velocity P-wave (km/s) = 6.67051 6.88473 6.77847
#
# Compressibility (1/GPa) = 0.01970368
#
# Stress axis : x y z
#
# Youngs Moduli (GPa) = 81.73244 78.38098 81.00667
#
# Poissons Ratio (x) = 0.32436 0.10542
# Poissons Ratio (y) = 0.33823 0.27360
# Poissons Ratio (z) = 0.10636 0.26473
#
# Static dielectric constant tensor:
#      x y z
#    x 1.796490 0.000000 0.000000 
#    y 0.000000 1.857480 0.000000 
#    z 0.000000 0.000000 1.754510 
# 
# From -- ./inp_files/2911.got.cif
#   From: 2010.05.17/outbox.cif.g08.bks.cpg/sg41_2_cif.got.tgz:2911.got - 2010.06.03 18:54:24.
