data_PCOD9367359
_publ_section_title
;
Structure prediction by ZEFSAII (Michael W. Deem and Ramdas Pophale) SiO2 
 PCOD9367359
Probable space group: A B A 2
;
_chemical_formula_sum "Si O2"
_cell_formula_units_Z 48
_cell_length_a 9.572693
_cell_length_b 10.977776
_cell_length_c 23.233900
_cell_angle_alpha 90.000000
_cell_angle_beta 90.000000
_cell_angle_gamma 90.000000
_cell_volume 2441.578049
_symmetry_space_group_name_H-M "A B A 2"
_symmetry_group_IT_number 41
_symmetry_cell_setting 'orthorhombic'
loop_
_space_group_symop_operation_xyz
x,y,z
-x,-y,z
1/2-x,y,1/2+z
1/2+x,-y,1/2+z
x,1/2+y,1/2+z
-x,1/2-y,1/2+z
1/2-x,1/2+y,z
1/2+x,1/2-y,z
loop_
_atom_site_type_symbol
_atom_site_label
_atom_site_fract_x
_atom_site_fract_y
_atom_site_fract_z
Si Si1 0.348461 0.956305 0.710520
Si Si2 0.658292 0.343807 0.003656
Si Si3 0.500000 0.000000 0.408390
Si Si4 0.965675 0.721566 0.344548
Si Si5 0.226784 0.194540 0.764049
Si Si6 0.000000 0.500000 0.598303
Si Si7 0.970458 0.359529 0.964942
O O1 0.305655 0.821255 0.730497
O O2 0.384360 0.947402 0.642543
O O3 0.500000 0.000000 0.735190
O O4 0.244548 0.068154 0.728090
O O5 0.600705 0.421525 0.949106
O O6 0.823934 0.336995 0.997244
O O7 0.593296 0.210859 0.997348
O O8 0.585836 0.407548 0.058180
O O9 0.588374 0.093165 0.369887
O O10 0.870492 0.779361 0.296413
O O11 0.969757 0.808310 0.399886
O O12 0.111299 0.688114 0.314322
O O13 0.000000 0.500000 0.963499
#
# Coordination Sequence:
#
# PCOD9367359 Si02
#       7
#     8   8   4   8   8   4   8
#     4  10  24  46  66 102 130 174 235 296 334 410
#     4  10  23  43  66  94 136 173 227 288 342 406
#     4   9  20  36  58  94 126 174 226 267 324 416
#     4  11  22  36  65  95 138 183 217 270 346 411
#     4  12  23  42  67  99 138 180 227 285 344 409
#     4   9  22  48  76  86 136 174 224 303 356 376
#     4  11  26  40  65 102 138 179 230 272 341 432
#
# _framework density 19.659416
#
# number of rings (size 3 to 8) (size 9 to 14) (size 15 to 20)
#    0.500    1.000    1.667    3.000   11.667    1.333 
#    0.000    0.000    0.000    0.000    0.000    0.000 
#    0.000    0.000    0.000    0.000    0.000    0.000 
#
# Total GULP energy -133782.468824 kJ/mol
# GULP energy per Si atom -5574.269534 kJ/mol
# Density = 1.961467 g / cm^3
# Si number density = 19.659416 Si / 1000 Ang^3
#
#
#
# Elastic Constant Matrix: (Units=GPa)
#
#
# Indices 1 2 3 4 5 6 
#
# 1 83.0426 38.7383 21.6949 0.0000 0.0000 0.0000
# 2 38.7383 153.3644 67.0949 0.0000 0.0000 0.0000
# 3 21.6949 67.0949 103.8469 0.0000 0.0000 0.0000
# 4 0.0000 0.0000 0.0000 3.7212 0.0000 0.0000
# 5 0.0000 0.0000 0.0000 0.0000 35.2090 0.0000
# 6 0.0000 0.0000 0.0000 0.0000 0.0000 25.9406
#
#
#
# Elastic Compliance Matrix: (Units=1/GPa)
#
#
# Indices 1 2 3 4 5 6 
#
# 1 0.013707 -0.003080 -0.000874 0.000000 0.000000 0.000000
# 2 -0.003080 0.009782 -0.005677 0.000000 0.000000 0.000000
# 3 -0.000874 -0.005677 0.013480 0.000000 0.000000 0.000000
# 4 0.000000 0.000000 0.000000 0.268733 0.000000 0.000000
# 5 0.000000 0.000000 0.000000 0.000000 0.028402 0.000000
# 6 0.000000 0.000000 0.000000 0.000000 0.000000 0.038550
#
#
# Mechanical properties :
#
#
# Convention : Reuss Voigt Hill
#
# Bulk Modulus (GPa) = 56.47104 66.14557 61.30831
# Shear Modulus (GPa) = 12.56863 27.15588 19.86226
#
# Velocity S-wave (km/s) = 2.53122 3.72064 3.18200
# Velocity P-wave (km/s) = 6.10981 7.22332 6.68977
#
# Compressibility (1/GPa) = 0.01770819
#
# Stress axis : x y z
#
# Youngs Moduli (GPa) = 72.95515 102.23053 74.18612
#
# Poissons Ratio (x) = 0.31488 0.06480
# Poissons Ratio (y) = 0.22471 0.42112
# Poissons Ratio (z) = 0.06373 0.58031
#
# Static dielectric constant tensor:
#      x y z
#    x 1.542580 0.000000 0.000000 
#    y 0.000000 2.171910 0.000000 
#    z 0.000000 0.000000 1.713370 
# 
# From -- ./inp_files/11970.got.cif
#   From: 2010.05.17/outbox.cif.g08.bks.cpg/sg41_6_cif.got.tgz:11970.got - 2010.06.03 18:54:24.
