data_PCOD9367948
_publ_section_title
;
Structure prediction by ZEFSAII (Michael W. Deem and Ramdas Pophale) SiO2 
 PCOD9367948
Probable space group: A B A 2
;
_chemical_formula_sum "Si O2"
_cell_formula_units_Z 40
_cell_length_a 9.096956
_cell_length_b 14.242977
_cell_length_c 13.590108
_cell_angle_alpha 90.000000
_cell_angle_beta 90.000000
_cell_angle_gamma 90.000000
_cell_volume 1760.839513
_symmetry_space_group_name_H-M "A B A 2"
_symmetry_group_IT_number 41
_symmetry_cell_setting 'orthorhombic'
loop_
_space_group_symop_operation_xyz
x,y,z
-x,-y,z
1/2-x,y,1/2+z
1/2+x,-y,1/2+z
x,1/2+y,1/2+z
-x,1/2-y,1/2+z
1/2-x,1/2+y,z
1/2+x,1/2-y,z
loop_
_atom_site_type_symbol
_atom_site_label
_atom_site_fract_x
_atom_site_fract_y
_atom_site_fract_z
Si Si1 0.654717 0.618413 0.855230
Si Si2 0.493681 0.811903 0.859768
Si Si3 0.581779 0.816981 0.082628
Si Si4 0.611762 0.351114 0.157842
Si Si5 0.500000 0.000000 0.521195
Si Si6 0.500000 0.500000 0.701099
O O1 0.537579 0.703151 0.836155
O O2 0.819561 0.661745 0.862147
O O3 0.630586 0.537557 0.772845
O O4 0.598355 0.568301 0.954210
O O5 0.568939 0.867513 0.770261
O O6 0.569924 0.829461 0.965175
O O7 0.498290 0.722880 0.110042
O O8 0.735134 0.802864 0.136972
O O9 0.525084 0.911432 0.132233
O O10 0.607065 0.443297 0.092278
#
# Coordination Sequence:
#
# PCOD9367948 Si02
#       6
#     8   8   8   8   4   4
#     4  11  26  49  80 111 156 201 259 312 387 468
#     4  12  26  48  83 109 151 209 256 309 391 464
#     4  12  28  48  79 110 156 202 259 319 386 453
#     4  12  28  48  79 110 156 202 259 319 386 453
#     4  11  28  47  74 114 160 195 254 323 378 456
#     4  11  28  47  74 114 160 195 254 323 378 456
#
# _framework density 22.716438
#
# number of rings (size 3 to 8) (size 9 to 14) (size 15 to 20)
#    0.000    0.400    4.000    2.400    5.600    2.400 
#    0.000    0.000    0.000    0.000    0.000    0.000 
#    0.000    0.000    0.000    0.000    0.000    0.000 
#
# Total GULP energy -111803.519801 kJ/mol
# GULP energy per Si atom -5590.175990 kJ/mol
# Density = 2.266473 g / cm^3
# Si number density = 22.716438 Si / 1000 Ang^3
#
#
#
# Elastic Constant Matrix: (Units=GPa)
#
#
# Indices 1 2 3 4 5 6 
#
# 1 92.7345 -3.8346 17.9474 0.0000 0.0000 0.0000
# 2 -3.8346 34.9774 6.5366 0.0000 0.0000 0.0000
# 3 17.9474 6.5366 164.7187 0.0000 0.0000 0.0000
# 4 0.0000 0.0000 0.0000 59.1362 0.0000 0.0000
# 5 0.0000 0.0000 0.0000 0.0000 18.7649 0.0000
# 6 0.0000 0.0000 0.0000 0.0000 0.0000 17.0283
#
#
#
# Elastic Compliance Matrix: (Units=1/GPa)
#
#
# Indices 1 2 3 4 5 6 
#
# 1 0.011088 0.001452 -0.001266 0.000000 0.000000 0.000000
# 2 0.001452 0.028994 -0.001309 0.000000 0.000000 0.000000
# 3 -0.001266 -0.001309 0.006261 0.000000 0.000000 0.000000
# 4 0.000000 0.000000 0.000000 0.016910 0.000000 0.000000
# 5 0.000000 0.000000 0.000000 0.000000 0.053291 0.000000
# 6 0.000000 0.000000 0.000000 0.000000 0.000000 0.058726
#
#
# Mechanical properties :
#
#
# Convention : Reuss Voigt Hill
#
# Bulk Modulus (GPa) = 22.67668 37.08106 29.87887
# Shear Modulus (GPa) = 26.01264 37.10462 31.55863
#
# Velocity S-wave (km/s) = 3.38761 4.04590 3.73130
# Velocity P-wave (km/s) = 5.03044 6.17937 5.63427
#
# Compressibility (1/GPa) = 0.04409816
#
# Stress axis : x y z
#
# Youngs Moduli (GPa) = 90.18355 34.49030 159.72369
#
# Poissons Ratio (x) = -0.05009 0.20218
# Poissons Ratio (y) = -0.13097 0.20905
# Poissons Ratio (z) = 0.11415 0.04514
#
# Static dielectric constant tensor:
#      x y z
#    x 1.850080 0.000000 0.000000 
#    y 0.000000 1.805980 0.000000 
#    z 0.000000 0.000000 1.849630 
# 
# From -- ./inp_files/7205.got.cif
#   From: 2010.05.17/outbox.cif.g08.bks.cpg/sg41_4_cif.got.tgz:7205.got - 2010.06.03 18:54:24.
