data_PCOD9367909
_publ_section_title
;
Structure prediction by ZEFSAII (Michael W. Deem and Ramdas Pophale) SiO2 
 PCOD9367909
Probable space group: A B A 2
;
_chemical_formula_sum "Si O2"
_cell_formula_units_Z 48
_cell_length_a 7.534487
_cell_length_b 30.811116
_cell_length_c 8.565069
_cell_angle_alpha 90.000000
_cell_angle_beta 90.000000
_cell_angle_gamma 90.000000
_cell_volume 1988.346105
_symmetry_space_group_name_H-M "A B A 2"
_symmetry_group_IT_number 41
_symmetry_cell_setting 'orthorhombic'
loop_
_space_group_symop_operation_xyz
x,y,z
-x,-y,z
1/2-x,y,1/2+z
1/2+x,-y,1/2+z
x,1/2+y,1/2+z
-x,1/2-y,1/2+z
1/2-x,1/2+y,z
1/2+x,1/2-y,z
loop_
_atom_site_type_symbol
_atom_site_label
_atom_site_fract_x
_atom_site_fract_y
_atom_site_fract_z
Si Si1 0.531827 0.051885 0.314210
Si Si2 0.381290 0.794261 0.267053
Si Si3 0.678104 0.758909 0.058037
Si Si4 0.687797 0.891809 0.793027
Si Si5 0.918862 0.836122 0.011560
Si Si6 0.077421 0.951284 0.182450
O O1 0.366925 0.080654 0.248716
O O2 0.718954 0.057292 0.226705
O O3 0.545154 0.062691 0.500681
O O4 0.500000 0.000000 0.303184
O O5 0.547629 0.789507 0.153277
O O6 0.367788 0.752945 0.381973
O O7 0.216632 0.785766 0.153377
O O8 0.421937 0.833707 0.384150
O O9 0.858251 0.786823 0.044980
O O10 0.581151 0.862060 0.670202
O O11 0.541001 0.928359 0.816548
O O12 0.754765 0.859447 0.923899
O O13 0.000000 0.000000 0.184437
#
# Coordination Sequence:
#
# PCOD9367909 Si02
#       6
#     8   8   8   8   8   8
#     4  11  25  45  74 108 140 194 247 290 362 435
#     4  12  23  44  70 103 133 185 238 289 356 440
#     4  12  23  44  71  99 136 182 244 284 353 448
#     4  12  25  48  67 107 151 185 237 309 363 425
#     4  12  25  44  72  98 143 188 225 303 376 403
#     4  11  25  45  74 107 143 192 247 296 353 440
#
# _framework density 24.140666
#
# number of rings (size 3 to 8) (size 9 to 14) (size 15 to 20)
#    0.000    0.333    8.333    0.000    2.333    0.667 
#    3.000    0.000    0.000    0.000    0.000    0.000 
#    0.000    0.000    0.000    0.000    0.000    0.000 
#
# Total GULP energy -133841.625296 kJ/mol
# GULP energy per Si atom -5576.734387 kJ/mol
# Density = 2.408572 g / cm^3
# Si number density = 24.140666 Si / 1000 Ang^3
#
#
#
# Elastic Constant Matrix: (Units=GPa)
#
#
# Indices 1 2 3 4 5 6 
#
# 1 109.4221 0.7488 -0.7100 0.0000 0.0000 0.0000
# 2 0.7488 54.7652 6.7413 0.0000 0.0000 0.0000
# 3 -0.7100 6.7413 56.8612 0.0000 0.0000 0.0000
# 4 0.0000 0.0000 0.0000 29.0445 0.0000 0.0000
# 5 0.0000 0.0000 0.0000 0.0000 41.4139 0.0000
# 6 0.0000 0.0000 0.0000 0.0000 0.0000 43.5774
#
#
#
# Elastic Compliance Matrix: (Units=1/GPa)
#
#
# Indices 1 2 3 4 5 6 
#
# 1 0.009141 -0.000141 0.000131 0.000000 0.000000 0.000000
# 2 -0.000141 0.018532 -0.002199 0.000000 0.000000 0.000000
# 3 0.000131 -0.002199 0.017849 0.000000 0.000000 0.000000
# 4 0.000000 0.000000 0.000000 0.034430 0.000000 0.000000
# 5 0.000000 0.000000 0.000000 0.000000 0.024146 0.000000
# 6 0.000000 0.000000 0.000000 0.000000 0.000000 0.022948
#
#
# Mechanical properties :
#
#
# Convention : Reuss Voigt Hill
#
# Bulk Modulus (GPa) = 24.32861 26.06762 25.19812
# Shear Modulus (GPa) = 34.44337 37.09171 35.76754
#
# Velocity S-wave (km/s) = 3.78137 3.92405 3.85337
# Velocity P-wave (km/s) = 5.40044 5.59934 5.50079
#
# Compressibility (1/GPa) = 0.04110387
#
# Stress axis : x y z
#
# Youngs Moduli (GPa) = 109.40036 53.95962 56.02545
#
# Poissons Ratio (x) = 0.00761 -0.00733
# Poissons Ratio (y) = 0.01543 0.12320
# Poissons Ratio (z) = -0.01432 0.11865
#
# Static dielectric constant tensor:
#      x y z
#    x 1.963580 0.000000 0.000000 
#    y 0.000000 1.969190 0.000000 
#    z 0.000000 0.000000 1.910590 
# 
# From -- ./inp_files/1775.got.cif
#   From: 2010.05.17/outbox.cif.g08.bks.cpg/sg41_1_cif.got.tgz:1775.got - 2010.06.03 18:54:24.
