data_PCOD9367439
_publ_section_title
;
Structure prediction by ZEFSAII (Michael W. Deem and Ramdas Pophale) SiO2 
 PCOD9367439
Probable space group: A B A 2
;
_chemical_formula_sum "Si O2"
_cell_formula_units_Z 36
_cell_length_a 9.088779
_cell_length_b 16.774149
_cell_length_c 8.527142
_cell_angle_alpha 90.000000
_cell_angle_beta 90.000000
_cell_angle_gamma 90.000000
_cell_volume 1300.018507
_symmetry_space_group_name_H-M "A B A 2"
_symmetry_group_IT_number 41
_symmetry_cell_setting 'orthorhombic'
loop_
_space_group_symop_operation_xyz
x,y,z
-x,-y,z
1/2-x,y,1/2+z
1/2+x,-y,1/2+z
x,1/2+y,1/2+z
-x,1/2-y,1/2+z
1/2-x,1/2+y,z
1/2+x,1/2-y,z
loop_
_atom_site_type_symbol
_atom_site_label
_atom_site_fract_x
_atom_site_fract_y
_atom_site_fract_z
Si Si1 0.749445 0.380350 0.498740
Si Si2 0.811504 0.603855 0.174759
Si Si3 0.037766 0.393507 0.836608
Si Si4 0.000000 0.000000 0.920727
Si Si5 0.341710 0.738488 0.755889
O O1 0.624375 0.418500 0.386353
O O2 0.881248 0.442990 0.507864
O O3 0.661396 0.338191 0.641596
O O4 0.817701 0.302430 0.420585
O O5 0.644654 0.572281 0.203451
O O6 0.911672 0.558450 0.299935
O O7 0.784424 0.696558 0.216041
O O8 0.869846 0.598977 0.998644
O O9 0.025468 0.301249 0.779385
#
# Coordination Sequence:
#
# PCOD9367439 Si02
#       5
#     8   8   8   4   8
#     4  12  26  46  80 119 168 217 281 351 428 515
#     4  10  24  49  76 113 166 212 279 347 426 510
#     4  10  24  46  80 113 155 213 286 343 407 501
#     4  12  30  48  78 128 180 218 268 364 456 506
#     4  10  23  46  80 111 153 223 286 344 402 510
#
# _framework density 27.691913
#
# number of rings (size 3 to 8) (size 9 to 14) (size 15 to 20)
#    1.333    0.000    2.222    1.333    6.222    6.222 
#    0.000    0.000    0.000    0.000    0.000    0.000 
#    0.000    0.000    0.000    0.000    0.000    0.000 
#
# Total GULP energy -100555.431068 kJ/mol
# GULP energy per Si atom -5586.412837 kJ/mol
# Density = 2.762889 g / cm^3
# Si number density = 27.691913 Si / 1000 Ang^3
#
#
#
# Elastic Constant Matrix: (Units=GPa)
#
#
# Indices 1 2 3 4 5 6 
#
# 1 175.6442 83.0740 31.1194 0.0000 0.0000 0.0000
# 2 83.0740 177.4931 72.9803 0.0000 0.0000 0.0000
# 3 31.1194 72.9803 74.3095 0.0000 0.0000 0.0000
# 4 0.0000 0.0000 0.0000 66.0455 0.0000 0.0000
# 5 0.0000 0.0000 0.0000 0.0000 38.0499 0.0000
# 6 0.0000 0.0000 0.0000 0.0000 0.0000 70.9174
#
#
#
# Elastic Compliance Matrix: (Units=1/GPa)
#
#
# Indices 1 2 3 4 5 6 
#
# 1 0.007323 -0.003634 0.000502 0.000000 0.000000 0.000000
# 2 -0.003634 0.011254 -0.009530 0.000000 0.000000 0.000000
# 3 0.000502 -0.009530 0.022607 0.000000 0.000000 0.000000
# 4 0.000000 0.000000 0.000000 0.015141 0.000000 0.000000
# 5 0.000000 0.000000 0.000000 0.000000 0.026281 0.000000
# 6 0.000000 0.000000 0.000000 0.000000 0.000000 0.014101
#
#
# Mechanical properties :
#
#
# Convention : Reuss Voigt Hill
#
# Bulk Modulus (GPa) = 63.05514 89.08826 76.07170
# Shear Modulus (GPa) = 39.27193 51.02075 45.14634
#
# Velocity S-wave (km/s) = 3.76995 4.29702 4.04209
# Velocity P-wave (km/s) = 6.46295 7.54058 7.02246
#
# Compressibility (1/GPa) = 0.01585913
#
# Stress axis : x y z
#
# Youngs Moduli (GPa) = 136.55382 88.86116 44.23448
#
# Poissons Ratio (x) = 0.32292 -0.02222
# Poissons Ratio (y) = 0.49624 0.42157
# Poissons Ratio (z) = -0.06858 0.84688
#
# Static dielectric constant tensor:
#      x y z
#    x 2.214070 0.000000 0.000000 
#    y 0.000000 2.170770 0.000000 
#    z 0.000000 0.000000 2.167450 
# 
# From -- ./inp_files/2359.got.cif
#   From: 2010.05.17/outbox.cif.g08.bks.cpg/sg41_2_cif.got.tgz:2359.got - 2010.06.03 18:54:24.
