data_PCOD9367164
_publ_section_title
;
Structure prediction by ZEFSAII (Michael W. Deem and Ramdas Pophale) SiO2 
 PCOD9367164
Probable space group: A B A 2
;
_chemical_formula_sum "Si O2"
_cell_formula_units_Z 48
_cell_length_a 9.514291
_cell_length_b 13.855270
_cell_length_c 16.766442
_cell_angle_alpha 90.000000
_cell_angle_beta 90.000000
_cell_angle_gamma 90.000000
_cell_volume 2210.203869
_symmetry_space_group_name_H-M "A B A 2"
_symmetry_group_IT_number 41
_symmetry_cell_setting 'orthorhombic'
loop_
_space_group_symop_operation_xyz
x,y,z
-x,-y,z
1/2-x,y,1/2+z
1/2+x,-y,1/2+z
x,1/2+y,1/2+z
-x,1/2-y,1/2+z
1/2-x,1/2+y,z
1/2+x,1/2-y,z
loop_
_atom_site_type_symbol
_atom_site_label
_atom_site_fract_x
_atom_site_fract_y
_atom_site_fract_z
Si Si1 0.291533 0.164137 0.286550
Si Si2 0.000000 0.000000 0.179595
Si Si3 0.147581 0.187014 0.120015
Si Si4 0.070994 0.199877 0.529862
Si Si5 0.500000 0.000000 0.947245
Si Si6 0.574880 0.218534 0.364305
Si Si7 0.276119 0.954523 0.811350
O O1 0.231934 0.199600 0.202529
O O2 0.429426 0.216466 0.317451
O O3 0.162775 0.185439 0.346051
O O4 0.313101 0.049639 0.288698
O O5 0.077451 0.081507 0.128264
O O6 0.887133 0.052832 0.238051
O O7 0.266069 0.196486 0.052973
O O8 0.026553 0.264288 0.102358
O O9 0.048580 0.277220 0.458525
O O10 0.026985 0.094183 0.500653
O O11 0.369636 0.974160 0.889636
O O12 0.673522 0.133158 0.331821
#
# Coordination Sequence:
#
# PCOD9367164 Si02
#       7
#     8   4   8   8   4   8   8
#     4  11  24  45  70 102 137 184 238 291 344 426
#     4   9  24  46  70 100 145 184 234 296 359 414
#     4  11  26  47  67 105 143 190 233 288 368 420
#     4  12  26  45  70 104 146 186 231 294 363 425
#     4  11  22  44  68 102 143 180 230 292 357 422
#     4  12  24  43  74 103 136 183 240 290 349 423
#     4  10  22  42  73 102 134 180 239 299 342 414
#
# _framework density 21.717454
#
# number of rings (size 3 to 8) (size 9 to 14) (size 15 to 20)
#    0.000    1.000    1.667    4.500    7.000    2.667 
#    9.000    0.000    0.000    0.000    0.000    0.000 
#    0.000    0.000    0.000    0.000    0.000    0.000 
#
# Total GULP energy -134250.737501 kJ/mol
# GULP energy per Si atom -5593.780729 kJ/mol
# Density = 2.166802 g / cm^3
# Si number density = 21.717454 Si / 1000 Ang^3
#
#
#
# Elastic Constant Matrix: (Units=GPa)
#
#
# Indices 1 2 3 4 5 6 
#
# 1 140.7887 49.9604 36.4185 0.0000 0.0000 0.0000
# 2 49.9604 92.3255 28.6177 0.0000 0.0000 0.0000
# 3 36.4185 28.6177 67.3626 0.0000 0.0000 0.0000
# 4 0.0000 0.0000 0.0000 31.7337 0.0000 0.0000
# 5 0.0000 0.0000 0.0000 0.0000 36.5340 0.0000
# 6 0.0000 0.0000 0.0000 0.0000 0.0000 41.8270
#
#
#
# Elastic Compliance Matrix: (Units=1/GPa)
#
#
# Indices 1 2 3 4 5 6 
#
# 1 0.009411 -0.004049 -0.003368 0.000000 0.000000 0.000000
# 2 -0.004049 0.014216 -0.003850 0.000000 0.000000 0.000000
# 3 -0.003368 -0.003850 0.018302 0.000000 0.000000 0.000000
# 4 0.000000 0.000000 0.000000 0.031512 0.000000 0.000000
# 5 0.000000 0.000000 0.000000 0.000000 0.027372 0.000000
# 6 0.000000 0.000000 0.000000 0.000000 0.000000 0.023908
#
#
# Mechanical properties :
#
#
# Convention : Reuss Voigt Hill
#
# Bulk Modulus (GPa) = 51.56161 58.94111 55.25136
# Shear Modulus (GPa) = 32.52709 34.38428 33.45569
#
# Velocity S-wave (km/s) = 3.87426 3.98333 3.92918
# Velocity P-wave (km/s) = 6.61867 6.95376 6.78828
#
# Compressibility (1/GPa) = 0.01939427
#
# Stress axis : x y z
#
# Youngs Moduli (GPa) = 106.26238 70.34561 54.64020
#
# Poissons Ratio (x) = 0.28480 0.18402
# Poissons Ratio (y) = 0.43021 0.21039
# Poissons Ratio (z) = 0.35787 0.27086
#
# Static dielectric constant tensor:
#      x y z
#    x 1.772210 0.000000 0.000000 
#    y 0.000000 1.807600 0.000000 
#    z 0.000000 0.000000 1.834050 
# 
# From -- ./inp_files/9679.got.cif
#   From: 2010.05.17/outbox.cif.g08.bks.cpg/sg41_5_cif.got.tgz:9679.got - 2010.06.03 18:54:24.
