data_PCOD9367872
_publ_section_title
;
Structure prediction by ZEFSAII (Michael W. Deem and Ramdas Pophale) SiO2 
 PCOD9367872
Probable space group: A B A 2
;
_chemical_formula_sum "Si O2"
_cell_formula_units_Z 48
_cell_length_a 9.234976
_cell_length_b 13.198647
_cell_length_c 16.768343
_cell_angle_alpha 90.000000
_cell_angle_beta 90.000000
_cell_angle_gamma 90.000000
_cell_volume 2043.879717
_symmetry_space_group_name_H-M "A B A 2"
_symmetry_group_IT_number 41
_symmetry_cell_setting 'orthorhombic'
loop_
_space_group_symop_operation_xyz
x,y,z
-x,-y,z
1/2-x,y,1/2+z
1/2+x,-y,1/2+z
x,1/2+y,1/2+z
-x,1/2-y,1/2+z
1/2-x,1/2+y,z
1/2+x,1/2-y,z
loop_
_atom_site_type_symbol
_atom_site_label
_atom_site_fract_x
_atom_site_fract_y
_atom_site_fract_z
Si Si1 0.355957 0.953995 0.779220
Si Si2 0.586100 0.168190 0.442363
Si Si3 0.932961 0.754826 0.083801
Si Si4 0.777846 0.843584 0.854449
Si Si5 0.686046 0.734064 0.189947
Si Si6 0.612716 0.090128 0.947098
O O1 0.283566 0.883686 0.712712
O O2 0.408811 0.882082 0.853074
O O3 0.500000 0.000000 0.741458
O O4 0.276726 0.044509 0.826888
O O5 0.519405 0.166332 0.530806
O O6 0.443253 0.152490 0.387873
O O7 0.676419 0.271671 0.413406
O O8 0.712821 0.085056 0.447337
O O9 0.773277 0.775166 0.114187
O O10 0.021551 0.744063 0.165419
O O11 0.922989 0.665075 0.019380
O O12 0.773706 0.790087 0.769615
O O13 0.500000 0.000000 0.958910
#
# Coordination Sequence:
#
# PCOD9367872 Si02
#       6
#     8   8   8   8   8   8
#     4  11  24  46  73 106 151 195 253 317 369 443
#     4  12  22  48  77 110 144 205 261 304 384 445
#     4  12  24  44  74 101 152 197 231 303 388 441
#     4  12  25  46  81 106 145 202 257 319 368 456
#     4  12  25  45  72 110 149 195 245 307 385 447
#     4  11  24  45  74 105 152 194 252 315 365 448
#
# _framework density 23.484749999999998
#
# number of rings (size 3 to 8) (size 9 to 14) (size 15 to 20)
#    0.000    0.333    5.000    5.000    0.000    2.000 
#    0.000    1.667    0.000    0.000    0.000    0.000 
#    0.000    0.000    0.000    0.000    0.000    0.000 
#
# Total GULP energy -133629.475071 kJ/mol
# GULP energy per Si atom -5567.894795 kJ/mol
# Density = 2.343130 g / cm^3
# Si number density = 23.484750 Si / 1000 Ang^3
#
#
#
# Elastic Constant Matrix: (Units=GPa)
#
#
# Indices 1 2 3 4 5 6 
#
# 1 153.3506 50.8412 20.6027 0.0000 0.0000 0.0000
# 2 50.8412 80.8091 24.0425 0.0000 0.0000 0.0000
# 3 20.6027 24.0425 96.7886 0.0000 0.0000 0.0000
# 4 0.0000 0.0000 0.0000 16.2426 0.0000 0.0000
# 5 0.0000 0.0000 0.0000 0.0000 48.6985 0.0000
# 6 0.0000 0.0000 0.0000 0.0000 0.0000 35.2135
#
#
#
# Elastic Compliance Matrix: (Units=1/GPa)
#
#
# Indices 1 2 3 4 5 6 
#
# 1 0.008262 -0.005048 -0.000505 0.000000 0.000000 0.000000
# 2 -0.005048 0.016447 -0.003011 0.000000 0.000000 0.000000
# 3 -0.000505 -0.003011 0.011187 0.000000 0.000000 0.000000
# 4 0.000000 0.000000 0.000000 0.061567 0.000000 0.000000
# 5 0.000000 0.000000 0.000000 0.000000 0.020535 0.000000
# 6 0.000000 0.000000 0.000000 0.000000 0.000000 0.028398
#
#
# Mechanical properties :
#
#
# Convention : Reuss Voigt Hill
#
# Bulk Modulus (GPa) = 53.28012 57.99123 55.63568
# Shear Modulus (GPa) = 29.44997 35.72837 32.58917
#
# Velocity S-wave (km/s) = 3.54503 3.90467 3.72919
# Velocity P-wave (km/s) = 6.28432 6.71382 6.50262
#
# Compressibility (1/GPa) = 0.01876873
#
# Stress axis : x y z
#
# Youngs Moduli (GPa) = 121.02919 60.80254 89.38830
#
# Poissons Ratio (x) = 0.30694 0.04512
# Poissons Ratio (y) = 0.61097 0.26913
# Poissons Ratio (z) = 0.06110 0.18307
#
# Static dielectric constant tensor:
#      x y z
#    x 1.968270 0.000000 0.000000 
#    y 0.000000 2.073630 0.000000 
#    z 0.000000 0.000000 1.858600 
# 
# From -- ./inp_files/9662.got.cif
#   From: 2010.05.17/outbox.cif.g08.bks.cpg/sg41_5_cif.got.tgz:9662.got - 2010.06.03 18:54:24.
