data_PCOD9367720
_publ_section_title
;
Structure prediction by ZEFSAII (Michael W. Deem and Ramdas Pophale) SiO2 
 PCOD9367720
Probable space group: A B A 2
;
_chemical_formula_sum "Si O2"
_cell_formula_units_Z 48
_cell_length_a 9.633548
_cell_length_b 13.992641
_cell_length_c 18.025745
_cell_angle_alpha 90.000000
_cell_angle_beta 90.000000
_cell_angle_gamma 90.000000
_cell_volume 2429.848412
_symmetry_space_group_name_H-M "A B A 2"
_symmetry_group_IT_number 41
_symmetry_cell_setting 'orthorhombic'
loop_
_space_group_symop_operation_xyz
x,y,z
-x,-y,z
1/2-x,y,1/2+z
1/2+x,-y,1/2+z
x,1/2+y,1/2+z
-x,1/2-y,1/2+z
1/2-x,1/2+y,z
1/2+x,1/2-y,z
loop_
_atom_site_type_symbol
_atom_site_label
_atom_site_fract_x
_atom_site_fract_y
_atom_site_fract_z
Si Si1 0.161245 0.739595 0.982040
Si Si2 0.092082 0.750294 0.378016
Si Si3 0.869435 0.930124 0.595478
Si Si4 0.656517 0.535281 0.360239
Si Si5 0.373847 0.074145 0.268537
Si Si6 0.654116 0.039357 0.505489
O O1 0.314521 0.723219 0.949479
O O2 0.060787 0.734448 0.910746
O O3 0.120970 0.660872 0.041904
O O4 0.151519 0.846365 0.014059
O O5 0.149250 0.850888 0.347717
O O6 0.099998 0.667144 0.318212
O O7 0.868029 0.902700 0.681625
O O8 0.730918 0.987471 0.573018
O O9 0.000000 0.000000 0.582288
O O10 0.500000 0.500000 0.372038
O O11 0.733762 0.477716 0.295807
O O12 0.749540 0.519737 0.433630
O O13 0.500000 0.000000 0.280851
O O14 0.500000 0.000000 0.493602
#
# Coordination Sequence:
#
# PCOD9367720 Si02
#       6
#     8   8   8   8   8   8
#     4  11  22  38  63  90 116 155 204 250 298 358
#     4  11  22  38  63  90 116 155 204 250 298 358
#     4  11  24  41  60  86 123 162 199 248 309 365
#     4  11  22  39  64  90 119 155 201 250 299 360
#     4  11  24  41  60  86 123 162 199 248 309 365
#     4  11  22  39  64  90 119 155 201 250 299 360
#
# _framework density 19.754318000000001
#
# number of rings (size 3 to 8) (size 9 to 14) (size 15 to 20)
#    0.000    1.000    0.000   10.000    0.000    2.000 
#    0.000    8.333    0.000    0.000    0.000    0.000 
#    0.000    0.000    0.000    0.000    0.000    0.000 
#
# Total GULP energy -134321.716300 kJ/mol
# GULP energy per Si atom -5596.738179 kJ/mol
# Density = 1.970936 g / cm^3
# Si number density = 19.754318 Si / 1000 Ang^3
#
#
#
# Elastic Constant Matrix: (Units=GPa)
#
#
# Indices 1 2 3 4 5 6 
#
# 1 119.1483 31.2116 31.4507 0.0000 0.0000 0.0000
# 2 31.2116 141.8065 79.6534 0.0000 0.0000 0.0000
# 3 31.4507 79.6534 95.8492 0.0000 0.0000 0.0000
# 4 0.0000 0.0000 0.0000 19.6671 0.0000 0.0000
# 5 0.0000 0.0000 0.0000 0.0000 20.2035 0.0000
# 6 0.0000 0.0000 0.0000 0.0000 0.0000 28.4482
#
#
#
# Elastic Compliance Matrix: (Units=1/GPa)
#
#
# Indices 1 2 3 4 5 6 
#
# 1 0.009218 -0.000619 -0.002510 0.000000 0.000000 0.000000
# 2 -0.000619 0.013267 -0.010822 0.000000 0.000000 0.000000
# 3 -0.002510 -0.010822 0.020250 0.000000 0.000000 0.000000
# 4 0.000000 0.000000 0.000000 0.050846 0.000000 0.000000
# 5 0.000000 0.000000 0.000000 0.000000 0.049496 0.000000
# 6 0.000000 0.000000 0.000000 0.000000 0.000000 0.035152
#
#
# Mechanical properties :
#
#
# Convention : Reuss Voigt Hill
#
# Bulk Modulus (GPa) = 67.42031 71.27060 69.34545
# Shear Modulus (GPa) = 23.68817 27.96298 25.82558
#
# Velocity S-wave (km/s) = 3.46662 3.76644 3.61964
# Velocity P-wave (km/s) = 7.08708 7.42103 7.25598
#
# Compressibility (1/GPa) = 0.01483233
#
# Stress axis : x y z
#
# Youngs Moduli (GPa) = 108.48785 75.37563 49.38201
#
# Poissons Ratio (x) = 0.04663 0.12397
# Poissons Ratio (y) = 0.06712 0.53442
# Poissons Ratio (z) = 0.27235 0.81573
#
# Static dielectric constant tensor:
#      x y z
#    x 1.686790 0.000000 0.000000 
#    y 0.000000 1.700550 0.000000 
#    z 0.000000 0.000000 1.662080 
# 
# From -- ./inp_files/9665.got.cif
#   From: 2010.05.17/outbox.cif.g08.bks.cpg/sg41_5_cif.got.tgz:9665.got - 2010.06.03 18:54:24.
