data_PCOD9367139
_publ_section_title
;
Structure prediction by ZEFSAII (Michael W. Deem and Ramdas Pophale) SiO2 
 PCOD9367139
Probable space group: A B A 2
;
_chemical_formula_sum "Si O2"
_cell_formula_units_Z 64
_cell_length_a 16.357719
_cell_length_b 11.672130
_cell_length_c 14.558305
_cell_angle_alpha 90.000000
_cell_angle_beta 90.000000
_cell_angle_gamma 90.000000
_cell_volume 2779.608769
_symmetry_space_group_name_H-M "A B A 2"
_symmetry_group_IT_number 41
_symmetry_cell_setting 'orthorhombic'
loop_
_space_group_symop_operation_xyz
x,y,z
-x,-y,z
1/2-x,y,1/2+z
1/2+x,-y,1/2+z
x,1/2+y,1/2+z
-x,1/2-y,1/2+z
1/2-x,1/2+y,z
1/2+x,1/2-y,z
loop_
_atom_site_type_symbol
_atom_site_label
_atom_site_fract_x
_atom_site_fract_y
_atom_site_fract_z
Si Si1 0.482659 0.372925 0.122790
Si Si2 0.952381 0.352710 0.431296
Si Si3 0.714807 0.338529 0.324642
Si Si4 0.040500 0.622510 0.919054
Si Si5 0.364615 0.519840 0.776887
Si Si6 0.210585 0.241742 0.998496
Si Si7 0.865619 0.709754 0.171426
Si Si8 0.872609 0.818251 0.603270
O O1 0.500000 0.500000 0.160016
O O2 0.553190 0.284911 0.155243
O O3 0.398228 0.307530 0.140798
O O4 0.484051 0.383146 0.011136
O O5 0.929555 0.436590 0.350361
O O6 0.866715 0.340816 0.485822
O O7 0.980798 0.228381 0.394190
O O8 0.625714 0.367194 0.364733
O O9 0.775440 0.446930 0.317862
O O10 0.757002 0.245323 0.393993
O O11 0.700042 0.289054 0.223679
O O12 0.000000 0.500000 0.904136
O O13 0.061773 0.640744 0.026815
O O14 0.378614 0.392002 0.742986
O O15 0.373080 0.596237 0.686640
O O16 0.172154 0.330579 0.072818
O O17 0.287932 0.188197 0.049168
#
# Coordination Sequence:
#
# PCOD9367139 Si02
#       8
#     8   8   8   8   8   8   8   8
#     4  10  24  45  67  98 141 188 236 294 366 434
#     4   9  22  43  66 101 139 186 238 290 364 428
#     4  10  23  44  63 102 137 181 237 282 369 423
#     4  10  23  42  68  99 141 189 234 291 357 430
#     4  11  24  42  69 103 140 182 239 305 351 437
#     4   9  20  44  66  93 143 177 234 283 347 437
#     4  11  24  43  67 105 137 182 238 292 362 430
#     4  10  22  42  67 101 135 186 233 290 361 410
#
# _framework density 23.024823000000001
#
# number of rings (size 3 to 8) (size 9 to 14) (size 15 to 20)
#    0.000    2.000    1.250    0.000    7.000    6.500 
#    4.500    0.000    0.000    0.000    0.000    0.000 
#    0.000    0.000    0.000    0.000    0.000    0.000 
#
# Total GULP energy -178588.717390 kJ/mol
# GULP energy per Si atom -5580.897418 kJ/mol
# Density = 2.297242 g / cm^3
# Si number density = 23.024823 Si / 1000 Ang^3
#
#
#
# Elastic Constant Matrix: (Units=GPa)
#
#
# Indices 1 2 3 4 5 6 
#
# 1 98.2913 44.8757 23.9801 0.0000 0.0000 0.0000
# 2 44.8757 123.9812 11.8524 0.0000 0.0000 0.0000
# 3 23.9801 11.8524 80.7590 0.0000 0.0000 0.0000
# 4 0.0000 0.0000 0.0000 31.8071 0.0000 0.0000
# 5 0.0000 0.0000 0.0000 0.0000 35.2870 0.0000
# 6 0.0000 0.0000 0.0000 0.0000 0.0000 5.6952
#
#
#
# Elastic Compliance Matrix: (Units=1/GPa)
#
#
# Indices 1 2 3 4 5 6 
#
# 1 0.012957 -0.004384 -0.003204 0.000000 0.000000 0.000000
# 2 -0.004384 0.009664 -0.000117 0.000000 0.000000 0.000000
# 3 -0.003204 -0.000117 0.013351 0.000000 0.000000 0.000000
# 4 0.000000 0.000000 0.000000 0.031440 0.000000 0.000000
# 5 0.000000 0.000000 0.000000 0.000000 0.028339 0.000000
# 6 0.000000 0.000000 0.000000 0.000000 0.000000 0.175586
#
#
# Mechanical properties :
#
#
# Convention : Reuss Voigt Hill
#
# Bulk Modulus (GPa) = 48.63076 51.60532 50.11804
# Shear Modulus (GPa) = 17.03007 29.37942 23.20475
#
# Velocity S-wave (km/s) = 2.72258 3.57597 3.17805
# Velocity P-wave (km/s) = 5.57226 6.28583 5.93977
#
# Compressibility (1/GPa) = 0.02056312
#
# Stress axis : x y z
#
# Youngs Moduli (GPa) = 77.17931 103.48188 74.90072
#
# Poissons Ratio (x) = 0.45361 0.23998
# Poissons Ratio (y) = 0.33832 0.00874
# Poissons Ratio (z) = 0.24728 0.01207
#
# Static dielectric constant tensor:
#      x y z
#    x 1.873780 0.000000 0.000000 
#    y 0.000000 1.911910 0.000000 
#    z 0.000000 0.000000 1.922040 
# 
# From -- ./inp_files/8823.got.cif
#   From: 2010.05.17/outbox.cif.g08.bks.cpg/sg41_5_cif.got.tgz:8823.got - 2010.06.03 18:54:24.
