data_PCOD9367915
_publ_section_title
;
Structure prediction by ZEFSAII (Michael W. Deem and Ramdas Pophale) SiO2 
 PCOD9367915
Probable space group: A B A 2
;
_chemical_formula_sum "Si O2"
_cell_formula_units_Z 40
_cell_length_a 17.231875
_cell_length_b 9.765400
_cell_length_c 10.393091
_cell_angle_alpha 90.000000
_cell_angle_beta 90.000000
_cell_angle_gamma 90.000000
_cell_volume 1748.909362
_symmetry_space_group_name_H-M "A B A 2"
_symmetry_group_IT_number 41
_symmetry_cell_setting 'orthorhombic'
loop_
_space_group_symop_operation_xyz
x,y,z
-x,-y,z
1/2-x,y,1/2+z
1/2+x,-y,1/2+z
x,1/2+y,1/2+z
-x,1/2-y,1/2+z
1/2-x,1/2+y,z
1/2+x,1/2-y,z
loop_
_atom_site_type_symbol
_atom_site_label
_atom_site_fract_x
_atom_site_fract_y
_atom_site_fract_z
Si Si1 0.716356 0.097299 0.040890
Si Si2 0.318442 0.015465 0.317701
Si Si3 0.145578 0.277841 0.663855
Si Si4 0.064719 0.383594 0.880985
Si Si5 0.540253 0.639831 0.947521
O O1 0.778814 0.215894 0.072469
O O2 0.629331 0.124406 0.993286
O O3 0.712964 0.037020 0.182789
O O4 0.758112 0.003983 0.933469
O O5 0.339007 0.169085 0.276562
O O6 0.391890 0.922921 0.358668
O O7 0.076605 0.266972 0.560668
O O8 0.114647 0.405388 0.749971
O O9 0.000000 0.500000 0.898945
O O10 0.017400 0.240884 0.874190
O O11 0.500000 0.500000 0.997988
#
# Coordination Sequence:
#
# PCOD9367915 Si02
#       5
#     8   8   8   8   8
#     4  11  26  46  73 111 149 204 252 319 386 470
#     4  11  25  46  75 108 152 199 257 316 386 468
#     4  11  25  46  74 108 150 200 256 316 385 464
#     4  12  26  47  75 111 151 202 256 318 385 459
#     4  11  25  46  75 111 153 198 256 322 391 458
#
# _framework density 22.871396000000001
#
# number of rings (size 3 to 8) (size 9 to 14) (size 15 to 20)
#    0.000    0.800    4.000    1.800    5.600    2.400 
#    0.000    0.000    0.000    0.000    0.000    0.000 
#    0.000    0.000    0.000    0.000    0.000    0.000 
#
# Total GULP energy -111467.359158 kJ/mol
# GULP energy per Si atom -5573.367958 kJ/mol
# Density = 2.281934 g / cm^3
# Si number density = 22.871396 Si / 1000 Ang^3
#
#
#
# Elastic Constant Matrix: (Units=GPa)
#
#
# Indices 1 2 3 4 5 6 
#
# 1 149.9829 49.4123 51.8295 0.0000 0.0000 0.0000
# 2 49.4123 89.2918 22.4844 0.0000 0.0000 0.0000
# 3 51.8295 22.4844 139.7546 0.0000 0.0000 0.0000
# 4 0.0000 0.0000 0.0000 31.6509 0.0000 0.0000
# 5 0.0000 0.0000 0.0000 0.0000 47.1322 0.0000
# 6 0.0000 0.0000 0.0000 0.0000 0.0000 7.6109
#
#
#
# Elastic Compliance Matrix: (Units=1/GPa)
#
#
# Indices 1 2 3 4 5 6 
#
# 1 0.009003 -0.004316 -0.002645 0.000000 0.000000 0.000000
# 2 -0.004316 0.013741 -0.000610 0.000000 0.000000 0.000000
# 3 -0.002645 -0.000610 0.008234 0.000000 0.000000 0.000000
# 4 0.000000 0.000000 0.000000 0.031595 0.000000 0.000000
# 5 0.000000 0.000000 0.000000 0.000000 0.021217 0.000000
# 6 0.000000 0.000000 0.000000 0.000000 0.000000 0.131391
#
#
# Mechanical properties :
#
#
# Convention : Reuss Voigt Hill
#
# Bulk Modulus (GPa) = 63.14236 69.60906 66.37571
# Shear Modulus (GPa) = 21.22220 34.29901 27.76060
#
# Velocity S-wave (km/s) = 3.04944 3.87673 3.48770
# Velocity P-wave (km/s) = 6.32979 7.10913 6.73075
#
# Compressibility (1/GPa) = 0.01583723
#
# Stress axis : x y z
#
# Youngs Moduli (GPa) = 111.06994 72.77266 121.44322
#
# Poissons Ratio (x) = 0.31411 0.32116
# Poissons Ratio (y) = 0.47942 0.07408
# Poissons Ratio (z) = 0.29373 0.04439
#
# Static dielectric constant tensor:
#      x y z
#    x 2.033220 0.000000 0.000000 
#    y 0.000000 2.080210 0.000000 
#    z 0.000000 0.000000 1.848610 
# 
# From -- ./inp_files/5834.got.cif
#   From: 2010.05.17/outbox.cif.g08.bks.cpg/sg41_3_cif.got.tgz:5834.got - 2010.06.03 18:54:24.
