data_PCOD9367211
_publ_section_title
;
Structure prediction by ZEFSAII (Michael W. Deem and Ramdas Pophale) SiO2 
 PCOD9367211
Probable space group: A B A 2
;
_chemical_formula_sum "Si O2"
_cell_formula_units_Z 52
_cell_length_a 25.404787
_cell_length_b 11.850942
_cell_length_c 7.926838
_cell_angle_alpha 90.000000
_cell_angle_beta 90.000000
_cell_angle_gamma 90.000000
_cell_volume 2386.538327
_symmetry_space_group_name_H-M "A B A 2"
_symmetry_group_IT_number 41
_symmetry_cell_setting 'orthorhombic'
loop_
_space_group_symop_operation_xyz
x,y,z
-x,-y,z
1/2-x,y,1/2+z
1/2+x,-y,1/2+z
x,1/2+y,1/2+z
-x,1/2-y,1/2+z
1/2-x,1/2+y,z
1/2+x,1/2-y,z
loop_
_atom_site_type_symbol
_atom_site_label
_atom_site_fract_x
_atom_site_fract_y
_atom_site_fract_z
Si Si1 0.093387 0.585829 0.759790
Si Si2 0.821128 0.053682 0.768478
Si Si3 0.175509 0.163526 0.990182
Si Si4 0.500000 0.500000 0.020733
Si Si5 0.135708 0.357627 0.776748
Si Si6 0.580592 0.670816 0.912773
Si Si7 0.741165 0.658531 0.066738
O O1 0.144476 0.609379 0.644440
O O2 0.111206 0.471641 0.853973
O O3 0.079743 0.698733 0.860380
O O4 0.045053 0.553944 0.638366
O O5 0.879604 0.102142 0.789708
O O6 0.788640 0.069807 0.597833
O O7 0.789110 0.136194 0.894290
O O8 0.816478 0.930537 0.847728
O O9 0.228945 0.222330 0.053563
O O10 0.137232 0.257467 0.910000
O O11 0.526657 0.600620 0.915099
O O12 0.102838 0.334832 0.604880
O O13 0.195724 0.359310 0.705945
#
# Coordination Sequence:
#
# PCOD9367211 Si02
#       7
#     8   8   8   4   8   8   8
#     4  11  23  45  69  91 132 166 217 275 325 390
#     4  11  23  39  61  94 129 172 214 263 315 389
#     4  12  23  39  64  90 132 171 214 268 315 381
#     4  10  22  44  66 100 122 168 214 274 344 374
#     4  10  24  40  60  98 130 169 215 256 318 386
#     4  10  22  45  68  92 131 166 211 276 329 380
#     4  11  22  37  57  96 128 171 214 251 318 379
#
# _framework density 21.788879999999999
#
# number of rings (size 3 to 8) (size 9 to 14) (size 15 to 20)
#    0.000    1.231    7.692    0.000    2.154    6.154 
#    0.000    0.000    0.000    0.000    0.000    0.000 
#    0.000    0.000    0.000    0.000    0.000    0.000 
#
# Total GULP energy -145205.224125 kJ/mol
# GULP energy per Si atom -5584.816312 kJ/mol
# Density = 2.173929 g / cm^3
# Si number density = 21.788880 Si / 1000 Ang^3
#
#
#
# Elastic Constant Matrix: (Units=GPa)
#
#
# Indices 1 2 3 4 5 6 
#
# 1 76.5301 31.2302 -1.0443 0.0000 0.0000 0.0000
# 2 31.2302 142.4752 9.1975 0.0000 0.0000 0.0000
# 3 -1.0443 9.1975 24.8103 0.0000 0.0000 0.0000
# 4 0.0000 0.0000 0.0000 42.1684 0.0000 0.0000
# 5 0.0000 0.0000 0.0000 0.0000 48.1177 0.0000
# 6 0.0000 0.0000 0.0000 0.0000 0.0000 27.9014
#
#
#
# Elastic Compliance Matrix: (Units=1/GPa)
#
#
# Indices 1 2 3 4 5 6 
#
# 1 0.014430 -0.003281 0.001824 0.000000 0.000000 0.000000
# 2 -0.003281 0.007937 -0.003080 0.000000 0.000000 0.000000
# 3 0.001824 -0.003080 0.041525 0.000000 0.000000 0.000000
# 4 0.000000 0.000000 0.000000 0.023714 0.000000 0.000000
# 5 0.000000 0.000000 0.000000 0.000000 0.020782 0.000000
# 6 0.000000 0.000000 0.000000 0.000000 0.000000 0.035840
#
#
# Mechanical properties :
#
#
# Convention : Reuss Voigt Hill
#
# Bulk Modulus (GPa) = 18.24262 35.84249 27.04255
# Shear Modulus (GPa) = 29.14154 37.26631 33.20393
#
# Velocity S-wave (km/s) = 3.66108 4.14011 3.90794
# Velocity P-wave (km/s) = 5.12465 6.27213 5.72720
#
# Compressibility (1/GPa) = 0.05481670
#
# Stress axis : x y z
#
# Youngs Moduli (GPa) = 69.29779 125.99584 24.08216
#
# Poissons Ratio (x) = 0.41337 -0.04392
# Poissons Ratio (y) = 0.22736 0.07418
# Poissons Ratio (z) = -0.12638 0.38811
#
# Static dielectric constant tensor:
#      x y z
#    x 1.802070 0.000000 0.000000 
#    y 0.000000 1.812560 0.000000 
#    z 0.000000 0.000000 1.920390 
# 
# From -- ./inp_files/3771.got.cif
#   From: 2010.05.17/outbox.cif.g08.bks.cpg/sg41_2_cif.got.tgz:3771.got - 2010.06.03 18:54:24.
