data_PCOD9367779
_publ_section_title
;
Structure prediction by ZEFSAII (Michael W. Deem and Ramdas Pophale) SiO2 
 PCOD9367779
Probable space group: A B A 2
;
_chemical_formula_sum "Si O2"
_cell_formula_units_Z 56
_cell_length_a 13.940151
_cell_length_b 13.940128
_cell_length_c 13.711420
_cell_angle_alpha 90.000000
_cell_angle_beta 90.000000
_cell_angle_gamma 90.000000
_cell_volume 2664.505823
_symmetry_space_group_name_H-M "A B A 2"
_symmetry_group_IT_number 41
_symmetry_cell_setting 'orthorhombic'
loop_
_space_group_symop_operation_xyz
x,y,z
-x,-y,z
1/2-x,y,1/2+z
1/2+x,-y,1/2+z
x,1/2+y,1/2+z
-x,1/2-y,1/2+z
1/2-x,1/2+y,z
1/2+x,1/2-y,z
loop_
_atom_site_type_symbol
_atom_site_label
_atom_site_fract_x
_atom_site_fract_y
_atom_site_fract_z
Si Si1 0.691036 0.608332 0.357690
Si Si2 0.893548 0.106451 0.957167
Si Si3 0.106450 0.606453 0.457166
Si Si4 0.108333 0.308965 0.056643
Si Si5 0.749999 0.249997 0.207166
Si Si6 0.191038 0.608337 0.857690
Si Si7 0.391664 0.691037 0.556644
O O1 0.804522 0.613236 0.384180
O O2 0.637412 0.637413 0.457166
O O3 0.679379 0.686717 0.274048
O O4 0.666152 0.499998 0.329704
O O5 0.999999 0.113371 0.911355
O O6 0.886631 0.999999 0.002977
O O7 0.886763 0.195476 0.030156
O O8 0.113235 0.695478 0.530154
O O9 0.195476 0.613239 0.384178
O O10 0.186719 0.320622 0.140283
O O11 0.999999 0.333849 0.084630
O O12 0.679379 0.313277 0.274051
O O13 0.813278 0.320620 0.140284
O O14 0.137416 0.637416 0.957167
#
# Coordination Sequence:
#
# PCOD9367779 Si02
#       7
#     8   8   8   8   8   8   8
#     4  11  23  41  64  91 129 166 205 256 313 371
#     4   9  17  34  62  90 119 161 206 248 298 357
#     4   9  17  34  62  90 119 161 206 248 298 357
#     4  11  23  41  64  91 129 166 205 256 313 371
#     4  12  22  40  60 102 120 164 210 260 308 362
#     4  11  23  41  64  91 129 166 205 256 313 371
#     4  11  23  41  64  91 129 166 205 256 313 371
#
# _framework density 21.017029999999998
#
# number of rings (size 3 to 8) (size 9 to 14) (size 15 to 20)
#    0.000    1.429    5.714    0.000    0.000    5.143 
#    0.000    0.000    0.000    0.000    0.000    0.000 
#    0.000    0.000    0.000    0.000    0.000    0.000 
#
# Total GULP energy -156242.930356 kJ/mol
# GULP energy per Si atom -5580.104656 kJ/mol
# Density = 2.096919 g / cm^3
# Si number density = 21.017030 Si / 1000 Ang^3
#
#
#
# Elastic Constant Matrix: (Units=GPa)
#
#
# Indices 1 2 3 4 5 6 
#
# 1 83.4102 -16.4743 5.8572 0.0000 0.0000 0.0000
# 2 -16.4743 83.4091 5.8575 0.0000 0.0000 0.0000
# 3 5.8572 5.8575 66.6130 0.0000 0.0000 0.0000
# 4 0.0000 0.0000 0.0000 7.5025 0.0000 0.0000
# 5 0.0000 0.0000 0.0000 0.0000 7.5024 0.0000
# 6 0.0000 0.0000 0.0000 0.0000 0.0000 21.3378
#
#
#
# Elastic Compliance Matrix: (Units=1/GPa)
#
#
# Indices 1 2 3 4 5 6 
#
# 1 0.012592 0.002581 -0.001334 0.000000 0.000000 0.000000
# 2 0.002581 0.012593 -0.001334 0.000000 0.000000 0.000000
# 3 -0.001334 -0.001334 0.015247 0.000000 0.000000 0.000000
# 4 0.000000 0.000000 0.000000 0.133288 0.000000 0.000000
# 5 0.000000 0.000000 0.000000 0.000000 0.133290 0.000000
# 6 0.000000 0.000000 0.000000 0.000000 0.000000 0.046865
#
#
# Mechanical properties :
#
#
# Convention : Reuss Voigt Hill
#
# Bulk Modulus (GPa) = 24.84068 24.87920 24.85994
# Shear Modulus (GPa) = 13.60658 23.14802 18.37730
#
# Velocity S-wave (km/s) = 2.54718 3.32233 2.96023
# Velocity P-wave (km/s) = 4.52723 5.15562 4.85161
#
# Compressibility (1/GPa) = 0.04025655
#
# Stress axis : x y z
#
# Youngs Moduli (GPa) = 79.41316 79.41205 65.58787
#
# Poissons Ratio (x) = -0.20495 0.08750
# Poissons Ratio (y) = -0.20495 0.08751
# Poissons Ratio (z) = 0.10595 0.10595
#
# Static dielectric constant tensor:
#      x y z
#    x 1.763430 0.000000 0.000000 
#    y 0.000000 1.763430 0.000000 
#    z 0.000000 0.000000 1.776740 
# 
# From -- ./inp_files/5591.got.cif
#   From: 2010.05.17/outbox.cif.g08.bks.cpg/sg41_3_cif.got.tgz:5591.got - 2010.06.03 18:54:24.
