data_PCOD9367679
_publ_section_title
;
Structure prediction by ZEFSAII (Michael W. Deem and Ramdas Pophale) SiO2 
 PCOD9367679
Probable space group: A B A 2
;
_chemical_formula_sum "Si O2"
_cell_formula_units_Z 48
_cell_length_a 7.584995
_cell_length_b 20.516062
_cell_length_c 12.603185
_cell_angle_alpha 90.000000
_cell_angle_beta 90.000000
_cell_angle_gamma 90.000000
_cell_volume 1961.234900
_symmetry_space_group_name_H-M "A B A 2"
_symmetry_group_IT_number 41
_symmetry_cell_setting 'orthorhombic'
loop_
_space_group_symop_operation_xyz
x,y,z
-x,-y,z
1/2-x,y,1/2+z
1/2+x,-y,1/2+z
x,1/2+y,1/2+z
-x,1/2-y,1/2+z
1/2-x,1/2+y,z
1/2+x,1/2-y,z
loop_
_atom_site_type_symbol
_atom_site_label
_atom_site_fract_x
_atom_site_fract_y
_atom_site_fract_z
Si Si1 0.012065 0.136715 0.339170
Si Si2 0.582197 0.931252 0.040322
Si Si3 0.831501 0.143504 0.138383
Si Si4 0.633430 0.767502 0.693223
Si Si5 0.984680 0.926417 0.965960
Si Si6 0.381932 0.625362 0.757045
O O1 0.998133 0.121784 0.460960
O O2 0.051183 0.212650 0.309052
O O3 0.188533 0.100390 0.296641
O O4 0.862011 0.115855 0.257156
O O5 0.542518 0.917737 0.162989
O O6 0.500000 0.000000 0.008209
O O7 0.793353 0.925341 0.024011
O O8 0.678805 0.196383 0.153217
O O9 0.006562 0.189516 0.119227
O O10 0.860294 0.089903 0.049269
O O11 0.821413 0.805638 0.706030
O O12 0.987334 0.877191 0.866448
O O13 0.000000 0.000000 0.924127
#
# Coordination Sequence:
#
# PCOD9367679 Si02
#       6
#     8   8   8   8   8   8
#     4   7  18  33  57  81 120 140 197 255 302 346
#     4  11  19  38  60  82 115 169 204 242 309 373
#     4   9  18  39  59  88 115 162 190 258 305 359
#     4   8  17  36  60  82 119 147 203 240 313 347
#     4  11  21  39  58  91 129 157 196 258 313 369
#     4   8  18  37  56  82 116 159 189 249 305 353
#
# _framework density 24.474374999999998
#
# number of rings (size 3 to 8) (size 9 to 14) (size 15 to 20)
#    2.000    0.667    3.333    0.500    0.000    0.667 
#    6.000    1.667    0.000    0.000    0.000    0.000 
#    0.000    0.000    0.000    0.000    0.000    0.000 
#
# Total GULP energy -133611.768943 kJ/mol
# GULP energy per Si atom -5567.157039 kJ/mol
# Density = 2.441867 g / cm^3
# Si number density = 24.474375 Si / 1000 Ang^3
#
#
#
# Elastic Constant Matrix: (Units=GPa)
#
#
# Indices 1 2 3 4 5 6 
#
# 1 84.5600 12.2626 21.6682 0.0000 0.0000 0.0000
# 2 12.2626 74.9033 20.9107 0.0000 0.0000 0.0000
# 3 21.6682 20.9107 114.1803 0.0000 0.0000 0.0000
# 4 0.0000 0.0000 0.0000 28.0181 0.0000 0.0000
# 5 0.0000 0.0000 0.0000 0.0000 19.5225 0.0000
# 6 0.0000 0.0000 0.0000 0.0000 0.0000 32.2698
#
#
#
# Elastic Compliance Matrix: (Units=1/GPa)
#
#
# Indices 1 2 3 4 5 6 
#
# 1 0.012582 -0.001468 -0.002119 0.000000 0.000000 0.000000
# 2 -0.001468 0.014241 -0.002329 0.000000 0.000000 0.000000
# 3 -0.002119 -0.002329 0.009587 0.000000 0.000000 0.000000
# 4 0.000000 0.000000 0.000000 0.035691 0.000000 0.000000
# 5 0.000000 0.000000 0.000000 0.000000 0.051223 0.000000
# 6 0.000000 0.000000 0.000000 0.000000 0.000000 0.030989
#
#
# Mechanical properties :
#
#
# Convention : Reuss Voigt Hill
#
# Bulk Modulus (GPa) = 40.68886 42.59181 41.64034
# Shear Modulus (GPa) = 28.67992 30.54888 29.61440
#
# Velocity S-wave (km/s) = 3.42692 3.53682 3.48230
# Velocity P-wave (km/s) = 5.68503 5.84116 5.76362
#
# Compressibility (1/GPa) = 0.02457675
#
# Stress axis : x y z
#
# Youngs Moduli (GPa) = 79.48002 70.21866 104.31043
#
# Poissons Ratio (x) = 0.10310 0.22101
# Poissons Ratio (y) = 0.11670 0.24299
# Poissons Ratio (z) = 0.16840 0.16357
#
# Static dielectric constant tensor:
#      x y z
#    x 2.099980 0.000000 0.000000 
#    y 0.000000 2.011720 0.000000 
#    z 0.000000 0.000000 1.929670 
# 
# From -- ./inp_files/4514.got.cif
#   From: 2010.05.17/outbox.cif.g08.bks.cpg/sg41_3_cif.got.tgz:4514.got - 2010.06.03 18:54:24.
