data_PCOD9367178
_publ_section_title
;
Structure prediction by ZEFSAII (Michael W. Deem and Ramdas Pophale) SiO2 
 PCOD9367178
Probable space group: A B A 2
;
_chemical_formula_sum "Si O2"
_cell_formula_units_Z 40
_cell_length_a 4.937758
_cell_length_b 23.259880
_cell_length_c 13.601986
_cell_angle_alpha 90.000000
_cell_angle_beta 90.000000
_cell_angle_gamma 90.000000
_cell_volume 1562.210652
_symmetry_space_group_name_H-M "A B A 2"
_symmetry_group_IT_number 41
_symmetry_cell_setting 'orthorhombic'
loop_
_space_group_symop_operation_xyz
x,y,z
-x,-y,z
1/2-x,y,1/2+z
1/2+x,-y,1/2+z
x,1/2+y,1/2+z
-x,1/2-y,1/2+z
1/2-x,1/2+y,z
1/2+x,1/2-y,z
loop_
_atom_site_type_symbol
_atom_site_label
_atom_site_fract_x
_atom_site_fract_y
_atom_site_fract_z
Si Si1 0.469990 0.171394 0.558910
Si Si2 0.776422 0.116217 0.738483
Si Si3 0.044748 0.374660 0.953881
Si Si4 0.707636 0.281903 0.735975
Si Si5 0.500000 0.000000 0.940703
Si Si6 0.000000 0.000000 0.798682
O O1 0.575937 0.131847 0.649902
O O2 0.744141 0.171940 0.496214
O O3 0.305450 0.219700 0.620726
O O4 0.251639 0.144622 0.485314
O O5 0.611240 0.118521 0.839789
O O6 0.025854 0.161361 0.741846
O O7 0.904552 0.053430 0.734809
O O8 0.078851 0.440452 0.994267
O O9 0.501045 0.234060 0.778721
O O10 0.246607 0.016067 0.871022
#
# Coordination Sequence:
#
# PCOD9367178 Si02
#       6
#     8   8   8   8   4   4
#     4  12  25  45  72 109 141 197 243 308 367 437
#     4  11  26  48  78 109 156 195 249 305 375 448
#     4  11  25  44  72 105 154 194 247 294 373 449
#     4  12  25  48  75 100 146 193 248 320 369 420
#     4  10  22  43  66 107 152 202 234 313 356 433
#     4  10  24  41  74 111 152 200 242 299 380 443
#
# _framework density 25.604742999999999
#
# number of rings (size 3 to 8) (size 9 to 14) (size 15 to 20)
#    0.000    0.800    4.000    2.400    8.400    0.800 
#    3.600    6.000    0.000    0.000    0.000    0.000 
#    0.000    0.000    0.000    0.000    0.000    0.000 
#
# Total GULP energy -111676.273738 kJ/mol
# GULP energy per Si atom -5583.813687 kJ/mol
# Density = 2.554647 g / cm^3
# Si number density = 25.604743 Si / 1000 Ang^3
#
#
#
# Elastic Constant Matrix: (Units=GPa)
#
#
# Indices 1 2 3 4 5 6 
#
# 1 210.1150 51.7182 48.1090 0.0000 0.0000 0.0000
# 2 51.7182 109.1686 -2.7256 0.0000 0.0000 0.0000
# 3 48.1090 -2.7256 97.3281 0.0000 0.0000 0.0000
# 4 0.0000 0.0000 0.0000 26.8092 0.0000 0.0000
# 5 0.0000 0.0000 0.0000 0.0000 43.8960 0.0000
# 6 0.0000 0.0000 0.0000 0.0000 0.0000 42.6453
#
#
#
# Elastic Compliance Matrix: (Units=1/GPa)
#
#
# Indices 1 2 3 4 5 6 
#
# 1 0.006230 -0.003030 -0.003164 0.000000 0.000000 0.000000
# 2 -0.003030 0.010641 0.001796 0.000000 0.000000 0.000000
# 3 -0.003164 0.001796 0.011889 0.000000 0.000000 0.000000
# 4 0.000000 0.000000 0.000000 0.037301 0.000000 0.000000
# 5 0.000000 0.000000 0.000000 0.000000 0.022781 0.000000
# 6 0.000000 0.000000 0.000000 0.000000 0.000000 0.023449
#
#
# Mechanical properties :
#
#
# Convention : Reuss Voigt Hill
#
# Bulk Modulus (GPa) = 50.09553 67.86834 58.98193
# Shear Modulus (GPa) = 39.14166 43.97079 41.55622
#
# Velocity S-wave (km/s) = 3.91409 4.14852 4.03300
# Velocity P-wave (km/s) = 6.32726 7.03638 6.69122
#
# Compressibility (1/GPa) = 0.01996186
#
# Stress axis : x y z
#
# Youngs Moduli (GPa) = 160.52242 93.98001 84.11245
#
# Poissons Ratio (x) = 0.28479 0.26615
# Poissons Ratio (y) = 0.48643 -0.15105
# Poissons Ratio (z) = 0.50792 -0.16877
#
# Static dielectric constant tensor:
#      x y z
#    x 2.042270 0.000000 0.000000 
#    y 0.000000 2.173080 0.000000 
#    z 0.000000 0.000000 2.034350 
# 
# From -- ./inp_files/6924.got.cif
#   From: 2010.05.17/outbox.cif.g08.bks.cpg/sg41_4_cif.got.tgz:6924.got - 2010.06.03 18:54:24.
