data_PCOD9367878
_publ_section_title
;
Structure prediction by ZEFSAII (Michael W. Deem and Ramdas Pophale) SiO2 
 PCOD9367878
Probable space group: A B A 2
;
_chemical_formula_sum "Si O2"
_cell_formula_units_Z 32
_cell_length_a 17.412757
_cell_length_b 8.757898
_cell_length_c 8.100238
_cell_angle_alpha 90.000000
_cell_angle_beta 90.000000
_cell_angle_gamma 90.000000
_cell_volume 1235.279407
_symmetry_space_group_name_H-M "A B A 2"
_symmetry_group_IT_number 41
_symmetry_cell_setting 'orthorhombic'
loop_
_space_group_symop_operation_xyz
x,y,z
-x,-y,z
1/2-x,y,1/2+z
1/2+x,-y,1/2+z
x,1/2+y,1/2+z
-x,1/2-y,1/2+z
1/2-x,1/2+y,z
1/2+x,1/2-y,z
loop_
_atom_site_type_symbol
_atom_site_label
_atom_site_fract_x
_atom_site_fract_y
_atom_site_fract_z
Si Si1 0.475205 0.328276 0.603780
Si Si2 0.170764 0.879414 0.437196
Si Si3 0.785532 0.945534 0.093161
Si Si4 0.574299 0.612851 0.939457
O O1 0.500000 0.500000 0.616953
O O2 0.417040 0.327078 0.450540
O O3 0.427194 0.293335 0.768441
O O4 0.549873 0.228865 0.580770
O O5 0.190248 0.973447 0.268734
O O6 0.197462 0.004961 0.570469
O O7 0.211842 0.727358 0.517114
O O8 0.846581 0.029959 0.972672
O O9 0.500000 0.500000 0.943148
#
# Coordination Sequence:
#
# PCOD9367878 Si02
#       4
#     8   8   8   8
#     4  11  26  42  73 104 144 189 243 303 375 445
#     4  12  27  47  72 106 145 197 243 315 377 460
#     4  12  27  46  74 102 150 188 253 305 386 454
#     4  11  24  46  69 104 143 185 243 300 368 449
#
# _framework density 25.905072000000001
#
# number of rings (size 3 to 8) (size 9 to 14) (size 15 to 20)
#    0.000    0.500    2.500    4.500   10.500    2.000 
#    0.000    0.000    0.000    0.000    0.000    0.000 
#    0.000    0.000    0.000    0.000    0.000    0.000 
#
# Total GULP energy -89098.257378 kJ/mol
# GULP energy per Si atom -5568.641086 kJ/mol
# Density = 2.584611 g / cm^3
# Si number density = 25.905072 Si / 1000 Ang^3
#
#
#
# Elastic Constant Matrix: (Units=GPa)
#
#
# Indices 1 2 3 4 5 6 
#
# 1 58.7819 5.8298 2.3085 0.0000 0.0000 0.0000
# 2 5.8298 127.0064 26.5958 0.0000 0.0000 0.0000
# 3 2.3085 26.5958 164.1932 0.0000 0.0000 0.0000
# 4 0.0000 0.0000 0.0000 20.3978 0.0000 0.0000
# 5 0.0000 0.0000 0.0000 0.0000 22.3376 0.0000
# 6 0.0000 0.0000 0.0000 0.0000 0.0000 48.6649
#
#
#
# Elastic Compliance Matrix: (Units=1/GPa)
#
#
# Indices 1 2 3 4 5 6 
#
# 1 0.017092 -0.000760 -0.000117 0.000000 0.000000 0.000000
# 2 -0.000760 0.008184 -0.001315 0.000000 0.000000 0.000000
# 3 -0.000117 -0.001315 0.006305 0.000000 0.000000 0.000000
# 4 0.000000 0.000000 0.000000 0.049025 0.000000 0.000000
# 5 0.000000 0.000000 0.000000 0.000000 0.044767 0.000000
# 6 0.000000 0.000000 0.000000 0.000000 0.000000 0.020549
#
#
# Mechanical properties :
#
#
# Convention : Reuss Voigt Hill
#
# Bulk Modulus (GPa) = 36.76927 46.60552 41.68739
# Shear Modulus (GPa) = 31.37320 39.29657 35.33488
#
# Velocity S-wave (km/s) = 3.48384 3.89902 3.69726
# Velocity P-wave (km/s) = 5.51430 6.18868 5.86120
#
# Compressibility (1/GPa) = 0.02719662
#
# Stress axis : x y z
#
# Youngs Moduli (GPa) = 58.50687 122.19178 158.60370
#
# Poissons Ratio (x) = 0.09287 0.01859
# Poissons Ratio (y) = 0.04447 0.20855
# Poissons Ratio (z) = 0.00686 0.16067
#
# Static dielectric constant tensor:
#      x y z
#    x 1.941580 0.000000 0.000000 
#    y 0.000000 2.089220 0.000000 
#    z 0.000000 0.000000 2.223890 
# 
# From -- ./inp_files/3277.got.cif
#   From: 2010.05.17/outbox.cif.g08.bks.cpg/sg41_2_cif.got.tgz:3277.got - 2010.06.03 18:54:24.
