data_PCOD9367027
_publ_section_title
;
Structure prediction by ZEFSAII (Michael W. Deem and Ramdas Pophale) SiO2 
 PCOD9367027
Probable space group: A B A 2
;
_chemical_formula_sum "Si O2"
_cell_formula_units_Z 56
_cell_length_a 21.504316
_cell_length_b 9.034351
_cell_length_c 11.734446
_cell_angle_alpha 90.000000
_cell_angle_beta 90.000000
_cell_angle_gamma 90.000000
_cell_volume 2279.739288
_symmetry_space_group_name_H-M "A B A 2"
_symmetry_group_IT_number 41
_symmetry_cell_setting 'orthorhombic'
loop_
_space_group_symop_operation_xyz
x,y,z
-x,-y,z
1/2-x,y,1/2+z
1/2+x,-y,1/2+z
x,1/2+y,1/2+z
-x,1/2-y,1/2+z
1/2-x,1/2+y,z
1/2+x,1/2-y,z
loop_
_atom_site_type_symbol
_atom_site_label
_atom_site_fract_x
_atom_site_fract_y
_atom_site_fract_z
Si Si1 0.438167 0.452183 0.237520
Si Si2 0.680791 0.373459 0.185085
Si Si3 0.812487 0.892008 0.776982
Si Si4 0.182888 0.325869 0.416794
Si Si5 0.449623 0.112760 0.210179
Si Si6 0.815856 0.673683 0.977001
Si Si7 0.091017 0.602354 0.970847
O O1 0.500000 0.500000 0.168289
O O2 0.370168 0.495859 0.189418
O O3 0.449019 0.278551 0.257632
O O4 0.438542 0.552021 0.352289
O O5 0.753995 0.416712 0.193141
O O6 0.680840 0.272802 0.300554
O O7 0.658955 0.276254 0.077893
O O8 0.878083 0.934734 0.723511
O O9 0.818161 0.737595 0.846838
O O10 0.807300 0.007533 0.879449
O O11 0.242050 0.309569 0.497814
O O12 0.121306 0.265480 0.473647
O O13 0.500000 0.000000 0.260773
O O14 0.456616 0.110808 0.074182
O O15 0.851995 0.518146 0.981128
#
# Coordination Sequence:
#
# PCOD9367027 Si02
#       7
#     8   8   8   8   8   8   8
#     4  11  26  50  72 103 145 189 244 301 361 429
#     4  10  24  41  73 100 144 187 233 300 364 424
#     4  11  24  43  71 105 145 183 242 299 358 433
#     4  10  22  39  67 103 141 184 234 291 361 422
#     4  12  28  48  72 106 142 193 246 294 366 436
#     4  11  21  41  66 107 142 184 238 292 360 433
#     4  11  24  46  71 100 145 190 238 301 361 429
#
# _framework density 24.564212999999999
#
# number of rings (size 3 to 8) (size 9 to 14) (size 15 to 20)
#    0.000    1.143    1.429    4.714   10.000    1.143 
#    0.000    0.714    0.000    0.000    0.000    0.000 
#    0.000    0.000    0.000    0.000    0.000    0.000 
#
# Total GULP energy -156164.043653 kJ/mol
# GULP energy per Si atom -5577.287273 kJ/mol
# Density = 2.450830 g / cm^3
# Si number density = 24.564213 Si / 1000 Ang^3
#
#
#
# Elastic Constant Matrix: (Units=GPa)
#
#
# Indices 1 2 3 4 5 6 
#
# 1 119.3572 29.9413 -6.1744 0.0000 0.0000 0.0000
# 2 29.9413 75.0987 10.4991 0.0000 0.0000 0.0000
# 3 -6.1744 10.4991 47.4411 0.0000 0.0000 0.0000
# 4 0.0000 0.0000 0.0000 20.9568 0.0000 0.0000
# 5 0.0000 0.0000 0.0000 0.0000 20.5013 0.0000
# 6 0.0000 0.0000 0.0000 0.0000 0.0000 24.5111
#
#
#
# Elastic Compliance Matrix: (Units=1/GPa)
#
#
# Indices 1 2 3 4 5 6 
#
# 1 0.009516 -0.004094 0.002144 0.000000 0.000000 0.000000
# 2 -0.004094 0.015502 -0.003964 0.000000 0.000000 0.000000
# 3 0.002144 -0.003964 0.022235 0.000000 0.000000 0.000000
# 4 0.000000 0.000000 0.000000 0.047717 0.000000 0.000000
# 5 0.000000 0.000000 0.000000 0.000000 0.048777 0.000000
# 6 0.000000 0.000000 0.000000 0.000000 0.000000 0.040798
#
#
# Mechanical properties :
#
#
# Convention : Reuss Voigt Hill
#
# Bulk Modulus (GPa) = 28.22662 34.49211 31.35936
# Shear Modulus (GPa) = 24.01761 27.03590 25.52676
#
# Velocity S-wave (km/s) = 3.13029 3.32116 3.22714
# Velocity P-wave (km/s) = 4.95791 5.36460 5.16526
#
# Compressibility (1/GPa) = 0.03542755
#
# Stress axis : x y z
#
# Youngs Moduli (GPa) = 105.08515 64.50745 44.97405
#
# Poissons Ratio (x) = 0.26408 -0.09645
# Poissons Ratio (y) = 0.43020 0.17826
# Poissons Ratio (z) = -0.22535 0.25568
#
# Static dielectric constant tensor:
#      x y z
#    x 2.141770 0.000000 0.000000 
#    y 0.000000 2.006310 0.000000 
#    z 0.000000 0.000000 2.083880 
# 
# From -- ./inp_files/9018.got.cif
#   From: 2010.05.17/outbox.cif.g08.bks.cpg/sg41_5_cif.got.tgz:9018.got - 2010.06.03 18:54:24.
