data_PCOD9367997
_publ_section_title
;
Structure prediction by ZEFSAII (Michael W. Deem and Ramdas Pophale) SiO2 
 PCOD9367997
Probable space group: A B A 2
;
_chemical_formula_sum "Si O2"
_cell_formula_units_Z 48
_cell_length_a 14.230625
_cell_length_b 8.054372
_cell_length_c 16.988992
_cell_angle_alpha 90.000000
_cell_angle_beta 90.000000
_cell_angle_gamma 90.000000
_cell_volume 1947.256985
_symmetry_space_group_name_H-M "A B A 2"
_symmetry_group_IT_number 41
_symmetry_cell_setting 'orthorhombic'
loop_
_space_group_symop_operation_xyz
x,y,z
-x,-y,z
1/2-x,y,1/2+z
1/2+x,-y,1/2+z
x,1/2+y,1/2+z
-x,1/2-y,1/2+z
1/2-x,1/2+y,z
1/2+x,1/2-y,z
loop_
_atom_site_type_symbol
_atom_site_label
_atom_site_fract_x
_atom_site_fract_y
_atom_site_fract_z
Si Si1 0.114103 0.341070 0.106930
Si Si2 0.539732 0.820507 0.449978
Si Si3 0.677058 0.704196 0.337635
Si Si4 0.856264 0.329746 0.892903
Si Si5 0.316629 0.709094 0.576346
Si Si6 0.453189 0.325737 0.191992
O O1 0.143637 0.531961 0.103904
O O2 0.211612 0.240114 0.106345
O O3 0.040147 0.295550 0.174250
O O4 0.061561 0.290057 0.025974
O O5 0.634750 0.834912 0.399990
O O6 0.463494 0.728864 0.394809
O O7 0.500000 0.000000 0.470305
O O8 0.654661 0.522857 0.372747
O O9 0.787948 0.732732 0.333617
O O10 0.620878 0.727182 0.257644
O O11 0.821643 0.289635 0.981943
O O12 0.388289 0.841375 0.613934
O O13 0.500000 0.500000 0.212829
#
# Coordination Sequence:
#
# PCOD9367997 Si02
#       6
#     8   8   8   8   8   8
#     4  12  26  46  76 116 151 202 258 324 390 458
#     4  12  25  42  76 111 152 202 259 317 378 468
#     4  12  28  49  76 111 163 203 257 325 395 470
#     4  12  24  47  77 113 148 206 261 315 390 458
#     4  12  25  45  82 111 154 199 263 325 379 471
#     4  12  28  49  75 114 160 208 256 328 398 463
#
# _framework density 24.650058000000001
#
# number of rings (size 3 to 8) (size 9 to 14) (size 15 to 20)
#    0.000    0.000    5.000    4.500    2.333    5.333 
#    0.000    1.667    0.000    0.000    0.000    0.000 
#    0.000    0.000    0.000    0.000    0.000    0.000 
#
# Total GULP energy -134607.154316 kJ/mol
# GULP energy per Si atom -5608.631430 kJ/mol
# Density = 2.459395 g / cm^3
# Si number density = 24.650058 Si / 1000 Ang^3
#
#
#
# Elastic Constant Matrix: (Units=GPa)
#
#
# Indices 1 2 3 4 5 6 
#
# 1 143.1528 3.5183 23.0838 0.0000 0.0000 0.0000
# 2 3.5183 59.8362 -10.0538 0.0000 0.0000 0.0000
# 3 23.0838 -10.0538 81.8034 0.0000 0.0000 0.0000
# 4 0.0000 0.0000 0.0000 18.5743 0.0000 0.0000
# 5 0.0000 0.0000 0.0000 0.0000 63.4160 0.0000
# 6 0.0000 0.0000 0.0000 0.0000 0.0000 52.1814
#
#
#
# Elastic Compliance Matrix: (Units=1/GPa)
#
#
# Indices 1 2 3 4 5 6 
#
# 1 0.007356 -0.000798 -0.002174 0.000000 0.000000 0.000000
# 2 -0.000798 0.017151 0.002333 0.000000 0.000000 0.000000
# 3 -0.002174 0.002333 0.013125 0.000000 0.000000 0.000000
# 4 0.000000 0.000000 0.000000 0.053838 0.000000 0.000000
# 5 0.000000 0.000000 0.000000 0.000000 0.015769 0.000000
# 6 0.000000 0.000000 0.000000 0.000000 0.000000 0.019164
#
#
# Mechanical properties :
#
#
# Convention : Reuss Voigt Hill
#
# Bulk Modulus (GPa) = 27.50684 35.32098 31.41391
# Shear Modulus (GPa) = 35.76610 44.71727 40.24168
#
# Velocity S-wave (km/s) = 3.81327 4.26383 4.04483
# Velocity P-wave (km/s) = 5.52912 6.21292 5.88097
#
# Compressibility (1/GPa) = 0.03635459
#
# Stress axis : x y z
#
# Youngs Moduli (GPa) = 135.94960 58.30495 76.19305
#
# Poissons Ratio (x) = 0.04651 0.16562
# Poissons Ratio (y) = 0.10845 -0.17776
# Poissons Ratio (z) = 0.29551 -0.13603
#
# Static dielectric constant tensor:
#      x y z
#    x 1.921120 0.000000 0.000000 
#    y 0.000000 1.922340 0.000000 
#    z 0.000000 0.000000 1.960970 
# 
# From -- ./inp_files/10298.got.cif
#   From: 2010.05.17/outbox.cif.g08.bks.cpg/sg41_6_cif.got.tgz:10298.got - 2010.06.03 18:54:24.
