data_PCOD9367613
_publ_section_title
;
Structure prediction by ZEFSAII (Michael W. Deem and Ramdas Pophale) SiO2 
 PCOD9367613
Probable space group: A B A 2
;
_chemical_formula_sum "Si O2"
_cell_formula_units_Z 36
_cell_length_a 29.984418
_cell_length_b 8.869140
_cell_length_c 5.220504
_cell_angle_alpha 90.000000
_cell_angle_beta 90.000000
_cell_angle_gamma 90.000000
_cell_volume 1388.319957
_symmetry_space_group_name_H-M "A B A 2"
_symmetry_group_IT_number 41
_symmetry_cell_setting 'orthorhombic'
loop_
_space_group_symop_operation_xyz
x,y,z
-x,-y,z
1/2-x,y,1/2+z
1/2+x,-y,1/2+z
x,1/2+y,1/2+z
-x,1/2-y,1/2+z
1/2-x,1/2+y,z
1/2+x,1/2-y,z
loop_
_atom_site_type_symbol
_atom_site_label
_atom_site_fract_x
_atom_site_fract_y
_atom_site_fract_z
Si Si1 0.762391 0.660634 0.017340
Si Si2 0.500000 0.000000 0.625084
Si Si3 0.559976 0.756968 0.361626
Si Si4 0.381877 0.772199 0.362290
Si Si5 0.823620 0.505749 0.686991
O O1 0.756117 0.748464 0.275709
O O2 0.724632 0.529272 0.048697
O O3 0.810808 0.603776 0.940300
O O4 0.465300 0.092835 0.451926
O O5 0.525430 0.124305 0.793375
O O6 0.589453 0.704937 0.605401
O O7 0.642387 0.085042 0.491879
O O8 0.587654 0.784347 0.100661
O O9 0.346039 0.644954 0.285106
#
# Coordination Sequence:
#
# PCOD9367613 Si02
#       5
#     8   4   8   8   8
#     4   8  20  40  66 100 140 218 246 312 362 452
#     4  12  30  60  84 114 160 200 264 310 392 520
#     4  12  31  52  85 118 152 208 250 324 403 468
#     4  12  29  44  77 114 156 190 258 326 391 438
#     4  10  25  44  68 107 156 200 260 317 366 458
#
# _framework density 25.930622
#
# number of rings (size 3 to 8) (size 9 to 14) (size 15 to 20)
#    1.333    0.000    0.000    2.667    6.222   16.889 
#    0.000    0.000    0.000    0.000    0.000    0.000 
#    0.000    0.000    0.000    0.000    0.000    0.000 
#
# Total GULP energy -100676.656041 kJ/mol
# GULP energy per Si atom -5593.147558 kJ/mol
# Density = 2.587160 g / cm^3
# Si number density = 25.930622 Si / 1000 Ang^3
#
#
#
# Elastic Constant Matrix: (Units=GPa)
#
#
# Indices 1 2 3 4 5 6 
#
# 1 117.1111 28.7531 44.8171 0.0000 0.0000 0.0000
# 2 28.7531 78.7175 32.9859 0.0000 0.0000 0.0000
# 3 44.8171 32.9859 178.8298 0.0000 0.0000 0.0000
# 4 0.0000 0.0000 0.0000 28.3294 0.0000 0.0000
# 5 0.0000 0.0000 0.0000 0.0000 35.8176 0.0000
# 6 0.0000 0.0000 0.0000 0.0000 0.0000 27.5868
#
#
#
# Elastic Compliance Matrix: (Units=1/GPa)
#
#
# Indices 1 2 3 4 5 6 
#
# 1 0.009990 -0.002818 -0.001984 0.000000 0.000000 0.000000
# 2 -0.002818 0.014563 -0.001980 0.000000 0.000000 0.000000
# 3 -0.001984 -0.001980 0.006454 0.000000 0.000000 0.000000
# 4 0.000000 0.000000 0.000000 0.035299 0.000000 0.000000
# 5 0.000000 0.000000 0.000000 0.000000 0.027919 0.000000
# 6 0.000000 0.000000 0.000000 0.000000 0.000000 0.036249
#
#
# Mechanical properties :
#
#
# Convention : Reuss Voigt Hill
#
# Bulk Modulus (GPa) = 57.32726 65.30787 61.31757
# Shear Modulus (GPa) = 33.36627 36.22024 34.79325
#
# Velocity S-wave (km/s) = 3.59102 3.74145 3.66701
# Velocity P-wave (km/s) = 6.27295 6.62608 6.45193
#
# Compressibility (1/GPa) = 0.01744371
#
# Stress axis : x y z
#
# Youngs Moduli (GPa) = 100.10111 68.66926 154.93530
#
# Poissons Ratio (x) = 0.19349 0.30737
# Poissons Ratio (y) = 0.28205 0.30677
# Poissons Ratio (z) = 0.19859 0.13596
#
# Static dielectric constant tensor:
#      x y z
#    x 2.216530 0.000000 0.000000 
#    y 0.000000 1.987470 0.000000 
#    z 0.000000 0.000000 2.107470 
# 
# From -- ./inp_files/1278.got.cif
#   From: 2010.05.17/outbox.cif.g08.bks.cpg/sg41_1_cif.got.tgz:1278.got - 2010.06.03 18:54:24.
