data_PCOD9367795
_publ_section_title
;
Structure prediction by ZEFSAII (Michael W. Deem and Ramdas Pophale) SiO2 
 PCOD9367795
Probable space group: A B A 2
;
_chemical_formula_sum "Si O2"
_cell_formula_units_Z 40
_cell_length_a 10.552402
_cell_length_b 14.104684
_cell_length_c 10.315575
_cell_angle_alpha 90.000000
_cell_angle_beta 90.000000
_cell_angle_gamma 90.000000
_cell_volume 1535.352602
_symmetry_space_group_name_H-M "A B A 2"
_symmetry_group_IT_number 41
_symmetry_cell_setting 'orthorhombic'
loop_
_space_group_symop_operation_xyz
x,y,z
-x,-y,z
1/2-x,y,1/2+z
1/2+x,-y,1/2+z
x,1/2+y,1/2+z
-x,1/2-y,1/2+z
1/2-x,1/2+y,z
1/2+x,1/2-y,z
loop_
_atom_site_type_symbol
_atom_site_label
_atom_site_fract_x
_atom_site_fract_y
_atom_site_fract_z
Si Si1 0.373869 0.273439 0.342120
Si Si2 0.944602 0.104307 0.777092
Si Si3 0.134956 0.050487 0.152034
Si Si4 0.803214 0.242058 0.606997
Si Si5 0.797366 0.034240 0.419814
O O1 0.469170 0.185505 0.340729
O O2 0.316023 0.271921 0.199276
O O3 0.274829 0.247687 0.456364
O O4 0.402098 0.381848 0.387864
O O5 0.890180 0.153330 0.647837
O O6 0.831201 0.085292 0.874752
O O7 0.000000 0.000000 0.751020
O O8 0.122756 0.162670 0.139666
O O9 0.176032 0.035725 0.300740
O O10 0.000000 0.000000 0.123607
O O11 0.248793 0.014479 0.054168
#
# Coordination Sequence:
#
# PCOD9367795 Si02
#       5
#     8   8   8   8   8
#     4  11  24  43  67 100 137 183 240 297 365 441
#     4  11  23  43  68  98 142 193 242 304 373 438
#     4  12  24  45  72 104 147 193 242 309 374 439
#     4  11  24  41  67  98 134 179 234 297 362 443
#     4  11  24  44  71 104 146 194 246 305 373 449
#
# _framework density 26.052648999999999
#
# number of rings (size 3 to 8) (size 9 to 14) (size 15 to 20)
#    0.000    0.800    0.000    9.000    0.000    3.200 
#    0.000   15.000    0.000    0.000    0.000    0.000 
#    0.000    0.000    0.000    0.000    0.000    0.000 
#
# Total GULP energy -111613.320432 kJ/mol
# GULP energy per Si atom -5580.666022 kJ/mol
# Density = 2.599335 g / cm^3
# Si number density = 26.052649 Si / 1000 Ang^3
#
#
#
# Elastic Constant Matrix: (Units=GPa)
#
#
# Indices 1 2 3 4 5 6 
#
# 1 73.4492 41.4810 23.1852 0.0000 0.0000 0.0000
# 2 41.4810 179.3252 -1.3230 0.0000 0.0000 0.0000
# 3 23.1852 -1.3230 87.9652 0.0000 0.0000 0.0000
# 4 0.0000 0.0000 0.0000 35.3391 0.0000 0.0000
# 5 0.0000 0.0000 0.0000 0.0000 16.8013 0.0000
# 6 0.0000 0.0000 0.0000 0.0000 0.0000 55.1085
#
#
#
# Elastic Compliance Matrix: (Units=1/GPa)
#
#
# Indices 1 2 3 4 5 6 
#
# 1 0.017367 -0.004052 -0.004638 0.000000 0.000000 0.000000
# 2 -0.004052 0.006522 0.001166 0.000000 0.000000 0.000000
# 3 -0.004638 0.001166 0.012608 0.000000 0.000000 0.000000
# 4 0.000000 0.000000 0.000000 0.028297 0.000000 0.000000
# 5 0.000000 0.000000 0.000000 0.000000 0.059519 0.000000
# 6 0.000000 0.000000 0.000000 0.000000 0.000000 0.018146
#
#
# Mechanical properties :
#
#
# Convention : Reuss Voigt Hill
#
# Bulk Modulus (GPa) = 46.62086 51.93622 49.27854
# Shear Modulus (GPa) = 30.36596 39.94287 35.15441
#
# Velocity S-wave (km/s) = 3.41774 3.91981 3.67735
# Velocity P-wave (km/s) = 5.78863 6.36120 6.08166
#
# Compressibility (1/GPa) = 0.02144963
#
# Stress axis : x y z
#
# Youngs Moduli (GPa) = 57.57986 153.32120 79.31318
#
# Poissons Ratio (x) = 0.62119 0.36789
# Poissons Ratio (y) = 0.23329 -0.09248
# Poissons Ratio (z) = 0.26708 -0.17877
#
# Static dielectric constant tensor:
#      x y z
#    x 2.135780 0.000000 0.000000 
#    y 0.000000 2.146210 0.000000 
#    z 0.000000 0.000000 2.120610 
# 
# From -- ./inp_files/4859.got.cif
#   From: 2010.05.17/outbox.cif.g08.bks.cpg/sg41_3_cif.got.tgz:4859.got - 2010.06.03 18:54:24.
