data_PCOD9367602
_publ_section_title
;
Structure prediction by ZEFSAII (Michael W. Deem and Ramdas Pophale) SiO2 
 PCOD9367602
Probable space group: A B A 2
;
_chemical_formula_sum "Si O2"
_cell_formula_units_Z 28
_cell_length_a 8.764984
_cell_length_b 12.967084
_cell_length_c 9.081609
_cell_angle_alpha 90.000000
_cell_angle_beta 90.000000
_cell_angle_gamma 90.000000
_cell_volume 1032.181930
_symmetry_space_group_name_H-M "A B A 2"
_symmetry_group_IT_number 41
_symmetry_cell_setting 'orthorhombic'
loop_
_space_group_symop_operation_xyz
x,y,z
-x,-y,z
1/2-x,y,1/2+z
1/2+x,-y,1/2+z
x,1/2+y,1/2+z
-x,1/2-y,1/2+z
1/2-x,1/2+y,z
1/2+x,1/2-y,z
loop_
_atom_site_type_symbol
_atom_site_label
_atom_site_fract_x
_atom_site_fract_y
_atom_site_fract_z
Si Si1 0.500000 0.000000 0.261291
Si Si2 0.707194 0.173546 0.173339
Si Si3 0.707079 0.875714 0.492585
Si Si4 0.452451 0.637117 0.283698
O O1 0.387780 0.929759 0.166451
O O2 0.597833 0.923253 0.367361
O O3 0.611430 0.246618 0.281851
O O4 0.872839 0.147017 0.237883
O O5 0.636792 0.415397 0.146345
O O6 0.708542 0.752008 0.533573
O O7 0.875850 0.903446 0.433193
#
# Coordination Sequence:
#
# PCOD9367602 Si02
#       4
#     4   8   8   8
#     4  12  26  54  82 124 158 218 274 326 416 482
#     4  10  26  47  85 116 165 212 267 338 399 482
#     4  10  27  49  77 119 160 209 268 337 395 484
#     4  10  24  50  79 112 169 205 264 343 400 465
#
# _framework density 27.127001
#
# number of rings (size 3 to 8) (size 9 to 14) (size 15 to 20)
#    1.714    0.000    0.000    1.714    8.000    3.429 
#    0.000    0.000    0.000    1.714    0.000    0.000 
#    0.000    0.000    0.000    0.000    0.000    0.000 
#
# Total GULP energy -78076.340218 kJ/mol
# GULP energy per Si atom -5576.881444 kJ/mol
# Density = 2.706526 g / cm^3
# Si number density = 27.127001 Si / 1000 Ang^3
#
#
#
# Elastic Constant Matrix: (Units=GPa)
#
#
# Indices 1 2 3 4 5 6 
#
# 1 277.9864 123.9909 100.4997 0.0000 0.0000 0.0000
# 2 123.9909 155.4019 84.0198 0.0000 0.0000 0.0000
# 3 100.4997 84.0198 102.8556 0.0000 0.0000 0.0000
# 4 0.0000 0.0000 0.0000 72.4437 0.0000 0.0000
# 5 0.0000 0.0000 0.0000 0.0000 39.9514 0.0000
# 6 0.0000 0.0000 0.0000 0.0000 0.0000 44.0190
#
#
#
# Elastic Compliance Matrix: (Units=1/GPa)
#
#
# Indices 1 2 3 4 5 6 
#
# 1 0.006267 -0.003026 -0.003652 0.000000 0.000000 0.000000
# 2 -0.003026 0.012986 -0.007651 0.000000 0.000000 0.000000
# 3 -0.003652 -0.007651 0.019541 0.000000 0.000000 0.000000
# 4 0.000000 0.000000 0.000000 0.013804 0.000000 0.000000
# 5 0.000000 0.000000 0.000000 0.000000 0.025030 0.000000
# 6 0.000000 0.000000 0.000000 0.000000 0.000000 0.022717
#
#
# Mechanical properties :
#
#
# Convention : Reuss Voigt Hill
#
# Bulk Modulus (GPa) = 98.66044 128.14052 113.40048
# Shear Modulus (GPa) = 37.76944 46.46503 42.11723
#
# Velocity S-wave (km/s) = 3.73543 4.14317 3.94457
# Velocity P-wave (km/s) = 7.41979 8.38019 7.91457
#
# Compressibility (1/GPa) = 0.01013577
#
# Stress axis : x y z
#
# Youngs Moduli (GPa) = 159.55961 77.00571 51.17576
#
# Poissons Ratio (x) = 0.23303 0.18688
# Poissons Ratio (y) = 0.48284 0.39155
# Poissons Ratio (z) = 0.58267 0.58918
#
# Static dielectric constant tensor:
#      x y z
#    x 2.111620 0.000000 0.000000 
#    y 0.000000 2.122190 0.000000 
#    z 0.000000 0.000000 2.124910 
# 
# From -- ./inp_files/4258.got.cif
#   From: 2010.05.17/outbox.cif.g08.bks.cpg/sg41_3_cif.got.tgz:4258.got - 2010.06.03 18:54:24.
