data_PCOD9367681
_publ_section_title
;
Structure prediction by ZEFSAII (Michael W. Deem and Ramdas Pophale) SiO2 
 PCOD9367681
Probable space group: A B A 2
;
_chemical_formula_sum "Si O2"
_cell_formula_units_Z 64
_cell_length_a 11.493645
_cell_length_b 15.974929
_cell_length_c 14.732475
_cell_angle_alpha 90.000000
_cell_angle_beta 90.000000
_cell_angle_gamma 90.000000
_cell_volume 2705.032134
_symmetry_space_group_name_H-M "A B A 2"
_symmetry_group_IT_number 41
_symmetry_cell_setting 'orthorhombic'
loop_
_space_group_symop_operation_xyz
x,y,z
-x,-y,z
1/2-x,y,1/2+z
1/2+x,-y,1/2+z
x,1/2+y,1/2+z
-x,1/2-y,1/2+z
1/2-x,1/2+y,z
1/2+x,1/2-y,z
loop_
_atom_site_type_symbol
_atom_site_label
_atom_site_fract_x
_atom_site_fract_y
_atom_site_fract_z
Si Si1 0.506073 0.212619 0.283090
Si Si2 0.520362 0.415447 0.631610
Si Si3 0.179175 0.611750 0.965177
Si Si4 0.354757 0.297275 0.036585
Si Si5 0.123260 0.480253 0.816382
Si Si6 0.078216 0.173358 0.974094
Si Si7 0.351547 0.866623 0.982805
Si Si8 0.721759 0.681719 0.237858
O O1 0.458945 0.157948 0.199840
O O2 0.485299 0.165659 0.377950
O O3 0.402630 0.284185 0.280913
O O4 0.649599 0.217597 0.270229
O O5 0.500000 0.500000 0.684823
O O6 0.612920 0.427918 0.550845
O O7 0.404745 0.393381 0.577086
O O8 0.163681 0.566361 0.867707
O O9 0.315490 0.612278 0.983937
O O10 0.139299 0.709748 0.979497
O O11 0.286813 0.368722 0.981350
O O12 0.290448 0.291785 0.132569
O O13 0.484584 0.327974 0.053185
O O14 0.208977 0.419023 0.758951
O O15 0.000000 0.500000 0.768912
O O16 0.095495 0.423233 0.905199
O O17 0.125736 0.268216 0.974341
#
# Coordination Sequence:
#
# PCOD9367681 Si02
#       8
#     8   8   8   8   8   8   8   8
#     4  12  27  46  70 115 148 202 253 331 385 463
#     4  12  22  42  75 101 143 193 253 310 389 466
#     4  11  23  41  74 109 139 199 249 311 383 475
#     4  11  23  44  71 105 141 199 258 315 371 462
#     4  12  23  44  73 108 151 198 251 313 395 465
#     4  11  24  41  71 105 144 188 259 310 376 455
#     4  11  19  40  69  96 134 188 245 298 363 457
#     4  12  27  44  76 109 161 197 263 325 388 464
#
# _framework density 23.659607999999999
#
# number of rings (size 3 to 8) (size 9 to 14) (size 15 to 20)
#    0.000    0.500    7.500    0.750    3.500    1.000 
#    0.000    4.375    0.000    0.000    0.000    0.000 
#    0.000    0.000    0.000    0.000    0.000    0.000 
#
# Total GULP energy -178156.588103 kJ/mol
# GULP energy per Si atom -5567.393378 kJ/mol
# Density = 2.360576 g / cm^3
# Si number density = 23.659608 Si / 1000 Ang^3
#
#
#
# Elastic Constant Matrix: (Units=GPa)
#
#
# Indices 1 2 3 4 5 6 
#
# 1 164.6563 36.0320 12.0935 0.0000 0.0000 0.0000
# 2 36.0320 78.7901 28.7672 0.0000 0.0000 0.0000
# 3 12.0935 28.7672 60.3734 0.0000 0.0000 0.0000
# 4 0.0000 0.0000 0.0000 37.8222 0.0000 0.0000
# 5 0.0000 0.0000 0.0000 0.0000 27.9144 0.0000
# 6 0.0000 0.0000 0.0000 0.0000 0.0000 -307.6837
#
#
#
# Elastic Compliance Matrix: (Units=1/GPa)
#
#
# Indices 1 2 3 4 5 6 
#
# 1 0.006750 -0.003139 0.000144 0.000000 0.000000 0.000000
# 2 -0.003139 0.016825 -0.007388 0.000000 0.000000 0.000000
# 3 0.000144 -0.007388 0.020055 0.000000 0.000000 0.000000
# 4 0.000000 0.000000 0.000000 0.026440 0.000000 0.000000
# 5 0.000000 0.000000 0.000000 0.000000 0.035824 0.000000
# 6 0.000000 0.000000 0.000000 0.000000 0.000000 -0.003250
#
#
# Mechanical properties :
#
#
# Convention : Reuss Voigt Hill
#
# Bulk Modulus (GPa) = 43.73932 50.84500 47.29216
# Shear Modulus (GPa) = 38.15887 -33.26095 2.44896
#
# Velocity S-wave (km/s) = 4.02036 -3.75348 1.01849
# Velocity P-wave (km/s) = 6.33073 1.65892 4.62764
#
# Compressibility (1/GPa) = 0.02286273
#
# Stress axis : x y z
#
# Youngs Moduli (GPa) = 148.15560 59.43513 49.86250
#
# Poissons Ratio (x) = 0.18658 -0.00717
# Poissons Ratio (y) = 0.46509 0.36839
# Poissons Ratio (z) = -0.02130 0.43911
#
# Static dielectric constant tensor:
#      x y z
#    x 2.064590 0.000000 0.000000 
#    y 0.000000 1.958480 0.000000 
#    z 0.000000 0.000000 1.906670 
# 
# From -- ./inp_files/8118.got.cif
#   From: 2010.05.17/outbox.cif.g08.bks.cpg/sg41_5_cif.got.tgz:8118.got - 2010.06.03 18:54:24.
