data_PCOD9367956
_publ_section_title
;
Structure prediction by ZEFSAII (Michael W. Deem and Ramdas Pophale) SiO2 
 PCOD9367956
Probable space group: A B A 2
;
_chemical_formula_sum "Si O2"
_cell_formula_units_Z 48
_cell_length_a 8.433837
_cell_length_b 11.375587
_cell_length_c 21.349785
_cell_angle_alpha 90.000000
_cell_angle_beta 90.000000
_cell_angle_gamma 90.000000
_cell_volume 2048.295097
_symmetry_space_group_name_H-M "A B A 2"
_symmetry_group_IT_number 41
_symmetry_cell_setting 'orthorhombic'
loop_
_space_group_symop_operation_xyz
x,y,z
-x,-y,z
1/2-x,y,1/2+z
1/2+x,-y,1/2+z
x,1/2+y,1/2+z
-x,1/2-y,1/2+z
1/2-x,1/2+y,z
1/2+x,1/2-y,z
loop_
_atom_site_type_symbol
_atom_site_label
_atom_site_fract_x
_atom_site_fract_y
_atom_site_fract_z
Si Si1 0.147320 0.090187 0.983040
Si Si2 0.316713 0.323495 0.167833
Si Si3 0.000000 0.000000 0.256445
Si Si4 0.500000 0.000000 0.985931
Si Si5 0.073116 0.791631 0.576601
Si Si6 0.213395 0.205133 0.288233
Si Si7 0.998002 0.639019 0.359041
O O1 0.081020 0.167983 0.924616
O O2 0.312811 0.024148 0.962379
O O3 0.152505 0.178514 0.042329
O O4 0.000000 0.000000 0.995738
O O5 0.390021 0.423009 0.211294
O O6 0.444904 0.253259 0.126814
O O7 0.198475 0.369183 0.115292
O O8 0.214050 0.245466 0.216431
O O9 0.104601 0.090611 0.296190
O O10 0.512889 0.120210 0.024450
O O11 0.394269 0.177614 0.301398
O O12 0.164971 0.301198 0.340017
O O13 0.000000 0.500000 0.358811
#
# Coordination Sequence:
#
# PCOD9367956 Si02
#       7
#     8   8   4   4   8   8   8
#     4  11  28  51  76 111 155 200 265 320 379 467
#     4  12  25  44  72 105 150 194 247 315 377 464
#     4  12  26  43  74 106 146 193 250 308 386 454
#     4  12  28  47  78 112 152 211 246 318 404 452
#     4  12  26  46  72 111 147 199 253 312 388 465
#     4  12  25  48  73 109 146 199 250 319 390 454
#     4  11  27  49  75 106 150 197 259 321 378 468
#
# _framework density 23.434125999999999
#
# number of rings (size 3 to 8) (size 9 to 14) (size 15 to 20)
#    0.000    0.333    5.000    2.000    8.167    2.000 
#    1.500    0.000    0.000    0.000    0.000    0.000 
#    0.000    0.000    0.000    0.000    0.000    0.000 
#
# Total GULP energy -133871.862114 kJ/mol
# GULP energy per Si atom -5577.994255 kJ/mol
# Density = 2.338079 g / cm^3
# Si number density = 23.434126 Si / 1000 Ang^3
#
#
#
# Elastic Constant Matrix: (Units=GPa)
#
#
# Indices 1 2 3 4 5 6 
#
# 1 77.2768 11.9784 14.2299 0.0000 0.0000 0.0000
# 2 11.9784 80.4012 13.3501 0.0000 0.0000 0.0000
# 3 14.2299 13.3501 74.7167 0.0000 0.0000 0.0000
# 4 0.0000 0.0000 0.0000 -6.5968 0.0000 0.0000
# 5 0.0000 0.0000 0.0000 0.0000 41.5358 0.0000
# 6 0.0000 0.0000 0.0000 0.0000 0.0000 36.2978
#
#
#
# Elastic Compliance Matrix: (Units=1/GPa)
#
#
# Indices 1 2 3 4 5 6 
#
# 1 0.013619 -0.001647 -0.002299 0.000000 0.000000 0.000000
# 2 -0.001647 0.013017 -0.002012 0.000000 0.000000 0.000000
# 3 -0.002299 -0.002012 0.014181 0.000000 0.000000 0.000000
# 4 0.000000 0.000000 0.000000 -0.151588 0.000000 0.000000
# 5 0.000000 0.000000 0.000000 0.000000 0.024076 0.000000
# 6 0.000000 0.000000 0.000000 0.000000 0.000000 0.027550
#
#
# Mechanical properties :
#
#
# Convention : Reuss Voigt Hill
#
# Bulk Modulus (GPa) = 34.60201 34.61239 34.60720
# Shear Modulus (GPa) = -133.00164 27.10310 -52.94927
#
# Velocity S-wave (km/s) = -7.54180 3.40452 -4.75857
# Velocity P-wave (km/s) = 7.81285 5.50059 3.92327
#
# Compressibility (1/GPa) = 0.02890005
#
# Stress axis : x y z
#
# Youngs Moduli (GPa) = 73.42550 76.82179 70.51517
#
# Poissons Ratio (x) = 0.12654 0.16215
# Poissons Ratio (y) = 0.12095 0.14189
# Poissons Ratio (z) = 0.16884 0.15458
#
# Static dielectric constant tensor:
#      x y z
#    x 1.921440 0.000000 0.000000 
#    y 0.000000 1.994650 0.000000 
#    z 0.000000 0.000000 1.906820 
# 
# From -- ./inp_files/11972.got.cif
#   From: 2010.05.17/outbox.cif.g08.bks.cpg/sg41_6_cif.got.tgz:11972.got - 2010.06.03 18:54:24.
