data_PCOD9367199
_publ_section_title
;
Structure prediction by ZEFSAII (Michael W. Deem and Ramdas Pophale) SiO2 
 PCOD9367199
Probable space group: A B A 2
;
_chemical_formula_sum "Si O2"
_cell_formula_units_Z 60
_cell_length_a 10.524147
_cell_length_b 12.184508
_cell_length_c 18.470219
_cell_angle_alpha 90.000000
_cell_angle_beta 90.000000
_cell_angle_gamma 90.000000
_cell_volume 2368.464872
_symmetry_space_group_name_H-M "A B A 2"
_symmetry_group_IT_number 41
_symmetry_cell_setting 'orthorhombic'
loop_
_space_group_symop_operation_xyz
x,y,z
-x,-y,z
1/2-x,y,1/2+z
1/2+x,-y,1/2+z
x,1/2+y,1/2+z
-x,1/2-y,1/2+z
1/2-x,1/2+y,z
1/2+x,1/2-y,z
loop_
_atom_site_type_symbol
_atom_site_label
_atom_site_fract_x
_atom_site_fract_y
_atom_site_fract_z
Si Si1 0.077670 0.287006 0.908850
Si Si2 0.500000 0.000000 0.258961
Si Si3 0.102232 0.641370 0.667763
Si Si4 0.309379 0.936397 0.379159
Si Si5 0.560843 0.395388 0.536665
Si Si6 0.119437 0.209285 0.675571
Si Si7 0.605332 0.911823 0.821714
Si Si8 0.144526 0.075369 0.003183
O O1 0.210394 0.335482 0.879341
O O2 0.096863 0.173249 0.950872
O O3 0.961759 0.300628 0.851433
O O4 0.032097 0.367858 0.972303
O O5 0.406921 0.935264 0.313534
O O6 0.423926 0.096379 0.215623
O O7 0.227910 0.721022 0.671099
O O8 0.134879 0.567760 0.737253
O O9 0.097787 0.590066 0.587163
O O10 0.969705 0.690895 0.697935
O O11 0.229789 0.048430 0.362972
O O12 0.369656 0.960905 0.458596
O O13 0.500000 0.500000 0.574661
O O14 0.568920 0.299499 0.593618
O O15 0.703752 0.415454 0.513678
O O16 0.500000 0.000000 0.841494
#
# Coordination Sequence:
#
# PCOD9367199 Si02
#       8
#     8   4   8   8   8   8   8   8
#     4  11  22  42  72 100 135 180 233 282 350 419
#     4  12  26  44  66 100 140 178 236 284 348 414
#     4  11  25  46  69 104 141 181 233 288 351 421
#     4  11  24  44  65 101 135 182 228 288 342 413
#     4  11  19  42  71  97 132 184 226 279 346 418
#     4  11  25  44  70 101 140 181 231 286 353 417
#     4  10  22  43  71  98 134 184 231 276 350 420
#     4  11  24  40  70 107 137 175 232 289 348 421
#
# _framework density 25.332864000000001
#
# number of rings (size 3 to 8) (size 9 to 14) (size 15 to 20)
#    0.000    1.067    6.000    0.400    1.867    4.267 
#    1.200    0.000    0.000    0.000    0.000    0.000 
#    0.000    0.000    0.000    0.000    0.000    0.000 
#
# Total GULP energy -167379.451299 kJ/mol
# GULP energy per Si atom -5579.315043 kJ/mol
# Density = 2.527521 g / cm^3
# Si number density = 25.332864 Si / 1000 Ang^3
#
#
#
# Elastic Constant Matrix: (Units=GPa)
#
#
# Indices 1 2 3 4 5 6 
#
# 1 122.7646 44.1471 14.1667 0.0000 0.0000 0.0000
# 2 44.1471 59.8002 15.2828 0.0000 0.0000 0.0000
# 3 14.1667 15.2828 130.4068 0.0000 0.0000 0.0000
# 4 0.0000 0.0000 0.0000 3.0374 0.0000 0.0000
# 5 0.0000 0.0000 0.0000 0.0000 28.5198 0.0000
# 6 0.0000 0.0000 0.0000 0.0000 0.0000 32.8173
#
#
#
# Elastic Compliance Matrix: (Units=1/GPa)
#
#
# Indices 1 2 3 4 5 6 
#
# 1 0.011098 -0.008128 -0.000253 0.000000 0.000000 0.000000
# 2 -0.008128 0.023192 -0.001835 0.000000 0.000000 0.000000
# 3 -0.000253 -0.001835 0.007911 0.000000 0.000000 0.000000
# 4 0.000000 0.000000 0.000000 0.329230 0.000000 0.000000
# 5 0.000000 0.000000 0.000000 0.000000 0.035063 0.000000
# 6 0.000000 0.000000 0.000000 0.000000 0.000000 0.030472
#
#
# Mechanical properties :
#
#
# Convention : Reuss Voigt Hill
#
# Bulk Modulus (GPa) = 45.93859 51.12943 48.53401
# Shear Modulus (GPa) = 10.76069 28.83322 19.79696
#
# Velocity S-wave (km/s) = 2.06324 3.37734 2.79852
# Velocity P-wave (km/s) = 4.88357 5.95277 5.44448
#
# Compressibility (1/GPa) = 0.02176819
#
# Stress axis : x y z
#
# Youngs Moduli (GPa) = 90.10752 43.11841 126.40884
#
# Poissons Ratio (x) = 0.35048 0.03199
# Poissons Ratio (y) = 0.73242 0.23195
# Poissons Ratio (z) = 0.02280 0.07912
#
# Static dielectric constant tensor:
#      x y z
#    x 2.098560 0.000000 0.000000 
#    y 0.000000 2.110220 0.000000 
#    z 0.000000 0.000000 2.002820 
# 
# From -- ./inp_files/10077.got.cif
#   From: 2010.05.17/outbox.cif.g08.bks.cpg/sg41_6_cif.got.tgz:10077.got - 2010.06.03 18:54:24.
