data_PCOD9367677
_publ_section_title
;
Structure prediction by ZEFSAII (Michael W. Deem and Ramdas Pophale) SiO2 
 PCOD9367677
Probable space group: A B A 2
;
_chemical_formula_sum "Si O2"
_cell_formula_units_Z 64
_cell_length_a 8.417534
_cell_length_b 14.971134
_cell_length_c 23.455886
_cell_angle_alpha 90.000000
_cell_angle_beta 90.000000
_cell_angle_gamma 90.000000
_cell_volume 2955.911445
_symmetry_space_group_name_H-M "A B A 2"
_symmetry_group_IT_number 41
_symmetry_cell_setting 'orthorhombic'
loop_
_space_group_symop_operation_xyz
x,y,z
-x,-y,z
1/2-x,y,1/2+z
1/2+x,-y,1/2+z
x,1/2+y,1/2+z
-x,1/2-y,1/2+z
1/2-x,1/2+y,z
1/2+x,1/2-y,z
loop_
_atom_site_type_symbol
_atom_site_label
_atom_site_fract_x
_atom_site_fract_y
_atom_site_fract_z
Si Si1 0.938246 0.208029 0.696130
Si Si2 0.284470 0.330225 0.857552
Si Si3 0.105418 0.654772 0.544517
Si Si4 0.189104 0.019775 0.354742
Si Si5 0.717931 0.320342 0.771560
Si Si6 0.479529 0.764919 0.936807
Si Si7 0.351491 0.063983 0.983727
Si Si8 0.814213 0.699287 0.613440
O O1 0.850228 0.294629 0.723952
O O2 0.804499 0.155754 0.660009
O O3 0.045859 0.161661 0.744100
O O4 0.067812 0.240531 0.650936
O O5 0.289843 0.432348 0.839869
O O6 0.214177 0.272105 0.806546
O O7 0.438274 0.282095 0.882841
O O8 0.164514 0.321386 0.911006
O O9 0.066522 0.689928 0.481377
O O10 0.221980 0.571682 0.533481
O O11 0.205750 0.734392 0.575240
O O12 0.937622 0.641652 0.576368
O O13 0.230791 0.102947 0.315027
O O14 0.216492 0.037107 0.421852
O O15 0.000000 0.000000 0.348787
O O16 0.583902 0.836135 0.971268
O O17 0.500000 0.000000 0.997305
#
# Coordination Sequence:
#
# PCOD9367677 Si02
#       8
#     8   8   8   8   8   8   8   8
#     4   9  20  36  61  92 117 156 217 279 323 381
#     4  12  22  36  62  92 131 174 209 255 315 388
#     4  11  19  36  63  94 121 168 219 265 320 393
#     4  11  21  37  58  90 134 177 212 256 316 397
#     4  11  20  38  61  90 126 169 216 265 326 393
#     4  12  20  36  61  92 130 167 210 256 306 387
#     4  11  21  35  57  89 136 177 209 257 319 388
#     4   9  19  36  63  94 115 153 228 268 324 390
#
# _framework density 21.651527999999999
#
# number of rings (size 3 to 8) (size 9 to 14) (size 15 to 20)
#    0.000    1.250    6.250    1.500    0.000    0.000 
#    0.000    5.625    0.000    4.500   19.500    0.000 
#    0.000    0.000    0.000    0.000    0.500    0.000 
#
# Total GULP energy -178613.023073 kJ/mol
# GULP energy per Si atom -5581.656971 kJ/mol
# Density = 2.160225 g / cm^3
# Si number density = 21.651528 Si / 1000 Ang^3
#
#
#
# Elastic Constant Matrix: (Units=GPa)
#
#
# Indices 1 2 3 4 5 6 
#
# 1 102.6502 24.6187 45.3072 0.0000 0.0000 0.0000
# 2 24.6187 70.5487 8.7011 0.0000 0.0000 0.0000
# 3 45.3072 8.7011 73.9789 0.0000 0.0000 0.0000
# 4 0.0000 0.0000 0.0000 9.1575 0.0000 0.0000
# 5 0.0000 0.0000 0.0000 0.0000 51.6398 0.0000
# 6 0.0000 0.0000 0.0000 0.0000 0.0000 -63.0825
#
#
#
# Elastic Compliance Matrix: (Units=1/GPa)
#
#
# Indices 1 2 3 4 5 6 
#
# 1 0.014378 -0.003989 -0.008336 0.000000 0.000000 0.000000
# 2 -0.003989 0.015490 0.000621 0.000000 0.000000 0.000000
# 3 -0.008336 0.000621 0.018550 0.000000 0.000000 0.000000
# 4 0.000000 0.000000 0.000000 0.109200 0.000000 0.000000
# 5 0.000000 0.000000 0.000000 0.000000 0.019365 0.000000
# 6 0.000000 0.000000 0.000000 0.000000 0.000000 -0.015852
#
#
# Mechanical properties :
#
#
# Convention : Reuss Voigt Hill
#
# Bulk Modulus (GPa) = 39.98534 44.93687 42.46111
# Shear Modulus (GPa) = 25.92347 10.77967 18.35157
#
# Velocity S-wave (km/s) = 3.46396 2.23372 2.91449
# Velocity P-wave (km/s) = 5.87422 5.23950 5.56592
#
# Compressibility (1/GPa) = 0.02500916
#
# Stress axis : x y z
#
# Youngs Moduli (GPa) = 69.55059 64.55754 53.90894
#
# Poissons Ratio (x) = 0.25753 0.44941
# Poissons Ratio (y) = 0.27745 -0.03349
# Poissons Ratio (z) = 0.57980 -0.04011
#
# Static dielectric constant tensor:
#      x y z
#    x 1.902950 0.000000 0.000000 
#    y 0.000000 1.778800 0.000000 
#    z 0.000000 0.000000 1.847290 
# 
# From -- ./inp_files/12035.got.cif
#   From: 2010.05.17/outbox.cif.g08.bks.cpg/sg41_7_cif.got.tgz:12035.got - 2010.06.03 18:54:24.
