data_PCOD9367223
_publ_section_title
;
Structure prediction by ZEFSAII (Michael W. Deem and Ramdas Pophale) SiO2 
 PCOD9367223
Probable space group: A B A 2
;
_chemical_formula_sum "Si O2"
_cell_formula_units_Z 56
_cell_length_a 7.099949
_cell_length_b 21.875296
_cell_length_c 13.792447
_cell_angle_alpha 90.000000
_cell_angle_beta 90.000000
_cell_angle_gamma 90.000000
_cell_volume 2142.153023
_symmetry_space_group_name_H-M "A B A 2"
_symmetry_group_IT_number 41
_symmetry_cell_setting 'orthorhombic'
loop_
_space_group_symop_operation_xyz
x,y,z
-x,-y,z
1/2-x,y,1/2+z
1/2+x,-y,1/2+z
x,1/2+y,1/2+z
-x,1/2-y,1/2+z
1/2-x,1/2+y,z
1/2+x,1/2-y,z
loop_
_atom_site_type_symbol
_atom_site_label
_atom_site_fract_x
_atom_site_fract_y
_atom_site_fract_z
Si Si1 0.702880 0.627691 0.945270
Si Si2 0.519735 0.801102 0.017060
Si Si3 0.777062 0.010487 0.825031
Si Si4 0.259742 0.596831 0.955205
Si Si5 0.651681 0.957200 0.635228
Si Si6 0.467908 0.278584 0.834562
Si Si7 0.720000 0.322401 0.204778
O O1 0.773410 0.566335 0.894051
O O2 0.482561 0.612869 0.968461
O O3 0.708288 0.678313 0.859288
O O4 0.826463 0.659588 0.029984
O O5 0.637996 0.843823 0.946036
O O6 0.483832 0.744080 0.945060
O O7 0.662569 0.797597 0.109124
O O8 0.708804 0.948263 0.871206
O O9 0.707891 0.007017 0.715721
O O10 0.000000 0.000000 0.822605
O O11 0.199846 0.561461 0.053511
O O12 0.626656 0.888323 0.680720
O O13 0.500000 0.000000 0.579609
O O14 0.616053 0.324492 0.785347
O O15 0.416893 0.227959 0.753626
#
# Coordination Sequence:
#
# PCOD9367223 Si02
#       7
#     8   8   8   8   8   8   8
#     4  11  24  44  76 103 141 205 245 303 383 445
#     4  11  26  46  75 106 147 204 249 307 381 452
#     4  10  22  44  69 103 142 186 245 306 371 448
#     4  10  24  49  70 104 147 185 249 312 364 451
#     4  11  24  45  71 104 145 190 239 312 378 436
#     4  12  24  48  72 106 155 194 255 315 369 452
#     4  11  27  45  71 113 149 198 260 313 375 465
#
# _framework density 26.141922999999998
#
# number of rings (size 3 to 8) (size 9 to 14) (size 15 to 20)
#    0.000    1.143    1.429    4.714    6.000    1.143 
#   15.429    0.000    0.000    0.000    0.000    0.000 
#    0.000    0.000    0.000    0.000    0.000    0.000 
#
# Total GULP energy -156090.732310 kJ/mol
# GULP energy per Si atom -5574.669011 kJ/mol
# Density = 2.608242 g / cm^3
# Si number density = 26.141923 Si / 1000 Ang^3
#
#
#
# Elastic Constant Matrix: (Units=GPa)
#
#
# Indices 1 2 3 4 5 6 
#
# 1 79.5803 24.6161 -8.5381 0.0000 0.0000 0.0000
# 2 24.6161 130.0437 37.0523 0.0000 0.0000 0.0000
# 3 -8.5381 37.0523 74.2663 0.0000 0.0000 0.0000
# 4 0.0000 0.0000 0.0000 22.6515 0.0000 0.0000
# 5 0.0000 0.0000 0.0000 0.0000 39.9031 0.0000
# 6 0.0000 0.0000 0.0000 0.0000 0.0000 19.3910
#
#
#
# Elastic Compliance Matrix: (Units=1/GPa)
#
#
# Indices 1 2 3 4 5 6 
#
# 1 0.014060 -0.003639 0.003432 0.000000 0.000000 0.000000
# 2 -0.003639 0.009906 -0.005361 0.000000 0.000000 0.000000
# 3 0.003432 -0.005361 0.016534 0.000000 0.000000 0.000000
# 4 0.000000 0.000000 0.000000 0.044147 0.000000 0.000000
# 5 0.000000 0.000000 0.000000 0.000000 0.025061 0.000000
# 6 0.000000 0.000000 0.000000 0.000000 0.000000 0.051570
#
#
# Mechanical properties :
#
#
# Convention : Reuss Voigt Hill
#
# Bulk Modulus (GPa) = 34.05494 43.35010 38.70252
# Shear Modulus (GPa) = 27.44211 31.77313 29.60762
#
# Velocity S-wave (km/s) = 3.24348 3.49005 3.36902
# Velocity P-wave (km/s) = 5.20405 5.73230 5.47455
#
# Compressibility (1/GPa) = 0.02936431
#
# Stress axis : x y z
#
# Youngs Moduli (GPa) = 71.12449 100.94946 60.48120
#
# Poissons Ratio (x) = 0.36738 -0.20758
# Poissons Ratio (y) = 0.25884 0.32421
# Poissons Ratio (z) = -0.24410 0.54115
#
# Static dielectric constant tensor:
#      x y z
#    x 2.156360 0.000000 0.000000 
#    y 0.000000 2.116180 0.000000 
#    z 0.000000 0.000000 2.081010 
# 
# From -- ./inp_files/7467.got.cif
#   From: 2010.05.17/outbox.cif.g08.bks.cpg/sg41_4_cif.got.tgz:7467.got - 2010.06.03 18:54:24.
