data_PCOD9367023
_publ_section_title
;
Structure prediction by ZEFSAII (Michael W. Deem and Ramdas Pophale) SiO2 
 PCOD9367023
Probable space group: A B A 2
;
_chemical_formula_sum "Si O2"
_cell_formula_units_Z 64
_cell_length_a 14.840043
_cell_length_b 15.629179
_cell_length_c 11.699173
_cell_angle_alpha 90.000000
_cell_angle_beta 90.000000
_cell_angle_gamma 90.000000
_cell_volume 2713.479142
_symmetry_space_group_name_H-M "A B A 2"
_symmetry_group_IT_number 41
_symmetry_cell_setting 'orthorhombic'
loop_
_space_group_symop_operation_xyz
x,y,z
-x,-y,z
1/2-x,y,1/2+z
1/2+x,-y,1/2+z
x,1/2+y,1/2+z
-x,1/2-y,1/2+z
1/2-x,1/2+y,z
1/2+x,1/2-y,z
loop_
_atom_site_type_symbol
_atom_site_label
_atom_site_fract_x
_atom_site_fract_y
_atom_site_fract_z
Si Si1 0.594661 0.973861 0.885390
Si Si2 0.573982 0.235705 0.526994
Si Si3 0.779754 0.343883 0.800911
Si Si4 0.250759 0.941193 0.979952
Si Si5 0.239673 0.659255 0.551625
Si Si6 0.917230 0.063309 0.147275
Si Si7 0.108788 0.308805 0.066159
Si Si8 0.348695 0.343274 0.809074
O O1 0.601295 0.040514 0.779214
O O2 0.500000 0.000000 0.937336
O O3 0.620602 0.883518 0.828534
O O4 0.672539 0.987674 0.977881
O O5 0.668708 0.283862 0.544828
O O6 0.561004 0.162953 0.624017
O O7 0.491033 0.300156 0.519076
O O8 0.583832 0.183289 0.409653
O O9 0.750228 0.382554 0.679065
O O10 0.784617 0.240654 0.793799
O O11 0.724060 0.365301 0.916677
O O12 0.172121 0.953037 0.071421
O O13 0.311850 0.857795 0.001119
O O14 0.204509 0.924224 0.857892
O O15 0.148794 0.713682 0.575935
O O16 0.000000 0.000000 0.114282
O O17 0.104908 0.354110 0.188738
#
# Coordination Sequence:
#
# PCOD9367023 Si02
#       8
#     8   8   8   8   8   8   8   8
#     4  11  27  39  65  94 133 177 221 270 329 415
#     4  10  22  39  64  97 129 166 222 278 325 396
#     4  10  22  41  64  93 132 172 218 271 336 386
#     4  11  22  43  66  91 131 170 218 273 339 391
#     4  10  22  41  65  96 132 166 223 278 325 394
#     4  10  23  42  61  94 128 176 217 264 332 408
#     4  11  21  36  70  92 123 172 209 279 332 383
#     4   9  21  41  60  94 126 158 225 272 320 394
#
# _framework density 23.585955999999999
#
# number of rings (size 3 to 8) (size 9 to 14) (size 15 to 20)
#    0.000    1.750    3.750    0.750   14.000    1.000 
#    0.000    1.250    0.000    3.750    0.000    0.875 
#    0.000    0.000    0.000    0.000    0.000    0.000 
#
# Total GULP energy -178317.419705 kJ/mol
# GULP energy per Si atom -5572.419366 kJ/mol
# Density = 2.353227 g / cm^3
# Si number density = 23.585956 Si / 1000 Ang^3
#
#
#
# Elastic Constant Matrix: (Units=GPa)
#
#
# Indices 1 2 3 4 5 6 
#
# 1 114.2128 6.7942 -3.5610 0.0000 0.0000 0.0000
# 2 6.7942 40.9427 7.3807 0.0000 0.0000 0.0000
# 3 -3.5610 7.3807 96.6442 0.0000 0.0000 0.0000
# 4 0.0000 0.0000 0.0000 27.5565 0.0000 0.0000
# 5 0.0000 0.0000 0.0000 0.0000 24.0456 0.0000
# 6 0.0000 0.0000 0.0000 0.0000 0.0000 28.3414
#
#
#
# Elastic Compliance Matrix: (Units=1/GPa)
#
#
# Indices 1 2 3 4 5 6 
#
# 1 0.008862 -0.001551 0.000445 0.000000 0.000000 0.000000
# 2 -0.001551 0.025037 -0.001969 0.000000 0.000000 0.000000
# 3 0.000445 -0.001969 0.010514 0.000000 0.000000 0.000000
# 4 0.000000 0.000000 0.000000 0.036289 0.000000 0.000000
# 5 0.000000 0.000000 0.000000 0.000000 0.041588 0.000000
# 6 0.000000 0.000000 0.000000 0.000000 0.000000 0.035284
#
#
# Mechanical properties :
#
#
# Convention : Reuss Voigt Hill
#
# Bulk Modulus (GPa) = 26.13531 30.33640 28.23586
# Shear Modulus (GPa) = 28.33223 32.06774 30.19998
#
# Velocity S-wave (km/s) = 3.46964 3.69129 3.58218
# Velocity P-wave (km/s) = 5.21116 5.57293 5.39507
#
# Compressibility (1/GPa) = 0.03826241
#
# Stress axis : x y z
#
# Youngs Moduli (GPa) = 112.84503 39.94138 95.11118
#
# Poissons Ratio (x) = 0.06194 -0.04232
# Poissons Ratio (y) = 0.17500 0.18729
# Poissons Ratio (z) = -0.05021 0.07865
#
# Static dielectric constant tensor:
#      x y z
#    x 1.897580 0.000000 0.000000 
#    y 0.000000 2.176690 0.000000 
#    z 0.000000 0.000000 1.952850 
# 
# From -- ./inp_files/5734.got.cif
#   From: 2010.05.17/outbox.cif.g08.bks.cpg/sg41_3_cif.got.tgz:5734.got - 2010.06.03 18:54:24.
