data_PCOD9367173
_publ_section_title
;
Structure prediction by ZEFSAII (Michael W. Deem and Ramdas Pophale) SiO2 
 PCOD9367173
Probable space group: A B A 2
;
_chemical_formula_sum "Si O2"
_cell_formula_units_Z 56
_cell_length_a 22.257452
_cell_length_b 8.065840
_cell_length_c 14.728109
_cell_angle_alpha 90.000000
_cell_angle_beta 90.000000
_cell_angle_gamma 90.000000
_cell_volume 2644.064455
_symmetry_space_group_name_H-M "A B A 2"
_symmetry_group_IT_number 41
_symmetry_cell_setting 'orthorhombic'
loop_
_space_group_symop_operation_xyz
x,y,z
-x,-y,z
1/2-x,y,1/2+z
1/2+x,-y,1/2+z
x,1/2+y,1/2+z
-x,1/2-y,1/2+z
1/2-x,1/2+y,z
1/2+x,1/2-y,z
loop_
_atom_site_type_symbol
_atom_site_label
_atom_site_fract_x
_atom_site_fract_y
_atom_site_fract_z
Si Si1 0.761011 0.169496 0.062420
Si Si2 0.500000 0.000000 0.851769
Si Si3 0.500000 0.500000 0.080955
Si Si4 0.316521 0.590891 0.939033
Si Si5 0.861815 0.093964 0.650311
Si Si6 0.562426 0.229100 0.990288
Si Si7 0.167024 0.724088 0.243018
Si Si8 0.100025 0.563224 0.726343
O O1 0.702882 0.071007 0.102294
O O2 0.793560 0.227389 0.154571
O O3 0.727674 0.305689 0.002912
O O4 0.805148 0.085473 0.987750
O O5 0.542171 0.111497 0.911600
O O6 0.545107 0.890213 0.792060
O O7 0.438474 0.502108 0.139011
O O8 0.505994 0.336328 0.022000
O O9 0.384206 0.651000 0.957126
O O10 0.303323 0.643254 0.834158
O O11 0.911387 0.123035 0.573463
O O12 0.861963 0.272265 0.703154
O O13 0.873845 0.930716 0.709540
O O14 0.135817 0.902417 0.262444
#
# Coordination Sequence:
#
# PCOD9367173 Si02
#       8
#     8   4   4   8   8   8   8   8
#     4  11  23  45  67  99 142 178 231 288 354 418
#     4  11  22  44  64  97 138 182 222 311 342 411
#     4   9  20  40  70  89 126 184 220 295 350 397
#     4  11  25  43  67 105 135 182 235 284 352 439
#     4  10  24  44  68  99 131 185 228 284 351 430
#     4  10  22  43  64  99 137 173 239 285 350 415
#     4  12  24  44  69  97 140 183 228 292 349 424
#     4  10  23  44  67  97 135 175 238 283 352 417
#
# _framework density 21.179514000000001
#
# number of rings (size 3 to 8) (size 9 to 14) (size 15 to 20)
#    0.000    1.429    2.857    2.571    4.000    1.143 
#    2.571    0.000    0.000    0.000    0.000    0.000 
#    0.000    0.000    0.000    0.000    0.000    0.000 
#
# Total GULP energy -155927.726599 kJ/mol
# GULP energy per Si atom -5568.847379 kJ/mol
# Density = 2.113131 g / cm^3
# Si number density = 21.179514 Si / 1000 Ang^3
#
#
#
# Elastic Constant Matrix: (Units=GPa)
#
#
# Indices 1 2 3 4 5 6 
#
# 1 49.6849 22.3038 9.8077 0.0000 0.0000 0.0000
# 2 22.3038 55.8485 7.5194 0.0000 0.0000 0.0000
# 3 9.8077 7.5194 90.0015 0.0000 0.0000 0.0000
# 4 0.0000 0.0000 0.0000 21.0209 0.0000 0.0000
# 5 0.0000 0.0000 0.0000 0.0000 11.8794 0.0000
# 6 0.0000 0.0000 0.0000 0.0000 0.0000 -53.7278
#
#
#
# Elastic Compliance Matrix: (Units=1/GPa)
#
#
# Indices 1 2 3 4 5 6 
#
# 1 0.024840 -0.009665 -0.001899 0.000000 0.000000 0.000000
# 2 -0.009665 0.021869 -0.000774 0.000000 0.000000 0.000000
# 3 -0.001899 -0.000774 0.011383 0.000000 0.000000 0.000000
# 4 0.000000 0.000000 0.000000 0.047572 0.000000 0.000000
# 5 0.000000 0.000000 0.000000 0.000000 0.084179 0.000000
# 6 0.000000 0.000000 0.000000 0.000000 0.000000 -0.018612
#
#
# Mechanical properties :
#
#
# Convention : Reuss Voigt Hill
#
# Bulk Modulus (GPa) = 29.92547 30.53298 30.22922
# Shear Modulus (GPa) = 24.14930 6.22811 15.18870
#
# Velocity S-wave (km/s) = 3.38038 1.71669 2.68085
# Velocity P-wave (km/s) = 5.42181 4.28683 4.88738
#
# Compressibility (1/GPa) = 0.03341635
#
# Stress axis : x y z
#
# Youngs Moduli (GPa) = 40.25724 45.72595 87.85355
#
# Poissons Ratio (x) = 0.44192 0.16688
# Poissons Ratio (y) = 0.38907 0.06799
# Poissons Ratio (z) = 0.07647 0.03539
#
# Static dielectric constant tensor:
#      x y z
#    x 1.801470 0.000000 0.000000 
#    y 0.000000 1.862780 0.000000 
#    z 0.000000 0.000000 1.820210 
# 
# From -- ./inp_files/9049.got.cif
#   From: 2010.05.17/outbox.cif.g08.bks.cpg/sg41_5_cif.got.tgz:9049.got - 2010.06.03 18:54:24.
