data_PCOD9367012
_publ_section_title
;
Structure prediction by ZEFSAII (Michael W. Deem and Ramdas Pophale) SiO2 
 PCOD9367012
Probable space group: A B A 2
;
_chemical_formula_sum "Si O2"
_cell_formula_units_Z 32
_cell_length_a 12.290205
_cell_length_b 22.141615
_cell_length_c 5.002514
_cell_angle_alpha 90.000000
_cell_angle_beta 90.000000
_cell_angle_gamma 90.000000
_cell_volume 1361.309059
_symmetry_space_group_name_H-M "A B A 2"
_symmetry_group_IT_number 41
_symmetry_cell_setting 'orthorhombic'
loop_
_space_group_symop_operation_xyz
x,y,z
-x,-y,z
1/2-x,y,1/2+z
1/2+x,-y,1/2+z
x,1/2+y,1/2+z
-x,1/2-y,1/2+z
1/2-x,1/2+y,z
1/2+x,1/2-y,z
loop_
_atom_site_type_symbol
_atom_site_label
_atom_site_fract_x
_atom_site_fract_y
_atom_site_fract_z
Si Si1 0.181656 0.330542 0.411560
Si Si2 0.175393 0.509344 0.849420
Si Si3 0.485408 0.898832 0.767767
Si Si4 0.049864 0.224152 0.531958
O O1 0.278410 0.344930 0.617299
O O2 0.075925 0.366172 0.519054
O O3 0.157400 0.258923 0.435622
O O4 0.276712 0.512334 0.647013
O O5 0.105034 0.448052 0.847886
O O6 0.093822 0.561153 0.744125
O O7 0.525544 0.844598 0.960956
O O8 0.037377 0.240920 0.841429
#
# Coordination Sequence:
#
# PCOD9367012 Si02
#       4
#     8   8   8   8
#     4  11  22  38  64  97 131 169 212 260 323 398
#     4  11  26  44  67  97 129 175 228 277 331 395
#     4  10  24  44  68  95 136 175 219 279 336 395
#     4  10  22  39  61  92 128 170 215 266 328 391
#
# _framework density 23.506786000000002
#
# number of rings (size 3 to 8) (size 9 to 14) (size 15 to 20)
#    0.000    1.500    0.000    4.500    0.000   16.000 
#    0.000    0.000    0.000    0.000    0.000    0.000 
#    0.000    0.000    0.000    0.000    0.000    0.000 
#
# Total GULP energy -89290.365486 kJ/mol
# GULP energy per Si atom -5580.647843 kJ/mol
# Density = 2.345328 g / cm^3
# Si number density = 23.506786 Si / 1000 Ang^3
#
#
#
# Elastic Constant Matrix: (Units=GPa)
#
#
# Indices 1 2 3 4 5 6 
#
# 1 81.6122 65.2501 13.5828 0.0000 0.0000 0.0000
# 2 65.2501 158.4957 25.6846 0.0000 0.0000 0.0000
# 3 13.5828 25.6846 72.8505 0.0000 0.0000 0.0000
# 4 0.0000 0.0000 0.0000 24.0262 0.0000 0.0000
# 5 0.0000 0.0000 0.0000 0.0000 30.4479 0.0000
# 6 0.0000 0.0000 0.0000 0.0000 0.0000 58.6220
#
#
#
# Elastic Compliance Matrix: (Units=1/GPa)
#
#
# Indices 1 2 3 4 5 6 
#
# 1 0.018309 -0.007408 -0.000802 0.000000 0.000000 0.000000
# 2 -0.007408 0.009689 -0.002035 0.000000 0.000000 0.000000
# 3 -0.000802 -0.002035 0.014594 0.000000 0.000000 0.000000
# 4 0.000000 0.000000 0.000000 0.041621 0.000000 0.000000
# 5 0.000000 0.000000 0.000000 0.000000 0.032843 0.000000
# 6 0.000000 0.000000 0.000000 0.000000 0.000000 0.017058
#
#
# Mechanical properties :
#
#
# Convention : Reuss Voigt Hill
#
# Bulk Modulus (GPa) = 45.24350 57.99928 51.62139
# Shear Modulus (GPa) = 30.86990 36.51528 33.69259
#
# Velocity S-wave (km/s) = 3.62779 3.94559 3.79002
# Velocity P-wave (km/s) = 6.06931 6.74417 6.41562
#
# Compressibility (1/GPa) = 0.02210262
#
# Stress axis : x y z
#
# Youngs Moduli (GPa) = 54.61801 103.21387 68.52289
#
# Poissons Ratio (x) = 0.76456 0.05496
# Poissons Ratio (y) = 0.40458 0.13943
# Poissons Ratio (z) = 0.04380 0.21002
#
# Static dielectric constant tensor:
#      x y z
#    x 1.911320 0.000000 0.000000 
#    y 0.000000 1.936130 0.000000 
#    z 0.000000 0.000000 1.865880 
# 
# From -- ./inp_files/84.got.cif
#   From: 2010.05.17/outbox.cif.g08.bks.cpg/sg41_1_cif.got.tgz:84.got - 2010.06.03 18:54:24.
