data_PCOD9367880
_publ_section_title
;
Structure prediction by ZEFSAII (Michael W. Deem and Ramdas Pophale) SiO2 
 PCOD9367880
Probable space group: A B A 2
;
_chemical_formula_sum "Si O2"
_cell_formula_units_Z 52
_cell_length_a 9.241065
_cell_length_b 10.849735
_cell_length_c 25.061904
_cell_angle_alpha 90.000000
_cell_angle_beta 90.000000
_cell_angle_gamma 90.000000
_cell_volume 2512.784347
_symmetry_space_group_name_H-M "A B A 2"
_symmetry_group_IT_number 41
_symmetry_cell_setting 'orthorhombic'
loop_
_space_group_symop_operation_xyz
x,y,z
-x,-y,z
1/2-x,y,1/2+z
1/2+x,-y,1/2+z
x,1/2+y,1/2+z
-x,1/2-y,1/2+z
1/2-x,1/2+y,z
1/2+x,1/2-y,z
loop_
_atom_site_type_symbol
_atom_site_label
_atom_site_fract_x
_atom_site_fract_y
_atom_site_fract_z
Si Si1 0.518813 0.362731 0.078740
Si Si2 0.923686 0.871242 0.871368
Si Si3 0.417065 0.128218 0.702928
Si Si4 0.858599 0.292681 0.933097
Si Si5 0.913757 0.872499 0.743791
Si Si6 0.500000 0.000000 0.006878
Si Si7 0.768919 0.676672 0.032410
O O1 0.500000 0.500000 0.057953
O O2 0.575563 0.364693 0.138656
O O3 0.358054 0.308627 0.075041
O O4 0.623000 0.289043 0.040419
O O5 0.774096 0.854259 0.902363
O O6 0.902390 0.866031 0.807947
O O7 0.030716 0.764833 0.891369
O O8 0.000000 0.000000 0.884442
O O9 0.249753 0.125296 0.721024
O O10 0.499176 0.250535 0.724499
O O11 0.500000 0.000000 0.718327
O O12 0.939451 0.391451 0.970008
O O13 0.798700 0.188067 0.973648
O O14 0.000000 0.000000 0.730154
O O15 0.366141 0.944525 0.039776
#
# Coordination Sequence:
#
# PCOD9367880 Si02
#       7
#     8   8   8   8   8   4   8
#     4  11  25  43  67  96 132 172 221 270 333 393
#     4  11  25  43  66  97 133 177 220 271 329 394
#     4  11  24  46  71 100 136 176 225 285 344 404
#     4  12  23  43  64  96 134 177 220 268 324 390
#     4  11  24  46  71 102 136 176 227 282 343 404
#     4  12  24  40  66  96 132 176 220 270 324 382
#     4  12  23  43  66  97 133 176 218 268 325 390
#
# _framework density 20.694174
#
# number of rings (size 3 to 8) (size 9 to 14) (size 15 to 20)
#    0.000    0.615    3.077    4.615    0.000    3.692 
#    4.154    0.000    0.000    0.000    0.000    0.000 
#    0.000    0.000    0.000    0.000    0.000    0.000 
#
# Total GULP energy -145428.478310 kJ/mol
# GULP energy per Si atom -5593.403012 kJ/mol
# Density = 2.064707 g / cm^3
# Si number density = 20.694174 Si / 1000 Ang^3
#
#
#
# Elastic Constant Matrix: (Units=GPa)
#
#
# Indices 1 2 3 4 5 6 
#
# 1 175.1478 51.7527 50.8794 0.0000 0.0000 0.0000
# 2 51.7527 99.9536 23.9602 0.0000 0.0000 0.0000
# 3 50.8794 23.9602 68.1411 0.0000 0.0000 0.0000
# 4 0.0000 0.0000 0.0000 30.6358 0.0000 0.0000
# 5 0.0000 0.0000 0.0000 0.0000 163.2029 0.0000
# 6 0.0000 0.0000 0.0000 0.0000 0.0000 40.1192
#
#
#
# Elastic Compliance Matrix: (Units=1/GPa)
#
#
# Indices 1 2 3 4 5 6 
#
# 1 0.008024 -0.002968 -0.004947 0.000000 0.000000 0.000000
# 2 -0.002968 0.012024 -0.002011 0.000000 0.000000 0.000000
# 3 -0.004947 -0.002011 0.019077 0.000000 0.000000 0.000000
# 4 0.000000 0.000000 0.000000 0.032642 0.000000 0.000000
# 5 0.000000 0.000000 0.000000 0.000000 0.006127 0.000000
# 6 0.000000 0.000000 0.000000 0.000000 0.000000 0.024926
#
#
# Mechanical properties :
#
#
# Convention : Reuss Voigt Hill
#
# Bulk Modulus (GPa) = 51.89451 66.26965 59.08208
# Shear Modulus (GPa) = 38.73067 61.23493 49.98280
#
# Velocity S-wave (km/s) = 4.33086 5.44561 4.91991
# Velocity P-wave (km/s) = 7.08095 8.46359 7.80295
#
# Compressibility (1/GPa) = 0.01926986
#
# Stress axis : x y z
#
# Youngs Moduli (GPa) = 124.62958 83.16849 52.41979
#
# Poissons Ratio (x) = 0.24689 0.25934
# Poissons Ratio (y) = 0.36996 0.10544
# Poissons Ratio (z) = 0.61659 0.16728
#
# Static dielectric constant tensor:
#      x y z
#    x 1.591030 0.000000 0.000000 
#    y 0.000000 1.769480 0.000000 
#    z 0.000000 0.000000 1.700800 
# 
# From -- ./inp_files/12441.got.cif
#   From: 2010.05.17/outbox.cif.g08.bks.cpg/sg41_7_cif.got.tgz:12441.got - 2010.06.03 18:54:24.
