data_PCOD9367343
_publ_section_title
;
Structure prediction by ZEFSAII (Michael W. Deem and Ramdas Pophale) SiO2 
 PCOD9367343
Probable space group: A B A 2
;
_chemical_formula_sum "Si O2"
_cell_formula_units_Z 36
_cell_length_a 14.122890
_cell_length_b 17.954782
_cell_length_c 4.972908
_cell_angle_alpha 90.000000
_cell_angle_beta 90.000000
_cell_angle_gamma 90.000000
_cell_volume 1260.997245
_symmetry_space_group_name_H-M "A B A 2"
_symmetry_group_IT_number 41
_symmetry_cell_setting 'orthorhombic'
loop_
_space_group_symop_operation_xyz
x,y,z
-x,-y,z
1/2-x,y,1/2+z
1/2+x,-y,1/2+z
x,1/2+y,1/2+z
-x,1/2-y,1/2+z
1/2-x,1/2+y,z
1/2+x,1/2-y,z
loop_
_atom_site_type_symbol
_atom_site_label
_atom_site_fract_x
_atom_site_fract_y
_atom_site_fract_z
Si Si1 0.700972 0.259090 0.389910
Si Si2 0.810045 0.457555 0.043853
Si Si3 0.000000 0.000000 0.225083
Si Si4 0.513685 0.300297 0.493454
Si Si5 0.875920 0.600030 0.312603
O O1 0.791815 0.268045 0.573393
O O2 0.625023 0.316103 0.508697
O O3 0.671784 0.173150 0.439598
O O4 0.732081 0.428934 0.829470
O O5 0.914997 0.462900 0.903135
O O6 0.807578 0.545283 0.147643
O O7 0.058820 0.945078 0.024365
O O8 0.499730 0.268846 0.197311
O O9 0.445587 0.363513 0.592253
#
# Coordination Sequence:
#
# PCOD9367343 Si02
#       5
#     8   8   4   8   8
#     4  11  23  41  71 106 134 178 244 305 356 443
#     4  12  26  46  73 108 145 196 259 308 366 448
#     4  12  28  48  70 116 156 198 256 316 378 442
#     4  10  23  42  67 102 139 180 230 299 377 426
#     4  11  25  46  73 105 149 197 245 309 374 450
#
# _framework density 28.548833999999999
#
# number of rings (size 3 to 8) (size 9 to 14) (size 15 to 20)
#    0.000    0.889    2.222    4.667    9.333    0.000 
#    0.000    2.222    0.000    0.000    0.000    0.000 
#    0.000    0.000    0.000    0.000    0.000    0.000 
#
# Total GULP energy -100692.984534 kJ/mol
# GULP energy per Si atom -5594.054696 kJ/mol
# Density = 2.848386 g / cm^3
# Si number density = 28.548834 Si / 1000 Ang^3
#
#
#
# Elastic Constant Matrix: (Units=GPa)
#
#
# Indices 1 2 3 4 5 6 
#
# 1 94.3411 23.6457 67.8504 0.0000 0.0000 0.0000
# 2 23.6457 108.1019 38.4866 0.0000 0.0000 0.0000
# 3 67.8504 38.4866 146.6534 0.0000 0.0000 0.0000
# 4 0.0000 0.0000 0.0000 54.9900 0.0000 0.0000
# 5 0.0000 0.0000 0.0000 0.0000 75.5190 0.0000
# 6 0.0000 0.0000 0.0000 0.0000 0.0000 69.6010
#
#
#
# Elastic Compliance Matrix: (Units=1/GPa)
#
#
# Indices 1 2 3 4 5 6 
#
# 1 0.015974 -0.000952 -0.007141 0.000000 0.000000 0.000000
# 2 -0.000952 0.010261 -0.002252 0.000000 0.000000 0.000000
# 3 -0.007141 -0.002252 0.010714 0.000000 0.000000 0.000000
# 4 0.000000 0.000000 0.000000 0.018185 0.000000 0.000000
# 5 0.000000 0.000000 0.000000 0.000000 0.013242 0.000000
# 6 0.000000 0.000000 0.000000 0.000000 0.000000 0.014368
#
#
# Mechanical properties :
#
#
# Convention : Reuss Voigt Hill
#
# Bulk Modulus (GPa) = 61.50651 67.67353 64.59002
# Shear Modulus (GPa) = 45.93394 54.62958 50.28176
#
# Velocity S-wave (km/s) = 4.01554 4.37916 4.20128
# Velocity P-wave (km/s) = 6.56433 7.02320 6.79764
#
# Compressibility (1/GPa) = 0.01625844
#
# Stress axis : x y z
#
# Youngs Moduli (GPa) = 62.60157 97.46006 93.33931
#
# Poissons Ratio (x) = 0.09277 0.66651
# Poissons Ratio (y) = 0.05959 0.21023
# Poissons Ratio (z) = 0.44702 0.21951
#
# Static dielectric constant tensor:
#      x y z
#    x 2.294200 0.000000 0.000000 
#    y 0.000000 2.379080 0.000000 
#    z 0.000000 0.000000 2.080060 
# 
# From -- ./inp_files/232.got.cif
#   From: 2010.05.17/outbox.cif.g08.bks.cpg/sg41_1_cif.got.tgz:232.got - 2010.06.03 18:54:24.
