data_PCOD9367566
_publ_section_title
;
Structure prediction by ZEFSAII (Michael W. Deem and Ramdas Pophale) SiO2 
 PCOD9367566
Probable space group: A B A 2
;
_chemical_formula_sum "Si O2"
_cell_formula_units_Z 56
_cell_length_a 8.570340
_cell_length_b 21.092376
_cell_length_c 14.848172
_cell_angle_alpha 90.000000
_cell_angle_beta 90.000000
_cell_angle_gamma 90.000000
_cell_volume 2684.086735
_symmetry_space_group_name_H-M "A B A 2"
_symmetry_group_IT_number 41
_symmetry_cell_setting 'orthorhombic'
loop_
_space_group_symop_operation_xyz
x,y,z
-x,-y,z
1/2-x,y,1/2+z
1/2+x,-y,1/2+z
x,1/2+y,1/2+z
-x,1/2-y,1/2+z
1/2-x,1/2+y,z
1/2+x,1/2-y,z
loop_
_atom_site_type_symbol
_atom_site_label
_atom_site_fract_x
_atom_site_fract_y
_atom_site_fract_z
Si Si1 0.713274 0.170776 0.235490
Si Si2 0.902397 0.286238 0.143344
Si Si3 0.578466 0.695663 0.926569
Si Si4 0.434680 0.071430 0.920887
Si Si5 0.592404 0.697468 0.478481
Si Si6 0.992571 0.075381 0.219180
Si Si7 0.667029 0.380533 0.040913
O O1 0.813720 0.231805 0.199770
O O2 0.535834 0.174232 0.197356
O O3 0.676604 0.172237 0.340982
O O4 0.823410 0.109944 0.217186
O O5 0.780671 0.331243 0.092159
O O6 0.015110 0.265250 0.062002
O O7 0.725991 0.704364 0.991709
O O8 0.488307 0.760504 0.900571
O O9 0.451770 0.649363 0.968609
O O10 0.544421 0.124804 0.967444
O O11 0.425802 0.093365 0.815500
O O12 0.500000 0.000000 0.923751
O O13 0.277360 0.075013 0.979620
O O14 0.074401 0.091816 0.125315
O O15 0.000000 0.000000 0.222983
#
# Coordination Sequence:
#
# PCOD9367566 Si02
#       7
#     8   8   8   8   8   8   8
#     4  12  24  42  68 103 140 184 233 294 353 424
#     4  11  24  39  68 102 137 179 224 295 350 422
#     4  12  24  39  67 105 135 184 228 294 358 420
#     4  10  24  46  70  98 140 186 236 294 348 421
#     4  11  21  40  63  96 139 176 230 284 352 414
#     4  11  25  48  70  99 140 188 240 291 351 425
#     4  11  26  44  72 103 143 183 239 292 364 426
#
# _framework density 20.863707999999999
#
# number of rings (size 3 to 8) (size 9 to 14) (size 15 to 20)
#    0.000    0.857    1.429    6.857    4.000    3.429 
#    0.000    0.000    0.000    0.000    0.000    0.000 
#    0.000    0.000    0.000    0.000    0.000    0.000 
#
# Total GULP energy -155997.236475 kJ/mol
# GULP energy per Si atom -5571.329874 kJ/mol
# Density = 2.081622 g / cm^3
# Si number density = 20.863708 Si / 1000 Ang^3
#
#
#
# Elastic Constant Matrix: (Units=GPa)
#
#
# Indices 1 2 3 4 5 6 
#
# 1 158.7886 66.0170 59.7886 0.0000 0.0000 0.0000
# 2 66.0170 109.2840 46.9756 0.0000 0.0000 0.0000
# 3 59.7886 46.9756 108.8144 0.0000 0.0000 0.0000
# 4 0.0000 0.0000 0.0000 21.2585 0.0000 0.0000
# 5 0.0000 0.0000 0.0000 0.0000 54.6258 0.0000
# 6 0.0000 0.0000 0.0000 0.0000 0.0000 20.2195
#
#
#
# Elastic Compliance Matrix: (Units=1/GPa)
#
#
# Indices 1 2 3 4 5 6 
#
# 1 0.009279 -0.004191 -0.003289 0.000000 0.000000 0.000000
# 2 -0.004191 0.013129 -0.003365 0.000000 0.000000 0.000000
# 3 -0.003289 -0.003365 0.012450 0.000000 0.000000 0.000000
# 4 0.000000 0.000000 0.000000 0.047040 0.000000 0.000000
# 5 0.000000 0.000000 0.000000 0.000000 0.018306 0.000000
# 6 0.000000 0.000000 0.000000 0.000000 0.000000 0.049457
#
#
# Mechanical properties :
#
#
# Convention : Reuss Voigt Hill
#
# Bulk Modulus (GPa) = 75.94665 80.27216 78.10941
# Shear Modulus (GPa) = 28.45125 32.82783 30.63954
#
# Velocity S-wave (km/s) = 3.69680 3.97097 3.83633
# Velocity P-wave (km/s) = 7.39609 7.71899 7.55926
#
# Compressibility (1/GPa) = 0.01316714
#
# Stress axis : x y z
#
# Youngs Moduli (GPa) = 107.77516 76.16856 80.32430
#
# Poissons Ratio (x) = 0.31925 0.26416
# Poissons Ratio (y) = 0.45173 0.27027
# Poissons Ratio (z) = 0.35444 0.25629
#
# Static dielectric constant tensor:
#      x y z
#    x 1.851400 0.000000 0.000000 
#    y 0.000000 1.779870 0.000000 
#    z 0.000000 0.000000 2.035090 
# 
# From -- ./inp_files/7489.got.cif
#   From: 2010.05.17/outbox.cif.g08.bks.cpg/sg41_4_cif.got.tgz:7489.got - 2010.06.03 18:54:24.
