data_PCOD9367852
_publ_section_title
;
Structure prediction by ZEFSAII (Michael W. Deem and Ramdas Pophale) SiO2 
 PCOD9367852
Probable space group: A B A 2
;
_chemical_formula_sum "Si O2"
_cell_formula_units_Z 44
_cell_length_a 28.275581
_cell_length_b 5.264583
_cell_length_c 13.480096
_cell_angle_alpha 90.000000
_cell_angle_beta 90.000000
_cell_angle_gamma 90.000000
_cell_volume 2006.635539
_symmetry_space_group_name_H-M "A B A 2"
_symmetry_group_IT_number 41
_symmetry_cell_setting 'orthorhombic'
loop_
_space_group_symop_operation_xyz
x,y,z
-x,-y,z
1/2-x,y,1/2+z
1/2+x,-y,1/2+z
x,1/2+y,1/2+z
-x,1/2-y,1/2+z
1/2-x,1/2+y,z
1/2+x,1/2-y,z
loop_
_atom_site_type_symbol
_atom_site_label
_atom_site_fract_x
_atom_site_fract_y
_atom_site_fract_z
Si Si1 0.650325 0.002353 0.376460
Si Si2 0.543494 0.172742 0.053776
Si Si3 0.000000 0.000000 0.227391
Si Si4 0.718902 0.554401 0.692084
Si Si5 0.854394 0.498809 0.012563
Si Si6 0.449901 0.618890 0.847085
O O1 0.691219 0.024461 0.295648
O O2 0.651299 0.238596 0.451768
O O3 0.652584 0.737135 0.437284
O O4 0.599698 0.002048 0.319290
O O5 0.551512 0.373346 0.966095
O O6 0.500000 0.000000 0.019210
O O7 0.525511 0.303897 0.153037
O O8 0.592435 0.020232 0.057176
O O9 0.957958 0.108692 0.296313
O O10 0.757630 0.331430 0.686139
O O11 0.682776 0.518610 0.601194
O O12 0.500000 0.500000 0.820164
#
# Coordination Sequence:
#
# PCOD9367852 Si02
#       6
#     8   8   4   8   8   8
#     4  11  27  47  75 106 145 191 239 294 357 430
#     4  11  24  43  67 101 147 189 240 283 346 427
#     4  12  26  38  68 100 144 204 228 292 350 402
#     4  12  28  49  77 110 143 180 245 308 368 432
#     4  11  27  47  75 106 145 191 239 294 357 430
#     4  11  24  43  67 101 147 189 240 283 346 427
#
# _framework density 21.927250999999998
#
# number of rings (size 3 to 8) (size 9 to 14) (size 15 to 20)
#    0.000    0.727    1.818    3.818   10.182    5.818 
#    0.000    0.000    0.000    0.000    0.000    0.000 
#    0.000    0.000    0.000    0.000    0.000    0.000 
#
# Total GULP energy -123041.293448 kJ/mol
# GULP energy per Si atom -5592.786066 kJ/mol
# Density = 2.187734 g / cm^3
# Si number density = 21.927251 Si / 1000 Ang^3
#
#
#
# Elastic Constant Matrix: (Units=GPa)
#
#
# Indices 1 2 3 4 5 6 
#
# 1 84.0585 -8.5353 26.2121 0.0000 0.0000 0.0000
# 2 -8.5353 68.5479 13.0886 0.0000 0.0000 0.0000
# 3 26.2121 13.0886 98.5125 0.0000 0.0000 0.0000
# 4 0.0000 0.0000 0.0000 24.4781 0.0000 0.0000
# 5 0.0000 0.0000 0.0000 0.0000 26.8643 0.0000
# 6 0.0000 0.0000 0.0000 0.0000 0.0000 37.2719
#
#
#
# Elastic Compliance Matrix: (Units=1/GPa)
#
#
# Indices 1 2 3 4 5 6 
#
# 1 0.013347 0.002401 -0.003870 0.000000 0.000000 0.000000
# 2 0.002401 0.015400 -0.002685 0.000000 0.000000 0.000000
# 3 -0.003870 -0.002685 0.011538 0.000000 0.000000 0.000000
# 4 0.000000 0.000000 0.000000 0.040853 0.000000 0.000000
# 5 0.000000 0.000000 0.000000 0.000000 0.037224 0.000000
# 6 0.000000 0.000000 0.000000 0.000000 0.000000 0.026830
#
#
# Mechanical properties :
#
#
# Convention : Reuss Voigt Hill
#
# Bulk Modulus (GPa) = 31.27348 34.73885 33.00616
# Shear Modulus (GPa) = 30.45829 32.41309 31.43569
#
# Velocity S-wave (km/s) = 3.73105 3.84892 3.79045
# Velocity P-wave (km/s) = 5.73187 5.96904 5.85166
#
# Compressibility (1/GPa) = 0.03197598
#
# Stress axis : x y z
#
# Youngs Moduli (GPa) = 74.92216 64.93521 86.67345
#
# Poissons Ratio (x) = -0.15591 0.33546
# Poissons Ratio (y) = -0.17988 0.23271
# Poissons Ratio (z) = 0.28998 0.17435
#
# Static dielectric constant tensor:
#      x y z
#    x 1.802300 0.000000 0.000000 
#    y 0.000000 1.932630 0.000000 
#    z 0.000000 0.000000 1.764410 
# 
# From -- ./inp_files/9197.got.cif
#   From: 2010.05.17/outbox.cif.g08.bks.cpg/sg41_5_cif.got.tgz:9197.got - 2010.06.03 18:54:24.
