data_PCOD9367432
_publ_section_title
;
Structure prediction by ZEFSAII (Michael W. Deem and Ramdas Pophale) SiO2 
 PCOD9367432
Probable space group: A B A 2
;
_chemical_formula_sum "Si O2"
_cell_formula_units_Z 56
_cell_length_a 5.383319
_cell_length_b 26.604786
_cell_length_c 14.761217
_cell_angle_alpha 90.000000
_cell_angle_beta 90.000000
_cell_angle_gamma 90.000000
_cell_volume 2114.131759
_symmetry_space_group_name_H-M "A B A 2"
_symmetry_group_IT_number 41
_symmetry_cell_setting 'orthorhombic'
loop_
_space_group_symop_operation_xyz
x,y,z
-x,-y,z
1/2-x,y,1/2+z
1/2+x,-y,1/2+z
x,1/2+y,1/2+z
-x,1/2-y,1/2+z
1/2-x,1/2+y,z
1/2+x,1/2-y,z
loop_
_atom_site_type_symbol
_atom_site_label
_atom_site_fract_x
_atom_site_fract_y
_atom_site_fract_z
Si Si1 0.000000 0.500000 0.219990
Si Si2 0.421558 0.865282 0.451808
Si Si3 0.238906 0.220092 0.029978
Si Si4 0.765545 0.588228 0.629578
Si Si5 0.241517 0.045586 0.383643
Si Si6 0.000000 0.000000 0.037207
Si Si7 0.748409 0.279861 0.747058
Si Si8 0.550498 0.134147 0.812953
O O1 0.945681 0.549233 0.160639
O O2 0.787010 0.485040 0.291720
O O3 0.650555 0.831941 0.486478
O O4 0.251753 0.877901 0.540092
O O5 0.533711 0.915533 0.406299
O O6 0.248908 0.839785 0.377358
O O7 0.008150 0.257448 0.006775
O O8 0.243881 0.213090 0.138542
O O9 0.977039 0.548465 0.599937
O O10 0.833505 0.621601 0.715515
O O11 0.017019 0.082615 0.364060
O O12 0.268123 0.008957 0.469515
O O13 0.988166 0.245642 0.769492
O O14 0.808308 0.332749 0.793589
#
# Coordination Sequence:
#
# PCOD9367432 Si02
#       8
#     4   8   8   8   8   4   8   8
#     4  11  22  44  67  96 138 188 245 288 371 420
#     4  11  25  45  66 108 140 176 247 288 361 431
#     4  10  23  46  73 104 146 192 239 299 367 443
#     4  11  23  44  68 100 135 191 226 295 356 434
#     4  10  24  43  66 100 139 183 234 309 339 442
#     4   9  22  44  63  98 142 178 245 278 363 422
#     4  10  24  46  74 106 145 192 242 299 367 446
#     4  12  25  44  72 103 140 187 240 297 367 433
#
# _framework density 26.488417999999999
#
# number of rings (size 3 to 8) (size 9 to 14) (size 15 to 20)
#    0.000    1.429    2.857    0.857    6.000    1.143 
#    2.571    0.000    0.000    0.000    0.000    0.000 
#    0.000    0.000    0.000    0.000    0.000    0.000 
#
# Total GULP energy -156890.444595 kJ/mol
# GULP energy per Si atom -5603.230164 kJ/mol
# Density = 2.642813 g / cm^3
# Si number density = 26.488418 Si / 1000 Ang^3
#
#
#
# Elastic Constant Matrix: (Units=GPa)
#
#
# Indices 1 2 3 4 5 6 
#
# 1 97.7870 24.2140 46.1578 0.0000 0.0000 0.0000
# 2 24.2140 92.1086 42.1604 0.0000 0.0000 0.0000
# 3 46.1578 42.1604 169.7470 0.0000 0.0000 0.0000
# 4 0.0000 0.0000 0.0000 100.6737 0.0000 0.0000
# 5 0.0000 0.0000 0.0000 0.0000 29.8786 0.0000
# 6 0.0000 0.0000 0.0000 0.0000 0.0000 53.6054
#
#
#
# Elastic Compliance Matrix: (Units=1/GPa)
#
#
# Indices 1 2 3 4 5 6 
#
# 1 0.012013 -0.001876 -0.002801 0.000000 0.000000 0.000000
# 2 -0.001876 0.012542 -0.002605 0.000000 0.000000 0.000000
# 3 -0.002801 -0.002605 0.007300 0.000000 0.000000 0.000000
# 4 0.000000 0.000000 0.000000 0.009933 0.000000 0.000000
# 5 0.000000 0.000000 0.000000 0.000000 0.033469 0.000000
# 6 0.000000 0.000000 0.000000 0.000000 0.000000 0.018655
#
#
# Mechanical properties :
#
#
# Convention : Reuss Voigt Hill
#
# Bulk Modulus (GPa) = 57.83209 64.96745 61.39977
# Shear Modulus (GPa) = 43.76800 53.30555 48.53678
#
# Velocity S-wave (km/s) = 4.06931 4.49086 4.28527
# Velocity P-wave (km/s) = 6.63019 7.17429 6.90760
#
# Compressibility (1/GPa) = 0.01729144
#
# Stress axis : x y z
#
# Youngs Moduli (GPa) = 83.24455 79.72994 136.99258
#
# Poissons Ratio (x) = 0.14958 0.38366
# Poissons Ratio (y) = 0.15618 0.35687
# Poissons Ratio (z) = 0.23313 0.20770
#
# Static dielectric constant tensor:
#      x y z
#    x 2.165420 0.000000 0.000000 
#    y 0.000000 2.075590 0.000000 
#    z 0.000000 0.000000 2.027600 
# 
# From -- ./inp_files/6990.got.cif
#   From: 2010.05.17/outbox.cif.g08.bks.cpg/sg41_4_cif.got.tgz:6990.got - 2010.06.03 18:54:24.
