data_PCOD9367031
_publ_section_title
;
Structure prediction by ZEFSAII (Michael W. Deem and Ramdas Pophale) SiO2 
 PCOD9367031
Probable space group: A B A 2
;
_chemical_formula_sum "Si O2"
_cell_formula_units_Z 48
_cell_length_a 10.789741
_cell_length_b 22.714205
_cell_length_c 8.844689
_cell_angle_alpha 90.000000
_cell_angle_beta 90.000000
_cell_angle_gamma 90.000000
_cell_volume 2167.659820
_symmetry_space_group_name_H-M "A B A 2"
_symmetry_group_IT_number 41
_symmetry_cell_setting 'orthorhombic'
loop_
_space_group_symop_operation_xyz
x,y,z
-x,-y,z
1/2-x,y,1/2+z
1/2+x,-y,1/2+z
x,1/2+y,1/2+z
-x,1/2-y,1/2+z
1/2-x,1/2+y,z
1/2+x,1/2-y,z
loop_
_atom_site_type_symbol
_atom_site_label
_atom_site_fract_x
_atom_site_fract_y
_atom_site_fract_z
Si Si1 0.500000 0.000000 0.154500
Si Si2 0.720224 0.155532 0.846385
Si Si3 0.847877 0.435879 0.915032
Si Si4 0.000000 0.000000 0.161696
Si Si5 0.882135 0.215990 0.610605
Si Si6 0.667908 0.536723 0.921895
Si Si7 0.554606 0.816208 0.846151
O O1 0.602525 0.028437 0.261648
O O2 0.442874 0.050482 0.049962
O O3 0.830368 0.167518 0.729112
O O4 0.738993 0.090958 0.916367
O O5 0.578801 0.158517 0.786624
O O6 0.717903 0.207241 0.974418
O O7 0.727315 0.473051 0.955680
O O8 0.847098 0.367547 0.878584
O O9 0.902061 0.469039 0.769483
O O10 0.067408 0.954130 0.051715
O O11 0.896511 0.272217 0.718112
O O12 0.007870 0.207818 0.511323
#
# Coordination Sequence:
#
# PCOD9367031 Si02
#       7
#     4   8   8   4   8   8   8
#     4  10  22  40  60 104 140 178 224 278 344 426
#     4  10  24  42  73  94 131 186 232 286 342 432
#     4  11  22  39  69  94 139 174 216 290 348 403
#     4  10  24  38  64 104 136 170 226 278 336 426
#     4  10  25  42  70  96 128 182 234 289 338 406
#     4  11  23  41  66 103 137 179 228 271 365 411
#     4  10  25  44  65  99 134 176 240 288 342 411
#
# _framework density 22.143694
#
# number of rings (size 3 to 8) (size 9 to 14) (size 15 to 20)
#    1.000    0.667    0.000    4.000    9.333    0.000 
#    6.000    1.667    0.000    0.000    0.000    0.000 
#    0.000    0.000    0.000    0.000    0.000    0.000 
#
# Total GULP energy -133748.383920 kJ/mol
# GULP energy per Si atom -5572.849330 kJ/mol
# Density = 2.209329 g / cm^3
# Si number density = 22.143694 Si / 1000 Ang^3
#
#
#
# Elastic Constant Matrix: (Units=GPa)
#
#
# Indices 1 2 3 4 5 6 
#
# 1 54.8237 27.7428 24.4999 0.0000 0.0000 0.0000
# 2 27.7428 90.1517 39.0305 0.0000 0.0000 0.0000
# 3 24.4999 39.0305 124.8687 0.0000 0.0000 0.0000
# 4 0.0000 0.0000 0.0000 13.5772 0.0000 0.0000
# 5 0.0000 0.0000 0.0000 0.0000 277.5801 0.0000
# 6 0.0000 0.0000 0.0000 0.0000 0.0000 32.0162
#
#
#
# Elastic Compliance Matrix: (Units=1/GPa)
#
#
# Indices 1 2 3 4 5 6 
#
# 1 0.022301 -0.005746 -0.002580 0.000000 0.000000 0.000000
# 2 -0.005746 0.014309 -0.003345 0.000000 0.000000 0.000000
# 3 -0.002580 -0.003345 0.009560 0.000000 0.000000 0.000000
# 4 0.000000 0.000000 0.000000 0.073653 0.000000 0.000000
# 5 0.000000 0.000000 0.000000 0.000000 0.003603 0.000000
# 6 0.000000 0.000000 0.000000 0.000000 0.000000 0.031234
#
#
# Mechanical properties :
#
#
# Convention : Reuss Voigt Hill
#
# Bulk Modulus (GPa) = 43.80484 50.26558 47.03521
# Shear Modulus (GPa) = 26.93822 76.53942 51.73882
#
# Velocity S-wave (km/s) = 3.49165 5.88557 4.83898
# Velocity P-wave (km/s) = 6.00670 8.30274 7.24624
#
# Compressibility (1/GPa) = 0.02282853
#
# Stress axis : x y z
#
# Youngs Moduli (GPa) = 44.84167 69.88655 104.60097
#
# Poissons Ratio (x) = 0.40156 0.26982
# Poissons Ratio (y) = 0.25766 0.34991
# Poissons Ratio (z) = 0.11567 0.23378
#
# Static dielectric constant tensor:
#      x y z
#    x 1.580330 0.000000 0.000000 
#    y 0.000000 1.825380 0.000000 
#    z 0.000000 0.000000 1.815940 
# 
# From -- ./inp_files/2118.got.cif
#   From: 2010.05.17/outbox.cif.g08.bks.cpg/sg41_2_cif.got.tgz:2118.got - 2010.06.03 18:54:24.
