data_PCOD9367555
_publ_section_title
;
Structure prediction by ZEFSAII (Michael W. Deem and Ramdas Pophale) SiO2 
 PCOD9367555
Probable space group: A B A 2
;
_chemical_formula_sum "Si O2"
_cell_formula_units_Z 36
_cell_length_a 5.034043
_cell_length_b 21.436740
_cell_length_c 13.106958
_cell_angle_alpha 90.000000
_cell_angle_beta 90.000000
_cell_angle_gamma 90.000000
_cell_volume 1414.417331
_symmetry_space_group_name_H-M "A B A 2"
_symmetry_group_IT_number 41
_symmetry_cell_setting 'orthorhombic'
loop_
_space_group_symop_operation_xyz
x,y,z
-x,-y,z
1/2-x,y,1/2+z
1/2+x,-y,1/2+z
x,1/2+y,1/2+z
-x,1/2-y,1/2+z
1/2-x,1/2+y,z
1/2+x,1/2-y,z
loop_
_atom_site_type_symbol
_atom_site_label
_atom_site_fract_x
_atom_site_fract_y
_atom_site_fract_z
Si Si1 0.481873 0.705747 0.883450
Si Si2 0.976668 0.204375 0.649539
Si Si3 0.908999 0.608500 0.551420
Si Si4 0.000000 0.500000 0.411203
Si Si5 0.257572 0.042214 0.212524
O O1 0.240477 0.752388 0.896315
O O2 0.504593 0.682647 0.767407
O O3 0.465660 0.653374 0.967298
O O4 0.752751 0.258774 0.634056
O O5 0.848746 0.145274 0.591927
O O6 0.844830 0.545375 0.488636
O O7 0.127465 0.595480 0.640725
O O8 0.848957 0.454064 0.331243
O O9 0.500000 0.000000 0.167894
O O10 0.000000 0.000000 0.221503
#
# Coordination Sequence:
#
# PCOD9367555 Si02
#       5
#     8   8   8   4   8
#     4  10  24  45  71 111 146 190 249 310 380 451
#     4  10  24  46  73 112 153 189 252 318 377 456
#     4  12  24  47  82 104 152 210 252 314 394 475
#     4  10  28  48  72 110 152 198 260 318 386 462
#     4  10  26  50  67 105 152 189 257 318 377 452
#
# _framework density 25.452176999999999
#
# number of rings (size 3 to 8) (size 9 to 14) (size 15 to 20)
#    0.667    0.889    1.111    1.333    3.111    9.778 
#    4.000    0.000    0.000    0.000    0.000    0.000 
#    0.000    0.000    0.000    0.000    0.000    0.000 
#
# Total GULP energy -100547.996974 kJ/mol
# GULP energy per Si atom -5585.999832 kJ/mol
# Density = 2.539425 g / cm^3
# Si number density = 25.452177 Si / 1000 Ang^3
#
#
#
# Elastic Constant Matrix: (Units=GPa)
#
#
# Indices 1 2 3 4 5 6 
#
# 1 143.1743 21.5839 26.0683 0.0000 0.0000 0.0000
# 2 21.5839 121.4149 74.6712 0.0000 0.0000 0.0000
# 3 26.0683 74.6712 192.6671 0.0000 0.0000 0.0000
# 4 0.0000 0.0000 0.0000 117.7482 0.0000 0.0000
# 5 0.0000 0.0000 0.0000 0.0000 48.8599 0.0000
# 6 0.0000 0.0000 0.0000 0.0000 0.0000 27.2996
#
#
#
# Elastic Compliance Matrix: (Units=1/GPa)
#
#
# Indices 1 2 3 4 5 6 
#
# 1 0.007235 -0.000898 -0.000631 0.000000 0.000000 0.000000
# 2 -0.000898 0.010925 -0.004113 0.000000 0.000000 0.000000
# 3 -0.000631 -0.004113 0.006870 0.000000 0.000000 0.000000
# 4 0.000000 0.000000 0.000000 0.008493 0.000000 0.000000
# 5 0.000000 0.000000 0.000000 0.000000 0.020467 0.000000
# 6 0.000000 0.000000 0.000000 0.000000 0.000000 0.036631
#
#
# Mechanical properties :
#
#
# Convention : Reuss Voigt Hill
#
# Bulk Modulus (GPa) = 72.74726 77.98923 75.36825
# Shear Modulus (GPa) = 46.95497 61.11041 54.03269
#
# Velocity S-wave (km/s) = 4.29981 4.90531 4.61250
# Velocity P-wave (km/s) = 7.30035 7.92406 7.61859
#
# Compressibility (1/GPa) = 0.01374622
#
# Stress axis : x y z
#
# Youngs Moduli (GPa) = 138.22186 91.53106 145.56900
#
# Poissons Ratio (x) = 0.08221 0.09182
# Poissons Ratio (y) = 0.12415 0.59869
# Poissons Ratio (z) = 0.08719 0.37644
#
# Static dielectric constant tensor:
#      x y z
#    x 1.932770 0.000000 0.000000 
#    y 0.000000 1.940760 0.000000 
#    z 0.000000 0.000000 2.060270 
# 
# From -- ./inp_files/6783.got.cif
#   From: 2010.05.17/outbox.cif.g08.bks.cpg/sg41_4_cif.got.tgz:6783.got - 2010.06.03 18:54:24.
