data_PCOD9367892
_publ_section_title
;
Structure prediction by ZEFSAII (Michael W. Deem and Ramdas Pophale) SiO2 
 PCOD9367892
Probable space group: A B A 2
;
_chemical_formula_sum "Si O2"
_cell_formula_units_Z 48
_cell_length_a 11.339185
_cell_length_b 14.014810
_cell_length_c 14.103829
_cell_angle_alpha 90.000000
_cell_angle_beta 90.000000
_cell_angle_gamma 90.000000
_cell_volume 2241.331470
_symmetry_space_group_name_H-M "A B A 2"
_symmetry_group_IT_number 41
_symmetry_cell_setting 'orthorhombic'
loop_
_space_group_symop_operation_xyz
x,y,z
-x,-y,z
1/2-x,y,1/2+z
1/2+x,-y,1/2+z
x,1/2+y,1/2+z
-x,1/2-y,1/2+z
1/2-x,1/2+y,z
1/2+x,1/2-y,z
loop_
_atom_site_type_symbol
_atom_site_label
_atom_site_fract_x
_atom_site_fract_y
_atom_site_fract_z
Si Si1 0.705717 0.629218 0.126880
Si Si2 0.000000 0.000000 0.049097
Si Si3 0.352019 0.659912 0.581127
Si Si4 0.092807 0.349464 0.975225
Si Si5 0.245279 0.533526 0.743673
Si Si6 0.340029 0.639518 0.925232
Si Si7 0.500000 0.500000 0.325401
O O1 0.589951 0.567189 0.105659
O O2 0.672501 0.739678 0.132828
O O3 0.791594 0.623902 0.035752
O O4 0.759553 0.579573 0.220856
O O5 0.076563 0.071515 0.986146
O O6 0.487656 0.650412 0.552602
O O7 0.294729 0.580915 0.648208
O O8 0.282008 0.653617 0.482133
O O9 0.105055 0.245548 0.926809
O O10 0.064112 0.425088 0.894309
O O11 0.315183 0.584619 0.827955
O O12 0.106594 0.548743 0.767228
#
# Coordination Sequence:
#
# PCOD9367892 Si02
#       7
#     8   4   8   8   8   8   4
#     4  11  25  43  76 102 142 194 239 300 373 434
#     4  12  21  48  69 104 140 194 235 298 371 452
#     4  11  24  48  71 104 148 192 243 302 374 451
#     4  11  24  49  75 100 152 201 240 305 379 447
#     4  12  26  44  72 111 141 187 252 306 370 447
#     4  11  25  45  72 105 146 190 244 305 367 445
#     4  12  25  44  75 106 144 190 247 310 373 452
#
# _framework density 21.415842000000001
#
# number of rings (size 3 to 8) (size 9 to 14) (size 15 to 20)
#    0.000    0.667    5.000    2.500    2.333    1.333 
#    3.000    0.000    0.000    0.000    0.000    0.000 
#    0.000    0.000    0.000    0.000    0.000    0.000 
#
# Total GULP energy -134141.975075 kJ/mol
# GULP energy per Si atom -5589.248961 kJ/mol
# Density = 2.136710 g / cm^3
# Si number density = 21.415842 Si / 1000 Ang^3
#
#
#
# Elastic Constant Matrix: (Units=GPa)
#
#
# Indices 1 2 3 4 5 6 
#
# 1 80.3877 16.8972 9.2333 0.0000 0.0000 0.0000
# 2 16.8972 96.2025 17.7758 0.0000 0.0000 0.0000
# 3 9.2333 17.7758 68.0522 0.0000 0.0000 0.0000
# 4 0.0000 0.0000 0.0000 37.5348 0.0000 0.0000
# 5 0.0000 0.0000 0.0000 0.0000 32.0416 0.0000
# 6 0.0000 0.0000 0.0000 0.0000 0.0000 34.8378
#
#
#
# Elastic Compliance Matrix: (Units=1/GPa)
#
#
# Indices 1 2 3 4 5 6 
#
# 1 0.013014 -0.002059 -0.001228 0.000000 0.000000 0.000000
# 2 -0.002059 0.011248 -0.002659 0.000000 0.000000 0.000000
# 3 -0.001228 -0.002659 0.015556 0.000000 0.000000 0.000000
# 4 0.000000 0.000000 0.000000 0.026642 0.000000 0.000000
# 5 0.000000 0.000000 0.000000 0.000000 0.031209 0.000000
# 6 0.000000 0.000000 0.000000 0.000000 0.000000 0.028704
#
#
# Mechanical properties :
#
#
# Convention : Reuss Voigt Hill
#
# Bulk Modulus (GPa) = 35.80883 36.93945 36.37414
# Shear Modulus (GPa) = 33.88176 34.26524 34.07350
#
# Velocity S-wave (km/s) = 3.98186 4.00433 3.99311
# Velocity P-wave (km/s) = 6.15608 6.21817 6.18720
#
# Compressibility (1/GPa) = 0.02792607
#
# Stress axis : x y z
#
# Youngs Moduli (GPa) = 76.84317 88.90780 64.28529
#
# Poissons Ratio (x) = 0.18305 0.07894
# Poissons Ratio (y) = 0.15821 0.17091
# Poissons Ratio (z) = 0.09436 0.23637
#
# Static dielectric constant tensor:
#      x y z
#    x 1.792190 0.000000 0.000000 
#    y 0.000000 1.787000 0.000000 
#    z 0.000000 0.000000 1.788400 
# 
# From -- ./inp_files/7924.got.cif
#   From: 2010.05.17/outbox.cif.g08.bks.cpg/sg41_4_cif.got.tgz:7924.got - 2010.06.03 18:54:24.
