data_PCOD9367325
_publ_section_title
;
Structure prediction by ZEFSAII (Michael W. Deem and Ramdas Pophale) SiO2 
 PCOD9367325
Probable space group: A B A 2
;
_chemical_formula_sum "Si O2"
_cell_formula_units_Z 60
_cell_length_a 7.749508
_cell_length_b 28.791199
_cell_length_c 12.284919
_cell_angle_alpha 90.000000
_cell_angle_beta 90.000000
_cell_angle_gamma 90.000000
_cell_volume 2740.981975
_symmetry_space_group_name_H-M "A B A 2"
_symmetry_group_IT_number 41
_symmetry_cell_setting 'orthorhombic'
loop_
_space_group_symop_operation_xyz
x,y,z
-x,-y,z
1/2-x,y,1/2+z
1/2+x,-y,1/2+z
x,1/2+y,1/2+z
-x,1/2-y,1/2+z
1/2-x,1/2+y,z
1/2+x,1/2-y,z
loop_
_atom_site_type_symbol
_atom_site_label
_atom_site_fract_x
_atom_site_fract_y
_atom_site_fract_z
Si Si1 0.606833 0.297096 0.977910
Si Si2 0.021640 0.812218 0.213392
Si Si3 0.135995 0.603158 0.421494
Si Si4 0.215440 0.943876 0.911489
Si Si5 0.204165 0.523946 0.592704
Si Si6 0.953024 0.916540 0.274742
Si Si7 0.500000 0.000000 0.234822
Si Si8 0.818099 0.237725 0.840908
O O1 0.689358 0.347737 0.971467
O O2 0.732277 0.254300 0.954212
O O3 0.481324 0.292474 0.874276
O O4 0.509166 0.295986 0.091064
O O5 0.015371 0.867751 0.223366
O O6 0.874924 0.785455 0.283010
O O7 0.194939 0.791935 0.265207
O O8 0.184678 0.561159 0.499023
O O9 0.260944 0.594374 0.319629
O O10 0.926641 0.597899 0.414480
O O11 0.407197 0.930224 0.869139
O O12 0.134058 0.974618 0.813874
O O13 0.205959 0.974886 0.023304
O O14 0.069351 0.543046 0.684815
O O15 0.385296 0.529510 0.653106
#
# Coordination Sequence:
#
# PCOD9367325 Si02
#       8
#     8   8   8   8   8   8   4   8
#     4  11  22  41  70  99 141 178 228 285 341 422
#     4  11  22  43  69 104 137 188 225 281 359 415
#     4  12  24  47  67 104 142 177 236 296 345 415
#     4  12  27  46  68 102 140 179 241 293 350 421
#     4  12  25  47  69  97 139 185 231 293 353 418
#     4  12  26  46  75 101 142 187 238 293 357 420
#     4  12  26  42  70  98 128 186 236 282 354 414
#     4  10  23  41  69 102 143 179 228 280 348 426
#
# _framework density 21.889966000000001
#
# number of rings (size 3 to 8) (size 9 to 14) (size 15 to 20)
#    0.000    0.533    5.333    2.400    3.733    1.067 
#    0.000    0.000    0.000    0.000    0.000    0.000 
#    0.000    0.000    0.000    0.000    0.000    0.000 
#
# Total GULP energy -167290.603512 kJ/mol
# GULP energy per Si atom -5576.353450 kJ/mol
# Density = 2.184014 g / cm^3
# Si number density = 21.889966 Si / 1000 Ang^3
#
#
#
# Elastic Constant Matrix: (Units=GPa)
#
#
# Indices 1 2 3 4 5 6 
#
# 1 83.7020 11.9150 22.6619 0.0000 0.0000 0.0000
# 2 11.9150 62.5552 3.8035 0.0000 0.0000 0.0000
# 3 22.6619 3.8035 71.7550 0.0000 0.0000 0.0000
# 4 0.0000 0.0000 0.0000 20.7406 0.0000 0.0000
# 5 0.0000 0.0000 0.0000 0.0000 13.4150 0.0000
# 6 0.0000 0.0000 0.0000 0.0000 0.0000 21.4400
#
#
#
# Elastic Compliance Matrix: (Units=1/GPa)
#
#
# Indices 1 2 3 4 5 6 
#
# 1 0.013386 -0.002300 -0.004106 0.000000 0.000000 0.000000
# 2 -0.002300 0.016433 -0.000145 0.000000 0.000000 0.000000
# 3 -0.004106 -0.000145 0.015241 0.000000 0.000000 0.000000
# 4 0.000000 0.000000 0.000000 0.048215 0.000000 0.000000
# 5 0.000000 0.000000 0.000000 0.000000 0.074543 0.000000
# 6 0.000000 0.000000 0.000000 0.000000 0.000000 0.046642
#
#
# Mechanical properties :
#
#
# Convention : Reuss Voigt Hill
#
# Bulk Modulus (GPa) = 31.29036 32.75257 32.02146
# Shear Modulus (GPa) = 20.98960 23.09458 22.04209
#
# Velocity S-wave (km/s) = 3.09992 3.25165 3.17669
# Velocity P-wave (km/s) = 5.20942 5.39374 5.30238
#
# Compressibility (1/GPa) = 0.03195873
#
# Stress axis : x y z
#
# Youngs Moduli (GPa) = 74.70394 60.85405 65.61392
#
# Poissons Ratio (x) = 0.13997 0.26939
# Poissons Ratio (y) = 0.17182 0.00949
# Poissons Ratio (z) = 0.30672 0.00880
#
# Static dielectric constant tensor:
#      x y z
#    x 1.898280 0.000000 0.000000 
#    y 0.000000 1.804330 0.000000 
#    z 0.000000 0.000000 1.790910 
# 
# From -- ./inp_files/4604.got.cif
#   From: 2010.05.17/outbox.cif.g08.bks.cpg/sg41_3_cif.got.tgz:4604.got - 2010.06.03 18:54:24.
