data_PCOD9367912
_publ_section_title
;
Structure prediction by ZEFSAII (Michael W. Deem and Ramdas Pophale) SiO2 
 PCOD9367912
Probable space group: A B A 2
;
_chemical_formula_sum "Si O2"
_cell_formula_units_Z 44
_cell_length_a 9.046533
_cell_length_b 18.228656
_cell_length_c 11.810047
_cell_angle_alpha 90.000000
_cell_angle_beta 90.000000
_cell_angle_gamma 90.000000
_cell_volume 1947.549241
_symmetry_space_group_name_H-M "A B A 2"
_symmetry_group_IT_number 41
_symmetry_cell_setting 'orthorhombic'
loop_
_space_group_symop_operation_xyz
x,y,z
-x,-y,z
1/2-x,y,1/2+z
1/2+x,-y,1/2+z
x,1/2+y,1/2+z
-x,1/2-y,1/2+z
1/2-x,1/2+y,z
1/2+x,1/2-y,z
loop_
_atom_site_type_symbol
_atom_site_label
_atom_site_fract_x
_atom_site_fract_y
_atom_site_fract_z
Si Si1 0.877349 0.840354 0.660630
Si Si2 0.500000 0.000000 0.549348
Si Si3 0.377215 0.255092 0.775984
Si Si4 0.036405 0.621919 0.919928
Si Si5 0.775720 0.972041 0.247212
Si Si6 0.792522 0.600952 0.399656
O O1 0.752374 0.787955 0.712667
O O2 0.868033 0.856780 0.528541
O O3 0.859598 0.916975 0.727163
O O4 0.028703 0.799460 0.685247
O O5 0.374158 0.029858 0.634147
O O6 0.581513 0.061424 0.473766
O O7 0.472534 0.192726 0.838686
O O8 0.328966 0.315817 0.867422
O O9 0.123095 0.561267 0.847411
O O10 0.871235 0.598820 0.954886
O O11 0.728433 0.052444 0.285676
#
# Coordination Sequence:
#
# PCOD9367912 Si02
#       6
#     8   4   8   8   8   8
#     4  11  26  44  74 103 143 195 240 301 379 436
#     4  12  26  44  78 104 148 198 246 308 386 434
#     4  11  26  46  70 108 144 188 247 303 361 455
#     4  11  25  46  72 103 148 189 241 306 369 445
#     4  11  25  48  68 107 147 183 253 309 357 446
#     4  12  25  47  74 105 146 196 242 306 370 441
#
# _framework density 22.592497999999999
#
# number of rings (size 3 to 8) (size 9 to 14) (size 15 to 20)
#    0.000    0.727    3.636    2.182    5.091    4.364 
#    0.000    0.000    0.000    0.000    0.000    0.000 
#    0.000    0.000    0.000    0.000    0.000    0.000 
#
# Total GULP energy -123113.968271 kJ/mol
# GULP energy per Si atom -5596.089467 kJ/mol
# Density = 2.254108 g / cm^3
# Si number density = 22.592498 Si / 1000 Ang^3
#
#
#
# Elastic Constant Matrix: (Units=GPa)
#
#
# Indices 1 2 3 4 5 6 
#
# 1 50.9178 20.6780 24.9310 0.0000 0.0000 0.0000
# 2 20.6780 98.8054 15.5082 0.0000 0.0000 0.0000
# 3 24.9310 15.5082 95.1666 0.0000 0.0000 0.0000
# 4 0.0000 0.0000 0.0000 35.5550 0.0000 0.0000
# 5 0.0000 0.0000 0.0000 0.0000 26.8209 0.0000
# 6 0.0000 0.0000 0.0000 0.0000 0.0000 33.1355
#
#
#
# Elastic Compliance Matrix: (Units=1/GPa)
#
#
# Indices 1 2 3 4 5 6 
#
# 1 0.024085 -0.004157 -0.005632 0.000000 0.000000 0.000000
# 2 -0.004157 0.011104 -0.000721 0.000000 0.000000 0.000000
# 3 -0.005632 -0.000721 0.012101 0.000000 0.000000 0.000000
# 4 0.000000 0.000000 0.000000 0.028125 0.000000 0.000000
# 5 0.000000 0.000000 0.000000 0.000000 0.037284 0.000000
# 6 0.000000 0.000000 0.000000 0.000000 0.000000 0.030179
#
#
# Mechanical properties :
#
#
# Convention : Reuss Voigt Hill
#
# Bulk Modulus (GPa) = 38.06462 40.79156 39.42809
# Shear Modulus (GPa) = 28.95952 31.35378 30.15665
#
# Velocity S-wave (km/s) = 3.58414 3.72936 3.65747
# Velocity P-wave (km/s) = 5.83206 6.05299 5.94355
#
# Compressibility (1/GPa) = 0.02627112
#
# Stress axis : x y z
#
# Youngs Moduli (GPa) = 41.51916 90.05865 82.63897
#
# Poissons Ratio (x) = 0.37433 0.46545
# Poissons Ratio (y) = 0.17258 0.05955
# Poissons Ratio (z) = 0.23385 0.06489
#
# Static dielectric constant tensor:
#      x y z
#    x 1.866470 0.000000 0.000000 
#    y 0.000000 1.825200 0.000000 
#    z 0.000000 0.000000 1.811450 
# 
# From -- ./inp_files/7281.got.cif
#   From: 2010.05.17/outbox.cif.g08.bks.cpg/sg41_4_cif.got.tgz:7281.got - 2010.06.03 18:54:24.
