data_PCOD9367098
_publ_section_title
;
Structure prediction by ZEFSAII (Michael W. Deem and Ramdas Pophale) SiO2 
 PCOD9367098
Probable space group: A B A 2
;
_chemical_formula_sum "Si O2"
_cell_formula_units_Z 44
_cell_length_a 11.154584
_cell_length_b 21.339905
_cell_length_c 8.693836
_cell_angle_alpha 90.000000
_cell_angle_beta 90.000000
_cell_angle_gamma 90.000000
_cell_volume 2069.461272
_symmetry_space_group_name_H-M "A B A 2"
_symmetry_group_IT_number 41
_symmetry_cell_setting 'orthorhombic'
loop_
_space_group_symop_operation_xyz
x,y,z
-x,-y,z
1/2-x,y,1/2+z
1/2+x,-y,1/2+z
x,1/2+y,1/2+z
-x,1/2-y,1/2+z
1/2-x,1/2+y,z
1/2+x,1/2-y,z
loop_
_atom_site_type_symbol
_atom_site_label
_atom_site_fract_x
_atom_site_fract_y
_atom_site_fract_z
Si Si1 0.000000 0.500000 0.139120
Si Si2 0.115526 0.623593 0.010657
Si Si3 0.373103 0.644828 0.868800
Si Si4 0.589484 0.710787 0.383765
Si Si5 0.114083 0.420843 0.378160
Si Si6 0.762651 0.649134 0.628598
O O1 0.896491 0.520661 0.261452
O O2 0.953963 0.442875 0.033492
O O3 0.245570 0.623643 0.933972
O O4 0.030607 0.672939 0.923707
O O5 0.134104 0.644456 0.185235
O O6 0.415227 0.715145 0.905954
O O7 0.479037 0.598499 0.918703
O O8 0.689461 0.688790 0.505890
O O9 0.634719 0.688444 0.215403
O O10 0.188608 0.411863 0.534790
O O11 0.170396 0.370353 0.261180
#
# Coordination Sequence:
#
# PCOD9367098 Si02
#       6
#     4   8   8   8   8   8
#     4  10  22  50  66  94 142 174 240 278 332 426
#     4  11  26  45  67 101 137 190 218 292 343 406
#     4  11  25  40  66 101 140 173 230 284 344 406
#     4  11  23  41  66  98 137 172 228 277 351 411
#     4  10  23  41  66  95 127 180 226 279 338 395
#     4  10  22  41  65  96 125 177 222 276 345 404
#
# _framework density 21.261572999999999
#
# number of rings (size 3 to 8) (size 9 to 14) (size 15 to 20)
#    0.000    1.455    3.636    1.091   10.182    2.909 
#    0.000    0.909    0.000    0.000    0.000    0.000 
#    0.000    0.000    0.000    0.000    0.000    0.000 
#
# Total GULP energy -122729.354577 kJ/mol
# GULP energy per Si atom -5578.607026 kJ/mol
# Density = 2.121318 g / cm^3
# Si number density = 21.261573 Si / 1000 Ang^3
#
#
#
# Elastic Constant Matrix: (Units=GPa)
#
#
# Indices 1 2 3 4 5 6 
#
# 1 121.2777 30.3102 37.8971 0.0000 0.0000 0.0000
# 2 30.3102 88.5467 -3.5376 0.0000 0.0000 0.0000
# 3 37.8971 -3.5376 46.3752 0.0000 0.0000 0.0000
# 4 0.0000 0.0000 0.0000 9.7029 0.0000 0.0000
# 5 0.0000 0.0000 0.0000 0.0000 45.0432 0.0000
# 6 0.0000 0.0000 0.0000 0.0000 0.0000 16.4008
#
#
#
# Elastic Compliance Matrix: (Units=1/GPa)
#
#
# Indices 1 2 3 4 5 6 
#
# 1 0.012850 -0.004833 -0.010869 0.000000 0.000000 0.000000
# 2 -0.004833 0.013146 0.004952 0.000000 0.000000 0.000000
# 3 -0.010869 0.004952 0.030823 0.000000 0.000000 0.000000
# 4 0.000000 0.000000 0.000000 0.103062 0.000000 0.000000
# 5 0.000000 0.000000 0.000000 0.000000 0.022201 0.000000
# 6 0.000000 0.000000 0.000000 0.000000 0.000000 0.060973
#
#
# Mechanical properties :
#
#
# Convention : Reuss Voigt Hill
#
# Bulk Modulus (GPa) = 28.31369 42.83764 35.57567
# Shear Modulus (GPa) = 18.09448 26.99804 22.54626
#
# Velocity S-wave (km/s) = 2.92043 3.56730 3.25995
# Velocity P-wave (km/s) = 4.97168 6.09583 5.56223
#
# Compressibility (1/GPa) = 0.03531860
#
# Stress axis : x y z
#
# Youngs Moduli (GPa) = 77.82181 76.07083 32.44299
#
# Poissons Ratio (x) = 0.36764 0.35264
# Poissons Ratio (y) = 0.37610 -0.16066
# Poissons Ratio (z) = 0.84587 -0.37671
#
# Static dielectric constant tensor:
#      x y z
#    x 1.804990 0.000000 0.000000 
#    y 0.000000 1.835780 0.000000 
#    z 0.000000 0.000000 1.755370 
# 
# From -- ./inp_files/2069.got.cif
#   From: 2010.05.17/outbox.cif.g08.bks.cpg/sg41_2_cif.got.tgz:2069.got - 2010.06.03 18:54:24.
