data_PCOD9367108
_publ_section_title
;
Structure prediction by ZEFSAII (Michael W. Deem and Ramdas Pophale) SiO2 
 PCOD9367108
Probable space group: A B A 2
;
_chemical_formula_sum "Si O2"
_cell_formula_units_Z 44
_cell_length_a 16.434174
_cell_length_b 11.334970
_cell_length_c 8.933793
_cell_angle_alpha 90.000000
_cell_angle_beta 90.000000
_cell_angle_gamma 90.000000
_cell_volume 1664.194726
_symmetry_space_group_name_H-M "A B A 2"
_symmetry_group_IT_number 41
_symmetry_cell_setting 'orthorhombic'
loop_
_space_group_symop_operation_xyz
x,y,z
-x,-y,z
1/2-x,y,1/2+z
1/2+x,-y,1/2+z
x,1/2+y,1/2+z
-x,1/2-y,1/2+z
1/2-x,1/2+y,z
1/2+x,1/2-y,z
loop_
_atom_site_type_symbol
_atom_site_label
_atom_site_fract_x
_atom_site_fract_y
_atom_site_fract_z
Si Si1 0.484179 0.809486 0.309730
Si Si2 0.809122 0.711651 0.164548
Si Si3 0.592614 0.331617 0.524818
Si Si4 0.164886 0.425033 0.581692
Si Si5 0.500000 0.000000 0.568486
Si Si6 0.743549 0.876366 0.416694
O O1 0.398663 0.821904 0.219540
O O2 0.472672 0.682076 0.390843
O O3 0.551219 0.837025 0.185252
O O4 0.504042 0.891739 0.451605
O O5 0.744321 0.605637 0.175880
O O6 0.771730 0.821057 0.260585
O O7 0.804371 0.768332 0.999228
O O8 0.637986 0.203668 0.524787
O O9 0.669091 0.412881 0.491026
O O10 0.084454 0.481618 0.654275
O O11 0.187309 0.511809 0.446609
#
# Coordination Sequence:
#
# PCOD9367108 Si02
#       6
#     8   8   8   8   4   8
#     4  10  22  41  68  97 137 176 231 282 349 412
#     4  10  24  42  67 101 135 179 230 286 344 416
#     4   9  22  42  67  98 133 179 227 290 345 417
#     4  10  23  41  67  96 134 177 229 277 348 410
#     4  10  24  40  70  96 134 190 224 282 354 414
#     4  10  23  41  66  97 132 182 226 286 346 419
#
# _framework density 26.439212999999999
#
# number of rings (size 3 to 8) (size 9 to 14) (size 15 to 20)
#    0.000    2.182    0.000    1.091   12.727    4.364 
#    0.000    0.000    0.000    0.000    0.000    0.000 
#    0.000    0.000    0.000    0.000    0.000    0.000 
#
# Total GULP energy -122821.972183 kJ/mol
# GULP energy per Si atom -5582.816917 kJ/mol
# Density = 2.637904 g / cm^3
# Si number density = 26.439213 Si / 1000 Ang^3
#
#
#
# Elastic Constant Matrix: (Units=GPa)
#
#
# Indices 1 2 3 4 5 6 
#
# 1 84.1653 34.8078 10.0925 0.0000 0.0000 0.0000
# 2 34.8078 62.1508 -6.0990 0.0000 0.0000 0.0000
# 3 10.0925 -6.0990 37.6006 0.0000 0.0000 0.0000
# 4 0.0000 0.0000 0.0000 33.7111 0.0000 0.0000
# 5 0.0000 0.0000 0.0000 0.0000 40.2703 0.0000
# 6 0.0000 0.0000 0.0000 0.0000 0.0000 31.1468
#
#
#
# Elastic Compliance Matrix: (Units=1/GPa)
#
#
# Indices 1 2 3 4 5 6 
#
# 1 0.016739 -0.009975 -0.006111 0.000000 0.000000 0.000000
# 2 -0.009975 0.022294 0.006294 0.000000 0.000000 0.000000
# 3 -0.006111 0.006294 0.029256 0.000000 0.000000 0.000000
# 4 0.000000 0.000000 0.000000 0.029664 0.000000 0.000000
# 5 0.000000 0.000000 0.000000 0.000000 0.024832 0.000000
# 6 0.000000 0.000000 0.000000 0.000000 0.000000 0.032106
#
#
# Mechanical properties :
#
#
# Convention : Reuss Voigt Hill
#
# Bulk Modulus (GPa) = 20.53163 29.05770 24.79466
# Shear Modulus (GPa) = 26.21771 30.70003 28.45887
#
# Velocity S-wave (km/s) = 3.15242 3.41127 3.28440
# Velocity P-wave (km/s) = 4.58615 5.15072 4.87661
#
# Compressibility (1/GPa) = 0.04870533
#
# Stress axis : x y z
#
# Youngs Moduli (GPa) = 59.73959 44.85554 34.18054
#
# Poissons Ratio (x) = 0.44742 0.20888
# Poissons Ratio (y) = 0.59588 -0.21512
# Poissons Ratio (z) = 0.36507 -0.28230
#
# Static dielectric constant tensor:
#      x y z
#    x 2.194610 0.000000 0.000000 
#    y 0.000000 2.154940 0.000000 
#    z 0.000000 0.000000 2.142660 
# 
# From -- ./inp_files/2986.got.cif
#   From: 2010.05.17/outbox.cif.g08.bks.cpg/sg41_2_cif.got.tgz:2986.got - 2010.06.03 18:54:24.
