data_PCOD9367374
_publ_section_title
;
Structure prediction by ZEFSAII (Michael W. Deem and Ramdas Pophale) SiO2 
 PCOD9367374
Probable space group: A B A 2
;
_chemical_formula_sum "Si O2"
_cell_formula_units_Z 56
_cell_length_a 14.050921
_cell_length_b 9.772433
_cell_length_c 16.419367
_cell_angle_alpha 90.000000
_cell_angle_beta 90.000000
_cell_angle_gamma 90.000000
_cell_volume 2254.570934
_symmetry_space_group_name_H-M "A B A 2"
_symmetry_group_IT_number 41
_symmetry_cell_setting 'orthorhombic'
loop_
_space_group_symop_operation_xyz
x,y,z
-x,-y,z
1/2-x,y,1/2+z
1/2+x,-y,1/2+z
x,1/2+y,1/2+z
-x,1/2-y,1/2+z
1/2-x,1/2+y,z
1/2+x,1/2-y,z
loop_
_atom_site_type_symbol
_atom_site_label
_atom_site_fract_x
_atom_site_fract_y
_atom_site_fract_z
Si Si1 0.357671 0.167407 0.151270
Si Si2 0.713379 0.102580 0.200904
Si Si3 0.957467 0.761132 0.236843
Si Si4 0.835133 0.456704 0.833256
Si Si5 0.107228 0.141647 0.056403
Si Si6 0.093864 0.350552 0.510084
Si Si7 0.227656 0.783945 0.423231
O O1 0.266927 0.261790 0.171826
O O2 0.437087 0.202071 0.220791
O O3 0.395079 0.216655 0.064583
O O4 0.330521 0.009778 0.141304
O O5 0.621611 0.146206 0.253254
O O6 0.788957 0.018411 0.252398
O O7 0.930606 0.877068 0.303362
O O8 0.928149 0.810218 0.144725
O O9 0.757947 0.346930 0.868500
O O10 0.838292 0.592911 0.889659
O O11 0.017497 0.143541 0.993775
O O12 0.124859 0.980170 0.064947
O O13 0.186002 0.225836 0.008100
O O14 0.169185 0.349995 0.439362
#
# Coordination Sequence:
#
# PCOD9367374 Si02
#       7
#     8   8   8   8   8   8   8
#     4  11  25  43  76 109 142 186 243 308 366 431
#     4  12  23  46  68 106 146 186 240 300 369 433
#     4  11  24  46  74 107 146 190 248 309 360 434
#     4  12  25  45  68 104 145 188 244 293 366 438
#     4  10  23  45  73 103 141 192 244 298 365 435
#     4  10  23  43  71 105 142 188 238 294 365 436
#     4  12  24  46  70 104 145 191 238 296 365 441
#
# _framework density 24.838431
#
# number of rings (size 3 to 8) (size 9 to 14) (size 15 to 20)
#    0.000    0.857    4.286    2.143    2.000    2.857 
#    7.714    1.429    0.000    0.000    0.000    0.000 
#    0.000    0.000    0.000    0.000    0.000    0.000 
#
# Total GULP energy -156341.015440 kJ/mol
# GULP energy per Si atom -5583.607694 kJ/mol
# Density = 2.478190 g / cm^3
# Si number density = 24.838431 Si / 1000 Ang^3
#
#
#
# Elastic Constant Matrix: (Units=GPa)
#
#
# Indices 1 2 3 4 5 6 
#
# 1 109.5281 9.4207 1.3132 0.0000 0.0000 0.0000
# 2 9.4207 96.0982 8.3261 0.0000 0.0000 0.0000
# 3 1.3132 8.3261 55.2485 0.0000 0.0000 0.0000
# 4 0.0000 0.0000 0.0000 34.6833 0.0000 0.0000
# 5 0.0000 0.0000 0.0000 0.0000 13.0182 0.0000
# 6 0.0000 0.0000 0.0000 0.0000 0.0000 31.7938
#
#
#
# Elastic Compliance Matrix: (Units=1/GPa)
#
#
# Indices 1 2 3 4 5 6 
#
# 1 0.009208 -0.000895 -0.000084 0.000000 0.000000 0.000000
# 2 -0.000895 0.010631 -0.001581 0.000000 0.000000 0.000000
# 3 -0.000084 -0.001581 0.018340 0.000000 0.000000 0.000000
# 4 0.000000 0.000000 0.000000 0.028832 0.000000 0.000000
# 5 0.000000 0.000000 0.000000 0.000000 0.076815 0.000000
# 6 0.000000 0.000000 0.000000 0.000000 0.000000 0.031453
#
#
# Mechanical properties :
#
#
# Convention : Reuss Voigt Hill
#
# Bulk Modulus (GPa) = 30.24910 33.22164 31.73537
# Shear Modulus (GPa) = 26.12068 32.02007 29.07037
#
# Velocity S-wave (km/s) = 3.24639 3.59435 3.42479
# Velocity P-wave (km/s) = 5.12415 5.53443 5.33323
#
# Compressibility (1/GPa) = 0.03305883
#
# Stress axis : x y z
#
# Youngs Moduli (GPa) = 108.60008 94.06658 54.52487
#
# Poissons Ratio (x) = 0.08423 0.00458
# Poissons Ratio (y) = 0.09724 0.08619
# Poissons Ratio (z) = 0.00911 0.14870
#
# Static dielectric constant tensor:
#      x y z
#    x 2.027130 0.000000 0.000000 
#    y 0.000000 2.019670 0.000000 
#    z 0.000000 0.000000 2.009970 
# 
# From -- ./inp_files/11546.got.cif
#   From: 2010.05.17/outbox.cif.g08.bks.cpg/sg41_6_cif.got.tgz:11546.got - 2010.06.03 18:54:24.
