data_PCOD9367887
_publ_section_title
;
Structure prediction by ZEFSAII (Michael W. Deem and Ramdas Pophale) SiO2 
 PCOD9367887
Probable space group: A B A 2
;
_chemical_formula_sum "Si O2"
_cell_formula_units_Z 56
_cell_length_a 14.385150
_cell_length_b 12.003065
_cell_length_c 13.922480
_cell_angle_alpha 90.000000
_cell_angle_beta 90.000000
_cell_angle_gamma 90.000000
_cell_volume 2403.937407
_symmetry_space_group_name_H-M "A B A 2"
_symmetry_group_IT_number 41
_symmetry_cell_setting 'orthorhombic'
loop_
_space_group_symop_operation_xyz
x,y,z
-x,-y,z
1/2-x,y,1/2+z
1/2+x,-y,1/2+z
x,1/2+y,1/2+z
-x,1/2-y,1/2+z
1/2-x,1/2+y,z
1/2+x,1/2-y,z
loop_
_atom_site_type_symbol
_atom_site_label
_atom_site_fract_x
_atom_site_fract_y
_atom_site_fract_z
Si Si1 0.029876 0.267098 0.987310
Si Si2 0.851604 0.617934 0.518704
Si Si3 0.224989 0.254430 0.344420
Si Si4 0.500000 0.000000 0.879172
Si Si5 0.119782 0.890742 0.233361
Si Si6 0.865679 0.416683 0.381577
Si Si7 0.940178 0.739762 0.190198
Si Si8 0.000000 0.500000 0.226910
O O1 0.070466 0.189904 0.903420
O O2 0.933748 0.208761 0.016574
O O3 0.010332 0.390105 0.945942
O O4 0.095655 0.245282 0.080704
O O5 0.781212 0.676753 0.444219
O O6 0.836261 0.585039 0.629038
O O7 0.877009 0.503099 0.467177
O O8 0.304410 0.314228 0.283220
O O9 0.263113 0.131159 0.366910
O O10 0.133324 0.257225 0.277413
O O11 0.587674 0.011924 0.805856
O O12 0.023155 0.824694 0.214217
O O13 0.908573 0.479260 0.290995
O O14 0.983376 0.616310 0.176376
#
# Coordination Sequence:
#
# PCOD9367887 Si02
#       8
#     8   8   8   4   8   8   8   4
#     4  11  24  46  76 107 151 196 246 314 375 455
#     4  11  26  48  71 108 148 199 252 311 383 449
#     4  12  25  47  74 111 151 193 253 317 377 452
#     4  12  23  45  72 110 150 192 245 313 378 440
#     4  11  27  45  74 110 147 197 255 311 376 455
#     4  12  23  46  76 102 149 198 250 303 380 446
#     4  11  25  46  75 110 149 200 252 306 384 456
#     4  12  19  47  74 106 144 206 237 305 376 456
#
# _framework density 23.295117999999999
#
# number of rings (size 3 to 8) (size 9 to 14) (size 15 to 20)
#    0.000    0.571    5.714    1.286    6.000    2.286 
#    0.000    2.857    0.000    0.000    0.000    0.000 
#    0.000    0.000    0.000    0.000    0.000    0.000 
#
# Total GULP energy -156375.204083 kJ/mol
# GULP energy per Si atom -5584.828717 kJ/mol
# Density = 2.324210 g / cm^3
# Si number density = 23.295118 Si / 1000 Ang^3
#
#
#
# Elastic Constant Matrix: (Units=GPa)
#
#
# Indices 1 2 3 4 5 6 
#
# 1 45.6796 22.0857 27.0871 0.0000 0.0000 0.0000
# 2 22.0857 123.8180 18.3026 0.0000 0.0000 0.0000
# 3 27.0871 18.3026 122.5238 0.0000 0.0000 0.0000
# 4 0.0000 0.0000 0.0000 25.6691 0.0000 0.0000
# 5 0.0000 0.0000 0.0000 0.0000 23.3798 0.0000
# 6 0.0000 0.0000 0.0000 0.0000 0.0000 33.0243
#
#
#
# Elastic Compliance Matrix: (Units=1/GPa)
#
#
# Indices 1 2 3 4 5 6 
#
# 1 0.027024 -0.004026 -0.005373 0.000000 0.000000 0.000000
# 2 -0.004026 0.008859 -0.000433 0.000000 0.000000 0.000000
# 3 -0.005373 -0.000433 0.009414 0.000000 0.000000 0.000000
# 4 0.000000 0.000000 0.000000 0.038957 0.000000 0.000000
# 5 0.000000 0.000000 0.000000 0.000000 0.042772 0.000000
# 6 0.000000 0.000000 0.000000 0.000000 0.000000 0.030281
#
#
# Mechanical properties :
#
#
# Convention : Reuss Voigt Hill
#
# Bulk Modulus (GPa) = 39.01319 47.44137 43.22728
# Shear Modulus (GPa) = 26.95186 31.38438 29.16812
#
# Velocity S-wave (km/s) = 3.40512 3.67447 3.54236
# Velocity P-wave (km/s) = 5.67834 6.19774 5.94371
#
# Compressibility (1/GPa) = 0.02563236
#
# Stress axis : x y z
#
# Youngs Moduli (GPa) = 37.00376 112.88513 106.22215
#
# Poissons Ratio (x) = 0.45449 0.57073
# Poissons Ratio (y) = 0.14898 0.04602
# Poissons Ratio (z) = 0.19882 0.04890
#
# Static dielectric constant tensor:
#      x y z
#    x 1.851250 0.000000 0.000000 
#    y 0.000000 1.893280 0.000000 
#    z 0.000000 0.000000 1.967470 
# 
# From -- ./inp_files/8424.got.cif
#   From: 2010.05.17/outbox.cif.g08.bks.cpg/sg41_5_cif.got.tgz:8424.got - 2010.06.03 18:54:24.
