data_PCOD9367541
_publ_section_title
;
Structure prediction by ZEFSAII (Michael W. Deem and Ramdas Pophale) SiO2 
 PCOD9367541
Probable space group: A B A 2
;
_chemical_formula_sum "Si O2"
_cell_formula_units_Z 36
_cell_length_a 9.017946
_cell_length_b 17.960636
_cell_length_c 8.456150
_cell_angle_alpha 90.000000
_cell_angle_beta 90.000000
_cell_angle_gamma 90.000000
_cell_volume 1369.626089
_symmetry_space_group_name_H-M "A B A 2"
_symmetry_group_IT_number 41
_symmetry_cell_setting 'orthorhombic'
loop_
_space_group_symop_operation_xyz
x,y,z
-x,-y,z
1/2-x,y,1/2+z
1/2+x,-y,1/2+z
x,1/2+y,1/2+z
-x,1/2-y,1/2+z
1/2-x,1/2+y,z
1/2+x,1/2-y,z
loop_
_atom_site_type_symbol
_atom_site_label
_atom_site_fract_x
_atom_site_fract_y
_atom_site_fract_z
Si Si1 0.000000 0.500000 0.897501
Si Si2 0.902756 0.084236 0.103029
Si Si3 0.316057 0.781841 0.044693
Si Si4 0.894168 0.808986 0.742171
Si Si5 0.295590 0.067712 0.473541
O O1 0.899394 0.550751 0.779830
O O2 0.882567 0.446073 0.986145
O O3 0.801158 0.151599 0.051790
O O4 0.075945 0.103082 0.085834
O O5 0.852581 0.017296 0.989352
O O6 0.443288 0.804395 0.168333
O O7 0.216828 0.713213 0.103412
O O8 0.380045 0.755575 0.876661
O O9 0.837634 0.886370 0.816370
#
# Coordination Sequence:
#
# PCOD9367541 Si02
#       5
#     4   8   8   8   8
#     4  10  24  44  76 102 150 204 262 334 392 490
#     4  10  26  49  69 110 155 206 267 329 415 479
#     4  12  28  51  80 116 167 218 272 346 417 501
#     4  12  28  48  80 116 162 217 278 336 422 492
#     4  10  24  46  74 107 153 202 269 329 403 485
#
# _framework density 26.284547
#
# number of rings (size 3 to 8) (size 9 to 14) (size 15 to 20)
#    0.000    1.333    0.000    4.000   18.667    1.778 
#    0.000    0.000    0.000    0.000    0.000    0.000 
#    0.000    0.000    0.000    0.000    0.000    0.000 
#
# Total GULP energy -100600.600449 kJ/mol
# GULP energy per Si atom -5588.922247 kJ/mol
# Density = 2.622472 g / cm^3
# Si number density = 26.284547 Si / 1000 Ang^3
#
#
#
# Elastic Constant Matrix: (Units=GPa)
#
#
# Indices 1 2 3 4 5 6 
#
# 1 196.9725 56.5329 47.9030 0.0000 0.0000 0.0000
# 2 56.5329 98.1977 1.5379 0.0000 0.0000 0.0000
# 3 47.9030 1.5379 81.2886 0.0000 0.0000 0.0000
# 4 0.0000 0.0000 0.0000 49.5813 0.0000 0.0000
# 5 0.0000 0.0000 0.0000 0.0000 34.3346 0.0000
# 6 0.0000 0.0000 0.0000 0.0000 0.0000 63.0629
#
#
#
# Elastic Compliance Matrix: (Units=1/GPa)
#
#
# Indices 1 2 3 4 5 6 
#
# 1 0.007287 -0.004129 -0.004216 0.000000 0.000000 0.000000
# 2 -0.004129 0.012526 0.002196 0.000000 0.000000 0.000000
# 3 -0.004216 0.002196 0.014745 0.000000 0.000000 0.000000
# 4 0.000000 0.000000 0.000000 0.020169 0.000000 0.000000
# 5 0.000000 0.000000 0.000000 0.000000 0.029125 0.000000
# 6 0.000000 0.000000 0.000000 0.000000 0.000000 0.015857
#
#
# Mechanical properties :
#
#
# Convention : Reuss Voigt Hill
#
# Bulk Modulus (GPa) = 44.92305 65.37850 55.15078
# Shear Modulus (GPa) = 41.86602 47.42809 44.64705
#
# Velocity S-wave (km/s) = 3.99532 4.25244 4.12588
# Velocity P-wave (km/s) = 6.19771 7.00274 6.61249
#
# Compressibility (1/GPa) = 0.02226029
#
# Stress axis : x y z
#
# Youngs Moduli (GPa) = 137.22299 79.83116 67.81987
#
# Poissons Ratio (x) = 0.32965 0.28595
# Poissons Ratio (y) = 0.56664 -0.14896
# Poissons Ratio (z) = 0.57858 -0.17534
#
# Static dielectric constant tensor:
#      x y z
#    x 2.046590 0.000000 0.000000 
#    y 0.000000 2.204530 0.000000 
#    z 0.000000 0.000000 2.249960 
# 
# From -- ./inp_files/1666.got.cif
#   From: 2010.05.17/outbox.cif.g08.bks.cpg/sg41_1_cif.got.tgz:1666.got - 2010.06.03 18:54:24.
