data_PCOD9367099
_publ_section_title
;
Structure prediction by ZEFSAII (Michael W. Deem and Ramdas Pophale) SiO2 
 PCOD9367099
Probable space group: A B A 2
;
_chemical_formula_sum "Si O2"
_cell_formula_units_Z 32
_cell_length_a 13.690368
_cell_length_b 18.764266
_cell_length_c 5.224707
_cell_angle_alpha 90.000000
_cell_angle_beta 90.000000
_cell_angle_gamma 90.000000
_cell_volume 1342.173449
_symmetry_space_group_name_H-M "A B A 2"
_symmetry_group_IT_number 41
_symmetry_cell_setting 'orthorhombic'
loop_
_space_group_symop_operation_xyz
x,y,z
-x,-y,z
1/2-x,y,1/2+z
1/2+x,-y,1/2+z
x,1/2+y,1/2+z
-x,1/2-y,1/2+z
1/2-x,1/2+y,z
1/2+x,1/2-y,z
loop_
_atom_site_type_symbol
_atom_site_label
_atom_site_fract_x
_atom_site_fract_y
_atom_site_fract_z
Si Si1 0.902205 0.880926 0.496770
Si Si2 0.576475 0.589422 0.836038
Si Si3 0.370642 0.060008 0.501975
Si Si4 0.814827 0.738138 0.344934
O O1 0.847508 0.885143 0.772934
O O2 0.892529 0.801442 0.389806
O O3 0.011458 0.905626 0.576460
O O4 0.844648 0.931166 0.297143
O O5 0.487034 0.579213 0.032092
O O6 0.638300 0.517998 0.878522
O O7 0.635154 0.661168 0.869329
O O8 0.734321 0.743990 0.567854
#
# Coordination Sequence:
#
# PCOD9367099 Si02
#       4
#     8   8   8   8
#     4  10  22  41  66  92 125 167 217 262 316 388
#     4   9  24  39  71  94 123 166 224 271 312 381
#     4   9  21  38  73  95 115 156 230 272 308 365
#     4  12  28  43  61  97 141 174 211 265 338 389
#
# _framework density 23.841926000000001
#
# number of rings (size 3 to 8) (size 9 to 14) (size 15 to 20)
#    1.500    0.500    0.000    1.500   14.000    0.000 
#    0.000    7.500    0.000    0.000    0.000    0.000 
#    0.000    0.000    0.000    0.000    0.000    0.000 
#
# Total GULP energy -89136.456688 kJ/mol
# GULP energy per Si atom -5571.028543 kJ/mol
# Density = 2.378766 g / cm^3
# Si number density = 23.841926 Si / 1000 Ang^3
#
#
#
# Elastic Constant Matrix: (Units=GPa)
#
#
# Indices 1 2 3 4 5 6 
#
# 1 27.1294 25.7973 13.9501 0.0000 0.0000 0.0000
# 2 25.7973 187.6243 50.5420 0.0000 0.0000 0.0000
# 3 13.9501 50.5420 166.5199 0.0000 0.0000 0.0000
# 4 0.0000 0.0000 0.0000 16.8884 0.0000 0.0000
# 5 0.0000 0.0000 0.0000 0.0000 -1.7846 0.0000
# 6 0.0000 0.0000 0.0000 0.0000 0.0000 35.2161
#
#
#
# Elastic Compliance Matrix: (Units=1/GPa)
#
#
# Indices 1 2 3 4 5 6 
#
# 1 0.042989 -0.005381 -0.001968 0.000000 0.000000 0.000000
# 2 -0.005381 0.006478 -0.001515 0.000000 0.000000 0.000000
# 3 -0.001968 -0.001515 0.006630 0.000000 0.000000 0.000000
# 4 0.000000 0.000000 0.000000 0.059212 0.000000 0.000000
# 5 0.000000 0.000000 0.000000 0.000000 -0.560334 0.000000
# 6 0.000000 0.000000 0.000000 0.000000 0.000000 0.028396
#
#
# Mechanical properties :
#
#
# Convention : Reuss Voigt Hill
#
# Bulk Modulus (GPa) = 26.06309 62.42804 44.24557
# Shear Modulus (GPa) = -12.94963 29.46292 8.25665
#
# Velocity S-wave (km/s) = -2.33308 3.51915 1.86295
# Velocity P-wave (km/s) = 1.92294 6.53862 4.81930
#
# Compressibility (1/GPa) = 0.03836843
#
# Stress axis : x y z
#
# Youngs Moduli (GPa) = 23.26185 154.37328 150.82669
#
# Poissons Ratio (x) = 0.83061 0.29687
# Poissons Ratio (y) = 0.12516 0.22856
# Poissons Ratio (z) = 0.04579 0.23394
#
# Static dielectric constant tensor:
#      x y z
#    x 2.077250 0.000000 0.000000 
#    y 0.000000 1.899870 0.000000 
#    z 0.000000 0.000000 1.979500 
# 
# From -- ./inp_files/198.got.cif
#   From: 2010.05.17/outbox.cif.g08.bks.cpg/sg41_1_cif.got.tgz:198.got - 2010.06.03 18:54:24.
