data_PCOD9367953
_publ_section_title
;
Structure prediction by ZEFSAII (Michael W. Deem and Ramdas Pophale) SiO2 
 PCOD9367953
Probable space group: A B A 2
;
_chemical_formula_sum "Si O2"
_cell_formula_units_Z 48
_cell_length_a 11.237828
_cell_length_b 13.564889
_cell_length_c 13.113161
_cell_angle_alpha 90.000000
_cell_angle_beta 90.000000
_cell_angle_gamma 90.000000
_cell_volume 1998.968813
_symmetry_space_group_name_H-M "A B A 2"
_symmetry_group_IT_number 41
_symmetry_cell_setting 'orthorhombic'
loop_
_space_group_symop_operation_xyz
x,y,z
-x,-y,z
1/2-x,y,1/2+z
1/2+x,-y,1/2+z
x,1/2+y,1/2+z
-x,1/2-y,1/2+z
1/2-x,1/2+y,z
1/2+x,1/2-y,z
loop_
_atom_site_type_symbol
_atom_site_label
_atom_site_fract_x
_atom_site_fract_y
_atom_site_fract_z
Si Si1 0.898804 0.566849 0.054450
Si Si2 0.875097 0.254279 0.772323
Si Si3 0.317560 0.376157 0.198107
Si Si4 0.436501 0.104072 0.355032
Si Si5 0.968819 0.787949 0.067649
Si Si6 0.335504 0.545893 0.346869
O O1 0.786765 0.582693 0.126580
O O2 0.956326 0.673914 0.037105
O O3 0.872913 0.798324 0.158294
O O4 0.857741 0.510336 0.952558
O O5 0.751693 0.194027 0.780058
O O6 0.090003 0.320392 0.624800
O O7 0.897051 0.347604 0.843406
O O8 0.514990 0.179218 0.286975
O O9 0.370362 0.467902 0.259843
O O10 0.443334 0.147281 0.469445
O O11 0.500000 0.000000 0.354480
O O12 0.300799 0.079739 0.328619
O O13 0.000000 0.000000 0.605035
#
# Coordination Sequence:
#
# PCOD9367953 Si02
#       6
#     8   8   8   8   8   8
#     4  11  28  49  76 113 151 204 257 323 390 471
#     4  11  27  46  78 113 157 205 258 329 397 470
#     4  11  27  48  77 113 153 209 256 321 405 468
#     4  12  26  49  76 111 151 207 260 332 392 470
#     4  11  28  47  77 108 157 196 262 320 398 469
#     4  12  28  47  80 111 156 202 272 320 399 481
#
# _framework density 24.012381000000001
#
# number of rings (size 3 to 8) (size 9 to 14) (size 15 to 20)
#    0.000    0.667    1.667    3.000   18.667    2.667 
#    0.000    0.000    0.000    0.000    0.000    0.000 
#    0.000    0.000    0.000    0.000    0.000    0.000 
#
# Total GULP energy -134376.106753 kJ/mol
# GULP energy per Si atom -5599.004448 kJ/mol
# Density = 2.395773 g / cm^3
# Si number density = 24.012381 Si / 1000 Ang^3
#
#
#
# Elastic Constant Matrix: (Units=GPa)
#
#
# Indices 1 2 3 4 5 6 
#
# 1 96.1995 55.4276 -5.0091 0.0000 0.0000 0.0000
# 2 55.4276 177.8837 56.9036 0.0000 0.0000 0.0000
# 3 -5.0091 56.9036 87.8563 0.0000 0.0000 0.0000
# 4 0.0000 0.0000 0.0000 41.0397 0.0000 0.0000
# 5 0.0000 0.0000 0.0000 0.0000 37.4344 0.0000
# 6 0.0000 0.0000 0.0000 0.0000 0.0000 49.4546
#
#
#
# Elastic Compliance Matrix: (Units=1/GPa)
#
#
# Indices 1 2 3 4 5 6 
#
# 1 0.013985 -0.005818 0.004566 0.000000 0.000000 0.000000
# 2 -0.005818 0.009511 -0.006492 0.000000 0.000000 0.000000
# 3 0.004566 -0.006492 0.015847 0.000000 0.000000 0.000000
# 4 0.000000 0.000000 0.000000 0.024367 0.000000 0.000000
# 5 0.000000 0.000000 0.000000 0.000000 0.026713 0.000000
# 6 0.000000 0.000000 0.000000 0.000000 0.000000 0.020221
#
#
# Mechanical properties :
#
#
# Convention : Reuss Voigt Hill
#
# Bulk Modulus (GPa) = 41.92043 64.06485 52.99264
# Shear Modulus (GPa) = 37.28967 42.56022 39.92495
#
# Velocity S-wave (km/s) = 3.94501 4.21459 4.08202
# Velocity P-wave (km/s) = 6.18438 7.10081 6.65838
#
# Compressibility (1/GPa) = 0.02385472
#
# Stress axis : x y z
#
# Youngs Moduli (GPa) = 71.50448 105.13733 63.10172
#
# Poissons Ratio (x) = 0.61172 -0.28811
# Poissons Ratio (y) = 0.41603 0.40967
# Poissons Ratio (z) = -0.32647 0.68257
#
# Static dielectric constant tensor:
#      x y z
#    x 1.972340 0.000000 0.000000 
#    y 0.000000 1.936200 0.000000 
#    z 0.000000 0.000000 1.898380 
# 
# From -- ./inp_files/8747.got.cif
#   From: 2010.05.17/outbox.cif.g08.bks.cpg/sg41_5_cif.got.tgz:8747.got - 2010.06.03 18:54:24.
