data_PCOD9367066
_publ_section_title
;
Structure prediction by ZEFSAII (Michael W. Deem and Ramdas Pophale) SiO2 
 PCOD9367066
Probable space group: A B A 2
;
_chemical_formula_sum "Si O2"
_cell_formula_units_Z 40
_cell_length_a 11.109986
_cell_length_b 12.264153
_cell_length_c 10.936488
_cell_angle_alpha 90.000000
_cell_angle_beta 90.000000
_cell_angle_gamma 90.000000
_cell_volume 1490.146449
_symmetry_space_group_name_H-M "A B A 2"
_symmetry_group_IT_number 41
_symmetry_cell_setting 'orthorhombic'
loop_
_space_group_symop_operation_xyz
x,y,z
-x,-y,z
1/2-x,y,1/2+z
1/2+x,-y,1/2+z
x,1/2+y,1/2+z
-x,1/2-y,1/2+z
1/2-x,1/2+y,z
1/2+x,1/2-y,z
loop_
_atom_site_type_symbol
_atom_site_label
_atom_site_fract_x
_atom_site_fract_y
_atom_site_fract_z
Si Si1 0.989230 0.281429 0.167880
Si Si2 0.539744 0.611863 0.332638
Si Si3 0.317949 0.690818 0.464238
Si Si4 0.890504 0.428763 0.534311
Si Si5 0.303639 0.404473 0.570782
O O1 0.902620 0.210905 0.258280
O O2 0.052506 0.179025 0.095585
O O3 0.104543 0.363011 0.176227
O O4 0.895682 0.346572 0.082765
O O5 0.500000 0.500000 0.267195
O O6 0.416872 0.678848 0.361196
O O7 0.611497 0.572151 0.451522
O O8 0.201893 0.619326 0.435427
O O9 0.274577 0.807748 0.508810
O O10 0.795482 0.505932 0.606807
O O11 0.000000 0.500000 0.486102
#
# Coordination Sequence:
#
# PCOD9367066 Si02
#       5
#     8   8   8   8   8
#     4  10  23  39  66  95 131 171 222 274 336 390
#     4  11  22  41  66 100 127 170 224 276 333 390
#     4  10  22  41  65  95 131 174 219 273 334 394
#     4  11  20  40  68  91 130 182 216 262 341 391
#     4  10  22  40  66  92 133 174 216 274 332 392
#
# _framework density 26.843
#
# number of rings (size 3 to 8) (size 9 to 14) (size 15 to 20)
#    0.000    1.600    4.000    0.600    0.000    3.200 
#    0.000    0.000    0.000    0.000    0.000    0.000 
#    0.000    0.000    0.000    0.000    0.000    0.000 
#
# Total GULP energy -111411.297145 kJ/mol
# GULP energy per Si atom -5570.564857 kJ/mol
# Density = 2.678190 g / cm^3
# Si number density = 26.843000 Si / 1000 Ang^3
#
#
#
# Elastic Constant Matrix: (Units=GPa)
#
#
# Indices 1 2 3 4 5 6 
#
# 1 140.7544 58.3282 7.9412 0.0000 0.0000 0.0000
# 2 58.3282 79.4398 9.9115 0.0000 0.0000 0.0000
# 3 7.9412 9.9115 44.4066 0.0000 0.0000 0.0000
# 4 0.0000 0.0000 0.0000 33.6388 0.0000 0.0000
# 5 0.0000 0.0000 0.0000 0.0000 27.9418 0.0000
# 6 0.0000 0.0000 0.0000 0.0000 0.0000 88.2602
#
#
#
# Elastic Compliance Matrix: (Units=1/GPa)
#
#
# Indices 1 2 3 4 5 6 
#
# 1 0.010213 -0.007479 -0.000157 0.000000 0.000000 0.000000
# 2 -0.007479 0.018426 -0.002775 0.000000 0.000000 0.000000
# 3 -0.000157 -0.002775 0.023167 0.000000 0.000000 0.000000
# 4 0.000000 0.000000 0.000000 0.029728 0.000000 0.000000
# 5 0.000000 0.000000 0.000000 0.000000 0.035789 0.000000
# 6 0.000000 0.000000 0.000000 0.000000 0.000000 0.011330
#
#
# Mechanical properties :
#
#
# Convention : Reuss Voigt Hill
#
# Bulk Modulus (GPa) = 32.27600 46.32919 39.30260
# Shear Modulus (GPa) = 31.28879 42.52948 36.90913
#
# Velocity S-wave (km/s) = 3.41782 3.98474 3.71212
# Velocity P-wave (km/s) = 5.25599 6.20223 5.74862
#
# Compressibility (1/GPa) = 0.03098277
#
# Stress axis : x y z
#
# Youngs Moduli (GPa) = 97.91708 54.27162 43.16549
#
# Poissons Ratio (x) = 0.40590 0.00678
# Poissons Ratio (y) = 0.73233 0.11979
# Poissons Ratio (z) = 0.01537 0.15061
#
# Static dielectric constant tensor:
#      x y z
#    x 2.124380 0.000000 0.000000 
#    y 0.000000 2.194120 0.000000 
#    z 0.000000 0.000000 2.254830 
# 
# From -- ./inp_files/4844.got.cif
#   From: 2010.05.17/outbox.cif.g08.bks.cpg/sg41_3_cif.got.tgz:4844.got - 2010.06.03 18:54:24.
