data_PCOD9368265
_publ_section_title
;
Structure prediction by ZEFSAII (Michael W. Deem and Ramdas Pophale) SiO2 
 PCOD9368265
Probable space group: F M M 2
;
_chemical_formula_sum "Si O2"
_cell_formula_units_Z 88
_cell_length_a 14.807579
_cell_length_b 16.093181
_cell_length_c 20.074734
_cell_angle_alpha 90.000000
_cell_angle_beta 90.000000
_cell_angle_gamma 90.000000
_cell_volume 4783.830171
_symmetry_space_group_name_H-M "F M M 2"
_symmetry_group_IT_number 42
_symmetry_cell_setting 'orthorhombic'
loop_
_space_group_symop_operation_xyz
x,y,z
-x,-y,z
-x,y,z
x,-y,z
x,1/2+y,1/2+z
-x,1/2-y,1/2+z
-x,1/2+y,1/2+z
x,1/2-y,1/2+z
1/2+x,y,1/2+z
1/2-x,-y,1/2+z
1/2-x,y,1/2+z
1/2+x,-y,1/2+z
1/2+x,1/2+y,z
1/2-x,1/2-y,z
1/2-x,1/2+y,z
1/2+x,1/2-y,z
loop_
_atom_site_type_symbol
_atom_site_label
_atom_site_fract_x
_atom_site_fract_y
_atom_site_fract_z
Si Si1 0.607491 0.404236 0.906560
Si Si2 0.889892 0.168044 0.769694
Si Si3 0.728384 0.500000 0.567233
Si Si4 0.392176 0.181964 0.675278
Si Si5 0.895537 0.000000 0.165539
Si Si6 0.392014 0.500000 0.693759
Si Si7 0.798615 0.666309 0.530876
O O1 0.500000 0.409989 0.898537
O O2 0.641910 0.500000 0.903400
O O3 0.641423 0.347419 0.845289
O O4 0.628708 0.363151 0.977095
O O5 0.860779 0.248191 0.727249
O O6 0.000000 0.172182 0.770654
O O7 0.863734 0.083866 0.731096
O O8 0.826390 0.500000 0.604219
O O9 0.651449 0.500000 0.621904
O O10 0.729164 0.588606 0.531768
O O11 0.500000 0.194311 0.663414
O O12 0.340839 0.183428 0.604300
O O13 0.380734 0.087522 0.702033
O O14 0.000000 0.000000 0.142256
O O15 0.500000 0.500000 0.691128
O O16 0.750000 0.750000 0.509420
#
# Coordination Sequence:
#
# PCOD9368265 Si02
#       7
#    16  16   8  16   8   8  16
#     4  10  19  35  59  83 106 141 187 237 286 330
#     4   9  17  31  54  80 105 135 181 233 279 325
#     4  10  20  33  51  77 108 145 185 226 271 332
#     4   9  17  31  52  78 106 140 180 226 274 327
#     4   8  16  30  49  75 108 140 176 220 275 323
#     4  10  18  31  50  76 106 139 177 228 282 327
#     4  11  21  34  50  78 114 147 179 222 280 334
#
# _framework density 18.395302000000001
#
# number of rings (size 3 to 8) (size 9 to 14) (size 15 to 20)
#    0.000    2.364    1.818    1.636    0.000    0.727 
#    0.000    5.455    0.000    1.091    0.000    1.273 
#    0.000    2.909    0.000    0.000    0.000    0.000 
#
# Total GULP energy -122551.112242 kJ/mol
# GULP energy per Si atom -5570.505102 kJ/mol
# Density = 1.835343 g / cm^3
# Si number density = 18.395302 Si / 1000 Ang^3
#
#
#
# Elastic Constant Matrix: (Units=GPa)
#
#
# Indices 1 2 3 4 5 6 
#
# 1 13.8343 13.2610 4.3328 0.0000 0.0000 0.0000
# 2 13.2610 154.3722 57.8617 0.0000 0.0000 0.0000
# 3 4.3328 57.8617 92.6045 0.0000 0.0000 0.0000
# 4 0.0000 0.0000 0.0000 24.2829 0.0000 0.0000
# 5 0.0000 0.0000 0.0000 0.0000 20.6048 0.0000
# 6 0.0000 0.0000 0.0000 0.0000 0.0000 16.2046
#
#
#
# Elastic Compliance Matrix: (Units=1/GPa)
#
#
# Indices 1 2 3 4 5 6 
#
# 1 0.078806 -0.007035 0.000709 0.000000 0.000000 0.000000
# 2 -0.007035 0.009087 -0.005349 0.000000 0.000000 0.000000
# 3 0.000709 -0.005349 0.014107 0.000000 0.000000 0.000000
# 4 0.000000 0.000000 0.000000 0.041181 0.000000 0.000000
# 5 0.000000 0.000000 0.000000 0.000000 0.048532 0.000000
# 6 0.000000 0.000000 0.000000 0.000000 0.000000 0.061711
#
#
# Mechanical properties :
#
#
# Convention : Reuss Voigt Hill
#
# Bulk Modulus (GPa) = 12.71464 45.74691 29.23078
# Shear Modulus (GPa) = 16.50210 24.57548 20.53879
#
# Velocity S-wave (km/s) = 2.99838 3.65905 3.34507
# Velocity P-wave (km/s) = 4.34902 6.54021 5.55375
#
# Compressibility (1/GPa) = 0.07864950
#
# Stress axis : x y z
#
# Youngs Moduli (GPa) = 12.68945 110.04786 70.88477
#
# Poissons Ratio (x) = 0.77421 -0.05023
# Poissons Ratio (y) = 0.08927 0.37913
# Poissons Ratio (z) = -0.00899 0.58860
#
# Static dielectric constant tensor:
#      x y z
#    x 1.630670 0.000000 0.000000 
#    y 0.000000 1.681020 0.000000 
#    z 0.000000 0.000000 1.628100 
# 
# From -- ./inp_files/19944.got.cif
#   From: 2010.05.17/outbox.cif.g08.bks.cpg/sg42_10_cif.got.tgz:19944.got - 2010.06.03 19:03:34.
