data_PCOD9368147
_publ_section_title
;
Structure prediction by ZEFSAII (Michael W. Deem and Ramdas Pophale) SiO2 
 PCOD9368147
Probable space group: F M M 2
;
_chemical_formula_sum "Si O2"
_cell_formula_units_Z 80
_cell_length_a 14.935174
_cell_length_b 8.603406
_cell_length_c 31.177904
_cell_angle_alpha 90.000000
_cell_angle_beta 90.000000
_cell_angle_gamma 90.000000
_cell_volume 4006.153817
_symmetry_space_group_name_H-M "F M M 2"
_symmetry_group_IT_number 42
_symmetry_cell_setting 'orthorhombic'
loop_
_space_group_symop_operation_xyz
x,y,z
-x,-y,z
-x,y,z
x,-y,z
x,1/2+y,1/2+z
-x,1/2-y,1/2+z
-x,1/2+y,1/2+z
x,1/2-y,1/2+z
1/2+x,y,1/2+z
1/2-x,-y,1/2+z
1/2-x,y,1/2+z
1/2+x,-y,1/2+z
1/2+x,1/2+y,z
1/2-x,1/2-y,z
1/2-x,1/2+y,z
1/2+x,1/2-y,z
loop_
_atom_site_type_symbol
_atom_site_label
_atom_site_fract_x
_atom_site_fract_y
_atom_site_fract_z
Si Si1 0.000000 0.310916 0.596350
Si Si2 0.648216 0.686228 0.340771
Si Si3 0.500000 0.813573 0.498176
Si Si4 0.149366 0.313310 0.663139
Si Si5 0.352168 0.814707 0.252850
Si Si6 0.649100 0.813577 0.935835
O O1 0.086822 0.264106 0.623753
O O2 0.000000 0.500000 0.595561
O O3 0.000000 0.257321 0.547379
O O4 0.649069 0.500000 0.336503
O O5 0.750000 0.750000 0.342109
O O6 0.606691 0.757024 0.297681
O O7 0.612257 0.726513 0.388004
O O8 0.413936 0.754077 0.472325
O O9 0.500000 0.000000 0.498274
O O10 0.152234 0.500000 0.665361
O O11 0.250000 0.250000 0.658090
O O12 0.110710 0.250794 0.708293
O O13 0.250000 0.750000 0.253132
O O14 0.351073 0.000000 0.251899
O O15 0.750000 0.750000 0.939489
O O16 0.651095 0.000000 0.938481
#
# Coordination Sequence:
#
# PCOD9368147 Si02
#       6
#     8  16   8  16  16  16
#     4   9  22  41  60  81 108 143 184 231 284 339
#     4   9  16  28  49  77 110 147 185 223 267 322
#     4  11  23  41  62  85 114 147 188 241 296 345
#     4  10  19  36  58  81 110 145 184 225 273 328
#     4  10  17  27  47  78 112 145 182 221 267 322
#     4  10  21  38  60  87 117 152 193 235 283 340
#
# _framework density 19.969277999999999
#
# number of rings (size 3 to 8) (size 9 to 14) (size 15 to 20)
#    0.000    2.200    0.000    6.300    0.000    3.200 
#    0.000    9.000    0.000    2.400    0.000    0.000 
#    0.000    0.000    0.000    0.000    0.000    0.000 
#
# Total GULP energy -111644.028388 kJ/mol
# GULP energy per Si atom -5582.201419 kJ/mol
# Density = 1.992383 g / cm^3
# Si number density = 19.969278 Si / 1000 Ang^3
#
#
#
# Elastic Constant Matrix: (Units=GPa)
#
#
# Indices 1 2 3 4 5 6 
#
# 1 100.1345 28.5799 82.0243 0.0000 0.0000 0.0000
# 2 28.5799 98.0144 67.6552 0.0000 0.0000 0.0000
# 3 82.0243 67.6552 243.2670 0.0000 0.0000 0.0000
# 4 0.0000 0.0000 0.0000 28.3441 0.0000 0.0000
# 5 0.0000 0.0000 0.0000 0.0000 30.6232 0.0000
# 6 0.0000 0.0000 0.0000 0.0000 0.0000 16.3614
#
#
#
# Elastic Compliance Matrix: (Units=1/GPa)
#
#
# Indices 1 2 3 4 5 6 
#
# 1 0.013878 -0.001011 -0.004398 0.000000 0.000000 0.000000
# 2 -0.001011 0.012700 -0.003191 0.000000 0.000000 0.000000
# 3 -0.004398 -0.003191 0.006481 0.000000 0.000000 0.000000
# 4 0.000000 0.000000 0.000000 0.035281 0.000000 0.000000
# 5 0.000000 0.000000 0.000000 0.000000 0.032655 0.000000
# 6 0.000000 0.000000 0.000000 0.000000 0.000000 0.061119
#
#
# Mechanical properties :
#
#
# Convention : Reuss Voigt Hill
#
# Bulk Modulus (GPa) = 63.05664 88.65942 75.85803
# Shear Modulus (GPa) = 27.08551 32.60952 29.84752
#
# Velocity S-wave (km/s) = 3.68687 4.04540 3.87029
# Velocity P-wave (km/s) = 7.05474 8.14338 7.61853
#
# Compressibility (1/GPa) = 0.01585876
#
# Stress axis : x y z
#
# Youngs Moduli (GPa) = 72.05770 78.73972 154.29247
#
# Poissons Ratio (x) = 0.07958 0.67861
# Poissons Ratio (y) = 0.07283 0.49238
# Poissons Ratio (z) = 0.31692 0.25128
#
# Static dielectric constant tensor:
#      x y z
#    x 1.776580 0.000000 0.000000 
#    y 0.000000 1.667970 0.000000 
#    z 0.000000 0.000000 1.739010 
# 
# From -- ./inp_files/32765.got.cif
#   From: 2010.05.17/outbox.cif.g08.bks.cpg/sg42_17_cif.got.tgz:32765.got - 2010.06.03 19:03:34.
