data_PCOD9368977
_publ_section_title
;
Structure prediction by ZEFSAII (Michael W. Deem and Ramdas Pophale) SiO2 
 PCOD9368977
Probable space group: F M M 2
;
_chemical_formula_sum "Si O2"
_cell_formula_units_Z 96
_cell_length_a 19.020226
_cell_length_b 8.714511
_cell_length_c 31.719641
_cell_angle_alpha 90.000000
_cell_angle_beta 90.000000
_cell_angle_gamma 90.000000
_cell_volume 5257.592942
_symmetry_space_group_name_H-M "F M M 2"
_symmetry_group_IT_number 42
_symmetry_cell_setting 'orthorhombic'
loop_
_space_group_symop_operation_xyz
x,y,z
-x,-y,z
-x,y,z
x,-y,z
x,1/2+y,1/2+z
-x,1/2-y,1/2+z
-x,1/2+y,1/2+z
x,1/2-y,1/2+z
1/2+x,y,1/2+z
1/2-x,-y,1/2+z
1/2-x,y,1/2+z
1/2+x,-y,1/2+z
1/2+x,1/2+y,z
1/2-x,1/2-y,z
1/2-x,1/2+y,z
1/2+x,1/2-y,z
loop_
_atom_site_type_symbol
_atom_site_label
_atom_site_fract_x
_atom_site_fract_y
_atom_site_fract_z
Si Si1 0.918585 0.314649 0.835490
Si Si2 0.917334 0.683841 0.084296
Si Si3 0.082309 0.316589 0.494170
Si Si4 0.828478 0.684227 0.259570
Si Si5 0.828506 0.684108 0.917446
Si Si6 0.672325 0.814973 0.164323
O O1 0.916994 0.500000 0.833321
O O2 0.881496 0.247921 0.794197
O O3 0.873575 0.267959 0.876436
O O4 0.000000 0.266733 0.839103
O O5 0.908044 0.500000 0.079710
O O6 0.876373 0.736282 0.125861
O O7 0.000000 0.713830 0.089994
O O8 0.895184 0.763347 0.040833
O O9 0.086065 0.500000 0.491213
O O10 0.130546 0.242100 0.458636
O O11 0.000000 0.270262 0.488630
O O12 0.825430 0.500000 0.262144
O O13 0.750000 0.750000 0.266735
O O14 0.850398 0.728668 0.211783
O O15 0.825031 0.500000 0.918110
O O16 0.750000 0.750000 0.915516
O O17 0.750000 0.750000 0.158169
O O18 0.674563 0.000000 0.163427
#
# Coordination Sequence:
#
# PCOD9368977 Si02
#       6
#    16  16  16  16  16  16
#     4  10  22  39  58  82 111 142 178 221 269 322
#     4   9  18  34  55  77 105 143 183 222 267 318
#     4  10  21  37  57  82 111 142 180 225 270 319
#     4  10  20  35  56  81 110 145 184 225 270 319
#     4  11  23  39  59  82 109 142 180 221 268 322
#     4   9  19  34  53  78 107 141 180 222 267 317
#
# _framework density 18.259305999999999
#
# number of rings (size 3 to 8) (size 9 to 14) (size 15 to 20)
#    0.000    2.167    0.000    2.500    0.000    7.333 
#    0.000    3.333    0.000    2.000    0.000    0.000 
#    0.000    0.000    0.000    0.000    0.000    0.000 
#
# Total GULP energy -133999.731110 kJ/mol
# GULP energy per Si atom -5583.322130 kJ/mol
# Density = 1.821775 g / cm^3
# Si number density = 18.259306 Si / 1000 Ang^3
#
#
#
# Elastic Constant Matrix: (Units=GPa)
#
#
# Indices 1 2 3 4 5 6 
#
# 1 128.9919 41.7035 121.1507 0.0000 0.0000 0.0000
# 2 41.7035 27.3230 50.8812 0.0000 0.0000 0.0000
# 3 121.1507 50.8812 194.2168 0.0000 0.0000 0.0000
# 4 0.0000 0.0000 0.0000 26.6958 0.0000 0.0000
# 5 0.0000 0.0000 0.0000 0.0000 42.8101 0.0000
# 6 0.0000 0.0000 0.0000 0.0000 0.0000 27.4775
#
#
#
# Elastic Compliance Matrix: (Units=1/GPa)
#
#
# Indices 1 2 3 4 5 6 
#
# 1 0.021587 -0.015372 -0.009439 0.000000 0.000000 0.000000
# 2 -0.015372 0.082410 -0.012001 0.000000 0.000000 0.000000
# 3 -0.009439 -0.012001 0.014181 0.000000 0.000000 0.000000
# 4 0.000000 0.000000 0.000000 0.037459 0.000000 0.000000
# 5 0.000000 0.000000 0.000000 0.000000 0.023359 0.000000
# 6 0.000000 0.000000 0.000000 0.000000 0.000000 0.036393
#
#
# Mechanical properties :
#
#
# Convention : Reuss Voigt Hill
#
# Bulk Modulus (GPa) = 22.44433 86.44472 54.44452
# Shear Modulus (GPa) = 16.45468 28.51642 22.48555
#
# Velocity S-wave (km/s) = 3.00520 3.95618 3.51302
# Velocity P-wave (km/s) = 4.93562 8.26523 6.80714
#
# Compressibility (1/GPa) = 0.04455469
#
# Stress axis : x y z
#
# Youngs Moduli (GPa) = 46.32370 12.13440 70.51832
#
# Poissons Ratio (x) = 0.18653 0.66560
# Poissons Ratio (y) = 0.71209 0.84629
# Poissons Ratio (z) = 0.43724 0.14562
#
# Static dielectric constant tensor:
#      x y z
#    x 1.597080 0.000000 0.000000 
#    y 0.000000 1.615710 0.000000 
#    z 0.000000 0.000000 1.618620 
# 
# From -- ./inp_files/31417.got.cif
#   From: 2010.05.17/outbox.cif.g08.bks.cpg/sg42_16_cif.got.tgz:31417.got - 2010.06.03 19:03:34.
