data_PCOD9368426
_publ_section_title
;
Structure prediction by ZEFSAII (Michael W. Deem and Ramdas Pophale) SiO2 
 PCOD9368426
Probable space group: F M M 2
;
_chemical_formula_sum "Si O2"
_cell_formula_units_Z 96
_cell_length_a 7.519610
_cell_length_b 18.500332
_cell_length_c 32.788487
_cell_angle_alpha 90.000000
_cell_angle_beta 90.000000
_cell_angle_gamma 90.000000
_cell_volume 4561.379599
_symmetry_space_group_name_H-M "F M M 2"
_symmetry_group_IT_number 42
_symmetry_cell_setting 'orthorhombic'
loop_
_space_group_symop_operation_xyz
x,y,z
-x,-y,z
-x,y,z
x,-y,z
x,1/2+y,1/2+z
-x,1/2-y,1/2+z
-x,1/2+y,1/2+z
x,1/2-y,1/2+z
1/2+x,y,1/2+z
1/2-x,-y,1/2+z
1/2-x,y,1/2+z
1/2+x,-y,1/2+z
1/2+x,1/2+y,z
1/2-x,1/2-y,z
1/2-x,1/2+y,z
1/2+x,1/2-y,z
loop_
_atom_site_type_symbol
_atom_site_label
_atom_site_fract_x
_atom_site_fract_y
_atom_site_fract_z
Si Si1 0.286937 0.834736 0.734600
Si Si2 0.713277 0.583499 0.065269
Si Si3 0.716924 0.915260 0.654047
Si Si4 0.711852 0.917388 0.976393
Si Si5 0.217728 0.083603 0.315769
Si Si6 0.786787 0.834725 0.396947
O O1 0.500000 0.844151 0.734234
O O2 0.250000 0.750000 0.736701
O O3 0.218879 0.869932 0.692625
O O4 0.221473 0.875817 0.774914
O O5 0.500000 0.581977 0.066832
O O6 0.777135 0.500000 0.063782
O O7 0.774652 0.612513 0.109206
O O8 0.759628 0.615732 0.021391
O O9 0.500000 0.913381 0.654405
O O10 0.765708 0.000000 0.657853
O O11 0.500000 0.922633 0.971441
O O12 0.781809 0.870960 0.938643
O O13 0.783109 0.000000 0.975587
O O14 0.278555 0.124544 0.356491
O O15 0.000000 0.084903 0.315745
O O16 0.271074 0.000000 0.315891
O O17 0.750000 0.750000 0.395294
O O18 0.000000 0.843309 0.397005
#
# Coordination Sequence:
#
# PCOD9368426 Si02
#       6
#    16  16  16  16  16  16
#     4  10  19  31  49  72  98 126 154 188 231 278
#     4   8  14  26  46  70  93 118 153 198 239 271
#     4   8  14  27  48  71  92 119 159 199 230 267
#     4   9  17  30  48  69  93 122 157 195 233 274
#     4   9  17  31  53  76  93 117 158 198 228 268
#     4  10  20  33  49  70  97 126 154 189 233 278
#
# _framework density 21.046264000000001
#
# number of rings (size 3 to 8) (size 9 to 14) (size 15 to 20)
#    0.000    3.000    0.000    2.500    0.000    4.667 
#    0.000    1.667    0.000    9.500    0.000    0.000 
#    0.000    0.000    0.000    0.000    0.000    0.000 
#
# Total GULP energy -133867.902614 kJ/mol
# GULP energy per Si atom -5577.829276 kJ/mol
# Density = 2.099836 g / cm^3
# Si number density = 21.046264 Si / 1000 Ang^3
#
#
#
# Elastic Constant Matrix: (Units=GPa)
#
#
# Indices 1 2 3 4 5 6 
#
# 1 52.9844 -2.3982 10.3955 0.0000 0.0000 0.0000
# 2 -2.3982 130.6333 125.9213 0.0000 0.0000 0.0000
# 3 10.3955 125.9213 280.7474 0.0000 0.0000 0.0000
# 4 0.0000 0.0000 0.0000 -6.7728 0.0000 0.0000
# 5 0.0000 0.0000 0.0000 0.0000 11.3032 0.0000
# 6 0.0000 0.0000 0.0000 0.0000 0.0000 18.3970
#
#
#
# Elastic Compliance Matrix: (Units=1/GPa)
#
#
# Indices 1 2 3 4 5 6 
#
# 1 0.019258 0.001834 -0.001536 0.000000 0.000000 0.000000
# 2 0.001834 0.013660 -0.006195 0.000000 0.000000 0.000000
# 3 -0.001536 -0.006195 0.006397 0.000000 0.000000 0.000000
# 4 0.000000 0.000000 0.000000 -0.147650 0.000000 0.000000
# 5 0.000000 0.000000 0.000000 0.000000 0.088470 0.000000
# 6 0.000000 0.000000 0.000000 0.000000 0.000000 0.054357
#
#
# Mechanical properties :
#
#
# Convention : Reuss Voigt Hill
#
# Bulk Modulus (GPa) = 36.33477 81.35582 58.84530
# Shear Modulus (GPa) = 90.15613 26.61524 58.38569
#
# Velocity S-wave (km/s) = 6.55211 3.55999 5.27274
# Velocity P-wave (km/s) = 8.63376 7.45906 8.06782
#
# Compressibility (1/GPa) = 0.02752185
#
# Stress axis : x y z
#
# Youngs Moduli (GPa) = 51.92717 73.20700 156.31802
#
# Poissons Ratio (x) = -0.13424 0.24003
# Poissons Ratio (y) = -0.09522 0.96834
# Poissons Ratio (z) = 0.07974 0.45349
#
# Static dielectric constant tensor:
#      x y z
#    x 1.825340 0.000000 0.000000 
#    y 0.000000 1.695920 0.000000 
#    z 0.000000 0.000000 1.785100 
# 
# From -- ./inp_files/28836.got.cif
#   From: 2010.05.17/outbox.cif.g08.bks.cpg/sg42_15_cif.got.tgz:28836.got - 2010.06.03 19:03:34.
