data_PCOD9368769
_publ_section_title
;
Structure prediction by ZEFSAII (Michael W. Deem and Ramdas Pophale) SiO2 
 PCOD9368769
Probable space group: F M M 2
;
_chemical_formula_sum "Si O2"
_cell_formula_units_Z 116
_cell_length_a 27.760016
_cell_length_b 7.752497
_cell_length_c 29.842856
_cell_angle_alpha 90.000000
_cell_angle_beta 90.000000
_cell_angle_gamma 90.000000
_cell_volume 6422.464350
_symmetry_space_group_name_H-M "F M M 2"
_symmetry_group_IT_number 42
_symmetry_cell_setting 'orthorhombic'
loop_
_space_group_symop_operation_xyz
x,y,z
-x,-y,z
-x,y,z
x,-y,z
x,1/2+y,1/2+z
-x,1/2-y,1/2+z
-x,1/2+y,1/2+z
x,1/2-y,1/2+z
1/2+x,y,1/2+z
1/2-x,-y,1/2+z
1/2-x,y,1/2+z
1/2+x,-y,1/2+z
1/2+x,1/2+y,z
1/2-x,1/2-y,z
1/2-x,1/2+y,z
1/2+x,1/2-y,z
loop_
_atom_site_type_symbol
_atom_site_label
_atom_site_fract_x
_atom_site_fract_y
_atom_site_fract_z
Si Si1 0.396500 0.795043 0.190550
Si Si2 0.944945 0.207714 0.099782
Si Si3 0.447159 0.298482 0.276162
Si Si4 0.000000 0.500000 0.386998
Si Si5 0.855868 0.803734 0.830993
Si Si6 0.557147 0.792064 0.499497
Si Si7 0.304279 0.792803 0.245402
Si Si8 0.921903 0.191989 0.404307
O O1 0.409354 0.756709 0.139531
O O2 0.436650 0.715849 0.223396
O O3 0.344979 0.732846 0.210061
O O4 0.398452 0.000000 0.196617
O O5 0.930421 0.265768 0.049773
O O6 0.000000 0.268676 0.108670
O O7 0.946984 0.000000 0.098043
O O8 0.500000 0.229485 0.287171
O O9 0.444693 0.500000 0.288432
O O10 0.404773 0.200166 0.301024
O O11 0.042130 0.653413 0.390392
O O12 0.817787 0.726822 0.795452
O O13 0.872739 0.711766 0.876047
O O14 0.842467 0.000000 0.841548
O O15 0.500000 0.755965 0.493065
O O16 0.584415 0.711929 0.457675
O O17 0.562009 0.000000 0.496970
O O18 0.250000 0.750000 0.232875
O O19 0.308504 0.000000 0.247820
O O20 0.941380 0.000000 0.395249
#
# Coordination Sequence:
#
# PCOD9368769 Si02
#       8
#    16  16  16   4  16  16  16  16
#     4  10  20  33  46  69  99 127 161 207 259 305
#     4   9  18  30  49  71 101 140 175 207 248 291
#     4  10  20  30  43  64  93 129 171 202 235 296
#     4  12  22  36  48  70 112 148 174 240 252 286
#     4  10  21  36  49  72 104 131 161 212 265 306
#     4   9  16  31  47  67 100 139 176 220 256 285
#     4   9  20  37  57  75  97 128 163 212 271 320
#     4  12  22  33  52  74 102 147 189 216 263 306
#
# _framework density 18.061603000000002
#
# number of rings (size 3 to 8) (size 9 to 14) (size 15 to 20)
#    0.000    2.069    2.069    3.517    0.966    6.897 
#    0.000    1.379    0.000    0.000    0.000    0.966 
#    0.000    6.621    0.000    0.000    0.000    0.000 
#
# Total GULP energy -161488.530790 kJ/mol
# GULP energy per Si atom -5568.570027 kJ/mol
# Density = 1.802049 g / cm^3
# Si number density = 18.061603 Si / 1000 Ang^3
#
#
#
# Elastic Constant Matrix: (Units=GPa)
#
#
# Indices 1 2 3 4 5 6 
#
# 1 64.3007 4.7752 35.2540 0.0001 -0.0001 -0.0007
# 2 4.7752 73.4186 10.3293 0.0004 0.0000 -0.0008
# 3 35.2540 10.3293 144.1996 0.0000 0.0000 0.0000
# 4 0.0001 0.0004 0.0000 18.0727 0.0000 -0.0001
# 5 -0.0001 0.0000 0.0000 0.0000 18.5309 0.0001
# 6 -0.0007 -0.0008 0.0000 -0.0001 0.0001 9.6409
#
#
#
# Elastic Compliance Matrix: (Units=1/GPa)
#
#
# Indices 1 2 3 4 5 6 
#
# 1 0.017982 -0.000557 -0.004356 0.000000 0.000000 0.000001
# 2 -0.000557 0.013776 -0.000851 0.000000 0.000000 0.000001
# 3 -0.004356 -0.000851 0.008061 0.000000 0.000000 0.000000
# 4 0.000000 0.000000 0.000000 0.055332 0.000000 0.000000
# 5 0.000000 0.000000 0.000000 0.000000 0.053964 0.000000
# 6 0.000001 0.000001 0.000000 0.000000 0.000000 0.103725
#
#
# Mechanical properties :
#
#
# Convention : Reuss Voigt Hill
#
# Bulk Modulus (GPa) = 35.34626 42.51509 38.93068
# Shear Modulus (GPa) = 18.26168 24.68626 21.47397
#
# Velocity S-wave (km/s) = 3.18319 3.70101 3.45183
# Velocity P-wave (km/s) = 5.75523 6.46942 6.12274
#
# Compressibility (1/GPa) = 0.02829154
#
# Stress axis : x y z
#
# Youngs Moduli (GPa) = 55.61210 72.58778 124.05703
#
# Poissons Ratio (x) = 0.04041 0.54043
# Poissons Ratio (y) = 0.03096 0.10554
# Poissons Ratio (z) = 0.24226 0.06175
#
# Static dielectric constant tensor:
#      x y z
#    x 1.604810 0.000000 0.000000 
#    y 0.000000 1.672110 0.000000 
#    z 0.000000 0.000000 1.684730 
# 
# From -- ./inp_files/34858.got.cif
#   From: 2010.05.17/outbox.cif.g08.bks.cpg/sg42_18_cif.got.tgz:34858.got - 2010.06.03 19:03:34.
