data_PCOD9368882
_publ_section_title
;
Structure prediction by ZEFSAII (Michael W. Deem and Ramdas Pophale) SiO2 
 PCOD9368882
Probable space group: F M M 2
;
_chemical_formula_sum "Si O2"
_cell_formula_units_Z 96
_cell_length_a 25.391909
_cell_length_b 21.550272
_cell_length_c 9.635456
_cell_angle_alpha 90.000000
_cell_angle_beta 90.000000
_cell_angle_gamma 90.000000
_cell_volume 5272.546051
_symmetry_space_group_name_H-M "F M M 2"
_symmetry_group_IT_number 42
_symmetry_cell_setting 'orthorhombic'
loop_
_space_group_symop_operation_xyz
x,y,z
-x,-y,z
-x,y,z
x,-y,z
x,1/2+y,1/2+z
-x,1/2-y,1/2+z
-x,1/2+y,1/2+z
x,1/2-y,1/2+z
1/2+x,y,1/2+z
1/2-x,-y,1/2+z
1/2-x,y,1/2+z
1/2+x,-y,1/2+z
1/2+x,1/2+y,z
1/2-x,1/2-y,z
1/2-x,1/2+y,z
1/2+x,1/2-y,z
loop_
_atom_site_type_symbol
_atom_site_label
_atom_site_fract_x
_atom_site_fract_y
_atom_site_fract_z
Si Si1 0.780960 0.811004 0.275250
Si Si2 0.307177 0.500000 0.240429
Si Si3 0.623505 0.243418 0.170359
Si Si4 0.352641 0.101729 0.928750
Si Si5 0.322203 0.886947 0.226268
Si Si6 0.696748 0.000000 0.408130
Si Si7 0.937794 0.193665 0.412742
O O1 0.750000 0.750000 0.321935
O O2 0.824152 0.786493 0.164829
O O3 0.814781 0.839080 0.400472
O O4 0.737894 0.860972 0.226303
O O5 0.339550 0.558084 0.300292
O O6 0.252880 0.500000 0.327852
O O7 0.299334 0.500000 0.075041
O O8 0.642514 0.175817 0.227633
O O9 0.582385 0.276895 0.270611
O O10 0.592935 0.232262 0.029437
O O11 0.412212 0.125274 0.925830
O O12 0.335843 0.079305 0.080748
O O13 0.329138 0.936273 0.350089
O O14 0.000000 0.194497 0.428225
#
# Coordination Sequence:
#
# PCOD9368882 Si02
#       7
#    16   8  16  16  16   8  16
#     4   9  18  30  50  79 114 147 177 217 268 329
#     4  12  24  38  53  77 112 148 191 227 270 325
#     4   9  20  34  54  83 113 145 182 227 277 332
#     4  10  21  35  54  79 110 146 187 231 268 329
#     4  10  20  34  53  80 115 148 185 221 271 323
#     4  12  24  36  56  79 112 156 184 223 266 329
#     4  10  20  37  58  83 111 145 186 234 284 330
#
# _framework density 18.207522000000001
#
# number of rings (size 3 to 8) (size 9 to 14) (size 15 to 20)
#    0.000    2.000    1.667    2.000    0.000    8.667 
#    0.000    0.417    0.000    0.000    0.000    7.583 
#    0.000    0.000    0.000    0.000    0.000    0.000 
#
# Total GULP energy -133804.633472 kJ/mol
# GULP energy per Si atom -5575.193061 kJ/mol
# Density = 1.816608 g / cm^3
# Si number density = 18.207522 Si / 1000 Ang^3
#
#
#
# Elastic Constant Matrix: (Units=GPa)
#
#
# Indices 1 2 3 4 5 6 
#
# 1 80.3249 16.9505 17.5708 0.0001 0.0000 0.0000
# 2 16.9505 59.6244 26.7347 -0.0001 0.0000 0.0000
# 3 17.5708 26.7347 109.5282 -0.0005 0.0001 0.0001
# 4 0.0001 -0.0001 -0.0005 32.0418 0.0001 0.0001
# 5 0.0000 0.0000 0.0001 0.0001 15.5554 0.0000
# 6 0.0000 0.0000 0.0001 0.0001 0.0000 15.3036
#
#
#
# Elastic Compliance Matrix: (Units=1/GPa)
#
#
# Indices 1 2 3 4 5 6 
#
# 1 0.013425 -0.003201 -0.001372 0.000000 0.000000 0.000000
# 2 -0.003201 0.019596 -0.004270 0.000000 0.000000 0.000000
# 3 -0.001372 -0.004270 0.010392 0.000000 0.000000 0.000000
# 4 0.000000 0.000000 0.000000 0.031209 0.000000 0.000000
# 5 0.000000 0.000000 0.000000 0.000000 0.064286 0.000000
# 6 0.000000 0.000000 0.000000 0.000000 0.000000 0.065344
#
#
# Mechanical properties :
#
#
# Convention : Reuss Voigt Hill
#
# Bulk Modulus (GPa) = 38.86928 41.33216 40.10072
# Shear Modulus (GPa) = 21.69048 25.12824 23.40936
#
# Velocity S-wave (km/s) = 3.45525 3.71900 3.58955
# Velocity P-wave (km/s) = 6.10841 6.41804 6.26514
#
# Compressibility (1/GPa) = 0.02572726
#
# Stress axis : x y z
#
# Youngs Moduli (GPa) = 74.48694 51.03024 96.22408
#
# Poissons Ratio (x) = 0.16336 0.13205
# Poissons Ratio (y) = 0.23845 0.41085
# Poissons Ratio (z) = 0.10222 0.21788
#
# Static dielectric constant tensor:
#      x y z
#    x 1.609740 0.000000 0.000000 
#    y 0.000000 1.714890 0.000000 
#    z 0.000000 0.000000 1.640290 
# 
# From -- ./inp_files/4755.got.cif
#   From: 2010.05.17/outbox.cif.g08.bks.cpg/sg42_3_cif.got.tgz:4755.got - 2010.06.03 19:03:34.
