data_PCOD9368555
_publ_section_title
;
Structure prediction by ZEFSAII (Michael W. Deem and Ramdas Pophale) SiO2 
 PCOD9368555
Probable space group: F M M 2
;
_chemical_formula_sum "Si O2"
_cell_formula_units_Z 80
_cell_length_a 16.083533
_cell_length_b 7.757265
_cell_length_c 30.101835
_cell_angle_alpha 90.000000
_cell_angle_beta 90.000000
_cell_angle_gamma 90.000000
_cell_volume 3755.632194
_symmetry_space_group_name_H-M "F M M 2"
_symmetry_group_IT_number 42
_symmetry_cell_setting 'orthorhombic'
loop_
_space_group_symop_operation_xyz
x,y,z
-x,-y,z
-x,y,z
x,-y,z
x,1/2+y,1/2+z
-x,1/2-y,1/2+z
-x,1/2+y,1/2+z
x,1/2-y,1/2+z
1/2+x,y,1/2+z
1/2-x,-y,1/2+z
1/2-x,y,1/2+z
1/2+x,-y,1/2+z
1/2+x,1/2+y,z
1/2-x,1/2-y,z
1/2-x,1/2+y,z
1/2+x,1/2-y,z
loop_
_atom_site_type_symbol
_atom_site_label
_atom_site_fract_x
_atom_site_fract_y
_atom_site_fract_z
Si Si1 0.598491 0.709112 0.337280
Si Si2 0.404408 0.292917 0.434456
Si Si3 0.658488 0.296994 0.029470
Si Si4 0.158112 0.792860 0.243198
Si Si5 0.500000 0.212258 0.583883
Si Si6 0.000000 0.211108 0.186297
O O1 0.500000 0.747850 0.332922
O O2 0.605054 0.500000 0.337238
O O3 0.626005 0.770572 0.386157
O O4 0.645209 0.773892 0.293647
O O5 0.500000 0.231638 0.440746
O O6 0.407530 0.500000 0.431881
O O7 0.352600 0.248623 0.477735
O O8 0.651194 0.500000 0.032542
O O9 0.750000 0.250000 0.045510
O O10 0.581860 0.224741 0.057898
O O11 0.250000 0.750000 0.226853
O O12 0.082601 0.731524 0.212378
O O13 0.151135 0.000000 0.244882
O O14 0.500000 0.264889 0.635147
O O15 0.500000 0.000000 0.583437
O O16 0.000000 0.000000 0.186850
#
# Coordination Sequence:
#
# PCOD9368555 Si02
#       6
#    16  16  16  16   8   8
#     4   8  14  28  51  78 106 141 180 214 252 308
#     4   9  17  31  54  81 110 143 181 221 263 314
#     4  11  22  37  56  80 110 142 181 224 269 320
#     4  10  19  33  56  82 108 139 178 217 260 315
#     4   9  20  38  58  79 105 137 177 225 272 321
#     4   9  18  36  60  79 101 141 181 213 264 331
#
# _framework density 21.301341000000001
#
# number of rings (size 3 to 8) (size 9 to 14) (size 15 to 20)
#    0.000    2.600    2.000    1.800    0.000    1.600 
#    0.000    3.500    0.000    4.800    0.000    0.000 
#    0.000    0.000    0.000    0.000    0.000    0.000 
#
# Total GULP energy -111629.430379 kJ/mol
# GULP energy per Si atom -5581.471519 kJ/mol
# Density = 2.125286 g / cm^3
# Si number density = 21.301341 Si / 1000 Ang^3
#
#
#
# Elastic Constant Matrix: (Units=GPa)
#
#
# Indices 1 2 3 4 5 6 
#
# 1 161.1640 3.0926 101.4869 0.0000 0.0000 0.0000
# 2 3.0926 28.3177 9.4918 0.0000 0.0000 0.0000
# 3 101.4869 9.4918 156.8138 0.0000 0.0000 0.0000
# 4 0.0000 0.0000 0.0000 8.0418 0.0000 0.0000
# 5 0.0000 0.0000 0.0000 0.0000 2.0357 0.0000
# 6 0.0000 0.0000 0.0000 0.0000 0.0000 8.6494
#
#
#
# Elastic Compliance Matrix: (Units=1/GPa)
#
#
# Indices 1 2 3 4 5 6 
#
# 1 0.010510 0.001156 -0.006872 0.000000 0.000000 0.000000
# 2 0.001156 0.036172 -0.002937 0.000000 0.000000 0.000000
# 3 -0.006872 -0.002937 0.011002 0.000000 0.000000 0.000000
# 4 0.000000 0.000000 0.000000 0.124350 0.000000 0.000000
# 5 0.000000 0.000000 0.000000 0.000000 0.491234 0.000000
# 6 0.000000 0.000000 0.000000 0.000000 0.000000 0.115615
#
#
# Mechanical properties :
#
#
# Convention : Reuss Voigt Hill
#
# Bulk Modulus (GPa) = 24.76661 63.82644 44.29652
# Shear Modulus (GPa) = 6.10017 19.22700 12.66358
#
# Velocity S-wave (km/s) = 1.69410 3.00762 2.44088
# Velocity P-wave (km/s) = 3.93429 6.48766 5.36509
#
# Compressibility (1/GPa) = 0.04037695
#
# Stress axis : x y z
#
# Youngs Moduli (GPa) = 95.14825 27.64569 90.89213
#
# Poissons Ratio (x) = -0.03195 0.62459
# Poissons Ratio (y) = -0.10995 0.26698
# Poissons Ratio (z) = 0.65384 0.08120
#
# Static dielectric constant tensor:
#      x y z
#    x 1.752870 0.000000 0.000000 
#    y 0.000000 1.791690 0.000000 
#    z 0.000000 0.000000 1.776370 
# 
# From -- ./inp_files/31308.got.cif
#   From: 2010.05.17/outbox.cif.g08.bks.cpg/sg42_16_cif.got.tgz:31308.got - 2010.06.03 19:03:34.
