data_PCOD9368039
_publ_section_title
;
Structure prediction by ZEFSAII (Michael W. Deem and Ramdas Pophale) SiO2 
 PCOD9368039
Probable space group: A B A 2
;
_chemical_formula_sum "Si O2"
_cell_formula_units_Z 12
_cell_length_a 10.750249
_cell_length_b 4.740884
_cell_length_c 8.828488
_cell_angle_alpha 90.000000
_cell_angle_beta 90.000000
_cell_angle_gamma 90.000000
_cell_volume 449.949925
_symmetry_space_group_name_H-M "A B A 2"
_symmetry_group_IT_number 41
_symmetry_cell_setting 'orthorhombic'
loop_
_space_group_symop_operation_xyz
x,y,z
-x,-y,z
1/2-x,y,1/2+z
1/2+x,-y,1/2+z
x,1/2+y,1/2+z
-x,1/2-y,1/2+z
1/2-x,1/2+y,z
1/2+x,1/2-y,z
loop_
_atom_site_type_symbol
_atom_site_label
_atom_site_fract_x
_atom_site_fract_y
_atom_site_fract_z
Si Si1 0.000000 0.000000 0.933720
Si Si2 0.664397 0.849289 0.162477
O O1 0.093751 0.166355 0.822068
O O2 0.924084 0.220193 0.035548
O O3 0.791349 0.670893 0.152861
#
# Coordination Sequence:
#
# PCOD9368039 Si02
#       2
#     4   8
#     4  12  28  52  80 116 156 204 256 318 384 458
#     4  12  28  50  78 114 154 202 256 316 382 456
#
# _framework density 26.669632
#
# number of rings (size 3 to 8) (size 9 to 14) (size 15 to 20)
#    0.000    0.000    0.000    8.000    0.000   18.667 
#    0.000    0.000    0.000    0.000    0.000    0.000 
#    0.000    0.000    0.000    0.000    0.000    0.000 
#
# Total GULP energy -33729.407413 kJ/mol
# GULP energy per Si atom -5621.567902 kJ/mol
# Density = 2.660893 g / cm^3
# Si number density = 26.669632 Si / 1000 Ang^3
#
#
#
# Elastic Constant Matrix: (Units=GPa)
#
#
# Indices 1 2 3 4 5 6 
#
# 1 125.0693 23.7914 70.3819 0.0000 0.0000 0.0000
# 2 23.7914 104.1816 47.5987 0.0000 0.0000 0.0000
# 3 70.3819 47.5987 207.6176 0.0000 0.0000 0.0000
# 4 0.0000 0.0000 0.0000 56.0473 0.0000 0.0000
# 5 0.0000 0.0000 0.0000 0.0000 39.1675 0.0000
# 6 0.0000 0.0000 0.0000 0.0000 0.0000 45.2979
#
#
#
# Elastic Compliance Matrix: (Units=1/GPa)
#
#
# Indices 1 2 3 4 5 6 
#
# 1 0.009942 -0.000816 -0.003183 0.000000 0.000000 0.000000
# 2 -0.000816 0.010789 -0.002197 0.000000 0.000000 0.000000
# 3 -0.003183 -0.002197 0.006399 0.000000 0.000000 0.000000
# 4 0.000000 0.000000 0.000000 0.017842 0.000000 0.000000
# 5 0.000000 0.000000 0.000000 0.000000 0.025531 0.000000
# 6 0.000000 0.000000 0.000000 0.000000 0.000000 0.022076
#
#
# Mechanical properties :
#
#
# Convention : Reuss Voigt Hill
#
# Bulk Modulus (GPa) = 67.85229 80.04583 73.94906
# Shear Modulus (GPa) = 45.50230 47.77563 46.63896
#
# Velocity S-wave (km/s) = 4.13503 4.23707 4.18636
# Velocity P-wave (km/s) = 6.94946 7.34956 7.15231
#
# Compressibility (1/GPa) = 0.01473790
#
# Stress axis : x y z
#
# Youngs Moduli (GPa) = 100.58162 92.68995 156.26678
#
# Poissons Ratio (x) = 0.07564 0.49744
# Poissons Ratio (y) = 0.08208 0.34328
# Poissons Ratio (z) = 0.32018 0.20362
#
# Static dielectric constant tensor:
#      x y z
#    x 2.087490 0.000000 0.000000 
#    y 0.000000 2.006570 0.000000 
#    z 0.000000 0.000000 2.004310 
# 
# From -- ./inp_files/16.got.cif
#   From: 2010.05.17/outbox.cif.g08.bks.cpg/sg41_1_cif.got.tgz:16.got - 2010.06.03 18:54:24.
