data_PCOD9368014
_publ_section_title
;
Structure prediction by ZEFSAII (Michael W. Deem and Ramdas Pophale) SiO2 
 PCOD9368014
Probable space group: A B A 2
;
_chemical_formula_sum "Si O2"
_cell_formula_units_Z 56
_cell_length_a 14.331725
_cell_length_b 14.537476
_cell_length_c 10.499381
_cell_angle_alpha 90.000000
_cell_angle_beta 90.000000
_cell_angle_gamma 90.000000
_cell_volume 2187.515670
_symmetry_space_group_name_H-M "A B A 2"
_symmetry_group_IT_number 41
_symmetry_cell_setting 'orthorhombic'
loop_
_space_group_symop_operation_xyz
x,y,z
-x,-y,z
1/2-x,y,1/2+z
1/2+x,-y,1/2+z
x,1/2+y,1/2+z
-x,1/2-y,1/2+z
1/2-x,1/2+y,z
1/2+x,1/2-y,z
loop_
_atom_site_type_symbol
_atom_site_label
_atom_site_fract_x
_atom_site_fract_y
_atom_site_fract_z
Si Si1 0.685112 0.239174 0.665800
Si Si2 0.511158 0.687706 0.689469
Si Si3 0.112262 0.348742 0.420766
Si Si4 0.859878 0.343352 0.618783
Si Si5 0.000000 0.500000 0.056549
Si Si6 0.743567 0.556224 0.234667
Si Si7 0.000000 0.000000 0.082457
Si Si8 0.204718 0.047096 0.476896
O O1 0.599890 0.305142 0.690530
O O2 0.673348 0.210755 0.517454
O O3 0.782633 0.286367 0.700890
O O4 0.670456 0.140191 0.731640
O O5 0.542159 0.708722 0.833442
O O6 0.562129 0.763513 0.601213
O O7 0.533165 0.585996 0.640928
O O8 0.174577 0.397694 0.315451
O O9 0.057361 0.428505 0.495505
O O10 0.785345 0.377732 0.511457
O O11 0.923824 0.433275 0.650141
O O12 0.908626 0.456336 0.987827
O O13 0.767801 0.525418 0.091447
O O14 0.719317 0.474970 0.329485
#
# Coordination Sequence:
#
# PCOD9368014 Si02
#       8
#     8   8   8   8   4   8   4   8
#     4  12  26  50  78 122 160 215 283 349 408 503
#     4  12  27  48  79 115 163 218 277 345 423 496
#     4  12  25  46  78 114 160 215 277 338 417 503
#     4  12  26  49  80 119 164 218 274 346 419 504
#     4  12  25  52  81 116 156 215 281 344 422 495
#     4  12  25  49  80 111 164 214 269 341 415 492
#     4  12  25  46  81 116 164 219 279 340 434 507
#     4  12  27  50  81 116 161 214 272 339 417 506
#
# _framework density 25.599816000000001
#
# number of rings (size 3 to 8) (size 9 to 14) (size 15 to 20)
#    0.000    0.000    8.571    0.429    0.000    3.429 
#    2.571    0.000    0.000    0.000    0.000    0.000 
#    0.000    0.000    0.000    0.000    0.000    0.000 
#
# Total GULP energy -156104.410531 kJ/mol
# GULP energy per Si atom -5575.157519 kJ/mol
# Density = 2.554155 g / cm^3
# Si number density = 25.599816 Si / 1000 Ang^3
#
#
#
# Elastic Constant Matrix: (Units=GPa)
#
#
# Indices 1 2 3 4 5 6 
#
# 1 137.6988 37.1604 20.1471 0.0000 0.0000 0.0000
# 2 37.1604 140.4161 35.2667 0.0000 0.0000 0.0000
# 3 20.1471 35.2667 77.0460 0.0000 0.0000 0.0000
# 4 0.0000 0.0000 0.0000 17.9698 0.0000 0.0000
# 5 0.0000 0.0000 0.0000 0.0000 23.6315 0.0000
# 6 0.0000 0.0000 0.0000 0.0000 0.0000 63.7870
#
#
#
# Elastic Compliance Matrix: (Units=1/GPa)
#
#
# Indices 1 2 3 4 5 6 
#
# 1 0.007927 -0.001782 -0.001257 0.000000 0.000000 0.000000
# 2 -0.001782 0.008447 -0.003401 0.000000 0.000000 0.000000
# 3 -0.001257 -0.003401 0.014865 0.000000 0.000000 0.000000
# 4 0.000000 0.000000 0.000000 0.055649 0.000000 0.000000
# 5 0.000000 0.000000 0.000000 0.000000 0.042316 0.000000
# 6 0.000000 0.000000 0.000000 0.000000 0.000000 0.015677
#
#
# Mechanical properties :
#
#
# Convention : Reuss Voigt Hill
#
# Bulk Modulus (GPa) = 54.46850 60.03437 57.25144
# Shear Modulus (GPa) = 30.50989 38.58344 34.54667
#
# Velocity S-wave (km/s) = 3.45599 3.88645 3.67752
# Velocity P-wave (km/s) = 6.10314 6.60616 6.35962
#
# Compressibility (1/GPa) = 0.01835923
#
# Stress axis : x y z
#
# Youngs Moduli (GPa) = 126.14947 118.37925 67.27395
#
# Poissons Ratio (x) = 0.21097 0.08457
# Poissons Ratio (y) = 0.22481 0.22878
# Poissons Ratio (z) = 0.15859 0.40257
#
# Static dielectric constant tensor:
#      x y z
#    x 2.064500 0.000000 0.000000 
#    y 0.000000 2.131330 0.000000 
#    z 0.000000 0.000000 2.012270 
# 
# From -- ./inp_files/5615.got.cif
#   From: 2010.05.17/outbox.cif.g08.bks.cpg/sg41_3_cif.got.tgz:5615.got - 2010.06.03 18:54:24.
