data_PCOD9368515
_publ_section_title
;
Structure prediction by ZEFSAII (Michael W. Deem and Ramdas Pophale) SiO2 
 PCOD9368515
Probable space group: F M M 2
;
_chemical_formula_sum "Si O2"
_cell_formula_units_Z 80
_cell_length_a 17.125347
_cell_length_b 25.744581
_cell_length_c 7.096675
_cell_angle_alpha 90.000000
_cell_angle_beta 90.000000
_cell_angle_gamma 90.000000
_cell_volume 3128.816727
_symmetry_space_group_name_H-M "F M M 2"
_symmetry_group_IT_number 42
_symmetry_cell_setting 'orthorhombic'
loop_
_space_group_symop_operation_xyz
x,y,z
-x,-y,z
-x,y,z
x,-y,z
x,1/2+y,1/2+z
-x,1/2-y,1/2+z
-x,1/2+y,1/2+z
x,1/2-y,1/2+z
1/2+x,y,1/2+z
1/2-x,-y,1/2+z
1/2-x,y,1/2+z
1/2+x,-y,1/2+z
1/2+x,1/2+y,z
1/2-x,1/2-y,z
1/2-x,1/2+y,z
1/2+x,1/2-y,z
loop_
_atom_site_type_symbol
_atom_site_label
_atom_site_fract_x
_atom_site_fract_y
_atom_site_fract_z
Si Si1 0.914283 0.411871 0.207310
Si Si2 0.310765 0.000000 0.133162
Si Si3 0.825260 0.787884 0.351927
Si Si4 0.411713 0.303422 0.710754
Si Si5 0.634429 0.000000 0.702331
Si Si6 0.412656 0.114879 0.755810
O O1 0.843644 0.449982 0.238477
O O2 0.906229 0.358062 0.318511
O O3 0.000000 0.435081 0.242687
O O4 0.913319 0.396470 0.983975
O O5 0.219637 0.000000 0.113665
O O6 0.350894 0.000000 0.928566
O O7 0.750000 0.750000 0.338621
O O8 0.897381 0.748405 0.323875
O O9 0.839327 0.804476 0.566307
O O10 0.845730 0.840252 0.233973
O O11 0.500000 0.303383 0.633719
O O12 0.597497 0.057051 0.666104
O O13 0.500000 0.134339 0.709774
#
# Coordination Sequence:
#
# PCOD9368515 Si02
#       6
#    16   8  16  16   8  16
#     4   8  16  31  55  77 102 141 187 223 263 328
#     4  10  19  33  53  79 111 134 176 230 282 320
#     4  11  22  35  56  84 114 145 184 234 279 324
#     4  10  20  37  56  79 111 150 189 225 272 336
#     4  10  21  35  57  83 107 140 178 232 280 326
#     4   9  18  36  58  79 105 144 191 226 265 330
#
# _framework density 25.568769
#
# number of rings (size 3 to 8) (size 9 to 14) (size 15 to 20)
#    0.000    2.400    0.000    4.200    2.800    2.400 
#    3.600    0.000    0.000    2.400    0.000    0.000 
#    0.000    0.000    0.000    0.000    0.000    0.000 
#
# Total GULP energy -111509.276970 kJ/mol
# GULP energy per Si atom -5575.463849 kJ/mol
# Density = 2.551057 g / cm^3
# Si number density = 25.568769 Si / 1000 Ang^3
#
#
#
# Elastic Constant Matrix: (Units=GPa)
#
#
# Indices 1 2 3 4 5 6 
#
# 1 150.7546 87.4386 15.8513 0.0000 0.0001 0.0000
# 2 87.4386 174.6229 1.6856 0.0000 0.0000 0.0000
# 3 15.8513 1.6856 42.3051 0.0000 0.0002 0.0000
# 4 0.0000 0.0000 0.0000 13.8496 0.0000 0.0000
# 5 0.0001 0.0000 0.0002 0.0000 7.2975 0.0000
# 6 0.0000 0.0000 0.0000 0.0000 0.0000 48.1716
#
#
#
# Elastic Compliance Matrix: (Units=1/GPa)
#
#
# Indices 1 2 3 4 5 6 
#
# 1 0.009838 -0.004892 -0.003491 0.000000 0.000000 0.000000
# 2 -0.004892 0.008162 0.001508 0.000000 0.000000 0.000000
# 3 -0.003491 0.001508 0.024886 0.000000 0.000000 0.000000
# 4 0.000000 0.000000 0.000000 0.072204 0.000000 0.000000
# 5 0.000000 0.000000 0.000000 0.000000 0.137033 0.000000
# 6 0.000000 0.000000 0.000000 0.000000 0.000000 0.020759
#
#
# Mechanical properties :
#
#
# Convention : Reuss Voigt Hill
#
# Bulk Modulus (GPa) = 34.32390 64.18148 49.25269
# Shear Modulus (GPa) = 16.87220 31.37754 24.12487
#
# Velocity S-wave (km/s) = 2.57159 3.50692 3.07502
# Velocity P-wave (km/s) = 4.71919 6.44624 5.64910
#
# Compressibility (1/GPa) = 0.02913422
#
# Stress axis : x y z
#
# Youngs Moduli (GPa) = 101.64594 122.52076 40.18339
#
# Poissons Ratio (x) = 0.59943 0.14029
# Poissons Ratio (y) = 0.49730 -0.06060
# Poissons Ratio (z) = 0.35488 -0.18476
#
# Static dielectric constant tensor:
#      x y z
#    x 1.957230 0.000000 0.000000 
#    y 0.000000 2.088940 0.000000 
#    z 0.000000 0.000000 2.139130 
# 
# From -- ./inp_files/7790.got.cif
#   From: 2010.05.17/outbox.cif.g08.bks.cpg/sg42_4_cif.got.tgz:7790.got - 2010.06.03 19:03:34.
