data_PCOD9368879
_publ_section_title
;
Structure prediction by ZEFSAII (Michael W. Deem and Ramdas Pophale) SiO2 
 PCOD9368879
Probable space group: F M M 2
;
_chemical_formula_sum "Si O2"
_cell_formula_units_Z 128
_cell_length_a 17.354725
_cell_length_b 21.413298
_cell_length_c 15.029909
_cell_angle_alpha 90.000000
_cell_angle_beta 90.000000
_cell_angle_gamma 90.000000
_cell_volume 5585.443311
_symmetry_space_group_name_H-M "F M M 2"
_symmetry_group_IT_number 42
_symmetry_cell_setting 'orthorhombic'
loop_
_space_group_symop_operation_xyz
x,y,z
-x,-y,z
-x,y,z
x,-y,z
x,1/2+y,1/2+z
-x,1/2-y,1/2+z
-x,1/2+y,1/2+z
x,1/2-y,1/2+z
1/2+x,y,1/2+z
1/2-x,-y,1/2+z
1/2-x,y,1/2+z
1/2+x,-y,1/2+z
1/2+x,1/2+y,z
1/2-x,1/2-y,z
1/2-x,1/2+y,z
1/2+x,1/2-y,z
loop_
_atom_site_type_symbol
_atom_site_label
_atom_site_fract_x
_atom_site_fract_y
_atom_site_fract_z
Si Si1 0.779795 0.425963 0.709110
Si Si2 0.411740 0.246803 0.857487
Si Si3 0.241251 0.610399 0.394458
Si Si4 0.414736 0.103261 0.335317
Si Si5 0.083693 0.075166 0.445296
Si Si6 0.678304 0.780464 0.519343
Si Si7 0.877706 0.926547 0.633734
Si Si8 0.090604 0.834415 0.182516
O O1 0.780437 0.500000 0.734110
O O2 0.749661 0.380948 0.788015
O O3 0.715072 0.418744 0.633457
O O4 0.862500 0.399067 0.686173
O O5 0.500000 0.231797 0.878239
O O6 0.359110 0.236318 0.943673
O O7 0.408882 0.321565 0.844146
O O8 0.390118 0.208890 0.768700
O O9 0.158141 0.573780 0.387860
O O10 0.217465 0.663836 0.462848
O O11 0.500000 0.083784 0.366287
O O12 0.408363 0.091727 0.229925
O O13 0.171128 0.088021 0.412335
O O14 0.085464 0.101379 0.546009
O O15 0.000000 0.094561 0.403675
O O16 0.080678 0.000000 0.444506
O O17 0.750000 0.750000 0.569709
O O18 0.616591 0.801912 0.590972
O O19 0.892554 0.000000 0.628245
O O20 0.000000 0.844209 0.183202
#
# Coordination Sequence:
#
# PCOD9368879 Si02
#       8
#    16  16  16  16  16  16  16  16
#     4  10  21  39  63  87 118 162 208 260 316 373
#     4   9  20  40  62  87 123 162 205 260 316 379
#     4  10  21  37  58  87 120 157 203 252 306 373
#     4   9  18  34  58  85 114 152 194 243 306 364
#     4  10  20  34  53  78 112 153 195 247 308 363
#     4  11  23  39  63  91 124 166 208 259 323 388
#     4   9  18  33  53  80 113 149 197 252 301 356
#     4  11  24  41  64  94 126 165 214 266 326 395
#
# _framework density 22.916712
#
# number of rings (size 3 to 8) (size 9 to 14) (size 15 to 20)
#    0.000    2.125    0.000    2.625    0.000    7.000 
#    0.000    3.125    0.000    0.750    0.000    7.000 
#    0.000    0.000    0.000    0.000    0.000    0.125 
#
# Total GULP energy -178233.861900 kJ/mol
# GULP energy per Si atom -5569.808184 kJ/mol
# Density = 2.286455 g / cm^3
# Si number density = 22.916712 Si / 1000 Ang^3
#
#
#
# Elastic Constant Matrix: (Units=GPa)
#
#
# Indices 1 2 3 4 5 6 
#
# 1 211.1642 34.5293 45.8175 0.0000 0.0000 0.0000
# 2 34.5293 60.1140 14.0471 0.0000 0.0000 0.0000
# 3 45.8175 14.0471 56.1523 0.0000 0.0000 0.0000
# 4 0.0000 0.0000 0.0000 23.1102 0.0000 0.0000
# 5 0.0000 0.0000 0.0000 0.0000 27.5003 0.0000
# 6 0.0000 0.0000 0.0000 0.0000 0.0000 18.6723
#
#
#
# Elastic Compliance Matrix: (Units=1/GPa)
#
#
# Indices 1 2 3 4 5 6 
#
# 1 0.006084 -0.002479 -0.004344 0.000000 0.000000 0.000000
# 2 -0.002479 0.018678 -0.002650 0.000000 0.000000 0.000000
# 3 -0.004344 -0.002650 0.022016 0.000000 0.000000 0.000000
# 4 0.000000 0.000000 0.000000 0.043271 0.000000 0.000000
# 5 0.000000 0.000000 0.000000 0.000000 0.036363 0.000000
# 6 0.000000 0.000000 0.000000 0.000000 0.000000 0.053555
#
#
# Mechanical properties :
#
#
# Convention : Reuss Voigt Hill
#
# Bulk Modulus (GPa) = 35.92923 57.35758 46.64341
# Shear Modulus (GPa) = 24.01655 29.39232 26.70444
#
# Velocity S-wave (km/s) = 3.24078 3.58519 3.41733
# Velocity P-wave (km/s) = 5.45122 6.49778 5.99737
#
# Compressibility (1/GPa) = 0.02783249
#
# Stress axis : x y z
#
# Youngs Moduli (GPa) = 164.37818 53.53797 45.42209
#
# Poissons Ratio (x) = 0.13274 0.19730
# Poissons Ratio (y) = 0.40755 0.12035
# Poissons Ratio (z) = 0.71400 0.14185
#
# Static dielectric constant tensor:
#      x y z
#    x 1.935770 0.000000 0.000000 
#    y 0.000000 1.882280 0.000000 
#    z 0.000000 0.000000 1.873250 
# 
# From -- ./inp_files/21257.got.cif
#   From: 2010.05.17/outbox.cif.g08.bks.cpg/sg42_11_cif.got.tgz:21257.got - 2010.06.03 19:03:34.
