data_PCOD9368489
_publ_section_title
;
Structure prediction by ZEFSAII (Michael W. Deem and Ramdas Pophale) SiO2 
 PCOD9368489
Probable space group: F M M 2
;
_chemical_formula_sum "Si O2"
_cell_formula_units_Z 88
_cell_length_a 24.423484
_cell_length_b 8.481352
_cell_length_c 19.059940
_cell_angle_alpha 90.000000
_cell_angle_beta 90.000000
_cell_angle_gamma 90.000000
_cell_volume 3948.155354
_symmetry_space_group_name_H-M "F M M 2"
_symmetry_group_IT_number 42
_symmetry_cell_setting 'orthorhombic'
loop_
_space_group_symop_operation_xyz
x,y,z
-x,-y,z
-x,y,z
x,-y,z
x,1/2+y,1/2+z
-x,1/2-y,1/2+z
-x,1/2+y,1/2+z
x,1/2-y,1/2+z
1/2+x,y,1/2+z
1/2-x,-y,1/2+z
1/2-x,y,1/2+z
1/2+x,-y,1/2+z
1/2+x,1/2+y,z
1/2-x,1/2-y,z
1/2-x,1/2+y,z
1/2+x,1/2-y,z
loop_
_atom_site_type_symbol
_atom_site_label
_atom_site_fract_x
_atom_site_fract_y
_atom_site_fract_z
Si Si1 0.149543 0.000000 0.175880
Si Si2 0.901839 0.673204 0.034052
Si Si3 0.939950 0.500000 0.553036
Si Si4 0.190754 0.818106 0.951318
Si Si5 0.149505 0.167162 0.680925
Si Si6 0.098398 0.328360 0.335308
Si Si7 0.439616 0.500000 0.301093
O O1 0.109369 0.000000 0.108649
O O2 0.180524 0.166264 0.176299
O O3 0.108563 0.000000 0.242969
O O4 0.921687 0.500000 0.011650
O O5 0.933318 0.833322 0.012784
O O6 0.895263 0.670216 0.118262
O O7 0.840831 0.705882 0.005574
O O8 0.000000 0.500000 0.585926
O O9 0.250000 0.750000 0.936390
O O10 0.152530 0.817899 0.882873
O O11 0.193584 0.000000 0.976441
O O12 0.117961 0.166473 0.754614
O O13 0.179806 0.000000 0.674298
O O14 0.071908 0.500000 0.350362
O O15 0.066873 0.163459 0.343693
O O16 0.500000 0.500000 0.268274
#
# Coordination Sequence:
#
# PCOD9368489 Si02
#       7
#     8  16   8  16  16  16   8
#     4   8  15  28  50  80 112 144 188 230 266 326
#     4  10  20  36  59  83 117 149 189 233 278 331
#     4  10  19  34  55  83 117 153 191 230 277 331
#     4  11  23  40  63  85 109 146 189 234 285 340
#     4   8  15  31  54  80 109 149 179 226 281 322
#     4   9  20  37  57  81 116 147 187 231 276 328
#     4  10  19  32  55  85 113 151 189 224 277 329
#
# _framework density 22.288891
#
# number of rings (size 3 to 8) (size 9 to 14) (size 15 to 20)
#    0.000    2.545    0.909    0.818    2.545    0.727 
#    0.000    1.818    0.000   13.091    0.000    0.000 
#    0.000    0.000    0.000    0.000    0.000    0.000 
#
# Total GULP energy -122527.168044 kJ/mol
# GULP energy per Si atom -5569.416729 kJ/mol
# Density = 2.223816 g / cm^3
# Si number density = 22.288891 Si / 1000 Ang^3
#
#
#
# Elastic Constant Matrix: (Units=GPa)
#
#
# Indices 1 2 3 4 5 6 
#
# 1 53.7756 25.5801 21.2378 0.0000 0.0000 0.0000
# 2 25.5801 281.0247 23.6878 0.0000 0.0000 0.0000
# 3 21.2378 23.6878 55.7291 0.0000 0.0000 0.0000
# 4 0.0000 0.0000 0.0000 22.9749 0.0000 0.0000
# 5 0.0000 0.0000 0.0000 0.0000 3.1760 0.0000
# 6 0.0000 0.0000 0.0000 0.0000 0.0000 -9.7000
#
#
#
# Elastic Compliance Matrix: (Units=1/GPa)
#
#
# Indices 1 2 3 4 5 6 
#
# 1 0.022386 -0.001368 -0.007950 0.000000 0.000000 0.000000
# 2 -0.001368 0.003774 -0.001083 0.000000 0.000000 0.000000
# 3 -0.007950 -0.001083 0.021434 0.000000 0.000000 0.000000
# 4 0.000000 0.000000 0.000000 0.043526 0.000000 0.000000
# 5 0.000000 0.000000 0.000000 0.000000 0.314866 0.000000
# 6 0.000000 0.000000 0.000000 0.000000 0.000000 -0.103092
#
#
# Mechanical properties :
#
#
# Convention : Reuss Voigt Hill
#
# Bulk Modulus (GPa) = 37.32288 59.06008 48.19148
# Shear Modulus (GPa) = 15.03193 24.62507 19.82850
#
# Velocity S-wave (km/s) = 2.59976 3.32748 2.98588
# Velocity P-wave (km/s) = 5.07869 6.42790 5.79271
#
# Compressibility (1/GPa) = 0.02679322
#
# Stress axis : x y z
#
# Youngs Moduli (GPa) = 44.67083 264.95816 46.65510
#
# Poissons Ratio (x) = 0.36235 0.37090
# Poissons Ratio (y) = 0.06109 0.05053
# Poissons Ratio (z) = 0.35512 0.28696
#
# Static dielectric constant tensor:
#      x y z
#    x 1.735060 0.000000 0.000000 
#    y 0.000000 1.960150 0.000000 
#    z 0.000000 0.000000 1.843100 
# 
# From -- ./inp_files/23583.got.cif
#   From: 2010.05.17/outbox.cif.g08.bks.cpg/sg42_12_cif.got.tgz:23583.got - 2010.06.03 19:03:34.
