data_PCOD9368747
_publ_section_title
;
Structure prediction by ZEFSAII (Michael W. Deem and Ramdas Pophale) SiO2 
 PCOD9368747
Probable space group: F M M 2
;
_chemical_formula_sum "Si O2"
_cell_formula_units_Z 56
_cell_length_a 13.821762
_cell_length_b 9.113908
_cell_length_c 18.309739
_cell_angle_alpha 90.000000
_cell_angle_beta 90.000000
_cell_angle_gamma 90.000000
_cell_volume 2306.482715
_symmetry_space_group_name_H-M "F M M 2"
_symmetry_group_IT_number 42
_symmetry_cell_setting 'orthorhombic'
loop_
_space_group_symop_operation_xyz
x,y,z
-x,-y,z
-x,y,z
x,-y,z
x,1/2+y,1/2+z
-x,1/2-y,1/2+z
-x,1/2+y,1/2+z
x,1/2-y,1/2+z
1/2+x,y,1/2+z
1/2-x,-y,1/2+z
1/2-x,y,1/2+z
1/2+x,-y,1/2+z
1/2+x,1/2+y,z
1/2-x,1/2-y,z
1/2-x,1/2+y,z
1/2+x,1/2-y,z
loop_
_atom_site_type_symbol
_atom_site_label
_atom_site_fract_x
_atom_site_fract_y
_atom_site_fract_z
Si Si1 0.105730 0.500000 0.843390
Si Si2 0.881665 0.834212 0.607309
Si Si3 0.111927 0.803013 0.773470
Si Si4 0.696164 0.500000 0.895340
Si Si5 0.884584 0.000000 0.055534
O O1 0.114684 0.633142 0.788399
O O2 0.188960 0.500000 0.903214
O O3 0.000000 0.500000 0.878673
O O4 0.853740 0.839177 0.692915
O O5 0.850997 0.667303 0.580973
O O6 0.000000 0.832030 0.602137
O O7 0.852672 0.000000 0.577856
O O8 0.167117 0.868536 0.842065
O O9 0.000000 0.847939 0.778256
O O10 0.638689 0.500000 0.969635
O O11 0.000000 0.000000 0.070481
#
# Coordination Sequence:
#
# PCOD9368747 Si02
#       5
#     8  16  16   8   8
#     4  10  23  40  63  97 134 178 230 290 351 410
#     4   9  17  34  63  99 141 189 229 268 336 426
#     4  10  19  37  67 102 136 174 227 282 338 409
#     4  12  22  38  64 102 139 175 229 296 348 400
#     4  10  21  36  61 101 149 189 227 282 351 418
#
# _framework density 24.279395000000001
#
# number of rings (size 3 to 8) (size 9 to 14) (size 15 to 20)
#    0.000    2.000    1.429    3.000    0.000    3.429 
#    2.571    0.000    0.000   13.714    0.000   10.000 
#    0.000    2.286    0.000    0.000    0.000    0.000 
#
# Total GULP energy -78064.145110 kJ/mol
# GULP energy per Si atom -5576.010365 kJ/mol
# Density = 2.422413 g / cm^3
# Si number density = 24.279395 Si / 1000 Ang^3
#
#
#
# Elastic Constant Matrix: (Units=GPa)
#
#
# Indices 1 2 3 4 5 6 
#
# 1 67.1454 33.2733 14.8377 0.0000 0.0000 0.0000
# 2 33.2733 289.7777 71.1984 0.0000 0.0000 0.0000
# 3 14.8377 71.1984 121.4024 0.0000 0.0000 0.0000
# 4 0.0000 0.0000 0.0000 13.5884 0.0000 0.0000
# 5 0.0000 0.0000 0.0000 0.0000 8.5801 0.0000
# 6 0.0000 0.0000 0.0000 0.0000 0.0000 27.3846
#
#
#
# Elastic Compliance Matrix: (Units=1/GPa)
#
#
# Indices 1 2 3 4 5 6 
#
# 1 0.015899 -0.001575 -0.001019 0.000000 0.000000 0.000000
# 2 -0.001575 0.004188 -0.002264 0.000000 0.000000 0.000000
# 3 -0.001019 -0.002264 0.009689 0.000000 0.000000 0.000000
# 4 0.000000 0.000000 0.000000 0.073592 0.000000 0.000000
# 5 0.000000 0.000000 0.000000 0.000000 0.116549 0.000000
# 6 0.000000 0.000000 0.000000 0.000000 0.000000 0.036517
#
#
# Mechanical properties :
#
#
# Convention : Reuss Voigt Hill
#
# Bulk Modulus (GPa) = 49.85093 79.66047 64.75570
# Shear Modulus (GPa) = 18.32595 33.84501 26.08548
#
# Velocity S-wave (km/s) = 2.75033 3.73766 3.28134
# Velocity P-wave (km/s) = 5.53738 7.17690 6.40978
#
# Compressibility (1/GPa) = 0.02005981
#
# Stress axis : x y z
#
# Youngs Moduli (GPa) = 62.89767 238.78086 103.20805
#
# Poissons Ratio (x) = 0.37610 0.10521
# Poissons Ratio (y) = 0.09907 0.23362
# Poissons Ratio (z) = 0.06412 0.54050
#
# Static dielectric constant tensor:
#      x y z
#    x 2.024330 0.000000 0.000000 
#    y 0.000000 1.975530 0.000000 
#    z 0.000000 0.000000 1.827850 
# 
# From -- ./inp_files/23087.got.cif
#   From: 2010.05.17/outbox.cif.g08.bks.cpg/sg42_12_cif.got.tgz:23087.got - 2010.06.03 19:03:34.
