data_PCOD9368931
_publ_section_title
;
Structure prediction by ZEFSAII (Michael W. Deem and Ramdas Pophale) SiO2 
 PCOD9368931
Probable space group: F M M 2
;
_chemical_formula_sum "Si O2"
_cell_formula_units_Z 96
_cell_length_a 8.732787
_cell_length_b 28.817041
_cell_length_c 20.899362
_cell_angle_alpha 90.000000
_cell_angle_beta 90.000000
_cell_angle_gamma 90.000000
_cell_volume 5259.388839
_symmetry_space_group_name_H-M "F M M 2"
_symmetry_group_IT_number 42
_symmetry_cell_setting 'orthorhombic'
loop_
_space_group_symop_operation_xyz
x,y,z
-x,-y,z
-x,y,z
x,-y,z
x,1/2+y,1/2+z
-x,1/2-y,1/2+z
-x,1/2+y,1/2+z
x,1/2-y,1/2+z
1/2+x,y,1/2+z
1/2-x,-y,1/2+z
1/2-x,y,1/2+z
1/2+x,-y,1/2+z
1/2+x,1/2+y,z
1/2-x,1/2-y,z
1/2-x,1/2+y,z
1/2+x,1/2-y,z
loop_
_atom_site_type_symbol
_atom_site_label
_atom_site_fract_x
_atom_site_fract_y
_atom_site_fract_z
Si Si1 0.682756 0.446806 0.502130
Si Si2 0.182928 0.301442 0.922623
Si Si3 0.317313 0.645337 0.044063
Si Si4 0.683714 0.647374 0.798447
Si Si5 0.683314 0.198155 0.675216
Si Si6 0.816356 0.447551 0.360260
O O1 0.500000 0.441398 0.505867
O O2 0.722200 0.500000 0.519075
O O3 0.764385 0.408006 0.544433
O O4 0.735663 0.439784 0.428541
O O5 0.250000 0.250000 0.929259
O O6 0.251992 0.324507 0.859063
O O7 0.000000 0.300086 0.918385
O O8 0.234754 0.330874 0.983987
O O9 0.500000 0.647838 0.034577
O O10 0.277524 0.672604 0.108740
O O11 0.500000 0.651499 0.796988
O O12 0.752216 0.668708 0.734294
O O13 0.724086 0.593470 0.811643
O O14 0.500000 0.200789 0.680109
O O15 0.750000 0.250000 0.676389
O O16 0.779696 0.500000 0.338704
O O17 0.000000 0.445059 0.371029
#
# Coordination Sequence:
#
# PCOD9368931 Si02
#       6
#    16  16  16  16  16  16
#     4  10  20  34  57  90 123 156 195 243 296 349
#     4  12  24  38  59  86 118 151 194 249 299 353
#     4  11  23  40  61  87 118 156 200 245 299 357
#     4  11  22  38  61  88 120 156 198 242 295 355
#     4  11  25  43  62  84 116 157 201 246 300 358
#     4   9  18  34  58  87 119 155 194 239 292 351
#
# _framework density 18.253070999999998
#
# number of rings (size 3 to 8) (size 9 to 14) (size 15 to 20)
#    0.000    1.333    1.667    4.500    0.000    5.667 
#    0.000    0.833    0.000    3.000    0.000    0.000 
#    0.000    0.000    0.000    0.000    0.000    0.000 
#
# Total GULP energy -134151.356957 kJ/mol
# GULP energy per Si atom -5589.639873 kJ/mol
# Density = 1.821153 g / cm^3
# Si number density = 18.253071 Si / 1000 Ang^3
#
#
#
# Elastic Constant Matrix: (Units=GPa)
#
#
# Indices 1 2 3 4 5 6 
#
# 1 61.7609 46.7037 44.5459 0.0000 0.0000 0.0000
# 2 46.7037 146.7000 55.3734 0.0000 0.0000 0.0000
# 3 44.5459 55.3734 99.9499 0.0000 0.0000 0.0000
# 4 0.0000 0.0000 0.0000 31.4216 0.0000 0.0000
# 5 0.0000 0.0000 0.0000 0.0000 18.3911 0.0000
# 6 0.0000 0.0000 0.0000 0.0000 0.0000 28.7647
#
#
#
# Elastic Compliance Matrix: (Units=1/GPa)
#
#
# Indices 1 2 3 4 5 6 
#
# 1 0.026506 -0.005032 -0.009026 0.000000 0.000000 0.000000
# 2 -0.005032 0.009574 -0.003062 0.000000 0.000000 0.000000
# 3 -0.009026 -0.003062 0.015724 0.000000 0.000000 0.000000
# 4 0.000000 0.000000 0.000000 0.031825 0.000000 0.000000
# 5 0.000000 0.000000 0.000000 0.000000 0.054374 0.000000
# 6 0.000000 0.000000 0.000000 0.000000 0.000000 0.034765
#
#
# Mechanical properties :
#
#
# Convention : Reuss Voigt Hill
#
# Bulk Modulus (GPa) = 56.92791 66.85075 61.88933
# Shear Modulus (GPa) = 23.48934 26.50133 24.99533
#
# Velocity S-wave (km/s) = 3.59119 3.81449 3.70452
# Velocity P-wave (km/s) = 6.96070 7.49028 7.23034
#
# Compressibility (1/GPa) = 0.01756608
#
# Stress axis : x y z
#
# Youngs Moduli (GPa) = 37.72667 104.44729 63.59774
#
# Poissons Ratio (x) = 0.52555 0.57402
# Poissons Ratio (y) = 0.18983 0.19471
# Poissons Ratio (z) = 0.34051 0.31978
#
# Static dielectric constant tensor:
#      x y z
#    x 1.610650 0.000000 0.000000 
#    y 0.000000 1.778310 0.000000 
#    z 0.000000 0.000000 1.584930 
# 
# From -- ./inp_files/23699.got.cif
#   From: 2010.05.17/outbox.cif.g08.bks.cpg/sg42_12_cif.got.tgz:23699.got - 2010.06.03 19:03:34.
