data_PCOD9368891
_publ_section_title
;
Structure prediction by ZEFSAII (Michael W. Deem and Ramdas Pophale) SiO2 
 PCOD9368891
Probable space group: F M M 2
;
_chemical_formula_sum "Si O2"
_cell_formula_units_Z 96
_cell_length_a 8.715541
_cell_length_b 19.064336
_cell_length_c 31.634863
_cell_angle_alpha 90.000000
_cell_angle_beta 90.000000
_cell_angle_gamma 90.000000
_cell_volume 5256.322361
_symmetry_space_group_name_H-M "F M M 2"
_symmetry_group_IT_number 42
_symmetry_cell_setting 'orthorhombic'
loop_
_space_group_symop_operation_xyz
x,y,z
-x,-y,z
-x,y,z
x,-y,z
x,1/2+y,1/2+z
-x,1/2-y,1/2+z
-x,1/2+y,1/2+z
x,1/2-y,1/2+z
1/2+x,y,1/2+z
1/2-x,-y,1/2+z
1/2-x,y,1/2+z
1/2+x,-y,1/2+z
1/2+x,1/2+y,z
1/2-x,1/2-y,z
1/2-x,1/2+y,z
1/2+x,1/2-y,z
loop_
_atom_site_type_symbol
_atom_site_label
_atom_site_fract_x
_atom_site_fract_y
_atom_site_fract_z
Si Si1 0.183551 0.082080 0.085360
Si Si2 0.312920 0.580437 0.427434
Si Si3 0.315732 0.171693 0.008689
Si Si4 0.819249 0.416568 0.176235
Si Si5 0.816032 0.327827 0.752358
Si Si6 0.185088 0.672221 0.848135
O O1 0.500000 0.413337 0.082883
O O2 0.238545 0.103168 0.132175
O O3 0.228053 0.000000 0.078955
O O4 0.258385 0.130606 0.049972
O O5 0.500000 0.579133 0.427296
O O6 0.260400 0.500000 0.430470
O O7 0.266087 0.626969 0.467583
O O8 0.263646 0.618472 0.384239
O O9 0.500000 0.174986 0.008975
O O10 0.250000 0.250000 0.007112
O O11 0.798411 0.500000 0.181463
O O12 0.749557 0.377347 0.216250
O O13 0.000000 0.401750 0.172962
O O14 0.750000 0.250000 0.746167
O O15 0.772274 0.349507 0.800326
O O16 0.000000 0.326205 0.749865
O O17 0.250000 0.750000 0.855936
O O18 0.000000 0.676347 0.849725
#
# Coordination Sequence:
#
# PCOD9368891 Si02
#       6
#    16  16  16  16  16  16
#     4  10  21  38  59  82 109 140 177 222 270 322
#     4   9  18  33  54  80 108 140 179 221 266 318
#     4  11  22  36  56  81 110 144 182 223 268 319
#     4  10  21  37  57  81 110 143 179 221 270 323
#     4  10  20  34  54  80 110 145 184 225 270 319
#     4   9  18  33  54  78 106 141 179 221 266 315
#
# _framework density 18.263721
#
# number of rings (size 3 to 8) (size 9 to 14) (size 15 to 20)
#    0.000    2.167    0.000    3.000    0.000    4.667 
#    0.000    5.833    0.000    2.500    0.000    0.000 
#    0.000    0.000    0.000    0.000    0.000    0.000 
#
# Total GULP energy -134007.715012 kJ/mol
# GULP energy per Si atom -5583.654792 kJ/mol
# Density = 1.822215 g / cm^3
# Si number density = 18.263721 Si / 1000 Ang^3
#
#
#
# Elastic Constant Matrix: (Units=GPa)
#
#
# Indices 1 2 3 4 5 6 
#
# 1 44.5561 45.4549 53.5583 0.0000 0.0000 0.0000
# 2 45.4549 126.0303 113.9704 0.0000 0.0000 0.0000
# 3 53.5583 113.9704 176.7090 0.0000 0.0000 0.0000
# 4 0.0000 0.0000 0.0000 35.4462 0.0000 0.0000
# 5 0.0000 0.0000 0.0000 0.0000 16.9327 0.0000
# 6 0.0000 0.0000 0.0000 0.0000 0.0000 25.7905
#
#
#
# Elastic Compliance Matrix: (Units=1/GPa)
#
#
# Indices 1 2 3 4 5 6 
#
# 1 0.038378 -0.007973 -0.006490 0.000000 0.000000 0.000000
# 2 -0.007973 0.020695 -0.010931 0.000000 0.000000 0.000000
# 3 -0.006490 -0.010931 0.014676 0.000000 0.000000 0.000000
# 4 0.000000 0.000000 0.000000 0.028212 0.000000 0.000000
# 5 0.000000 0.000000 0.000000 0.000000 0.059057 0.000000
# 6 0.000000 0.000000 0.000000 0.000000 0.000000 0.038774
#
#
# Mechanical properties :
#
#
# Convention : Reuss Voigt Hill
#
# Bulk Modulus (GPa) = 43.55018 85.91806 64.73412
# Shear Modulus (GPa) = 19.36222 24.58800 21.97511
#
# Velocity S-wave (km/s) = 3.25952 3.67314 3.47250
# Velocity P-wave (km/s) = 6.16952 8.07059 7.18322
#
# Compressibility (1/GPa) = 0.02296202
#
# Stress axis : x y z
#
# Youngs Moduli (GPa) = 26.05633 48.31993 68.13787
#
# Poissons Ratio (x) = 0.38526 0.44219
# Poissons Ratio (y) = 0.20775 0.74483
# Poissons Ratio (z) = 0.16910 0.52819
#
# Static dielectric constant tensor:
#      x y z
#    x 1.612350 0.000000 0.000000 
#    y 0.000000 1.599600 0.000000 
#    z 0.000000 0.000000 1.614450 
# 
# From -- ./inp_files/31419.got.cif
#   From: 2010.05.17/outbox.cif.g08.bks.cpg/sg42_16_cif.got.tgz:31419.got - 2010.06.03 19:03:34.
