data_PCOD9368267
_publ_section_title
;
Structure prediction by ZEFSAII (Michael W. Deem and Ramdas Pophale) SiO2 
 PCOD9368267
Probable space group: F M M 2
;
_chemical_formula_sum "Si O2"
_cell_formula_units_Z 96
_cell_length_a 18.229533
_cell_length_b 8.796583
_cell_length_c 32.352132
_cell_angle_alpha 90.000000
_cell_angle_beta 90.000000
_cell_angle_gamma 90.000000
_cell_volume 5187.910245
_symmetry_space_group_name_H-M "F M M 2"
_symmetry_group_IT_number 42
_symmetry_cell_setting 'orthorhombic'
loop_
_space_group_symop_operation_xyz
x,y,z
-x,-y,z
-x,y,z
x,-y,z
x,1/2+y,1/2+z
-x,1/2-y,1/2+z
-x,1/2+y,1/2+z
x,1/2-y,1/2+z
1/2+x,y,1/2+z
1/2-x,-y,1/2+z
1/2-x,y,1/2+z
1/2+x,-y,1/2+z
1/2+x,1/2+y,z
1/2-x,1/2-y,z
1/2-x,1/2+y,z
1/2+x,1/2-y,z
loop_
_atom_site_type_symbol
_atom_site_label
_atom_site_fract_x
_atom_site_fract_y
_atom_site_fract_z
Si Si1 0.411562 0.324649 0.730820
Si Si2 0.831349 0.319792 0.654793
Si Si3 0.086263 0.181610 0.901890
Si Si4 0.910679 0.175193 0.316315
Si Si5 0.668273 0.317055 0.986204
Si Si6 0.832917 0.317942 0.070520
O O1 0.500000 0.314144 0.729457
O O2 0.390663 0.500000 0.723932
O O3 0.377407 0.222195 0.695120
O O4 0.387377 0.270702 0.776364
O O5 0.825829 0.500000 0.648847
O O6 0.750000 0.250000 0.660131
O O7 0.865239 0.243758 0.613450
O O8 0.115012 0.261448 0.860426
O O9 0.125962 0.223427 0.944332
O O10 0.000000 0.217134 0.905963
O O11 0.093093 0.000000 0.896341
O O12 0.000000 0.183230 0.317288
O O13 0.889825 0.000000 0.311133
O O14 0.671014 0.500000 0.990268
O O15 0.750000 0.250000 0.982684
O O16 0.634021 0.246393 0.027972
O O17 0.830698 0.500000 0.070098
O O18 0.750000 0.250000 0.070725
#
# Coordination Sequence:
#
# PCOD9368267 Si02
#       6
#    16  16  16  16  16  16
#     4  10  20  35  55  78 105 136 171 211 255 303
#     4  11  21  35  55  78 105 135 171 212 255 304
#     4   9  18  33  52  73  98 130 167 206 249 297
#     4   9  17  30  50  75 101 131 168 207 249 300
#     4  10  19  32  51  74 100 130 165 206 250 298
#     4  10  18  31  51  73  99 132 170 207 247 299
#
# _framework density 18.504560000000001
#
# number of rings (size 3 to 8) (size 9 to 14) (size 15 to 20)
#    0.000    2.167    0.000    6.500    0.000    4.333 
#    0.000    1.667    0.000    5.000    0.000    0.000 
#    0.000    0.000    0.000    0.000    0.000    0.000 
#
# Total GULP energy -133891.405088 kJ/mol
# GULP energy per Si atom -5578.808545 kJ/mol
# Density = 1.846244 g / cm^3
# Si number density = 18.504560 Si / 1000 Ang^3
#
#
#
# Elastic Constant Matrix: (Units=GPa)
#
#
# Indices 1 2 3 4 5 6 
#
# 1 9.3471 17.0383 21.7645 0.0000 0.0000 0.0000
# 2 17.0383 119.0706 63.2854 0.0000 0.0000 0.0000
# 3 21.7645 63.2854 155.9633 0.0000 0.0000 0.0000
# 4 0.0000 0.0000 0.0000 31.8347 0.0000 0.0000
# 5 0.0000 0.0000 0.0000 0.0000 28.8731 0.0000
# 6 0.0000 0.0000 0.0000 0.0000 0.0000 17.7079
#
#
#
# Elastic Compliance Matrix: (Units=1/GPa)
#
#
# Indices 1 2 3 4 5 6 
#
# 1 0.178932 -0.015724 -0.018589 0.000000 0.000000 0.000000
# 2 -0.015724 0.012089 -0.002711 0.000000 0.000000 0.000000
# 3 -0.018589 -0.002711 0.010106 0.000000 0.000000 0.000000
# 4 0.000000 0.000000 0.000000 0.031412 0.000000 0.000000
# 5 0.000000 0.000000 0.000000 0.000000 0.034634 0.000000
# 6 0.000000 0.000000 0.000000 0.000000 0.000000 0.056472
#
#
# Mechanical properties :
#
#
# Convention : Reuss Voigt Hill
#
# Bulk Modulus (GPa) = 7.86919 54.28418 31.07668
# Shear Modulus (GPa) = 11.36223 27.83598 19.59911
#
# Velocity S-wave (km/s) = 2.48064 3.88271 3.25799
# Velocity P-wave (km/s) = 3.53080 7.03561 5.56625
#
# Compressibility (1/GPa) = 0.12707794
#
# Stress axis : x y z
#
# Youngs Moduli (GPa) = 5.58872 82.71708 98.95047
#
# Poissons Ratio (x) = 1.30063 1.83944
# Poissons Ratio (y) = 0.08788 0.26828
# Poissons Ratio (z) = 0.10389 0.22427
#
# Static dielectric constant tensor:
#      x y z
#    x 1.628830 0.000000 0.000000 
#    y 0.000000 1.621500 0.000000 
#    z 0.000000 0.000000 1.669240 
# 
# From -- ./inp_files/28045.got.cif
#   From: 2010.05.17/outbox.cif.g08.bks.cpg/sg42_15_cif.got.tgz:28045.got - 2010.06.03 19:03:34.
