data_PCOD9368240
_publ_section_title
;
Structure prediction by ZEFSAII (Michael W. Deem and Ramdas Pophale) SiO2 
 PCOD9368240
Probable space group: F M M 2
;
_chemical_formula_sum "Si O2"
_cell_formula_units_Z 96
_cell_length_a 26.988273
_cell_length_b 8.499260
_cell_length_c 24.300623
_cell_angle_alpha 90.000000
_cell_angle_beta 90.000000
_cell_angle_gamma 90.000000
_cell_volume 5574.085389
_symmetry_space_group_name_H-M "F M M 2"
_symmetry_group_IT_number 42
_symmetry_cell_setting 'orthorhombic'
loop_
_space_group_symop_operation_xyz
x,y,z
-x,-y,z
-x,y,z
x,-y,z
x,1/2+y,1/2+z
-x,1/2-y,1/2+z
-x,1/2+y,1/2+z
x,1/2-y,1/2+z
1/2+x,y,1/2+z
1/2-x,-y,1/2+z
1/2-x,y,1/2+z
1/2+x,-y,1/2+z
1/2+x,1/2+y,z
1/2-x,1/2-y,z
1/2-x,1/2+y,z
1/2+x,1/2-y,z
loop_
_atom_site_type_symbol
_atom_site_label
_atom_site_fract_x
_atom_site_fract_y
_atom_site_fract_z
Si Si1 0.305340 0.186770 0.844000
Si Si2 0.943158 0.177810 0.330133
Si Si3 0.889414 0.310645 0.426184
Si Si4 0.556106 0.308846 0.032255
Si Si5 0.943312 0.689928 0.659031
Si Si6 0.370972 0.820706 0.249524
O O1 0.250000 0.250000 0.849871
O O2 0.340773 0.254529 0.892709
O O3 0.327367 0.236146 0.784037
O O4 0.305583 0.000000 0.848218
O O5 0.933594 0.229483 0.392086
O O6 0.915111 0.304085 0.293750
O O7 0.000000 0.174641 0.316021
O O8 0.923080 0.000000 0.320612
O O9 0.891431 0.500000 0.422494
O O10 0.901089 0.263641 0.489110
O O11 0.500000 0.258830 0.016041
O O12 0.555366 0.500000 0.032509
O O13 0.563924 0.260569 0.095509
O O14 0.943454 0.500000 0.661953
O O15 0.897783 0.748516 0.696184
O O16 0.000000 0.739739 0.675485
O O17 0.356849 0.000000 0.239417
#
# Coordination Sequence:
#
# PCOD9368240 Si02
#       6
#    16  16  16  16  16  16
#     4  11  22  38  57  76  98 125 160 204 257 308
#     4  10  19  29  42  64  96 132 165 199 243 293
#     4  10  18  30  50  75 100 128 164 204 247 294
#     4   8  15  28  48  74 104 139 175 206 238 282
#     4   9  17  31  50  72 102 141 178 208 242 286
#     4  11  21  32  48  72  99 128 164 205 250 297
#
# _framework density 17.222556000000001
#
# number of rings (size 3 to 8) (size 9 to 14) (size 15 to 20)
#    0.000    2.167    0.000    8.000    0.000    4.333 
#    0.000    1.667    0.000    3.000    0.000    4.667 
#    0.000    0.000    0.000    0.000    0.000    0.000 
#
# Total GULP energy -133608.508756 kJ/mol
# GULP energy per Si atom -5567.021198 kJ/mol
# Density = 1.718336 g / cm^3
# Si number density = 17.222556 Si / 1000 Ang^3
#
#
#
# Elastic Constant Matrix: (Units=GPa)
#
#
# Indices 1 2 3 4 5 6 
#
# 1 88.4738 18.6261 45.9548 0.0000 0.0000 0.0000
# 2 18.6261 56.4440 16.7371 0.0000 0.0000 0.0000
# 3 45.9548 16.7371 109.5966 0.0000 0.0000 0.0000
# 4 0.0000 0.0000 0.0000 18.8237 0.0000 0.0000
# 5 0.0000 0.0000 0.0000 0.0000 20.8348 0.0000
# 6 0.0000 0.0000 0.0000 0.0000 0.0000 17.8952
#
#
#
# Elastic Compliance Matrix: (Units=1/GPa)
#
#
# Indices 1 2 3 4 5 6 
#
# 1 0.014992 -0.003229 -0.005793 0.000000 0.000000 0.000000
# 2 -0.003229 0.019253 -0.001586 0.000000 0.000000 0.000000
# 3 -0.005793 -0.001586 0.011796 0.000000 0.000000 0.000000
# 4 0.000000 0.000000 0.000000 0.053124 0.000000 0.000000
# 5 0.000000 0.000000 0.000000 0.000000 0.047997 0.000000
# 6 0.000000 0.000000 0.000000 0.000000 0.000000 0.055881
#
#
# Mechanical properties :
#
#
# Convention : Reuss Voigt Hill
#
# Bulk Modulus (GPa) = 40.28504 46.35005 43.31754
# Shear Modulus (GPa) = 21.50233 23.05717 22.27975
#
# Velocity S-wave (km/s) = 3.53724 3.66290 3.60062
# Velocity P-wave (km/s) = 6.33438 6.69776 6.51860
#
# Compressibility (1/GPa) = 0.02482311
#
# Stress axis : x y z
#
# Youngs Moduli (GPa) = 66.70398 51.94091 84.77720
#
# Poissons Ratio (x) = 0.16774 0.49111
# Poissons Ratio (y) = 0.21541 0.13446
# Poissons Ratio (z) = 0.38641 0.08238
#
# Static dielectric constant tensor:
#      x y z
#    x 1.591300 0.000000 0.000000 
#    y 0.000000 1.604800 0.000000 
#    z 0.000000 0.000000 1.624360 
# 
# From -- ./inp_files/30601.got.cif
#   From: 2010.05.17/outbox.cif.g08.bks.cpg/sg42_16_cif.got.tgz:30601.got - 2010.06.03 19:03:34.
