data_PCOD9368188
_publ_section_title
;
Structure prediction by ZEFSAII (Michael W. Deem and Ramdas Pophale) SiO2 
 PCOD9368188
Probable space group: F M M 2
;
_chemical_formula_sum "Si O2"
_cell_formula_units_Z 128
_cell_length_a 24.395221
_cell_length_b 18.312020
_cell_length_c 16.175321
_cell_angle_alpha 90.000000
_cell_angle_beta 90.000000
_cell_angle_gamma 90.000000
_cell_volume 7225.932807
_symmetry_space_group_name_H-M "F M M 2"
_symmetry_group_IT_number 42
_symmetry_cell_setting 'orthorhombic'
loop_
_space_group_symop_operation_xyz
x,y,z
-x,-y,z
-x,y,z
x,-y,z
x,1/2+y,1/2+z
-x,1/2-y,1/2+z
-x,1/2+y,1/2+z
x,1/2-y,1/2+z
1/2+x,y,1/2+z
1/2-x,-y,1/2+z
1/2-x,y,1/2+z
1/2+x,-y,1/2+z
1/2+x,1/2+y,z
1/2-x,1/2-y,z
1/2-x,1/2+y,z
1/2+x,1/2-y,z
loop_
_atom_site_type_symbol
_atom_site_label
_atom_site_fract_x
_atom_site_fract_y
_atom_site_fract_z
Si Si1 0.936154 0.812218 0.757800
Si Si2 0.937806 0.716343 0.926059
Si Si3 0.848904 0.415196 0.619696
Si Si4 0.268941 0.824538 0.730593
Si Si5 0.436758 0.706589 0.105828
Si Si6 0.664771 0.584906 0.783444
Si Si7 0.206649 0.861846 0.957131
Si Si8 0.818200 0.804986 0.412139
O O1 0.933997 0.769103 0.845518
O O2 0.919094 0.760801 0.680335
O O3 0.893205 0.877728 0.764009
O O4 0.000000 0.833622 0.745040
O O5 0.881311 0.670645 0.918916
O O6 0.000000 0.683978 0.923337
O O7 0.933387 0.757075 0.014770
O O8 0.858261 0.500000 0.635931
O O9 0.813742 0.374875 0.689049
O O10 0.903246 0.367671 0.608272
O O11 0.813860 0.402140 0.537400
O O12 0.250000 0.750000 0.685870
O O13 0.214053 0.871481 0.740299
O O14 0.296509 0.800156 0.817679
O O15 0.500000 0.691040 0.122474
O O16 0.664971 0.500000 0.762713
O O17 0.680097 0.597427 0.879369
O O18 0.187059 0.776862 0.950022
O O19 0.272585 0.856554 0.953202
#
# Coordination Sequence:
#
# PCOD9368188 Si02
#       8
#    16  16  16  16  16  16  16  16
#     4  10  20  35  55  82 112 144 190 234 270 330
#     4  10  18  32  54  81 109 135 180 232 274 322
#     4  12  24  35  52  84 117 141 180 229 286 341
#     4  11  21  36  56  76 106 145 187 233 273 329
#     4  10  21  36  56  79 110 151 189 227 274 330
#     4  11  20  35  55  78 112 147 182 225 287 345
#     4  10  20  33  53  79 111 146 181 225 278 344
#     4  10  17  35  55  80 101 144 192 226 274 322
#
# _framework density 17.713977
#
# number of rings (size 3 to 8) (size 9 to 14) (size 15 to 20)
#    0.000    1.500    5.000    2.250    1.750    1.500 
#    0.000    0.000    0.000    3.750    0.000    3.500 
#    0.000   23.000    0.000    0.000    0.000    0.000 
#
# Total GULP energy -178401.948752 kJ/mol
# GULP energy per Si atom -5575.060898 kJ/mol
# Density = 1.767366 g / cm^3
# Si number density = 17.713977 Si / 1000 Ang^3
#
#
#
# Elastic Constant Matrix: (Units=GPa)
#
#
# Indices 1 2 3 4 5 6 
#
# 1 132.8093 42.9350 12.3753 0.0000 0.0000 0.0000
# 2 42.9350 72.6592 25.0229 0.0000 0.0000 0.0000
# 3 12.3753 25.0229 59.3546 0.0000 0.0000 0.0000
# 4 0.0000 0.0000 0.0000 -13.5281 0.0000 0.0000
# 5 0.0000 0.0000 0.0000 0.0000 14.3943 0.0000
# 6 0.0000 0.0000 0.0000 0.0000 0.0000 -35.8280
#
#
#
# Elastic Compliance Matrix: (Units=1/GPa)
#
#
# Indices 1 2 3 4 5 6 
#
# 1 0.009318 -0.005658 0.000443 0.000000 0.000000 0.000000
# 2 -0.005658 0.019537 -0.007057 0.000000 0.000000 0.000000
# 3 0.000443 -0.007057 0.019731 0.000000 0.000000 0.000000
# 4 0.000000 0.000000 0.000000 -0.073920 0.000000 0.000000
# 5 0.000000 0.000000 0.000000 0.000000 0.069472 0.000000
# 6 0.000000 0.000000 0.000000 0.000000 0.000000 -0.027911
#
#
# Mechanical properties :
#
#
# Convention : Reuss Voigt Hill
#
# Bulk Modulus (GPa) = 41.59653 47.27661 44.43657
# Shear Modulus (GPa) = 102.49445 5.30696 53.90071
#
# Velocity S-wave (km/s) = 7.61488 1.73275 5.52217
# Velocity P-wave (km/s) = 10.04233 5.54527 8.11167
#
# Compressibility (1/GPa) = 0.02404047
#
# Stress axis : x y z
#
# Youngs Moduli (GPa) = 107.32401 51.18595 50.68293
#
# Poissons Ratio (x) = 0.28963 -0.02244
# Poissons Ratio (y) = 0.60727 0.35765
# Poissons Ratio (z) = -0.04752 0.36120
#
# Static dielectric constant tensor:
#      x y z
#    x 1.635640 0.000000 0.000000 
#    y 0.000000 1.584940 0.000000 
#    z 0.000000 0.000000 1.643220 
# 
# From -- ./inp_files/22338.got.cif
#   From: 2010.05.17/outbox.cif.g08.bks.cpg/sg42_12_cif.got.tgz:22338.got - 2010.06.03 19:03:34.
