data_PCOD9368374
_publ_section_title
;
Structure prediction by ZEFSAII (Michael W. Deem and Ramdas Pophale) SiO2 
 PCOD9368374
Probable space group: F M M 2
;
_chemical_formula_sum "Si O2"
_cell_formula_units_Z 96
_cell_length_a 24.374412
_cell_length_b 8.460095
_cell_length_c 25.969299
_cell_angle_alpha 90.000000
_cell_angle_beta 90.000000
_cell_angle_gamma 90.000000
_cell_volume 5355.125020
_symmetry_space_group_name_H-M "F M M 2"
_symmetry_group_IT_number 42
_symmetry_cell_setting 'orthorhombic'
loop_
_space_group_symop_operation_xyz
x,y,z
-x,-y,z
-x,y,z
x,-y,z
x,1/2+y,1/2+z
-x,1/2-y,1/2+z
-x,1/2+y,1/2+z
x,1/2-y,1/2+z
1/2+x,y,1/2+z
1/2-x,-y,1/2+z
1/2-x,y,1/2+z
1/2+x,-y,1/2+z
1/2+x,1/2+y,z
1/2-x,1/2-y,z
1/2-x,1/2+y,z
1/2+x,1/2-y,z
loop_
_atom_site_type_symbol
_atom_site_label
_atom_site_fract_x
_atom_site_fract_y
_atom_site_fract_z
Si Si1 0.310660 0.810346 0.806150
Si Si2 0.882591 0.307046 0.019007
Si Si3 0.310426 0.190874 0.924448
Si Si4 0.311882 0.309319 0.617751
Si Si5 0.500000 0.687729 0.176963
Si Si6 0.884743 0.189518 0.715290
Si Si7 0.000000 0.191453 0.559525
O O1 0.250000 0.750000 0.791023
O O2 0.320300 0.758744 0.865409
O O3 0.356020 0.745739 0.767445
O O4 0.310568 0.000000 0.804437
O O5 0.883252 0.500000 0.018622
O O6 0.843460 0.257699 0.066154
O O7 0.944390 0.255016 0.031375
O O8 0.855819 0.254965 0.965325
O O9 0.250000 0.250000 0.939874
O O10 0.309551 0.000000 0.924963
O O11 0.311229 0.500000 0.617808
O O12 0.250000 0.250000 0.619254
O O13 0.346393 0.257177 0.667547
O O14 0.500000 0.500000 0.173993
O O15 0.554657 0.745271 0.205699
O O16 0.500000 0.755730 0.118868
O O17 0.887024 0.000000 0.714400
O O18 0.000000 0.000000 0.559769
#
# Coordination Sequence:
#
# PCOD9368374 Si02
#       7
#    16  16  16  16   8  16   8
#     4  10  20  35  55  82 114 148 187 232 279 331
#     4   9  17  32  54  78 104 141 186 226 268 325
#     4   9  18  33  54  80 110 144 183 225 274 327
#     4  10  20  32  50  77 107 137 175 221 271 325
#     4  12  24  38  57  82 111 143 182 230 278 329
#     4  11  22  38  58  79 107 147 187 225 275 334
#     4  10  18  36  59  76 105 147 188 224 270 333
#
# _framework density 17.926752
#
# number of rings (size 3 to 8) (size 9 to 14) (size 15 to 20)
#    0.000    2.000    1.667    2.750    0.000    3.333 
#    0.000    1.667    0.000    3.000    0.000    0.000 
#    0.000    0.000    0.000    0.000    0.000    0.000 
#
# Total GULP energy -134001.197594 kJ/mol
# GULP energy per Si atom -5583.383233 kJ/mol
# Density = 1.788595 g / cm^3
# Si number density = 17.926752 Si / 1000 Ang^3
#
#
#
# Elastic Constant Matrix: (Units=GPa)
#
#
# Indices 1 2 3 4 5 6 
#
# 1 198.1303 27.4662 102.4924 0.0000 0.0000 0.0000
# 2 27.4662 23.9035 19.6983 0.0000 0.0000 0.0000
# 3 102.4924 19.6983 118.2135 0.0000 0.0000 0.0000
# 4 0.0000 0.0000 0.0000 7.4927 0.0000 0.0000
# 5 0.0000 0.0000 0.0000 0.0000 17.4973 0.0000
# 6 0.0000 0.0000 0.0000 0.0000 0.0000 28.6992
#
#
#
# Elastic Compliance Matrix: (Units=1/GPa)
#
#
# Indices 1 2 3 4 5 6 
#
# 1 0.009612 -0.004842 -0.007527 0.000000 0.000000 0.000000
# 2 -0.004842 0.050933 -0.004289 0.000000 0.000000 0.000000
# 3 -0.007527 -0.004289 0.015700 0.000000 0.000000 0.000000
# 4 0.000000 0.000000 0.000000 0.133464 0.000000 0.000000
# 5 0.000000 0.000000 0.000000 0.000000 0.057152 0.000000
# 6 0.000000 0.000000 0.000000 0.000000 0.000000 0.034844
#
#
# Mechanical properties :
#
#
# Convention : Reuss Voigt Hill
#
# Bulk Modulus (GPa) = 23.29427 71.06236 47.17832
# Shear Modulus (GPa) = 14.31311 23.44386 18.87849
#
# Velocity S-wave (km/s) = 2.82870 3.62022 3.24866
# Velocity P-wave (km/s) = 4.86735 7.56314 6.35972
#
# Compressibility (1/GPa) = 0.04292900
#
# Stress axis : x y z
#
# Youngs Moduli (GPa) = 104.03568 19.63362 63.69448
#
# Poissons Ratio (x) = 0.09506 0.47943
# Poissons Ratio (y) = 0.50373 0.27319
# Poissons Ratio (z) = 0.78307 0.08421
#
# Static dielectric constant tensor:
#      x y z
#    x 1.583880 0.000000 0.000000 
#    y 0.000000 1.616390 0.000000 
#    z 0.000000 0.000000 1.610840 
# 
# From -- ./inp_files/28066.got.cif
#   From: 2010.05.17/outbox.cif.g08.bks.cpg/sg42_15_cif.got.tgz:28066.got - 2010.06.03 19:03:34.
