data_PCOD9368691
_publ_section_title
;
Structure prediction by ZEFSAII (Michael W. Deem and Ramdas Pophale) SiO2 
 PCOD9368691
Probable space group: F M M 2
;
_chemical_formula_sum "Si O2"
_cell_formula_units_Z 112
_cell_length_a 19.014054
_cell_length_b 25.384214
_cell_length_c 11.885177
_cell_angle_alpha 90.000000
_cell_angle_beta 90.000000
_cell_angle_gamma 90.000000
_cell_volume 5736.461685
_symmetry_space_group_name_H-M "F M M 2"
_symmetry_group_IT_number 42
_symmetry_cell_setting 'orthorhombic'
loop_
_space_group_symop_operation_xyz
x,y,z
-x,-y,z
-x,y,z
x,-y,z
x,1/2+y,1/2+z
-x,1/2-y,1/2+z
-x,1/2+y,1/2+z
x,1/2-y,1/2+z
1/2+x,y,1/2+z
1/2-x,-y,1/2+z
1/2-x,y,1/2+z
1/2+x,-y,1/2+z
1/2+x,1/2+y,z
1/2-x,1/2-y,z
1/2-x,1/2+y,z
1/2+x,1/2-y,z
loop_
_atom_site_type_symbol
_atom_site_label
_atom_site_fract_x
_atom_site_fract_y
_atom_site_fract_z
Si Si1 0.678083 0.392958 0.227850
Si Si2 0.678058 0.633137 0.984091
Si Si3 0.821940 0.060864 0.785062
Si Si4 0.204324 0.699792 0.898479
Si Si5 0.416551 0.671736 0.539662
Si Si6 0.582508 0.346722 0.785524
Si Si7 0.084079 0.939992 0.422062
O O1 0.648515 0.380683 0.105010
O O2 0.753974 0.420812 0.215327
O O3 0.693404 0.338540 0.293019
O O4 0.627767 0.426939 0.308740
O O5 0.695040 0.580320 0.912738
O O6 0.748611 0.667266 0.988927
O O7 0.626088 0.663985 0.898564
O O8 0.891835 0.093722 0.758186
O O9 0.832940 0.000000 0.776285
O O10 0.250000 0.750000 0.867827
O O11 0.129564 0.707425 0.957354
O O12 0.500000 0.679336 0.525831
O O13 0.398745 0.682865 0.670182
O O14 0.401712 0.610404 0.503360
O O15 0.500000 0.343073 0.803840
O O16 0.000000 0.939005 0.400830
O O17 0.101628 0.000000 0.460968
#
# Coordination Sequence:
#
# PCOD9368691 Si02
#       7
#    16  16  16  16  16  16  16
#     4  10  19  36  55  77 115 150 186 234 293 339
#     4   9  21  36  52  80 112 148 185 231 288 342
#     4   9  19  32  50  77 108 148 194 233 273 330
#     4  10  21  37  61  88 108 141 190 243 291 351
#     4   9  18  36  60  85 118 152 188 239 289 335
#     4   9  19  36  56  79 114 153 187 229 280 338
#     4   9  18  31  52  83 113 148 192 234 280 335
#
# _framework density 19.524231
#
# number of rings (size 3 to 8) (size 9 to 14) (size 15 to 20)
#    0.857    1.857    0.000    1.286    0.000    3.143 
#    0.000    2.143    0.000    0.000    0.000    0.000 
#    0.000    0.000    0.000    0.000    0.000    0.000 
#
# Total GULP energy -155870.604577 kJ/mol
# GULP energy per Si atom -5566.807306 kJ/mol
# Density = 1.947979 g / cm^3
# Si number density = 19.524231 Si / 1000 Ang^3
#
#
#
# Elastic Constant Matrix: (Units=GPa)
#
#
# Indices 1 2 3 4 5 6 
#
# 1 36.6865 2.8446 14.6778 0.0000 0.0000 0.0000
# 2 2.8446 54.9044 -0.7229 0.0000 0.0000 0.0000
# 3 14.6778 -0.7229 66.2627 0.0000 0.0000 0.0000
# 4 0.0000 0.0000 0.0000 1.3076 0.0000 0.0000
# 5 0.0000 0.0000 0.0000 0.0000 21.0549 0.0000
# 6 0.0000 0.0000 0.0000 0.0000 0.0000 25.0300
#
#
#
# Elastic Compliance Matrix: (Units=1/GPa)
#
#
# Indices 1 2 3 4 5 6 
#
# 1 0.030056 -0.001645 -0.006676 0.000000 0.000000 0.000000
# 2 -0.001645 0.018306 0.000564 0.000000 0.000000 0.000000
# 3 -0.006676 0.000564 0.016576 0.000000 0.000000 0.000000
# 4 0.000000 0.000000 0.000000 0.764772 0.000000 0.000000
# 5 0.000000 0.000000 0.000000 0.000000 0.047495 0.000000
# 6 0.000000 0.000000 0.000000 0.000000 0.000000 0.039952
#
#
# Mechanical properties :
#
#
# Convention : Reuss Voigt Hill
#
# Bulk Modulus (GPa) = 20.23251 21.27253 20.75252
# Shear Modulus (GPa) = 5.26789 18.88209 12.07499
#
# Velocity S-wave (km/s) = 1.64438 3.11321 2.48959
# Velocity P-wave (km/s) = 3.74040 4.88282 4.34928
#
# Compressibility (1/GPa) = 0.04942542
#
# Stress axis : x y z
#
# Youngs Moduli (GPa) = 33.27074 54.62644 60.32694
#
# Poissons Ratio (x) = 0.08987 0.40273
# Poissons Ratio (y) = 0.05473 -0.03403
# Poissons Ratio (z) = 0.22211 -0.03082
#
# Static dielectric constant tensor:
#      x y z
#    x 1.693950 0.000000 0.000000 
#    y 0.000000 1.693150 0.000000 
#    z 0.000000 0.000000 1.697560 
# 
# From -- ./inp_files/9669.got.cif
#   From: 2010.05.17/outbox.cif.g08.bks.cpg/sg42_5_cif.got.tgz:9669.got - 2010.06.03 19:03:34.
