data_PCOD9368740
_publ_section_title
;
Structure prediction by ZEFSAII (Michael W. Deem and Ramdas Pophale) SiO2 
 PCOD9368740
Probable space group: F M M 2
;
_chemical_formula_sum "Si O2"
_cell_formula_units_Z 104
_cell_length_a 13.865618
_cell_length_b 18.180518
_cell_length_c 19.564669
_cell_angle_alpha 90.000000
_cell_angle_beta 90.000000
_cell_angle_gamma 90.000000
_cell_volume 4931.942322
_symmetry_space_group_name_H-M "F M M 2"
_symmetry_group_IT_number 42
_symmetry_cell_setting 'orthorhombic'
loop_
_space_group_symop_operation_xyz
x,y,z
-x,-y,z
-x,y,z
x,-y,z
x,1/2+y,1/2+z
-x,1/2-y,1/2+z
-x,1/2+y,1/2+z
x,1/2-y,1/2+z
1/2+x,y,1/2+z
1/2-x,-y,1/2+z
1/2-x,y,1/2+z
1/2+x,-y,1/2+z
1/2+x,1/2+y,z
1/2-x,1/2-y,z
1/2-x,1/2+y,z
1/2+x,1/2-y,z
loop_
_atom_site_type_symbol
_atom_site_label
_atom_site_fract_x
_atom_site_fract_y
_atom_site_fract_z
Si Si1 0.383760 0.799545 0.496410
Si Si2 0.113451 0.000000 0.503513
Si Si3 0.116240 0.200455 0.712635
Si Si4 0.708993 0.663842 0.854523
Si Si5 0.118067 0.650176 0.062148
Si Si6 0.613452 0.000000 0.705533
Si Si7 0.381933 0.650176 0.146898
Si Si8 0.811726 0.500000 0.854523
O O1 0.500000 0.801510 0.494017
O O2 0.347172 0.834419 0.426722
O O3 0.354164 0.714523 0.509325
O O4 0.353864 0.835529 0.568651
O O5 0.155303 0.926667 0.535503
O O6 0.126864 0.000000 0.423164
O O7 0.000000 0.000000 0.519606
O O8 0.152828 0.165581 0.782324
O O9 0.146136 0.164471 0.640394
O O10 0.145836 0.285477 0.699721
O O11 0.000000 0.198490 0.715028
O O12 0.750000 0.750000 0.854523
O O13 0.760738 0.582298 0.854523
O O14 0.000000 0.651112 0.062103
O O15 0.655303 0.926667 0.673543
O O16 0.500000 0.000000 0.689440
O O17 0.626864 0.000000 0.785882
O O18 0.500000 0.651112 0.146942
#
# Coordination Sequence:
#
# PCOD9368740 Si02
#       8
#    16   8  16  16  16   8  16   8
#     4   9  18  37  60  82 108 147 191 229 271 331
#     4  10  19  37  62  83 106 141 179 232 290 332
#     4   9  18  37  60  82 108 147 191 229 271 331
#     4  12  25  40  55  80 120 158 184 226 281 328
#     4   8  16  32  60  89 106 130 187 243 276 322
#     4  10  19  37  62  83 106 141 179 232 290 332
#     4   8  16  32  60  89 106 130 187 243 276 322
#     4  12  27  40  51  86 122 144 188 232 267 338
#
# _framework density 21.087028
#
# number of rings (size 3 to 8) (size 9 to 14) (size 15 to 20)
#    0.000    2.462    0.000    4.385    0.000    1.231 
#    0.000   21.538    0.000    0.000    0.000    0.000 
#    0.000    0.000    0.000    0.000    0.000    0.000 
#
# Total GULP energy -144962.500076 kJ/mol
# GULP energy per Si atom -5575.480772 kJ/mol
# Density = 2.103903 g / cm^3
# Si number density = 21.087028 Si / 1000 Ang^3
#
#
#
# Elastic Constant Matrix: (Units=GPa)
#
#
# Indices 1 2 3 4 5 6 
#
# 1 33.2863 5.7757 -10.9247 0.0000 0.0000 0.0000
# 2 5.7757 129.9882 19.0665 0.0000 0.0000 0.0000
# 3 -10.9247 19.0665 74.3411 0.0000 0.0000 0.0000
# 4 0.0000 0.0000 0.0000 26.7123 0.0000 0.0000
# 5 0.0000 0.0000 0.0000 0.0000 37.7461 0.0000
# 6 0.0000 0.0000 0.0000 0.0000 0.0000 22.0628
#
#
#
# Elastic Compliance Matrix: (Units=1/GPa)
#
#
# Indices 1 2 3 4 5 6 
#
# 1 0.032162 -0.002205 0.005292 0.000000 0.000000 0.000000
# 2 -0.002205 0.008145 -0.002413 0.000000 0.000000 0.000000
# 3 0.005292 -0.002413 0.014848 0.000000 0.000000 0.000000
# 4 0.000000 0.000000 0.000000 0.037436 0.000000 0.000000
# 5 0.000000 0.000000 0.000000 0.000000 0.026493 0.000000
# 6 0.000000 0.000000 0.000000 0.000000 0.000000 0.045325
#
#
# Mechanical properties :
#
#
# Convention : Reuss Voigt Hill
#
# Bulk Modulus (GPa) = 17.69848 29.49451 23.59649
# Shear Modulus (GPa) = 27.48832 32.21745 29.85288
#
# Velocity S-wave (km/s) = 3.61441 3.91299 3.76666
# Velocity P-wave (km/s) = 5.08231 5.86794 5.48920
#
# Compressibility (1/GPa) = 0.05650203
#
# Stress axis : x y z
#
# Youngs Moduli (GPa) = 31.09278 122.77581 67.34890
#
# Poissons Ratio (x) = 0.27075 -0.35640
# Poissons Ratio (y) = 0.06857 0.16251
# Poissons Ratio (z) = -0.16454 0.29626
#
# Static dielectric constant tensor:
#      x y z
#    x 1.825570 0.000000 0.000000 
#    y 0.000000 1.803710 0.000000 
#    z 0.000000 0.000000 1.682570 
# 
# From -- ./inp_files/20939.got.cif
#   From: 2010.05.17/outbox.cif.g08.bks.cpg/sg42_11_cif.got.tgz:20939.got - 2010.06.03 19:03:34.
