data_PCOD9368124
_publ_section_title
;
Structure prediction by ZEFSAII (Michael W. Deem and Ramdas Pophale) SiO2 
 PCOD9368124
Probable space group: F M M 2
;
_chemical_formula_sum "Si O2"
_cell_formula_units_Z 56
_cell_length_a 14.172294
_cell_length_b 11.147368
_cell_length_c 13.851453
_cell_angle_alpha 90.000000
_cell_angle_beta 90.000000
_cell_angle_gamma 90.000000
_cell_volume 2188.304857
_symmetry_space_group_name_H-M "F M M 2"
_symmetry_group_IT_number 42
_symmetry_cell_setting 'orthorhombic'
loop_
_space_group_symop_operation_xyz
x,y,z
-x,-y,z
-x,y,z
x,-y,z
x,1/2+y,1/2+z
-x,1/2-y,1/2+z
-x,1/2+y,1/2+z
x,1/2-y,1/2+z
1/2+x,y,1/2+z
1/2-x,-y,1/2+z
1/2-x,y,1/2+z
1/2+x,-y,1/2+z
1/2+x,1/2+y,z
1/2-x,1/2-y,z
1/2-x,1/2+y,z
1/2+x,1/2-y,z
loop_
_atom_site_type_symbol
_atom_site_label
_atom_site_fract_x
_atom_site_fract_y
_atom_site_fract_z
Si Si1 0.340693 0.500000 0.329890
Si Si2 0.773474 0.500000 0.054455
Si Si3 0.364024 0.255113 0.835179
Si Si4 0.865308 0.000000 0.738023
Si Si5 0.398479 0.636031 0.034646
O O1 0.305859 0.500000 0.442796
O O2 0.393716 0.622376 0.305685
O O3 0.244016 0.500000 0.270495
O O4 0.863350 0.500000 0.122917
O O5 0.705283 0.384960 0.079677
O O6 0.250000 0.250000 0.829931
O O7 0.399083 0.372211 0.778659
O O8 0.390045 0.273840 0.946863
O O9 0.500000 0.655278 0.085083
O O10 0.404621 0.500000 0.990901
#
# Coordination Sequence:
#
# PCOD9368124 Si02
#       5
#     8   8  16   8  16
#     4  10  20  35  51  81 124 136 182 243 293 335
#     4  10  17  33  55  89 105 148 186 243 282 327
#     4  10  16  35  53  81 114 141 189 237 281 341
#     4  10  18  30  54  82 112 140 188 232 278 336
#     4   9  16  31  56  81 111 148 193 233 289 348
#
# _framework density 25.590585000000001
#
# number of rings (size 3 to 8) (size 9 to 14) (size 15 to 20)
#    0.857    1.429    7.143    0.000    0.000    0.000 
#   15.429    0.714    0.000   13.714    0.000    2.000 
#    0.000    0.000    0.000    0.000    0.000    0.000 
#
# Total GULP energy -77981.187296 kJ/mol
# GULP energy per Si atom -5570.084807 kJ/mol
# Density = 2.553234 g / cm^3
# Si number density = 25.590585 Si / 1000 Ang^3
#
#
#
# Elastic Constant Matrix: (Units=GPa)
#
#
# Indices 1 2 3 4 5 6 
#
# 1 120.2172 26.6692 15.9879 0.0000 0.0000 0.0000
# 2 26.6692 193.3408 10.1567 0.0000 0.0000 0.0000
# 3 15.9879 10.1567 96.0537 0.0000 0.0000 0.0000
# 4 0.0000 0.0000 0.0000 4.2964 0.0000 0.0000
# 5 0.0000 0.0000 0.0000 0.0000 -4.7061 0.0000
# 6 0.0000 0.0000 0.0000 0.0000 0.0000 -30.1120
#
#
#
# Elastic Compliance Matrix: (Units=1/GPa)
#
#
# Indices 1 2 3 4 5 6 
#
# 1 0.008748 -0.001137 -0.001336 0.000000 0.000000 0.000000
# 2 -0.001137 0.005349 -0.000376 0.000000 0.000000 0.000000
# 3 -0.001336 -0.000376 0.010673 0.000000 0.000000 0.000000
# 4 0.000000 0.000000 0.000000 0.232756 0.000000 0.000000
# 5 0.000000 0.000000 0.000000 0.000000 -0.212491 0.000000
# 6 0.000000 0.000000 0.000000 0.000000 0.000000 -0.033209
#
#
# Mechanical properties :
#
#
# Convention : Reuss Voigt Hill
#
# Bulk Modulus (GPa) = 52.43249 57.24882 54.84066
# Shear Modulus (GPa) = 209.38033 17.68218 113.53125
#
# Velocity S-wave (km/s) = 9.05521 2.63147 6.66789
# Velocity P-wave (km/s) = 11.39573 5.62605 8.98652
#
# Compressibility (1/GPa) = 0.01907214
#
# Stress axis : x y z
#
# Youngs Moduli (GPa) = 114.31094 186.95930 93.69430
#
# Poissons Ratio (x) = 0.21248 0.12517
# Poissons Ratio (y) = 0.12992 0.03527
# Poissons Ratio (z) = 0.15271 0.07037
#
# Static dielectric constant tensor:
#      x y z
#    x 2.108700 0.000000 0.000000 
#    y 0.000000 2.057310 0.000000 
#    z 0.000000 0.000000 1.970960 
# 
# From -- ./inp_files/12534.got.cif
#   From: 2010.05.17/outbox.cif.g08.bks.cpg/sg42_7_cif.got.tgz:12534.got - 2010.06.03 19:03:34.
