data_PCOD9368708
_publ_section_title
;
Structure prediction by ZEFSAII (Michael W. Deem and Ramdas Pophale) SiO2 
 PCOD9368708
Probable space group: F M M 2
;
_chemical_formula_sum "Si O2"
_cell_formula_units_Z 116
_cell_length_a 22.618254
_cell_length_b 27.874645
_cell_length_c 8.248000
_cell_angle_alpha 90.000000
_cell_angle_beta 90.000000
_cell_angle_gamma 90.000000
_cell_volume 5200.164405
_symmetry_space_group_name_H-M "F M M 2"
_symmetry_group_IT_number 42
_symmetry_cell_setting 'orthorhombic'
loop_
_space_group_symop_operation_xyz
x,y,z
-x,-y,z
-x,y,z
x,-y,z
x,1/2+y,1/2+z
-x,1/2-y,1/2+z
-x,1/2+y,1/2+z
x,1/2-y,1/2+z
1/2+x,y,1/2+z
1/2-x,-y,1/2+z
1/2-x,y,1/2+z
1/2+x,-y,1/2+z
1/2+x,1/2+y,z
1/2-x,1/2-y,z
1/2-x,1/2+y,z
1/2+x,1/2-y,z
loop_
_atom_site_type_symbol
_atom_site_label
_atom_site_fract_x
_atom_site_fract_y
_atom_site_fract_z
Si Si1 0.847394 0.866816 0.726980
Si Si2 0.435615 0.597177 0.459993
Si Si3 0.000000 0.000000 0.538977
Si Si4 0.109716 0.223976 0.265475
Si Si5 0.227105 0.055855 0.606354
Si Si6 0.695546 0.785276 0.037820
Si Si7 0.159946 0.443631 0.763044
Si Si8 0.434861 0.815030 0.454295
O O1 0.898933 0.873200 0.591742
O O2 0.814930 0.917173 0.732936
O O3 0.797077 0.831460 0.651923
O O4 0.880604 0.845519 0.881204
O O5 0.500000 0.619272 0.430911
O O6 0.449555 0.543370 0.528958
O O7 0.398009 0.587178 0.298503
O O8 0.158713 0.199646 0.379791
O O9 0.150040 0.254327 0.142728
O O10 0.072305 0.262544 0.368662
O O11 0.071904 0.191483 0.146522
O O12 0.197635 0.061124 0.430550
O O13 0.294624 0.072730 0.625321
O O14 0.228684 0.000000 0.646950
O O15 0.750000 0.750000 0.000141
O O16 0.144493 0.500000 0.739923
O O17 0.500000 0.834423 0.413477
#
# Coordination Sequence:
#
# PCOD9368708 Si02
#       8
#    16  16   4  16  16  16  16  16
#     4  10  21  35  55  92 121 157 201 248 299 363
#     4   9  16  31  53  85 117 154 195 248 291 343
#     4   8  16  28  60  80 128 154 204 252 294 350
#     4   9  20  37  59  81 110 149 197 241 301 369
#     4   9  19  34  56  80 121 160 198 243 291 353
#     4  10  20  39  58  82 117 153 193 247 305 362
#     4   9  15  31  51  79 109 151 197 239 291 343
#     4  10  19  36  59  86 114 150 194 246 302 360
#
# _framework density 22.306988
#
# number of rings (size 3 to 8) (size 9 to 14) (size 15 to 20)
#    0.414    2.207    0.690    1.241    0.966    0.000 
#   19.862    2.759    0.000    0.000    0.000    3.862 
#    0.000   23.172    0.000    0.000    0.000    0.000 
#
# Total GULP energy -161452.352519 kJ/mol
# GULP energy per Si atom -5567.322501 kJ/mol
# Density = 2.225622 g / cm^3
# Si number density = 22.306988 Si / 1000 Ang^3
#
#
#
# Elastic Constant Matrix: (Units=GPa)
#
#
# Indices 1 2 3 4 5 6 
#
# 1 95.2771 13.5507 19.9432 -0.0009 0.0011 0.0008
# 2 13.5507 45.5889 15.2484 -0.0011 0.0012 0.0007
# 3 19.9432 15.2484 61.1274 -0.0035 0.0043 0.0026
# 4 -0.0009 -0.0011 -0.0035 12.7206 0.0022 0.0013
# 5 0.0011 0.0012 0.0043 0.0022 20.6485 -0.0015
# 6 0.0008 0.0007 0.0026 0.0013 -0.0015 30.9106
#
#
#
# Elastic Compliance Matrix: (Units=1/GPa)
#
#
# Indices 1 2 3 4 5 6 
#
# 1 0.011493 -0.002359 -0.003161 0.000000 0.000000 0.000000
# 2 -0.002359 0.024416 -0.005321 0.000001 0.000000 0.000000
# 3 -0.003161 -0.005321 0.018718 0.000004 -0.000003 -0.000001
# 4 0.000000 0.000001 0.000004 0.078613 -0.000008 -0.000003
# 5 0.000000 0.000000 -0.000003 -0.000008 0.048430 0.000002
# 6 0.000000 0.000000 -0.000001 -0.000003 0.000002 0.032351
#
#
# Mechanical properties :
#
#
# Convention : Reuss Voigt Hill
#
# Bulk Modulus (GPa) = 30.35383 33.27534 31.81458
# Shear Modulus (GPa) = 20.26883 23.07270 21.67077
#
# Velocity S-wave (km/s) = 3.01762 3.21958 3.12024
# Velocity P-wave (km/s) = 5.07723 5.36380 5.22248
#
# Compressibility (1/GPa) = 0.03294478
#
# Stress axis : x y z
#
# Youngs Moduli (GPa) = 87.01050 40.95669 53.42441
#
# Poissons Ratio (x) = 0.09661 0.16889
# Poissons Ratio (y) = 0.20523 0.28428
# Poissons Ratio (z) = 0.27506 0.21794
#
# Static dielectric constant tensor:
#      x y z
#    x 1.842960 0.000000 0.000000 
#    y 0.000000 1.899200 0.000000 
#    z 0.000000 0.000000 1.863900 
# 
# From -- ./inp_files/4944.got.cif
#   From: 2010.05.17/outbox.cif.g08.bks.cpg/sg42_3_cif.got.tgz:4944.got - 2010.06.03 19:03:34.
