data_PCOD9368871
_publ_section_title
;
Structure prediction by ZEFSAII (Michael W. Deem and Ramdas Pophale) SiO2 
 PCOD9368871
Probable space group: F M M 2
;
_chemical_formula_sum "Si O2"
_cell_formula_units_Z 96
_cell_length_a 18.901182
_cell_length_b 8.615785
_cell_length_c 31.946971
_cell_angle_alpha 90.000000
_cell_angle_beta 90.000000
_cell_angle_gamma 90.000000
_cell_volume 5202.516957
_symmetry_space_group_name_H-M "F M M 2"
_symmetry_group_IT_number 42
_symmetry_cell_setting 'orthorhombic'
loop_
_space_group_symop_operation_xyz
x,y,z
-x,-y,z
-x,y,z
x,-y,z
x,1/2+y,1/2+z
-x,1/2-y,1/2+z
-x,1/2+y,1/2+z
x,1/2-y,1/2+z
1/2+x,y,1/2+z
1/2-x,-y,1/2+z
1/2-x,y,1/2+z
1/2+x,-y,1/2+z
1/2+x,1/2+y,z
1/2-x,1/2-y,z
1/2-x,1/2+y,z
1/2+x,1/2-y,z
loop_
_atom_site_type_symbol
_atom_site_label
_atom_site_fract_x
_atom_site_fract_y
_atom_site_fract_z
Si Si1 0.417975 0.187631 0.237240
Si Si2 0.082010 0.812959 0.396259
Si Si3 0.329275 0.313404 0.066323
Si Si4 0.670593 0.186402 0.815362
Si Si5 0.418068 0.312981 0.985663
Si Si6 0.170421 0.813702 0.655451
O O1 0.500000 0.236288 0.238136
O O2 0.374612 0.256219 0.275895
O O3 0.379554 0.232048 0.193937
O O4 0.415873 0.000000 0.239912
O O5 0.130728 0.761697 0.357812
O O6 0.107450 0.752624 0.441270
O O7 0.000000 0.761766 0.390388
O O8 0.081969 0.000000 0.396983
O O9 0.328141 0.500000 0.067904
O O10 0.250000 0.250000 0.061698
O O11 0.356027 0.250339 0.110890
O O12 0.374519 0.262897 0.026251
O O13 0.750000 0.250000 0.813474
O O14 0.672763 0.000000 0.815072
O O15 0.500000 0.265670 0.990222
O O16 0.415361 0.500000 0.983723
O O17 0.250000 0.750000 0.662003
O O18 0.173947 0.000000 0.653376
#
# Coordination Sequence:
#
# PCOD9368871 Si02
#       6
#    16  16  16  16  16  16
#     4  10  22  39  58  82 111 142 178 221 269 322
#     4   9  19  36  56  78 105 138 177 220 265 315
#     4  10  20  34  53  77 106 139 176 218 263 313
#     4  11  23  38  57  82 111 143 181 223 268 320
#     4   9  19  35  54  77 105 138 176 217 262 313
#     4  10  20  35  55  78 106 140 178 219 264 315
#
# _framework density 18.452607
#
# number of rings (size 3 to 8) (size 9 to 14) (size 15 to 20)
#    0.000    2.167    0.000    3.500    0.000    7.667 
#    0.000    5.000    0.000    0.000    0.000    0.000 
#    0.000    0.000    0.000    0.000    0.000    0.000 
#
# Total GULP energy -134002.863770 kJ/mol
# GULP energy per Si atom -5583.452657 kJ/mol
# Density = 1.841061 g / cm^3
# Si number density = 18.452607 Si / 1000 Ang^3
#
#
#
# Elastic Constant Matrix: (Units=GPa)
#
#
# Indices 1 2 3 4 5 6 
#
# 1 115.6791 30.8596 117.5006 0.0000 0.0000 0.0000
# 2 30.8596 29.4432 46.0840 0.0000 0.0000 0.0000
# 3 117.5006 46.0840 227.0549 0.0000 0.0000 0.0000
# 4 0.0000 0.0000 0.0000 30.6052 0.0000 0.0000
# 5 0.0000 0.0000 0.0000 0.0000 42.7177 0.0000
# 6 0.0000 0.0000 0.0000 0.0000 0.0000 18.3512
#
#
#
# Elastic Compliance Matrix: (Units=1/GPa)
#
#
# Indices 1 2 3 4 5 6 
#
# 1 0.019075 -0.006657 -0.008520 0.000000 0.000000 0.000000
# 2 -0.006657 0.052100 -0.007129 0.000000 0.000000 0.000000
# 3 -0.008520 -0.007129 0.010260 0.000000 0.000000 0.000000
# 4 0.000000 0.000000 0.000000 0.032674 0.000000 0.000000
# 5 0.000000 0.000000 0.000000 0.000000 0.023410 0.000000
# 6 0.000000 0.000000 0.000000 0.000000 0.000000 0.054492
#
#
# Mechanical properties :
#
#
# Convention : Reuss Voigt Hill
#
# Bulk Modulus (GPa) = 27.15765 84.56285 55.86025
# Shear Modulus (GPa) = 20.08860 30.18368 25.13614
#
# Velocity S-wave (km/s) = 3.30306 4.04882 3.69480
# Velocity P-wave (km/s) = 5.41262 8.23309 6.96707
#
# Compressibility (1/GPa) = 0.03682204
#
# Stress axis : x y z
#
# Youngs Moduli (GPa) = 52.42581 19.19394 97.46297
#
# Poissons Ratio (x) = 0.12777 0.83038
# Poissons Ratio (y) = 0.34899 0.69486
# Poissons Ratio (z) = 0.44667 0.13684
#
# Static dielectric constant tensor:
#      x y z
#    x 1.615880 0.000000 0.000000 
#    y 0.000000 1.625500 0.000000 
#    z 0.000000 0.000000 1.624990 
# 
# From -- ./inp_files/31436.got.cif
#   From: 2010.05.17/outbox.cif.g08.bks.cpg/sg42_16_cif.got.tgz:31436.got - 2010.06.03 19:03:34.
