data_PCOD9368224
_publ_section_title
;
Structure prediction by ZEFSAII (Michael W. Deem and Ramdas Pophale) SiO2 
 PCOD9368224
Probable space group: F M M 2
;
_chemical_formula_sum "Si O2"
_cell_formula_units_Z 80
_cell_length_a 14.427470
_cell_length_b 11.260212
_cell_length_c 22.968505
_cell_angle_alpha 90.000000
_cell_angle_beta 90.000000
_cell_angle_gamma 90.000000
_cell_volume 3731.379966
_symmetry_space_group_name_H-M "F M M 2"
_symmetry_group_IT_number 42
_symmetry_cell_setting 'orthorhombic'
loop_
_space_group_symop_operation_xyz
x,y,z
-x,-y,z
-x,y,z
x,-y,z
x,1/2+y,1/2+z
-x,1/2-y,1/2+z
-x,1/2+y,1/2+z
x,1/2-y,1/2+z
1/2+x,y,1/2+z
1/2-x,-y,1/2+z
1/2-x,y,1/2+z
1/2+x,-y,1/2+z
1/2+x,1/2+y,z
1/2-x,1/2-y,z
1/2-x,1/2+y,z
1/2+x,1/2-y,z
loop_
_atom_site_type_symbol
_atom_site_label
_atom_site_fract_x
_atom_site_fract_y
_atom_site_fract_z
Si Si1 0.641173 0.760309 0.409790
Si Si2 0.850234 0.500000 0.917217
Si Si3 0.891036 0.697406 0.692370
Si Si4 0.604854 0.000000 0.791437
Si Si5 0.888037 0.365302 0.283853
Si Si6 0.354169 0.000000 0.469789
Si Si7 0.387653 0.500000 0.106221
O O1 0.750000 0.750000 0.423054
O O2 0.603655 0.629559 0.426211
O O3 0.633307 0.788637 0.341162
O O4 0.605906 0.878029 0.442522
O O5 0.830926 0.500000 0.847481
O O6 0.754215 0.500000 0.952214
O O7 0.887693 0.609987 0.748062
O O8 0.850534 0.815433 0.722145
O O9 0.852995 0.619353 0.639163
O O10 0.000000 0.720582 0.678449
O O11 0.500000 0.000000 0.815824
O O12 0.857626 0.500000 0.292836
O O13 0.000000 0.364481 0.279690
O O14 0.365856 0.000000 0.538685
O O15 0.500000 0.500000 0.114089
#
# Coordination Sequence:
#
# PCOD9368224 Si02
#       7
#    16   8  16   8  16   8   8
#     4  10  20  33  50  78 112 152 183 223 276 334
#     4  10  19  31  52  78 105 151 179 229 280 323
#     4   8  15  28  49  80 106 133 173 219 273 324
#     4   9  14  24  47  79 109 129 163 215 270 330
#     4  10  18  29  51  85 120 144 173 227 291 341
#     4  10  21  35  50  76 105 151 199 227 266 327
#     4   9  18  34  57  77 103 147 193 229 264 330
#
# _framework density 21.439789999999999
#
# number of rings (size 3 to 8) (size 9 to 14) (size 15 to 20)
#    0.000    2.600    3.000    1.200    0.000    0.800 
#    0.000    0.000    2.200    3.600    0.000    0.000 
#    0.000    0.000    0.000    0.400    0.000    0.000 
#
# Total GULP energy -111457.830272 kJ/mol
# GULP energy per Si atom -5572.891514 kJ/mol
# Density = 2.139099 g / cm^3
# Si number density = 21.439790 Si / 1000 Ang^3
#
#
#
# Elastic Constant Matrix: (Units=GPa)
#
#
# Indices 1 2 3 4 5 6 
#
# 1 61.8617 15.0274 8.9417 0.0000 0.0000 0.0000
# 2 15.0274 186.4371 52.4191 0.0000 0.0000 0.0000
# 3 8.9417 52.4191 118.5589 0.0000 0.0000 0.0000
# 4 0.0000 0.0000 0.0000 29.3299 0.0000 0.0000
# 5 0.0000 0.0000 0.0000 0.0000 27.1132 0.0000
# 6 0.0000 0.0000 0.0000 0.0000 0.0000 1.1102
#
#
#
# Elastic Compliance Matrix: (Units=1/GPa)
#
#
# Indices 1 2 3 4 5 6 
#
# 1 0.016546 -0.001122 -0.000752 0.000000 0.000000 0.000000
# 2 -0.001122 0.006201 -0.002657 0.000000 0.000000 0.000000
# 3 -0.000752 -0.002657 0.009666 0.000000 0.000000 0.000000
# 4 0.000000 0.000000 0.000000 0.034095 0.000000 0.000000
# 5 0.000000 0.000000 0.000000 0.000000 0.036882 0.000000
# 6 0.000000 0.000000 0.000000 0.000000 0.000000 0.900710
#
#
# Mechanical properties :
#
#
# Convention : Reuss Voigt Hill
#
# Bulk Modulus (GPa) = 42.82394 57.73713 50.28053
# Shear Modulus (GPa) = 4.89741 30.87530 17.88636
#
# Velocity S-wave (km/s) = 1.51302 3.79897 2.89149
# Velocity P-wave (km/s) = 4.80309 6.79936 5.88647
#
# Compressibility (1/GPa) = 0.02335143
#
# Stress axis : x y z
#
# Youngs Moduli (GPa) = 60.43613 161.25653 103.45381
#
# Poissons Ratio (x) = 0.18098 0.07777
# Poissons Ratio (y) = 0.06783 0.27489
# Poissons Ratio (z) = 0.04543 0.42849
#
# Static dielectric constant tensor:
#      x y z
#    x 1.809190 0.000000 0.000000 
#    y 0.000000 1.913740 0.000000 
#    z 0.000000 0.000000 1.703690 
# 
# From -- ./inp_files/24285.got.cif
#   From: 2010.05.17/outbox.cif.g08.bks.cpg/sg42_13_cif.got.tgz:24285.got - 2010.06.03 19:03:34.
