data_PCOD9368802
_publ_section_title
;
Structure prediction by ZEFSAII (Michael W. Deem and Ramdas Pophale) SiO2 
 PCOD9368802
Probable space group: F M M 2
;
_chemical_formula_sum "Si O2"
_cell_formula_units_Z 112
_cell_length_a 18.844141
_cell_length_b 7.505336
_cell_length_c 38.264035
_cell_angle_alpha 90.000000
_cell_angle_beta 90.000000
_cell_angle_gamma 90.000000
_cell_volume 5411.744069
_symmetry_space_group_name_H-M "F M M 2"
_symmetry_group_IT_number 42
_symmetry_cell_setting 'orthorhombic'
loop_
_space_group_symop_operation_xyz
x,y,z
-x,-y,z
-x,y,z
x,-y,z
x,1/2+y,1/2+z
-x,1/2-y,1/2+z
-x,1/2+y,1/2+z
x,1/2-y,1/2+z
1/2+x,y,1/2+z
1/2-x,-y,1/2+z
1/2-x,y,1/2+z
1/2+x,-y,1/2+z
1/2+x,1/2+y,z
1/2-x,1/2-y,z
1/2-x,1/2+y,z
1/2+x,1/2-y,z
loop_
_atom_site_type_symbol
_atom_site_label
_atom_site_fract_x
_atom_site_fract_y
_atom_site_fract_z
Si Si1 0.582047 0.213802 0.005490
Si Si2 0.081986 0.281766 0.293833
Si Si3 0.583068 0.217206 0.081262
Si Si4 0.918806 0.712015 0.429060
Si Si5 0.833369 0.786388 0.862222
Si Si6 0.166574 0.786396 0.726059
Si Si7 0.166828 0.713566 0.148567
O O1 0.500000 0.277335 0.004354
O O2 0.611492 0.275126 0.043014
O O3 0.580583 0.000000 0.006811
O O4 0.613023 0.260701 0.967804
O O5 0.083113 0.500000 0.293678
O O6 0.126340 0.221570 0.327564
O O7 0.119615 0.220517 0.258176
O O8 0.000000 0.228039 0.295874
O O9 0.500000 0.264245 0.083278
O O10 0.624214 0.283201 0.115228
O O11 0.586439 0.000000 0.081695
O O12 0.924246 0.500000 0.424472
O O13 0.871105 0.782189 0.397454
O O14 0.000000 0.783557 0.428016
O O15 0.750000 0.750000 0.861312
O O16 0.841250 0.000000 0.862231
O O17 0.250000 0.750000 0.731874
O O18 0.146899 0.718398 0.687287
O O19 0.158424 0.000000 0.725184
O O20 0.156715 0.500000 0.149288
O O21 0.250000 0.750000 0.143982
#
# Coordination Sequence:
#
# PCOD9368802 Si02
#       7
#    16  16  16  16  16  16  16
#     4   8  14  26  45  67  89 115 147 184 227 269
#     4   9  17  30  49  72  94 116 148 188 224 260
#     4   8  14  26  45  67  89 115 150 189 225 262
#     4   9  17  30  48  68  89 115 149 187 225 265
#     4  10  20  33  49  68  92 122 151 181 221 267
#     4   9  17  29  47  69  92 120 151 183 221 264
#     4   9  17  29  45  66  92 121 151 183 221 265
#
# _framework density 20.695732
#
# number of rings (size 3 to 8) (size 9 to 14) (size 15 to 20)
#    0.000    3.143    0.000    1.714    0.000    2.857 
#    0.000    4.286    0.000    7.286    0.000    4.000 
#    0.000    0.000    0.000    0.000    0.000    0.000 
#
# Total GULP energy -156100.715235 kJ/mol
# GULP energy per Si atom -5575.025544 kJ/mol
# Density = 2.064863 g / cm^3
# Si number density = 20.695732 Si / 1000 Ang^3
#
#
#
# Elastic Constant Matrix: (Units=GPa)
#
#
# Indices 1 2 3 4 5 6 
#
# 1 100.2977 -0.8577 123.2462 0.0000 0.0000 0.0000
# 2 -0.8577 54.9792 10.1657 0.0000 0.0000 0.0000
# 3 123.2462 10.1657 272.7089 0.0000 0.0000 0.0000
# 4 0.0000 0.0000 0.0000 8.8350 0.0000 0.0000
# 5 0.0000 0.0000 0.0000 0.0000 20.7262 0.0000
# 6 0.0000 0.0000 0.0000 0.0000 0.0000 16.3287
#
#
#
# Elastic Compliance Matrix: (Units=1/GPa)
#
#
# Indices 1 2 3 4 5 6 
#
# 1 0.022699 0.002267 -0.010343 0.000000 0.000000 0.000000
# 2 0.002267 0.018541 -0.001715 0.000000 0.000000 0.000000
# 3 -0.010343 -0.001715 0.008405 0.000000 0.000000 0.000000
# 4 0.000000 0.000000 0.000000 0.113187 0.000000 0.000000
# 5 0.000000 0.000000 0.000000 0.000000 0.048248 0.000000
# 6 0.000000 0.000000 0.000000 0.000000 0.000000 0.061242
#
#
# Mechanical properties :
#
#
# Convention : Reuss Voigt Hill
#
# Bulk Modulus (GPa) = 33.26482 77.01048 55.13765
# Shear Modulus (GPa) = 16.56029 28.87340 22.71684
#
# Velocity S-wave (km/s) = 2.83181 3.73921 3.31669
# Velocity P-wave (km/s) = 5.17691 7.47889 6.43173
#
# Compressibility (1/GPa) = 0.03006179
#
# Stress axis : x y z
#
# Youngs Moduli (GPa) = 44.05429 53.93378 118.97358
#
# Poissons Ratio (x) = -0.12224 1.23055
# Poissons Ratio (y) = -0.09985 0.20410
# Poissons Ratio (z) = 0.45566 0.09252
#
# Static dielectric constant tensor:
#      x y z
#    x 1.684830 0.000000 0.000000 
#    y 0.000000 1.943180 0.000000 
#    z 0.000000 0.000000 1.777270 
# 
# From -- ./inp_files/34164.got.cif
#   From: 2010.05.17/outbox.cif.g08.bks.cpg/sg42_18_cif.got.tgz:34164.got - 2010.06.03 19:03:34.
