data_PCOD9368624
_publ_section_title
;
Structure prediction by ZEFSAII (Michael W. Deem and Ramdas Pophale) SiO2 
 PCOD9368624
Probable space group: F M M 2
;
_chemical_formula_sum "Si O2"
_cell_formula_units_Z 96
_cell_length_a 13.983156
_cell_length_b 17.421669
_cell_length_c 18.707667
_cell_angle_alpha 90.000000
_cell_angle_beta 90.000000
_cell_angle_gamma 90.000000
_cell_volume 4557.373175
_symmetry_space_group_name_H-M "F M M 2"
_symmetry_group_IT_number 42
_symmetry_cell_setting 'orthorhombic'
loop_
_space_group_symop_operation_xyz
x,y,z
-x,-y,z
-x,y,z
x,-y,z
x,1/2+y,1/2+z
-x,1/2-y,1/2+z
-x,1/2+y,1/2+z
x,1/2-y,1/2+z
1/2+x,y,1/2+z
1/2-x,-y,1/2+z
1/2-x,y,1/2+z
1/2+x,-y,1/2+z
1/2+x,1/2+y,z
1/2-x,1/2-y,z
1/2-x,1/2+y,z
1/2+x,1/2-y,z
loop_
_atom_site_type_symbol
_atom_site_label
_atom_site_fract_x
_atom_site_fract_y
_atom_site_fract_z
Si Si1 0.394240 0.361372 0.257100
Si Si2 0.740785 0.413507 0.653870
Si Si3 0.706149 0.834858 0.409588
Si Si4 0.391747 0.908169 0.532835
Si Si5 0.885988 0.820572 0.755933
Si Si6 0.101541 0.591035 0.922239
O O1 0.500000 0.375059 0.227586
O O2 0.317003 0.412451 0.218380
O O3 0.370756 0.271192 0.249958
O O4 0.398259 0.381210 0.340269
O O5 0.706927 0.500000 0.639038
O O6 0.808189 0.386498 0.588800
O O7 0.656583 0.361031 0.685380
O O8 0.750000 0.750000 0.410761
O O9 0.620774 0.855987 0.462711
O O10 0.669177 0.848143 0.328256
O O11 0.793471 0.883435 0.443852
O O12 0.500000 0.897950 0.560721
O O13 0.381442 0.000000 0.517180
O O14 0.000000 0.833569 0.763384
O O15 0.098932 0.500000 0.925894
O O16 0.000000 0.620019 0.954560
#
# Coordination Sequence:
#
# PCOD9368624 Si02
#       6
#    16  16  16  16  16  16
#     4  10  19  34  58  86 117 151 193 246 301 356
#     4  11  22  39  61  87 118 157 206 256 308 364
#     4  12  22  38  63  93 129 162 203 253 309 370
#     4  10  24  44  64  88 122 166 212 259 311 370
#     4  11  23  39  61  90 125 160 199 251 309 371
#     4  10  20  34  55  86 119 154 197 243 296 353
#
# _framework density 21.064765999999999
#
# number of rings (size 3 to 8) (size 9 to 14) (size 15 to 20)
#    0.000    1.333    3.333    2.500    0.000    4.667 
#    0.000    0.833    0.000    1.000    0.000    0.000 
#    0.000    0.000    0.000    0.000    0.000    0.000 
#
# Total GULP energy -133792.692611 kJ/mol
# GULP energy per Si atom -5574.695525 kJ/mol
# Density = 2.101682 g / cm^3
# Si number density = 21.064766 Si / 1000 Ang^3
#
#
#
# Elastic Constant Matrix: (Units=GPa)
#
#
# Indices 1 2 3 4 5 6 
#
# 1 121.7996 33.4168 24.3884 0.0000 0.0000 0.0000
# 2 33.4168 26.4026 13.7038 0.0000 0.0000 0.0000
# 3 24.3884 13.7038 76.6418 0.0000 0.0000 0.0000
# 4 0.0000 0.0000 0.0000 5.4347 0.0000 0.0000
# 5 0.0000 0.0000 0.0000 0.0000 37.4572 0.0000
# 6 0.0000 0.0000 0.0000 0.0000 0.0000 22.2399
#
#
#
# Elastic Compliance Matrix: (Units=1/GPa)
#
#
# Indices 1 2 3 4 5 6 
#
# 1 0.012692 -0.015396 -0.001286 0.000000 0.000000 0.000000
# 2 -0.015396 0.060426 -0.005905 0.000000 0.000000 0.000000
# 3 -0.001286 -0.005905 0.014513 0.000000 0.000000 0.000000
# 4 0.000000 0.000000 0.000000 0.184002 0.000000 0.000000
# 5 0.000000 0.000000 0.000000 0.000000 0.026697 0.000000
# 6 0.000000 0.000000 0.000000 0.000000 0.000000 0.044964
#
#
# Mechanical properties :
#
#
# Convention : Reuss Voigt Hill
#
# Bulk Modulus (GPa) = 23.55347 40.87354 32.21351
# Shear Modulus (GPa) = 12.41865 23.24871 17.83368
#
# Velocity S-wave (km/s) = 2.43069 3.32577 2.91282
# Velocity P-wave (km/s) = 4.36846 5.84752 5.16125
#
# Compressibility (1/GPa) = 0.04245659
#
# Stress axis : x y z
#
# Youngs Moduli (GPa) = 78.79163 16.54914 68.90504
#
# Poissons Ratio (x) = 0.25479 0.08860
# Poissons Ratio (y) = 1.21308 0.40689
# Poissons Ratio (z) = 0.10131 0.09772
#
# Static dielectric constant tensor:
#      x y z
#    x 1.841160 0.000000 0.000000 
#    y 0.000000 1.746630 0.000000 
#    z 0.000000 0.000000 1.743860 
# 
# From -- ./inp_files/25099.got.cif
#   From: 2010.05.17/outbox.cif.g08.bks.cpg/sg42_13_cif.got.tgz:25099.got - 2010.06.03 19:03:34.
