data_PCOD9368903
_publ_section_title
;
Structure prediction by ZEFSAII (Michael W. Deem and Ramdas Pophale) SiO2 
 PCOD9368903
Probable space group: F M M 2
;
_chemical_formula_sum "Si O2"
_cell_formula_units_Z 112
_cell_length_a 21.369331
_cell_length_b 24.968980
_cell_length_c 10.303667
_cell_angle_alpha 90.000000
_cell_angle_beta 90.000000
_cell_angle_gamma 90.000000
_cell_volume 5497.731706
_symmetry_space_group_name_H-M "F M M 2"
_symmetry_group_IT_number 42
_symmetry_cell_setting 'orthorhombic'
loop_
_space_group_symop_operation_xyz
x,y,z
-x,-y,z
-x,y,z
x,-y,z
x,1/2+y,1/2+z
-x,1/2-y,1/2+z
-x,1/2+y,1/2+z
x,1/2-y,1/2+z
1/2+x,y,1/2+z
1/2-x,-y,1/2+z
1/2-x,y,1/2+z
1/2+x,-y,1/2+z
1/2+x,1/2+y,z
1/2-x,1/2-y,z
1/2-x,1/2+y,z
1/2+x,1/2-y,z
loop_
_atom_site_type_symbol
_atom_site_label
_atom_site_fract_x
_atom_site_fract_y
_atom_site_fract_z
Si Si1 0.927467 0.559091 0.313390
Si Si2 0.682584 0.227465 0.849649
Si Si3 0.403475 0.556762 0.504786
Si Si4 0.761839 0.130077 0.192068
Si Si5 0.744036 0.561418 0.454392
Si Si6 0.373462 0.836204 0.248577
Si Si7 0.567510 0.827219 0.986679
O O1 0.905284 0.500000 0.358764
O O2 0.922533 0.556947 0.156128
O O3 0.891100 0.614170 0.342457
O O4 0.000000 0.564271 0.349920
O O5 0.750000 0.250000 0.901149
O O6 0.700492 0.183160 0.738830
O O7 0.645193 0.280169 0.808649
O O8 0.631752 0.199291 0.940369
O O9 0.424215 0.500000 0.447318
O O10 0.328464 0.558230 0.498255
O O11 0.429140 0.610731 0.443222
O O12 0.779079 0.098350 0.061094
O O13 0.758877 0.089558 0.314288
O O14 0.690163 0.147709 0.174893
O O15 0.766817 0.500000 0.448580
O O16 0.427271 0.828141 0.142699
O O17 0.500000 0.804137 0.946571
#
# Coordination Sequence:
#
# PCOD9368903 Si02
#       7
#    16  16  16  16  16  16  16
#     4   9  16  28  50  79 109 140 182 244 313 366
#     4  10  23  37  56  82 116 164 207 252 314 380
#     4   9  16  30  51  80 114 146 185 245 311 364
#     4  11  20  38  57  83 124 162 205 252 307 374
#     4  11  21  33  57  87 122 160 202 257 316 375
#     4  10  20  34  55  78 110 156 198 246 303 371
#     4  11  21  37  58  85 119 154 207 268 311 360
#
# _framework density 20.372038
#
# number of rings (size 3 to 8) (size 9 to 14) (size 15 to 20)
#    0.000    1.857    4.286    2.143    0.000    6.571 
#    0.000    0.000    0.000    0.000    0.000    0.000 
#    0.000    2.286    0.000    0.000    0.000    0.000 
#
# Total GULP energy -155912.569940 kJ/mol
# GULP energy per Si atom -5568.306069 kJ/mol
# Density = 2.032567 g / cm^3
# Si number density = 20.372038 Si / 1000 Ang^3
#
#
#
# Elastic Constant Matrix: (Units=GPa)
#
#
# Indices 1 2 3 4 5 6 
#
# 1 115.4427 49.3102 18.8060 0.0000 0.0000 0.0000
# 2 49.3102 173.4400 37.9499 0.0000 0.0000 0.0000
# 3 18.8060 37.9499 47.0053 0.0000 -0.0001 0.0000
# 4 0.0000 0.0000 0.0000 10.3505 -0.0001 0.0000
# 5 0.0000 0.0000 -0.0001 -0.0001 14.4328 0.0000
# 6 0.0000 0.0000 0.0000 0.0000 0.0000 20.2372
#
#
#
# Elastic Compliance Matrix: (Units=1/GPa)
#
#
# Indices 1 2 3 4 5 6 
#
# 1 0.010024 -0.002396 -0.002076 0.000000 0.000000 0.000000
# 2 -0.002396 0.007575 -0.005157 0.000000 0.000000 0.000000
# 3 -0.002076 -0.005157 0.026269 0.000000 0.000000 0.000000
# 4 0.000000 0.000000 0.000000 0.096614 0.000000 0.000000
# 5 0.000000 0.000000 0.000000 0.000000 0.069287 0.000000
# 6 0.000000 0.000000 0.000000 0.000000 0.000000 0.049414
#
#
# Mechanical properties :
#
#
# Convention : Reuss Voigt Hill
#
# Bulk Modulus (GPa) = 40.63523 60.89113 50.76318
# Shear Modulus (GPa) = 17.44324 24.32555 20.88440
#
# Velocity S-wave (km/s) = 2.92932 3.45927 3.20527
# Velocity P-wave (km/s) = 5.60635 6.77568 6.21856
#
# Compressibility (1/GPa) = 0.02460919
#
# Stress axis : x y z
#
# Youngs Moduli (GPa) = 99.76292 132.00901 38.06794
#
# Poissons Ratio (x) = 0.31623 0.07904
# Poissons Ratio (y) = 0.23898 0.19634
# Poissons Ratio (z) = 0.20714 0.68084
#
# Static dielectric constant tensor:
#      x y z
#    x 1.788870 0.000000 0.000000 
#    y 0.000000 1.835700 0.000000 
#    z 0.000000 0.000000 1.744160 
# 
# From -- ./inp_files/9668.got.cif
#   From: 2010.05.17/outbox.cif.g08.bks.cpg/sg42_5_cif.got.tgz:9668.got - 2010.06.03 19:03:34.
