data_PCOD9368945
_publ_section_title
;
Structure prediction by ZEFSAII (Michael W. Deem and Ramdas Pophale) SiO2 
 PCOD9368945
Probable space group: F M M 2
;
_chemical_formula_sum "Si O2"
_cell_formula_units_Z 96
_cell_length_a 13.184813
_cell_length_b 21.089460
_cell_length_c 18.269711
_cell_angle_alpha 90.000000
_cell_angle_beta 90.000000
_cell_angle_gamma 90.000000
_cell_volume 5080.086553
_symmetry_space_group_name_H-M "F M M 2"
_symmetry_group_IT_number 42
_symmetry_cell_setting 'orthorhombic'
loop_
_space_group_symop_operation_xyz
x,y,z
-x,-y,z
-x,y,z
x,-y,z
x,1/2+y,1/2+z
-x,1/2-y,1/2+z
-x,1/2+y,1/2+z
x,1/2-y,1/2+z
1/2+x,y,1/2+z
1/2-x,-y,1/2+z
1/2-x,y,1/2+z
1/2+x,-y,1/2+z
1/2+x,1/2+y,z
1/2-x,1/2-y,z
1/2-x,1/2+y,z
1/2+x,1/2-y,z
loop_
_atom_site_type_symbol
_atom_site_label
_atom_site_fract_x
_atom_site_fract_y
_atom_site_fract_z
Si Si1 0.218122 0.175942 0.576180
Si Si2 0.173712 0.342720 0.920691
Si Si3 0.889625 0.704233 0.379165
Si Si4 0.116095 0.926020 0.122212
Si Si5 0.188507 0.573451 0.783412
Si Si6 0.383903 0.353734 0.728193
O O1 0.250000 0.250000 0.563372
O O2 0.156866 0.148235 0.506644
O O3 0.312628 0.128073 0.588236
O O4 0.153108 0.171960 0.650440
O O5 0.121927 0.276515 0.901307
O O6 0.295692 0.332546 0.913851
O O7 0.149762 0.390839 0.855644
O O8 0.880709 0.699565 0.291359
O O9 0.000000 0.678774 0.400164
O O10 0.122693 0.916813 0.210218
O O11 0.000000 0.919575 0.098070
O O12 0.148517 0.000000 0.108390
O O13 0.192088 0.500000 0.800452
O O14 0.300741 0.596675 0.758202
O O15 0.500000 0.377201 0.724255
#
# Coordination Sequence:
#
# PCOD9368945 Si02
#       6
#    16  16  16  16  16  16
#     4  11  22  35  53  85 122 151 186 232 285 345
#     4  10  20  35  51  79 114 142 181 223 275 338
#     4   9  18  34  53  72 102 143 181 223 268 315
#     4   9  20  39  61  84 111 149 197 241 281 333
#     4   9  19  36  60  81 105 143 189 236 275 325
#     4   9  20  35  55  80 108 143 185 228 275 330
#
# _framework density 18.897316
#
# number of rings (size 3 to 8) (size 9 to 14) (size 15 to 20)
#    0.000    2.500    1.667    0.000    7.000    3.667 
#    0.000    0.000    0.000    0.000    0.000    2.333 
#    0.000    0.000    0.000    0.000    0.000    0.000 
#
# Total GULP energy -133682.898509 kJ/mol
# GULP energy per Si atom -5570.120771 kJ/mol
# Density = 1.885430 g / cm^3
# Si number density = 18.897316 Si / 1000 Ang^3
#
#
#
# Elastic Constant Matrix: (Units=GPa)
#
#
# Indices 1 2 3 4 5 6 
#
# 1 53.5597 -6.7128 -13.6131 0.0000 0.0000 0.0000
# 2 -6.7128 68.2640 18.9774 0.0000 0.0000 0.0000
# 3 -13.6131 18.9774 83.4974 0.0000 0.0000 0.0000
# 4 0.0000 0.0000 0.0000 6.1602 0.0000 0.0000
# 5 0.0000 0.0000 0.0000 0.0000 10.4881 0.0000
# 6 0.0000 0.0000 0.0000 0.0000 0.0000 4.2500
#
#
#
# Elastic Compliance Matrix: (Units=1/GPa)
#
#
# Indices 1 2 3 4 5 6 
#
# 1 0.019556 0.001107 0.002937 0.000000 0.000000 0.000000
# 2 0.001107 0.015700 -0.003388 0.000000 0.000000 0.000000
# 3 0.002937 -0.003388 0.013225 0.000000 0.000000 0.000000
# 4 0.000000 0.000000 0.000000 0.162331 0.000000 0.000000
# 5 0.000000 0.000000 0.000000 0.000000 0.095346 0.000000
# 6 0.000000 0.000000 0.000000 0.000000 0.000000 0.235293
#
#
# Mechanical properties :
#
#
# Convention : Reuss Voigt Hill
#
# Bulk Modulus (GPa) = 20.08358 22.51380 21.29869
# Shear Modulus (GPa) = 8.98090 17.95764 13.46927
#
# Velocity S-wave (km/s) = 2.18238 3.08600 2.67265
# Velocity P-wave (km/s) = 4.12325 4.96361 4.56282
#
# Compressibility (1/GPa) = 0.04979192
#
# Stress axis : x y z
#
# Youngs Moduli (GPa) = 51.13551 63.69573 75.61312
#
# Poissons Ratio (x) = -0.07049 -0.22206
# Poissons Ratio (y) = -0.05659 0.25616
# Poissons Ratio (z) = -0.15018 0.21579
#
# Static dielectric constant tensor:
#      x y z
#    x 1.684820 0.000000 0.000000 
#    y 0.000000 1.633350 0.000000 
#    z 0.000000 0.000000 1.671800 
# 
# From -- ./inp_files/14016.got.cif
#   From: 2010.05.17/outbox.cif.g08.bks.cpg/sg42_8_cif.got.tgz:14016.got - 2010.06.03 19:03:34.
