data_PCOD9368211
_publ_section_title
;
Structure prediction by ZEFSAII (Michael W. Deem and Ramdas Pophale) SiO2 
 PCOD9368211
Probable space group: F M M 2
;
_chemical_formula_sum "Si O2"
_cell_formula_units_Z 112
_cell_length_a 7.581324
_cell_length_b 30.063058
_cell_length_c 26.467291
_cell_angle_alpha 90.000000
_cell_angle_beta 90.000000
_cell_angle_gamma 90.000000
_cell_volume 6032.366290
_symmetry_space_group_name_H-M "F M M 2"
_symmetry_group_IT_number 42
_symmetry_cell_setting 'orthorhombic'
loop_
_space_group_symop_operation_xyz
x,y,z
-x,-y,z
-x,y,z
x,-y,z
x,1/2+y,1/2+z
-x,1/2-y,1/2+z
-x,1/2+y,1/2+z
x,1/2-y,1/2+z
1/2+x,y,1/2+z
1/2-x,-y,1/2+z
1/2-x,y,1/2+z
1/2+x,-y,1/2+z
1/2+x,1/2+y,z
1/2-x,1/2-y,z
1/2-x,1/2+y,z
1/2+x,1/2-y,z
loop_
_atom_site_type_symbol
_atom_site_label
_atom_site_fract_x
_atom_site_fract_y
_atom_site_fract_z
Si Si1 0.216365 0.642965 0.032070
Si Si2 0.714561 0.450666 0.492001
Si Si3 0.711809 0.198786 0.127092
Si Si4 0.208939 0.699036 0.240646
Si Si5 0.709446 0.857539 0.837668
Si Si6 0.211659 0.197791 0.433675
Si Si7 0.714983 0.950835 0.873889
O O1 0.276949 0.665681 0.083866
O O2 0.000000 0.643226 0.032285
O O3 0.273261 0.592131 0.023322
O O4 0.273793 0.672459 0.984004
O O5 0.500000 0.450884 0.493442
O O6 0.773797 0.500000 0.508091
O O7 0.761990 0.444610 0.432971
O O8 0.500000 0.194184 0.128825
O O9 0.750000 0.250000 0.113323
O O10 0.781603 0.191302 0.184019
O O11 0.250000 0.750000 0.255157
O O12 0.266287 0.665411 0.283883
O O13 0.000000 0.695414 0.237270
O O14 0.500000 0.860581 0.845997
O O15 0.779799 0.826397 0.883013
O O16 0.777979 0.907848 0.843368
O O17 0.250000 0.250000 0.434251
O O18 0.000000 0.193419 0.433643
O O19 0.500000 0.951824 0.871996
O O20 0.775779 0.000000 0.857775
#
# Coordination Sequence:
#
# PCOD9368211 Si02
#       7
#    16  16  16  16  16  16  16
#     4   9  15  26  42  62  89 116 140 175 221 263
#     4   8  12  20  38  64  91 115 140 174 217 262
#     4   9  18  31  47  64  86 116 151 186 218 255
#     4  10  20  33  47  64  86 118 157 192 222 259
#     4  10  18  29  46  68  92 118 146 182 226 268
#     4  10  19  28  40  62  91 117 140 170 216 268
#     4   8  13  23  41  66  93 117 145 182 220 260
#
# _framework density 18.566511999999999
#
# number of rings (size 3 to 8) (size 9 to 14) (size 15 to 20)
#    0.000    2.857    1.429    2.143    0.000    2.286 
#    0.000    0.000    0.000    1.286    0.000    2.000 
#    0.000    2.286    0.000    0.000    0.000    0.000 
#
# Total GULP energy -156133.720030 kJ/mol
# GULP energy per Si atom -5576.204287 kJ/mol
# Density = 1.852425 g / cm^3
# Si number density = 18.566512 Si / 1000 Ang^3
#
#
#
# Elastic Constant Matrix: (Units=GPa)
#
#
# Indices 1 2 3 4 5 6 
#
# 1 39.3724 2.8817 3.1248 0.0000 0.0000 0.0000
# 2 2.8817 211.8669 115.3125 0.0000 0.0000 0.0000
# 3 3.1248 115.3125 114.5638 0.0000 0.0000 0.0000
# 4 0.0000 0.0000 0.0000 25.5883 0.0000 0.0000
# 5 0.0000 0.0000 0.0000 0.0000 -8.9595 0.0000
# 6 0.0000 0.0000 0.0000 0.0000 0.0000 8.7246
#
#
#
# Elastic Compliance Matrix: (Units=1/GPa)
#
#
# Indices 1 2 3 4 5 6 
#
# 1 0.025454 0.000070 -0.000765 0.000000 0.000000 0.000000
# 2 0.000070 0.010439 -0.010509 0.000000 0.000000 0.000000
# 3 -0.000765 -0.010509 0.019327 0.000000 0.000000 0.000000
# 4 0.000000 0.000000 0.000000 0.039080 0.000000 0.000000
# 5 0.000000 0.000000 0.000000 0.000000 -0.111614 0.000000
# 6 0.000000 0.000000 0.000000 0.000000 0.000000 0.114618
#
#
# Mechanical properties :
#
#
# Convention : Reuss Voigt Hill
#
# Bulk Modulus (GPa) = 30.47593 67.60456 49.04025
# Shear Modulus (GPa) = 38.27070 21.36964 29.82017
#
# Velocity S-wave (km/s) = 4.54505 3.39629 4.01200
# Velocity P-wave (km/s) = 6.63276 7.20214 6.92330
#
# Compressibility (1/GPa) = 0.03281278
#
# Stress axis : x y z
#
# Youngs Moduli (GPa) = 39.28643 95.79916 51.74131
#
# Poissons Ratio (x) = -0.00671 0.03957
# Poissons Ratio (y) = -0.00275 0.54373
# Poissons Ratio (z) = 0.03004 1.00672
#
# Static dielectric constant tensor:
#      x y z
#    x 1.713250 0.000000 0.000000 
#    y 0.000000 1.638410 0.000000 
#    z 0.000000 0.000000 1.636770 
# 
# From -- ./inp_files/29065.got.cif
#   From: 2010.05.17/outbox.cif.g08.bks.cpg/sg42_15_cif.got.tgz:29065.got - 2010.06.03 19:03:34.
