data_PCOD9368775
_publ_section_title
;
Structure prediction by ZEFSAII (Michael W. Deem and Ramdas Pophale) SiO2 
 PCOD9368775
Probable space group: F M M 2
;
_chemical_formula_sum "Si O2"
_cell_formula_units_Z 80
_cell_length_a 18.523211
_cell_length_b 7.496157
_cell_length_c 27.857528
_cell_angle_alpha 90.000000
_cell_angle_beta 90.000000
_cell_angle_gamma 90.000000
_cell_volume 3868.098488
_symmetry_space_group_name_H-M "F M M 2"
_symmetry_group_IT_number 42
_symmetry_cell_setting 'orthorhombic'
loop_
_space_group_symop_operation_xyz
x,y,z
-x,-y,z
-x,y,z
x,-y,z
x,1/2+y,1/2+z
-x,1/2-y,1/2+z
-x,1/2+y,1/2+z
x,1/2-y,1/2+z
1/2+x,y,1/2+z
1/2-x,-y,1/2+z
1/2-x,y,1/2+z
1/2+x,-y,1/2+z
1/2+x,1/2+y,z
1/2-x,1/2-y,z
1/2-x,1/2+y,z
1/2+x,1/2-y,z
loop_
_atom_site_type_symbol
_atom_site_label
_atom_site_fract_x
_atom_site_fract_y
_atom_site_fract_z
Si Si1 0.583137 0.214229 0.728780
Si Si2 0.584159 0.281676 0.021523
Si Si3 0.417553 0.713169 0.833381
Si Si4 0.834401 0.786299 0.926852
Si Si5 0.412208 0.788988 0.626047
O O1 0.500000 0.280466 0.731590
O O2 0.615897 0.254109 0.780692
O O3 0.613925 0.281465 0.677802
O O4 0.580338 0.000000 0.724997
O O5 0.500000 0.232886 0.015824
O O6 0.586086 0.500000 0.022584
O O7 0.629331 0.219311 0.975935
O O8 0.610604 0.217767 0.074031
O O9 0.500000 0.783614 0.834265
O O10 0.422002 0.500000 0.838222
O O11 0.372867 0.782420 0.878617
O O12 0.750000 0.750000 0.925949
O O13 0.844488 0.000000 0.927226
O O14 0.500000 0.773561 0.626862
O O15 0.395613 0.000000 0.625320
#
# Coordination Sequence:
#
# PCOD9368775 Si02
#       5
#    16  16  16  16  16
#     4   8  13  22  39  65  92 113 136 171 214 255
#     4   8  13  24  45  69  88 109 142 181 214 248
#     4   9  17  29  45  65  88 114 145 179 213 252
#     4  10  20  32  46  64  87 115 146 180 218 258
#     4   7  10  18  36  64  91 109 132 171 213 250
#
# _framework density 20.681996000000002
#
# number of rings (size 3 to 8) (size 9 to 14) (size 15 to 20)
#    0.000    3.600    0.000    3.000    0.000    3.200 
#    0.000    0.000    0.000    4.200    0.000    8.400 
#    0.000    0.000    0.000    0.000    0.000    0.000 
#
# Total GULP energy -111339.287486 kJ/mol
# GULP energy per Si atom -5566.964374 kJ/mol
# Density = 2.063492 g / cm^3
# Si number density = 20.681996 Si / 1000 Ang^3
#
#
#
# Elastic Constant Matrix: (Units=GPa)
#
#
# Indices 1 2 3 4 5 6 
#
# 1 50.2394 -1.1356 81.3102 0.0000 0.0000 0.0000
# 2 -1.1356 56.5540 10.4282 0.0000 0.0000 0.0000
# 3 81.3102 10.4282 295.1687 0.0000 0.0000 0.0000
# 4 0.0000 0.0000 0.0000 10.2887 0.0000 0.0000
# 5 0.0000 0.0000 0.0000 0.0000 -5.2670 0.0000
# 6 0.0000 0.0000 0.0000 0.0000 0.0000 9.7301
#
#
#
# Elastic Compliance Matrix: (Units=1/GPa)
#
#
# Indices 1 2 3 4 5 6 
#
# 1 0.036291 0.002589 -0.010089 0.000000 0.000000 0.000000
# 2 0.002589 0.017983 -0.001349 0.000000 0.000000 0.000000
# 3 -0.010089 -0.001349 0.006215 0.000000 0.000000 0.000000
# 4 0.000000 0.000000 0.000000 0.097194 0.000000 0.000000
# 5 0.000000 0.000000 0.000000 0.000000 -0.189862 0.000000
# 6 0.000000 0.000000 0.000000 0.000000 0.000000 0.102774
#
#
# Mechanical properties :
#
#
# Convention : Reuss Voigt Hill
#
# Bulk Modulus (GPa) = 23.36862 64.79640 44.08251
# Shear Modulus (GPa) = 48.75482 23.70766 36.23124
#
# Velocity S-wave (km/s) = 4.86053 3.38937 4.19002
# Velocity P-wave (km/s) = 6.54394 6.83484 6.69097
#
# Compressibility (1/GPa) = 0.04279243
#
# Stress axis : x y z
#
# Youngs Moduli (GPa) = 27.55495 55.60847 160.91026
#
# Poissons Ratio (x) = -0.14397 1.62336
# Poissons Ratio (y) = -0.07134 0.21699
# Poissons Ratio (z) = 0.27799 0.07499
#
# Static dielectric constant tensor:
#      x y z
#    x 1.671080 0.000000 0.000000 
#    y 0.000000 1.815350 0.000000 
#    z 0.000000 0.000000 1.821340 
# 
# From -- ./inp_files/28620.got.cif
#   From: 2010.05.17/outbox.cif.g08.bks.cpg/sg42_15_cif.got.tgz:28620.got - 2010.06.03 19:03:34.
