data_PCOD9368820
_publ_section_title
;
Structure prediction by ZEFSAII (Michael W. Deem and Ramdas Pophale) SiO2 
 PCOD9368820
Probable space group: F M M 2
;
_chemical_formula_sum "Si O2"
_cell_formula_units_Z 112
_cell_length_a 8.907758
_cell_length_b 18.419312
_cell_length_c 37.744138
_cell_angle_alpha 90.000000
_cell_angle_beta 90.000000
_cell_angle_gamma 90.000000
_cell_volume 6192.860905
_symmetry_space_group_name_H-M "F M M 2"
_symmetry_group_IT_number 42
_symmetry_cell_setting 'orthorhombic'
loop_
_space_group_symop_operation_xyz
x,y,z
-x,-y,z
-x,y,z
x,-y,z
x,1/2+y,1/2+z
-x,1/2-y,1/2+z
-x,1/2+y,1/2+z
x,1/2-y,1/2+z
1/2+x,y,1/2+z
1/2-x,-y,1/2+z
1/2-x,y,1/2+z
1/2+x,-y,1/2+z
1/2+x,1/2+y,z
1/2-x,1/2-y,z
1/2-x,1/2+y,z
1/2+x,1/2-y,z
loop_
_atom_site_type_symbol
_atom_site_label
_atom_site_fract_x
_atom_site_fract_y
_atom_site_fract_z
Si Si1 0.180142 0.670286 0.735870
Si Si2 0.681818 0.670283 0.376319
Si Si3 0.177251 0.086749 0.670439
Si Si4 0.182750 0.583151 0.806149
Si Si5 0.180584 0.415346 0.946816
Si Si6 0.320944 0.086986 0.519543
Si Si7 0.175348 0.588343 0.597201
O O1 0.250000 0.750000 0.736520
O O2 0.235086 0.627906 0.701176
O O3 0.228624 0.626283 0.770995
O O4 0.000000 0.674954 0.735819
O O5 0.500000 0.674421 0.376086
O O6 0.750000 0.750000 0.374669
O O7 0.728905 0.624142 0.341912
O O8 0.727745 0.629873 0.412485
O O9 0.231920 0.111057 0.631490
O O10 0.000000 0.098955 0.674156
O O11 0.205445 0.000000 0.673263
O O12 0.234924 0.500000 0.805500
O O13 0.000000 0.581684 0.806239
O O14 0.226870 0.500000 0.942718
O O15 0.244326 0.385335 0.983856
O O16 0.000000 0.414361 0.948565
O O17 0.500000 0.097359 0.517524
O O18 0.270948 0.114161 0.558372
O O19 0.292975 0.000000 0.519513
O O20 0.180815 0.500000 0.596154
O O21 0.000000 0.607955 0.601457
#
# Coordination Sequence:
#
# PCOD9368820 Si02
#       7
#    16  16  16  16  16  16  16
#     4  11  22  36  55  77 104 138 174 211 255 308
#     4  10  20  34  52  74 102 134 168 206 248 297
#     4  10  20  33  51  77 107 137 172 216 261 305
#     4   9  18  34  57  81 102 129 168 210 251 299
#     4   9  17  29  47  71  98 130 168 209 252 298
#     4   8  14  25  43  69 100 131 164 207 256 301
#     4   8  14  26  45  70 100 133 168 207 255 308
#
# _framework density 18.085342000000001
#
# number of rings (size 3 to 8) (size 9 to 14) (size 15 to 20)
#    0.000    2.714    0.000    3.000    0.000    4.286 
#    0.000    3.571    0.000    3.857    0.000    2.000 
#    0.000    0.000    0.000    0.000    0.000    0.000 
#
# Total GULP energy -156107.760401 kJ/mol
# GULP energy per Si atom -5575.277157 kJ/mol
# Density = 1.804418 g / cm^3
# Si number density = 18.085342 Si / 1000 Ang^3
#
#
#
# Elastic Constant Matrix: (Units=GPa)
#
#
# Indices 1 2 3 4 5 6 
#
# 1 26.8133 35.3214 51.6329 0.0000 0.0000 0.0000
# 2 35.3214 78.7862 74.9435 0.0000 0.0000 0.0000
# 3 51.6329 74.9435 205.6425 0.0000 0.0000 0.0000
# 4 0.0000 0.0000 0.0000 -7.4141 0.0000 0.0000
# 5 0.0000 0.0000 0.0000 0.0000 25.4448 0.0000
# 6 0.0000 0.0000 0.0000 0.0000 0.0000 21.9954
#
#
#
# Elastic Compliance Matrix: (Units=1/GPa)
#
#
# Indices 1 2 3 4 5 6 
#
# 1 0.116860 -0.037470 -0.015686 0.000000 0.000000 0.000000
# 2 -0.037470 0.031441 -0.002050 0.000000 0.000000 0.000000
# 3 -0.015686 -0.002050 0.009549 0.000000 0.000000 0.000000
# 4 0.000000 0.000000 0.000000 -0.134878 0.000000 0.000000
# 5 0.000000 0.000000 0.000000 0.000000 0.039301 0.000000
# 6 0.000000 0.000000 0.000000 0.000000 0.000000 0.045464
#
#
# Mechanical properties :
#
#
# Convention : Reuss Voigt Hill
#
# Bulk Modulus (GPa) = 21.08033 70.55975 45.82004
# Shear Modulus (GPa) = 21.37101 17.96149 19.66625
#
# Velocity S-wave (km/s) = 3.44128 3.15485 3.30117
# Velocity P-wave (km/s) = 5.24130 7.23674 6.31829
#
# Compressibility (1/GPa) = 0.04743760
#
# Stress axis : x y z
#
# Youngs Moduli (GPa) = 8.55725 31.80513 104.72830
#
# Poissons Ratio (x) = 1.19173 1.64276
# Poissons Ratio (y) = 0.32064 0.21474
# Poissons Ratio (z) = 0.13423 0.06522
#
# Static dielectric constant tensor:
#      x y z
#    x 1.608590 0.000000 0.000000 
#    y 0.000000 1.596770 0.000000 
#    z 0.000000 0.000000 1.632040 
# 
# From -- ./inp_files/34181.got.cif
#   From: 2010.05.17/outbox.cif.g08.bks.cpg/sg42_18_cif.got.tgz:34181.got - 2010.06.03 19:03:34.
