data_PCOD9368574
_publ_section_title
;
Structure prediction by ZEFSAII (Michael W. Deem and Ramdas Pophale) SiO2 
 PCOD9368574
Probable space group: F M M 2
;
_chemical_formula_sum "Si O2"
_cell_formula_units_Z 116
_cell_length_a 18.980039
_cell_length_b 31.944386
_cell_length_c 8.486884
_cell_angle_alpha 90.000000
_cell_angle_beta 90.000000
_cell_angle_gamma 90.000000
_cell_volume 5145.646077
_symmetry_space_group_name_H-M "F M M 2"
_symmetry_group_IT_number 42
_symmetry_cell_setting 'orthorhombic'
loop_
_space_group_symop_operation_xyz
x,y,z
-x,-y,z
-x,y,z
x,-y,z
x,1/2+y,1/2+z
-x,1/2-y,1/2+z
-x,1/2+y,1/2+z
x,1/2-y,1/2+z
1/2+x,y,1/2+z
1/2-x,-y,1/2+z
1/2-x,y,1/2+z
1/2+x,-y,1/2+z
1/2+x,1/2+y,z
1/2-x,1/2-y,z
1/2-x,1/2+y,z
1/2+x,1/2-y,z
loop_
_atom_site_type_symbol
_atom_site_label
_atom_site_fract_x
_atom_site_fract_y
_atom_site_fract_z
Si Si1 0.000000 0.500000 0.424990
Si Si2 0.137691 0.888837 0.642983
Si Si3 0.915308 0.270617 0.660594
Si Si4 0.603029 0.935055 0.568337
Si Si5 0.607646 0.046533 0.920330
Si Si6 0.772999 0.451536 0.350258
Si Si7 0.585670 0.687733 0.498375
Si Si8 0.581853 0.844849 0.452188
O O1 0.059923 0.462835 0.444149
O O2 0.086409 0.921637 0.555750
O O3 0.197415 0.917786 0.724860
O O4 0.137959 0.851905 0.512533
O O5 0.110243 0.862044 0.789074
O O6 0.903093 0.289041 0.832608
O O7 0.894990 0.222982 0.627718
O O8 0.886144 0.303961 0.533640
O O9 0.000000 0.270004 0.641023
O O10 0.580947 0.949507 0.742121
O O11 0.682154 0.944391 0.510717
O O12 0.589269 0.885684 0.562686
O O13 0.691267 0.054024 0.891990
O O14 0.593968 0.000000 0.977010
O O15 0.782199 0.500000 0.297371
O O16 0.500000 0.677349 0.509024
O O17 0.500000 0.836034 0.427096
#
# Coordination Sequence:
#
# PCOD9368574 Si02
#       8
#     4  16  16  16  16  16  16  16
#     4  12  20  36  52  82 116 152 192 224 304 384
#     4  11  22  33  54  86 113 142 185 242 300 341
#     4   9  18  33  57  79 116 160 200 233 277 345
#     4  11  21  36  57  79 111 155 189 238 297 359
#     4  11  22  39  57  82 109 147 201 252 291 339
#     4  10  21  39  61  80 107 148 203 249 287 337
#     4  10  19  34  53  86 120 154 189 237 289 351
#     4  10  20  35  52  80 115 158 195 231 285 362
#
# _framework density 22.543330000000001
#
# number of rings (size 3 to 8) (size 9 to 14) (size 15 to 20)
#    0.000    1.655    2.069    3.310    0.000    4.414 
#    2.483    0.000    0.000    3.310    0.000   32.828 
#    0.000    0.000    0.000    0.000    0.000    0.000 
#
# Total GULP energy -161498.274595 kJ/mol
# GULP energy per Si atom -5568.906021 kJ/mol
# Density = 2.249202 g / cm^3
# Si number density = 22.543330 Si / 1000 Ang^3
#
#
#
# Elastic Constant Matrix: (Units=GPa)
#
#
# Indices 1 2 3 4 5 6 
#
# 1 60.5574 4.4693 2.1530 0.0000 0.0006 0.0000
# 2 4.4693 141.6591 51.1071 0.0000 0.0001 0.0000
# 3 2.1530 51.1071 67.1328 -0.0001 0.0013 0.0000
# 4 0.0000 0.0000 -0.0001 43.1246 0.0000 0.0000
# 5 0.0006 0.0001 0.0013 0.0000 -1.9843 0.0000
# 6 0.0000 0.0000 0.0000 0.0000 0.0000 25.1529
#
#
#
# Elastic Compliance Matrix: (Units=1/GPa)
#
#
# Indices 1 2 3 4 5 6 
#
# 1 0.016553 -0.000456 -0.000184 0.000000 0.000005 0.000000
# 2 -0.000456 0.009745 -0.007404 0.000000 -0.000005 0.000000
# 3 -0.000184 -0.007404 0.020538 0.000000 0.000013 0.000000
# 4 0.000000 0.000000 0.000000 0.023189 0.000001 0.000000
# 5 0.000005 -0.000005 0.000013 0.000001 -0.503962 -0.000001
# 6 0.000000 0.000000 0.000000 0.000000 -0.000001 0.039757
#
#
# Mechanical properties :
#
#
# Convention : Reuss Voigt Hill
#
# Bulk Modulus (GPa) = 32.52123 42.75646 37.63884
# Shear Modulus (GPa) = -13.59273 27.36663 6.88695
#
# Velocity S-wave (km/s) = -2.45819 3.48797 1.74975
# Velocity P-wave (km/s) = 2.52992 5.93538 4.56230
#
# Compressibility (1/GPa) = 0.03074915
#
# Stress axis : x y z
#
# Youngs Moduli (GPa) = 60.41038 102.61964 48.68975
#
# Poissons Ratio (x) = 0.04679 0.00895
# Poissons Ratio (y) = 0.02754 0.36049
# Poissons Ratio (z) = 0.01110 0.75978
#
# Static dielectric constant tensor:
#      x y z
#    x 1.893940 0.000000 0.000000 
#    y 0.000000 1.857300 0.000000 
#    z 0.000000 0.000000 1.937950 
# 
# From -- ./inp_files/4934.got.cif
#   From: 2010.05.17/outbox.cif.g08.bks.cpg/sg42_3_cif.got.tgz:4934.got - 2010.06.03 19:03:34.
