data_PCOD9368795
_publ_section_title
;
Structure prediction by ZEFSAII (Michael W. Deem and Ramdas Pophale) SiO2 
 PCOD9368795
Probable space group: F M M 2
;
_chemical_formula_sum "Si O2"
_cell_formula_units_Z 80
_cell_length_a 23.882293
_cell_length_b 17.756389
_cell_length_c 9.379346
_cell_angle_alpha 90.000000
_cell_angle_beta 90.000000
_cell_angle_gamma 90.000000
_cell_volume 3977.436273
_symmetry_space_group_name_H-M "F M M 2"
_symmetry_group_IT_number 42
_symmetry_cell_setting 'orthorhombic'
loop_
_space_group_symop_operation_xyz
x,y,z
-x,-y,z
-x,y,z
x,-y,z
x,1/2+y,1/2+z
-x,1/2-y,1/2+z
-x,1/2+y,1/2+z
x,1/2-y,1/2+z
1/2+x,y,1/2+z
1/2-x,-y,1/2+z
1/2-x,y,1/2+z
1/2+x,-y,1/2+z
1/2+x,1/2+y,z
1/2-x,1/2-y,z
1/2-x,1/2+y,z
1/2+x,1/2-y,z
loop_
_atom_site_type_symbol
_atom_site_label
_atom_site_fract_x
_atom_site_fract_y
_atom_site_fract_z
Si Si1 0.380463 0.916834 0.971430
Si Si2 0.373388 0.706355 0.234869
Si Si3 0.782133 0.174920 0.012352
Si Si4 0.313216 0.134904 0.233030
Si Si5 0.000000 0.147632 0.544742
Si Si6 0.000000 0.259300 0.773533
O O1 0.359796 0.852286 0.861999
O O2 0.373952 0.000000 0.909121
O O3 0.349819 0.912777 0.123945
O O4 0.444932 0.897956 0.004334
O O5 0.341438 0.688378 0.088757
O O6 0.349925 0.789915 0.266454
O O7 0.440616 0.707222 0.220840
O O8 0.750000 0.250000 0.952661
O O9 0.741170 0.152889 0.139846
O O10 0.790881 0.113863 0.888673
O O11 0.000000 0.222181 0.442216
O O12 0.000000 0.175703 0.707537
#
# Coordination Sequence:
#
# PCOD9368795 Si02
#       6
#    16  16  16  16   8   8
#     4  11  23  39  60  90 126 162 197 243 302 358
#     4  10  20  36  58  87 119 156 200 248 290 355
#     4  10  20  34  59  87 117 152 200 255 301 345
#     4  11  20  36  59  85 116 157 205 249 295 354
#     4  10  21  38  60  90 125 158 194 244 299 354
#     4  10  20  32  58  92 118 150 202 248 288 342
#
# _framework density 20.113458999999999
#
# number of rings (size 3 to 8) (size 9 to 14) (size 15 to 20)
#    0.000    1.600    2.000    5.700    2.800    0.000 
#    0.000    5.000    0.000    0.000    0.000    4.200 
#    0.000    0.000    0.000    0.000    0.000    0.000 
#
# Total GULP energy -111466.722666 kJ/mol
# GULP energy per Si atom -5573.336133 kJ/mol
# Density = 2.006768 g / cm^3
# Si number density = 20.113459 Si / 1000 Ang^3
#
#
#
# Elastic Constant Matrix: (Units=GPa)
#
#
# Indices 1 2 3 4 5 6 
#
# 1 114.2565 5.7136 41.9737 0.0000 0.0000 0.0000
# 2 5.7136 72.6612 21.2470 0.0000 0.0000 0.0000
# 3 41.9737 21.2470 95.3239 0.0000 0.0000 0.0000
# 4 0.0000 0.0000 0.0000 18.3633 0.0000 0.0000
# 5 0.0000 0.0000 0.0000 0.0000 34.4033 0.0000
# 6 0.0000 0.0000 0.0000 0.0000 0.0000 -43.3372
#
#
#
# Elastic Compliance Matrix: (Units=1/GPa)
#
#
# Indices 1 2 3 4 5 6 
#
# 1 0.010463 0.000561 -0.004732 0.000000 0.000000 0.000000
# 2 0.000561 0.014752 -0.003535 0.000000 0.000000 0.000000
# 3 -0.004732 -0.003535 0.013362 0.000000 0.000000 0.000000
# 4 0.000000 0.000000 0.000000 0.054456 0.000000 0.000000
# 5 0.000000 0.000000 0.000000 0.000000 0.029067 0.000000
# 6 0.000000 0.000000 0.000000 0.000000 0.000000 -0.023075
#
#
# Mechanical properties :
#
#
# Convention : Reuss Voigt Hill
#
# Bulk Modulus (GPa) = 43.16956 46.67892 44.92424
# Shear Modulus (GPa) = 40.93021 16.10636 28.51828
#
# Velocity S-wave (km/s) = 4.51595 2.83287 3.76955
# Velocity P-wave (km/s) = 6.97864 5.82738 6.42883
#
# Compressibility (1/GPa) = 0.02316447
#
# Stress axis : x y z
#
# Youngs Moduli (GPa) = 95.57906 67.78689 74.83830
#
# Poissons Ratio (x) = -0.03803 0.35413
# Poissons Ratio (y) = -0.05362 0.26457
# Poissons Ratio (z) = 0.45228 0.23964
#
# Static dielectric constant tensor:
#      x y z
#    x 1.736790 0.000000 0.000000 
#    y 0.000000 1.733500 0.000000 
#    z 0.000000 0.000000 1.749610 
# 
# From -- ./inp_files/3978.got.cif
#   From: 2010.05.17/outbox.cif.g08.bks.cpg/sg42_2_cif.got.tgz:3978.got - 2010.06.03 19:03:34.
