data_PCOD9368461
_publ_section_title
;
Structure prediction by ZEFSAII (Michael W. Deem and Ramdas Pophale) SiO2 
 PCOD9368461
Probable space group: F M M 2
;
_chemical_formula_sum "Si O2"
_cell_formula_units_Z 104
_cell_length_a 22.180734
_cell_length_b 28.828823
_cell_length_c 9.212418
_cell_angle_alpha 90.000000
_cell_angle_beta 90.000000
_cell_angle_gamma 90.000000
_cell_volume 5890.829603
_symmetry_space_group_name_H-M "F M M 2"
_symmetry_group_IT_number 42
_symmetry_cell_setting 'orthorhombic'
loop_
_space_group_symop_operation_xyz
x,y,z
-x,-y,z
-x,y,z
x,-y,z
x,1/2+y,1/2+z
-x,1/2-y,1/2+z
-x,1/2+y,1/2+z
x,1/2-y,1/2+z
1/2+x,y,1/2+z
1/2-x,-y,1/2+z
1/2-x,y,1/2+z
1/2+x,-y,1/2+z
1/2+x,1/2+y,z
1/2-x,1/2-y,z
1/2-x,1/2+y,z
1/2+x,1/2-y,z
loop_
_atom_site_type_symbol
_atom_site_label
_atom_site_fract_x
_atom_site_fract_y
_atom_site_fract_z
Si Si1 0.750000 0.750000 0.200001
Si Si2 0.800287 0.551092 0.344937
Si Si3 0.626532 0.947104 0.060592
Si Si4 0.204610 0.687882 0.442287
Si Si5 0.500000 0.444044 0.644921
Si Si6 0.000000 0.557622 0.490748
Si Si7 0.803249 0.616935 0.845272
Si Si8 0.126897 0.107635 0.058491
O O1 0.796233 0.722989 0.306475
O O2 0.784909 0.784786 0.092173
O O3 0.774215 0.500000 0.360474
O O4 0.751257 0.586013 0.283387
O O5 0.828030 0.568401 0.495264
O O6 0.853449 0.550154 0.227844
O O7 0.669035 0.913702 0.972459
O O8 0.628257 0.000000 0.003082
O O9 0.559407 0.927682 0.064342
O O10 0.267438 0.660389 0.410689
O O11 0.148681 0.652096 0.460184
O O12 0.500000 0.500000 0.633904
O O13 0.500000 0.434952 0.816458
O O14 0.939569 0.584543 0.547646
O O15 0.000000 0.500000 0.516265
O O16 0.852724 0.622064 0.720012
#
# Coordination Sequence:
#
# PCOD9368461 Si02
#       8
#     8  16  16  16   8   8  16  16
#     4  10  20  38  66  90 118 142 184 232 320 384
#     4  10  19  32  51  74 108 153 193 237 290 342
#     4  10  20  33  51  72 106 154 199 242 279 329
#     4  10  21  38  60  93 115 147 179 242 304 371
#     4   9  18  35  51  69  97 148 213 247 264 310
#     4  11  22  37  59  81 117 174 215 239 278 332
#     4  11  22  33  50  84 121 143 181 241 302 351
#     4  11  22  36  55  83 119 153 200 246 283 349
#
# _framework density 17.654558999999999
#
# number of rings (size 3 to 8) (size 9 to 14) (size 15 to 20)
#    0.000    1.692    3.077    2.769    2.154    4.308 
#    0.000    0.769    0.000    0.923    0.000    0.000 
#    0.000    0.000    0.000    0.000    0.000    0.000 
#
# Total GULP energy -144770.534959 kJ/mol
# GULP energy per Si atom -5568.097498 kJ/mol
# Density = 1.761438 g / cm^3
# Si number density = 17.654559 Si / 1000 Ang^3
#
#
#
# Elastic Constant Matrix: (Units=GPa)
#
#
# Indices 1 2 3 4 5 6 
#
# 1 101.5121 32.7875 23.9457 0.0000 0.0001 -0.0001
# 2 32.7875 85.8634 35.3527 0.0000 0.0000 -0.0001
# 3 23.9457 35.3527 77.0549 0.0002 0.0001 -0.0003
# 4 0.0000 0.0000 0.0002 23.8917 -0.0001 -0.0002
# 5 0.0001 0.0000 0.0001 -0.0001 14.1687 0.0002
# 6 -0.0001 -0.0001 -0.0003 -0.0002 0.0002 18.2541
#
#
#
# Elastic Compliance Matrix: (Units=1/GPa)
#
#
# Indices 1 2 3 4 5 6 
#
# 1 0.011462 -0.003588 -0.001916 0.000000 0.000000 0.000000
# 2 -0.003588 0.015482 -0.005988 0.000000 0.000000 0.000000
# 3 -0.001916 -0.005988 0.016320 0.000000 0.000000 0.000000
# 4 0.000000 0.000000 0.000000 0.041856 0.000000 0.000000
# 5 0.000000 0.000000 0.000000 0.000000 0.070578 -0.000001
# 6 0.000000 0.000000 0.000000 0.000000 -0.000001 0.054782
#
#
# Mechanical properties :
#
#
# Convention : Reuss Voigt Hill
#
# Bulk Modulus (GPa) = 49.30825 49.84470 49.57647
# Shear Modulus (GPa) = 20.81393 22.75254 21.78323
#
# Velocity S-wave (km/s) = 3.43732 3.59383 3.51644
# Velocity P-wave (km/s) = 6.61390 6.74651 6.68053
#
# Compressibility (1/GPa) = 0.02028058
#
# Stress axis : x y z
#
# Youngs Moduli (GPa) = 87.24600 64.59110 61.27288
#
# Poissons Ratio (x) = 0.23175 0.11738
# Poissons Ratio (y) = 0.31304 0.36691
# Poissons Ratio (z) = 0.16714 0.38678
#
# Static dielectric constant tensor:
#      x y z
#    x 1.620820 0.000000 0.000000 
#    y 0.000000 1.663690 0.000000 
#    z 0.000000 0.000000 1.608670 
# 
# From -- ./inp_files/4383.got.cif
#   From: 2010.05.17/outbox.cif.g08.bks.cpg/sg42_3_cif.got.tgz:4383.got - 2010.06.03 19:03:34.
