data_PCOD9368561
_publ_section_title
;
Structure prediction by ZEFSAII (Michael W. Deem and Ramdas Pophale) SiO2 
 PCOD9368561
Probable space group: F M M 2
;
_chemical_formula_sum "Si O2"
_cell_formula_units_Z 96
_cell_length_a 28.675880
_cell_length_b 8.761422
_cell_length_c 20.934497
_cell_angle_alpha 90.000000
_cell_angle_beta 90.000000
_cell_angle_gamma 90.000000
_cell_volume 5259.614133
_symmetry_space_group_name_H-M "F M M 2"
_symmetry_group_IT_number 42
_symmetry_cell_setting 'orthorhombic'
loop_
_space_group_symop_operation_xyz
x,y,z
-x,-y,z
-x,y,z
x,-y,z
x,1/2+y,1/2+z
-x,1/2-y,1/2+z
-x,1/2+y,1/2+z
x,1/2-y,1/2+z
1/2+x,y,1/2+z
1/2-x,-y,1/2+z
1/2-x,y,1/2+z
1/2+x,-y,1/2+z
1/2+x,1/2+y,z
1/2-x,1/2-y,z
1/2-x,1/2+y,z
1/2+x,1/2-y,z
loop_
_atom_site_type_symbol
_atom_site_label
_atom_site_fract_x
_atom_site_fract_y
_atom_site_fract_z
Si Si1 0.554750 0.816024 0.433180
Si Si2 0.055641 0.321305 0.673346
Si Si3 0.601370 0.683203 0.798793
Si Si4 0.700251 0.182032 0.604662
Si Si5 0.608287 0.680625 0.553798
Si Si6 0.799258 0.182592 0.746512
O O1 0.500000 0.776166 0.430971
O O2 0.579870 0.773912 0.366865
O O3 0.580078 0.738364 0.492561
O O4 0.557940 0.000000 0.440376
O O5 0.067166 0.500000 0.664245
O O6 0.074702 0.264829 0.741153
O O7 0.079472 0.226785 0.616933
O O8 0.000000 0.304052 0.670877
O O9 0.595661 0.500000 0.791187
O O10 0.656316 0.716875 0.790662
O O11 0.750000 0.250000 0.584195
O O12 0.658158 0.237584 0.560648
O O13 0.691646 0.246619 0.676336
O O14 0.702450 0.000000 0.607329
O O15 0.614880 0.500000 0.551853
O O16 0.750000 0.250000 0.769291
O O17 0.795180 0.000000 0.739625
#
# Coordination Sequence:
#
# PCOD9368561 Si02
#       6
#    16  16  16  16  16  16
#     4  10  22  41  62  84 116 160 204 248 303 359
#     4  11  23  37  57  86 117 150 194 249 302 354
#     4  10  21  38  61  87 117 155 199 244 296 358
#     4  11  21  36  60  89 121 155 193 242 298 353
#     4  12  24  39  59  86 118 156 201 247 298 354
#     4  10  19  33  56  88 121 155 194 238 291 352
#
# _framework density 18.252289000000001
#
# number of rings (size 3 to 8) (size 9 to 14) (size 15 to 20)
#    0.000    1.333    1.667    6.000    0.000    5.667 
#    0.000    0.833    0.000    2.000    0.000    0.000 
#    0.000    0.000    0.000    0.000    0.000    0.000 
#
# Total GULP energy -134168.963364 kJ/mol
# GULP energy per Si atom -5590.373473 kJ/mol
# Density = 1.821075 g / cm^3
# Si number density = 18.252289 Si / 1000 Ang^3
#
#
#
# Elastic Constant Matrix: (Units=GPa)
#
#
# Indices 1 2 3 4 5 6 
#
# 1 145.7482 71.3833 67.9169 0.0000 0.0000 0.0000
# 2 71.3833 97.7869 51.5992 0.0000 0.0000 0.0000
# 3 67.9169 51.5992 106.6758 0.0000 0.0000 0.0000
# 4 0.0000 0.0000 0.0000 26.9756 0.0000 0.0000
# 5 0.0000 0.0000 0.0000 0.0000 31.9946 0.0000
# 6 0.0000 0.0000 0.0000 0.0000 0.0000 22.2814
#
#
#
# Elastic Compliance Matrix: (Units=1/GPa)
#
#
# Indices 1 2 3 4 5 6 
#
# 1 0.012177 -0.006443 -0.004636 0.000000 0.000000 0.000000
# 2 -0.006443 0.017140 -0.004189 0.000000 0.000000 0.000000
# 3 -0.004636 -0.004189 0.014352 0.000000 0.000000 0.000000
# 4 0.000000 0.000000 0.000000 0.037071 0.000000 0.000000
# 5 0.000000 0.000000 0.000000 0.000000 0.031255 0.000000
# 6 0.000000 0.000000 0.000000 0.000000 0.000000 0.044880
#
#
# Mechanical properties :
#
#
# Convention : Reuss Voigt Hill
#
# Bulk Modulus (GPa) = 76.14182 81.33440 78.73811
# Shear Modulus (GPa) = 26.07042 26.87108 26.47075
#
# Velocity S-wave (km/s) = 3.78343 3.84109 3.81237
# Velocity P-wave (km/s) = 7.80338 8.02059 7.91273
#
# Compressibility (1/GPa) = 0.01313339
#
# Stress axis : x y z
#
# Youngs Moduli (GPa) = 82.12156 58.34451 69.67617
#
# Poissons Ratio (x) = 0.37589 0.32305
# Poissons Ratio (y) = 0.52908 0.29185
# Poissons Ratio (z) = 0.38075 0.24438
#
# Static dielectric constant tensor:
#      x y z
#    x 1.632460 0.000000 0.000000 
#    y 0.000000 1.613370 0.000000 
#    z 0.000000 0.000000 1.587240 
# 
# From -- ./inp_files/23705.got.cif
#   From: 2010.05.17/outbox.cif.g08.bks.cpg/sg42_12_cif.got.tgz:23705.got - 2010.06.03 19:03:34.
