data_PCOD9368065
_publ_section_title
;
Structure prediction by ZEFSAII (Michael W. Deem and Ramdas Pophale) SiO2 
 PCOD9368065
Probable space group: A B A 2
;
_chemical_formula_sum "Si O2"
_cell_formula_units_Z 18
_cell_length_a 21.000000
_cell_length_b 9.000000
_cell_length_c 9.000000
_cell_angle_alpha 90.000000
_cell_angle_beta 90.000000
_cell_angle_gamma 90.000000
_cell_volume 1701.000000
_symmetry_space_group_name_H-M "A B A 2"
_symmetry_group_IT_number 41
_symmetry_cell_setting 'orthorhombic'
loop_
_space_group_symop_operation_xyz
x,y,z
-x,-y,z
1/2-x,y,1/2+z
1/2+x,-y,1/2+z
x,1/2+y,1/2+z
-x,1/2-y,1/2+z
1/2-x,1/2+y,z
1/2+x,1/2-y,z
loop_
_atom_site_type_symbol
_atom_site_label
_atom_site_fract_x
_atom_site_fract_y
_atom_site_fract_z
Si Si1 0.391923 0.152516 0.699780
Si Si2 0.500000 0.000000 0.513123
Si Si3 0.340916 0.138448 0.028466
Si Si4 0.611959 0.025986 0.274862
Si Si5 0.711441 0.033795 0.520178
O O1 0.387227 0.327932 0.674664
O O2 0.458027 0.100746 0.625395
O O3 0.332935 0.064901 0.627222
O O4 0.380989 0.135144 0.876389
O O5 0.443762 0.953705 0.396789
O O6 0.389584 0.112478 0.164212
O O7 0.303592 0.293623 0.049836
O O8 0.284269 0.016648 0.023145
O O9 0.679118 0.009644 0.359408
#
# Coordination Sequence:
#
# PCOD9368065 Si02
#       5
#     8   4   8   8   8
#     4  10  23  41  62  89 122 161 202 250 303 356
#     4  10  24  42  60  88 124 156 208 260 294 350
#     4  11  22  38  64  93 123 162 200 244 306 366
#     4  10  23  40  62  89 121 163 203 249 302 357
#     4  10  22  39  60  94 128 155 197 249 304 365
#
# _framework density 10.582011
#
# number of rings (size 3 to 8) (size 9 to 14) (size 15 to 20)
#    0.000    1.778    0.000    2.667    0.000   16.889 
#    0.000    0.000    0.000    0.000    0.000    0.000 
#    0.000    0.000    0.000    0.000    0.000    0.000 
#
# Total GULP energy -100360.826515 kJ/mol
# GULP energy per Si atom -5575.601473 kJ/mol
# Density = 1.055793 g / cm^3
# Si number density = 10.582011 Si / 1000 Ang^3
#
#
#
# Elastic Constant Matrix: (Units=GPa)
#
#
# Indices 1 2 3 4 5 6 
#
# 1 90.6583 20.7874 29.6078 0.0000 0.0000 0.0000
# 2 20.7874 80.8777 60.1565 0.0000 0.0000 0.0000
# 3 29.6078 60.1565 26.5681 0.0000 0.0000 0.0000
# 4 0.0000 0.0000 0.0000 25.8233 0.0000 0.0000
# 5 0.0000 0.0000 0.0000 0.0000 22.9323 0.0000
# 6 0.0000 0.0000 0.0000 0.0000 0.0000 20.9067
#
#
#
# Elastic Compliance Matrix: (Units=1/GPa)
#
#
# Indices 1 2 3 4 5 6 
#
# 1 0.010382 -0.008678 0.008080 0.000000 0.000000 0.000000
# 2 -0.008678 -0.010819 0.034168 0.000000 0.000000 0.000000
# 3 0.008080 0.034168 -0.048729 0.000000 0.000000 0.000000
# 4 0.000000 0.000000 0.000000 0.038725 0.000000 0.000000
# 5 0.000000 0.000000 0.000000 0.000000 0.043607 0.000000
# 6 0.000000 0.000000 0.000000 0.000000 0.000000 0.047832
#
#
# Mechanical properties :
#
#
# Convention : Reuss Voigt Hill
#
# Bulk Modulus (GPa) = 55.64053 46.57861 51.10957
# Shear Modulus (GPa) = 251.92032 19.76929 135.84480
#
# Velocity S-wave (km/s) = 10.92203 3.05962 8.02035
# Velocity P-wave (km/s) = 13.61622 5.87689 10.48664
#
# Compressibility (1/GPa) = 0.01797251
#
# Stress axis : x y z
#
# Youngs Moduli (GPa) = 96.32517 -92.42881 -20.52158
#
# Poissons Ratio (x) = -0.80210 0.16581
# Poissons Ratio (y) = 0.83591 0.70118
# Poissons Ratio (z) = -0.77829 3.15810
#
# Static dielectric constant tensor:
#      x y z
#    x 1.726000 0.000000 0.000000 
#    y 0.000000 1.801190 0.000000 
#    z 0.000000 0.000000 1.809590 
# 
# From -- ./inp_files/3292.got.cif
#   From: 2010.05.17/outbox.ucp.g08.bks.cvg/sg41_2_cif.got.tgz:3292.got - 2010.06.11 16:28:22.
