data_PCOD9368642
_publ_section_title
;
Structure prediction by ZEFSAII (Michael W. Deem and Ramdas Pophale) SiO2 
 PCOD9368642
Probable space group: F M M 2
;
_chemical_formula_sum "Si O2"
_cell_formula_units_Z 72
_cell_length_a 21.962106
_cell_length_b 10.099972
_cell_length_c 15.479057
_cell_angle_alpha 90.000000
_cell_angle_beta 90.000000
_cell_angle_gamma 90.000000
_cell_volume 3433.512657
_symmetry_space_group_name_H-M "F M M 2"
_symmetry_group_IT_number 42
_symmetry_cell_setting 'orthorhombic'
loop_
_space_group_symop_operation_xyz
x,y,z
-x,-y,z
-x,y,z
x,-y,z
x,1/2+y,1/2+z
-x,1/2-y,1/2+z
-x,1/2+y,1/2+z
x,1/2-y,1/2+z
1/2+x,y,1/2+z
1/2-x,-y,1/2+z
1/2-x,y,1/2+z
1/2+x,-y,1/2+z
1/2+x,1/2+y,z
1/2-x,1/2-y,z
1/2-x,1/2+y,z
1/2+x,1/2-y,z
loop_
_atom_site_type_symbol
_atom_site_label
_atom_site_fract_x
_atom_site_fract_y
_atom_site_fract_z
Si Si1 0.717428 0.500000 0.803530
Si Si2 0.162442 0.500000 0.689181
Si Si3 0.568402 0.500000 0.412280
Si Si4 0.623196 0.206898 0.230972
Si Si5 0.657901 0.000000 0.485836
Si Si6 0.570667 0.788162 0.404669
Si Si7 0.067962 0.000000 0.615679
O O1 0.782073 0.500000 0.757167
O O2 0.683185 0.632377 0.767986
O O3 0.708420 0.500000 0.908191
O O4 0.128209 0.361591 0.708830
O O5 0.178606 0.500000 0.585866
O O6 0.500000 0.500000 0.372075
O O7 0.597546 0.640333 0.394250
O O8 0.562658 0.500000 0.514288
O O9 0.575001 0.167096 0.305555
O O10 0.603700 0.128680 0.146202
O O11 0.613344 0.124013 0.464769
O O12 0.500000 0.784878 0.433546
O O13 0.000000 0.000000 0.651715
#
# Coordination Sequence:
#
# PCOD9368642 Si02
#       7
#     8   8   8  16   8  16   8
#     4   9  22  43  59  81 118 162 202 245 313 378
#     4  12  22  40  61  90 123 147 207 279 298 343
#     4   9  18  30  49  76 113 150 181 219 276 336
#     4  10  21  36  60  85 113 155 199 242 303 357
#     4  10  22  38  63  89 114 161 207 246 312 363
#     4  10  19  36  57  85 121 156 191 237 289 361
#     4  10  19  35  54  80 116 156 190 225 282 366
#
# _framework density 20.969778999999999
#
# number of rings (size 3 to 8) (size 9 to 14) (size 15 to 20)
#    0.000    2.000    0.000    4.333    0.000    0.000 
#    0.000   18.333    0.000    0.000    0.000    0.000 
#    0.000    0.000    0.000    0.000    0.000    0.000 
#
# Total GULP energy -100267.336997 kJ/mol
# GULP energy per Si atom -5570.407611 kJ/mol
# Density = 2.092205 g / cm^3
# Si number density = 20.969779 Si / 1000 Ang^3
#
#
#
# Elastic Constant Matrix: (Units=GPa)
#
#
# Indices 1 2 3 4 5 6 
#
# 1 50.9593 16.9906 26.3951 0.0000 0.0000 0.0000
# 2 16.9906 149.8242 14.4060 0.0000 0.0000 0.0000
# 3 26.3951 14.4060 121.2865 0.0000 0.0000 0.0000
# 4 0.0000 0.0000 0.0000 15.9826 0.0000 0.0000
# 5 0.0000 0.0000 0.0000 0.0000 23.5598 0.0000
# 6 0.0000 0.0000 0.0000 0.0000 0.0000 114.0684
#
#
#
# Elastic Compliance Matrix: (Units=1/GPa)
#
#
# Indices 1 2 3 4 5 6 
#
# 1 0.022769 -0.002130 -0.004702 0.000000 0.000000 0.000000
# 2 -0.002130 0.006951 -0.000362 0.000000 0.000000 0.000000
# 3 -0.004702 -0.000362 0.009311 0.000000 0.000000 0.000000
# 4 0.000000 0.000000 0.000000 0.062568 0.000000 0.000000
# 5 0.000000 0.000000 0.000000 0.000000 0.042445 0.000000
# 6 0.000000 0.000000 0.000000 0.000000 0.000000 0.008767
#
#
# Mechanical properties :
#
#
# Convention : Reuss Voigt Hill
#
# Bulk Modulus (GPa) = 40.57967 48.62818 44.60392
# Shear Modulus (GPa) = 28.50400 48.34071 38.42236
#
# Velocity S-wave (km/s) = 3.69085 4.80652 4.28515
# Velocity P-wave (km/s) = 6.12835 7.35143 6.76758
#
# Compressibility (1/GPa) = 0.02464288
#
# Stress axis : x y z
#
# Youngs Moduli (GPa) = 43.91886 143.86729 107.39673
#
# Poissons Ratio (x) = 0.30644 0.50500
# Poissons Ratio (y) = 0.09355 0.03888
# Poissons Ratio (z) = 0.20652 0.05209
#
# Static dielectric constant tensor:
#      x y z
#    x 1.793610 0.000000 0.000000 
#    y 0.000000 1.743910 0.000000 
#    z 0.000000 0.000000 1.739160 
# 
# From -- ./inp_files/12104.got.cif
#   From: 2010.05.17/outbox.cif.g08.bks.cpg/sg42_7_cif.got.tgz:12104.got - 2010.06.03 19:03:34.
