data_PCOD9368900
_publ_section_title
;
Structure prediction by ZEFSAII (Michael W. Deem and Ramdas Pophale) SiO2 
 PCOD9368900
Probable space group: F M M 2
;
_chemical_formula_sum "Si O2"
_cell_formula_units_Z 80
_cell_length_a 11.487170
_cell_length_b 28.876603
_cell_length_c 8.190597
_cell_angle_alpha 90.000000
_cell_angle_beta 90.000000
_cell_angle_gamma 90.000000
_cell_volume 2716.906598
_symmetry_space_group_name_H-M "F M M 2"
_symmetry_group_IT_number 42
_symmetry_cell_setting 'orthorhombic'
loop_
_space_group_symop_operation_xyz
x,y,z
-x,-y,z
-x,y,z
x,-y,z
x,1/2+y,1/2+z
-x,1/2-y,1/2+z
-x,1/2+y,1/2+z
x,1/2-y,1/2+z
1/2+x,y,1/2+z
1/2-x,-y,1/2+z
1/2-x,y,1/2+z
1/2+x,-y,1/2+z
1/2+x,1/2+y,z
1/2-x,1/2-y,z
1/2-x,1/2+y,z
1/2+x,1/2-y,z
loop_
_atom_site_type_symbol
_atom_site_label
_atom_site_fract_x
_atom_site_fract_y
_atom_site_fract_z
Si Si1 0.500000 0.651840 0.907230
Si Si2 0.000000 0.336159 0.925968
Si Si3 0.251529 0.652848 0.425707
Si Si4 0.000000 0.253064 0.209505
Si Si5 0.255330 0.050044 0.769375
Si Si6 0.250000 0.750000 0.721872
Si Si7 0.000000 0.072878 0.252949
Si Si8 0.500000 0.433336 0.646991
O O1 0.623166 0.652325 0.000546
O O2 0.500000 0.698518 0.801915
O O3 0.500000 0.609553 0.778793
O O4 0.123184 0.344834 0.015312
O O5 0.000000 0.286278 0.846769
O O6 0.000000 0.371939 0.776147
O O7 0.257103 0.601119 0.350740
O O8 0.251766 0.700564 0.318598
O O9 0.126946 0.249110 0.127298
O O10 0.130065 0.048381 0.683990
O O11 0.263085 0.000000 0.858710
O O12 0.380948 0.053627 0.676267
O O13 0.000000 0.062857 0.448716
#
# Coordination Sequence:
#
# PCOD9368900 Si02
#       8
#     8   8  16   8  16   8   8   8
#     4   8  14  25  44  72  99 133 178 216 270 333
#     4   8  14  25  44  72  99 133 178 216 270 333
#     4   8  14  24  40  66  96 128 172 218 260 324
#     4   8  12  20  38  68  96 124 170 212 252 322
#     4  10  20  34  54  82 114 150 192 236 294 356
#     4   8  12  20  36  60  90 124 168 210 260 320
#     4  10  21  38  59  84 115 151 194 243 290 344
#     4  10  21  38  59  84 115 151 194 243 290 344
#
# _framework density 29.445250000000001
#
# number of rings (size 3 to 8) (size 9 to 14) (size 15 to 20)
#    0.000    3.200    0.000    0.600    0.000    1.600 
#    0.000    1.000    0.000    2.400    0.000  315.000 
#    0.000    0.000    0.000    0.000    0.000    0.000 
#
# Total GULP energy -111499.894833 kJ/mol
# GULP energy per Si atom -5574.994742 kJ/mol
# Density = 2.937823 g / cm^3
# Si number density = 29.445250 Si / 1000 Ang^3
#
#
#
# Elastic Constant Matrix: (Units=GPa)
#
#
# Indices 1 2 3 4 5 6 
#
# 1 420.0789 36.7588 63.7437 0.0000 0.0000 0.0000
# 2 36.7588 248.5375 64.5454 0.0000 0.0000 0.0000
# 3 63.7437 64.5454 63.3660 0.0000 0.0000 0.0000
# 4 0.0000 0.0000 0.0000 27.8545 0.0000 0.0000
# 5 0.0000 0.0000 0.0000 0.0000 21.6193 0.0000
# 6 0.0000 0.0000 0.0000 0.0000 0.0000 0.3626
#
#
#
# Elastic Compliance Matrix: (Units=1/GPa)
#
#
# Indices 1 2 3 4 5 6 
#
# 1 0.002844 0.000438 -0.003307 0.000000 0.000000 0.000000
# 2 0.000438 0.005538 -0.006082 0.000000 0.000000 0.000000
# 3 -0.003307 -0.006082 0.025304 0.000000 0.000000 0.000000
# 4 0.000000 0.000000 0.000000 0.035901 0.000000 0.000000
# 5 0.000000 0.000000 0.000000 0.000000 0.046255 0.000000
# 6 0.000000 0.000000 0.000000 0.000000 0.000000 2.757959
#
#
# Mechanical properties :
#
#
# Convention : Reuss Voigt Hill
#
# Bulk Modulus (GPa) = 63.35752 118.00870 90.68311
# Shear Modulus (GPa) = 1.72594 47.76291 24.74443
#
# Velocity S-wave (km/s) = 0.76644 4.03189 2.90203
# Velocity P-wave (km/s) = 4.72726 7.86379 6.48792
#
# Compressibility (1/GPa) = 0.01578344
#
# Stress axis : x y z
#
# Youngs Moduli (GPa) = 351.61362 180.56123 39.51946
#
# Poissons Ratio (x) = -0.07914 0.13071
# Poissons Ratio (y) = -0.15412 0.24037
# Poissons Ratio (z) = 1.16295 1.09823
#
# Static dielectric constant tensor:
#      x y z
#    x 2.232550 0.000000 0.000000 
#    y 0.000000 2.291590 0.000000 
#    z 0.000000 0.000000 2.215390 
# 
# From -- ./inp_files/7040.got.cif
#   From: 2010.05.17/outbox.cif.g08.bks.cpg/sg42_4_cif.got.tgz:7040.got - 2010.06.03 19:03:34.
