data_PCOD9368486
_publ_section_title
;
Structure prediction by ZEFSAII (Michael W. Deem and Ramdas Pophale) SiO2 
 PCOD9368486
Probable space group: F M M 2
;
_chemical_formula_sum "Si O2"
_cell_formula_units_Z 80
_cell_length_a 16.060084
_cell_length_b 8.425043
_cell_length_c 29.883654
_cell_angle_alpha 90.000000
_cell_angle_beta 90.000000
_cell_angle_gamma 90.000000
_cell_volume 4043.464532
_symmetry_space_group_name_H-M "F M M 2"
_symmetry_group_IT_number 42
_symmetry_cell_setting 'orthorhombic'
loop_
_space_group_symop_operation_xyz
x,y,z
-x,-y,z
-x,y,z
x,-y,z
x,1/2+y,1/2+z
-x,1/2-y,1/2+z
-x,1/2+y,1/2+z
x,1/2-y,1/2+z
1/2+x,y,1/2+z
1/2-x,-y,1/2+z
1/2-x,y,1/2+z
1/2+x,-y,1/2+z
1/2+x,1/2+y,z
1/2-x,1/2-y,z
1/2-x,1/2+y,z
1/2+x,1/2-y,z
loop_
_atom_site_type_symbol
_atom_site_label
_atom_site_fract_x
_atom_site_fract_y
_atom_site_fract_z
Si Si1 0.837647 0.308548 0.596310
Si Si2 0.844359 0.191067 0.908195
Si Si3 0.094335 0.192487 0.004212
Si Si4 0.154447 0.188784 0.311187
Si Si5 0.000000 0.692570 0.651940
Si Si6 0.000000 0.188742 0.753243
O O1 0.837912 0.500000 0.595560
O O2 0.750000 0.250000 0.614667
O O3 0.848773 0.250538 0.544953
O O4 0.917153 0.257585 0.625189
O O5 0.750000 0.250000 0.911964
O O6 0.887571 0.247118 0.953905
O O7 0.874613 0.256932 0.860790
O O8 0.848003 0.000000 0.906173
O O9 0.000000 0.231086 0.016560
O O10 0.101202 0.000000 0.002850
O O11 0.250000 0.250000 0.304130
O O12 0.084325 0.248413 0.276942
O O13 0.158322 0.000000 0.309746
O O14 0.000000 0.500000 0.653327
O O15 0.000000 0.757431 0.701874
O O16 0.000000 0.000000 0.756644
#
# Coordination Sequence:
#
# PCOD9368486 Si02
#       6
#    16  16  16  16   8   8
#     4  10  20  37  62  87 118 157 200 244 296 354
#     4  10  19  32  54  83 119 160 203 247 293 350
#     4   9  17  31  53  83 117 159 205 243 285 348
#     4  11  23  42  65  92 126 162 205 253 304 365
#     4  10  22  42  63  86 117 155 198 247 303 368
#     4  12  26  44  67  92 121 157 200 255 315 372
#
# _framework density 19.785014
#
# number of rings (size 3 to 8) (size 9 to 14) (size 15 to 20)
#    0.000    1.800    1.000    5.100    1.400    1.600 
#    0.000    3.000    0.000    2.400    0.000    0.000 
#    0.000    0.000    0.000    0.000    0.000    0.000 
#
# Total GULP energy -111649.949168 kJ/mol
# GULP energy per Si atom -5582.497458 kJ/mol
# Density = 1.973998 g / cm^3
# Si number density = 19.785014 Si / 1000 Ang^3
#
#
#
# Elastic Constant Matrix: (Units=GPa)
#
#
# Indices 1 2 3 4 5 6 
#
# 1 135.7089 32.7256 89.4896 0.0000 0.0000 0.0000
# 2 32.7256 72.9071 41.1365 0.0000 0.0000 0.0000
# 3 89.4896 41.1365 154.0657 0.0000 0.0000 0.0000
# 4 0.0000 0.0000 0.0000 27.1103 0.0000 0.0000
# 5 0.0000 0.0000 0.0000 0.0000 14.0830 0.0000
# 6 0.0000 0.0000 0.0000 0.0000 0.0000 26.3072
#
#
#
# Elastic Compliance Matrix: (Units=1/GPa)
#
#
# Indices 1 2 3 4 5 6 
#
# 1 0.012126 -0.001729 -0.006582 0.000000 0.000000 0.000000
# 2 -0.001729 0.016396 -0.003373 0.000000 0.000000 0.000000
# 3 -0.006582 -0.003373 0.011214 0.000000 0.000000 0.000000
# 4 0.000000 0.000000 0.000000 0.036886 0.000000 0.000000
# 5 0.000000 0.000000 0.000000 0.000000 0.071008 0.000000
# 6 0.000000 0.000000 0.000000 0.000000 0.000000 0.038012
#
#
# Mechanical properties :
#
#
# Convention : Reuss Voigt Hill
#
# Bulk Modulus (GPa) = 61.09685 76.59834 68.84759
# Shear Modulus (GPa) = 23.31372 26.78878 25.05125
#
# Velocity S-wave (km/s) = 3.43644 3.68366 3.56219
# Velocity P-wave (km/s) = 6.83322 7.54267 7.19669
#
# Compressibility (1/GPa) = 0.01636745
#
# Stress axis : x y z
#
# Youngs Moduli (GPa) = 82.46909 60.99194 89.17165
#
# Poissons Ratio (x) = 0.10548 0.58689
# Poissons Ratio (y) = 0.14262 0.30080
# Poissons Ratio (z) = 0.54277 0.20574
#
# Static dielectric constant tensor:
#      x y z
#    x 1.692360 0.000000 0.000000 
#    y 0.000000 1.684400 0.000000 
#    z 0.000000 0.000000 1.708370 
# 
# From -- ./inp_files/32772.got.cif
#   From: 2010.05.17/outbox.cif.g08.bks.cpg/sg42_17_cif.got.tgz:32772.got - 2010.06.03 19:03:34.
