data_PCOD9368285
_publ_section_title
;
Structure prediction by ZEFSAII (Michael W. Deem and Ramdas Pophale) SiO2 
 PCOD9368285
Probable space group: F M M 2
;
_chemical_formula_sum "Si O2"
_cell_formula_units_Z 96
_cell_length_a 7.523753
_cell_length_b 24.027207
_cell_length_c 26.748033
_cell_angle_alpha 90.000000
_cell_angle_beta 90.000000
_cell_angle_gamma 90.000000
_cell_volume 4835.369534
_symmetry_space_group_name_H-M "F M M 2"
_symmetry_group_IT_number 42
_symmetry_cell_setting 'orthorhombic'
loop_
_space_group_symop_operation_xyz
x,y,z
-x,-y,z
-x,y,z
x,-y,z
x,1/2+y,1/2+z
-x,1/2-y,1/2+z
-x,1/2+y,1/2+z
x,1/2-y,1/2+z
1/2+x,y,1/2+z
1/2-x,-y,1/2+z
1/2-x,y,1/2+z
1/2+x,-y,1/2+z
1/2+x,1/2+y,z
1/2-x,1/2-y,z
1/2-x,1/2+y,z
1/2+x,1/2-y,z
loop_
_atom_site_type_symbol
_atom_site_label
_atom_site_fract_x
_atom_site_fract_y
_atom_site_fract_z
Si Si1 0.704408 0.500000 0.012370
Si Si2 0.798445 0.620219 0.046026
Si Si3 0.787647 0.436942 0.255013
Si Si4 0.713363 0.315186 0.448915
Si Si5 0.282629 0.435528 0.641450
Si Si6 0.287653 0.383684 0.353695
Si Si7 0.216286 0.000000 0.398107
O O1 0.500000 0.500000 0.029457
O O2 0.800214 0.556244 0.028179
O O3 0.709064 0.500000 0.953046
O O4 0.718256 0.610142 0.101240
O O5 0.000000 0.641443 0.052616
O O6 0.717441 0.654530 0.999542
O O7 0.719996 0.500000 0.268591
O O8 0.726495 0.425037 0.198475
O O9 0.749386 0.388153 0.294674
O O10 0.000000 0.441388 0.252902
O O11 0.500000 0.324315 0.449644
O O12 0.750000 0.250000 0.450999
O O13 0.779630 0.340629 0.395878
O O14 0.500000 0.434407 0.639644
O O15 0.232240 0.500000 0.629398
O O16 0.500000 0.381221 0.357237
O O17 0.224445 0.444120 0.371616
O O18 0.000000 0.000000 0.400355
#
# Coordination Sequence:
#
# PCOD9368285 Si02
#       7
#     8  16  16  16  16  16   8
#     4  12  22  28  43  78 111 131 158 204 258 299
#     4  10  18  34  56  72  97 140 175 200 241 308
#     4   9  17  28  45  76 109 134 164 200 240 286
#     4  10  22  37  54  74  95 127 174 218 259 303
#     4   8  14  26  49  75 100 134 171 197 227 291
#     4  10  19  32  51  73  98 133 168 197 243 307
#     4  10  18  32  49  68  99 133 168 198 238 309
#
# _framework density 19.853705999999999
#
# number of rings (size 3 to 8) (size 9 to 14) (size 15 to 20)
#    0.000    2.333    3.333    1.750    0.000    2.000 
#    0.000    0.833    0.000    1.000    0.000    4.667 
#    0.000    0.000    0.000    0.000    0.000    0.000 
#
# Total GULP energy -133648.581416 kJ/mol
# GULP energy per Si atom -5568.690892 kJ/mol
# Density = 1.980852 g / cm^3
# Si number density = 19.853706 Si / 1000 Ang^3
#
#
#
# Elastic Constant Matrix: (Units=GPa)
#
#
# Indices 1 2 3 4 5 6 
#
# 1 55.6755 -1.4337 3.3942 0.0000 0.0000 0.0000
# 2 -1.4337 95.2353 70.5529 0.0000 0.0000 0.0000
# 3 3.3942 70.5529 189.6826 0.0000 0.0000 0.0000
# 4 0.0000 0.0000 0.0000 14.4100 0.0000 0.0000
# 5 0.0000 0.0000 0.0000 0.0000 12.7765 0.0000
# 6 0.0000 0.0000 0.0000 0.0000 0.0000 -2.4635
#
#
#
# Elastic Compliance Matrix: (Units=1/GPa)
#
#
# Indices 1 2 3 4 5 6 
#
# 1 0.018015 0.000704 -0.000584 0.000000 0.000000 0.000000
# 2 0.000704 0.014522 -0.005414 0.000000 0.000000 0.000000
# 3 -0.000584 -0.005414 0.007296 0.000000 0.000000 0.000000
# 4 0.000000 0.000000 0.000000 0.069396 0.000000 0.000000
# 5 0.000000 0.000000 0.000000 0.000000 0.078269 0.000000
# 6 0.000000 0.000000 0.000000 0.000000 0.000000 -0.405933
#
#
# Mechanical properties :
#
#
# Convention : Reuss Voigt Hill
#
# Bulk Modulus (GPa) = 34.19452 53.95782 44.07617
# Shear Modulus (GPa) = -25.23994 22.81659 -1.21167
#
# Velocity S-wave (km/s) = -3.56939 3.39372 -0.78206
# Velocity P-wave (km/s) = 0.52271 6.52634 4.62960
#
# Compressibility (1/GPa) = 0.02924445
#
# Stress axis : x y z
#
# Youngs Moduli (GPa) = 55.50938 68.86227 137.05818
#
# Poissons Ratio (x) = -0.04848 0.08007
# Poissons Ratio (y) = -0.03908 0.74203
# Poissons Ratio (z) = 0.03243 0.37282
#
# Static dielectric constant tensor:
#      x y z
#    x 1.786640 0.000000 0.000000 
#    y 0.000000 1.656260 0.000000 
#    z 0.000000 0.000000 1.812290 
# 
# From -- ./inp_files/31641.got.cif
#   From: 2010.05.17/outbox.cif.g08.bks.cpg/sg42_16_cif.got.tgz:31641.got - 2010.06.03 19:03:34.
