data_PCOD9368359
_publ_section_title
;
Structure prediction by ZEFSAII (Michael W. Deem and Ramdas Pophale) SiO2 
 PCOD9368359
Probable space group: F M M 2
;
_chemical_formula_sum "Si O2"
_cell_formula_units_Z 116
_cell_length_a 18.166759
_cell_length_b 21.133854
_cell_length_c 14.552382
_cell_angle_alpha 90.000000
_cell_angle_beta 90.000000
_cell_angle_gamma 90.000000
_cell_volume 5587.148881
_symmetry_space_group_name_H-M "F M M 2"
_symmetry_group_IT_number 42
_symmetry_cell_setting 'orthorhombic'
loop_
_space_group_symop_operation_xyz
x,y,z
-x,-y,z
-x,y,z
x,-y,z
x,1/2+y,1/2+z
-x,1/2-y,1/2+z
-x,1/2+y,1/2+z
x,1/2-y,1/2+z
1/2+x,y,1/2+z
1/2-x,-y,1/2+z
1/2-x,y,1/2+z
1/2+x,-y,1/2+z
1/2+x,1/2+y,z
1/2-x,1/2-y,z
1/2-x,1/2+y,z
1/2+x,1/2-y,z
loop_
_atom_site_type_symbol
_atom_site_label
_atom_site_fract_x
_atom_site_fract_y
_atom_site_fract_z
Si Si1 0.126642 0.597313 0.612670
Si Si2 0.000000 0.000000 0.059105
Si Si3 0.416874 0.925137 0.016435
Si Si4 0.913296 0.887329 0.315352
Si Si5 0.784820 0.926144 0.651841
Si Si6 0.586754 0.255107 0.099137
Si Si7 0.812098 0.196111 0.756334
Si Si8 0.584954 0.249479 0.389342
O O1 0.065140 0.554898 0.565224
O O2 0.121013 0.585948 0.723146
O O3 0.211123 0.581971 0.590921
O O4 0.108309 0.670948 0.599141
O O5 0.500000 0.896682 0.026397
O O6 0.388341 0.912521 0.913656
O O7 0.425299 0.000000 0.024541
O O8 0.356939 0.908940 0.092355
O O9 0.906758 0.811552 0.325462
O O10 0.000000 0.902693 0.308480
O O11 0.781727 0.872935 0.731230
O O12 0.789624 0.000000 0.680641
O O13 0.500000 0.249581 0.120528
O O14 0.635349 0.218951 0.173247
O O15 0.600105 0.232157 0.994668
O O16 0.750000 0.250000 0.764588
O O17 0.860105 0.197959 0.848905
O O18 0.500000 0.228749 0.385356
#
# Coordination Sequence:
#
# PCOD9368359 Si02
#       8
#    16   4  16  16  16  16  16  16
#     4  12  22  39  64  95 126 164 208 259 325 379
#     4  12  24  36  72  92 126 176 200 268 320 376
#     4   9  20  36  59  90 125 164 208 260 319 382
#     4  10  18  34  61  94 123 150 206 269 327 372
#     4  11  24  42  61  90 132 169 211 257 317 384
#     4  11  22  41  67  94 126 163 216 265 314 376
#     4  12  23  40  64  94 125 168 207 265 322 373
#     4  10  22  38  61  90 123 164 209 264 311 370
#
# _framework density 20.761931000000001
#
# number of rings (size 3 to 8) (size 9 to 14) (size 15 to 20)
#    0.000    1.241    4.828    1.241    0.966    2.759 
#    4.966    0.000    1.517    0.000    0.000    0.000 
#    0.000    0.000    0.000    0.000    0.000    0.000 
#
# Total GULP energy -161730.718573 kJ/mol
# GULP energy per Si atom -5576.921330 kJ/mol
# Density = 2.071468 g / cm^3
# Si number density = 20.761931 Si / 1000 Ang^3
#
#
#
# Elastic Constant Matrix: (Units=GPa)
#
#
# Indices 1 2 3 4 5 6 
#
# 1 85.9752 15.2258 17.9233 0.0000 0.0000 0.0000
# 2 15.2258 75.3565 -1.9521 0.0000 0.0000 0.0000
# 3 17.9233 -1.9521 39.2585 0.0000 0.0000 0.0000
# 4 0.0000 0.0000 0.0000 12.3878 0.0000 0.0000
# 5 0.0000 0.0000 0.0000 0.0000 28.0750 0.0000
# 6 0.0000 0.0000 0.0000 0.0000 0.0000 29.7616
#
#
#
# Elastic Compliance Matrix: (Units=1/GPa)
#
#
# Indices 1 2 3 4 5 6 
#
# 1 0.013452 -0.002881 -0.006284 0.000000 0.000000 0.000000
# 2 -0.002881 0.013904 0.002007 0.000000 0.000000 0.000000
# 3 -0.006284 0.002007 0.028441 0.000000 0.000000 0.000000
# 4 0.000000 0.000000 0.000000 0.080724 0.000000 0.000000
# 5 0.000000 0.000000 0.000000 0.000000 0.035619 0.000000
# 6 0.000000 0.000000 0.000000 0.000000 0.000000 0.033600
#
#
# Mechanical properties :
#
#
# Convention : Reuss Voigt Hill
#
# Bulk Modulus (GPa) = 24.10819 29.22046 26.66432
# Shear Modulus (GPa) = 21.37808 25.33775 23.35792
#
# Velocity S-wave (km/s) = 3.21234 3.49720 3.35779
# Velocity P-wave (km/s) = 5.03942 5.51470 5.28241
#
# Compressibility (1/GPa) = 0.04147969
#
# Stress axis : x y z
#
# Youngs Moduli (GPa) = 74.34090 71.92036 35.16038
#
# Poissons Ratio (x) = 0.20718 0.22096
# Poissons Ratio (y) = 0.21415 -0.07055
# Poissons Ratio (z) = 0.46719 -0.14431
#
# Static dielectric constant tensor:
#      x y z
#    x 1.763130 0.000000 0.000000 
#    y 0.000000 1.785160 0.000000 
#    z 0.000000 0.000000 1.750870 
# 
# From -- ./inp_files/15407.got.cif
#   From: 2010.05.17/outbox.cif.g08.bks.cpg/sg42_8_cif.got.tgz:15407.got - 2010.06.03 19:03:34.
