data_PCOD9368839
_publ_section_title
;
Structure prediction by ZEFSAII (Michael W. Deem and Ramdas Pophale) SiO2 
 PCOD9368839
Probable space group: F M M 2
;
_chemical_formula_sum "Si O2"
_cell_formula_units_Z 100
_cell_length_a 7.648854
_cell_length_b 25.930084
_cell_length_c 19.926313
_cell_angle_alpha 90.000000
_cell_angle_beta 90.000000
_cell_angle_gamma 90.000000
_cell_volume 3952.093792
_symmetry_space_group_name_H-M "F M M 2"
_symmetry_group_IT_number 42
_symmetry_cell_setting 'orthorhombic'
loop_
_space_group_symop_operation_xyz
x,y,z
-x,-y,z
-x,y,z
x,-y,z
x,1/2+y,1/2+z
-x,1/2-y,1/2+z
-x,1/2+y,1/2+z
x,1/2-y,1/2+z
1/2+x,y,1/2+z
1/2-x,-y,1/2+z
1/2-x,y,1/2+z
1/2+x,-y,1/2+z
1/2+x,1/2+y,z
1/2-x,1/2-y,z
1/2-x,1/2+y,z
1/2+x,1/2-y,z
loop_
_atom_site_type_symbol
_atom_site_label
_atom_site_fract_x
_atom_site_fract_y
_atom_site_fract_z
Si Si1 0.698417 0.306058 0.357730
Si Si2 0.791866 0.306650 0.062763
Si Si3 0.803873 0.423943 0.535699
Si Si4 0.212430 0.332074 0.209102
Si Si5 0.792645 0.445445 0.237399
Si Si6 0.000000 0.000000 0.581589
Si Si7 0.787428 0.582423 0.888236
O O1 0.500000 0.312184 0.377907
O O2 0.750000 0.250000 0.381194
O O3 0.716493 0.307727 0.277148
O O4 0.783522 0.358613 0.382936
O O5 0.750000 0.250000 0.033616
O O6 0.722666 0.361527 0.036183
O O7 0.731027 0.306264 0.140468
O O8 0.000000 0.311755 0.060815
O O9 0.653972 0.454470 0.575389
O O10 0.779795 0.439933 0.457616
O O11 0.000000 0.435267 0.558404
O O12 0.273980 0.391634 0.208887
O O13 0.000000 0.331124 0.213509
O O14 0.716912 0.500000 0.214769
O O15 0.769274 0.442050 0.317914
O O16 0.000000 0.447050 0.222505
O O17 0.000000 0.580166 0.890091
#
# Coordination Sequence:
#
# PCOD9368839 Si02
#       7
#    16  16  16  16  16   4  16
#     4  10  20  33  55  84 123 166 210 267 330 393
#     4  11  23  43  67  98 134 178 229 289 345 410
#     4  12  26  46  72 103 134 181 229 282 348 404
#     4   9  19  36  58  88 124 165 214 267 330 396
#     4   9  18  33  55  87 121 164 215 263 323 397
#     4  12  26  52  72  98 144 168 234 286 332 420
#     4  10  21  38  57  86 127 165 213 271 328 398
#
# _framework density 25.303042999999999
#
# number of rings (size 3 to 8) (size 9 to 14) (size 15 to 20)
#    0.000    1.760    1.600    2.160    1.120    5.440 
#    1.440    1.600    0.000    0.000    0.000    0.000 
#    0.000    0.000    0.000    0.000    0.000    0.000 
#
# Total GULP energy -139618.704882 kJ/mol
# GULP energy per Si atom -5584.748195 kJ/mol
# Density = 2.524545 g / cm^3
# Si number density = 25.303043 Si / 1000 Ang^3
#
#
#
# Elastic Constant Matrix: (Units=GPa)
#
#
# Indices 1 2 3 4 5 6 
#
# 1 119.7935 26.2073 -7.8508 0.0000 0.0000 0.0000
# 2 26.2073 216.2548 25.1490 0.0000 0.0000 0.0000
# 3 -7.8508 25.1490 102.5910 0.0000 0.0000 0.0000
# 4 0.0000 0.0000 0.0000 -60.6281 0.0000 0.0000
# 5 0.0000 0.0000 0.0000 0.0000 5.0226 0.0000
# 6 0.0000 0.0000 0.0000 0.0000 0.0000 26.7950
#
#
#
# Elastic Compliance Matrix: (Units=1/GPa)
#
#
# Indices 1 2 3 4 5 6 
#
# 1 0.008664 -0.001160 0.000947 0.000000 0.000000 0.000000
# 2 -0.001160 0.004915 -0.001294 0.000000 0.000000 0.000000
# 3 0.000947 -0.001294 0.010137 0.000000 0.000000 0.000000
# 4 0.000000 0.000000 0.000000 -0.016494 0.000000 0.000000
# 5 0.000000 0.000000 0.000000 0.000000 0.199101 0.000000
# 6 0.000000 0.000000 0.000000 0.000000 0.000000 0.037320
#
#
# Mechanical properties :
#
#
# Convention : Reuss Voigt Hill
#
# Bulk Modulus (GPa) = 48.30205 58.40558 53.35382
# Shear Modulus (GPa) = 19.71942 20.58015 20.14979
#
# Velocity S-wave (km/s) = 2.79468 2.85502 2.82501
# Velocity P-wave (km/s) = 5.43548 5.83101 5.63672
#
# Compressibility (1/GPa) = 0.02070305
#
# Stress axis : x y z
#
# Youngs Moduli (GPa) = 115.42576 203.45022 98.64780
#
# Poissons Ratio (x) = 0.23602 -0.09346
# Poissons Ratio (y) = 0.13390 0.12762
# Poissons Ratio (z) = -0.10935 0.26320
#
# Static dielectric constant tensor:
#      x y z
#    x 1.924900 0.000000 0.000000 
#    y 0.000000 2.029530 0.000000 
#    z 0.000000 0.000000 2.006260 
# 
# From -- ./inp_files/23823.got.cif
#   From: 2010.05.17/outbox.cif.g08.bks.cpg/sg42_12_cif.got.tgz:23823.got - 2010.06.03 19:03:34.
