data_PCOD9368927
_publ_section_title
;
Structure prediction by ZEFSAII (Michael W. Deem and Ramdas Pophale) SiO2 
 PCOD9368927
Probable space group: F M M 2
;
_chemical_formula_sum "Si O2"
_cell_formula_units_Z 80
_cell_length_a 9.085703
_cell_length_b 15.714543
_cell_length_c 29.624792
_cell_angle_alpha 90.000000
_cell_angle_beta 90.000000
_cell_angle_gamma 90.000000
_cell_volume 4229.758790
_symmetry_space_group_name_H-M "F M M 2"
_symmetry_group_IT_number 42
_symmetry_cell_setting 'orthorhombic'
loop_
_space_group_symop_operation_xyz
x,y,z
-x,-y,z
-x,y,z
x,-y,z
x,1/2+y,1/2+z
-x,1/2-y,1/2+z
-x,1/2+y,1/2+z
x,1/2-y,1/2+z
1/2+x,y,1/2+z
1/2-x,-y,1/2+z
1/2-x,y,1/2+z
1/2+x,-y,1/2+z
1/2+x,1/2+y,z
1/2-x,1/2-y,z
1/2-x,1/2+y,z
1/2+x,1/2-y,z
loop_
_atom_site_type_symbol
_atom_site_label
_atom_site_fract_x
_atom_site_fract_y
_atom_site_fract_z
Si Si1 0.828636 0.896931 0.783290
Si Si2 0.172810 0.102563 0.375442
Si Si3 0.677353 0.662579 0.474583
Si Si4 0.323295 0.500000 0.131873
Si Si5 0.323946 0.662835 0.192724
Si Si6 0.822466 0.500000 0.034343
O O1 0.766174 0.870937 0.832048
O O2 0.736126 0.857531 0.742659
O O3 0.000000 0.874340 0.778761
O O4 0.815702 0.000000 0.780582
O O5 0.220193 0.143283 0.422689
O O6 0.000000 0.121344 0.367774
O O7 0.185043 0.000000 0.380368
O O8 0.500000 0.668742 0.475526
O O9 0.750000 0.750000 0.489708
O O10 0.720574 0.583462 0.505922
O O11 0.500000 0.500000 0.126339
O O12 0.283716 0.583593 0.160738
O O13 0.247146 0.500000 0.083565
O O14 0.500000 0.670698 0.193706
O O15 0.250000 0.750000 0.176775
O O16 0.000000 0.500000 0.037798
#
# Coordination Sequence:
#
# PCOD9368927 Si02
#       6
#    16  16  16   8  16   8
#     4  10  20  34  56  88 123 158 200 243 289 346
#     4   9  17  33  57  81 114 160 203 239 284 343
#     4  10  21  38  60  88 118 154 197 241 289 348
#     4  10  24  44  65  88 117 151 192 243 301 356
#     4  11  23  41  63  89 120 156 198 243 294 353
#     4  10  22  42  65  86 115 153 194 239 295 356
#
# _framework density 18.913606999999999
#
# number of rings (size 3 to 8) (size 9 to 14) (size 15 to 20)
#    0.000    2.000    2.000    1.200    0.000    5.600 
#    0.000    6.000    0.000    0.000    0.000    0.000 
#    0.000    0.000    0.000    0.000    0.000    0.000 
#
# Total GULP energy -111754.790612 kJ/mol
# GULP energy per Si atom -5587.739531 kJ/mol
# Density = 1.887056 g / cm^3
# Si number density = 18.913607 Si / 1000 Ang^3
#
#
#
# Elastic Constant Matrix: (Units=GPa)
#
#
# Indices 1 2 3 4 5 6 
#
# 1 51.4149 57.2280 52.1893 0.0000 0.0000 0.0000
# 2 57.2280 141.3571 86.3098 0.0000 0.0000 0.0000
# 3 52.1893 86.3098 144.7021 0.0000 0.0000 0.0000
# 4 0.0000 0.0000 0.0000 -4.4059 0.0000 0.0000
# 5 0.0000 0.0000 0.0000 0.0000 36.3247 0.0000
# 6 0.0000 0.0000 0.0000 0.0000 0.0000 30.6178
#
#
#
# Elastic Compliance Matrix: (Units=1/GPa)
#
#
# Indices 1 2 3 4 5 6 
#
# 1 0.039979 -0.011609 -0.007495 0.000000 0.000000 0.000000
# 2 -0.011609 0.014498 -0.004460 0.000000 0.000000 0.000000
# 3 -0.007495 -0.004460 0.012274 0.000000 0.000000 0.000000
# 4 0.000000 0.000000 0.000000 -0.226968 0.000000 0.000000
# 5 0.000000 0.000000 0.000000 0.000000 0.027529 0.000000
# 6 0.000000 0.000000 0.000000 0.000000 0.000000 0.032661
#
#
# Mechanical properties :
#
#
# Convention : Reuss Voigt Hill
#
# Bulk Modulus (GPa) = 50.96180 80.99203 65.97692
# Shear Modulus (GPa) = -107.85506 21.95713 -42.94896
#
# Velocity S-wave (km/s) = -7.55969 3.41092 -4.77046
# Velocity P-wave (km/s) = 7.01395 7.64379 2.14849
#
# Compressibility (1/GPa) = 0.01962254
#
# Stress axis : x y z
#
# Youngs Moduli (GPa) = 25.01315 68.97682 81.47215
#
# Poissons Ratio (x) = 0.80078 0.61059
# Poissons Ratio (y) = 0.29039 0.36338
# Poissons Ratio (z) = 0.18746 0.30765
#
# Static dielectric constant tensor:
#      x y z
#    x 1.629270 0.000000 0.000000 
#    y 0.000000 1.668360 0.000000 
#    z 0.000000 0.000000 1.619000 
# 
# From -- ./inp_files/31282.got.cif
#   From: 2010.05.17/outbox.cif.g08.bks.cpg/sg42_16_cif.got.tgz:31282.got - 2010.06.03 19:03:34.
