data_PCOD9368756
_publ_section_title
;
Structure prediction by ZEFSAII (Michael W. Deem and Ramdas Pophale) SiO2 
 PCOD9368756
Probable space group: F M M 2
;
_chemical_formula_sum "Si O2"
_cell_formula_units_Z 112
_cell_length_a 26.685342
_cell_length_b 11.370845
_cell_length_c 18.832500
_cell_angle_alpha 90.000000
_cell_angle_beta 90.000000
_cell_angle_gamma 90.000000
_cell_volume 5714.437522
_symmetry_space_group_name_H-M "F M M 2"
_symmetry_group_IT_number 42
_symmetry_cell_setting 'orthorhombic'
loop_
_space_group_symop_operation_xyz
x,y,z
-x,-y,z
-x,y,z
x,-y,z
x,1/2+y,1/2+z
-x,1/2-y,1/2+z
-x,1/2+y,1/2+z
x,1/2-y,1/2+z
1/2+x,y,1/2+z
1/2-x,-y,1/2+z
1/2-x,y,1/2+z
1/2+x,-y,1/2+z
1/2+x,1/2+y,z
1/2-x,1/2-y,z
1/2-x,1/2+y,z
1/2+x,1/2-y,z
loop_
_atom_site_type_symbol
_atom_site_label
_atom_site_fract_x
_atom_site_fract_y
_atom_site_fract_z
Si Si1 0.055231 0.366510 0.592570
Si Si2 0.944769 0.133490 0.777290
Si Si3 0.860948 0.750000 0.184930
Si Si4 0.154112 0.864906 0.434930
Si Si5 0.444368 0.792046 0.434930
Si Si6 0.213581 0.136485 0.582608
Si Si7 0.713581 0.136485 0.787252
O O1 0.056716 0.500000 0.618417
O O2 0.101845 0.299929 0.625503
O O3 0.058342 0.364288 0.507481
O O4 0.000000 0.316366 0.610482
O O5 0.898155 0.200071 0.744357
O O6 0.941658 0.135712 0.862379
O O7 0.000000 0.183635 0.759378
O O8 0.943284 0.000000 0.751443
O O9 0.826091 0.654093 0.146368
O O10 0.826091 0.845907 0.223492
O O11 0.103663 0.790687 0.434930
O O12 0.186614 0.846727 0.506216
O O13 0.186614 0.846727 0.363645
O O14 0.138624 0.000000 0.434930
O O15 0.500000 0.733703 0.434930
O O16 0.250000 0.250000 0.589963
O O17 0.233241 0.000000 0.584664
O O18 0.750000 0.250000 0.779897
O O19 0.733241 0.000000 0.785196
#
# Coordination Sequence:
#
# PCOD9368756 Si02
#       7
#    16  16  16  16  16  16  16
#     4  10  21  37  59  90 126 164 207 251 299 363
#     4  10  21  37  59  90 126 164 207 251 299 363
#     4  12  22  38  64  88 128 164 204 250 314 370
#     4  10  21  43  65  89 122 156 203 257 306 368
#     4  10  19  38  64  90 120 158 204 252 301 357
#     4  11  25  44  66  91 123 162 209 263 315 369
#     4  11  25  44  66  91 123 162 209 263 315 369
#
# _framework density 19.59948
#
# number of rings (size 3 to 8) (size 9 to 14) (size 15 to 20)
#    0.000    1.429    2.857    2.571    0.000    5.429 
#    0.000    0.000    0.000    0.000    0.000    0.000 
#    0.000    0.000    0.000    0.000    0.000    0.000 
#
# Total GULP energy -156093.984768 kJ/mol
# GULP energy per Si atom -5574.785170 kJ/mol
# Density = 1.955487 g / cm^3
# Si number density = 19.599480 Si / 1000 Ang^3
#
#
#
# Elastic Constant Matrix: (Units=GPa)
#
#
# Indices 1 2 3 4 5 6 
#
# 1 93.9837 72.6814 20.2446 0.0000 0.0000 0.0000
# 2 72.6814 110.7659 23.4069 0.0000 0.0000 0.0000
# 3 20.2446 23.4069 95.3081 0.0000 0.0000 0.0000
# 4 0.0000 0.0000 0.0000 8.1026 0.0000 0.0000
# 5 0.0000 0.0000 0.0000 0.0000 26.7959 0.0000
# 6 0.0000 0.0000 0.0000 0.0000 0.0000 16.1319
#
#
#
# Elastic Compliance Matrix: (Units=1/GPa)
#
#
# Indices 1 2 3 4 5 6 
#
# 1 0.021726 -0.014008 -0.001175 0.000000 0.000000 0.000000
# 2 -0.014008 0.018554 -0.001581 0.000000 0.000000 0.000000
# 3 -0.001175 -0.001581 0.011130 0.000000 0.000000 0.000000
# 4 0.000000 0.000000 0.000000 0.123418 0.000000 0.000000
# 5 0.000000 0.000000 0.000000 0.000000 0.037319 0.000000
# 6 0.000000 0.000000 0.000000 0.000000 0.000000 0.061989
#
#
# Mechanical properties :
#
#
# Convention : Reuss Voigt Hill
#
# Bulk Modulus (GPa) = 55.92055 59.19151 57.55603
# Shear Modulus (GPa) = 15.94270 22.45440 19.19855
#
# Velocity S-wave (km/s) = 2.85515 3.38844 3.13316
# Velocity P-wave (km/s) = 6.28194 6.75091 6.52064
#
# Compressibility (1/GPa) = 0.01788251
#
# Stress axis : x y z
#
# Youngs Moduli (GPa) = 46.02814 53.89788 89.84619
#
# Poissons Ratio (x) = 0.75498 0.10554
# Poissons Ratio (y) = 0.64475 0.14207
# Poissons Ratio (z) = 0.05407 0.08522
#
# Static dielectric constant tensor:
#      x y z
#    x 1.707430 0.000000 0.000000 
#    y 0.000000 1.666460 0.000000 
#    z 0.000000 0.000000 1.692070 
# 
# From -- ./inp_files/24564.got.cif
#   From: 2010.05.17/outbox.cif.g08.bks.cpg/sg42_13_cif.got.tgz:24564.got - 2010.06.03 19:03:34.
