data_PCOD9368049
_publ_section_title
;
Structure prediction by ZEFSAII (Michael W. Deem and Ramdas Pophale) SiO2 
 PCOD9368049
Probable space group: A B A 2
;
_chemical_formula_sum "Si O2"
_cell_formula_units_Z 32
_cell_length_a 15.000000
_cell_length_b 24.000000
_cell_length_c 9.000000
_cell_angle_alpha 90.000000
_cell_angle_beta 90.000000
_cell_angle_gamma 90.000000
_cell_volume 3240.000000
_symmetry_space_group_name_H-M "A B A 2"
_symmetry_group_IT_number 41
_symmetry_cell_setting 'orthorhombic'
loop_
_space_group_symop_operation_xyz
x,y,z
-x,-y,z
1/2-x,y,1/2+z
1/2+x,-y,1/2+z
x,1/2+y,1/2+z
-x,1/2-y,1/2+z
1/2-x,1/2+y,z
1/2+x,1/2-y,z
loop_
_atom_site_type_symbol
_atom_site_label
_atom_site_fract_x
_atom_site_fract_y
_atom_site_fract_z
Si Si1 0.148152 0.924276 0.449820
Si Si2 0.968567 0.178274 0.490301
Si Si3 0.343737 0.214398 0.506473
Si Si4 0.863242 0.459311 0.314676
Si Si5 0.510615 0.357265 0.826543
Si Si6 0.845277 0.321810 0.851550
Si Si7 0.177674 0.553180 0.967416
Si Si8 0.660656 0.586454 0.804816
O O1 0.069834 0.879438 0.417171
O O2 0.239661 0.909499 0.366275
O O3 0.162926 0.913586 0.625649
O O4 0.135792 0.991738 0.423631
O O5 0.886375 0.222768 0.500094
O O6 0.003605 0.163934 0.656496
O O7 0.057479 0.200560 0.406360
O O8 0.421199 0.180038 0.420084
O O9 0.245443 0.202893 0.431112
O O10 0.337168 0.192352 0.676517
O O11 0.945039 0.418330 0.335861
O O12 0.781361 0.447287 0.423818
O O13 0.877839 0.524763 0.336744
O O14 0.833082 0.446555 0.145036
O O15 0.406926 0.367203 0.868376
O O16 0.852885 0.388391 0.892654
#
# Coordination Sequence:
#
# PCOD9368049 Si02
#       8
#     8   8   8   8   8   8   8   8
#     4   9  21  38  62  93 128 165 211 261 327 389
#     4  11  25  44  65  94 127 172 221 265 326 392
#     4  12  27  42  66  95 128 171 220 272 321 392
#     4  10  18  34  61  93 125 161 209 258 321 392
#     4  11  21  40  62  91 126 167 221 262 324 383
#     4  12  24  44  67  93 129 167 215 273 326 386
#     4  10  19  36  64  94 125 162 207 263 327 379
#     4   9  20  36  62  90 125 166 202 265 324 385
#
# _framework density 9.8765429999999999
#
# number of rings (size 3 to 8) (size 9 to 14) (size 15 to 20)
#    0.000    1.500    2.500    2.625    0.000    4.500 
#    0.000    0.000    2.750    0.000    0.000    0.000 
#    0.000    0.000    0.000    0.000    0.000    0.000 
#
# Total GULP energy -178419.029829 kJ/mol
# GULP energy per Si atom -5575.594682 kJ/mol
# Density = 0.985406 g / cm^3
# Si number density = 9.876543 Si / 1000 Ang^3
#
#
#
# Elastic Constant Matrix: (Units=GPa)
#
#
# Indices 1 2 3 4 5 6 
#
# 1 111.7837 51.5918 35.7086 0.0000 0.0000 0.0000
# 2 51.5918 70.1174 21.6613 0.0000 0.0000 0.0000
# 3 35.7086 21.6613 56.2136 0.0000 0.0000 0.0000
# 4 0.0000 0.0000 0.0000 21.8844 0.0000 0.0000
# 5 0.0000 0.0000 0.0000 0.0000 34.3415 0.0000
# 6 0.0000 0.0000 0.0000 0.0000 0.0000 45.5242
#
#
#
# Elastic Compliance Matrix: (Units=1/GPa)
#
#
# Indices 1 2 3 4 5 6 
#
# 1 0.015168 -0.009290 -0.006055 0.000000 0.000000 0.000000
# 2 -0.009290 0.021878 -0.002530 0.000000 0.000000 0.000000
# 3 -0.006055 -0.002530 0.022611 0.000000 0.000000 0.000000
# 4 0.000000 0.000000 0.000000 0.045695 0.000000 0.000000
# 5 0.000000 0.000000 0.000000 0.000000 0.029119 0.000000
# 6 0.000000 0.000000 0.000000 0.000000 0.000000 0.021966
#
#
# Mechanical properties :
#
#
# Convention : Reuss Voigt Hill
#
# Bulk Modulus (GPa) = 41.82756 50.67089 46.24922
# Shear Modulus (GPa) = 24.98065 28.96023 26.97044
#
# Velocity S-wave (km/s) = 3.56004 3.83314 3.69911
# Velocity P-wave (km/s) = 6.17412 6.73041 6.45826
#
# Compressibility (1/GPa) = 0.02390768
#
# Stress axis : x y z
#
# Youngs Moduli (GPa) = 65.93003 45.70715 44.22717
#
# Poissons Ratio (x) = 0.42460 0.26781
# Poissons Ratio (y) = 0.61246 0.11188
# Poissons Ratio (z) = 0.39923 0.11562
#
# Static dielectric constant tensor:
#      x y z
#    x 1.692600 0.000000 0.000000 
#    y 0.000000 1.771580 0.000000 
#    z 0.000000 0.000000 1.674110 
# 
# From -- ./inp_files/2788.got.cif
#   From: 2010.05.17/outbox.ucp.g08.bks.cvg/sg41_2_cif.got.tgz:2788.got - 2010.06.11 16:28:22.
