data_PCOD9368859
_publ_section_title
;
Structure prediction by ZEFSAII (Michael W. Deem and Ramdas Pophale) SiO2 
 PCOD9368859
Probable space group: F M M 2
;
_chemical_formula_sum "Si O2"
_cell_formula_units_Z 96
_cell_length_a 19.525032
_cell_length_b 9.404652
_cell_length_c 31.643872
_cell_angle_alpha 90.000000
_cell_angle_beta 90.000000
_cell_angle_gamma 90.000000
_cell_volume 5810.641793
_symmetry_space_group_name_H-M "F M M 2"
_symmetry_group_IT_number 42
_symmetry_cell_setting 'orthorhombic'
loop_
_space_group_symop_operation_xyz
x,y,z
-x,-y,z
-x,y,z
x,-y,z
x,1/2+y,1/2+z
-x,1/2-y,1/2+z
-x,1/2+y,1/2+z
x,1/2-y,1/2+z
1/2+x,y,1/2+z
1/2-x,-y,1/2+z
1/2-x,y,1/2+z
1/2+x,-y,1/2+z
1/2+x,1/2+y,z
1/2-x,1/2-y,z
1/2-x,1/2+y,z
1/2+x,1/2-y,z
loop_
_atom_site_type_symbol
_atom_site_label
_atom_site_fract_x
_atom_site_fract_y
_atom_site_fract_z
Si Si1 0.919552 0.669888 0.203720
Si Si2 0.583308 0.336691 0.868993
Si Si3 0.177612 0.170150 0.530046
Si Si4 0.179056 0.330784 0.127379
Si Si5 0.416476 0.163185 0.787593
Si Si6 0.081725 0.330403 0.464956
O O1 0.913412 0.500000 0.210238
O O2 0.876232 0.710250 0.162563
O O3 0.895905 0.750603 0.245856
O O4 0.000000 0.701101 0.197130
O O5 0.500000 0.335760 0.868706
O O6 0.604298 0.500000 0.861596
O O7 0.606928 0.237577 0.830872
O O8 0.602892 0.294753 0.916629
O O9 0.250000 0.250000 0.523845
O O10 0.156701 0.196087 0.578994
O O11 0.123281 0.237943 0.498213
O O12 0.184678 0.000000 0.524085
O O13 0.190599 0.500000 0.130938
O O14 0.250000 0.250000 0.134492
O O15 0.500000 0.165883 0.788282
O O16 0.394681 0.000000 0.785413
O O17 0.093661 0.500000 0.470886
O O18 0.000000 0.307193 0.468798
#
# Coordination Sequence:
#
# PCOD9368859 Si02
#       6
#    16  16  16  16  16  16
#     4   9  17  30  48  69  94 124 157 192 232 278
#     4   8  14  26  44  65  92 127 160 188 226 279
#     4  10  20  34  52  72  96 128 165 202 242 291
#     4   9  19  34  51  70  92 123 160 196 235 282
#     4   9  16  25  40  66  97 124 153 191 232 274
#     4   9  18  32  50  74 102 129 160 200 244 288
#
# _framework density 16.521411000000001
#
# number of rings (size 3 to 8) (size 9 to 14) (size 15 to 20)
#    0.000    3.000    0.000    2.000    0.000    5.000 
#    0.000    3.333    0.000    3.000    0.000    4.667 
#    0.000    0.000    0.000    0.000    0.000    0.000 
#
# Total GULP energy -133697.762871 kJ/mol
# GULP energy per Si atom -5570.740120 kJ/mol
# Density = 1.648381 g / cm^3
# Si number density = 16.521411 Si / 1000 Ang^3
#
#
#
# Elastic Constant Matrix: (Units=GPa)
#
#
# Indices 1 2 3 4 5 6 
#
# 1 40.6503 45.4043 70.8072 0.0000 0.0000 0.0000
# 2 45.4043 76.4540 95.1763 0.0000 0.0000 0.0000
# 3 70.8072 95.1763 172.5205 0.0000 0.0000 0.0000
# 4 0.0000 0.0000 0.0000 27.1365 0.0000 0.0000
# 5 0.0000 0.0000 0.0000 0.0000 -10.7844 0.0000
# 6 0.0000 0.0000 0.0000 0.0000 0.0000 21.4976
#
#
#
# Elastic Compliance Matrix: (Units=1/GPa)
#
#
# Indices 1 2 3 4 5 6 
#
# 1 0.100910 -0.026722 -0.026675 0.000000 0.000000 0.000000
# 2 -0.026722 0.048835 -0.015974 0.000000 0.000000 0.000000
# 3 -0.026675 -0.015974 0.025557 0.000000 0.000000 0.000000
# 4 0.000000 0.000000 0.000000 0.036851 0.000000 0.000000
# 5 0.000000 0.000000 0.000000 0.000000 -0.092727 0.000000
# 6 0.000000 0.000000 0.000000 0.000000 0.000000 0.046517
#
#
# Mechanical properties :
#
#
# Convention : Reuss Voigt Hill
#
# Bulk Modulus (GPa) = 27.35099 79.15560 53.25329
# Shear Modulus (GPa) = 15.77931 12.78575 14.28253
#
# Velocity S-wave (km/s) = 3.09379 2.78491 2.94340
# Velocity P-wave (km/s) = 5.41783 7.63910 6.62226
#
# Compressibility (1/GPa) = 0.03656175
#
# Stress axis : x y z
#
# Youngs Moduli (GPa) = 9.90979 20.47714 39.12831
#
# Poissons Ratio (x) = 0.54718 1.04373
# Poissons Ratio (y) = 0.26481 0.62504
# Poissons Ratio (z) = 0.26434 0.32710
#
# Static dielectric constant tensor:
#      x y z
#    x 1.529510 0.000000 0.000000 
#    y 0.000000 1.549000 0.000000 
#    z 0.000000 0.000000 1.556310 
# 
# From -- ./inp_files/28037.got.cif
#   From: 2010.05.17/outbox.cif.g08.bks.cpg/sg42_15_cif.got.tgz:28037.got - 2010.06.03 19:03:34.
