data_PCOD9368797
_publ_section_title
;
Structure prediction by ZEFSAII (Michael W. Deem and Ramdas Pophale) SiO2 
 PCOD9368797
Probable space group: F M M 2
;
_chemical_formula_sum "Si O2"
_cell_formula_units_Z 84
_cell_length_a 12.312329
_cell_length_b 15.665166
_cell_length_c 22.781669
_cell_angle_alpha 90.000000
_cell_angle_beta 90.000000
_cell_angle_gamma 90.000000
_cell_volume 4394.007064
_symmetry_space_group_name_H-M "F M M 2"
_symmetry_group_IT_number 42
_symmetry_cell_setting 'orthorhombic'
loop_
_space_group_symop_operation_xyz
x,y,z
-x,-y,z
-x,y,z
x,-y,z
x,1/2+y,1/2+z
-x,1/2-y,1/2+z
-x,1/2+y,1/2+z
x,1/2-y,1/2+z
1/2+x,y,1/2+z
1/2-x,-y,1/2+z
1/2-x,y,1/2+z
1/2+x,-y,1/2+z
1/2+x,1/2+y,z
1/2-x,1/2-y,z
1/2-x,1/2+y,z
1/2+x,1/2-y,z
loop_
_atom_site_type_symbol
_atom_site_label
_atom_site_fract_x
_atom_site_fract_y
_atom_site_fract_z
Si Si1 0.867034 0.000000 0.181690
Si Si2 0.237432 0.000000 0.798659
Si Si3 0.000000 0.098780 0.041528
Si Si4 0.263486 0.337971 0.883529
Si Si5 0.000000 0.500000 0.304666
Si Si6 0.627004 0.397568 0.495115
Si Si7 0.000000 0.366590 0.409892
Si Si8 0.283500 0.654312 0.100420
O O1 0.826023 0.000000 0.248397
O O2 0.813892 0.083664 0.149904
O O3 0.000000 0.000000 0.181668
O O4 0.245805 0.081698 0.840997
O O5 0.114623 0.000000 0.771974
O O6 0.105531 0.150058 0.062370
O O7 0.000000 0.088293 0.972184
O O8 0.000000 0.000000 0.064047
O O9 0.250000 0.250000 0.848996
O O10 0.186929 0.354868 0.939556
O O11 0.384272 0.323592 0.908344
O O12 0.000000 0.422276 0.350729
O O13 0.500000 0.373760 0.497393
O O14 0.634899 0.500000 0.487056
O O15 0.689441 0.375191 0.555327
O O16 0.250000 0.750000 0.120448
#
# Coordination Sequence:
#
# PCOD9368797 Si02
#       8
#     8   8   8  16   4  16   8  16
#     4  12  26  50  74  93 119 175 234 280 323 387
#     4  10  24  45  67  91 123 166 224 266 323 374
#     4  12  20  38  69  97 130 173 220 265 311 386
#     4  11  23  39  64  95 133 167 208 261 320 391
#     4   8  18  40  62  94 122 160 212 264 308 376
#     4  11  23  38  60  97 138 172 203 253 331 400
#     4  10  20  32  64  95 124 173 209 249 315 380
#     4  12  25  41  67  97 133 167 216 273 327 390
#
# _framework density 19.116947
#
# number of rings (size 3 to 8) (size 9 to 14) (size 15 to 20)
#    0.000    0.952    6.190    0.571    2.667    1.524 
#    1.714    0.000    4.190    0.000    0.000    0.000 
#    0.000    0.000    0.000    0.000    0.000    0.000 
#
# Total GULP energy -116994.747637 kJ/mol
# GULP energy per Si atom -5571.178459 kJ/mol
# Density = 1.907344 g / cm^3
# Si number density = 19.116947 Si / 1000 Ang^3
#
#
#
# Elastic Constant Matrix: (Units=GPa)
#
#
# Indices 1 2 3 4 5 6 
#
# 1 159.1943 53.7160 49.2273 0.0000 0.0000 0.0000
# 2 53.7160 151.8724 43.3365 0.0000 0.0000 0.0000
# 3 49.2273 43.3365 86.2949 0.0000 0.0000 0.0000
# 4 0.0000 0.0000 0.0000 9.5290 0.0000 0.0000
# 5 0.0000 0.0000 0.0000 0.0000 84.7312 0.0000
# 6 0.0000 0.0000 0.0000 0.0000 0.0000 130.0937
#
#
#
# Elastic Compliance Matrix: (Units=1/GPa)
#
#
# Indices 1 2 3 4 5 6 
#
# 1 0.008022 -0.001788 -0.003679 0.000000 0.000000 0.000000
# 2 -0.001788 0.008084 -0.003040 0.000000 0.000000 0.000000
# 3 -0.003679 -0.003040 0.015213 0.000000 0.000000 0.000000
# 4 0.000000 0.000000 0.000000 0.104943 0.000000 0.000000
# 5 0.000000 0.000000 0.000000 0.000000 0.011802 0.000000
# 6 0.000000 0.000000 0.000000 0.000000 0.000000 0.007687
#
#
# Mechanical properties :
#
#
# Convention : Reuss Voigt Hill
#
# Bulk Modulus (GPa) = 69.89484 76.65791 73.27638
# Shear Modulus (GPa) = 28.16372 61.60956 44.88664
#
# Velocity S-wave (km/s) = 3.84244 5.68311 4.85088
# Velocity P-wave (km/s) = 7.50512 9.12415 8.35395
#
# Compressibility (1/GPa) = 0.01430721
#
# Stress axis : x y z
#
# Youngs Moduli (GPa) = 124.65104 123.69728 65.73192
#
# Poissons Ratio (x) = 0.22114 0.24180
# Poissons Ratio (y) = 0.22285 0.19982
# Poissons Ratio (z) = 0.45854 0.37604
#
# Static dielectric constant tensor:
#      x y z
#    x 1.434250 0.000000 0.000000 
#    y 0.000000 1.745070 0.000000 
#    z 0.000000 0.000000 1.628970 
# 
# From -- ./inp_files/28756.got.cif
#   From: 2010.05.17/outbox.cif.g08.bks.cpg/sg42_15_cif.got.tgz:28756.got - 2010.06.03 19:03:34.
