data_PCOD9368998
_publ_section_title
;
Structure prediction by ZEFSAII (Michael W. Deem and Ramdas Pophale) SiO2 
 PCOD9368998
Probable space group: F M M 2
;
_chemical_formula_sum "Si O2"
_cell_formula_units_Z 96
_cell_length_a 24.216668
_cell_length_b 8.622253
_cell_length_c 25.871791
_cell_angle_alpha 90.000000
_cell_angle_beta 90.000000
_cell_angle_gamma 90.000000
_cell_volume 5402.087870
_symmetry_space_group_name_H-M "F M M 2"
_symmetry_group_IT_number 42
_symmetry_cell_setting 'orthorhombic'
loop_
_space_group_symop_operation_xyz
x,y,z
-x,-y,z
-x,y,z
x,-y,z
x,1/2+y,1/2+z
-x,1/2-y,1/2+z
-x,1/2+y,1/2+z
x,1/2-y,1/2+z
1/2+x,y,1/2+z
1/2-x,-y,1/2+z
1/2-x,y,1/2+z
1/2+x,-y,1/2+z
1/2+x,1/2+y,z
1/2-x,1/2-y,z
1/2-x,1/2+y,z
1/2+x,1/2-y,z
loop_
_atom_site_type_symbol
_atom_site_label
_atom_site_fract_x
_atom_site_fract_y
_atom_site_fract_z
Si Si1 0.884012 0.186184 0.237980
Si Si2 0.689249 0.685190 0.646565
Si Si3 0.118983 0.812524 0.934117
Si Si4 0.688338 0.185680 0.838155
Si Si5 0.810466 0.186673 0.032242
Si Si6 0.500000 0.811293 0.395716
Si Si7 0.000000 0.686458 0.274918
O O1 0.855297 0.254457 0.187258
O O2 0.846632 0.230814 0.287497
O O3 0.945052 0.250065 0.248063
O O4 0.885318 0.000000 0.234657
O O5 0.691404 0.500000 0.646461
O O6 0.750000 0.750000 0.660853
O O7 0.677202 0.746214 0.588846
O O8 0.157469 0.749995 0.888442
O O9 0.056344 0.759825 0.923305
O O10 0.119618 0.000000 0.931779
O O11 0.144922 0.767681 0.989123
O O12 0.750000 0.250000 0.834969
O O13 0.690150 0.000000 0.840767
O O14 0.750000 0.250000 0.016894
O O15 0.807873 0.000000 0.035358
O O16 0.500000 0.764113 0.335451
O O17 0.500000 0.000000 0.396246
O O18 0.000000 0.500000 0.273628
#
# Coordination Sequence:
#
# PCOD9368998 Si02
#       7
#    16  16  16  16  16   8   8
#     4  11  23  39  58  84 117 151 193 239 286 343
#     4  11  22  38  61  86 115 151 193 239 293 349
#     4  10  20  36  58  83 113 150 192 234 282 341
#     4  11  23  35  53  81 114 147 183 232 287 342
#     4  10  20  35  57  83 114 150 190 236 289 345
#     4   9  18  35  58  83 112 151 192 232 277 333
#     4  11  21  37  62  85 114 155 196 238 285 341
#
# _framework density 17.770907000000001
#
# number of rings (size 3 to 8) (size 9 to 14) (size 15 to 20)
#    0.000    1.500    1.667    5.250    0.000    6.000 
#    0.000    1.250    0.000    2.000    0.000    0.000 
#    0.000    0.000    0.000    0.000    0.000    0.000 
#
# Total GULP energy -134124.123638 kJ/mol
# GULP energy per Si atom -5588.505152 kJ/mol
# Density = 1.773046 g / cm^3
# Si number density = 17.770907 Si / 1000 Ang^3
#
#
#
# Elastic Constant Matrix: (Units=GPa)
#
#
# Indices 1 2 3 4 5 6 
#
# 1 196.1913 51.2882 112.6944 0.0000 0.0000 0.0000
# 2 51.2882 63.6955 47.4684 0.0000 0.0000 0.0000
# 3 112.6944 47.4684 128.5811 0.0000 0.0000 0.0000
# 4 0.0000 0.0000 0.0000 22.1375 0.0000 0.0000
# 5 0.0000 0.0000 0.0000 0.0000 13.2192 0.0000
# 6 0.0000 0.0000 0.0000 0.0000 0.0000 19.4022
#
#
#
# Elastic Compliance Matrix: (Units=1/GPa)
#
#
# Indices 1 2 3 4 5 6 
#
# 1 0.010483 -0.002199 -0.008376 0.000000 0.000000 0.000000
# 2 -0.002199 0.022120 -0.006239 0.000000 0.000000 0.000000
# 3 -0.008376 -0.006239 0.017422 0.000000 0.000000 0.000000
# 4 0.000000 0.000000 0.000000 0.045172 0.000000 0.000000
# 5 0.000000 0.000000 0.000000 0.000000 0.075648 0.000000
# 6 0.000000 0.000000 0.000000 0.000000 0.000000 0.051541
#
#
# Mechanical properties :
#
#
# Convention : Reuss Voigt Hill
#
# Bulk Modulus (GPa) = 60.98734 90.15221 75.56977
# Shear Modulus (GPa) = 19.12204 22.75291 20.93747
#
# Velocity S-wave (km/s) = 3.28385 3.58207 3.43620
# Velocity P-wave (km/s) = 6.98365 8.24310 7.63937
#
# Compressibility (1/GPa) = 0.01639685
#
# Stress axis : x y z
#
# Youngs Moduli (GPa) = 95.38938 45.20877 57.39970
#
# Poissons Ratio (x) = 0.09941 0.48080
# Poissons Ratio (y) = 0.20976 0.35810
# Poissons Ratio (z) = 0.79901 0.28204
#
# Static dielectric constant tensor:
#      x y z
#    x 1.584660 0.000000 0.000000 
#    y 0.000000 1.597340 0.000000 
#    z 0.000000 0.000000 1.586500 
# 
# From -- ./inp_files/30438.got.cif
#   From: 2010.05.17/outbox.cif.g08.bks.cpg/sg42_16_cif.got.tgz:30438.got - 2010.06.03 19:03:34.
