data_PCOD9368429
_publ_section_title
;
Structure prediction by ZEFSAII (Michael W. Deem and Ramdas Pophale) SiO2 
 PCOD9368429
Probable space group: F M M 2
;
_chemical_formula_sum "Si O2"
_cell_formula_units_Z 100
_cell_length_a 18.154266
_cell_length_b 14.503846
_cell_length_c 16.054522
_cell_angle_alpha 90.000000
_cell_angle_beta 90.000000
_cell_angle_gamma 90.000000
_cell_volume 4227.262860
_symmetry_space_group_name_H-M "F M M 2"
_symmetry_group_IT_number 42
_symmetry_cell_setting 'orthorhombic'
loop_
_space_group_symop_operation_xyz
x,y,z
-x,-y,z
-x,y,z
x,-y,z
x,1/2+y,1/2+z
-x,1/2-y,1/2+z
-x,1/2+y,1/2+z
x,1/2-y,1/2+z
1/2+x,y,1/2+z
1/2-x,-y,1/2+z
1/2-x,y,1/2+z
1/2+x,-y,1/2+z
1/2+x,1/2+y,z
1/2-x,1/2-y,z
1/2-x,1/2+y,z
1/2+x,1/2-y,z
loop_
_atom_site_type_symbol
_atom_site_label
_atom_site_fract_x
_atom_site_fract_y
_atom_site_fract_z
Si Si1 0.391883 0.369351 0.880650
Si Si2 0.266731 0.361110 0.432084
Si Si3 0.238974 0.140508 0.118466
Si Si4 0.000000 0.000000 0.964975
Si Si5 0.613647 0.899693 0.190272
Si Si6 0.918515 0.158173 0.357593
Si Si7 0.918670 0.810483 0.158691
O O1 0.306459 0.394441 0.887453
O O2 0.436561 0.421812 0.949768
O O3 0.413261 0.393741 0.785700
O O4 0.409400 0.261897 0.891832
O O5 0.250000 0.250000 0.431534
O O6 0.266019 0.389840 0.528060
O O7 0.343554 0.387378 0.389881
O O8 0.250000 0.250000 0.126199
O O9 0.296899 0.101638 0.184711
O O10 0.151032 0.132637 0.124931
O O11 0.590133 0.801571 0.148669
O O12 0.589740 0.000000 0.156133
O O13 0.915919 0.169669 0.257826
O O14 0.000000 0.121566 0.379785
O O15 0.000000 0.838106 0.128516
#
# Coordination Sequence:
#
# PCOD9368429 Si02
#       7
#    16  16  16   4  16  16  16
#     4  10  19  31  49  74 104 136 167 205 256 308
#     4   9  18  33  51  73 103 137 170 209 256 304
#     4   9  18  35  50  73 105 135 174 203 248 312
#     4  12  20  32  48  72 110 132 168 208 256 304
#     4  10  19  31  51  73 104 135 163 208 254 307
#     4   9  16  30  54  80 101 123 170 221 256 293
#     4   9  18  31  54  79  99 130 169 215 258 296
#
# _framework density 23.655968999999999
#
# number of rings (size 3 to 8) (size 9 to 14) (size 15 to 20)
#    0.000    2.560    1.600    0.960    1.120    4.160 
#    2.880    8.000    0.000    0.480    0.000    0.560 
#    0.000    0.000    0.000    0.000    0.000    0.000 
#
# Total GULP energy -139190.658610 kJ/mol
# GULP energy per Si atom -5567.626344 kJ/mol
# Density = 2.360213 g / cm^3
# Si number density = 23.655969 Si / 1000 Ang^3
#
#
#
# Elastic Constant Matrix: (Units=GPa)
#
#
# Indices 1 2 3 4 5 6 
#
# 1 236.7139 8.7026 40.7233 0.0000 0.0000 0.0000
# 2 8.7026 50.1888 8.5009 0.0000 0.0000 0.0000
# 3 40.7233 8.5009 44.7790 0.0000 0.0000 0.0000
# 4 0.0000 0.0000 0.0000 -19.4490 0.0000 0.0000
# 5 0.0000 0.0000 0.0000 0.0000 23.6747 0.0000
# 6 0.0000 0.0000 0.0000 0.0000 0.0000 22.1792
#
#
#
# Elastic Compliance Matrix: (Units=1/GPa)
#
#
# Indices 1 2 3 4 5 6 
#
# 1 0.005009 -0.000100 -0.004536 0.000000 0.000000 0.000000
# 2 -0.000100 0.020589 -0.003817 0.000000 0.000000 0.000000
# 3 -0.004536 -0.003817 0.027182 0.000000 0.000000 0.000000
# 4 0.000000 0.000000 0.000000 -0.051416 0.000000 0.000000
# 5 0.000000 0.000000 0.000000 0.000000 0.042239 0.000000
# 6 0.000000 0.000000 0.000000 0.000000 0.000000 0.045087
#
#
# Mechanical properties :
#
#
# Convention : Reuss Voigt Hill
#
# Bulk Modulus (GPa) = 27.87702 49.72615 38.80158
# Shear Modulus (GPa) = 42.53388 23.53130 33.03259
#
# Velocity S-wave (km/s) = 4.24491 3.15736 3.74086
# Velocity P-wave (km/s) = 5.98628 5.86157 5.92426
#
# Compressibility (1/GPa) = 0.03587185
#
# Stress axis : x y z
#
# Youngs Moduli (GPa) = 199.65947 48.57022 36.78949
#
# Poissons Ratio (x) = 0.00487 0.16687
# Poissons Ratio (y) = 0.02000 0.14044
# Poissons Ratio (z) = 0.90563 0.18542
#
# Static dielectric constant tensor:
#      x y z
#    x 1.937780 0.000000 0.000000 
#    y 0.000000 1.972340 0.000000 
#    z 0.000000 0.000000 1.887360 
# 
# From -- ./inp_files/25912.got.cif
#   From: 2010.05.17/outbox.cif.g08.bks.cpg/sg42_13_cif.got.tgz:25912.got - 2010.06.03 19:03:34.
