data_PCOD9368722
_publ_section_title
;
Structure prediction by ZEFSAII (Michael W. Deem and Ramdas Pophale) SiO2 
 PCOD9368722
Probable space group: F M M 2
;
_chemical_formula_sum "Si O2"
_cell_formula_units_Z 116
_cell_length_a 24.175453
_cell_length_b 14.497626
_cell_length_c 17.186281
_cell_angle_alpha 90.000000
_cell_angle_beta 90.000000
_cell_angle_gamma 90.000000
_cell_volume 6023.562500
_symmetry_space_group_name_H-M "F M M 2"
_symmetry_group_IT_number 42
_symmetry_cell_setting 'orthorhombic'
loop_
_space_group_symop_operation_xyz
x,y,z
-x,-y,z
-x,y,z
x,-y,z
x,1/2+y,1/2+z
-x,1/2-y,1/2+z
-x,1/2+y,1/2+z
x,1/2-y,1/2+z
1/2+x,y,1/2+z
1/2-x,-y,1/2+z
1/2-x,y,1/2+z
1/2+x,-y,1/2+z
1/2+x,1/2+y,z
1/2-x,1/2-y,z
1/2-x,1/2+y,z
1/2+x,1/2-y,z
loop_
_atom_site_type_symbol
_atom_site_label
_atom_site_fract_x
_atom_site_fract_y
_atom_site_fract_z
Si Si1 0.909565 0.844722 0.404970
Si Si2 0.625607 0.106238 0.177548
Si Si3 0.500000 0.500000 0.443779
Si Si4 0.341138 0.228945 0.031575
Si Si5 0.741956 0.359471 0.758102
Si Si6 0.712067 0.100317 0.921732
Si Si7 0.842746 0.395269 0.644662
Si Si8 0.436911 0.719702 0.234029
O O1 0.890832 0.768542 0.468445
O O2 0.850600 0.894028 0.387786
O O3 0.931430 0.802357 0.325260
O O4 0.951852 0.918845 0.438650
O O5 0.640006 0.153532 0.095296
O O6 0.682472 0.111968 0.226326
O O7 0.581970 0.175782 0.216529
O O8 0.608091 0.000000 0.169795
O O9 0.330074 0.324622 0.074305
O O10 0.291216 0.180034 0.985458
O O11 0.750000 0.250000 0.753085
O O12 0.748849 0.385586 0.848211
O O13 0.790784 0.397232 0.703541
O O14 0.721626 0.000000 0.957400
O O15 0.854817 0.500000 0.620571
O O16 0.894397 0.347786 0.689253
O O17 0.500000 0.704505 0.209187
#
# Coordination Sequence:
#
# PCOD9368722 Si02
#       8
#    16  16   4  16  16  16  16  16
#     4  10  20  36  59  94 125 156 208 263 312 363
#     4  11  23  42  63  91 128 169 213 252 318 387
#     4  12  20  32  68 100 118 168 216 266 330 352
#     4   9  21  40  58  89 130 164 198 267 311 371
#     4  12  21  40  66  93 127 165 207 265 318 375
#     4  10  19  36  62  90 122 159 201 255 310 366
#     4  11  22  40  66  92 126 167 209 256 324 385
#     4  11  23  40  62  93 126 164 211 270 313 366
#
# _framework density 19.257705999999999
#
# number of rings (size 3 to 8) (size 9 to 14) (size 15 to 20)
#    0.828    0.552    5.517    1.655    1.931    0.552 
#    7.448    0.690    0.000    0.000    0.000    0.000 
#    0.000    0.000    0.000    0.000    0.000    0.000 
#
# Total GULP energy -161498.110999 kJ/mol
# GULP energy per Si atom -5568.900379 kJ/mol
# Density = 1.921387 g / cm^3
# Si number density = 19.257706 Si / 1000 Ang^3
#
#
#
# Elastic Constant Matrix: (Units=GPa)
#
#
# Indices 1 2 3 4 5 6 
#
# 1 67.8143 10.7151 23.5192 0.0000 0.0000 0.0000
# 2 10.7151 165.0792 42.9793 0.0000 0.0000 0.0000
# 3 23.5192 42.9793 84.6794 0.0000 0.0000 0.0000
# 4 0.0000 0.0000 0.0000 16.5770 0.0000 0.0000
# 5 0.0000 0.0000 0.0000 0.0000 0.9514 0.0000
# 6 0.0000 0.0000 0.0000 0.0000 0.0000 17.3582
#
#
#
# Elastic Compliance Matrix: (Units=1/GPa)
#
#
# Indices 1 2 3 4 5 6 
#
# 1 0.016321 0.000139 -0.004604 0.000000 0.000000 0.000000
# 2 0.000139 0.006981 -0.003582 0.000000 0.000000 0.000000
# 3 -0.004604 -0.003582 0.014906 0.000000 0.000000 0.000000
# 4 0.000000 0.000000 0.000000 0.060324 0.000000 0.000000
# 5 0.000000 0.000000 0.000000 0.000000 1.051129 0.000000
# 6 0.000000 0.000000 0.000000 0.000000 0.000000 0.057610
#
#
# Mechanical properties :
#
#
# Convention : Reuss Voigt Hill
#
# Bulk Modulus (GPa) = 45.21806 52.44447 48.83126
# Shear Modulus (GPa) = 4.06261 23.00127 13.53194
#
# Velocity S-wave (km/s) = 1.45402 3.45975 2.65368
# Velocity P-wave (km/s) = 5.13326 6.57662 5.89925
#
# Compressibility (1/GPa) = 0.02211506
#
# Stress axis : x y z
#
# Youngs Moduli (GPa) = 61.27155 143.24054 67.08720
#
# Poissons Ratio (x) = -0.01994 0.30885
# Poissons Ratio (y) = -0.00853 0.24031
# Poissons Ratio (z) = 0.28207 0.51309
#
# Static dielectric constant tensor:
#      x y z
#    x 1.677580 0.000000 0.000000 
#    y 0.000000 1.678550 0.000000 
#    z 0.000000 0.000000 1.689080 
# 
# From -- ./inp_files/22280.got.cif
#   From: 2010.05.17/outbox.cif.g08.bks.cpg/sg42_12_cif.got.tgz:22280.got - 2010.06.03 19:03:34.
