data_PCOD9368643
_publ_section_title
;
Structure prediction by ZEFSAII (Michael W. Deem and Ramdas Pophale) SiO2 
 PCOD9368643
Probable space group: F M M 2
;
_chemical_formula_sum "Si O2"
_cell_formula_units_Z 84
_cell_length_a 13.162579
_cell_length_b 27.871733
_cell_length_c 8.102483
_cell_angle_alpha 90.000000
_cell_angle_beta 90.000000
_cell_angle_gamma 90.000000
_cell_volume 2972.508412
_symmetry_space_group_name_H-M "F M M 2"
_symmetry_group_IT_number 42
_symmetry_cell_setting 'orthorhombic'
loop_
_space_group_symop_operation_xyz
x,y,z
-x,-y,z
-x,y,z
x,-y,z
x,1/2+y,1/2+z
-x,1/2-y,1/2+z
-x,1/2+y,1/2+z
x,1/2-y,1/2+z
1/2+x,y,1/2+z
1/2-x,-y,1/2+z
1/2-x,y,1/2+z
1/2+x,-y,1/2+z
1/2+x,1/2+y,z
1/2-x,1/2-y,z
1/2-x,1/2+y,z
1/2+x,1/2-y,z
loop_
_atom_site_type_symbol
_atom_site_label
_atom_site_fract_x
_atom_site_fract_y
_atom_site_fract_z
Si Si1 0.116002 0.085774 0.137910
Si Si2 0.622731 0.231978 0.792094
Si Si3 0.169306 0.050094 0.676474
Si Si4 0.112159 0.144110 0.481065
Si Si5 0.378403 0.822758 0.455108
Si Si6 0.500000 0.500000 0.860493
O O1 0.208821 0.051224 0.185896
O O2 0.106877 0.119146 0.300902
O O3 0.155557 0.123314 0.996173
O O4 0.000000 0.065133 0.118420
O O5 0.500000 0.231992 0.811587
O O6 0.661220 0.194876 0.933206
O O7 0.641656 0.209390 0.615706
O O8 0.652769 0.287552 0.807679
O O9 0.145008 0.101380 0.600354
O O10 0.093315 0.040422 0.830032
O O11 0.143240 0.000000 0.577789
O O12 0.000000 0.156231 0.542545
O O13 0.500000 0.829468 0.446068
#
# Coordination Sequence:
#
# PCOD9368643 Si02
#       6
#    16  16  16  16  16   4
#     4   9  19  33  57  83 114 146 186 233 285 346
#     4   8  14  25  50  76 110 147 192 237 281 334
#     4  10  19  35  56  78 108 138 185 241 288 336
#     4   9  16  33  56  81 102 145 198 234 272 337
#     4   8  14  28  47  80 114 153 190 233 282 337
#     4   8  20  36  54  84 104 138 184 250 284 336
#
# _framework density 28.258963000000001
#
# number of rings (size 3 to 8) (size 9 to 14) (size 15 to 20)
#    0.571    2.667    0.952    2.286    0.000    1.143 
#    0.000    4.762    2.095    6.857    0.000    0.000 
#    0.000    0.000    0.000    0.000    0.190    0.000 
#
# Total GULP energy -116942.468631 kJ/mol
# GULP energy per Si atom -5568.688982 kJ/mol
# Density = 2.819464 g / cm^3
# Si number density = 28.258963 Si / 1000 Ang^3
#
#
#
# Elastic Constant Matrix: (Units=GPa)
#
#
# Indices 1 2 3 4 5 6 
#
# 1 151.4865 52.9678 -0.4713 0.0000 0.0000 0.0000
# 2 52.9678 100.0245 -0.7777 0.0000 0.0000 0.0000
# 3 -0.4713 -0.7777 63.1794 0.0000 0.0000 0.0000
# 4 0.0000 0.0000 0.0000 -316.5583 0.0000 0.0000
# 5 0.0000 0.0000 0.0000 0.0000 18.0985 0.0000
# 6 0.0000 0.0000 0.0000 0.0000 0.0000 -33.1384
#
#
#
# Elastic Compliance Matrix: (Units=1/GPa)
#
#
# Indices 1 2 3 4 5 6 
#
# 1 0.008101 -0.004290 0.000008 0.000000 0.000000 0.000000
# 2 -0.004290 0.012270 0.000119 0.000000 0.000000 0.000000
# 3 0.000008 0.000119 0.015829 0.000000 0.000000 0.000000
# 4 0.000000 0.000000 0.000000 -0.003159 0.000000 0.000000
# 5 0.000000 0.000000 0.000000 0.000000 0.055253 0.000000
# 6 0.000000 0.000000 0.000000 0.000000 0.000000 -0.030176
#
#
# Mechanical properties :
#
#
# Convention : Reuss Voigt Hill
#
# Bulk Modulus (GPa) = 35.87528 46.45870 41.16699
# Shear Modulus (GPa) = 66.01821 -48.78820 8.61501
#
# Velocity S-wave (km/s) = 4.83866 -4.15959 1.74792
# Velocity P-wave (km/s) = 6.62869 2.56778 4.32123
#
# Compressibility (1/GPa) = 0.02787435
#
# Stress axis : x y z
#
# Youngs Moduli (GPa) = 123.43744 81.49816 63.17336
#
# Poissons Ratio (x) = 0.34962 -0.00048
# Poissons Ratio (y) = 0.52954 -0.00752
# Poissons Ratio (z) = -0.00094 -0.00970
#
# Static dielectric constant tensor:
#      x y z
#    x 2.282080 0.000000 0.000000 
#    y 0.000000 2.365400 0.000000 
#    z 0.000000 0.000000 2.275630 
# 
# From -- ./inp_files/8039.got.cif
#   From: 2010.05.17/outbox.cif.g08.bks.cpg/sg42_5_cif.got.tgz:8039.got - 2010.06.03 19:03:34.
