data_PCOD9368767
_publ_section_title
;
Structure prediction by ZEFSAII (Michael W. Deem and Ramdas Pophale) SiO2 
 PCOD9368767
Probable space group: F M M 2
;
_chemical_formula_sum "Si O2"
_cell_formula_units_Z 88
_cell_length_a 13.000370
_cell_length_b 18.150673
_cell_length_c 19.264973
_cell_angle_alpha 90.000000
_cell_angle_beta 90.000000
_cell_angle_gamma 90.000000
_cell_volume 4545.868307
_symmetry_space_group_name_H-M "F M M 2"
_symmetry_group_IT_number 42
_symmetry_cell_setting 'orthorhombic'
loop_
_space_group_symop_operation_xyz
x,y,z
-x,-y,z
-x,y,z
x,-y,z
x,1/2+y,1/2+z
-x,1/2-y,1/2+z
-x,1/2+y,1/2+z
x,1/2-y,1/2+z
1/2+x,y,1/2+z
1/2-x,-y,1/2+z
1/2-x,y,1/2+z
1/2+x,-y,1/2+z
1/2+x,1/2+y,z
1/2-x,1/2-y,z
1/2-x,1/2+y,z
1/2+x,1/2-y,z
loop_
_atom_site_type_symbol
_atom_site_label
_atom_site_fract_x
_atom_site_fract_y
_atom_site_fract_z
Si Si1 0.621266 0.087889 0.872450
Si Si2 0.500000 0.325476 0.991960
Si Si3 0.500000 0.821728 0.066222
Si Si4 0.311224 0.414478 0.614528
Si Si5 0.706280 0.667322 0.236645
Si Si6 0.000000 0.818814 0.149668
Si Si7 0.805770 0.085088 0.977420
O O1 0.500000 0.108117 0.882835
O O2 0.674489 0.130700 0.809057
O O3 0.621429 0.000000 0.857933
O O4 0.699092 0.099250 0.936765
O O5 0.500000 0.236926 0.002726
O O6 0.500000 0.353228 0.072565
O O7 0.603295 0.358421 0.958910
O O8 0.401508 0.871729 0.075515
O O9 0.500000 0.767569 0.132278
O O10 0.337040 0.500000 0.622955
O O11 0.284773 0.378455 0.688261
O O12 0.218229 0.408835 0.559374
O O13 0.750000 0.750000 0.244670
O O14 0.601309 0.665271 0.192489
O O15 0.836016 0.000000 0.962875
#
# Coordination Sequence:
#
# PCOD9368767 Si02
#       7
#    16   8   8  16  16   8  16
#     4  10  23  43  64  90 128 170 214 262 318 382
#     4  10  19  39  64  93 122 162 203 262 325 361
#     4  10  21  37  58  92 130 164 200 255 318 374
#     4  11  22  37  62  92 125 167 208 255 315 380
#     4  12  21  41  63  92 127 160 210 266 317 372
#     4  10  20  36  62  89 122 154 197 263 319 359
#     4  10  22  39  61  92 125 163 208 260 316 377
#
# _framework density 19.358236999999999
#
# number of rings (size 3 to 8) (size 9 to 14) (size 15 to 20)
#    0.545    0.909    4.545    1.091    1.273    0.000 
#    3.273    1.818    0.000    2.182    0.000    0.000 
#    0.000    0.000    0.000    0.000    0.000    0.000 
#
# Total GULP energy -122628.688892 kJ/mol
# GULP energy per Si atom -5574.031313 kJ/mol
# Density = 1.931418 g / cm^3
# Si number density = 19.358237 Si / 1000 Ang^3
#
#
#
# Elastic Constant Matrix: (Units=GPa)
#
#
# Indices 1 2 3 4 5 6 
#
# 1 121.3565 72.6521 27.9308 0.0000 0.0000 0.0000
# 2 72.6521 117.7675 46.0457 0.0000 0.0000 0.0000
# 3 27.9308 46.0457 85.2079 0.0000 0.0000 0.0000
# 4 0.0000 0.0000 0.0000 30.5650 0.0000 0.0000
# 5 0.0000 0.0000 0.0000 0.0000 37.2023 0.0000
# 6 0.0000 0.0000 0.0000 0.0000 0.0000 31.3578
#
#
#
# Elastic Compliance Matrix: (Units=1/GPa)
#
#
# Indices 1 2 3 4 5 6 
#
# 1 0.013066 -0.008097 0.000092 0.000000 0.000000 0.000000
# 2 -0.008097 0.015783 -0.005875 0.000000 0.000000 0.000000
# 3 0.000092 -0.005875 0.014881 0.000000 0.000000 0.000000
# 4 0.000000 0.000000 0.000000 0.032717 0.000000 0.000000
# 5 0.000000 0.000000 0.000000 0.000000 0.026880 0.000000
# 6 0.000000 0.000000 0.000000 0.000000 0.000000 0.031890
#
#
# Mechanical properties :
#
#
# Convention : Reuss Voigt Hill
#
# Bulk Modulus (GPa) = 62.61298 68.62101 65.61700
# Shear Modulus (GPa) = 29.70881 31.67192 30.69037
#
# Velocity S-wave (km/s) = 3.92176 4.04926 3.98602
# Velocity P-wave (km/s) = 7.27472 7.57541 7.42659
#
# Compressibility (1/GPa) = 0.01597113
#
# Stress axis : x y z
#
# Youngs Moduli (GPa) = 76.53329 63.35753 67.20164
#
# Poissons Ratio (x) = 0.51299 -0.00621
# Poissons Ratio (y) = 0.61968 0.39482
# Poissons Ratio (z) = -0.00707 0.37224
#
# Static dielectric constant tensor:
#      x y z
#    x 1.683300 0.000000 0.000000 
#    y 0.000000 1.670430 0.000000 
#    z 0.000000 0.000000 1.663860 
# 
# From -- ./inp_files/24346.got.cif
#   From: 2010.05.17/outbox.cif.g08.bks.cpg/sg42_13_cif.got.tgz:24346.got - 2010.06.03 19:03:34.
