data_PCOD9368261
_publ_section_title
;
Structure prediction by ZEFSAII (Michael W. Deem and Ramdas Pophale) SiO2 
 PCOD9368261
Probable space group: F M M 2
;
_chemical_formula_sum "Si O2"
_cell_formula_units_Z 100
_cell_length_a 14.484000
_cell_length_b 17.090800
_cell_length_c 17.933112
_cell_angle_alpha 90.000000
_cell_angle_beta 90.000000
_cell_angle_gamma 90.000000
_cell_volume 4439.218984
_symmetry_space_group_name_H-M "F M M 2"
_symmetry_group_IT_number 42
_symmetry_cell_setting 'orthorhombic'
loop_
_space_group_symop_operation_xyz
x,y,z
-x,-y,z
-x,y,z
x,-y,z
x,1/2+y,1/2+z
-x,1/2-y,1/2+z
-x,1/2+y,1/2+z
x,1/2-y,1/2+z
1/2+x,y,1/2+z
1/2-x,-y,1/2+z
1/2-x,y,1/2+z
1/2+x,-y,1/2+z
1/2+x,1/2+y,z
1/2-x,1/2-y,z
1/2-x,1/2+y,z
1/2+x,1/2-y,z
loop_
_atom_site_type_symbol
_atom_site_label
_atom_site_fract_x
_atom_site_fract_y
_atom_site_fract_z
Si Si1 0.365144 0.385159 0.438850
Si Si2 0.861164 0.912146 0.775330
Si Si3 0.645163 0.413686 0.948408
Si Si4 0.136891 0.412914 0.768343
Si Si5 0.500000 0.000000 0.010670
Si Si6 0.361149 0.760614 0.525761
Si Si7 0.862825 0.252300 0.193887
O O1 0.256613 0.403406 0.445387
O O2 0.392555 0.407619 0.355104
O O3 0.419986 0.433285 0.500065
O O4 0.386170 0.295910 0.457867
O O5 0.885378 0.905645 0.862686
O O6 0.749175 0.912500 0.769026
O O7 0.891784 0.832459 0.735105
O O8 0.890914 0.000000 0.749044
O O9 0.622146 0.500000 0.974649
O O10 0.611566 0.347073 0.002817
O O11 0.109507 0.500000 0.739858
O O12 0.108280 0.332224 0.727813
O O13 0.250000 0.750000 0.529734
O O14 0.393105 0.741021 0.608288
O O15 0.750000 0.250000 0.197089
#
# Coordination Sequence:
#
# PCOD9368261 Si02
#       7
#    16  16  16  16   4  16  16
#     4  10  18  31  45  70  94 124 164 200 239 270
#     4   8  14  24  39  59  85 124 155 180 225 277
#     4   9  15  28  47  69  99 125 154 193 238 289
#     4   9  15  26  42  61  88 115 151 193 233 274
#     4  12  20  32  52  68  94 120 168 212 224 272
#     4   9  18  28  42  67 101 130 153 189 238 291
#     4   9  16  26  39  63  95 126 151 181 232 294
#
# _framework density 22.526485000000001
#
# number of rings (size 3 to 8) (size 9 to 14) (size 15 to 20)
#    0.000    2.880    1.600    1.920    0.000    4.480 
#    1.440    3.200    0.000    0.960    0.000    0.560 
#    0.000    0.000    0.000    0.000    0.000    0.000 
#
# Total GULP energy -139189.059051 kJ/mol
# GULP energy per Si atom -5567.562362 kJ/mol
# Density = 2.247521 g / cm^3
# Si number density = 22.526485 Si / 1000 Ang^3
#
#
#
# Elastic Constant Matrix: (Units=GPa)
#
#
# Indices 1 2 3 4 5 6 
#
# 1 91.0903 2.2685 -0.9149 0.0000 0.0000 0.0000
# 2 2.2685 237.7011 80.6887 0.0000 0.0000 0.0000
# 3 -0.9149 80.6887 60.1248 0.0000 0.0000 0.0000
# 4 0.0000 0.0000 0.0000 13.6917 0.0000 0.0000
# 5 0.0000 0.0000 0.0000 0.0000 -46.1283 0.0000
# 6 0.0000 0.0000 0.0000 0.0000 0.0000 -8.2327
#
#
#
# Elastic Compliance Matrix: (Units=1/GPa)
#
#
# Indices 1 2 3 4 5 6 
#
# 1 0.010991 -0.000297 0.000566 0.000000 0.000000 0.000000
# 2 -0.000297 0.007735 -0.010385 0.000000 0.000000 0.000000
# 3 0.000566 -0.010385 0.030578 0.000000 0.000000 0.000000
# 4 0.000000 0.000000 0.000000 0.073037 0.000000 0.000000
# 5 0.000000 0.000000 0.000000 0.000000 -0.021679 0.000000
# 6 0.000000 0.000000 0.000000 0.000000 0.000000 -0.121467
#
#
# Mechanical properties :
#
#
# Convention : Reuss Voigt Hill
#
# Bulk Modulus (GPa) = 34.39812 61.44454 47.92133
# Shear Modulus (GPa) = 548.30091 12.32439 280.31265
#
# Velocity S-wave (km/s) = 15.61830 2.34157 11.16723
# Velocity P-wave (km/s) = 18.45386 5.88612 13.69655
#
# Compressibility (1/GPa) = 0.02907136
#
# Stress axis : x y z
#
# Youngs Moduli (GPa) = 90.98190 129.28099 32.70349
#
# Poissons Ratio (x) = 0.03839 -0.01850
# Poissons Ratio (y) = 0.02702 0.33963
# Poissons Ratio (z) = -0.05147 1.34260
#
# Static dielectric constant tensor:
#      x y z
#    x 1.844820 0.000000 0.000000 
#    y 0.000000 1.933600 0.000000 
#    z 0.000000 0.000000 1.778120 
# 
# From -- ./inp_files/25929.got.cif
#   From: 2010.05.17/outbox.cif.g08.bks.cpg/sg42_13_cif.got.tgz:25929.got - 2010.06.03 19:03:34.
