data_PCOD9368913
_publ_section_title
;
Structure prediction by ZEFSAII (Michael W. Deem and Ramdas Pophale) SiO2 
 PCOD9368913
Probable space group: F M M 2
;
_chemical_formula_sum "Si O2"
_cell_formula_units_Z 64
_cell_length_a 18.119033
_cell_length_b 17.834248
_cell_length_c 9.391961
_cell_angle_alpha 90.000000
_cell_angle_beta 90.000000
_cell_angle_gamma 90.000000
_cell_volume 3034.911967
_symmetry_space_group_name_H-M "F M M 2"
_symmetry_group_IT_number 42
_symmetry_cell_setting 'orthorhombic'
loop_
_space_group_symop_operation_xyz
x,y,z
-x,-y,z
-x,y,z
x,-y,z
x,1/2+y,1/2+z
-x,1/2-y,1/2+z
-x,1/2+y,1/2+z
x,1/2-y,1/2+z
1/2+x,y,1/2+z
1/2-x,-y,1/2+z
1/2-x,y,1/2+z
1/2+x,-y,1/2+z
1/2+x,1/2+y,z
1/2-x,1/2-y,z
1/2-x,1/2+y,z
1/2+x,1/2-y,z
loop_
_atom_site_type_symbol
_atom_site_label
_atom_site_fract_x
_atom_site_fract_y
_atom_site_fract_z
Si Si1 0.911725 0.918343 0.359000
Si Si2 0.329533 0.633040 0.088432
Si Si3 0.205275 0.675141 0.308099
Si Si4 0.411446 0.710770 0.584942
O O1 0.878542 0.911739 0.200850
O O2 0.890907 0.849872 0.463085
O O3 0.000000 0.914767 0.347190
O O4 0.891360 0.000000 0.419768
O O5 0.256810 0.650052 0.178597
O O6 0.375862 0.708624 0.054361
O O7 0.303210 0.612853 0.930457
O O8 0.250000 0.750000 0.361328
O O9 0.126530 0.690498 0.235020
O O10 0.500000 0.714475 0.594909
#
# Coordination Sequence:
#
# PCOD9368913 Si02
#       4
#    16  16  16  16
#     4  10  22  40  60  86 122 155 185 235 298 347
#     4  11  20  35  58  83 113 153 197 237 282 341
#     4  10  20  34  55  85 117 146 188 247 291 325
#     4  10  20  35  58  86 114 150 195 236 282 346
#
# _framework density 21.087924999999998
#
# number of rings (size 3 to 8) (size 9 to 14) (size 15 to 20)
#    0.000    1.750    0.000    7.500    0.000    4.000 
#    0.000    6.250    0.000    3.000    0.000    0.000 
#    0.000    0.000    0.000    0.000    0.000    0.000 
#
# Total GULP energy -89233.256012 kJ/mol
# GULP energy per Si atom -5577.078501 kJ/mol
# Density = 2.103993 g / cm^3
# Si number density = 21.087925 Si / 1000 Ang^3
#
#
#
# Elastic Constant Matrix: (Units=GPa)
#
#
# Indices 1 2 3 4 5 6 
#
# 1 92.6135 24.7895 37.0515 0.0000 0.0000 0.0000
# 2 24.7895 64.9211 27.0983 0.0000 0.0000 0.0000
# 3 37.0515 27.0983 119.3282 0.0000 0.0000 0.0000
# 4 0.0000 0.0000 0.0000 20.5311 0.0000 0.0000
# 5 0.0000 0.0000 0.0000 0.0000 40.7468 0.0000
# 6 0.0000 0.0000 0.0000 0.0000 0.0000 3.9307
#
#
#
# Elastic Compliance Matrix: (Units=1/GPa)
#
#
# Indices 1 2 3 4 5 6 
#
# 1 0.013064 -0.003640 -0.003230 0.000000 0.000000 0.000000
# 2 -0.003640 0.018031 -0.002964 0.000000 0.000000 0.000000
# 3 -0.003230 -0.002964 0.010056 0.000000 0.000000 0.000000
# 4 0.000000 0.000000 0.000000 0.048707 0.000000 0.000000
# 5 0.000000 0.000000 0.000000 0.000000 0.024542 0.000000
# 6 0.000000 0.000000 0.000000 0.000000 0.000000 0.254408
#
#
# Mechanical properties :
#
#
# Convention : Reuss Voigt Hill
#
# Bulk Modulus (GPa) = 46.54986 50.52683 48.53835
# Shear Modulus (GPa) = 12.63786 25.56994 19.10390
#
# Velocity S-wave (km/s) = 2.45070 3.48593 3.01311
# Velocity P-wave (km/s) = 5.48908 6.34148 5.93062
#
# Compressibility (1/GPa) = 0.02148234
#
# Stress axis : x y z
#
# Youngs Moduli (GPa) = 76.54595 55.46117 99.44078
#
# Poissons Ratio (x) = 0.20189 0.32117
# Poissons Ratio (y) = 0.27865 0.29477
# Poissons Ratio (z) = 0.24722 0.16440
#
# Static dielectric constant tensor:
#      x y z
#    x 1.769000 0.000000 0.000000 
#    y 0.000000 1.793780 0.000000 
#    z 0.000000 0.000000 1.865610 
# 
# From -- ./inp_files/3222.got.cif
#   From: 2010.05.17/outbox.cif.g08.bks.cpg/sg42_2_cif.got.tgz:3222.got - 2010.06.03 19:03:34.
