data_PCOD9368641
_publ_section_title
;
Structure prediction by ZEFSAII (Michael W. Deem and Ramdas Pophale) SiO2 
 PCOD9368641
Probable space group: F M M 2
;
_chemical_formula_sum "Si O2"
_cell_formula_units_Z 116
_cell_length_a 7.790426
_cell_length_b 31.238364
_cell_length_c 25.915224
_cell_angle_alpha 90.000000
_cell_angle_beta 90.000000
_cell_angle_gamma 90.000000
_cell_volume 6306.733139
_symmetry_space_group_name_H-M "F M M 2"
_symmetry_group_IT_number 42
_symmetry_cell_setting 'orthorhombic'
loop_
_space_group_symop_operation_xyz
x,y,z
-x,-y,z
-x,y,z
x,-y,z
x,1/2+y,1/2+z
-x,1/2-y,1/2+z
-x,1/2+y,1/2+z
x,1/2-y,1/2+z
1/2+x,y,1/2+z
1/2-x,-y,1/2+z
1/2-x,y,1/2+z
1/2+x,-y,1/2+z
1/2+x,1/2+y,z
1/2-x,1/2-y,z
1/2-x,1/2+y,z
1/2+x,1/2-y,z
loop_
_atom_site_type_symbol
_atom_site_label
_atom_site_fract_x
_atom_site_fract_y
_atom_site_fract_z
Si Si1 0.790833 0.842580 0.929120
Si Si2 0.702211 0.562832 0.462600
Si Si3 0.500000 0.000000 0.428332
Si Si4 0.701790 0.138429 0.618042
Si Si5 0.706374 0.201085 0.326053
Si Si6 0.706116 0.702010 0.031114
Si Si7 0.704584 0.701052 0.709711
Si Si8 0.295599 0.047180 0.082497
O O1 0.719893 0.887930 0.947086
O O2 0.731819 0.828848 0.872288
O O3 0.000000 0.844609 0.928936
O O4 0.737619 0.808491 0.972943
O O5 0.500000 0.550216 0.457007
O O6 0.845484 0.536649 0.431493
O O7 0.753406 0.556176 0.522896
O O8 0.500000 0.137346 0.610004
O O9 0.777136 0.166319 0.570536
O O10 0.736162 0.165480 0.669442
O O11 0.755288 0.088951 0.616117
O O12 0.500000 0.197167 0.324214
O O13 0.750000 0.250000 0.339091
O O14 0.772431 0.193269 0.267920
O O15 0.500000 0.699029 0.031611
O O16 0.750000 0.750000 0.047227
O O17 0.500000 0.699004 0.711338
O O18 0.750000 0.750000 0.694636
O O19 0.500000 0.044089 0.082666
O O20 0.225984 0.000000 0.097530
#
# Coordination Sequence:
#
# PCOD9368641 Si02
#       8
#    16  16   4  16  16  16  16  16
#     4  10  19  35  53  78 113 149 185 232 286 339
#     4  11  22  35  56  85 113 152 194 230 288 346
#     4  12  22  36  60  78 120 156 182 252 280 330
#     4  11  22  34  53  79 108 146 186 224 282 340
#     4   9  19  34  56  80 108 147 191 234 283 331
#     4  10  21  32  47  72 108 148 183 217 272 339
#     4  10  20  36  55  79 109 145 190 238 281 332
#     4  10  21  36  54  81 111 142 184 232 277 336
#
# _framework density 18.393039999999999
#
# number of rings (size 3 to 8) (size 9 to 14) (size 15 to 20)
#    0.000    1.793    2.759    1.862    0.966    4.138 
#    0.000    0.000    0.000    0.000    1.793    0.000 
#    0.000    0.000    0.000    0.000    0.000    0.000 
#
# Total GULP energy -161500.119841 kJ/mol
# GULP energy per Si atom -5568.969650 kJ/mol
# Density = 1.835118 g / cm^3
# Si number density = 18.393040 Si / 1000 Ang^3
#
#
#
# Elastic Constant Matrix: (Units=GPa)
#
#
# Indices 1 2 3 4 5 6 
#
# 1 43.8662 8.6229 4.7460 0.0000 0.0000 0.0000
# 2 8.6229 156.9063 66.3069 0.0000 0.0000 0.0000
# 3 4.7460 66.3069 77.0459 0.0000 0.0000 0.0000
# 4 0.0000 0.0000 0.0000 37.2042 0.0000 0.0000
# 5 0.0000 0.0000 0.0000 0.0000 11.6571 0.0000
# 6 0.0000 0.0000 0.0000 0.0000 0.0000 28.9772
#
#
#
# Elastic Compliance Matrix: (Units=1/GPa)
#
#
# Indices 1 2 3 4 5 6 
#
# 1 0.023059 -0.001048 -0.000518 0.000000 0.000000 0.000000
# 2 -0.001048 0.010064 -0.008596 0.000000 0.000000 0.000000
# 3 -0.000518 -0.008596 0.020409 0.000000 0.000000 0.000000
# 4 0.000000 0.000000 0.000000 0.026879 0.000000 0.000000
# 5 0.000000 0.000000 0.000000 0.000000 0.085785 0.000000
# 6 0.000000 0.000000 0.000000 0.000000 0.000000 0.034510
#
#
# Mechanical properties :
#
#
# Convention : Reuss Voigt Hill
#
# Bulk Modulus (GPa) = 30.11504 48.57444 39.34474
# Shear Modulus (GPa) = 21.54252 28.77720 25.15986
#
# Velocity S-wave (km/s) = 3.42604 3.95976 3.70253
# Velocity P-wave (km/s) = 5.66206 6.88278 6.30205
#
# Compressibility (1/GPa) = 0.03320600
#
# Stress axis : x y z
#
# Youngs Moduli (GPa) = 43.36757 99.36872 48.99726
#
# Poissons Ratio (x) = 0.10415 0.02540
# Poissons Ratio (y) = 0.04546 0.42119
# Poissons Ratio (z) = 0.02248 0.85420
#
# Static dielectric constant tensor:
#      x y z
#    x 1.686730 0.000000 0.000000 
#    y 0.000000 1.616940 0.000000 
#    z 0.000000 0.000000 1.654030 
# 
# From -- ./inp_files/31949.got.cif
#   From: 2010.05.17/outbox.cif.g08.bks.cpg/sg42_16_cif.got.tgz:31949.got - 2010.06.03 19:03:34.
