data_PCOD9368278
_publ_section_title
;
Structure prediction by ZEFSAII (Michael W. Deem and Ramdas Pophale) SiO2 
 PCOD9368278
Probable space group: F M M 2
;
_chemical_formula_sum "Si O2"
_cell_formula_units_Z 112
_cell_length_a 15.498264
_cell_length_b 23.819344
_cell_length_c 13.695174
_cell_angle_alpha 90.000000
_cell_angle_beta 90.000000
_cell_angle_gamma 90.000000
_cell_volume 5055.689639
_symmetry_space_group_name_H-M "F M M 2"
_symmetry_group_IT_number 42
_symmetry_cell_setting 'orthorhombic'
loop_
_space_group_symop_operation_xyz
x,y,z
-x,-y,z
-x,y,z
x,-y,z
x,1/2+y,1/2+z
-x,1/2-y,1/2+z
-x,1/2+y,1/2+z
x,1/2-y,1/2+z
1/2+x,y,1/2+z
1/2-x,-y,1/2+z
1/2-x,y,1/2+z
1/2+x,-y,1/2+z
1/2+x,1/2+y,z
1/2-x,1/2-y,z
1/2-x,1/2+y,z
1/2+x,1/2-y,z
loop_
_atom_site_type_symbol
_atom_site_label
_atom_site_fract_x
_atom_site_fract_y
_atom_site_fract_z
Si Si1 0.716169 0.562996 0.226470
Si Si2 0.096830 0.386016 0.992985
Si Si3 0.274222 0.061768 0.489087
Si Si4 0.593988 0.932838 0.209706
Si Si5 0.347424 0.732412 0.404922
Si Si6 0.904309 0.158701 0.996606
Si Si7 0.602586 0.330471 0.221655
O O1 0.693173 0.500000 0.257566
O O2 0.723430 0.561277 0.107868
O O3 0.813777 0.577775 0.260006
O O4 0.647195 0.610618 0.249042
O O5 0.176459 0.424442 0.958303
O O6 0.094140 0.397325 0.109522
O O7 0.000000 0.398814 0.956288
O O8 0.121096 0.322241 0.964908
O O9 0.336893 0.112390 0.463439
O O10 0.301671 0.000000 0.455858
O O11 0.500000 0.922538 0.258522
O O12 0.596156 0.000000 0.185624
O O13 0.250000 0.750000 0.429249
O O14 0.402396 0.786871 0.429896
O O15 0.356750 0.715622 0.292097
O O16 0.881564 0.178356 0.106859
O O17 0.000000 0.133729 0.001954
O O18 0.500000 0.331899 0.237705
#
# Coordination Sequence:
#
# PCOD9368278 Si02
#       7
#    16  16  16  16  16  16  16
#     4   8  15  30  54  85 123 161 198 246 303 366
#     4  10  18  31  54  83 118 159 197 245 306 361
#     4   9  17  32  56  91 125 157 201 247 301 371
#     4   8  14  27  52  88 125 160 204 254 303 364
#     4  12  24  41  61  84 124 167 206 264 315 363
#     4  10  21  40  65  91 123 165 210 259 312 368
#     4  10  22  39  60  90 125 161 207 257 310 375
#
# _framework density 22.153258000000001
#
# number of rings (size 3 to 8) (size 9 to 14) (size 15 to 20)
#    0.000    2.429    1.429    2.571    0.000    2.000 
#    0.000    4.286    0.000    5.143    0.000    0.000 
#    0.000    0.000    0.000    0.286    0.000    0.286 
#
# Total GULP energy -156394.592174 kJ/mol
# GULP energy per Si atom -5585.521149 kJ/mol
# Density = 2.210284 g / cm^3
# Si number density = 22.153258 Si / 1000 Ang^3
#
#
#
# Elastic Constant Matrix: (Units=GPa)
#
#
# Indices 1 2 3 4 5 6 
#
# 1 95.0140 39.7090 -5.3441 0.0000 0.0000 0.0000
# 2 39.7090 109.2618 32.9811 0.0000 0.0000 0.0000
# 3 -5.3441 32.9811 83.2925 0.0000 0.0000 0.0000
# 4 0.0000 0.0000 0.0000 28.5826 0.0000 0.0000
# 5 0.0000 0.0000 0.0000 0.0000 8.6824 0.0000
# 6 0.0000 0.0000 0.0000 0.0000 0.0000 20.9405
#
#
#
# Elastic Compliance Matrix: (Units=1/GPa)
#
#
# Indices 1 2 3 4 5 6 
#
# 1 0.013074 -0.005684 0.003090 0.000000 0.000000 0.000000
# 2 -0.005684 0.012866 -0.005459 0.000000 0.000000 0.000000
# 3 0.003090 -0.005459 0.014366 0.000000 0.000000 0.000000
# 4 0.000000 0.000000 0.000000 0.034986 0.000000 0.000000
# 5 0.000000 0.000000 0.000000 0.000000 0.115176 0.000000
# 6 0.000000 0.000000 0.000000 0.000000 0.000000 0.047754
#
#
# Mechanical properties :
#
#
# Convention : Reuss Voigt Hill
#
# Bulk Modulus (GPa) = 41.32514 46.91782 44.12148
# Shear Modulus (GPa) = 19.05515 26.32256 22.68886
#
# Velocity S-wave (km/s) = 2.93602 3.45077 3.20375
# Velocity P-wave (km/s) = 5.49439 6.09113 5.80044
#
# Compressibility (1/GPa) = 0.02419834
#
# Stress axis : x y z
#
# Youngs Moduli (GPa) = 76.48717 77.72433 69.60987
#
# Poissons Ratio (x) = 0.44179 -0.21506
# Poissons Ratio (y) = 0.43476 0.38001
# Poissons Ratio (z) = -0.23631 0.42431
#
# Static dielectric constant tensor:
#      x y z
#    x 1.827140 0.000000 0.000000 
#    y 0.000000 1.741470 0.000000 
#    z 0.000000 0.000000 1.867760 
# 
# From -- ./inp_files/14268.got.cif
#   From: 2010.05.17/outbox.cif.g08.bks.cpg/sg42_8_cif.got.tgz:14268.got - 2010.06.03 19:03:34.
