data_PCOD9368286
_publ_section_title
;
Structure prediction by ZEFSAII (Michael W. Deem and Ramdas Pophale) SiO2 
 PCOD9368286
Probable space group: F M M 2
;
_chemical_formula_sum "Si O2"
_cell_formula_units_Z 116
_cell_length_a 8.715817
_cell_length_b 30.782442
_cell_length_c 25.771851
_cell_angle_alpha 90.000000
_cell_angle_beta 90.000000
_cell_angle_gamma 90.000000
_cell_volume 6914.436376
_symmetry_space_group_name_H-M "F M M 2"
_symmetry_group_IT_number 42
_symmetry_cell_setting 'orthorhombic'
loop_
_space_group_symop_operation_xyz
x,y,z
-x,-y,z
-x,y,z
x,-y,z
x,1/2+y,1/2+z
-x,1/2-y,1/2+z
-x,1/2+y,1/2+z
x,1/2-y,1/2+z
1/2+x,y,1/2+z
1/2-x,-y,1/2+z
1/2-x,y,1/2+z
1/2+x,-y,1/2+z
1/2+x,1/2+y,z
1/2-x,1/2-y,z
1/2-x,1/2+y,z
1/2+x,1/2-y,z
loop_
_atom_site_type_symbol
_atom_site_label
_atom_site_fract_x
_atom_site_fract_y
_atom_site_fract_z
Si Si1 0.684458 0.701717 0.791080
Si Si2 0.682132 0.796458 0.466859
Si Si3 0.669679 0.922952 0.526638
Si Si4 0.315919 0.358753 0.380199
Si Si5 0.317803 0.162690 0.066351
Si Si6 0.815269 0.048593 0.418513
Si Si7 0.500000 0.000000 0.573175
Si Si8 0.815581 0.202283 0.673309
O O1 0.500000 0.703460 0.794616
O O2 0.750000 0.750000 0.801810
O O3 0.748128 0.666993 0.831537
O O4 0.730533 0.689854 0.731864
O O5 0.500000 0.795728 0.461476
O O6 0.750000 0.750000 0.450291
O O7 0.752901 0.834380 0.431269
O O8 0.732279 0.806100 0.525788
O O9 0.500000 0.903527 0.513858
O O10 0.775654 0.885870 0.549545
O O11 0.738451 0.943018 0.474269
O O12 0.631203 0.961642 0.566148
O O13 0.500000 0.355435 0.379825
O O14 0.273510 0.409773 0.383467
O O15 0.500000 0.169972 0.061469
O O16 0.269479 0.171973 0.125480
O O17 0.000000 0.049611 0.424480
O O18 0.772515 0.000000 0.400121
O O19 0.750000 0.250000 0.663219
O O20 0.000000 0.204575 0.673425
#
# Coordination Sequence:
#
# PCOD9368286 Si02
#       8
#    16  16  16  16  16  16   4  16
#     4  10  20  37  57  78 104 139 179 224 267 316
#     4  12  24  36  50  73 109 149 179 214 260 320
#     4  10  18  32  49  74 105 139 172 216 262 313
#     4  11  22  35  53  79 108 140 178 221 265 322
#     4  11  21  34  52  79 109 142 179 219 265 324
#     4  10  19  33  53  77 104 138 175 219 268 318
#     4   8  20  32  50  76 108 140 174 232 256 324
#     4   9  20  36  55  77 105 137 179 223 265 312
#
# _framework density 16.776494
#
# number of rings (size 3 to 8) (size 9 to 14) (size 15 to 20)
#    0.414    1.241    2.069    3.724    0.000    3.310 
#    0.000    0.000    0.000    0.000    1.793    0.000 
#    0.000    0.000    0.000    0.000    0.000    0.000 
#
# Total GULP energy -161469.395163 kJ/mol
# GULP energy per Si atom -5567.910178 kJ/mol
# Density = 1.673831 g / cm^3
# Si number density = 16.776494 Si / 1000 Ang^3
#
#
#
# Elastic Constant Matrix: (Units=GPa)
#
#
# Indices 1 2 3 4 5 6 
#
# 1 51.7497 33.8032 26.7683 0.0000 0.0000 0.0000
# 2 33.8032 115.8051 52.8626 0.0000 0.0000 0.0000
# 3 26.7683 52.8626 85.8577 0.0000 0.0000 0.0000
# 4 0.0000 0.0000 0.0000 16.7802 0.0000 0.0000
# 5 0.0000 0.0000 0.0000 0.0000 9.3450 0.0000
# 6 0.0000 0.0000 0.0000 0.0000 0.0000 20.2470
#
#
#
# Elastic Compliance Matrix: (Units=1/GPa)
#
#
# Indices 1 2 3 4 5 6 
#
# 1 0.025126 -0.005227 -0.004615 0.000000 0.000000 0.000000
# 2 -0.005227 0.013098 -0.006435 0.000000 0.000000 0.000000
# 3 -0.004615 -0.006435 0.017048 0.000000 0.000000 0.000000
# 4 0.000000 0.000000 0.000000 0.059594 0.000000 0.000000
# 5 0.000000 0.000000 0.000000 0.000000 0.107009 0.000000
# 6 0.000000 0.000000 0.000000 0.000000 0.000000 0.049390
#
#
# Mechanical properties :
#
#
# Convention : Reuss Voigt Hill
#
# Bulk Modulus (GPa) = 44.01930 53.36451 48.69191
# Shear Modulus (GPa) = 16.05691 18.60634 17.33162
#
# Velocity S-wave (km/s) = 3.09707 3.33389 3.21766
# Velocity P-wave (km/s) = 6.25178 6.83358 6.54915
#
# Compressibility (1/GPa) = 0.02271731
#
# Stress axis : x y z
#
# Youngs Moduli (GPa) = 39.80010 76.34463 58.65780
#
# Poissons Ratio (x) = 0.39909 0.27071
# Poissons Ratio (y) = 0.20805 0.37746
# Poissons Ratio (z) = 0.18368 0.49128
#
# Static dielectric constant tensor:
#      x y z
#    x 1.573340 0.000000 0.000000 
#    y 0.000000 1.566530 0.000000 
#    z 0.000000 0.000000 1.568890 
# 
# From -- ./inp_files/28496.got.cif
#   From: 2010.05.17/outbox.cif.g08.bks.cpg/sg42_15_cif.got.tgz:28496.got - 2010.06.03 19:03:34.
