data_PCOD9368320
_publ_section_title
;
Structure prediction by ZEFSAII (Michael W. Deem and Ramdas Pophale) SiO2 
 PCOD9368320
Probable space group: F M M 2
;
_chemical_formula_sum "Si O2"
_cell_formula_units_Z 116
_cell_length_a 9.090046
_cell_length_b 29.041072
_cell_length_c 25.647699
_cell_angle_alpha 90.000000
_cell_angle_beta 90.000000
_cell_angle_gamma 90.000000
_cell_volume 6770.599623
_symmetry_space_group_name_H-M "F M M 2"
_symmetry_group_IT_number 42
_symmetry_cell_setting 'orthorhombic'
loop_
_space_group_symop_operation_xyz
x,y,z
-x,-y,z
-x,y,z
x,-y,z
x,1/2+y,1/2+z
-x,1/2-y,1/2+z
-x,1/2+y,1/2+z
x,1/2-y,1/2+z
1/2+x,y,1/2+z
1/2-x,-y,1/2+z
1/2-x,y,1/2+z
1/2+x,-y,1/2+z
1/2+x,1/2+y,z
1/2-x,1/2-y,z
1/2-x,1/2+y,z
1/2+x,1/2-y,z
loop_
_atom_site_type_symbol
_atom_site_label
_atom_site_fract_x
_atom_site_fract_y
_atom_site_fract_z
Si Si1 0.733543 0.949920 0.011400
Si Si2 0.174948 0.201707 0.769229
Si Si3 0.177163 0.299676 0.390104
Si Si4 0.177097 0.699734 0.579216
Si Si5 0.324082 0.858814 0.171224
Si Si6 0.332611 0.151293 0.981890
Si Si7 0.327051 0.446721 0.132270
Si Si8 0.500000 0.500000 0.967539
O O1 0.661149 0.903200 0.992914
O O2 0.790454 0.942708 0.070679
O O3 0.698007 0.000000 0.646684
O O4 0.871935 0.960566 0.974557
O O5 0.250000 0.250000 0.755046
O O6 0.210976 0.190460 0.829251
O O7 0.211919 0.162453 0.727626
O O8 0.000000 0.208774 0.766818
O O9 0.250000 0.250000 0.402174
O O10 0.252533 0.336109 0.428191
O O11 0.000000 0.297955 0.396785
O O12 0.250000 0.750000 0.581632
O O13 0.237499 0.670629 0.628035
O O14 0.237538 0.674781 0.527518
O O15 0.000000 0.702107 0.579347
O O16 0.500000 0.855211 0.162535
O O17 0.271203 0.910971 0.163721
O O18 0.500000 0.169498 0.982414
O O19 0.500000 0.436436 0.139029
O O20 0.155098 0.500000 0.012375
#
# Coordination Sequence:
#
# PCOD9368320 Si02
#       8
#    16  16  16  16  16  16  16   4
#     4   9  18  32  55  76 111 141 183 219 265 316
#     4   9  20  38  58  81 107 140 184 229 271 322
#     4  10  21  38  60  80 106 143 185 230 275 323
#     4  12  25  38  53  75 111 148 183 218 268 328
#     4  11  22  35  55  83 114 142 180 224 274 325
#     4  12  24  36  54  82 114 144 179 224 274 327
#     4  10  18  33  54  80 110 146 187 223 266 323
#     4   8  16  32  54  80 108 144 182 228 256 328
#
# _framework density 17.132898999999998
#
# number of rings (size 3 to 8) (size 9 to 14) (size 15 to 20)
#    0.414    1.241    2.069    3.310    1.931    3.310 
#    0.000    1.379    0.000    0.828    0.000    1.931 
#    0.000    0.000    0.000    0.000    0.000    0.000 
#
# Total GULP energy -161446.177278 kJ/mol
# GULP energy per Si atom -5567.109561 kJ/mol
# Density = 1.709390 g / cm^3
# Si number density = 17.132899 Si / 1000 Ang^3
#
#
#
# Elastic Constant Matrix: (Units=GPa)
#
#
# Indices 1 2 3 4 5 6 
#
# 1 116.2747 50.2761 39.3083 0.0000 0.0000 0.0000
# 2 50.2761 103.7341 48.3733 0.0000 0.0000 0.0000
# 3 39.3083 48.3733 66.7331 0.0000 0.0000 0.0000
# 4 0.0000 0.0000 0.0000 15.6963 0.0000 0.0000
# 5 0.0000 0.0000 0.0000 0.0000 3.0394 0.0000
# 6 0.0000 0.0000 0.0000 0.0000 0.0000 31.4177
#
#
#
# Elastic Compliance Matrix: (Units=1/GPa)
#
#
# Indices 1 2 3 4 5 6 
#
# 1 0.011599 -0.003679 -0.004165 0.000000 0.000000 0.000000
# 2 -0.003679 0.015730 -0.009235 0.000000 0.000000 0.000000
# 3 -0.004165 -0.009235 0.024133 0.000000 0.000000 0.000000
# 4 0.000000 0.000000 0.000000 0.063709 0.000000 0.000000
# 5 0.000000 0.000000 0.000000 0.000000 0.329007 0.000000
# 6 0.000000 0.000000 0.000000 0.000000 0.000000 0.031829
#
#
# Mechanical properties :
#
#
# Convention : Reuss Voigt Hill
#
# Bulk Modulus (GPa) = 57.79447 62.51747 60.15597
# Shear Modulus (GPa) = 9.69115 19.94964 14.82040
#
# Velocity S-wave (km/s) = 2.38091 3.41604 2.94432
# Velocity P-wave (km/s) = 6.43153 7.21998 6.83713
#
# Compressibility (1/GPa) = 0.01730269
#
# Stress axis : x y z
#
# Youngs Moduli (GPa) = 86.21109 63.57417 41.43753
#
# Poissons Ratio (x) = 0.23392 0.17260
# Poissons Ratio (y) = 0.31721 0.38267
# Poissons Ratio (z) = 0.35910 0.58709
#
# Static dielectric constant tensor:
#      x y z
#    x 1.580880 0.000000 0.000000 
#    y 0.000000 1.594820 0.000000 
#    z 0.000000 0.000000 1.569690 
# 
# From -- ./inp_files/28478.got.cif
#   From: 2010.05.17/outbox.cif.g08.bks.cpg/sg42_15_cif.got.tgz:28478.got - 2010.06.03 19:03:34.
