data_PCOD9368995
_publ_section_title
;
Structure prediction by ZEFSAII (Michael W. Deem and Ramdas Pophale) SiO2 
 PCOD9368995
Probable space group: F M M 2
;
_chemical_formula_sum "Si O2"
_cell_formula_units_Z 96
_cell_length_a 15.450462
_cell_length_b 17.204205
_cell_length_c 19.132211
_cell_angle_alpha 90.000000
_cell_angle_beta 90.000000
_cell_angle_gamma 90.000000
_cell_volume 5085.588788
_symmetry_space_group_name_H-M "F M M 2"
_symmetry_group_IT_number 42
_symmetry_cell_setting 'orthorhombic'
loop_
_space_group_symop_operation_xyz
x,y,z
-x,-y,z
-x,y,z
x,-y,z
x,1/2+y,1/2+z
-x,1/2-y,1/2+z
-x,1/2+y,1/2+z
x,1/2-y,1/2+z
1/2+x,y,1/2+z
1/2-x,-y,1/2+z
1/2-x,y,1/2+z
1/2+x,-y,1/2+z
1/2+x,1/2+y,z
1/2-x,1/2-y,z
1/2-x,1/2+y,z
1/2+x,1/2-y,z
loop_
_atom_site_type_symbol
_atom_site_label
_atom_site_fract_x
_atom_site_fract_y
_atom_site_fract_z
Si Si1 0.733991 0.411434 0.742680
Si Si2 0.098537 0.374486 0.492406
Si Si3 0.904004 0.877162 0.156567
Si Si4 0.098829 0.686934 0.989461
Si Si5 0.235891 0.089025 0.402994
Si Si6 0.342678 0.790385 0.139848
O O1 0.701405 0.500000 0.740647
O O2 0.826803 0.408422 0.703651
O O3 0.746770 0.387854 0.822965
O O4 0.674094 0.351445 0.700951
O O5 0.111061 0.394763 0.574333
O O6 0.104767 0.280728 0.485484
O O7 0.174263 0.408221 0.445479
O O8 0.000000 0.397123 0.473481
O O9 0.900468 0.783085 0.161080
O O10 0.000000 0.904204 0.175772
O O11 0.167317 0.645140 0.940018
O O12 0.000000 0.664659 0.973715
O O13 0.121670 0.669605 0.070272
O O14 0.203614 0.000000 0.402996
O O15 0.250000 0.750000 0.122284
#
# Coordination Sequence:
#
# PCOD9368995 Si02
#       6
#    16  16  16  16  16  16
#     4  10  22  36  50  74 108 145 177 210 259 311
#     4   9  19  37  61  84 103 130 176 230 273 309
#     4   9  18  34  57  82 103 128 170 223 270 310
#     4  10  20  35  57  83 109 138 174 217 265 319
#     4  11  23  37  52  75 113 149 177 215 260 313
#     4   9  17  33  56  79 103 133 174 222 266 311
#
# _framework density 18.876871000000001
#
# number of rings (size 3 to 8) (size 9 to 14) (size 15 to 20)
#    0.000    2.333    0.000    5.000    0.000    8.333 
#    0.000    6.667    0.000    3.500    0.000    0.000 
#    0.000    0.000    0.000    0.000    0.000    0.000 
#
# Total GULP energy -133980.382786 kJ/mol
# GULP energy per Si atom -5582.515949 kJ/mol
# Density = 1.883391 g / cm^3
# Si number density = 18.876871 Si / 1000 Ang^3
#
#
#
# Elastic Constant Matrix: (Units=GPa)
#
#
# Indices 1 2 3 4 5 6 
#
# 1 81.3143 17.9867 36.3773 0.0000 0.0000 0.0000
# 2 17.9867 53.3567 43.0589 0.0000 0.0000 0.0000
# 3 36.3773 43.0589 98.8484 0.0000 0.0000 0.0000
# 4 0.0000 0.0000 0.0000 12.1668 0.0000 0.0000
# 5 0.0000 0.0000 0.0000 0.0000 2.6849 0.0000
# 6 0.0000 0.0000 0.0000 0.0000 0.0000 6.7125
#
#
#
# Elastic Compliance Matrix: (Units=1/GPa)
#
#
# Indices 1 2 3 4 5 6 
#
# 1 0.014750 -0.000913 -0.005031 0.000000 0.000000 0.000000
# 2 -0.000913 0.028958 -0.012279 0.000000 0.000000 0.000000
# 3 -0.005031 -0.012279 0.017317 0.000000 0.000000 0.000000
# 4 0.000000 0.000000 0.000000 0.082191 0.000000 0.000000
# 5 0.000000 0.000000 0.000000 0.000000 0.372451 0.000000
# 6 0.000000 0.000000 0.000000 0.000000 0.000000 0.148975
#
#
# Mechanical properties :
#
#
# Convention : Reuss Voigt Hill
#
# Bulk Modulus (GPa) = 40.68122 47.59612 44.13867
# Shear Modulus (GPa) = 7.04940 13.38595 10.21768
#
# Velocity S-wave (km/s) = 1.93456 2.66582 2.32907
# Velocity P-wave (km/s) = 5.15632 5.89442 5.53768
#
# Compressibility (1/GPa) = 0.02458137
#
# Stress axis : x y z
#
# Youngs Moduli (GPa) = 67.79467 34.53250 57.74834
#
# Poissons Ratio (x) = 0.03151 0.29052
# Poissons Ratio (y) = 0.06186 0.70907
# Poissons Ratio (z) = 0.34106 0.42401
#
# Static dielectric constant tensor:
#      x y z
#    x 1.660600 0.000000 0.000000 
#    y 0.000000 1.669880 0.000000 
#    z 0.000000 0.000000 1.624930 
# 
# From -- ./inp_files/13980.got.cif
#   From: 2010.05.17/outbox.cif.g08.bks.cpg/sg42_7_cif.got.tgz:13980.got - 2010.06.03 19:03:34.
