data_PCOD9368185
_publ_section_title
;
Structure prediction by ZEFSAII (Michael W. Deem and Ramdas Pophale) SiO2 
 PCOD9368185
Probable space group: F M M 2
;
_chemical_formula_sum "Si O2"
_cell_formula_units_Z 72
_cell_length_a 18.449208
_cell_length_b 14.562871
_cell_length_c 15.882198
_cell_angle_alpha 90.000000
_cell_angle_beta 90.000000
_cell_angle_gamma 90.000000
_cell_volume 4267.124710
_symmetry_space_group_name_H-M "F M M 2"
_symmetry_group_IT_number 42
_symmetry_cell_setting 'orthorhombic'
loop_
_space_group_symop_operation_xyz
x,y,z
-x,-y,z
-x,y,z
x,-y,z
x,1/2+y,1/2+z
-x,1/2-y,1/2+z
-x,1/2+y,1/2+z
x,1/2-y,1/2+z
1/2+x,y,1/2+z
1/2-x,-y,1/2+z
1/2-x,y,1/2+z
1/2+x,-y,1/2+z
1/2+x,1/2+y,z
1/2-x,1/2-y,z
1/2-x,1/2+y,z
1/2+x,1/2-y,z
loop_
_atom_site_type_symbol
_atom_site_label
_atom_site_fract_x
_atom_site_fract_y
_atom_site_fract_z
Si Si1 0.846804 0.000000 0.595430
Si Si2 0.584965 0.700403 0.612802
Si Si3 0.272985 0.000000 0.454142
Si Si4 0.913820 0.315529 0.302522
Si Si5 0.328440 0.703520 0.966308
Si Si6 0.177922 0.000000 0.778821
O O1 0.893546 0.093081 0.600974
O O2 0.798582 0.000000 0.681465
O O3 0.797885 0.000000 0.512235
O O4 0.500000 0.711353 0.595172
O O5 0.597777 0.728441 0.710345
O O6 0.632752 0.758389 0.548849
O O7 0.316426 0.093857 0.472400
O O8 0.262350 0.000000 0.352504
O O9 0.876303 0.271945 0.384106
O O10 0.873621 0.412909 0.293375
O O11 0.000000 0.325569 0.314858
O O12 0.250000 0.750000 0.957634
#
# Coordination Sequence:
#
# PCOD9368185 Si02
#       6
#     8  16   8  16  16   8
#     4  10  17  34  55  79 107 136 179 220 262 304
#     4  10  20  35  56  81 107 139 179 221 263 309
#     4  10  20  36  50  78 110 138 176 214 262 318
#     4   9  18  33  53  77 104 137 179 219 259 306
#     4  11  21  35  54  78 110 140 175 218 265 319
#     4   8  17  30  53  77 101 138 175 220 256 298
#
# _framework density 16.873187999999999
#
# number of rings (size 3 to 8) (size 9 to 14) (size 15 to 20)
#    0.000    2.222    2.222    1.333    0.000    3.556 
#    4.000    1.667    0.000    0.000    0.000    3.111 
#    0.000    0.000    0.000    0.000    0.000    0.000 
#
# Total GULP energy -100255.437775 kJ/mol
# GULP energy per Si atom -5569.746543 kJ/mol
# Density = 1.683478 g / cm^3
# Si number density = 16.873188 Si / 1000 Ang^3
#
#
#
# Elastic Constant Matrix: (Units=GPa)
#
#
# Indices 1 2 3 4 5 6 
#
# 1 71.6453 1.2083 64.0382 0.0000 0.0000 0.0000
# 2 1.2083 59.5804 13.7244 0.0000 0.0000 0.0000
# 3 64.0382 13.7244 109.5431 0.0000 0.0000 0.0000
# 4 0.0000 0.0000 0.0000 23.2363 0.0000 0.0000
# 5 0.0000 0.0000 0.0000 0.0000 37.3738 0.0000
# 6 0.0000 0.0000 0.0000 0.0000 0.0000 -2.1210
#
#
#
# Elastic Compliance Matrix: (Units=1/GPa)
#
#
# Indices 1 2 3 4 5 6 
#
# 1 0.029934 0.003526 -0.017941 0.000000 0.000000 0.000000
# 2 0.003526 0.017698 -0.004278 0.000000 0.000000 0.000000
# 3 -0.017941 -0.004278 0.020153 0.000000 0.000000 0.000000
# 4 0.000000 0.000000 0.000000 0.043036 0.000000 0.000000
# 5 0.000000 0.000000 0.000000 0.000000 0.026757 0.000000
# 6 0.000000 0.000000 0.000000 0.000000 0.000000 -0.471468
#
#
# Mechanical properties :
#
#
# Convention : Reuss Voigt Hill
#
# Bulk Modulus (GPa) = 32.89715 44.30118 38.59917
# Shear Modulus (GPa) = -17.46002 22.48433 2.51216
#
# Velocity S-wave (km/s) = -3.22029 3.65437 1.22151
# Velocity P-wave (km/s) = 2.38998 6.64216 4.99151
#
# Compressibility (1/GPa) = 0.03039777
#
# Stress axis : x y z
#
# Youngs Moduli (GPa) = 33.40634 56.50328 49.61999
#
# Poissons Ratio (x) = -0.19921 0.89024
# Poissons Ratio (y) = -0.11778 0.21230
# Poissons Ratio (z) = 0.59935 0.24175
#
# Static dielectric constant tensor:
#      x y z
#    x 1.537480 0.000000 0.000000 
#    y 0.000000 1.561110 0.000000 
#    z 0.000000 0.000000 1.608360 
# 
# From -- ./inp_files/7725.got.cif
#   From: 2010.05.17/outbox.cif.g08.bks.cpg/sg42_4_cif.got.tgz:7725.got - 2010.06.03 19:03:34.
