data_PCOD9368016
_publ_section_title
;
Structure prediction by ZEFSAII (Michael W. Deem and Ramdas Pophale) SiO2 
 PCOD9368016
Probable space group: A B A 2
;
_chemical_formula_sum "Si O2"
_cell_formula_units_Z 32
_cell_length_a 12.444672
_cell_length_b 16.014191
_cell_length_c 6.161469
_cell_angle_alpha 90.000000
_cell_angle_beta 90.000000
_cell_angle_gamma 90.000000
_cell_volume 1227.927502
_symmetry_space_group_name_H-M "A B A 2"
_symmetry_group_IT_number 41
_symmetry_cell_setting 'orthorhombic'
loop_
_space_group_symop_operation_xyz
x,y,z
-x,-y,z
1/2-x,y,1/2+z
1/2+x,-y,1/2+z
x,1/2+y,1/2+z
-x,1/2-y,1/2+z
1/2-x,1/2+y,z
1/2+x,1/2-y,z
loop_
_atom_site_type_symbol
_atom_site_label
_atom_site_fract_x
_atom_site_fract_y
_atom_site_fract_z
Si Si1 0.479577 0.629012 0.445550
Si Si2 0.213195 0.549960 0.149340
Si Si3 0.163657 0.379986 0.652922
Si Si4 0.136432 0.279431 0.251192
O O1 0.410045 0.573570 0.605818
O O2 0.566322 0.584563 0.293916
O O3 0.559537 0.694993 0.557088
O O4 0.396172 0.686700 0.313707
O O5 0.265187 0.576097 0.906565
O O6 0.248870 0.453007 0.141750
O O7 0.109268 0.346154 0.437623
O O8 0.237055 0.298777 0.716305
#
# Coordination Sequence:
#
# PCOD9368016 Si02
#       4
#     8   8   8   8
#     4  12  29  48  87 119 161 229 275 351 429 497
#     4  12  30  54  79 123 170 219 275 350 417 513
#     4  12  26  52  77 115 165 212 275 349 415 507
#     4  12  25  48  80 115 160 212 283 346 410 503
#
# _framework density 26.060171
#
# number of rings (size 3 to 8) (size 9 to 14) (size 15 to 20)
#    0.000    0.000    7.500    0.000    7.000    4.000 
#    0.000    0.000    0.000    0.000    0.000    0.000 
#    0.000    0.000    0.000    0.000    0.000    0.000 
#
# Total GULP energy -89147.927594 kJ/mol
# GULP energy per Si atom -5571.745475 kJ/mol
# Density = 2.600086 g / cm^3
# Si number density = 26.060171 Si / 1000 Ang^3
#
#
#
# Elastic Constant Matrix: (Units=GPa)
#
#
# Indices 1 2 3 4 5 6 
#
# 1 148.0570 54.2635 40.3538 0.0000 0.0000 0.0000
# 2 54.2635 45.9620 -7.3514 0.0000 0.0000 0.0000
# 3 40.3538 -7.3514 106.9931 0.0000 0.0000 0.0000
# 4 0.0000 0.0000 0.0000 25.2739 0.0000 0.0000
# 5 0.0000 0.0000 0.0000 0.0000 46.4664 0.0000
# 6 0.0000 0.0000 0.0000 0.0000 0.0000 39.7731
#
#
#
# Elastic Compliance Matrix: (Units=1/GPa)
#
#
# Indices 1 2 3 4 5 6 
#
# 1 0.016321 -0.020478 -0.007563 0.000000 0.000000 0.000000
# 2 -0.020478 0.047693 0.011001 0.000000 0.000000 0.000000
# 3 -0.007563 0.011001 0.012955 0.000000 0.000000 0.000000
# 4 0.000000 0.000000 0.000000 0.039566 0.000000 0.000000
# 5 0.000000 0.000000 0.000000 0.000000 0.021521 0.000000
# 6 0.000000 0.000000 0.000000 0.000000 0.000000 0.025143
#
#
# Mechanical properties :
#
#
# Convention : Reuss Voigt Hill
#
# Bulk Modulus (GPa) = 23.31640 52.83823 38.07731
# Shear Modulus (GPa) = 23.63230 36.55245 30.09237
#
# Velocity S-wave (km/s) = 3.01464 3.74922 3.40181
# Velocity P-wave (km/s) = 4.59173 6.24993 5.48387
#
# Compressibility (1/GPa) = 0.04288828
#
# Stress axis : x y z
#
# Youngs Moduli (GPa) = 61.27197 20.96731 77.19299
#
# Poissons Ratio (x) = 0.42937 0.58378
# Poissons Ratio (y) = 1.25473 -0.84916
# Poissons Ratio (z) = 0.46337 -0.23065
#
# Static dielectric constant tensor:
#      x y z
#    x 1.984820 0.000000 0.000000 
#    y 0.000000 2.042940 0.000000 
#    z 0.000000 0.000000 2.270620 
# 
# From -- ./inp_files/100.got.cif
#   From: 2010.05.17/outbox.cif.g08.bks.cpg/sg41_1_cif.got.tgz:100.got - 2010.06.03 18:54:24.
