data_PCOD9368023
_publ_section_title
;
Structure prediction by ZEFSAII (Michael W. Deem and Ramdas Pophale) SiO2 
 PCOD9368023
Probable space group: A B A 2
;
_chemical_formula_sum "Si O2"
_cell_formula_units_Z 32
_cell_length_a 12.465262
_cell_length_b 12.412347
_cell_length_c 8.058781
_cell_angle_alpha 90.000000
_cell_angle_beta 90.000000
_cell_angle_gamma 90.000000
_cell_volume 1246.880041
_symmetry_space_group_name_H-M "A B A 2"
_symmetry_group_IT_number 41
_symmetry_cell_setting 'orthorhombic'
loop_
_space_group_symop_operation_xyz
x,y,z
-x,-y,z
1/2-x,y,1/2+z
1/2+x,-y,1/2+z
x,1/2+y,1/2+z
-x,1/2-y,1/2+z
1/2-x,1/2+y,z
1/2+x,1/2-y,z
loop_
_atom_site_type_symbol
_atom_site_label
_atom_site_fract_x
_atom_site_fract_y
_atom_site_fract_z
Si Si1 0.618059 0.792604 0.243700
Si Si2 0.876041 0.988176 0.989188
Si Si3 0.011727 0.377933 0.941999
Si Si4 0.789139 0.612518 0.184250
O O1 0.523007 0.710437 0.299275
O O2 0.578841 0.852042 0.077805
O O3 0.720506 0.719538 0.208134
O O4 0.637512 0.875825 0.392958
O O5 0.850184 0.078481 0.850086
O O6 0.793756 0.016683 0.134930
O O7 0.000000 0.000000 0.033139
O O8 0.124546 0.373703 0.040039
O O9 0.000000 0.500000 0.885902
#
# Coordination Sequence:
#
# PCOD9368023 Si02
#       4
#     8   8   8   8
#     4  12  27  45  79 106 149 203 246 310 387 438
#     4  12  26  52  74 111 157 193 259 318 366 463
#     4  12  27  49  73 110 151 194 257 310 369 461
#     4  12  26  48  74 111 150 198 247 314 379 441
#
# _framework density 25.664055999999999
#
# number of rings (size 3 to 8) (size 9 to 14) (size 15 to 20)
#    0.000    0.000    7.500    1.500    3.500    5.000 
#    0.000    0.000    0.000    0.000    0.000    0.000 
#    0.000    0.000    0.000    0.000    0.000    0.000 
#
# Total GULP energy -89896.724403 kJ/mol
# GULP energy per Si atom -5618.545275 kJ/mol
# Density = 2.560564 g / cm^3
# Si number density = 25.664056 Si / 1000 Ang^3
#
#
#
# Elastic Constant Matrix: (Units=GPa)
#
#
# Indices 1 2 3 4 5 6 
#
# 1 136.9720 41.6217 39.2999 0.0000 0.0000 0.0000
# 2 41.6217 164.9237 33.9026 0.0000 0.0000 0.0000
# 3 39.2999 33.9026 97.1402 0.0000 0.0000 0.0000
# 4 0.0000 0.0000 0.0000 22.2937 0.0000 0.0000
# 5 0.0000 0.0000 0.0000 0.0000 30.4616 0.0000
# 6 0.0000 0.0000 0.0000 0.0000 0.0000 56.1439
#
#
#
# Elastic Compliance Matrix: (Units=1/GPa)
#
#
# Indices 1 2 3 4 5 6 
#
# 1 0.008622 -0.001572 -0.002940 0.000000 0.000000 0.000000
# 2 -0.001572 0.006819 -0.001744 0.000000 0.000000 0.000000
# 3 -0.002940 -0.001744 0.012092 0.000000 0.000000 0.000000
# 4 0.000000 0.000000 0.000000 0.044856 0.000000 0.000000
# 5 0.000000 0.000000 0.000000 0.000000 0.032828 0.000000
# 6 0.000000 0.000000 0.000000 0.000000 0.000000 0.017811
#
#
# Mechanical properties :
#
#
# Convention : Reuss Voigt Hill
#
# Bulk Modulus (GPa) = 66.56720 69.85378 68.21049
# Shear Modulus (GPa) = 35.57570 40.72731 38.15150
#
# Velocity S-wave (km/s) = 3.72722 3.98796 3.85979
# Velocity P-wave (km/s) = 6.67211 6.96296 6.81909
#
# Compressibility (1/GPa) = 0.01502241
#
# Stress axis : x y z
#
# Youngs Moduli (GPa) = 115.98578 146.65949 82.69729
#
# Poissons Ratio (x) = 0.23049 0.24310
# Poissons Ratio (y) = 0.18228 0.14422
# Poissons Ratio (z) = 0.34095 0.25576
#
# Static dielectric constant tensor:
#      x y z
#    x 1.983140 0.000000 0.000000 
#    y 0.000000 2.005550 0.000000 
#    z 0.000000 0.000000 1.988420 
# 
# From -- ./inp_files/1906.got.cif
#   From: 2010.05.17/outbox.cif.g08.bks.cpg/sg41_1_cif.got.tgz:1906.got - 2010.06.03 18:54:24.
