data_PCOD9368568
_publ_section_title
;
Structure prediction by ZEFSAII (Michael W. Deem and Ramdas Pophale) SiO2 
 PCOD9368568
Probable space group: F M M 2
;
_chemical_formula_sum "Si O2"
_cell_formula_units_Z 112
_cell_length_a 14.302460
_cell_length_b 24.939300
_cell_length_c 14.998171
_cell_angle_alpha 90.000000
_cell_angle_beta 90.000000
_cell_angle_gamma 90.000000
_cell_volume 5349.747718
_symmetry_space_group_name_H-M "F M M 2"
_symmetry_group_IT_number 42
_symmetry_cell_setting 'orthorhombic'
loop_
_space_group_symop_operation_xyz
x,y,z
-x,-y,z
-x,y,z
x,-y,z
x,1/2+y,1/2+z
-x,1/2-y,1/2+z
-x,1/2+y,1/2+z
x,1/2-y,1/2+z
1/2+x,y,1/2+z
1/2-x,-y,1/2+z
1/2-x,y,1/2+z
1/2+x,-y,1/2+z
1/2+x,1/2+y,z
1/2-x,1/2-y,z
1/2-x,1/2+y,z
1/2+x,1/2-y,z
loop_
_atom_site_type_symbol
_atom_site_label
_atom_site_fract_x
_atom_site_fract_y
_atom_site_fract_z
Si Si1 0.238893 0.938234 0.093300
Si Si2 0.385707 0.115256 0.968184
Si Si3 0.112905 0.770104 0.550578
Si Si4 0.602311 0.831407 0.315140
Si Si5 0.708285 0.383605 0.272901
Si Si6 0.895727 0.651313 0.517642
Si Si7 0.390032 0.228351 0.737512
O O1 0.215092 0.929611 0.198371
O O2 0.166826 0.896398 0.050938
O O3 0.223874 0.000000 0.070280
O O4 0.337655 0.920100 0.046983
O O5 0.500000 0.109915 0.963793
O O6 0.338239 0.104508 0.870346
O O7 0.361410 0.176806 0.996876
O O8 0.148032 0.710528 0.528083
O O9 0.134782 0.768701 0.656176
O O10 0.000000 0.767328 0.540222
O O11 0.500000 0.835034 0.270643
O O12 0.684816 0.865190 0.276091
O O13 0.593549 0.853878 0.413238
O O14 0.627375 0.767903 0.320272
O O15 0.657548 0.329027 0.238689
O O16 0.000000 0.650488 0.559264
O O17 0.500000 0.217648 0.734811
#
# Coordination Sequence:
#
# PCOD9368568 Si02
#       7
#    16  16  16  16  16  16  16
#     4  12  28  47  68  97 134 182 241 296 350 415
#     4  11  25  46  73 106 142 183 234 293 364 438
#     4   9  18  35  64 100 142 178 211 268 348 427
#     4  10  21  37  60  95 133 172 215 266 334 418
#     4  12  23  41  68 100 134 184 235 295 344 414
#     4  10  20  41  66  93 130 171 216 276 339 402
#     4  10  19  33  59 101 147 180 218 273 345 428
#
# _framework density 20.935566000000001
#
# number of rings (size 3 to 8) (size 9 to 14) (size 15 to 20)
#    0.000    1.429    2.857    2.571    0.000    6.286 
#    0.000    0.000    0.000    0.000    0.000    0.000 
#    0.000    0.000    0.000    0.000    0.000    0.000 
#
# Total GULP energy -156011.241511 kJ/mol
# GULP energy per Si atom -5571.830054 kJ/mol
# Density = 2.088792 g / cm^3
# Si number density = 20.935566 Si / 1000 Ang^3
#
#
#
# Elastic Constant Matrix: (Units=GPa)
#
#
# Indices 1 2 3 4 5 6 
#
# 1 77.8237 24.7069 27.5968 0.0000 0.0000 0.0000
# 2 24.7069 102.8132 35.7867 0.0000 0.0000 0.0000
# 3 27.5968 35.7867 80.6407 0.0000 0.0000 0.0000
# 4 0.0000 0.0000 0.0000 11.8723 0.0000 0.0000
# 5 0.0000 0.0000 0.0000 0.0000 23.0832 0.0000
# 6 0.0000 0.0000 0.0000 0.0000 0.0000 13.7141
#
#
#
# Elastic Compliance Matrix: (Units=1/GPa)
#
#
# Indices 1 2 3 4 5 6 
#
# 1 0.015016 -0.002152 -0.004184 0.000000 0.000000 0.000000
# 2 -0.002152 0.011812 -0.004505 0.000000 0.000000 0.000000
# 3 -0.004184 -0.004505 0.015832 0.000000 0.000000 0.000000
# 4 0.000000 0.000000 0.000000 0.084230 0.000000 0.000000
# 5 0.000000 0.000000 0.000000 0.000000 0.043322 0.000000
# 6 0.000000 0.000000 0.000000 0.000000 0.000000 0.072918
#
#
# Mechanical properties :
#
#
# Convention : Reuss Voigt Hill
#
# Bulk Modulus (GPa) = 47.67049 48.60647 48.13848
# Shear Modulus (GPa) = 18.39561 21.27975 19.83768
#
# Velocity S-wave (km/s) = 2.96747 3.19162 3.08158
# Velocity P-wave (km/s) = 5.87883 6.07038 5.97537
#
# Compressibility (1/GPa) = 0.02097734
#
# Stress axis : x y z
#
# Youngs Moduli (GPa) = 66.59365 84.66145 63.16412
#
# Poissons Ratio (x) = 0.18222 0.26426
# Poissons Ratio (y) = 0.14333 0.28457
# Poissons Ratio (z) = 0.27861 0.38142
#
# Static dielectric constant tensor:
#      x y z
#    x 1.904720 0.000000 0.000000 
#    y 0.000000 1.719350 0.000000 
#    z 0.000000 0.000000 1.910500 
# 
# From -- ./inp_files/14233.got.cif
#   From: 2010.05.17/outbox.cif.g08.bks.cpg/sg42_8_cif.got.tgz:14233.got - 2010.06.03 19:03:34.
