data_PCOD9368906
_publ_section_title
;
Structure prediction by ZEFSAII (Michael W. Deem and Ramdas Pophale) SiO2 
 PCOD9368906
Probable space group: F M M 2
;
_chemical_formula_sum "Si O2"
_cell_formula_units_Z 96
_cell_length_a 18.506104
_cell_length_b 8.698840
_cell_length_c 32.170689
_cell_angle_alpha 90.000000
_cell_angle_beta 90.000000
_cell_angle_gamma 90.000000
_cell_volume 5178.890202
_symmetry_space_group_name_H-M "F M M 2"
_symmetry_group_IT_number 42
_symmetry_cell_setting 'orthorhombic'
loop_
_space_group_symop_operation_xyz
x,y,z
-x,-y,z
-x,y,z
x,-y,z
x,1/2+y,1/2+z
-x,1/2-y,1/2+z
-x,1/2+y,1/2+z
x,1/2-y,1/2+z
1/2+x,y,1/2+z
1/2-x,-y,1/2+z
1/2-x,y,1/2+z
1/2+x,-y,1/2+z
1/2+x,1/2+y,z
1/2-x,1/2-y,z
1/2-x,1/2+y,z
1/2+x,1/2-y,z
loop_
_atom_site_type_symbol
_atom_site_label
_atom_site_fract_x
_atom_site_fract_y
_atom_site_fract_z
Si Si1 0.168537 0.315840 0.672570
Si Si2 0.916392 0.185806 0.502503
Si Si3 0.831389 0.683004 0.258055
Si Si4 0.169419 0.814301 0.419943
Si Si5 0.331288 0.184111 0.580583
Si Si6 0.584483 0.314459 0.336567
O O1 0.170449 0.500000 0.676797
O O2 0.250000 0.250000 0.671528
O O3 0.136226 0.244244 0.714356
O O4 0.138642 0.277220 0.626811
O O5 0.872284 0.235361 0.461619
O O6 0.879588 0.250799 0.543754
O O7 0.000000 0.232298 0.499402
O O8 0.913883 0.000000 0.504038
O O9 0.826738 0.500000 0.256813
O O10 0.750000 0.750000 0.262196
O O11 0.877989 0.739243 0.296845
O O12 0.250000 0.750000 0.419148
O O13 0.125725 0.768056 0.378690
O O14 0.172306 0.000000 0.420313
O O15 0.250000 0.250000 0.577003
O O16 0.327100 0.000000 0.577802
O O17 0.500000 0.275033 0.339108
O O18 0.590079 0.500000 0.332884
#
# Coordination Sequence:
#
# PCOD9368906 Si02
#       6
#    16  16  16  16  16  16
#     4   9  17  31  52  78 107 140 180 225 271 317
#     4  10  21  37  56  79 110 146 182 222 269 320
#     4  11  21  34  55  82 111 142 181 226 270 320
#     4  10  21  37  58  83 108 139 180 222 266 318
#     4  10  20  34  55  82 110 142 182 226 270 320
#     4  10  21  38  58  79 108 145 181 220 269 322
#
# _framework density 18.53679
#
# number of rings (size 3 to 8) (size 9 to 14) (size 15 to 20)
#    0.000    2.000    0.000    5.000    0.000    8.667 
#    0.000    0.833    0.000    4.000    0.000    0.000 
#    0.000    0.000    0.000    0.000    0.000    0.000 
#
# Total GULP energy -133986.205714 kJ/mol
# GULP energy per Si atom -5582.758571 kJ/mol
# Density = 1.849460 g / cm^3
# Si number density = 18.536790 Si / 1000 Ang^3
#
#
#
# Elastic Constant Matrix: (Units=GPa)
#
#
# Indices 1 2 3 4 5 6 
#
# 1 124.6965 44.3178 105.0967 0.0000 0.0000 0.0000
# 2 44.3178 51.9957 64.3534 0.0000 0.0000 0.0000
# 3 105.0967 64.3534 231.6877 0.0000 0.0000 0.0000
# 4 0.0000 0.0000 0.0000 24.4944 0.0000 0.0000
# 5 0.0000 0.0000 0.0000 0.0000 -9.9081 0.0000
# 6 0.0000 0.0000 0.0000 0.0000 0.0000 25.5676
#
#
#
# Elastic Compliance Matrix: (Units=1/GPa)
#
#
# Indices 1 2 3 4 5 6 
#
# 1 0.014221 -0.006304 -0.004700 0.000000 0.000000 0.000000
# 2 -0.006304 0.032102 -0.006057 0.000000 0.000000 0.000000
# 3 -0.004700 -0.006057 0.008130 0.000000 0.000000 0.000000
# 4 0.000000 0.000000 0.000000 0.040826 0.000000 0.000000
# 5 0.000000 0.000000 0.000000 0.000000 -0.100927 0.000000
# 6 0.000000 0.000000 0.000000 0.000000 0.000000 0.039112
#
#
# Mechanical properties :
#
#
# Convention : Reuss Voigt Hill
#
# Bulk Modulus (GPa) = 49.18455 92.87951 71.03203
# Shear Modulus (GPa) = 67.23700 21.00491 44.12096
#
# Velocity S-wave (km/s) = 6.02917 3.36988 4.88401
# Velocity P-wave (km/s) = 8.66366 8.08429 8.37898
#
# Compressibility (1/GPa) = 0.02033159
#
# Stress axis : x y z
#
# Youngs Moduli (GPa) = 70.31759 31.15036 122.99468
#
# Poissons Ratio (x) = 0.19638 0.57805
# Poissons Ratio (y) = 0.44331 0.74497
# Poissons Ratio (z) = 0.33048 0.18868
#
# Static dielectric constant tensor:
#      x y z
#    x 1.591090 0.000000 0.000000 
#    y 0.000000 1.628740 0.000000 
#    z 0.000000 0.000000 1.655940 
# 
# From -- ./inp_files/31447.got.cif
#   From: 2010.05.17/outbox.cif.g08.bks.cpg/sg42_16_cif.got.tgz:31447.got - 2010.06.03 19:03:34.
