data_PCOD9368425
_publ_section_title
;
Structure prediction by ZEFSAII (Michael W. Deem and Ramdas Pophale) SiO2 
 PCOD9368425
Probable space group: F M M 2
;
_chemical_formula_sum "Si O2"
_cell_formula_units_Z 96
_cell_length_a 29.364486
_cell_length_b 7.596303
_cell_length_c 21.323887
_cell_angle_alpha 90.000000
_cell_angle_beta 90.000000
_cell_angle_gamma 90.000000
_cell_volume 4756.538926
_symmetry_space_group_name_H-M "F M M 2"
_symmetry_group_IT_number 42
_symmetry_cell_setting 'orthorhombic'
loop_
_space_group_symop_operation_xyz
x,y,z
-x,-y,z
-x,y,z
x,-y,z
x,1/2+y,1/2+z
-x,1/2-y,1/2+z
-x,1/2+y,1/2+z
x,1/2-y,1/2+z
1/2+x,y,1/2+z
1/2-x,-y,1/2+z
1/2-x,y,1/2+z
1/2+x,-y,1/2+z
1/2+x,1/2+y,z
1/2-x,1/2-y,z
1/2-x,1/2+y,z
1/2+x,1/2-y,z
loop_
_atom_site_type_symbol
_atom_site_label
_atom_site_fract_x
_atom_site_fract_y
_atom_site_fract_z
Si Si1 0.354956 0.288921 0.972720
Si Si2 0.196482 0.707590 0.844249
Si Si3 0.303192 0.789000 0.595981
Si Si4 0.949082 0.214236 0.167990
Si Si5 0.550837 0.285415 0.022064
Si Si6 0.645126 0.716162 0.221047
O O1 0.356860 0.500000 0.978406
O O2 0.329203 0.252813 0.908377
O O3 0.326701 0.220921 0.032641
O O4 0.406983 0.224991 0.979889
O O5 0.193920 0.500000 0.837793
O O6 0.250000 0.750000 0.846095
O O7 0.170171 0.781437 0.783507
O O8 0.250000 0.750000 0.596452
O O9 0.327362 0.725963 0.659277
O O10 0.308793 0.000000 0.595715
O O11 0.940795 0.263271 0.095046
O O12 0.907234 0.271564 0.211085
O O13 0.000000 0.273279 0.185531
O O14 0.949421 0.000000 0.168832
O O15 0.500000 0.225610 0.004442
O O16 0.550045 0.500000 0.020776
O O17 0.645305 0.500000 0.221632
#
# Coordination Sequence:
#
# PCOD9368425 Si02
#       6
#    16  16  16  16  16  16
#     4  10  19  33  53  76 103 132 166 210 254 298
#     4  11  23  37  52  70 100 139 174 208 252 306
#     4  10  19  31  49  72  96 123 161 210 255 291
#     4   8  12  22  45  75 102 126 157 201 250 295
#     4   8  13  24  47  78 105 129 162 205 250 294
#     4   9  17  31  48  70  99 129 163 205 250 294
#
# _framework density 20.182742999999999
#
# number of rings (size 3 to 8) (size 9 to 14) (size 15 to 20)
#    0.000    2.667    1.667    2.500    0.000    2.000 
#    0.000    1.667    0.000    1.500    0.000    0.000 
#    0.000    3.333    0.000    0.000    0.000    0.000 
#
# Total GULP energy -133906.848333 kJ/mol
# GULP energy per Si atom -5579.452014 kJ/mol
# Density = 2.013681 g / cm^3
# Si number density = 20.182743 Si / 1000 Ang^3
#
#
#
# Elastic Constant Matrix: (Units=GPa)
#
#
# Indices 1 2 3 4 5 6 
#
# 1 236.4409 5.0137 127.6067 0.0000 0.0000 0.0001
# 2 5.0137 41.7473 7.0030 0.0000 0.0000 0.0001
# 3 127.6067 7.0030 172.4427 0.0000 0.0000 0.0000
# 4 0.0000 0.0000 0.0000 1.2629 0.0000 0.0000
# 5 0.0000 0.0000 0.0000 0.0000 38.8519 0.0000
# 6 0.0001 0.0001 0.0000 0.0000 0.0000 1.4030
#
#
#
# Elastic Compliance Matrix: (Units=1/GPa)
#
#
# Indices 1 2 3 4 5 6 
#
# 1 0.007042 0.000029 -0.005212 0.000000 0.000000 0.000000
# 2 0.000029 0.024118 -0.001001 0.000001 0.000000 -0.000001
# 3 -0.005212 -0.001001 0.009696 0.000000 0.000000 0.000000
# 4 0.000000 0.000001 0.000000 0.791814 0.000000 -0.000001
# 5 0.000000 0.000000 0.000000 0.000000 0.025739 0.000001
# 6 0.000000 -0.000001 0.000000 -0.000001 0.000001 0.712749
#
#
# Mechanical properties :
#
#
# Convention : Reuss Voigt Hill
#
# Bulk Modulus (GPa) = 35.10215 81.09753 58.09984
# Shear Modulus (GPa) = 3.13869 29.03740 16.08805
#
# Velocity S-wave (km/s) = 1.24840 3.79717 2.82639
# Velocity P-wave (km/s) = 4.41678 7.71320 6.28496
#
# Compressibility (1/GPa) = 0.02848828
#
# Stress axis : x y z
#
# Youngs Moduli (GPa) = 142.01193 41.46269 103.13019
#
# Poissons Ratio (x) = -0.00119 0.53751
# Poissons Ratio (y) = -0.00406 0.10319
# Poissons Ratio (z) = 0.74016 0.04149
#
# Static dielectric constant tensor:
#      x y z
#    x 1.716330 0.000000 0.000000 
#    y 0.000000 1.768570 0.000000 
#    z 0.000000 0.000000 1.709830 
# 
# From -- ./inp_files/22498.got.cif
#   From: 2010.05.17/outbox.cif.g08.bks.cpg/sg42_12_cif.got.tgz:22498.got - 2010.06.03 19:03:34.
