data_PCOD9368302
_publ_section_title
;
Structure prediction by ZEFSAII (Michael W. Deem and Ramdas Pophale) SiO2 
 PCOD9368302
Probable space group: F M M 2
;
_chemical_formula_sum "Si O2"
_cell_formula_units_Z 96
_cell_length_a 25.462283
_cell_length_b 22.223971
_cell_length_c 7.948377
_cell_angle_alpha 90.000000
_cell_angle_beta 90.000000
_cell_angle_gamma 90.000000
_cell_volume 4497.772248
_symmetry_space_group_name_H-M "F M M 2"
_symmetry_group_IT_number 42
_symmetry_cell_setting 'orthorhombic'
loop_
_space_group_symop_operation_xyz
x,y,z
-x,-y,z
-x,y,z
x,-y,z
x,1/2+y,1/2+z
-x,1/2-y,1/2+z
-x,1/2+y,1/2+z
x,1/2-y,1/2+z
1/2+x,y,1/2+z
1/2-x,-y,1/2+z
1/2-x,y,1/2+z
1/2+x,-y,1/2+z
1/2+x,1/2+y,z
1/2-x,1/2-y,z
1/2-x,1/2+y,z
1/2+x,1/2-y,z
loop_
_atom_site_type_symbol
_atom_site_label
_atom_site_fract_x
_atom_site_fract_y
_atom_site_fract_z
Si Si1 0.440689 0.304468 0.763630
Si Si2 0.654089 0.154232 0.401541
Si Si3 0.809786 0.262375 0.094882
Si Si4 0.324068 0.625912 0.370564
Si Si5 0.224917 0.070936 0.709506
Si Si6 0.561494 0.833075 0.866382
O O1 0.500000 0.310067 0.819415
O O2 0.407575 0.350096 0.878534
O O3 0.429032 0.233269 0.787327
O O4 0.436209 0.321877 0.568114
O O5 0.665490 0.198120 0.555156
O O6 0.666585 0.197345 0.240809
O O7 0.689040 0.096766 0.362485
O O8 0.750000 0.250000 0.132503
O O9 0.812692 0.305796 0.931495
O O10 0.281504 0.602995 0.234614
O O11 0.305963 0.588194 0.537917
O O12 0.386873 0.624962 0.331566
O O13 0.231630 0.000000 0.719634
O O14 0.500000 0.850895 0.827542
#
# Coordination Sequence:
#
# PCOD9368302 Si02
#       6
#    16  16  16  16  16  16
#     4  10  18  32  53  82 119 154 188 233 291 356
#     4  11  20  33  51  80 113 146 180 232 280 349
#     4  11  20  29  49  80 110 137 177 224 295 336
#     4  11  22  38  58  84 117 150 191 247 289 354
#     4  11  24  40  57  79 113 161 200 239 289 340
#     4  10  20  35  57  86 123 158 189 232 293 360
#
# _framework density 21.343900000000001
#
# number of rings (size 3 to 8) (size 9 to 14) (size 15 to 20)
#    0.000    1.333    6.667    1.000    2.333    0.000 
#    3.000    0.000    0.000    3.500    0.000    0.000 
#    0.000    5.333    0.000    0.000    0.000    0.000 
#
# Total GULP energy -133980.381595 kJ/mol
# GULP energy per Si atom -5582.515900 kJ/mol
# Density = 2.129532 g / cm^3
# Si number density = 21.343900 Si / 1000 Ang^3
#
#
#
# Elastic Constant Matrix: (Units=GPa)
#
#
# Indices 1 2 3 4 5 6 
#
# 1 184.0582 43.3003 18.7214 0.0003 -0.0001 0.0000
# 2 43.3003 103.0891 10.3202 0.0001 -0.0001 0.0000
# 3 18.7214 10.3202 56.2371 -0.0003 0.0001 -0.0002
# 4 0.0003 0.0001 -0.0003 22.4595 0.0002 -0.0001
# 5 -0.0001 -0.0001 0.0001 0.0002 28.4318 0.0000
# 6 0.0000 0.0000 -0.0002 -0.0001 0.0000 8.9677
#
#
#
# Elastic Compliance Matrix: (Units=1/GPa)
#
#
# Indices 1 2 3 4 5 6 
#
# 1 0.006168 -0.002430 -0.001607 0.000000 0.000000 0.000000
# 2 -0.002430 0.010839 -0.001180 0.000000 0.000000 0.000000
# 3 -0.001607 -0.001180 0.018534 0.000000 0.000000 0.000000
# 4 0.000000 0.000000 0.000000 0.044525 0.000000 0.000000
# 5 0.000000 0.000000 0.000000 0.000000 0.035172 0.000000
# 6 0.000000 0.000000 0.000000 0.000000 0.000000 0.111512
#
#
# Mechanical properties :
#
#
# Convention : Reuss Voigt Hill
#
# Bulk Modulus (GPa) = 39.83152 54.22981 47.03066
# Shear Modulus (GPa) = 20.36221 30.04128 25.20174
#
# Velocity S-wave (km/s) = 3.09205 3.75572 3.43993
# Velocity P-wave (km/s) = 5.60803 6.65357 6.15305
#
# Compressibility (1/GPa) = 0.02510575
#
# Stress axis : x y z
#
# Youngs Moduli (GPa) = 162.12160 92.25840 53.95609
#
# Poissons Ratio (x) = 0.22418 0.08673
# Poissons Ratio (y) = 0.39394 0.06368
# Poissons Ratio (z) = 0.26061 0.10888
#
# Static dielectric constant tensor:
#      x y z
#    x 1.968320 0.000000 0.000000 
#    y 0.000000 1.721960 0.000000 
#    z 0.000000 0.000000 1.925970 
# 
# From -- ./inp_files/4805.got.cif
#   From: 2010.05.17/outbox.cif.g08.bks.cpg/sg42_3_cif.got.tgz:4805.got - 2010.06.03 19:03:34.
