data_PCOD9368645
_publ_section_title
;
Structure prediction by ZEFSAII (Michael W. Deem and Ramdas Pophale) SiO2 
 PCOD9368645
Probable space group: F M M 2
;
_chemical_formula_sum "Si O2"
_cell_formula_units_Z 116
_cell_length_a 7.846621
_cell_length_b 30.146085
_cell_length_c 25.973956
_cell_angle_alpha 90.000000
_cell_angle_beta 90.000000
_cell_angle_gamma 90.000000
_cell_volume 6144.006919
_symmetry_space_group_name_H-M "F M M 2"
_symmetry_group_IT_number 42
_symmetry_cell_setting 'orthorhombic'
loop_
_space_group_symop_operation_xyz
x,y,z
-x,-y,z
-x,y,z
x,-y,z
x,1/2+y,1/2+z
-x,1/2-y,1/2+z
-x,1/2+y,1/2+z
x,1/2-y,1/2+z
1/2+x,y,1/2+z
1/2-x,-y,1/2+z
1/2-x,y,1/2+z
1/2+x,-y,1/2+z
1/2+x,1/2+y,z
1/2-x,1/2-y,z
1/2-x,1/2+y,z
1/2+x,1/2-y,z
loop_
_atom_site_type_symbol
_atom_site_label
_atom_site_fract_x
_atom_site_fract_y
_atom_site_fract_z
Si Si1 0.796846 0.298472 0.049860
Si Si2 0.307936 0.930947 0.821106
Si Si3 0.292431 0.384280 0.726855
Si Si4 0.796671 0.449573 0.137469
Si Si5 0.500000 0.500000 0.801907
Si Si6 0.707303 0.947811 0.432425
Si Si7 0.204367 0.202331 0.667228
Si Si8 0.298243 0.102445 0.534276
O O1 0.750000 0.250000 0.027476
O O2 0.727688 0.299104 0.108692
O O3 0.738336 0.345384 0.026921
O O4 0.000000 0.300177 0.051244
O O5 0.500000 0.948271 0.813744
O O6 0.283497 0.889653 0.783263
O O7 0.280564 0.924380 0.881935
O O8 0.151758 0.962363 0.804368
O O9 0.500000 0.384295 0.728848
O O10 0.236630 0.424697 0.689148
O O11 0.235146 0.339276 0.699500
O O12 0.729166 0.500000 0.131038
O O13 0.767864 0.418340 0.087812
O O14 0.000000 0.453277 0.143308
O O15 0.500000 0.945975 0.429599
O O16 0.765836 0.925652 0.485408
O O17 0.752865 0.000000 0.430060
O O18 0.250000 0.250000 0.689669
O O19 0.000000 0.199042 0.663799
O O20 0.500000 0.096445 0.536089
#
# Coordination Sequence:
#
# PCOD9368645 Si02
#       8
#    16  16  16  16   4  16  16  16
#     4  10  19  35  56  82 113 146 191 238 286 348
#     4  12  24  38  63  89 112 159 204 243 300 346
#     4  10  20  37  57  81 119 158 191 244 301 344
#     4  10  21  35  53  76 114 161 193 228 289 344
#     4  12  22  44  60  82 128 148 194 268 284 340
#     4  10  20  39  59  79 115 156 196 250 293 333
#     4   9  18  33  56  81 112 152 189 236 298 346
#     4  11  22  35  56  83 116 155 191 237 294 344
#
# _framework density 18.880186999999999
#
# number of rings (size 3 to 8) (size 9 to 14) (size 15 to 20)
#    0.000    1.655    3.448    1.448    0.966    3.586 
#    0.000    0.000    0.000    0.828    0.000    3.862 
#    0.000    0.000    0.000    0.000    0.000    0.000 
#
# Total GULP energy -161506.516221 kJ/mol
# GULP energy per Si atom -5569.190215 kJ/mol
# Density = 1.883721 g / cm^3
# Si number density = 18.880187 Si / 1000 Ang^3
#
#
#
# Elastic Constant Matrix: (Units=GPa)
#
#
# Indices 1 2 3 4 5 6 
#
# 1 63.2233 5.0715 3.0854 0.0000 0.0000 0.0000
# 2 5.0715 90.6838 41.5520 0.0000 0.0000 0.0000
# 3 3.0854 41.5520 96.9104 0.0000 0.0000 0.0000
# 4 0.0000 0.0000 0.0000 35.8080 0.0000 0.0000
# 5 0.0000 0.0000 0.0000 0.0000 6.1934 0.0000
# 6 0.0000 0.0000 0.0000 0.0000 0.0000 15.1466
#
#
#
# Elastic Compliance Matrix: (Units=1/GPa)
#
#
# Indices 1 2 3 4 5 6 
#
# 1 0.015890 -0.000817 -0.000155 0.000000 0.000000 0.000000
# 2 -0.000817 0.013766 -0.005876 0.000000 0.000000 0.000000
# 3 -0.000155 -0.005876 0.012843 0.000000 0.000000 0.000000
# 4 0.000000 0.000000 0.000000 0.027927 0.000000 0.000000
# 5 0.000000 0.000000 0.000000 0.000000 0.161461 0.000000
# 6 0.000000 0.000000 0.000000 0.000000 0.000000 0.066022
#
#
# Mechanical properties :
#
#
# Convention : Reuss Voigt Hill
#
# Bulk Modulus (GPa) = 34.72121 38.91504 36.81812
# Shear Modulus (GPa) = 15.56630 24.83683 20.20157
#
# Velocity S-wave (km/s) = 2.87449 3.63091 3.27462
# Velocity P-wave (km/s) = 5.42652 6.18339 5.81728
#
# Compressibility (1/GPa) = 0.02880084
#
# Stress axis : x y z
#
# Youngs Moduli (GPa) = 62.93223 72.64507 77.86171
#
# Poissons Ratio (x) = 0.05938 0.01210
# Poissons Ratio (y) = 0.05144 0.45753
# Poissons Ratio (z) = 0.00978 0.42688
#
# Static dielectric constant tensor:
#      x y z
#    x 1.678250 0.000000 0.000000 
#    y 0.000000 1.685020 0.000000 
#    z 0.000000 0.000000 1.668050 
# 
# From -- ./inp_files/28457.got.cif
#   From: 2010.05.17/outbox.cif.g08.bks.cpg/sg42_15_cif.got.tgz:28457.got - 2010.06.03 19:03:34.
