data_PCOD9368792
_publ_section_title
;
Structure prediction by ZEFSAII (Michael W. Deem and Ramdas Pophale) SiO2 
 PCOD9368792
Probable space group: F M M 2
;
_chemical_formula_sum "Si O2"
_cell_formula_units_Z 112
_cell_length_a 25.510842
_cell_length_b 14.892470
_cell_length_c 12.926641
_cell_angle_alpha 90.000000
_cell_angle_beta 90.000000
_cell_angle_gamma 90.000000
_cell_volume 4911.082328
_symmetry_space_group_name_H-M "F M M 2"
_symmetry_group_IT_number 42
_symmetry_cell_setting 'orthorhombic'
loop_
_space_group_symop_operation_xyz
x,y,z
-x,-y,z
-x,y,z
x,-y,z
x,1/2+y,1/2+z
-x,1/2-y,1/2+z
-x,1/2+y,1/2+z
x,1/2-y,1/2+z
1/2+x,y,1/2+z
1/2-x,-y,1/2+z
1/2-x,y,1/2+z
1/2+x,-y,1/2+z
1/2+x,1/2+y,z
1/2-x,1/2-y,z
1/2-x,1/2+y,z
1/2+x,1/2-y,z
loop_
_atom_site_type_symbol
_atom_site_label
_atom_site_fract_x
_atom_site_fract_y
_atom_site_fract_z
Si Si1 0.558075 0.392611 0.607220
Si Si2 0.757281 0.143545 0.900822
Si Si3 0.346617 0.400112 0.492403
Si Si4 0.599344 0.224814 0.289306
Si Si5 0.061644 0.104091 0.189903
Si Si6 0.206331 0.322848 0.189195
Si Si7 0.369082 0.395426 0.982963
O O1 0.500000 0.379802 0.567203
O O2 0.565711 0.500000 0.627047
O O3 0.600016 0.352751 0.525939
O O4 0.566191 0.340632 0.714539
O O5 0.750000 0.250000 0.908255
O O6 0.775789 0.118671 0.786332
O O7 0.805106 0.116248 0.977506
O O8 0.697157 0.114993 0.908388
O O9 0.364507 0.500000 0.475513
O O10 0.311365 0.383332 0.594697
O O11 0.575477 0.323944 0.278803
O O12 0.656143 0.228893 0.234309
O O13 0.608993 0.174538 0.397703
O O14 0.000000 0.116176 0.160090
O O15 0.068016 0.000000 0.222128
O O16 0.100853 0.119253 0.091858
O O17 0.250000 0.250000 0.160274
O O18 0.379228 0.500000 0.953987
#
# Coordination Sequence:
#
# PCOD9368792 Si02
#       7
#    16  16  16  16  16  16  16
#     4   9  18  32  53  86 124 161 209 265 316 374
#     4  10  21  36  58  85 126 165 209 259 323 384
#     4  10  20  32  54  85 119 160 201 252 315 379
#     4  10  20  37  63  90 123 168 218 265 331 389
#     4  10  23  41  62  95 133 169 219 278 332 396
#     4   9  20  36  54  83 116 153 197 254 310 378
#     4  10  22  40  66  97 131 171 223 282 332 388
#
# _framework density 22.805562999999999
#
# number of rings (size 3 to 8) (size 9 to 14) (size 15 to 20)
#    0.000    2.286    0.000    1.714    6.000    5.143 
#    0.000    1.429    0.000   13.714    0.000    2.000 
#    0.000    0.000    0.000    0.000    0.000    0.857 
#
# Total GULP energy -156127.012629 kJ/mol
# GULP energy per Si atom -5575.964737 kJ/mol
# Density = 2.275366 g / cm^3
# Si number density = 22.805563 Si / 1000 Ang^3
#
#
#
# Elastic Constant Matrix: (Units=GPa)
#
#
# Indices 1 2 3 4 5 6 
#
# 1 70.9007 20.6452 11.0624 0.0000 0.0000 0.0000
# 2 20.6452 113.8366 32.6046 0.0000 0.0000 0.0000
# 3 11.0624 32.6046 40.1490 0.0000 0.0000 0.0000
# 4 0.0000 0.0000 0.0000 38.7079 0.0000 0.0000
# 5 0.0000 0.0000 0.0000 0.0000 -348.1713 0.0000
# 6 0.0000 0.0000 0.0000 0.0000 0.0000 36.6793
#
#
#
# Elastic Compliance Matrix: (Units=1/GPa)
#
#
# Indices 1 2 3 4 5 6 
#
# 1 0.015084 -0.002014 -0.002521 0.000000 0.000000 0.000000
# 2 -0.002014 0.011716 -0.008960 0.000000 0.000000 0.000000
# 3 -0.002521 -0.008960 0.032878 0.000000 0.000000 0.000000
# 4 0.000000 0.000000 0.000000 0.025834 0.000000 0.000000
# 5 0.000000 0.000000 0.000000 0.000000 -0.002872 0.000000
# 6 0.000000 0.000000 0.000000 0.000000 0.000000 0.027263
#
#
# Mechanical properties :
#
#
# Convention : Reuss Voigt Hill
#
# Bulk Modulus (GPa) = 30.59088 39.27896 34.93492
# Shear Modulus (GPa) = 33.83234 -43.85187 -5.00976
#
# Velocity S-wave (km/s) = 3.85582 -4.38980 -1.48374
# Velocity P-wave (km/s) = 5.76767 2.90396 3.52371
#
# Compressibility (1/GPa) = 0.03268948
#
# Stress axis : x y z
#
# Youngs Moduli (GPa) = 66.29598 85.35455 30.41571
#
# Poissons Ratio (x) = 0.17187 0.07668
# Poissons Ratio (y) = 0.13349 0.27251
# Poissons Ratio (z) = 0.16713 0.76474
#
# Static dielectric constant tensor:
#      x y z
#    x 1.960700 0.000000 0.000000 
#    y 0.000000 1.888950 0.000000 
#    z 0.000000 0.000000 1.904930 
# 
# From -- ./inp_files/16554.got.cif
#   From: 2010.05.17/outbox.cif.g08.bks.cpg/sg42_9_cif.got.tgz:16554.got - 2010.06.03 19:03:34.
