data_PCOD9368941
_publ_section_title
;
Structure prediction by ZEFSAII (Michael W. Deem and Ramdas Pophale) SiO2 
 PCOD9368941
Probable space group: F M M 2
;
_chemical_formula_sum "Si O2"
_cell_formula_units_Z 104
_cell_length_a 18.253844
_cell_length_b 14.608281
_cell_length_c 22.020260
_cell_angle_alpha 90.000000
_cell_angle_beta 90.000000
_cell_angle_gamma 90.000000
_cell_volume 5871.862691
_symmetry_space_group_name_H-M "F M M 2"
_symmetry_group_IT_number 42
_symmetry_cell_setting 'orthorhombic'
loop_
_space_group_symop_operation_xyz
x,y,z
-x,-y,z
-x,y,z
x,-y,z
x,1/2+y,1/2+z
-x,1/2-y,1/2+z
-x,1/2+y,1/2+z
x,1/2-y,1/2+z
1/2+x,y,1/2+z
1/2-x,-y,1/2+z
1/2-x,y,1/2+z
1/2+x,-y,1/2+z
1/2+x,1/2+y,z
1/2-x,1/2-y,z
1/2-x,1/2+y,z
1/2+x,1/2-y,z
loop_
_atom_site_type_symbol
_atom_site_label
_atom_site_fract_x
_atom_site_fract_y
_atom_site_fract_z
Si Si1 0.916679 0.299944 0.859710
Si Si2 0.086807 0.105799 0.230996
Si Si3 0.413961 0.396191 0.710311
Si Si4 0.832378 0.736203 0.645639
Si Si5 0.250000 0.250000 0.027280
Si Si6 0.638643 0.603457 0.845767
Si Si7 0.782603 0.893211 0.424839
O O1 0.900858 0.330975 0.790186
O O2 0.907329 0.190957 0.867313
O O3 0.857587 0.350735 0.900497
O O4 0.000000 0.327294 0.872729
O O5 0.132251 0.146839 0.175349
O O6 0.000000 0.110028 0.217603
O O7 0.105648 0.000000 0.244390
O O8 0.500000 0.378456 0.724331
O O9 0.408491 0.500000 0.686457
O O10 0.382473 0.321032 0.665283
O O11 0.368492 0.392660 0.772954
O O12 0.750000 0.750000 0.671519
O O13 0.817702 0.735064 0.573626
O O14 0.240908 0.336552 0.983782
O O15 0.614131 0.500000 0.863340
O O16 0.719719 0.616503 0.873145
O O17 0.790590 0.000000 0.437890
#
# Coordination Sequence:
#
# PCOD9368941 Si02
#       7
#    16  16  16  16   8  16  16
#     4  11  21  36  61  91 125 152 183 236 299 363
#     4  10  21  37  58  87 121 152 182 227 292 358
#     4  10  20  36  59  91 125 150 180 230 296 360
#     4  10  23  36  59  84 111 154 193 244 280 338
#     4  10  24  42  58  82 110 152 208 248 288 326
#     4  10  20  34  62  93 118 152 188 232 292 354
#     4  11  23  41  63  83 115 154 200 247 288 345
#
# _framework density 17.711586
#
# number of rings (size 3 to 8) (size 9 to 14) (size 15 to 20)
#    0.462    1.231    3.077    1.385    2.154    3.692 
#    0.000    1.538    0.000    0.000    0.000    0.000 
#    0.000    0.000    0.000    0.000    0.000    0.000 
#
# Total GULP energy -144970.468021 kJ/mol
# GULP energy per Si atom -5575.787232 kJ/mol
# Density = 1.767127 g / cm^3
# Si number density = 17.711586 Si / 1000 Ang^3
#
#
#
# Elastic Constant Matrix: (Units=GPa)
#
#
# Indices 1 2 3 4 5 6 
#
# 1 72.7520 54.5070 55.8335 0.0000 0.0000 0.0000
# 2 54.5070 133.0300 53.4030 0.0000 0.0000 0.0000
# 3 55.8335 53.4030 92.7324 0.0000 0.0000 0.0000
# 4 0.0000 0.0000 0.0000 8.0329 0.0000 0.0000
# 5 0.0000 0.0000 0.0000 0.0000 -16.8401 0.0000
# 6 0.0000 0.0000 0.0000 0.0000 0.0000 26.5195
#
#
#
# Elastic Compliance Matrix: (Units=1/GPa)
#
#
# Indices 1 2 3 4 5 6 
#
# 1 0.029198 -0.006381 -0.013905 0.000000 0.000000 0.000000
# 2 -0.006381 0.011172 -0.002592 0.000000 0.000000 0.000000
# 3 -0.013905 -0.002592 0.020648 0.000000 0.000000 0.000000
# 4 0.000000 0.000000 0.000000 0.124489 0.000000 0.000000
# 5 0.000000 0.000000 0.000000 0.000000 -0.059382 0.000000
# 6 0.000000 0.000000 0.000000 0.000000 0.000000 0.037708
#
#
# Mechanical properties :
#
#
# Convention : Reuss Voigt Hill
#
# Bulk Modulus (GPa) = 65.52079 69.55568 67.53823
# Shear Modulus (GPa) = 23.29098 12.52718 17.90908
#
# Velocity S-wave (km/s) = 3.63025 2.66237 3.18331
# Velocity P-wave (km/s) = 7.39223 6.98624 7.19210
#
# Compressibility (1/GPa) = 0.01526233
#
# Stress axis : x y z
#
# Youngs Moduli (GPa) = 34.24948 89.50809 48.43063
#
# Poissons Ratio (x) = 0.57119 0.67341
# Poissons Ratio (y) = 0.21856 0.12552
# Poissons Ratio (z) = 0.47623 0.23197
#
# Static dielectric constant tensor:
#      x y z
#    x 1.604150 0.000000 0.000000 
#    y 0.000000 1.622660 0.000000 
#    z 0.000000 0.000000 1.581730 
# 
# From -- ./inp_files/25935.got.cif
#   From: 2010.05.17/outbox.cif.g08.bks.cpg/sg42_13_cif.got.tgz:25935.got - 2010.06.03 19:03:34.
