data_PCOD9368203
_publ_section_title
;
Structure prediction by ZEFSAII (Michael W. Deem and Ramdas Pophale) SiO2 
 PCOD9368203
Probable space group: F M M 2
;
_chemical_formula_sum "Si O2"
_cell_formula_units_Z 104
_cell_length_a 18.370234
_cell_length_b 14.525353
_cell_length_c 19.674748
_cell_angle_alpha 90.000000
_cell_angle_beta 90.000000
_cell_angle_gamma 90.000000
_cell_volume 5249.894335
_symmetry_space_group_name_H-M "F M M 2"
_symmetry_group_IT_number 42
_symmetry_cell_setting 'orthorhombic'
loop_
_space_group_symop_operation_xyz
x,y,z
-x,-y,z
-x,y,z
x,-y,z
x,1/2+y,1/2+z
-x,1/2-y,1/2+z
-x,1/2+y,1/2+z
x,1/2-y,1/2+z
1/2+x,y,1/2+z
1/2-x,-y,1/2+z
1/2-x,y,1/2+z
1/2+x,-y,1/2+z
1/2+x,1/2+y,z
1/2-x,1/2-y,z
1/2-x,1/2+y,z
1/2+x,1/2-y,z
loop_
_atom_site_type_symbol
_atom_site_label
_atom_site_fract_x
_atom_site_fract_y
_atom_site_fract_z
Si Si1 0.293508 0.392652 0.961560
Si Si2 0.750000 0.250000 0.711560
Si Si3 0.240815 0.105616 0.612426
Si Si4 0.740815 0.394384 0.310694
Si Si5 0.919609 0.893638 0.588082
Si Si6 0.920016 0.744244 0.961560
Si Si7 0.419609 0.606362 0.335038
O O1 0.316620 0.500000 0.961560
O O2 0.249884 0.378466 0.891354
O O3 0.358804 0.320995 0.961560
O O4 0.249884 0.378466 0.031766
O O5 0.715279 0.178226 0.657537
O O6 0.784721 0.178226 0.765583
O O7 0.155046 0.118244 0.629371
O O8 0.261491 0.000000 0.626298
O O9 0.761491 0.500000 0.296822
O O10 0.655046 0.381756 0.293749
O O11 0.915888 0.822190 0.526594
O O12 0.000000 0.883050 0.620979
O O13 0.916165 0.000000 0.562786
O O14 0.915888 0.677810 0.896527
O O15 0.000000 0.788529 0.961560
O O16 0.500000 0.616950 0.302141
O O17 0.416165 0.500000 0.360334
#
# Coordination Sequence:
#
# PCOD9368203 Si02
#       7
#    16   8  16  16  16  16  16
#     4  10  21  37  55  75 103 139 179 218 254 302
#     4  12  22  34  54  78 108 138 170 218 264 304
#     4  10  21  36  55  79 105 137 176 214 257 309
#     4  10  21  36  55  79 105 137 176 214 257 309
#     4   9  17  30  49  74 104 135 168 210 257 305
#     4  10  18  28  47  77 107 134 168 210 260 310
#     4   9  17  30  49  74 104 135 168 210 257 305
#
# _framework density 19.809923000000001
#
# number of rings (size 3 to 8) (size 9 to 14) (size 15 to 20)
#    0.000    2.154    0.000    3.692    0.000    6.462 
#    0.000    0.769    0.000    1.846    0.000    4.308 
#    0.000    0.000    0.000    0.000    0.000    0.000 
#
# Total GULP energy -144783.612051 kJ/mol
# GULP energy per Si atom -5568.600464 kJ/mol
# Density = 1.976484 g / cm^3
# Si number density = 19.809923 Si / 1000 Ang^3
#
#
#
# Elastic Constant Matrix: (Units=GPa)
#
#
# Indices 1 2 3 4 5 6 
#
# 1 101.6579 53.5717 11.8831 0.0000 0.0000 0.0000
# 2 53.5717 108.0008 47.8133 0.0000 0.0000 0.0000
# 3 11.8831 47.8133 98.4974 0.0000 0.0000 0.0000
# 4 0.0000 0.0000 0.0000 12.1733 0.0000 0.0000
# 5 0.0000 0.0000 0.0000 0.0000 9.4770 0.0000
# 6 0.0000 0.0000 0.0000 0.0000 0.0000 30.1249
#
#
#
# Elastic Compliance Matrix: (Units=1/GPa)
#
#
# Indices 1 2 3 4 5 6 
#
# 1 0.013647 -0.007694 0.002088 0.000000 0.000000 0.000000
# 2 -0.007694 0.016132 -0.006902 0.000000 0.000000 0.000000
# 3 0.002088 -0.006902 0.013251 0.000000 0.000000 0.000000
# 4 0.000000 0.000000 0.000000 0.082147 0.000000 0.000000
# 5 0.000000 0.000000 0.000000 0.000000 0.105518 0.000000
# 6 0.000000 0.000000 0.000000 0.000000 0.000000 0.033195
#
#
# Mechanical properties :
#
#
# Convention : Reuss Voigt Hill
#
# Bulk Modulus (GPa) = 55.51247 59.41027 57.46137
# Shear Modulus (GPa) = 16.95422 23.34757 20.15089
#
# Velocity S-wave (km/s) = 2.92866 3.43677 3.19284
# Velocity P-wave (km/s) = 6.28645 6.76785 6.53158
#
# Compressibility (1/GPa) = 0.01801397
#
# Stress axis : x y z
#
# Youngs Moduli (GPa) = 73.27375 61.99042 75.46481
#
# Poissons Ratio (x) = 0.47696 -0.15761
# Poissons Ratio (y) = 0.56378 0.52089
# Poissons Ratio (z) = -0.15303 0.42788
#
# Static dielectric constant tensor:
#      x y z
#    x 1.765190 0.000000 0.000000 
#    y 0.000000 1.706360 0.000000 
#    z 0.000000 0.000000 1.710100 
# 
# From -- ./inp_files/25926.got.cif
#   From: 2010.05.17/outbox.cif.g08.bks.cpg/sg42_13_cif.got.tgz:25926.got - 2010.06.03 19:03:34.
