data_PCOD9368796
_publ_section_title
;
Structure prediction by ZEFSAII (Michael W. Deem and Ramdas Pophale) SiO2 
 PCOD9368796
Probable space group: F M M 2
;
_chemical_formula_sum "Si O2"
_cell_formula_units_Z 104
_cell_length_a 9.367270
_cell_length_b 26.540654
_cell_length_c 21.624652
_cell_angle_alpha 90.000000
_cell_angle_beta 90.000000
_cell_angle_gamma 90.000000
_cell_volume 5376.179814
_symmetry_space_group_name_H-M "F M M 2"
_symmetry_group_IT_number 42
_symmetry_cell_setting 'orthorhombic'
loop_
_space_group_symop_operation_xyz
x,y,z
-x,-y,z
-x,y,z
x,-y,z
x,1/2+y,1/2+z
-x,1/2-y,1/2+z
-x,1/2+y,1/2+z
x,1/2-y,1/2+z
1/2+x,y,1/2+z
1/2-x,-y,1/2+z
1/2-x,y,1/2+z
1/2+x,-y,1/2+z
1/2+x,1/2+y,z
1/2-x,1/2-y,z
1/2-x,1/2+y,z
1/2+x,1/2-y,z
loop_
_atom_site_type_symbol
_atom_site_label
_atom_site_fract_x
_atom_site_fract_y
_atom_site_fract_z
Si Si1 0.337790 0.907433 0.778680
Si Si2 0.329942 0.300622 0.576980
Si Si3 0.834437 0.388435 0.507912
Si Si4 0.326734 0.000000 0.463012
Si Si5 0.831189 0.000000 0.817987
Si Si6 0.344220 0.153289 0.370001
Si Si7 0.750000 0.250000 0.806850
Si Si8 0.656217 0.315522 0.194902
O O1 0.500000 0.924418 0.786664
O O2 0.229765 0.952790 0.781608
O O3 0.285863 0.873415 0.835818
O O4 0.329729 0.872745 0.718198
O O5 0.500000 0.297637 0.568424
O O6 0.250000 0.250000 0.552046
O O7 0.263900 0.352112 0.549073
O O8 0.284159 0.302623 0.649157
O O9 0.786833 0.446710 0.495624
O O10 0.836706 0.360806 0.441315
O O11 0.000000 0.389545 0.530544
O O12 0.500000 0.000000 0.461936
O O13 0.280950 0.000000 0.390452
O O14 0.000000 0.000000 0.820049
O O15 0.500000 0.134218 0.347433
O O16 0.333342 0.211402 0.350596
O O17 0.660856 0.216841 0.757847
O O18 0.500000 0.307951 0.164902
#
# Coordination Sequence:
#
# PCOD9368796 Si02
#       8
#    16  16  16   8   8  16   8  16
#     4  10  21  35  56  89 124 155 195 246 297 352
#     4  12  26  43  64  89 120 159 206 257 309 364
#     4  10  21  40  63  90 124 162 205 249 302 364
#     4   9  18  37  64  89 118 159 204 248 297 361
#     4  11  19  35  60  89 122 161 202 240 295 361
#     4  10  20  35  57  87 121 159 198 241 294 361
#     4  10  20  32  58  92 122 158 198 242 290 354
#     4  10  21  39  60  85 120 160 201 243 295 357
#
# _framework density 19.344591000000001
#
# number of rings (size 3 to 8) (size 9 to 14) (size 15 to 20)
#    0.000    1.692    2.308    2.538    1.077    4.308 
#    0.000    1.154    0.000    1.846    0.000    0.000 
#    0.000    0.000    0.000    0.000    0.000    0.000 
#
# Total GULP energy -144911.071592 kJ/mol
# GULP energy per Si atom -5573.502754 kJ/mol
# Density = 1.930056 g / cm^3
# Si number density = 19.344591 Si / 1000 Ang^3
#
#
#
# Elastic Constant Matrix: (Units=GPa)
#
#
# Indices 1 2 3 4 5 6 
#
# 1 112.9193 50.7228 22.9253 0.0000 0.0000 0.0000
# 2 50.7228 142.4982 37.2378 0.0000 0.0000 0.0000
# 3 22.9253 37.2378 38.2077 0.0000 0.0000 0.0000
# 4 0.0000 0.0000 0.0000 22.8187 0.0000 0.0000
# 5 0.0000 0.0000 0.0000 0.0000 24.8741 0.0000
# 6 0.0000 0.0000 0.0000 0.0000 0.0000 26.3877
#
#
#
# Elastic Compliance Matrix: (Units=1/GPa)
#
#
# Indices 1 2 3 4 5 6 
#
# 1 0.010919 -0.002918 -0.003708 0.000000 0.000000 0.000000
# 2 -0.002918 0.010195 -0.008186 0.000000 0.000000 0.000000
# 3 -0.003708 -0.008186 0.036376 0.000000 0.000000 0.000000
# 4 0.000000 0.000000 0.000000 0.043824 0.000000 0.000000
# 5 0.000000 0.000000 0.000000 0.000000 0.040202 0.000000
# 6 0.000000 0.000000 0.000000 0.000000 0.000000 0.037897
#
#
# Mechanical properties :
#
#
# Convention : Reuss Voigt Hill
#
# Bulk Modulus (GPa) = 35.88475 57.26633 46.57554
# Shear Modulus (GPa) = 22.90160 26.99873 24.95016
#
# Velocity S-wave (km/s) = 3.44448 3.73992 3.59524
# Velocity P-wave (km/s) = 5.86599 6.95104 6.43144
#
# Compressibility (1/GPa) = 0.02786699
#
# Stress axis : x y z
#
# Youngs Moduli (GPa) = 91.58040 98.08390 27.49088
#
# Poissons Ratio (x) = 0.28619 0.10194
# Poissons Ratio (y) = 0.26721 0.22504
# Poissons Ratio (z) = 0.33959 0.80290
#
# Static dielectric constant tensor:
#      x y z
#    x 1.684620 0.000000 0.000000 
#    y 0.000000 1.779320 0.000000 
#    z 0.000000 0.000000 1.662550 
# 
# From -- ./inp_files/23850.got.cif
#   From: 2010.05.17/outbox.cif.g08.bks.cpg/sg42_12_cif.got.tgz:23850.got - 2010.06.03 19:03:34.
