data_PCOD9368541
_publ_section_title
;
Structure prediction by ZEFSAII (Michael W. Deem and Ramdas Pophale) SiO2 
 PCOD9368541
Probable space group: F M M 2
;
_chemical_formula_sum "Si O2"
_cell_formula_units_Z 80
_cell_length_a 13.726509
_cell_length_b 16.378456
_cell_length_c 18.618633
_cell_angle_alpha 90.000000
_cell_angle_beta 90.000000
_cell_angle_gamma 90.000000
_cell_volume 4185.822894
_symmetry_space_group_name_H-M "F M M 2"
_symmetry_group_IT_number 42
_symmetry_cell_setting 'orthorhombic'
loop_
_space_group_symop_operation_xyz
x,y,z
-x,-y,z
-x,y,z
x,-y,z
x,1/2+y,1/2+z
-x,1/2-y,1/2+z
-x,1/2+y,1/2+z
x,1/2-y,1/2+z
1/2+x,y,1/2+z
1/2-x,-y,1/2+z
1/2-x,y,1/2+z
1/2+x,-y,1/2+z
1/2+x,1/2+y,z
1/2-x,1/2-y,z
1/2-x,1/2+y,z
1/2+x,1/2-y,z
loop_
_atom_site_type_symbol
_atom_site_label
_atom_site_fract_x
_atom_site_fract_y
_atom_site_fract_z
Si Si1 0.313212 0.099861 0.018730
Si Si2 0.395856 0.092754 0.469008
Si Si3 0.616008 0.095758 0.176687
Si Si4 0.611938 0.327872 0.376025
Si Si5 0.320077 0.147428 0.329221
O O1 0.341462 0.120354 0.099752
O O2 0.320526 0.000000 0.009999
O O3 0.202654 0.127982 0.002133
O O4 0.378612 0.143760 0.958677
O O5 0.500000 0.133326 0.484103
O O6 0.378436 0.089538 0.383384
O O7 0.400045 0.000000 0.496077
O O8 0.500000 0.103542 0.173220
O O9 0.653711 0.142497 0.246327
O O10 0.639888 0.000000 0.187362
O O11 0.500000 0.341106 0.352241
O O12 0.643721 0.234547 0.361002
O O13 0.704987 0.371522 0.338628
#
# Coordination Sequence:
#
# PCOD9368541 Si02
#       5
#    16  16  16  16  16
#     4   9  19  34  53  79 105 132 173 215 252 301
#     4   9  16  29  51  76 103 136 172 212 255 299
#     4  10  19  33  55  79 103 132 168 215 262 299
#     4  10  20  35  53  73 102 138 172 209 253 301
#     4  10  20  33  51  77 105 133 172 213 251 304
#
# _framework density 19.112131000000002
#
# number of rings (size 3 to 8) (size 9 to 14) (size 15 to 20)
#    0.000    2.400    0.000    3.000    0.000    3.600 
#    0.000    9.000    0.000    1.200    0.000    0.000 
#    0.000    0.000    0.000    0.000    0.000    0.000 
#
# Total GULP energy -111342.893745 kJ/mol
# GULP energy per Si atom -5567.144687 kJ/mol
# Density = 1.906863 g / cm^3
# Si number density = 19.112131 Si / 1000 Ang^3
#
#
#
# Elastic Constant Matrix: (Units=GPa)
#
#
# Indices 1 2 3 4 5 6 
#
# 1 123.4684 18.2596 33.6650 0.0000 0.0000 0.0000
# 2 18.2596 30.1194 38.6946 0.0000 0.0000 0.0000
# 3 33.6650 38.6946 142.9646 0.0000 0.0000 0.0000
# 4 0.0000 0.0000 0.0000 19.6306 0.0000 0.0000
# 5 0.0000 0.0000 0.0000 0.0000 12.7522 0.0000
# 6 0.0000 0.0000 0.0000 0.0000 0.0000 15.0089
#
#
#
# Elastic Compliance Matrix: (Units=1/GPa)
#
#
# Indices 1 2 3 4 5 6 
#
# 1 0.008986 -0.004184 -0.000984 0.000000 0.000000 0.000000
# 2 -0.004184 0.052848 -0.013319 0.000000 0.000000 0.000000
# 3 -0.000984 -0.013319 0.010831 0.000000 0.000000 0.000000
# 4 0.000000 0.000000 0.000000 0.050941 0.000000 0.000000
# 5 0.000000 0.000000 0.000000 0.000000 0.078418 0.000000
# 6 0.000000 0.000000 0.000000 0.000000 0.000000 0.066627
#
#
# Mechanical properties :
#
#
# Convention : Reuss Voigt Hill
#
# Bulk Modulus (GPa) = 28.01678 53.08788 40.55233
# Shear Modulus (GPa) = 15.74697 23.20722 19.47709
#
# Velocity S-wave (km/s) = 2.87352 3.48841 3.19579
# Velocity P-wave (km/s) = 5.06957 6.63798 5.90607
#
# Compressibility (1/GPa) = 0.03569290
#
# Stress axis : x y z
#
# Youngs Moduli (GPa) = 111.28147 18.92211 92.32648
#
# Poissons Ratio (x) = 0.07917 0.09081
# Poissons Ratio (y) = 0.46563 1.22965
# Poissons Ratio (z) = 0.10945 0.25201
#
# Static dielectric constant tensor:
#      x y z
#    x 1.713750 0.000000 0.000000 
#    y 0.000000 1.768270 0.000000 
#    z 0.000000 0.000000 1.637800 
# 
# From -- ./inp_files/13807.got.cif
#   From: 2010.05.17/outbox.cif.g08.bks.cpg/sg42_7_cif.got.tgz:13807.got - 2010.06.03 19:03:34.
