data_PCOD9368818
_publ_section_title
;
Structure prediction by ZEFSAII (Michael W. Deem and Ramdas Pophale) SiO2 
 PCOD9368818
Probable space group: F M M 2
;
_chemical_formula_sum "Si O2"
_cell_formula_units_Z 96
_cell_length_a 7.541804
_cell_length_b 30.500404
_cell_length_c 19.934967
_cell_angle_alpha 90.000000
_cell_angle_beta 90.000000
_cell_angle_gamma 90.000000
_cell_volume 4585.601962
_symmetry_space_group_name_H-M "F M M 2"
_symmetry_group_IT_number 42
_symmetry_cell_setting 'orthorhombic'
loop_
_space_group_symop_operation_xyz
x,y,z
-x,-y,z
-x,y,z
x,-y,z
x,1/2+y,1/2+z
-x,1/2-y,1/2+z
-x,1/2+y,1/2+z
x,1/2-y,1/2+z
1/2+x,y,1/2+z
1/2-x,-y,1/2+z
1/2-x,y,1/2+z
1/2+x,-y,1/2+z
1/2+x,1/2+y,z
1/2-x,1/2-y,z
1/2-x,1/2+y,z
1/2+x,1/2-y,z
loop_
_atom_site_type_symbol
_atom_site_label
_atom_site_fract_x
_atom_site_fract_y
_atom_site_fract_z
Si Si1 0.706760 0.370017 0.473860
Si Si2 0.285521 0.449516 0.879887
Si Si3 0.794324 0.879621 0.622102
Si Si4 0.783549 0.449469 0.228510
Si Si5 0.712749 0.300826 0.367234
Si Si6 0.711222 0.699113 0.216080
O O1 0.500000 0.357829 0.483136
O O2 0.717240 0.415720 0.434423
O O3 0.785493 0.374490 0.548127
O O4 0.784092 0.333263 0.424024
O O5 0.500000 0.448141 0.881401
O O6 0.232425 0.500000 0.891648
O O7 0.228112 0.437044 0.804195
O O8 0.717485 0.916475 0.671770
O O9 0.787845 0.834074 0.662086
O O10 0.000000 0.892497 0.612205
O O11 0.732836 0.500000 0.216529
O O12 0.000000 0.448173 0.229097
O O13 0.500000 0.306202 0.364254
O O14 0.750000 0.250000 0.382106
O O15 0.779339 0.310303 0.291711
O O16 0.500000 0.693172 0.215690
O O17 0.750000 0.750000 0.201751
#
# Coordination Sequence:
#
# PCOD9368818 Si02
#       6
#    16  16  16  16  16  16
#     4  10  21  34  49  75 108 136 164 202 250 303
#     4   9  18  33  53  75  98 129 172 215 250 291
#     4  10  20  33  51  76 105 135 167 204 248 300
#     4   8  15  30  52  75  98 129 171 213 250 293
#     4   9  19  35  53  74  99 129 168 210 250 296
#     4  10  20  35  55  75  98 130 168 210 252 295
#
# _framework density 20.935092999999998
#
# number of rings (size 3 to 8) (size 9 to 14) (size 15 to 20)
#    0.000    2.667    0.000    2.500    0.000    3.667 
#    0.000    3.333    0.000    1.500    0.000    0.000 
#    0.000    0.000    0.000    0.000    0.000    0.000 
#
# Total GULP energy -133984.462430 kJ/mol
# GULP energy per Si atom -5582.685935 kJ/mol
# Density = 2.088744 g / cm^3
# Si number density = 20.935093 Si / 1000 Ang^3
#
#
#
# Elastic Constant Matrix: (Units=GPa)
#
#
# Indices 1 2 3 4 5 6 
#
# 1 51.1605 -15.1869 -3.4080 0.0000 0.0000 0.0000
# 2 -15.1869 99.3466 111.5947 0.0000 0.0000 0.0000
# 3 -3.4080 111.5947 196.8152 0.0000 0.0000 0.0000
# 4 0.0000 0.0000 0.0000 -175.9859 0.0000 0.0000
# 5 0.0000 0.0000 0.0000 0.0000 -4.6411 0.0000
# 6 0.0000 0.0000 0.0000 0.0000 0.0000 13.0049
#
#
#
# Elastic Compliance Matrix: (Units=1/GPa)
#
#
# Indices 1 2 3 4 5 6 
#
# 1 0.021630 0.007948 -0.004132 0.000000 0.000000 0.000000
# 2 0.007948 0.030643 -0.017237 0.000000 0.000000 0.000000
# 3 -0.004132 -0.017237 0.014783 0.000000 0.000000 0.000000
# 4 0.000000 0.000000 0.000000 -0.005682 0.000000 0.000000
# 5 0.000000 0.000000 0.000000 0.000000 -0.215468 0.000000
# 6 0.000000 0.000000 0.000000 0.000000 0.000000 0.076894
#
#
# Mechanical properties :
#
#
# Convention : Reuss Voigt Hill
#
# Bulk Modulus (GPa) = 24.86686 59.25797 42.06241
# Shear Modulus (GPa) = -135.30440 -16.56958 -75.93699
#
# Velocity S-wave (km/s) = -8.04803 -2.81637 -6.02921
# Velocity P-wave (km/s) = 8.62885 4.21795 5.32287
#
# Compressibility (1/GPa) = 0.04021416
#
# Stress axis : x y z
#
# Youngs Moduli (GPa) = 46.23113 32.63422 67.64667
#
# Poissons Ratio (x) = -0.25938 0.27951
# Poissons Ratio (y) = -0.36745 1.16602
# Poissons Ratio (z) = 0.19103 0.56251
#
# Static dielectric constant tensor:
#      x y z
#    x 1.791940 0.000000 0.000000 
#    y 0.000000 1.712160 0.000000 
#    z 0.000000 0.000000 1.755350 
# 
# From -- ./inp_files/19143.got.cif
#   From: 2010.05.17/outbox.cif.g08.bks.cpg/sg42_10_cif.got.tgz:19143.got - 2010.06.03 19:03:34.
