data_PCOD9368552
_publ_section_title
;
Structure prediction by ZEFSAII (Michael W. Deem and Ramdas Pophale) SiO2 
 PCOD9368552
Probable space group: F M M 2
;
_chemical_formula_sum "Si O2"
_cell_formula_units_Z 88
_cell_length_a 35.996897
_cell_length_b 22.423559
_cell_length_c 5.329229
_cell_angle_alpha 90.000000
_cell_angle_beta 90.000000
_cell_angle_gamma 90.000000
_cell_volume 4301.639303
_symmetry_space_group_name_H-M "F M M 2"
_symmetry_group_IT_number 42
_symmetry_cell_setting 'orthorhombic'
loop_
_space_group_symop_operation_xyz
x,y,z
-x,-y,z
-x,y,z
x,-y,z
x,1/2+y,1/2+z
-x,1/2-y,1/2+z
-x,1/2+y,1/2+z
x,1/2-y,1/2+z
1/2+x,y,1/2+z
1/2-x,-y,1/2+z
1/2-x,y,1/2+z
1/2+x,-y,1/2+z
1/2+x,1/2+y,z
1/2-x,1/2-y,z
1/2-x,1/2+y,z
1/2+x,1/2-y,z
loop_
_atom_site_type_symbol
_atom_site_label
_atom_site_fract_x
_atom_site_fract_y
_atom_site_fract_z
Si Si1 0.225022 0.500000 0.597100
Si Si2 0.274967 0.367721 0.095837
Si Si3 0.543666 0.139649 0.036738
Si Si4 0.647505 0.819364 0.676945
Si Si5 0.544607 0.566611 0.042323
Si Si6 0.616823 0.314324 0.675966
O O1 0.249051 0.500000 0.342894
O O2 0.206933 0.565412 0.601287
O O3 0.248118 0.361454 0.337832
O O4 0.309139 0.322912 0.117490
O O5 0.500000 0.156842 0.034077
O O6 0.554516 0.110355 0.771291
O O7 0.549669 0.092789 0.263916
O O8 0.573595 0.190101 0.103883
O O9 0.634065 0.751203 0.705537
O O10 0.624995 0.845215 0.441029
O O11 0.637683 0.846696 0.946775
O O12 0.500000 0.561787 0.070886
O O13 0.560459 0.500000 0.068078
#
# Coordination Sequence:
#
# PCOD9368552 Si02
#       6
#     8  16  16  16  16  16
#     4   8  16  30  54  84 110 134 171 220 271 312
#     4  10  19  35  60  88 110 142 185 229 270 333
#     4  10  19  33  56  80 105 147 197 241 282 336
#     4  10  21  38  57  78 113 153 184 223 296 327
#     4   9  17  30  52  81 108 136 178 238 295 335
#     4  10  21  38  54  76 110 157 185 234 288 333
#
# _framework density 20.457318000000001
#
# number of rings (size 3 to 8) (size 9 to 14) (size 15 to 20)
#    0.000    2.364    0.000    2.727    0.000    2.182 
#    0.000   14.545   12.000    0.000    0.000    0.000 
#    0.000    0.000    0.000    0.000    0.000    0.000 
#
# Total GULP energy -122515.568269 kJ/mol
# GULP energy per Si atom -5568.889467 kJ/mol
# Density = 2.041076 g / cm^3
# Si number density = 20.457318 Si / 1000 Ang^3
#
#
#
# Elastic Constant Matrix: (Units=GPa)
#
#
# Indices 1 2 3 4 5 6 
#
# 1 83.0325 29.1615 12.5285 -0.0050 -0.0125 -0.0040
# 2 29.1615 49.3024 -5.7818 0.0024 0.0004 -0.0020
# 3 12.5285 -5.7818 156.0096 0.0054 0.0002 -0.0046
# 4 -0.0050 0.0024 0.0054 10.7445 0.0073 0.0013
# 5 -0.0125 0.0004 0.0002 0.0073 28.3393 0.0004
# 6 -0.0040 -0.0020 -0.0046 0.0013 0.0004 1.4631
#
#
#
# Elastic Compliance Matrix: (Units=1/GPa)
#
#
# Indices 1 2 3 4 5 6 
#
# 1 0.015589 -0.009409 -0.001601 0.000010 0.000007 0.000025
# 2 -0.009409 0.026050 0.001721 -0.000011 -0.000005 0.000016
# 3 -0.001601 0.001721 0.006602 -0.000004 -0.000001 0.000019
# 4 0.000010 -0.000011 -0.000004 0.093071 -0.000024 -0.000082
# 5 0.000007 -0.000005 -0.000001 -0.000024 0.035287 -0.000010
# 6 0.000025 0.000016 0.000019 -0.000082 -0.000010 0.683478
#
#
# Mechanical properties :
#
#
# Convention : Reuss Voigt Hill
#
# Bulk Modulus (GPa) = 33.70975 40.01788 36.86381
# Shear Modulus (GPa) = 5.62720 24.93847 15.28283
#
# Velocity S-wave (km/s) = 1.66032 3.49528 2.73620
# Velocity P-wave (km/s) = 4.49326 5.99111 5.29541
#
# Compressibility (1/GPa) = 0.02966501
#
# Stress axis : x y z
#
# Youngs Moduli (GPa) = 64.14644 38.38799 151.46516
#
# Poissons Ratio (x) = 0.36117 0.24243
# Poissons Ratio (y) = 0.60352 -0.26067
# Poissons Ratio (z) = 0.10267 -0.06606
#
# Static dielectric constant tensor:
#      x y z
#    x 1.734950 0.000000 0.000000 
#    y 0.000000 1.734040 -0.000010 
#    z 0.000000 -0.000010 1.814620 
# 
# From -- ./inp_files/1039.got.cif
#   From: 2010.05.17/outbox.cif.g08.bks.cpg/sg42_1_cif.got.tgz:1039.got - 2010.06.03 19:03:34.
