data_PCOD9368457
_publ_section_title
;
Structure prediction by ZEFSAII (Michael W. Deem and Ramdas Pophale) SiO2 
 PCOD9368457
Probable space group: F M M 2
;
_chemical_formula_sum "Si O2"
_cell_formula_units_Z 112
_cell_length_a 14.325802
_cell_length_b 11.090038
_cell_length_c 33.039211
_cell_angle_alpha 90.000000
_cell_angle_beta 90.000000
_cell_angle_gamma 90.000000
_cell_volume 5249.061319
_symmetry_space_group_name_H-M "F M M 2"
_symmetry_group_IT_number 42
_symmetry_cell_setting 'orthorhombic'
loop_
_space_group_symop_operation_xyz
x,y,z
-x,-y,z
-x,y,z
x,-y,z
x,1/2+y,1/2+z
-x,1/2-y,1/2+z
-x,1/2+y,1/2+z
x,1/2-y,1/2+z
1/2+x,y,1/2+z
1/2-x,-y,1/2+z
1/2-x,y,1/2+z
1/2+x,-y,1/2+z
1/2+x,1/2+y,z
1/2-x,1/2-y,z
1/2-x,1/2+y,z
1/2+x,1/2-y,z
loop_
_atom_site_type_symbol
_atom_site_label
_atom_site_fract_x
_atom_site_fract_y
_atom_site_fract_z
Si Si1 0.653155 0.370313 0.750000
Si Si2 0.112748 0.365449 0.341927
Si Si3 0.135712 0.370868 0.715962
Si Si4 0.386420 0.133882 0.894136
Si Si5 0.886279 0.134045 0.487835
Si Si6 0.888992 0.867794 0.036479
Si Si7 0.185047 0.633539 0.626383
O O1 0.608605 0.500000 0.741465
O O2 0.661840 0.360661 0.798346
O O3 0.753868 0.372582 0.727969
O O4 0.601303 0.251707 0.735310
O O5 0.129398 0.500000 0.359666
O O6 0.141154 0.251329 0.368817
O O7 0.000000 0.357416 0.335184
O O8 0.099693 0.500000 0.730502
O O9 0.126002 0.364423 0.667646
O O10 0.500000 0.133536 0.893989
O O11 0.357202 0.000000 0.879085
O O12 0.357117 0.145177 0.940983
O O13 0.854193 0.248560 0.513689
O O14 0.000000 0.135666 0.488040
O O15 0.859514 0.000000 0.502915
O O16 0.869261 0.858732 0.084248
O O17 0.000000 0.869504 0.030373
O O18 0.853570 0.000000 0.022555
O O19 0.232455 0.500000 0.626672
O O20 0.250000 0.750000 0.628520
#
# Coordination Sequence:
#
# PCOD9368457 Si02
#       7
#    16  16  16  16  16  16  16
#     4   9  16  28  45  63  85 112 144 185 226 265
#     4   9  17  27  40  63  94 123 149 181 226 276
#     4   9  17  30  48  65  81 107 149 193 227 265
#     4   8  14  25  41  62  90 123 155 185 219 266
#     4   8  14  26  44  66  93 124 156 189 227 274
#     4   9  18  31  47  71 101 128 156 195 242 285
#     4  10  19  32  51  72  94 124 162 200 237 283
#
# _framework density 21.337149
#
# number of rings (size 3 to 8) (size 9 to 14) (size 15 to 20)
#    0.000    3.143    1.429    0.857    0.000    1.714 
#    0.000    3.571    0.000    0.857    3.714    0.000 
#    0.000    0.000    0.000    0.000    0.000    0.000 
#
# Total GULP energy -156026.187445 kJ/mol
# GULP energy per Si atom -5572.363837 kJ/mol
# Density = 2.128858 g / cm^3
# Si number density = 21.337149 Si / 1000 Ang^3
#
#
#
# Elastic Constant Matrix: (Units=GPa)
#
#
# Indices 1 2 3 4 5 6 
#
# 1 68.1421 12.3291 5.9921 0.0000 0.0000 0.0000
# 2 12.3291 281.2821 91.7393 0.0000 0.0000 0.0000
# 3 5.9921 91.7393 87.3876 0.0000 0.0000 0.0000
# 4 0.0000 0.0000 0.0000 49.0388 0.0000 0.0000
# 5 0.0000 0.0000 0.0000 0.0000 22.5700 0.0000
# 6 0.0000 0.0000 0.0000 0.0000 0.0000 -12.1805
#
#
#
# Elastic Compliance Matrix: (Units=1/GPa)
#
#
# Indices 1 2 3 4 5 6 
#
# 1 0.014807 -0.000483 -0.000508 0.000000 0.000000 0.000000
# 2 -0.000483 0.005422 -0.005659 0.000000 0.000000 0.000000
# 3 -0.000508 -0.005659 0.017419 0.000000 0.000000 0.000000
# 4 0.000000 0.000000 0.000000 0.020392 0.000000 0.000000
# 5 0.000000 0.000000 0.000000 0.000000 0.044307 0.000000
# 6 0.000000 0.000000 0.000000 0.000000 0.000000 -0.082098
#
#
# Mechanical properties :
#
#
# Convention : Reuss Voigt Hill
#
# Bulk Modulus (GPa) = 41.07139 72.99254 57.03196
# Shear Modulus (GPa) = 120.00723 33.66908 76.83815
#
# Velocity S-wave (km/s) = 7.50769 3.97666 6.00746
# Velocity P-wave (km/s) = 9.71825 7.44100 8.65485
#
# Compressibility (1/GPa) = 0.02434785
#
# Stress axis : x y z
#
# Youngs Moduli (GPa) = 67.53406 184.43601 57.40966
#
# Poissons Ratio (x) = 0.08915 0.02916
# Poissons Ratio (y) = 0.03265 0.32487
# Poissons Ratio (z) = 0.03430 1.04368
#
# Static dielectric constant tensor:
#      x y z
#    x 1.765870 0.000000 0.000000 
#    y 0.000000 1.819560 0.000000 
#    z 0.000000 0.000000 1.731870 
# 
# From -- ./inp_files/32267.got.cif
#   From: 2010.05.17/outbox.cif.g08.bks.cpg/sg42_17_cif.got.tgz:32267.got - 2010.06.03 19:03:34.
