data_PCOD9368330
_publ_section_title
;
Structure prediction by ZEFSAII (Michael W. Deem and Ramdas Pophale) SiO2 
 PCOD9368330
Probable space group: F M M 2
;
_chemical_formula_sum "Si O2"
_cell_formula_units_Z 104
_cell_length_a 11.101813
_cell_length_b 14.330067
_cell_length_c 32.036816
_cell_angle_alpha 90.000000
_cell_angle_beta 90.000000
_cell_angle_gamma 90.000000
_cell_volume 5096.728219
_symmetry_space_group_name_H-M "F M M 2"
_symmetry_group_IT_number 42
_symmetry_cell_setting 'orthorhombic'
loop_
_space_group_symop_operation_xyz
x,y,z
-x,-y,z
-x,y,z
x,-y,z
x,1/2+y,1/2+z
-x,1/2-y,1/2+z
-x,1/2+y,1/2+z
x,1/2-y,1/2+z
1/2+x,y,1/2+z
1/2-x,-y,1/2+z
1/2-x,y,1/2+z
1/2+x,-y,1/2+z
1/2+x,1/2+y,z
1/2-x,1/2-y,z
1/2-x,1/2+y,z
1/2+x,1/2-y,z
loop_
_atom_site_type_symbol
_atom_site_label
_atom_site_fract_x
_atom_site_fract_y
_atom_site_fract_z
Si Si1 0.361574 0.179678 0.051680
Si Si2 0.857382 0.100596 0.642779
Si Si3 0.634151 0.388656 0.829949
Si Si4 0.870638 0.364920 0.958655
Si Si5 0.250000 0.750000 0.205080
Si Si6 0.370203 0.654426 0.923464
Si Si7 0.138212 0.110799 0.269996
O O1 0.500000 0.218964 0.055300
O O2 0.250000 0.250000 0.047372
O O3 0.336687 0.124456 0.094240
O O4 0.363343 0.123471 0.008382
O O5 0.815783 0.178928 0.674313
O O6 0.000000 0.094572 0.647278
O O7 0.802101 0.000000 0.652949
O O8 0.500000 0.369837 0.810800
O O9 0.636071 0.500000 0.839411
O O10 0.639594 0.334484 0.873639
O O11 0.751742 0.370634 0.802154
O O12 0.748201 0.398235 0.938186
O O13 0.872712 0.254152 0.946957
O O14 0.000000 0.400365 0.943659
O O15 0.163805 0.814820 0.233441
O O16 0.500000 0.609627 0.931732
O O17 0.000000 0.122743 0.285578
O O18 0.149202 0.000000 0.258049
#
# Coordination Sequence:
#
# PCOD9368330 Si02
#       7
#    16  16  16  16   8  16  16
#     4  10  18  33  57  82 112 153 199 242 289 347
#     4  10  22  39  60  88 121 158 199 244 296 360
#     4   9  19  36  56  78 109 154 201 244 294 356
#     4   9  17  28  47  75 107 143 187 237 285 335
#     4  12  22  38  64  90 118 154 196 244 302 368
#     4   9  16  28  48  73 104 139 183 233 281 331
#     4  10  23  42  62  88 122 156 195 249 306 360
#
# _framework density 20.405248
#
# number of rings (size 3 to 8) (size 9 to 14) (size 15 to 20)
#    0.000    2.308    2.308    0.923    0.000    3.077 
#    0.000    5.385    0.000    2.308    0.000    0.000 
#    0.000    0.000    0.000    0.000    0.000    0.000 
#
# Total GULP energy -144842.378976 kJ/mol
# GULP energy per Si atom -5570.860730 kJ/mol
# Density = 2.035880 g / cm^3
# Si number density = 20.405248 Si / 1000 Ang^3
#
#
#
# Elastic Constant Matrix: (Units=GPa)
#
#
# Indices 1 2 3 4 5 6 
#
# 1 196.5605 34.5620 57.1102 0.0000 0.0000 0.0000
# 2 34.5620 85.3362 34.6026 0.0000 0.0000 0.0000
# 3 57.1102 34.6026 100.6746 0.0000 0.0000 0.0000
# 4 0.0000 0.0000 0.0000 -27.3145 0.0000 0.0000
# 5 0.0000 0.0000 0.0000 0.0000 100.4229 0.0000
# 6 0.0000 0.0000 0.0000 0.0000 0.0000 4.2962
#
#
#
# Elastic Compliance Matrix: (Units=1/GPa)
#
#
# Indices 1 2 3 4 5 6 
#
# 1 0.006206 -0.001262 -0.003087 0.000000 0.000000 0.000000
# 2 -0.001262 0.013873 -0.004052 0.000000 0.000000 0.000000
# 3 -0.003087 -0.004052 0.013077 0.000000 0.000000 0.000000
# 4 0.000000 0.000000 0.000000 -0.036611 0.000000 0.000000
# 5 0.000000 0.000000 0.000000 0.000000 0.009958 0.000000
# 6 0.000000 0.000000 0.000000 0.000000 0.000000 0.232763
#
#
# Mechanical properties :
#
#
# Convention : Reuss Voigt Hill
#
# Bulk Modulus (GPa) = 61.14868 70.56899 65.85884
# Shear Modulus (GPa) = 19.11902 32.56735 25.84319
#
# Velocity S-wave (km/s) = 3.06431 3.99937 3.56265
# Velocity P-wave (km/s) = 6.52320 7.48234 7.01917
#
# Compressibility (1/GPa) = 0.01635358
#
# Stress axis : x y z
#
# Youngs Moduli (GPa) = 161.12708 72.08468 76.47052
#
# Poissons Ratio (x) = 0.09096 0.23606
# Poissons Ratio (y) = 0.20332 0.30988
# Poissons Ratio (z) = 0.49739 0.29211
#
# Static dielectric constant tensor:
#      x y z
#    x 1.755910 0.000000 0.000000 
#    y 0.000000 1.741890 0.000000 
#    z 0.000000 0.000000 1.709980 
# 
# From -- ./inp_files/34173.got.cif
#   From: 2010.05.17/outbox.cif.g08.bks.cpg/sg42_18_cif.got.tgz:34173.got - 2010.06.03 19:03:34.
