data_PCOD9368658
_publ_section_title
;
Structure prediction by ZEFSAII (Michael W. Deem and Ramdas Pophale) SiO2 
 PCOD9368658
Probable space group: F M M 2
;
_chemical_formula_sum "Si O2"
_cell_formula_units_Z 112
_cell_length_a 13.631783
_cell_length_b 24.745253
_cell_length_c 18.813064
_cell_angle_alpha 90.000000
_cell_angle_beta 90.000000
_cell_angle_gamma 90.000000
_cell_volume 6346.058854
_symmetry_space_group_name_H-M "F M M 2"
_symmetry_group_IT_number 42
_symmetry_cell_setting 'orthorhombic'
loop_
_space_group_symop_operation_xyz
x,y,z
-x,-y,z
-x,y,z
x,-y,z
x,1/2+y,1/2+z
-x,1/2-y,1/2+z
-x,1/2+y,1/2+z
x,1/2-y,1/2+z
1/2+x,y,1/2+z
1/2-x,-y,1/2+z
1/2-x,y,1/2+z
1/2+x,-y,1/2+z
1/2+x,1/2+y,z
1/2-x,1/2-y,z
1/2-x,1/2+y,z
1/2+x,1/2-y,z
loop_
_atom_site_type_symbol
_atom_site_label
_atom_site_fract_x
_atom_site_fract_y
_atom_site_fract_z
Si Si1 0.616420 0.865429 0.222750
Si Si2 0.246247 0.438926 0.135738
Si Si3 0.383474 0.661001 0.159571
Si Si4 0.223442 0.309937 0.799650
Si Si5 0.384166 0.176633 0.944913
Si Si6 0.381384 0.723131 0.598276
Si Si7 0.888281 0.059267 0.497731
O O1 0.500000 0.936441 0.026971
O O2 0.667029 0.919792 0.194500
O O3 0.677695 0.844915 0.290496
O O4 0.638025 0.821137 0.159974
O O5 0.281423 0.500000 0.148891
O O6 0.329472 0.393114 0.133975
O O7 0.187469 0.438272 0.061885
O O8 0.500000 0.656918 0.151736
O O9 0.354049 0.667675 0.242314
O O10 0.349367 0.716228 0.119512
O O11 0.250000 0.250000 0.776182
O O12 0.178357 0.306209 0.877505
O O13 0.500000 0.189552 0.935370
O O14 0.351001 0.202054 0.020368
O O15 0.375020 0.111679 0.950084
O O16 0.500000 0.725399 0.595459
O O17 0.000000 0.131187 0.732614
O O18 0.880000 0.000000 0.462994
#
# Coordination Sequence:
#
# PCOD9368658 Si02
#       7
#    16  16  16  16  16  16  16
#     4  10  19  35  58  82 110 145 184 227 278 333
#     4  10  20  32  54  86 111 139 189 241 281 322
#     4  10  21  37  56  78 113 155 187 225 279 341
#     4  11  22  34  52  82 113 150 179 222 286 344
#     4  10  20  34  53  83 113 143 186 236 282 328
#     4   9  17  33  58  81 105 141 184 227 274 326
#     4   9  17  32  54  79 110 146 184 235 287 321
#
# _framework density 17.648748999999999
#
# number of rings (size 3 to 8) (size 9 to 14) (size 15 to 20)
#    0.000    2.143    2.857    0.857    0.000    2.857 
#    0.000    2.857    0.000    4.286    0.000    0.000 
#    0.000    0.000    0.000    0.000    0.000    0.000 
#
# Total GULP energy -156118.963822 kJ/mol
# GULP energy per Si atom -5575.677279 kJ/mol
# Density = 1.760858 g / cm^3
# Si number density = 17.648749 Si / 1000 Ang^3
#
#
#
# Elastic Constant Matrix: (Units=GPa)
#
#
# Indices 1 2 3 4 5 6 
#
# 1 79.3596 34.1700 23.1564 0.0000 0.0000 0.0000
# 2 34.1700 112.1837 18.4014 0.0000 0.0000 0.0000
# 3 23.1564 18.4014 65.2975 0.0000 0.0000 0.0000
# 4 0.0000 0.0000 0.0000 9.5806 0.0000 0.0000
# 5 0.0000 0.0000 0.0000 0.0000 24.5417 0.0000
# 6 0.0000 0.0000 0.0000 0.0000 0.0000 25.9522
#
#
#
# Elastic Compliance Matrix: (Units=1/GPa)
#
#
# Indices 1 2 3 4 5 6 
#
# 1 0.015624 -0.004037 -0.004403 0.000000 0.000000 0.000000
# 2 -0.004037 0.010389 -0.001496 0.000000 0.000000 0.000000
# 3 -0.004403 -0.001496 0.017298 0.000000 0.000000 0.000000
# 4 0.000000 0.000000 0.000000 0.104377 0.000000 0.000000
# 5 0.000000 0.000000 0.000000 0.000000 0.040747 0.000000
# 6 0.000000 0.000000 0.000000 0.000000 0.000000 0.038532
#
#
# Mechanical properties :
#
#
# Convention : Reuss Voigt Hill
#
# Bulk Modulus (GPa) = 42.66485 45.36627 44.01556
# Shear Modulus (GPa) = 19.63469 24.08910 21.86190
#
# Velocity S-wave (km/s) = 3.33907 3.69849 3.52337
# Velocity P-wave (km/s) = 6.25242 6.63320 6.44562
#
# Compressibility (1/GPa) = 0.02343850
#
# Stress axis : x y z
#
# Youngs Moduli (GPa) = 64.00535 96.25689 57.81139
#
# Poissons Ratio (x) = 0.38855 0.25455
# Poissons Ratio (y) = 0.25836 0.08650
# Poissons Ratio (z) = 0.28182 0.14402
#
# Static dielectric constant tensor:
#      x y z
#    x 1.629850 0.000000 0.000000 
#    y 0.000000 1.631950 0.000000 
#    z 0.000000 0.000000 1.580080 
# 
# From -- ./inp_files/14413.got.cif
#   From: 2010.05.17/outbox.cif.g08.bks.cpg/sg42_8_cif.got.tgz:14413.got - 2010.06.03 19:03:34.
