data_PCOD9368157
_publ_section_title
;
Structure prediction by ZEFSAII (Michael W. Deem and Ramdas Pophale) SiO2 
 PCOD9368157
Probable space group: F M M 2
;
_chemical_formula_sum "Si O2"
_cell_formula_units_Z 100
_cell_length_a 27.944175
_cell_length_b 7.528351
_cell_length_c 27.031305
_cell_angle_alpha 90.000000
_cell_angle_beta 90.000000
_cell_angle_gamma 90.000000
_cell_volume 5686.671805
_symmetry_space_group_name_H-M "F M M 2"
_symmetry_group_IT_number 42
_symmetry_cell_setting 'orthorhombic'
loop_
_space_group_symop_operation_xyz
x,y,z
-x,-y,z
-x,y,z
x,-y,z
x,1/2+y,1/2+z
-x,1/2-y,1/2+z
-x,1/2+y,1/2+z
x,1/2-y,1/2+z
1/2+x,y,1/2+z
1/2-x,-y,1/2+z
1/2-x,y,1/2+z
1/2+x,-y,1/2+z
1/2+x,1/2+y,z
1/2-x,1/2-y,z
1/2-x,1/2+y,z
1/2+x,1/2-y,z
loop_
_atom_site_type_symbol
_atom_site_label
_atom_site_fract_x
_atom_site_fract_y
_atom_site_fract_z
Si Si1 0.696165 0.712098 0.016650
Si Si2 0.945383 0.500000 0.896167
Si Si3 0.000000 0.500000 0.800146
Si Si4 0.000000 0.204254 0.204295
Si Si5 0.804139 0.286444 0.629922
Si Si6 0.555504 0.786834 0.058364
Si Si7 0.394759 0.795668 0.457336
Si Si8 0.402298 0.703118 0.161354
O O1 0.689532 0.500000 0.019573
O O2 0.750000 0.750000 0.000046
O O3 0.691777 0.781988 0.073067
O O4 0.655679 0.775299 0.979020
O O5 0.917526 0.670646 0.916107
O O6 0.000000 0.500000 0.917701
O O7 0.955236 0.500000 0.837519
O O8 0.000000 0.333240 0.762883
O O9 0.949748 0.285693 0.186484
O O10 0.000000 0.000000 0.182550
O O11 0.809298 0.500000 0.627963
O O12 0.750000 0.250000 0.646874
O O13 0.848657 0.219266 0.662744
O O14 0.500000 0.748865 0.067652
O O15 0.585709 0.706120 0.102984
O O16 0.562095 0.000000 0.058144
O O17 0.571473 0.713877 0.005670
O O18 0.390104 0.000000 0.441264
O O19 0.399732 0.500000 0.180227
#
# Coordination Sequence:
#
# PCOD9368157 Si02
#       8
#    16   8   4   8  16  16  16  16
#     4   9  18  29  44  68 103 147 186 214 250 301
#     4  10  22  38  56  78 109 131 180 226 270 335
#     4   8  20  40  56  82 100 118 180 230 266 340
#     4   8  16  32  56  77  94 123 163 224 271 316
#     4   9  17  28  40  63 100 139 178 211 237 292
#     4  11  21  29  41  69 112 148 174 212 252 307
#     4  11  21  34  51  75 109 148 183 217 265 319
#     4  10  17  29  50  73  96 135 181 208 254 315
#
# _framework density 17.584978
#
# number of rings (size 3 to 8) (size 9 to 14) (size 15 to 20)
#    0.480    1.760    3.200    0.960    1.120    2.560 
#    0.000    0.000    0.000    1.920    0.000    1.120 
#    0.000    0.000    0.000    0.000    0.000    0.000 
#
# Total GULP energy -139271.512006 kJ/mol
# GULP energy per Si atom -5570.860480 kJ/mol
# Density = 1.754495 g / cm^3
# Si number density = 17.584978 Si / 1000 Ang^3
#
#
#
# Elastic Constant Matrix: (Units=GPa)
#
#
# Indices 1 2 3 4 5 6 
#
# 1 166.8667 19.7694 35.2400 0.0000 0.0000 -0.0002
# 2 19.7694 59.3178 9.1207 -0.0001 0.0000 -0.0007
# 3 35.2400 9.1207 64.7774 0.0000 0.0000 -0.0001
# 4 0.0000 -0.0001 0.0000 7.8240 0.0000 -0.0001
# 5 0.0000 0.0000 0.0000 0.0000 11.9246 0.0000
# 6 -0.0002 -0.0007 -0.0001 -0.0001 0.0000 18.8614
#
#
#
# Elastic Compliance Matrix: (Units=1/GPa)
#
#
# Indices 1 2 3 4 5 6 
#
# 1 0.006948 -0.001773 -0.003530 0.000000 0.000000 0.000000
# 2 -0.001773 0.017684 -0.001525 0.000000 0.000000 0.000001
# 3 -0.003530 -0.001525 0.017573 0.000000 0.000000 0.000000
# 4 0.000000 0.000000 0.000000 0.127812 0.000000 0.000001
# 5 0.000000 0.000000 0.000000 0.000000 0.083860 0.000000
# 6 0.000000 0.000001 0.000000 0.000001 0.000000 0.053018
#
#
# Mechanical properties :
#
#
# Convention : Reuss Voigt Hill
#
# Bulk Modulus (GPa) = 35.02920 46.58021 40.80471
# Shear Modulus (GPa) = 15.14833 22.84411 18.99622
#
# Velocity S-wave (km/s) = 2.93821 3.60817 3.29029
# Velocity P-wave (km/s) = 5.61016 6.62606 6.13916
#
# Compressibility (1/GPa) = 0.02854761
#
# Stress axis : x y z
#
# Youngs Moduli (GPa) = 143.91729 56.54901 56.90587
#
# Poissons Ratio (x) = 0.10026 0.20090
# Poissons Ratio (y) = 0.25516 0.08680
# Poissons Ratio (z) = 0.50809 0.08626
#
# Static dielectric constant tensor:
#      x y z
#    x 1.666950 0.000000 0.000000 
#    y 0.000000 1.663900 0.000000 
#    z 0.000000 0.000000 1.555810 
# 
# From -- ./inp_files/34830.got.cif
#   From: 2010.05.17/outbox.cif.g08.bks.cpg/sg42_18_cif.got.tgz:34830.got - 2010.06.03 19:03:34.
