data_PCOD9368043
_publ_section_title
;
Structure prediction by ZEFSAII (Michael W. Deem and Ramdas Pophale) SiO2 
 PCOD9368043
Probable space group: A B A 2
;
_chemical_formula_sum "Si O2"
_cell_formula_units_Z 56
_cell_length_a 14.579228
_cell_length_b 26.367371
_cell_length_c 5.825830
_cell_angle_alpha 90.000000
_cell_angle_beta 90.000000
_cell_angle_gamma 90.000000
_cell_volume 2239.541762
_symmetry_space_group_name_H-M "A B A 2"
_symmetry_group_IT_number 41
_symmetry_cell_setting 'orthorhombic'
loop_
_space_group_symop_operation_xyz
x,y,z
-x,-y,z
1/2-x,y,1/2+z
1/2+x,-y,1/2+z
x,1/2+y,1/2+z
-x,1/2-y,1/2+z
1/2-x,1/2+y,z
1/2+x,1/2-y,z
loop_
_atom_site_type_symbol
_atom_site_label
_atom_site_fract_x
_atom_site_fract_y
_atom_site_fract_z
Si Si1 0.786619 0.775391 0.055510
Si Si2 0.977285 0.818710 0.170880
Si Si3 0.452253 0.889913 0.279535
Si Si4 0.337640 0.929120 0.670443
Si Si5 0.160472 0.827020 0.405627
Si Si6 0.534973 0.422801 0.388121
Si Si7 0.715263 0.461818 0.200220
O O1 0.736341 0.794918 0.292366
O O2 0.893760 0.781848 0.122558
O O3 0.773154 0.715121 0.011051
O O4 0.945472 0.863046 0.345044
O O5 0.077118 0.800586 0.257982
O O6 0.997110 0.851391 0.946049
O O7 0.379676 0.922143 0.420368
O O8 0.395080 0.854849 0.107569
O O9 0.527539 0.926172 0.160623
O O10 0.301704 0.874502 0.757728
O O11 0.431792 0.936188 0.814437
O O12 0.273644 0.977338 0.689859
O O13 0.608081 0.452239 0.242766
O O14 0.756217 0.442198 0.446194
#
# Coordination Sequence:
#
# PCOD9368043 Si02
#       7
#     8   8   8   8   8   8   8
#     4  12  30  42  62 104 144 176 212 276 356 408
#     4   9  22  42  70  93 125 177 234 272 326 396
#     4   8  18  40  75  92 118 170 240 273 318 370
#     4   9  21  44  68  95 124 176 229 281 320 392
#     4   9  22  42  70  93 125 177 234 272 326 396
#     4   9  21  44  68  95 124 176 229 281 320 392
#     4  12  29  42  63 102 140 178 216 270 353 410
#
# _framework density 25.005113999999999
#
# number of rings (size 3 to 8) (size 9 to 14) (size 15 to 20)
#    0.000    2.857    0.000    0.429   18.000    2.286 
#    0.000    0.000    0.000    0.000    0.000    0.000 
#    0.000    0.000    0.000    0.000    0.000    0.000 
#
# Total GULP energy -156092.171601 kJ/mol
# GULP energy per Si atom -5574.720414 kJ/mol
# Density = 2.494820 g / cm^3
# Si number density = 25.005114 Si / 1000 Ang^3
#
#
#
# Elastic Constant Matrix: (Units=GPa)
#
#
# Indices 1 2 3 4 5 6 
#
# 1 47.0538 -7.8038 25.0619 0.0000 0.0000 0.0000
# 2 -7.8038 30.1221 -2.7569 0.0000 0.0000 0.0000
# 3 25.0619 -2.7569 154.9632 0.0000 0.0000 0.0000
# 4 0.0000 0.0000 0.0000 8.7881 0.0000 0.0000
# 5 0.0000 0.0000 0.0000 0.0000 23.7261 0.0000
# 6 0.0000 0.0000 0.0000 0.0000 0.0000 36.6998
#
#
#
# Elastic Compliance Matrix: (Units=1/GPa)
#
#
# Indices 1 2 3 4 5 6 
#
# 1 0.024272 0.005938 -0.003820 0.000000 0.000000 0.000000
# 2 0.005938 0.034705 -0.000343 0.000000 0.000000 0.000000
# 3 -0.003820 -0.000343 0.007065 0.000000 0.000000 0.000000
# 4 0.000000 0.000000 0.000000 0.113791 0.000000 0.000000
# 5 0.000000 0.000000 0.000000 0.000000 0.042148 0.000000
# 6 0.000000 0.000000 0.000000 0.000000 0.000000 0.027248
#
#
# Mechanical properties :
#
#
# Convention : Reuss Voigt Hill
#
# Bulk Modulus (GPa) = 14.36922 29.01573 21.69248
# Shear Modulus (GPa) = 18.59603 28.35198 23.47401
#
# Velocity S-wave (km/s) = 2.73003 3.37092 3.06726
# Velocity P-wave (km/s) = 3.96186 5.17493 4.60848
#
# Compressibility (1/GPa) = 0.06959319
#
# Stress axis : x y z
#
# Youngs Moduli (GPa) = 41.20036 28.81407 141.54675
#
# Poissons Ratio (x) = -0.17111 0.54067
# Poissons Ratio (y) = -0.24467 0.04855
# Poissons Ratio (z) = 0.15738 0.00988
#
# Static dielectric constant tensor:
#      x y z
#    x 1.998090 0.000000 0.000000 
#    y 0.000000 2.007180 0.000000 
#    z 0.000000 0.000000 2.141770 
# 
# From -- ./inp_files/330.got.cif
#   From: 2010.05.17/outbox.cif.g08.bks.cpg/sg41_1_cif.got.tgz:330.got - 2010.06.03 18:54:24.
