data_PCOD9368368
_publ_section_title
;
Structure prediction by ZEFSAII (Michael W. Deem and Ramdas Pophale) SiO2 
 PCOD9368368
Probable space group: F M M 2
;
_chemical_formula_sum "Si O2"
_cell_formula_units_Z 80
_cell_length_a 16.473634
_cell_length_b 10.304573
_cell_length_c 23.452738
_cell_angle_alpha 90.000000
_cell_angle_beta 90.000000
_cell_angle_gamma 90.000000
_cell_volume 3981.190555
_symmetry_space_group_name_H-M "F M M 2"
_symmetry_group_IT_number 42
_symmetry_cell_setting 'orthorhombic'
loop_
_space_group_symop_operation_xyz
x,y,z
-x,-y,z
-x,y,z
x,-y,z
x,1/2+y,1/2+z
-x,1/2-y,1/2+z
-x,1/2+y,1/2+z
x,1/2-y,1/2+z
1/2+x,y,1/2+z
1/2-x,-y,1/2+z
1/2-x,y,1/2+z
1/2+x,-y,1/2+z
1/2+x,1/2+y,z
1/2-x,1/2-y,z
1/2-x,1/2+y,z
1/2+x,1/2-y,z
loop_
_atom_site_type_symbol
_atom_site_label
_atom_site_fract_x
_atom_site_fract_y
_atom_site_fract_z
Si Si1 0.651481 0.766742 0.963560
Si Si2 0.653095 0.234782 0.207598
Si Si3 0.094298 0.500000 0.759939
Si Si4 0.907876 0.000000 0.780316
Si Si5 0.136859 0.500000 0.409490
Si Si6 0.830930 0.000000 0.383623
Si Si7 0.672700 0.152670 0.085606
O O1 0.750000 0.750000 0.964676
O O2 0.617601 0.628273 0.945261
O O3 0.634462 0.873631 0.915510
O O4 0.627734 0.815831 0.026354
O O5 0.750000 0.250000 0.207033
O O6 0.614152 0.371542 0.223945
O O7 0.628042 0.183640 0.144938
O O8 0.633023 0.127751 0.254762
O O9 0.148226 0.500000 0.817250
O O10 0.000000 0.500000 0.776450
O O11 0.904298 0.000000 0.848222
O O12 0.000000 0.000000 0.760336
O O13 0.233882 0.500000 0.394969
O O14 0.750000 0.250000 0.085667
O O15 0.696513 0.000000 0.085123
#
# Coordination Sequence:
#
# PCOD9368368 Si02
#       7
#    16  16   8   8   8   8  16
#     4   9  18  31  55  87 121 148 193 248 309 354
#     4  11  23  40  65  92 123 160 209 258 302 369
#     4  12  26  41  60  90 128 167 207 256 313 362
#     4  12  24  41  62  88 126 169 207 256 311 364
#     4  10  20  33  56  90 116 161 199 250 295 368
#     4  10  18  35  58  82 120 155 201 248 293 362
#     4  10  20  34  59  92 123 154 197 257 313 361
#
# _framework density 20.094491999999999
#
# number of rings (size 3 to 8) (size 9 to 14) (size 15 to 20)
#    0.000    1.600    2.000    3.600    8.400    1.600 
#    0.000    0.000    0.000    7.200    0.000    0.000 
#    0.000    0.000    0.000    0.000    0.000    0.000 
#
# Total GULP energy -111693.628097 kJ/mol
# GULP energy per Si atom -5584.681405 kJ/mol
# Density = 2.004876 g / cm^3
# Si number density = 20.094492 Si / 1000 Ang^3
#
#
#
# Elastic Constant Matrix: (Units=GPa)
#
#
# Indices 1 2 3 4 5 6 
#
# 1 29.5658 9.0888 2.0101 0.0000 0.0000 0.0000
# 2 9.0888 191.9110 68.9889 0.0000 0.0000 0.0000
# 3 2.0101 68.9889 132.9868 0.0000 0.0000 0.0000
# 4 0.0000 0.0000 0.0000 28.4190 0.0000 0.0000
# 5 0.0000 0.0000 0.0000 0.0000 -10.7503 0.0000
# 6 0.0000 0.0000 0.0000 0.0000 0.0000 6.5529
#
#
#
# Elastic Compliance Matrix: (Units=1/GPa)
#
#
# Indices 1 2 3 4 5 6 
#
# 1 0.034340 -0.001770 0.000399 0.000000 0.000000 0.000000
# 2 -0.001770 0.006496 -0.003343 0.000000 0.000000 0.000000
# 3 0.000399 -0.003343 0.009248 0.000000 0.000000 0.000000
# 4 0.000000 0.000000 0.000000 0.035188 0.000000 0.000000
# 5 0.000000 0.000000 0.000000 0.000000 -0.093021 0.000000
# 6 0.000000 0.000000 0.000000 0.000000 0.000000 0.152605
#
#
# Mechanical properties :
#
#
# Convention : Reuss Voigt Hill
#
# Bulk Modulus (GPa) = 24.59666 57.18215 40.88940
# Shear Modulus (GPa) = 29.79097 23.13603 26.46350
#
# Velocity S-wave (km/s) = 3.85456 3.39685 3.63292
# Velocity P-wave (km/s) = 5.66368 6.62595 6.16362
#
# Compressibility (1/GPa) = 0.04065593
#
# Stress axis : x y z
#
# Youngs Moduli (GPa) = 29.12077 153.93001 108.13218
#
# Poissons Ratio (x) = 0.27242 -0.04315
# Poissons Ratio (y) = 0.05154 0.36153
# Poissons Ratio (z) = -0.01162 0.51465
#
# Static dielectric constant tensor:
#      x y z
#    x 1.707170 0.000000 0.000000 
#    y 0.000000 1.685180 0.000000 
#    z 0.000000 0.000000 1.713870 
# 
# From -- ./inp_files/30150.got.cif
#   From: 2010.05.17/outbox.cif.g08.bks.cpg/sg42_16_cif.got.tgz:30150.got - 2010.06.03 19:03:34.
