data_PCOD9368540
_publ_section_title
;
Structure prediction by ZEFSAII (Michael W. Deem and Ramdas Pophale) SiO2 
 PCOD9368540
Probable space group: F M M 2
;
_chemical_formula_sum "Si O2"
_cell_formula_units_Z 80
_cell_length_a 16.429858
_cell_length_b 14.059840
_cell_length_c 19.034990
_cell_angle_alpha 90.000000
_cell_angle_beta 90.000000
_cell_angle_gamma 90.000000
_cell_volume 4397.105050
_symmetry_space_group_name_H-M "F M M 2"
_symmetry_group_IT_number 42
_symmetry_cell_setting 'orthorhombic'
loop_
_space_group_symop_operation_xyz
x,y,z
-x,-y,z
-x,y,z
x,-y,z
x,1/2+y,1/2+z
-x,1/2-y,1/2+z
-x,1/2+y,1/2+z
x,1/2-y,1/2+z
1/2+x,y,1/2+z
1/2-x,-y,1/2+z
1/2-x,y,1/2+z
1/2+x,-y,1/2+z
1/2+x,1/2+y,z
1/2-x,1/2-y,z
1/2-x,1/2+y,z
1/2+x,1/2-y,z
loop_
_atom_site_type_symbol
_atom_site_label
_atom_site_fract_x
_atom_site_fract_y
_atom_site_fract_z
Si Si1 0.342462 0.283479 0.171420
Si Si2 0.900887 0.293968 0.387043
Si Si3 0.403276 0.104789 0.245397
Si Si4 0.098639 0.888715 0.032383
Si Si5 0.598651 0.108911 0.808691
O O1 0.250000 0.250000 0.170676
O O2 0.389508 0.185526 0.187802
O O3 0.367792 0.334888 0.100209
O O4 0.362089 0.353341 0.236586
O O5 0.871533 0.355872 0.320245
O O6 0.873805 0.336867 0.460787
O O7 0.879031 0.185117 0.368904
O O8 0.000000 0.298425 0.387408
O O9 0.500000 0.096825 0.253881
O O10 0.370015 0.000000 0.229043
O O11 0.000000 0.885013 0.034953
O O12 0.121710 0.000000 0.031858
O O13 0.500000 0.113785 0.799811
O O14 0.620454 0.000000 0.823423
#
# Coordination Sequence:
#
# PCOD9368540 Si02
#       5
#    16  16  16  16  16
#     4  11  22  33  47  71 106 138 169 207 247 295
#     4   8  15  29  52  81 103 120 157 212 260 300
#     4   9  17  32  53  73  94 124 164 209 255 301
#     4  10  19  33  55  78 100 131 171 213 254 297
#     4   9  17  33  58  82 102 128 165 210 256 301
#
# _framework density 18.193788999999999
#
# number of rings (size 3 to 8) (size 9 to 14) (size 15 to 20)
#    0.000    2.600    0.000    4.200    0.000    5.600 
#    0.000    5.000    0.000    8.400    0.000    0.000 
#    0.000    0.000    0.000    0.000    0.000    0.000 
#
# Total GULP energy -111492.692475 kJ/mol
# GULP energy per Si atom -5574.634624 kJ/mol
# Density = 1.815238 g / cm^3
# Si number density = 18.193789 Si / 1000 Ang^3
#
#
#
# Elastic Constant Matrix: (Units=GPa)
#
#
# Indices 1 2 3 4 5 6 
#
# 1 17.4274 30.1113 19.5384 0.0000 0.0000 0.0000
# 2 30.1113 204.0024 101.6260 0.0000 0.0000 0.0000
# 3 19.5384 101.6260 135.0244 0.0000 0.0000 0.0000
# 4 0.0000 0.0000 0.0000 79.9586 0.0000 0.0000
# 5 0.0000 0.0000 0.0000 0.0000 3.3188 0.0000
# 6 0.0000 0.0000 0.0000 0.0000 0.0000 10.8212
#
#
#
# Elastic Compliance Matrix: (Units=1/GPa)
#
#
# Indices 1 2 3 4 5 6 
#
# 1 0.078500 -0.009484 -0.004221 0.000000 0.000000 0.000000
# 2 -0.009484 0.008988 -0.005393 0.000000 0.000000 0.000000
# 3 -0.004221 -0.005393 0.012076 0.000000 0.000000 0.000000
# 4 0.000000 0.000000 0.000000 0.012506 0.000000 0.000000
# 5 0.000000 0.000000 0.000000 0.000000 0.301312 0.000000
# 6 0.000000 0.000000 0.000000 0.000000 0.000000 0.092411
#
#
# Mechanical properties :
#
#
# Convention : Reuss Voigt Hill
#
# Bulk Modulus (GPa) = 16.29507 73.22283 44.75895
# Shear Modulus (GPa) = 8.85827 32.49830 20.67829
#
# Velocity S-wave (km/s) = 2.20894 4.23097 3.37494
# Velocity P-wave (km/s) = 3.93468 8.01259 6.31202
#
# Compressibility (1/GPa) = 0.06136825
#
# Stress axis : x y z
#
# Youngs Moduli (GPa) = 12.73890 111.25797 82.81201
#
# Poissons Ratio (x) = 1.05517 0.34955
# Poissons Ratio (y) = 0.12082 0.44657
# Poissons Ratio (z) = 0.05377 0.59996
#
# Static dielectric constant tensor:
#      x y z
#    x 1.569140 0.000000 0.000000 
#    y 0.000000 1.527380 0.000000 
#    z 0.000000 0.000000 1.597150 
# 
# From -- ./inp_files/13824.got.cif
#   From: 2010.05.17/outbox.cif.g08.bks.cpg/sg42_7_cif.got.tgz:13824.got - 2010.06.03 19:03:34.
