data_PCOD9368983
_publ_section_title
;
Structure prediction by ZEFSAII (Michael W. Deem and Ramdas Pophale) SiO2 
 PCOD9368983
Probable space group: F M M 2
;
_chemical_formula_sum "Si O2"
_cell_formula_units_Z 116
_cell_length_a 29.944560
_cell_length_b 8.178731
_cell_length_c 25.849747
_cell_angle_alpha 90.000000
_cell_angle_beta 90.000000
_cell_angle_gamma 90.000000
_cell_volume 6330.822793
_symmetry_space_group_name_H-M "F M M 2"
_symmetry_group_IT_number 42
_symmetry_cell_setting 'orthorhombic'
loop_
_space_group_symop_operation_xyz
x,y,z
-x,-y,z
-x,y,z
x,-y,z
x,1/2+y,1/2+z
-x,1/2-y,1/2+z
-x,1/2+y,1/2+z
x,1/2-y,1/2+z
1/2+x,y,1/2+z
1/2-x,-y,1/2+z
1/2-x,y,1/2+z
1/2+x,-y,1/2+z
1/2+x,1/2+y,z
1/2-x,1/2-y,z
1/2-x,1/2+y,z
1/2+x,1/2-y,z
loop_
_atom_site_type_symbol
_atom_site_label
_atom_site_fract_x
_atom_site_fract_y
_atom_site_fract_z
Si Si1 0.881042 0.186563 0.717250
Si Si2 0.500000 0.000000 0.634182
Si Si3 0.946992 0.302028 0.507381
Si Si4 0.798506 0.803676 0.385952
Si Si5 0.932534 0.309307 0.117718
Si Si6 0.795190 0.811802 0.269002
Si Si7 0.448593 0.694538 0.300946
Si Si8 0.396521 0.805134 0.403125
O O1 0.891431 0.203653 0.657012
O O2 0.839837 0.289945 0.737182
O O3 0.924932 0.228990 0.750865
O O4 0.869211 0.000000 0.728891
O O5 0.537622 0.850160 0.632056
O O6 0.943315 0.500000 0.513033
O O7 0.925158 0.215409 0.556684
O O8 0.924940 0.253875 0.453289
O O9 0.000000 0.264990 0.508315
O O10 0.750000 0.750000 0.407086
O O11 0.800163 0.736867 0.326508
O O12 0.844669 0.740663 0.410053
O O13 0.800428 0.000000 0.387093
O O14 0.949017 0.500000 0.125267
O O15 0.750000 0.750000 0.243099
O O16 0.787796 0.000000 0.278830
O O17 0.500000 0.751229 0.307712
O O18 0.449573 0.500000 0.293147
O O19 0.418424 0.731193 0.351222
O O20 0.400286 0.000000 0.398155
#
# Coordination Sequence:
#
# PCOD9368983 Si02
#       8
#    16   4  16  16  16  16  16  16
#     4  11  24  38  57  85 118 149 195 242 291 354
#     4  12  22  40  64  82 124 152 202 260 292 344
#     4  10  20  38  60  83 115 156 200 247 291 340
#     4  10  20  35  56  83 114 148 191 237 288 346
#     4  11  24  39  61  89 116 158 204 249 299 346
#     4  10  20  35  59  84 114 151 189 235 291 347
#     4  11  24  37  52  77 115 159 195 230 287 346
#     4  11  22  36  58  85 117 153 191 237 293 348
#
# _framework density 18.323053000000002
#
# number of rings (size 3 to 8) (size 9 to 14) (size 15 to 20)
#    0.000    1.379    2.759    2.690    2.897    3.862 
#    0.000    0.000    0.000    0.828    0.000    5.793 
#    0.000    0.000    0.000    0.000    0.000    0.000 
#
# Total GULP energy -161449.975195 kJ/mol
# GULP energy per Si atom -5567.240524 kJ/mol
# Density = 1.828135 g / cm^3
# Si number density = 18.323053 Si / 1000 Ang^3
#
#
#
# Elastic Constant Matrix: (Units=GPa)
#
#
# Indices 1 2 3 4 5 6 
#
# 1 72.5174 -3.0066 24.6066 -0.0001 0.0001 0.0002
# 2 -3.0066 59.4162 -3.7432 -0.0001 0.0001 0.0002
# 3 24.6066 -3.7432 76.0942 0.0000 0.0000 0.0000
# 4 -0.0001 -0.0001 0.0000 21.8658 0.0000 0.0000
# 5 0.0001 0.0001 0.0000 0.0000 19.8314 -0.0001
# 6 0.0002 0.0002 0.0000 0.0000 -0.0001 28.5672
#
#
#
# Elastic Compliance Matrix: (Units=1/GPa)
#
#
# Indices 1 2 3 4 5 6 
#
# 1 0.015502 0.000470 -0.004990 0.000000 0.000000 0.000000
# 2 0.000470 0.016897 0.000679 0.000000 0.000000 0.000000
# 3 -0.004990 0.000679 0.014789 0.000000 0.000000 0.000000
# 4 0.000000 0.000000 0.000000 0.045734 0.000000 0.000000
# 5 0.000000 0.000000 0.000000 0.000000 0.050425 0.000000
# 6 0.000000 0.000000 0.000000 0.000000 0.000000 0.035005
#
#
# Mechanical properties :
#
#
# Convention : Reuss Voigt Hill
#
# Bulk Modulus (GPa) = 25.31211 27.08239 26.19725
# Shear Modulus (GPa) = 25.10014 26.73094 25.91554
#
# Velocity S-wave (km/s) = 3.70519 3.82366 3.76489
# Velocity P-wave (km/s) = 5.67000 5.85717 5.76434
#
# Compressibility (1/GPa) = 0.03950678
#
# Stress axis : x y z
#
# Youngs Moduli (GPa) = 64.50589 59.18212 67.61965
#
# Poissons Ratio (x) = -0.02782 0.33742
# Poissons Ratio (y) = -0.03032 -0.04592
# Poissons Ratio (z) = 0.32188 -0.04019
#
# Static dielectric constant tensor:
#      x y z
#    x 1.634620 0.000000 0.000000 
#    y 0.000000 1.728600 0.000000 
#    z 0.000000 0.000000 1.630600 
# 
# From -- ./inp_files/28343.got.cif
#   From: 2010.05.17/outbox.cif.g08.bks.cpg/sg42_15_cif.got.tgz:28343.got - 2010.06.03 19:03:34.
