data_PCOD9368355
_publ_section_title
;
Structure prediction by ZEFSAII (Michael W. Deem and Ramdas Pophale) SiO2 
 PCOD9368355
Probable space group: F M M 2
;
_chemical_formula_sum "Si O2"
_cell_formula_units_Z 112
_cell_length_a 18.963223
_cell_length_b 20.324113
_cell_length_c 15.830369
_cell_angle_alpha 90.000000
_cell_angle_beta 90.000000
_cell_angle_gamma 90.000000
_cell_volume 6101.193393
_symmetry_space_group_name_H-M "F M M 2"
_symmetry_group_IT_number 42
_symmetry_cell_setting 'orthorhombic'
loop_
_space_group_symop_operation_xyz
x,y,z
-x,-y,z
-x,y,z
x,-y,z
x,1/2+y,1/2+z
-x,1/2-y,1/2+z
-x,1/2+y,1/2+z
x,1/2-y,1/2+z
1/2+x,y,1/2+z
1/2-x,-y,1/2+z
1/2-x,y,1/2+z
1/2+x,-y,1/2+z
1/2+x,1/2+y,z
1/2-x,1/2-y,z
1/2-x,1/2+y,z
1/2+x,1/2-y,z
loop_
_atom_site_type_symbol
_atom_site_label
_atom_site_fract_x
_atom_site_fract_y
_atom_site_fract_z
Si Si1 0.075212 0.425362 0.759080
Si Si2 0.180322 0.921528 0.123333
Si Si3 0.418101 0.386624 0.445283
Si Si4 0.345757 0.423352 0.615973
Si Si5 0.915726 0.819771 0.034743
Si Si6 0.415156 0.209538 0.177949
Si Si7 0.584936 0.250662 0.364993
O O1 0.069067 0.500000 0.729034
O O2 0.144123 0.400397 0.712309
O O3 0.081110 0.427103 0.859094
O O4 0.000000 0.390495 0.738864
O O5 0.262861 0.907263 0.120016
O O6 0.132076 0.881310 0.059134
O O7 0.175119 0.000000 0.110077
O O8 0.500000 0.378588 0.474186
O O9 0.373779 0.417059 0.520144
O O10 0.389663 0.317318 0.410103
O O11 0.356584 0.500000 0.643827
O O12 0.385489 0.363942 0.663638
O O13 0.898138 0.759048 0.099569
O O14 0.000000 0.831604 0.044024
O O15 0.901766 0.803037 0.936877
O O16 0.500000 0.205504 0.179821
O O17 0.390637 0.236706 0.269736
O O18 0.500000 0.258392 0.359051
#
# Coordination Sequence:
#
# PCOD9368355 Si02
#       7
#    16  16  16  16  16  16  16
#     4   9  17  31  55  83 107 139 188 244 295 339
#     4  10  22  38  54  80 118 156 193 235 291 355
#     4  10  18  34  59  88 114 143 193 251 298 340
#     4  11  23  38  56  83 123 165 195 231 291 358
#     4  10  19  36  61  84 109 146 193 247 295 338
#     4  10  20  37  61  88 117 151 192 242 294 348
#     4   9  18  33  56  85 111 140 188 239 288 342
#
# _framework density 18.357064999999999
#
# number of rings (size 3 to 8) (size 9 to 14) (size 15 to 20)
#    0.000    2.143    1.429    2.143    0.000    5.429 
#    2.571    0.714    0.000    2.571    0.000    0.000 
#    0.000    0.000    0.000    0.000    0.000    0.000 
#
# Total GULP energy -155901.447244 kJ/mol
# GULP energy per Si atom -5567.908830 kJ/mol
# Density = 1.831528 g / cm^3
# Si number density = 18.357065 Si / 1000 Ang^3
#
#
#
# Elastic Constant Matrix: (Units=GPa)
#
#
# Indices 1 2 3 4 5 6 
#
# 1 78.2459 31.7622 37.1583 0.0000 0.0000 0.0000
# 2 31.7622 68.2578 17.2179 0.0000 0.0000 0.0000
# 3 37.1583 17.2179 89.4200 0.0000 0.0000 0.0000
# 4 0.0000 0.0000 0.0000 28.7640 0.0000 0.0000
# 5 0.0000 0.0000 0.0000 0.0000 37.3781 0.0000
# 6 0.0000 0.0000 0.0000 0.0000 0.0000 29.8335
#
#
#
# Elastic Compliance Matrix: (Units=1/GPa)
#
#
# Indices 1 2 3 4 5 6 
#
# 1 0.018698 -0.007085 -0.006406 0.000000 0.000000 0.000000
# 2 -0.007085 0.018083 -0.000538 0.000000 0.000000 0.000000
# 3 -0.006406 -0.000538 0.013949 0.000000 0.000000 0.000000
# 4 0.000000 0.000000 0.000000 0.034766 0.000000 0.000000
# 5 0.000000 0.000000 0.000000 0.000000 0.026754 0.000000
# 6 0.000000 0.000000 0.000000 0.000000 0.000000 0.033519
#
#
# Mechanical properties :
#
#
# Convention : Reuss Voigt Hill
#
# Bulk Modulus (GPa) = 44.10583 45.35560 44.73071
# Shear Modulus (GPa) = 27.56600 29.18082 28.37341
#
# Velocity S-wave (km/s) = 3.87933 3.99133 3.93573
# Velocity P-wave (km/s) = 6.64412 6.78248 6.71366
#
# Compressibility (1/GPa) = 0.02267274
#
# Stress axis : x y z
#
# Youngs Moduli (GPa) = 53.48090 55.30122 71.69157
#
# Poissons Ratio (x) = 0.39181 0.45924
# Poissons Ratio (y) = 0.37891 0.03855
# Poissons Ratio (z) = 0.34259 0.02974
#
# Static dielectric constant tensor:
#      x y z
#    x 1.617020 0.000000 0.000000 
#    y 0.000000 1.790890 0.000000 
#    z 0.000000 0.000000 1.649800 
# 
# From -- ./inp_files/21061.got.cif
#   From: 2010.05.17/outbox.cif.g08.bks.cpg/sg42_11_cif.got.tgz:21061.got - 2010.06.03 19:03:34.
