data_PCOD9368264
_publ_section_title
;
Structure prediction by ZEFSAII (Michael W. Deem and Ramdas Pophale) SiO2 
 PCOD9368264
Probable space group: F M M 2
;
_chemical_formula_sum "Si O2"
_cell_formula_units_Z 96
_cell_length_a 17.240562
_cell_length_b 15.305744
_cell_length_c 19.147307
_cell_angle_alpha 90.000000
_cell_angle_beta 90.000000
_cell_angle_gamma 90.000000
_cell_volume 5052.584256
_symmetry_space_group_name_H-M "F M M 2"
_symmetry_group_IT_number 42
_symmetry_cell_setting 'orthorhombic'
loop_
_space_group_symop_operation_xyz
x,y,z
-x,-y,z
-x,y,z
x,-y,z
x,1/2+y,1/2+z
-x,1/2-y,1/2+z
-x,1/2+y,1/2+z
x,1/2-y,1/2+z
1/2+x,y,1/2+z
1/2-x,-y,1/2+z
1/2-x,y,1/2+z
1/2+x,-y,1/2+z
1/2+x,1/2+y,z
1/2-x,1/2-y,z
1/2-x,1/2+y,z
1/2+x,1/2-y,z
loop_
_atom_site_type_symbol
_atom_site_label
_atom_site_fract_x
_atom_site_fract_y
_atom_site_fract_z
Si Si1 0.684506 0.892454 0.033580
Si Si2 0.000000 0.606482 0.260701
Si Si3 0.913017 0.605174 0.899676
Si Si4 0.760017 0.351672 0.821859
Si Si5 0.000000 0.392386 0.422866
Si Si6 0.666150 0.601212 0.956188
Si Si7 0.660380 0.105212 0.191651
O O1 0.669406 0.863685 0.112309
O O2 0.684951 0.000000 0.032929
O O3 0.622295 0.866066 0.974548
O O4 0.768186 0.860901 0.006231
O O5 0.078993 0.636819 0.224112
O O6 0.000000 0.500000 0.258119
O O7 0.000000 0.631375 0.341494
O O8 0.917250 0.500000 0.902650
O O9 0.848222 0.625649 0.841497
O O10 0.000000 0.639073 0.887484
O O11 0.750000 0.250000 0.834691
O O12 0.703181 0.397148 0.878395
O O13 0.729895 0.372100 0.744503
O O14 0.080374 0.360063 0.455504
O O15 0.000000 0.500000 0.424987
O O16 0.657326 0.500000 0.976276
O O17 0.656741 0.000000 0.189267
#
# Coordination Sequence:
#
# PCOD9368264 Si02
#       7
#    16   8  16  16   8  16  16
#     4   8  16  28  50  78 101 125 159 207 254 291
#     4   9  16  24  44  76  97 118 150 196 253 292
#     4   9  18  35  57  77  99 131 172 215 251 293
#     4  11  21  33  48  75 100 137 171 202 248 297
#     4   9  14  24  48  76  97 118 154 198 247 298
#     4   9  16  31  51  75 100 127 162 204 250 294
#     4  10  18  31  50  75 104 128 159 203 252 301
#
# _framework density 19.000177999999998
#
# number of rings (size 3 to 8) (size 9 to 14) (size 15 to 20)
#    0.000    2.667    1.667    2.500    1.167    0.000 
#    3.000    3.333    1.833    0.000    0.000    0.000 
#    0.000    0.000    0.000    0.000    0.000    0.000 
#
# Total GULP energy -133797.142297 kJ/mol
# GULP energy per Si atom -5574.880929 kJ/mol
# Density = 1.895693 g / cm^3
# Si number density = 19.000178 Si / 1000 Ang^3
#
#
#
# Elastic Constant Matrix: (Units=GPa)
#
#
# Indices 1 2 3 4 5 6 
#
# 1 190.9227 15.0581 63.8114 0.0000 0.0000 0.0000
# 2 15.0581 22.7900 9.8372 0.0000 0.0000 0.0000
# 3 63.8114 9.8372 88.1212 0.0000 0.0000 0.0000
# 4 0.0000 0.0000 0.0000 -1.1898 0.0000 0.0000
# 5 0.0000 0.0000 0.0000 0.0000 16.3890 0.0000
# 6 0.0000 0.0000 0.0000 0.0000 0.0000 0.0813
#
#
#
# Elastic Compliance Matrix: (Units=1/GPa)
#
#
# Indices 1 2 3 4 5 6 
#
# 1 0.007052 -0.002579 -0.004818 0.000000 0.000000 0.000000
# 2 -0.002579 0.047044 -0.003384 0.000000 0.000000 0.000000
# 3 -0.004818 -0.003384 0.015215 0.000000 0.000000 0.000000
# 4 0.000000 0.000000 0.000000 -0.840455 0.000000 0.000000
# 5 0.000000 0.000000 0.000000 0.000000 0.061017 0.000000
# 6 0.000000 0.000000 0.000000 0.000000 0.000000 12.299644
#
#
# Mechanical properties :
#
#
# Convention : Reuss Voigt Hill
#
# Bulk Modulus (GPa) = 20.94367 53.24969 37.09668
# Shear Modulus (GPa) = 0.43003 17.26457 8.84730
#
# Velocity S-wave (km/s) = 0.47626 3.01766 2.16022
# Velocity P-wave (km/s) = 3.36886 6.34259 5.07827
#
# Compressibility (1/GPa) = 0.04774711
#
# Stress axis : x y z
#
# Youngs Moduli (GPa) = 141.81231 21.25685 65.72521
#
# Poissons Ratio (x) = 0.05483 0.31669
# Poissons Ratio (y) = 0.36579 0.22240
# Poissons Ratio (z) = 0.68330 0.07193
#
# Static dielectric constant tensor:
#      x y z
#    x 1.701640 0.000000 0.000000 
#    y 0.000000 1.668590 0.000000 
#    z 0.000000 0.000000 1.641500 
# 
# From -- ./inp_files/20831.got.cif
#   From: 2010.05.17/outbox.cif.g08.bks.cpg/sg42_11_cif.got.tgz:20831.got - 2010.06.03 19:03:34.
