data_PCOD9368553
_publ_section_title
;
Structure prediction by ZEFSAII (Michael W. Deem and Ramdas Pophale) SiO2 
 PCOD9368553
Probable space group: F M M 2
;
_chemical_formula_sum "Si O2"
_cell_formula_units_Z 112
_cell_length_a 28.737136
_cell_length_b 15.052983
_cell_length_c 14.721464
_cell_angle_alpha 90.000000
_cell_angle_beta 90.000000
_cell_angle_gamma 90.000000
_cell_volume 6368.205298
_symmetry_space_group_name_H-M "F M M 2"
_symmetry_group_IT_number 42
_symmetry_cell_setting 'orthorhombic'
loop_
_space_group_symop_operation_xyz
x,y,z
-x,-y,z
-x,y,z
x,-y,z
x,1/2+y,1/2+z
-x,1/2-y,1/2+z
-x,1/2+y,1/2+z
x,1/2-y,1/2+z
1/2+x,y,1/2+z
1/2-x,-y,1/2+z
1/2-x,y,1/2+z
1/2+x,-y,1/2+z
1/2+x,1/2+y,z
1/2-x,1/2-y,z
1/2-x,1/2+y,z
1/2+x,1/2-y,z
loop_
_atom_site_type_symbol
_atom_site_label
_atom_site_fract_x
_atom_site_fract_y
_atom_site_fract_z
Si Si1 0.554538 0.801243 0.761490
Si Si2 0.556050 0.500000 0.220460
Si Si3 0.815324 0.605352 0.363825
Si Si4 0.871244 0.751784 0.111160
Si Si5 0.555765 0.000000 0.507245
Si Si6 0.199758 0.097871 0.065959
Si Si7 0.781246 0.838821 0.673439
Si Si8 0.591228 0.687599 0.922954
O O1 0.500000 0.798390 0.734206
O O2 0.569314 0.905765 0.766020
O O3 0.588149 0.758779 0.685252
O O4 0.560477 0.746247 0.854787
O O5 0.500000 0.500000 0.221676
O O6 0.569806 0.500000 0.113800
O O7 0.824713 0.500000 0.359245
O O8 0.792578 0.625875 0.461459
O O9 0.785997 0.632038 0.276984
O O10 0.862875 0.660451 0.366746
O O11 0.838127 0.838996 0.111902
O O12 0.832870 0.676326 0.132901
O O13 0.893896 0.755120 0.011169
O O14 0.572157 0.092314 0.460037
O O15 0.500000 0.000000 0.504195
O O16 0.248853 0.097172 0.115569
O O17 0.179166 0.000000 0.063421
O O18 0.750000 0.750000 0.669123
#
# Coordination Sequence:
#
# PCOD9368553 Si02
#       8
#    16   8  16  16   8  16  16  16
#     4  11  22  37  59  89 120 155 197 248 300 349
#     4   9  20  36  60  85 112 150 200 250 292 345
#     4  10  19  33  56  80 108 146 187 235 291 346
#     4  10  21  35  57  84 115 149 192 242 295 347
#     4  11  20  34  58  89 114 150 204 254 290 343
#     4   9  20  35  56  82 110 144 189 241 287 342
#     4  10  20  36  54  79 112 150 185 230 290 353
#     4  11  21  35  58  86 120 153 193 245 300 347
#
# _framework density 17.587371999999998
#
# number of rings (size 3 to 8) (size 9 to 14) (size 15 to 20)
#    0.000    1.857    3.571    0.857    2.000    3.429 
#    0.000    0.000    3.143    0.000    0.000    1.000 
#    0.000    0.000    0.000    0.000    0.000    0.000 
#
# Total GULP energy -155957.162087 kJ/mol
# GULP energy per Si atom -5569.898646 kJ/mol
# Density = 1.754734 g / cm^3
# Si number density = 17.587372 Si / 1000 Ang^3
#
#
#
# Elastic Constant Matrix: (Units=GPa)
#
#
# Indices 1 2 3 4 5 6 
#
# 1 86.9133 11.8515 44.6465 0.0000 0.0000 0.0000
# 2 11.8515 58.6816 30.7829 0.0000 0.0000 0.0000
# 3 44.6465 30.7829 79.6887 0.0000 0.0000 0.0000
# 4 0.0000 0.0000 0.0000 -60.6430 0.0000 0.0000
# 5 0.0000 0.0000 0.0000 0.0000 28.8106 0.0000
# 6 0.0000 0.0000 0.0000 0.0000 0.0000 7.4898
#
#
#
# Elastic Compliance Matrix: (Units=1/GPa)
#
#
# Indices 1 2 3 4 5 6 
#
# 1 0.016319 0.001882 -0.009870 0.000000 0.000000 0.000000
# 2 0.001882 0.021589 -0.009394 0.000000 0.000000 0.000000
# 3 -0.009870 -0.009394 0.021707 0.000000 0.000000 0.000000
# 4 0.000000 0.000000 0.000000 -0.016490 0.000000 0.000000
# 5 0.000000 0.000000 0.000000 0.000000 0.034709 0.000000
# 6 0.000000 0.000000 0.000000 0.000000 0.000000 0.133515
#
#
# Mechanical properties :
#
#
# Convention : Reuss Voigt Hill
#
# Bulk Modulus (GPa) = 40.23935 44.42726 42.33330
# Shear Modulus (GPa) = 19.65428 4.33166 11.99297
#
# Velocity S-wave (km/s) = 3.34656 1.57108 2.61417
# Velocity P-wave (km/s) = 6.15321 5.34853 5.76493
#
# Compressibility (1/GPa) = 0.02485130
#
# Stress axis : x y z
#
# Youngs Moduli (GPa) = 61.27753 46.32022 46.06757
#
# Poissons Ratio (x) = -0.08716 0.45468
# Poissons Ratio (y) = -0.11530 0.43275
# Poissons Ratio (z) = 0.60480 0.43512
#
# Static dielectric constant tensor:
#      x y z
#    x 1.607080 0.000000 0.000000 
#    y 0.000000 1.634450 0.000000 
#    z 0.000000 0.000000 1.595220 
# 
# From -- ./inp_files/14447.got.cif
#   From: 2010.05.17/outbox.cif.g08.bks.cpg/sg42_8_cif.got.tgz:14447.got - 2010.06.03 19:03:34.
