data_PCOD9368910
_publ_section_title
;
Structure prediction by ZEFSAII (Michael W. Deem and Ramdas Pophale) SiO2 
 PCOD9368910
Probable space group: F M M 2
;
_chemical_formula_sum "Si O2"
_cell_formula_units_Z 80
_cell_length_a 10.751178
_cell_length_b 17.339418
_cell_length_c 22.907111
_cell_angle_alpha 90.000000
_cell_angle_beta 90.000000
_cell_angle_gamma 90.000000
_cell_volume 4270.324604
_symmetry_space_group_name_H-M "F M M 2"
_symmetry_group_IT_number 42
_symmetry_cell_setting 'orthorhombic'
loop_
_space_group_symop_operation_xyz
x,y,z
-x,-y,z
-x,y,z
x,-y,z
x,1/2+y,1/2+z
-x,1/2-y,1/2+z
-x,1/2+y,1/2+z
x,1/2-y,1/2+z
1/2+x,y,1/2+z
1/2-x,-y,1/2+z
1/2-x,y,1/2+z
1/2+x,-y,1/2+z
1/2+x,1/2+y,z
1/2-x,1/2-y,z
1/2-x,1/2+y,z
1/2+x,1/2-y,z
loop_
_atom_site_type_symbol
_atom_site_label
_atom_site_fract_x
_atom_site_fract_y
_atom_site_fract_z
Si Si1 0.500000 0.912050 0.559801
Si Si2 0.352670 0.912265 0.932822
Si Si3 0.000000 0.408237 0.119236
Si Si4 0.292624 0.838447 0.340657
Si Si5 0.000000 0.408691 0.420160
Si Si6 0.500000 0.907661 0.257636
Si Si7 0.262020 0.658939 0.553168
O O1 0.500000 0.909051 0.489264
O O2 0.369135 0.874146 0.576102
O O3 0.500000 0.000000 0.579417
O O4 0.500000 0.910824 0.942946
O O5 0.326387 0.882582 0.867146
O O6 0.305573 0.000000 0.937138
O O7 0.291891 0.866503 0.986652
O O8 0.000000 0.395447 0.188620
O O9 0.877182 0.371955 0.090806
O O10 0.000000 0.500000 0.107529
O O11 0.250000 0.750000 0.333757
O O12 0.385886 0.860545 0.393747
O O13 0.375529 0.870537 0.286993
O O14 0.000000 0.500000 0.401713
O O15 0.500000 0.000000 0.268466
O O16 0.250000 0.750000 0.555006
#
# Coordination Sequence:
#
# PCOD9368910 Si02
#       7
#     8  16   8  16   8   8  16
#     4  11  22  35  58  90 126 167 207 251 302 365
#     4  11  22  35  58  91 133 172 203 247 312 388
#     4  11  24  47  71  87 120 173 223 260 312 388
#     4  11  22  35  60  90 122 155 202 262 313 357
#     4  10  20  34  55  82 122 169 204 235 288 378
#     4  10  24  46  70  85 110 169 226 256 296 383
#     4  12  24  38  62  97 131 166 206 263 320 375
#
# _framework density 18.73394
#
# number of rings (size 3 to 8) (size 9 to 14) (size 15 to 20)
#    0.000    1.000    3.000    5.400    2.800    0.800 
#    0.000    0.000    2.200    0.000    0.000    0.000 
#    0.000    0.000    0.000    0.000    0.000    0.000 
#
# Total GULP energy -111526.689215 kJ/mol
# GULP energy per Si atom -5576.334461 kJ/mol
# Density = 1.869130 g / cm^3
# Si number density = 18.733940 Si / 1000 Ang^3
#
#
#
# Elastic Constant Matrix: (Units=GPa)
#
#
# Indices 1 2 3 4 5 6 
#
# 1 143.1291 82.8013 50.4519 0.0000 0.0000 0.0000
# 2 82.8013 188.4388 60.6631 0.0000 0.0000 0.0000
# 3 50.4519 60.6631 103.2536 0.0000 0.0000 0.0000
# 4 0.0000 0.0000 0.0000 1014.6085 0.0000 0.0000
# 5 0.0000 0.0000 0.0000 0.0000 27.0648 0.0000
# 6 0.0000 0.0000 0.0000 0.0000 0.0000 40.8635
#
#
#
# Elastic Compliance Matrix: (Units=1/GPa)
#
#
# Indices 1 2 3 4 5 6 
#
# 1 0.010002 -0.003480 -0.002843 0.000000 0.000000 0.000000
# 2 -0.003480 0.007755 -0.002856 0.000000 0.000000 0.000000
# 3 -0.002843 -0.002856 0.012752 0.000000 0.000000 0.000000
# 4 0.000000 0.000000 0.000000 0.000986 0.000000 0.000000
# 5 0.000000 0.000000 0.000000 0.000000 0.036948 0.000000
# 6 0.000000 0.000000 0.000000 0.000000 0.000000 0.024472
#
#
# Mechanical properties :
#
#
# Convention : Reuss Voigt Hill
#
# Bulk Modulus (GPa) = 82.29138 91.40602 86.84870
# Shear Modulus (GPa) = 43.35686 232.56770 137.96228
#
# Velocity S-wave (km/s) = 4.81599 11.15401 8.59086
# Velocity P-wave (km/s) = 8.65718 14.65538 12.03592
#
# Compressibility (1/GPa) = 0.01215194
#
# Stress axis : x y z
#
# Youngs Moduli (GPa) = 99.98236 128.94569 78.41989
#
# Poissons Ratio (x) = 0.44869 0.22292
# Poissons Ratio (y) = 0.34791 0.22397
# Poissons Ratio (z) = 0.28422 0.36827
#
# Static dielectric constant tensor:
#      x y z
#    x 1.794010 0.000000 0.000000 
#    y 0.000000 1.645880 0.000000 
#    z 0.000000 0.000000 1.628900 
# 
# From -- ./inp_files/28679.got.cif
#   From: 2010.05.17/outbox.cif.g08.bks.cpg/sg42_15_cif.got.tgz:28679.got - 2010.06.03 19:03:34.
