data_PCOD9368071
_publ_section_title
;
Structure prediction by ZEFSAII (Michael W. Deem and Ramdas Pophale) SiO2 
 PCOD9368071
Probable space group: A B A 2
;
_chemical_formula_sum "Si O2"
_cell_formula_units_Z 28
_cell_length_a 9.000000
_cell_length_b 21.000000
_cell_length_c 15.000000
_cell_angle_alpha 90.000000
_cell_angle_beta 90.000000
_cell_angle_gamma 90.000000
_cell_volume 2835.000000
_symmetry_space_group_name_H-M "A B A 2"
_symmetry_group_IT_number 41
_symmetry_cell_setting 'orthorhombic'
loop_
_space_group_symop_operation_xyz
x,y,z
-x,-y,z
1/2-x,y,1/2+z
1/2+x,-y,1/2+z
x,1/2+y,1/2+z
-x,1/2-y,1/2+z
1/2-x,1/2+y,z
1/2+x,1/2-y,z
loop_
_atom_site_type_symbol
_atom_site_label
_atom_site_fract_x
_atom_site_fract_y
_atom_site_fract_z
Si Si1 0.500000 0.000000 0.860271
Si Si2 0.152802 0.673341 0.139724
Si Si3 0.363718 0.686708 0.850059
Si Si4 0.500000 0.000000 0.384209
Si Si5 0.205421 0.313822 0.416867
Si Si6 0.235769 0.081150 0.473654
Si Si7 0.197903 0.313451 0.119423
Si Si8 0.254410 0.417219 0.783120
O O1 0.404172 0.044122 0.929389
O O2 0.618113 0.033497 0.792405
O O3 0.143868 0.662972 0.247286
O O4 0.246766 0.740210 0.137302
O O5 0.981517 0.686285 0.110915
O O6 0.211318 0.615768 0.072581
O O7 0.533225 0.688687 0.885959
O O8 0.289592 0.754123 0.873105
O O9 0.267939 0.639974 0.909846
O O10 0.618956 0.963816 0.449828
O O11 0.404716 0.954441 0.316296
O O12 0.227549 0.324280 0.522360
O O13 0.277493 0.372590 0.367033
O O14 0.233370 0.369087 0.195693
#
# Coordination Sequence:
#
# PCOD9368071 Si02
#       8
#     4   8   8   4   8   8   8   8
#     4  10  26  46  72 106 150 202 236 290 346 448
#     4  12  24  43  70 111 142 183 238 306 368 432
#     4  12  24  44  71 105 144 183 229 310 369 420
#     4  10  22  48  74  98 156 212 224 292 350 438
#     4  12  24  43  71 104 145 183 232 306 371 420
#     4  11  24  46  72 103 146 191 248 283 359 437
#     4  12  25  42  72 107 143 181 242 305 372 431
#     4  11  23  47  71 102 148 189 247 287 357 438
#
# _framework density 9.8765429999999999
#
# number of rings (size 3 to 8) (size 9 to 14) (size 15 to 20)
#    0.000    0.571    5.714    1.714    2.000    1.143 
#    0.000   15.000    0.000    0.000    0.000    0.000 
#    0.000    0.000    0.000    0.000    0.000    0.000 
#
# Total GULP energy -155963.399519 kJ/mol
# GULP energy per Si atom -5570.121411 kJ/mol
# Density = 0.985406 g / cm^3
# Si number density = 9.876543 Si / 1000 Ang^3
#
#
#
# Elastic Constant Matrix: (Units=GPa)
#
#
# Indices 1 2 3 4 5 6 
#
# 1 126.3649 47.8922 32.6936 0.0000 0.0000 0.0000
# 2 47.8922 93.7728 23.7668 0.0000 0.0000 0.0000
# 3 32.6936 23.7668 152.3777 0.0000 0.0000 0.0000
# 4 0.0000 0.0000 0.0000 47.7690 0.0000 0.0000
# 5 0.0000 0.0000 0.0000 0.0000 34.0430 0.0000
# 6 0.0000 0.0000 0.0000 0.0000 0.0000 47.7104
#
#
#
# Elastic Compliance Matrix: (Units=1/GPa)
#
#
# Indices 1 2 3 4 5 6 
#
# 1 0.010099 -0.004798 -0.001418 0.000000 0.000000 0.000000
# 2 -0.004798 0.013383 -0.001058 0.000000 0.000000 0.000000
# 3 -0.001418 -0.001058 0.007032 0.000000 0.000000 0.000000
# 4 0.000000 0.000000 0.000000 0.020934 0.000000 0.000000
# 5 0.000000 0.000000 0.000000 0.000000 0.029375 0.000000
# 6 0.000000 0.000000 0.000000 0.000000 0.000000 0.020960
#
#
# Mechanical properties :
#
#
# Convention : Reuss Voigt Hill
#
# Bulk Modulus (GPa) = 62.63835 64.58008 63.60922
# Shear Modulus (GPa) = 41.10040 43.78200 42.44120
#
# Velocity S-wave (km/s) = 4.56643 4.71304 4.64031
# Velocity P-wave (km/s) = 7.71897 7.89821 7.80910
#
# Compressibility (1/GPa) = 0.01596466
#
# Stress axis : x y z
#
# Youngs Moduli (GPa) = 99.01815 74.72248 142.20775
#
# Poissons Ratio (x) = 0.35855 0.20171
# Poissons Ratio (y) = 0.47513 0.15043
# Poissons Ratio (z) = 0.14045 0.07904
#
# Static dielectric constant tensor:
#      x y z
#    x 1.761830 0.000000 0.000000 
#    y 0.000000 1.828650 0.000000 
#    z 0.000000 0.000000 1.698590 
# 
# From -- ./inp_files/7506.got.cif
#   From: 2010.05.17/outbox.ucp.g08.bks.cvg/sg41_4_cif.got.tgz:7506.got - 2010.06.11 16:28:22.
