data_PCOD9368711
_publ_section_title
;
Structure prediction by ZEFSAII (Michael W. Deem and Ramdas Pophale) SiO2 
 PCOD9368711
Probable space group: F M M 2
;
_chemical_formula_sum "Si O2"
_cell_formula_units_Z 112
_cell_length_a 15.185552
_cell_length_b 22.716889
_cell_length_c 16.585564
_cell_angle_alpha 90.000000
_cell_angle_beta 90.000000
_cell_angle_gamma 90.000000
_cell_volume 5721.497121
_symmetry_space_group_name_H-M "F M M 2"
_symmetry_group_IT_number 42
_symmetry_cell_setting 'orthorhombic'
loop_
_space_group_symop_operation_xyz
x,y,z
-x,-y,z
-x,y,z
x,-y,z
x,1/2+y,1/2+z
-x,1/2-y,1/2+z
-x,1/2+y,1/2+z
x,1/2-y,1/2+z
1/2+x,y,1/2+z
1/2-x,-y,1/2+z
1/2-x,y,1/2+z
1/2+x,-y,1/2+z
1/2+x,1/2+y,z
1/2-x,1/2-y,z
1/2-x,1/2+y,z
1/2+x,1/2-y,z
loop_
_atom_site_type_symbol
_atom_site_label
_atom_site_fract_x
_atom_site_fract_y
_atom_site_fract_z
Si Si1 0.398274 0.281333 0.998270
Si Si2 0.136760 0.185371 0.698363
Si Si3 0.101886 0.933141 0.250098
Si Si4 0.601482 0.649066 0.516035
Si Si5 0.280749 0.567696 0.409303
Si Si6 0.842009 0.184444 0.168030
Si Si7 0.902250 0.122495 0.862714
O O1 0.500000 0.283415 0.027494
O O2 0.392123 0.320978 0.920321
O O3 0.379008 0.213719 0.980062
O O4 0.340792 0.305285 0.071886
O O5 0.107954 0.159097 0.612235
O O6 0.113413 0.255233 0.701481
O O7 0.242618 0.183186 0.699688
O O8 0.103080 0.146713 0.771965
O O9 0.162907 0.923151 0.327658
O O10 0.115869 0.878043 0.190535
O O11 0.000000 0.932702 0.275125
O O12 0.120666 0.000000 0.218442
O O13 0.500000 0.632320 0.496371
O O14 0.673304 0.605937 0.478744
O O15 0.287425 0.500000 0.432746
O O16 0.180226 0.582720 0.387099
O O17 0.000000 0.096766 0.876643
#
# Coordination Sequence:
#
# PCOD9368711 Si02
#       7
#    16  16  16  16  16  16  16
#     4   9  20  36  59  92 126 161 199 250 309 367
#     4  10  21  36  60  94 125 165 207 252 312 371
#     4  10  21  37  60  89 122 160 201 248 301 362
#     4  10  21  39  63  92 128 162 200 256 314 367
#     4  11  24  42  62  86 119 160 210 257 304 370
#     4  10  19  36  59  89 128 167 205 253 301 361
#     4  11  23  40  62  88 122 160 206 257 314 377
#
# _framework density 19.575296000000002
#
# number of rings (size 3 to 8) (size 9 to 14) (size 15 to 20)
#    0.000    1.857    1.429    2.143    2.000    4.571 
#    0.000    3.571    0.000    2.571    0.000    0.000 
#    0.000    0.000    0.000    0.000    0.000    0.000 
#
# Total GULP energy -156301.111933 kJ/mol
# GULP energy per Si atom -5582.182569 kJ/mol
# Density = 1.953074 g / cm^3
# Si number density = 19.575296 Si / 1000 Ang^3
#
#
#
# Elastic Constant Matrix: (Units=GPa)
#
#
# Indices 1 2 3 4 5 6 
#
# 1 109.1616 47.0610 23.1745 0.0000 0.0000 0.0000
# 2 47.0610 101.6611 37.0972 0.0000 0.0000 0.0000
# 3 23.1745 37.0972 35.3970 0.0000 0.0000 0.0000
# 4 0.0000 0.0000 0.0000 21.9964 0.0000 0.0000
# 5 0.0000 0.0000 0.0000 0.0000 28.5421 0.0000
# 6 0.0000 0.0000 0.0000 0.0000 0.0000 17.0591
#
#
#
# Elastic Compliance Matrix: (Units=1/GPa)
#
#
# Indices 1 2 3 4 5 6 
#
# 1 0.011665 -0.004231 -0.003202 0.000000 0.000000 0.000000
# 2 -0.004231 0.017463 -0.015532 0.000000 0.000000 0.000000
# 3 -0.003202 -0.015532 0.046625 0.000000 0.000000 0.000000
# 4 0.000000 0.000000 0.000000 0.045462 0.000000 0.000000
# 5 0.000000 0.000000 0.000000 0.000000 0.035036 0.000000
# 6 0.000000 0.000000 0.000000 0.000000 0.000000 0.058620
#
#
# Mechanical properties :
#
#
# Convention : Reuss Voigt Hill
#
# Bulk Modulus (GPa) = 33.53179 51.20943 42.37061
# Shear Modulus (GPa) = 18.46778 22.77866 20.62322
#
# Velocity S-wave (km/s) = 3.07485 3.41492 3.24934
# Velocity P-wave (km/s) = 5.45647 6.46266 5.98076
#
# Compressibility (1/GPa) = 0.02982245
#
# Stress axis : x y z
#
# Youngs Moduli (GPa) = 85.72845 57.26407 21.44760
#
# Poissons Ratio (x) = 0.24230 0.06869
# Poissons Ratio (y) = 0.36274 0.33311
# Poissons Ratio (z) = 0.27454 0.88940
#
# Static dielectric constant tensor:
#      x y z
#    x 1.721550 0.000000 0.000000 
#    y 0.000000 1.676450 0.000000 
#    z 0.000000 0.000000 1.666640 
# 
# From -- ./inp_files/14263.got.cif
#   From: 2010.05.17/outbox.cif.g08.bks.cpg/sg42_8_cif.got.tgz:14263.got - 2010.06.03 19:03:34.
