data_PCOD9368938
_publ_section_title
;
Structure prediction by ZEFSAII (Michael W. Deem and Ramdas Pophale) SiO2 
 PCOD9368938
Probable space group: F M M 2
;
_chemical_formula_sum "Si O2"
_cell_formula_units_Z 100
_cell_length_a 22.479691
_cell_length_b 13.187458
_cell_length_c 14.207141
_cell_angle_alpha 90.000000
_cell_angle_beta 90.000000
_cell_angle_gamma 90.000000
_cell_volume 4211.706678
_symmetry_space_group_name_H-M "F M M 2"
_symmetry_group_IT_number 42
_symmetry_cell_setting 'orthorhombic'
loop_
_space_group_symop_operation_xyz
x,y,z
-x,-y,z
-x,y,z
x,-y,z
x,1/2+y,1/2+z
-x,1/2-y,1/2+z
-x,1/2+y,1/2+z
x,1/2-y,1/2+z
1/2+x,y,1/2+z
1/2-x,-y,1/2+z
1/2-x,y,1/2+z
1/2+x,-y,1/2+z
1/2+x,1/2+y,z
1/2-x,1/2-y,z
1/2-x,1/2+y,z
1/2+x,1/2-y,z
loop_
_atom_site_type_symbol
_atom_site_label
_atom_site_fract_x
_atom_site_fract_y
_atom_site_fract_z
Si Si1 0.500000 0.500000 0.693990
Si Si2 0.273059 0.118227 0.380289
Si Si3 0.065053 0.808510 0.767684
Si Si4 0.844727 0.117144 0.492587
Si Si5 0.873790 0.882813 0.170202
Si Si6 0.267944 0.380252 0.672638
Si Si7 0.387837 0.682487 0.968813
O O1 0.551800 0.407904 0.703263
O O2 0.103041 0.196982 0.478496
O O3 0.284909 0.157754 0.275859
O O4 0.316935 0.169976 0.452902
O O5 0.288543 0.000000 0.385284
O O6 0.102905 0.714025 0.728780
O O7 0.085111 0.850693 0.869730
O O8 0.000000 0.761958 0.782785
O O9 0.808461 0.150787 0.585834
O O10 0.795850 0.123420 0.408756
O O11 0.862858 0.000000 0.499793
O O12 0.802557 0.868616 0.160674
O O13 0.883171 0.000000 0.204869
O O14 0.902437 0.872830 0.065578
O O15 0.277246 0.500000 0.676991
#
# Coordination Sequence:
#
# PCOD9368938 Si02
#       7
#     4  16  16  16  16  16  16
#     4   8  24  56  74  96 140 166 244 298 372 444
#     4  10  20  34  59  89 132 184 231 279 333 403
#     4  10  26  49  73  99 134 180 234 307 363 424
#     4  10  21  39  55  93 147 188 232 277 331 417
#     4  11  24  43  72 107 144 182 236 291 355 415
#     4   9  19  37  59  93 142 190 226 276 337 411
#     4  12  24  39  69 104 132 187 238 289 355 416
#
# _framework density 23.743345000000001
#
# number of rings (size 3 to 8) (size 9 to 14) (size 15 to 20)
#    0.480    1.280    1.600    1.920    4.480    2.880 
#    1.440    0.000    0.000    0.000    0.000    0.000 
#    0.000    0.000    0.000    0.000    0.000    0.000 
#
# Total GULP energy -139317.384013 kJ/mol
# GULP energy per Si atom -5572.695361 kJ/mol
# Density = 2.368930 g / cm^3
# Si number density = 23.743345 Si / 1000 Ang^3
#
#
#
# Elastic Constant Matrix: (Units=GPa)
#
#
# Indices 1 2 3 4 5 6 
#
# 1 26.4265 12.6161 -2.8000 0.0000 0.0000 0.0000
# 2 12.6161 152.5130 11.6635 0.0000 0.0000 0.0000
# 3 -2.8000 11.6635 100.7250 0.0000 0.0000 0.0000
# 4 0.0000 0.0000 0.0000 28.8562 0.0000 0.0000
# 5 0.0000 0.0000 0.0000 0.0000 -5.3540 0.0000
# 6 0.0000 0.0000 0.0000 0.0000 0.0000 25.9082
#
#
#
# Elastic Compliance Matrix: (Units=1/GPa)
#
#
# Indices 1 2 3 4 5 6 
#
# 1 0.039618 -0.003392 0.001494 0.000000 0.000000 0.000000
# 2 -0.003392 0.006906 -0.000894 0.000000 0.000000 0.000000
# 3 0.001494 -0.000894 0.010073 0.000000 0.000000 0.000000
# 4 0.000000 0.000000 0.000000 0.034655 0.000000 0.000000
# 5 0.000000 0.000000 0.000000 0.000000 -0.186778 0.000000
# 6 0.000000 0.000000 0.000000 0.000000 0.000000 0.038598
#
#
# Mechanical properties :
#
#
# Convention : Reuss Voigt Hill
#
# Bulk Modulus (GPa) = 19.60239 35.84708 27.72473
# Shear Modulus (GPa) = -145.59989 27.09443 -59.25273
#
# Velocity S-wave (km/s) = -7.83936 3.38174 -5.00097
# Velocity P-wave (km/s) = 8.58294 5.51169 4.65232
#
# Compressibility (1/GPa) = 0.05101420
#
# Stress axis : x y z
#
# Youngs Moduli (GPa) = 25.24091 144.80727 99.27464
#
# Poissons Ratio (x) = 0.49112 -0.14832
# Poissons Ratio (y) = 0.08561 0.08874
# Poissons Ratio (z) = -0.03771 0.12945
#
# Static dielectric constant tensor:
#      x y z
#    x 1.931550 0.000000 0.000000 
#    y 0.000000 1.957080 0.000000 
#    z 0.000000 0.000000 1.986250 
# 
# From -- ./inp_files/17034.got.cif
#   From: 2010.05.17/outbox.cif.g08.bks.cpg/sg42_9_cif.got.tgz:17034.got - 2010.06.03 19:03:34.
