data_PCOD9368787
_publ_section_title
;
Structure prediction by ZEFSAII (Michael W. Deem and Ramdas Pophale) SiO2 
 PCOD9368787
Probable space group: F M M 2
;
_chemical_formula_sum "Si O2"
_cell_formula_units_Z 96
_cell_length_a 11.079593
_cell_length_b 19.053413
_cell_length_c 19.430847
_cell_angle_alpha 90.000000
_cell_angle_beta 90.000000
_cell_angle_gamma 90.000000
_cell_volume 4101.930716
_symmetry_space_group_name_H-M "F M M 2"
_symmetry_group_IT_number 42
_symmetry_cell_setting 'orthorhombic'
loop_
_space_group_symop_operation_xyz
x,y,z
-x,-y,z
-x,y,z
x,-y,z
x,1/2+y,1/2+z
-x,1/2-y,1/2+z
-x,1/2+y,1/2+z
x,1/2-y,1/2+z
1/2+x,y,1/2+z
1/2-x,-y,1/2+z
1/2-x,y,1/2+z
1/2+x,-y,1/2+z
1/2+x,1/2+y,z
1/2-x,1/2-y,z
1/2-x,1/2+y,z
1/2+x,1/2-y,z
loop_
_atom_site_type_symbol
_atom_site_label
_atom_site_fract_x
_atom_site_fract_y
_atom_site_fract_z
Si Si1 0.124680 0.777821 0.782940
Si Si2 0.778835 0.920692 0.747530
Si Si3 0.639412 0.923657 0.099764
Si Si4 0.361929 0.583564 0.381301
Si Si5 0.368374 0.270879 0.565434
Si Si6 0.132876 0.826798 0.930573
O O1 0.250000 0.750000 0.756072
O O2 0.128822 0.860404 0.767689
O O3 0.127954 0.774214 0.865566
O O4 0.000000 0.746091 0.757835
O O5 0.771217 0.916361 0.664788
O O6 0.665776 0.908517 0.798788
O O7 0.820744 0.000000 0.762001
O O8 0.500000 0.925153 0.125891
O O9 0.643682 0.854404 0.053880
O O10 0.660576 0.000000 0.066649
O O11 0.500000 0.606860 0.397246
O O12 0.355994 0.500000 0.395973
O O13 0.248533 0.623590 0.416675
O O14 0.500000 0.260474 0.597477
O O15 0.250000 0.250000 0.607341
O O16 0.363249 0.221085 0.498627
O O17 0.000000 0.863441 0.931535
#
# Coordination Sequence:
#
# PCOD9368787 Si02
#       6
#    16  16  16  16  16  16
#     4  10  20  32  50  79 113 150 190 234 289 352
#     4   9  18  34  57  85 118 153 191 240 297 356
#     4   9  18  35  60  87 116 156 206 254 298 352
#     4   9  18  33  56  90 128 162 199 247 304 365
#     4  10  21  38  60  86 117 155 203 256 307 357
#     4   9  19  35  55  81 116 160 205 250 302 360
#
# _framework density 23.403613
#
# number of rings (size 3 to 8) (size 9 to 14) (size 15 to 20)
#    0.000    2.667    0.000    1.000    0.000    6.000 
#    0.000    6.667    0.000    7.500    0.000    2.333 
#    0.000    0.000    0.000    0.000    0.000    0.667 
#
# Total GULP energy -133729.459426 kJ/mol
# GULP energy per Si atom -5572.060809 kJ/mol
# Density = 2.335035 g / cm^3
# Si number density = 23.403613 Si / 1000 Ang^3
#
#
#
# Elastic Constant Matrix: (Units=GPa)
#
#
# Indices 1 2 3 4 5 6 
#
# 1 239.0962 82.6599 37.5257 0.0000 0.0000 0.0000
# 2 82.6599 117.4789 24.5488 0.0000 0.0000 0.0000
# 3 37.5257 24.5488 97.4538 0.0000 0.0000 0.0000
# 4 0.0000 0.0000 0.0000 11.4918 0.0000 0.0000
# 5 0.0000 0.0000 0.0000 0.0000 -4.6778 0.0000
# 6 0.0000 0.0000 0.0000 0.0000 0.0000 34.2408
#
#
#
# Elastic Compliance Matrix: (Units=1/GPa)
#
#
# Indices 1 2 3 4 5 6 
#
# 1 0.005666 -0.003727 -0.001243 0.000000 0.000000 0.000000
# 2 -0.003727 0.011437 -0.001446 0.000000 0.000000 0.000000
# 3 -0.001243 -0.001446 0.011104 0.000000 0.000000 0.000000
# 4 0.000000 0.000000 0.000000 0.087019 0.000000 0.000000
# 5 0.000000 0.000000 0.000000 0.000000 -0.213776 0.000000
# 6 0.000000 0.000000 0.000000 0.000000 0.000000 0.029205
#
#
# Mechanical properties :
#
#
# Convention : Reuss Voigt Hill
#
# Bulk Modulus (GPa) = 65.03924 82.61084 73.82504
# Shear Modulus (GPa) = -97.29663 28.83059 -34.23302
#
# Velocity S-wave (km/s) = -6.45473 3.51363 -3.82871
# Velocity P-wave (km/s) = 5.26316 7.19971 3.47382
#
# Compressibility (1/GPa) = 0.01537533
#
# Stress axis : x y z
#
# Youngs Moduli (GPa) = 176.49276 87.43853 90.05701
#
# Poissons Ratio (x) = 0.32588 0.11193
# Poissons Ratio (y) = 0.65777 0.13021
# Poissons Ratio (z) = 0.21937 0.12642
#
# Static dielectric constant tensor:
#      x y z
#    x 1.971820 0.000000 0.000000 
#    y 0.000000 1.940060 0.000000 
#    z 0.000000 0.000000 1.940450 
# 
# From -- ./inp_files/24454.got.cif
#   From: 2010.05.17/outbox.cif.g08.bks.cpg/sg42_13_cif.got.tgz:24454.got - 2010.06.03 19:03:34.
