data_PCOD9368894
_publ_section_title
;
Structure prediction by ZEFSAII (Michael W. Deem and Ramdas Pophale) SiO2 
 PCOD9368894
Probable space group: F M M 2
;
_chemical_formula_sum "Si O2"
_cell_formula_units_Z 80
_cell_length_a 18.106562
_cell_length_b 13.057276
_cell_length_c 14.003500
_cell_angle_alpha 90.000000
_cell_angle_beta 90.000000
_cell_angle_gamma 90.000000
_cell_volume 3310.740763
_symmetry_space_group_name_H-M "F M M 2"
_symmetry_group_IT_number 42
_symmetry_cell_setting 'orthorhombic'
loop_
_space_group_symop_operation_xyz
x,y,z
-x,-y,z
-x,y,z
x,-y,z
x,1/2+y,1/2+z
-x,1/2-y,1/2+z
-x,1/2+y,1/2+z
x,1/2-y,1/2+z
1/2+x,y,1/2+z
1/2-x,-y,1/2+z
1/2-x,y,1/2+z
1/2+x,-y,1/2+z
1/2+x,1/2+y,z
1/2-x,1/2-y,z
1/2-x,1/2+y,z
1/2+x,1/2-y,z
loop_
_atom_site_type_symbol
_atom_site_label
_atom_site_fract_x
_atom_site_fract_y
_atom_site_fract_z
Si Si1 0.584895 0.882757 0.010410
Si Si2 0.731308 0.631760 0.185613
Si Si3 0.818885 0.689098 0.493732
Si Si4 0.379245 0.390775 0.800759
Si Si5 0.919916 0.841128 0.283167
O O1 0.500000 0.874431 0.044039
O O2 0.631324 0.781437 0.039260
O O3 0.610497 0.000000 0.033831
O O4 0.583546 0.870760 0.895093
O O5 0.750000 0.750000 0.185616
O O6 0.715101 0.615239 0.073845
O O7 0.802719 0.597077 0.242912
O O8 0.653565 0.614138 0.236795
O O9 0.750000 0.750000 0.446425
O O10 0.861117 0.628464 0.412308
O O11 0.418322 0.500000 0.788133
O O12 0.415553 0.282747 0.772342
O O13 0.000000 0.875051 0.245787
#
# Coordination Sequence:
#
# PCOD9368894 Si02
#       5
#    16  16  16  16  16
#     4   9  18  34  57  83 110 145 189 233 279 333
#     4   9  19  35  52  74 107 144 182 226 275 325
#     4  10  20  34  54  80 111 146 185 230 282 333
#     4  10  20  35  56  81 111 148 187 226 274 335
#     4   9  18  34  55  78 108 146 186 230 278 327
#
# _framework density 24.163775999999999
#
# number of rings (size 3 to 8) (size 9 to 14) (size 15 to 20)
#    0.000    2.600    0.000    3.000    0.000    5.200 
#    0.000    8.000    0.000    4.800    0.000    2.800 
#    0.000    0.000    0.000    0.000    0.000    0.200 
#
# Total GULP energy -111518.651613 kJ/mol
# GULP energy per Si atom -5575.932581 kJ/mol
# Density = 2.410878 g / cm^3
# Si number density = 24.163776 Si / 1000 Ang^3
#
#
#
# Elastic Constant Matrix: (Units=GPa)
#
#
# Indices 1 2 3 4 5 6 
#
# 1 136.8995 29.1546 25.3175 0.0000 0.0000 0.0000
# 2 29.1546 182.2960 12.5548 0.0000 0.0000 0.0000
# 3 25.3175 12.5548 76.3868 0.0000 0.0000 0.0000
# 4 0.0000 0.0000 0.0000 83.8953 0.0000 0.0000
# 5 0.0000 0.0000 0.0000 0.0000 13.4548 0.0000
# 6 0.0000 0.0000 0.0000 0.0000 0.0000 29.3797
#
#
#
# Elastic Compliance Matrix: (Units=1/GPa)
#
#
# Indices 1 2 3 4 5 6 
#
# 1 0.007997 -0.001109 -0.002468 0.000000 0.000000 0.000000
# 2 -0.001109 0.005702 -0.000570 0.000000 0.000000 0.000000
# 3 -0.002468 -0.000570 0.014003 0.000000 0.000000 0.000000
# 4 0.000000 0.000000 0.000000 0.011920 0.000000 0.000000
# 5 0.000000 0.000000 0.000000 0.000000 0.074323 0.000000
# 6 0.000000 0.000000 0.000000 0.000000 0.000000 0.034037
#
#
# Mechanical properties :
#
#
# Convention : Reuss Voigt Hill
#
# Bulk Modulus (GPa) = 51.52379 58.84846 55.18612
# Shear Modulus (GPa) = 30.72281 47.24965 38.98623
#
# Velocity S-wave (km/s) = 3.56959 4.42678 4.02109
# Velocity P-wave (km/s) = 6.19341 7.10882 6.66685
#
# Compressibility (1/GPa) = 0.01940851
#
# Stress axis : x y z
#
# Youngs Moduli (GPa) = 125.04234 175.37159 71.41329
#
# Poissons Ratio (x) = 0.19449 0.17627
# Poissons Ratio (y) = 0.13867 0.04068
# Poissons Ratio (z) = 0.30865 0.09990
#
# Static dielectric constant tensor:
#      x y z
#    x 1.930910 0.000000 0.000000 
#    y 0.000000 1.999210 0.000000 
#    z 0.000000 0.000000 1.944290 
# 
# From -- ./inp_files/15727.got.cif
#   From: 2010.05.17/outbox.cif.g08.bks.cpg/sg42_8_cif.got.tgz:15727.got - 2010.06.03 19:03:34.
