data_PCOD9368925
_publ_section_title
;
Structure prediction by ZEFSAII (Michael W. Deem and Ramdas Pophale) SiO2 
 PCOD9368925
Probable space group: F M M 2
;
_chemical_formula_sum "Si O2"
_cell_formula_units_Z 112
_cell_length_a 26.160804
_cell_length_b 20.220146
_cell_length_c 10.637989
_cell_angle_alpha 90.000000
_cell_angle_beta 90.000000
_cell_angle_gamma 90.000000
_cell_volume 5627.233171
_symmetry_space_group_name_H-M "F M M 2"
_symmetry_group_IT_number 42
_symmetry_cell_setting 'orthorhombic'
loop_
_space_group_symop_operation_xyz
x,y,z
-x,-y,z
-x,y,z
x,-y,z
x,1/2+y,1/2+z
-x,1/2-y,1/2+z
-x,1/2+y,1/2+z
x,1/2-y,1/2+z
1/2+x,y,1/2+z
1/2-x,-y,1/2+z
1/2-x,y,1/2+z
1/2+x,-y,1/2+z
1/2+x,1/2+y,z
1/2-x,1/2-y,z
1/2-x,1/2+y,z
1/2+x,1/2-y,z
loop_
_atom_site_type_symbol
_atom_site_label
_atom_site_fract_x
_atom_site_fract_y
_atom_site_fract_z
Si Si1 0.585440 0.424482 0.743010
Si Si2 0.660991 0.925916 0.855443
Si Si3 0.378279 0.747673 0.100846
Si Si4 0.179279 0.885057 0.618692
Si Si5 0.444686 0.420779 0.450338
Si Si6 0.440362 0.786120 0.349381
Si Si7 0.720122 0.318294 0.204564
O O1 0.572220 0.500000 0.776387
O O2 0.647044 0.415782 0.733370
O O3 0.565639 0.411670 0.599483
O O4 0.564319 0.365505 0.827267
O O5 0.602019 0.901387 0.860796
O O6 0.696404 0.867128 0.807257
O O7 0.665283 0.000000 0.797360
O O8 0.674603 0.932374 0.001472
O O9 0.351892 0.818764 0.084815
O O10 0.411419 0.753515 0.229215
O O11 0.328955 0.700751 0.120459
O O12 0.412065 0.731755 0.979316
O O13 0.236352 0.862232 0.641165
O O14 0.500000 0.391927 0.419075
O O15 0.446495 0.500000 0.435921
O O16 0.500000 0.768378 0.352141
O O17 0.750000 0.250000 0.244383
#
# Coordination Sequence:
#
# PCOD9368925 Si02
#       7
#    16  16  16  16  16  16  16
#     4   9  18  33  55  86 118 149 192 240 288 349
#     4  10  20  34  56  88 120 149 194 248 295 351
#     4  10  22  40  60  85 115 154 204 244 286 352
#     4   9  19  35  57  80 110 153 200 247 290 341
#     4   8  14  28  51  80 116 155 194 237 285 343
#     4  11  22  38  61  88 120 155 194 245 296 346
#     4  10  22  39  59  81 112 155 196 242 300 357
#
# _framework density 19.903210000000001
#
# number of rings (size 3 to 8) (size 9 to 14) (size 15 to 20)
#    0.000    2.429    0.000    3.000    0.000    7.143 
#    0.000    7.143    0.000    0.000    0.000    0.000 
#    0.000    3.429    0.000    0.000    0.000    0.000 
#
# Total GULP energy -155997.139278 kJ/mol
# GULP energy per Si atom -5571.326403 kJ/mol
# Density = 1.985791 g / cm^3
# Si number density = 19.903210 Si / 1000 Ang^3
#
#
#
# Elastic Constant Matrix: (Units=GPa)
#
#
# Indices 1 2 3 4 5 6 
#
# 1 177.1579 47.1177 57.5201 0.0000 0.0000 0.0000
# 2 47.1177 57.2585 37.0747 0.0000 0.0000 0.0000
# 3 57.5201 37.0747 78.5270 0.0001 0.0000 0.0000
# 4 0.0000 0.0000 0.0001 14.0486 0.0000 0.0000
# 5 0.0000 0.0000 0.0000 0.0000 16.4265 0.0000
# 6 0.0000 0.0000 0.0000 0.0000 0.0000 -3.1689
#
#
#
# Elastic Compliance Matrix: (Units=1/GPa)
#
#
# Indices 1 2 3 4 5 6 
#
# 1 0.008000 -0.004017 -0.003963 0.000000 0.000000 0.000000
# 2 -0.004017 0.027171 -0.009886 0.000000 0.000000 0.000000
# 3 -0.003963 -0.009886 0.020305 0.000000 0.000000 0.000000
# 4 0.000000 0.000000 0.000000 0.071182 0.000000 0.000000
# 5 0.000000 0.000000 0.000000 0.000000 0.060877 0.000000
# 6 0.000000 0.000000 0.000000 0.000000 0.000000 -0.315566
#
#
# Mechanical properties :
#
#
# Convention : Reuss Voigt Hill
#
# Bulk Modulus (GPa) = 50.64883 66.26315 58.45599
# Shear Modulus (GPa) = -58.33143 16.87662 -20.72740
#
# Velocity S-wave (km/s) = -5.41952 2.91509 -3.23059
# Velocity P-wave (km/s) = 3.69577 6.68546 3.93932
#
# Compressibility (1/GPa) = 0.01974379
#
# Stress axis : x y z
#
# Youngs Moduli (GPa) = 125.00261 36.80367 49.24888
#
# Poissons Ratio (x) = 0.14783 0.19519
# Poissons Ratio (y) = 0.50211 0.48688
# Poissons Ratio (z) = 0.49543 0.36384
#
# Static dielectric constant tensor:
#      x y z
#    x 1.781550 0.000000 0.000000 
#    y 0.000000 1.741530 0.000000 
#    z 0.000000 0.000000 1.694800 
# 
# From -- ./inp_files/10763.got.cif
#   From: 2010.05.17/outbox.cif.g08.bks.cpg/sg42_6_cif.got.tgz:10763.got - 2010.06.03 19:03:34.
