data_PCOD9368153
_publ_section_title
;
Structure prediction by ZEFSAII (Michael W. Deem and Ramdas Pophale) SiO2 
 PCOD9368153
Probable space group: F M M 2
;
_chemical_formula_sum "Si O2"
_cell_formula_units_Z 80
_cell_length_a 15.857631
_cell_length_b 9.967951
_cell_length_c 26.500077
_cell_angle_alpha 90.000000
_cell_angle_beta 90.000000
_cell_angle_gamma 90.000000
_cell_volume 4188.816524
_symmetry_space_group_name_H-M "F M M 2"
_symmetry_group_IT_number 42
_symmetry_cell_setting 'orthorhombic'
loop_
_space_group_symop_operation_xyz
x,y,z
-x,-y,z
-x,y,z
x,-y,z
x,1/2+y,1/2+z
-x,1/2-y,1/2+z
-x,1/2+y,1/2+z
x,1/2-y,1/2+z
1/2+x,y,1/2+z
1/2-x,-y,1/2+z
1/2-x,y,1/2+z
1/2+x,-y,1/2+z
1/2+x,1/2+y,z
1/2-x,1/2-y,z
1/2-x,1/2+y,z
1/2+x,1/2-y,z
loop_
_atom_site_type_symbol
_atom_site_label
_atom_site_fract_x
_atom_site_fract_y
_atom_site_fract_z
Si Si1 0.173480 0.000000 0.003940
Si Si2 0.897131 0.000000 0.391054
Si Si3 0.397411 0.500000 0.660388
Si Si4 0.602910 0.500000 0.275809
Si Si5 0.600427 0.500000 0.113946
Si Si6 0.597160 0.730358 0.467145
Si Si7 0.863801 0.000000 0.541825
Si Si8 0.396893 0.214225 0.693988
O O1 0.120849 0.000000 0.055737
O O2 0.268498 0.000000 0.022733
O O3 0.150956 0.863693 0.974874
O O4 0.872112 0.867961 0.422491
O O5 0.868320 0.000000 0.333443
O O6 0.000000 0.000000 0.392072
O O7 0.500000 0.500000 0.660469
O O8 0.371406 0.500000 0.601786
O O9 0.367583 0.365788 0.688151
O O10 0.500000 0.500000 0.276814
O O11 0.628525 0.369894 0.243203
O O12 0.500000 0.500000 0.119074
O O13 0.631033 0.370222 0.144834
O O14 0.500000 0.769263 0.457499
O O15 0.597821 0.634190 0.516663
O O16 0.500000 0.216027 0.694111
#
# Coordination Sequence:
#
# PCOD9368153 Si02
#       8
#     8   8   8   8   8  16   8  16
#     4  12  22  32  49  77 106 133 171 219 255 289
#     4   8  16  31  52  71  94 129 169 211 264 314
#     4  10  17  28  45  69 101 139 172 201 241 301
#     4   8  13  27  47  71  98 123 158 211 259 300
#     4   9  16  28  44  65  93 130 164 196 242 300
#     4  10  20  35  52  73 100 137 175 210 254 308
#     4  11  22  34  49  73 106 142 171 204 253 306
#     4   8  15  25  43  69  96 125 163 204 247 294
#
# _framework density 19.098472000000001
#
# number of rings (size 3 to 8) (size 9 to 14) (size 15 to 20)
#    0.000    2.600    0.000    5.400    0.000    1.600 
#    0.000    1.000    0.000    4.800    0.000   22.400 
#    0.000    0.000    0.000    0.000    0.000    0.000 
#
# Total GULP energy -111584.799577 kJ/mol
# GULP energy per Si atom -5579.239979 kJ/mol
# Density = 1.905500 g / cm^3
# Si number density = 19.098472 Si / 1000 Ang^3
#
#
#
# Elastic Constant Matrix: (Units=GPa)
#
#
# Indices 1 2 3 4 5 6 
#
# 1 25.2833 23.8604 0.9520 0.0000 0.0000 0.0000
# 2 23.8604 182.0785 84.9572 0.0000 0.0000 0.0000
# 3 0.9520 84.9572 145.3287 0.0000 0.0000 0.0000
# 4 0.0000 0.0000 0.0000 5.9456 0.0000 0.0000
# 5 0.0000 0.0000 0.0000 0.0000 6.4784 0.0000
# 6 0.0000 0.0000 0.0000 0.0000 0.0000 3496.5096
#
#
#
# Elastic Compliance Matrix: (Units=1/GPa)
#
#
# Indices 1 2 3 4 5 6 
#
# 1 0.047224 -0.008311 0.004549 0.000000 0.000000 0.000000
# 2 -0.008311 0.009015 -0.005215 0.000000 0.000000 0.000000
# 3 0.004549 -0.005215 0.009900 0.000000 0.000000 0.000000
# 4 0.000000 0.000000 0.000000 0.168193 0.000000 0.000000
# 5 0.000000 0.000000 0.000000 0.000000 0.154358 0.000000
# 6 0.000000 0.000000 0.000000 0.000000 0.000000 0.000286
#
#
# Mechanical properties :
#
#
# Convention : Reuss Voigt Hill
#
# Bulk Modulus (GPa) = 20.75384 63.58109 42.16747
# Shear Modulus (GPa) = 11.82056 717.98145 364.90101
#
# Velocity S-wave (km/s) = 2.49052 19.41012 13.83755
# Velocity P-wave (km/s) = 4.37728 23.14520 16.65625
#
# Compressibility (1/GPa) = 0.04818385
#
# Stress axis : x y z
#
# Youngs Moduli (GPa) = 21.17580 110.92905 101.00967
#
# Poissons Ratio (x) = 0.92194 -0.45951
# Poissons Ratio (y) = 0.17599 0.52681
# Poissons Ratio (z) = -0.09633 0.57855
#
# Static dielectric constant tensor:
#      x y z
#    x 1.704670 0.000000 0.000000 
#    y 0.000000 1.679010 0.000000 
#    z 0.000000 0.000000 1.643560 
# 
# From -- ./inp_files/31377.got.cif
#   From: 2010.05.17/outbox.cif.g08.bks.cpg/sg42_16_cif.got.tgz:31377.got - 2010.06.03 19:03:34.
