data_PCOD9368237
_publ_section_title
;
Structure prediction by ZEFSAII (Michael W. Deem and Ramdas Pophale) SiO2 
 PCOD9368237
Probable space group: F M M 2
;
_chemical_formula_sum "Si O2"
_cell_formula_units_Z 80
_cell_length_a 8.940835
_cell_length_b 27.719801
_cell_length_c 14.929938
_cell_angle_alpha 90.000000
_cell_angle_beta 90.000000
_cell_angle_gamma 90.000000
_cell_volume 3700.208467
_symmetry_space_group_name_H-M "F M M 2"
_symmetry_group_IT_number 42
_symmetry_cell_setting 'orthorhombic'
loop_
_space_group_symop_operation_xyz
x,y,z
-x,-y,z
-x,y,z
x,-y,z
x,1/2+y,1/2+z
-x,1/2-y,1/2+z
-x,1/2+y,1/2+z
x,1/2-y,1/2+z
1/2+x,y,1/2+z
1/2-x,-y,1/2+z
1/2-x,y,1/2+z
1/2+x,-y,1/2+z
1/2+x,1/2+y,z
1/2-x,1/2-y,z
1/2-x,1/2+y,z
1/2+x,1/2-y,z
loop_
_atom_site_type_symbol
_atom_site_label
_atom_site_fract_x
_atom_site_fract_y
_atom_site_fract_z
Si Si1 0.168165 0.298569 0.471790
Si Si2 0.332147 0.203154 0.686266
Si Si3 0.170508 0.400490 0.938806
Si Si4 0.170207 0.898692 0.223004
Si Si5 0.321447 0.500000 0.936724
Si Si6 0.814807 0.000000 0.237193
O O1 0.250000 0.250000 0.438437
O O2 0.157395 0.292587 0.579263
O O3 0.251838 0.349282 0.457795
O O4 0.000000 0.301541 0.435029
O O5 0.500000 0.201646 0.725091
O O6 0.250000 0.250000 0.721446
O O7 0.253253 0.151946 0.703299
O O8 0.163882 0.403328 0.830341
O O9 0.255610 0.448829 0.971204
O O10 0.000000 0.400461 0.972190
O O11 0.228424 0.950089 0.190070
O O12 0.000000 0.894554 0.186884
O O13 0.500000 0.500000 0.945181
O O14 0.267871 0.500000 0.832663
O O15 0.000000 0.000000 0.248533
#
# Coordination Sequence:
#
# PCOD9368237 Si02
#       6
#    16  16  16  16   8   8
#     4  10  20  34  51  71  98 132 168 206 249 296
#     4   9  18  33  50  69  95 127 163 200 241 290
#     4  10  19  33  53  75 101 131 164 203 247 294
#     4   8  15  29  50  73  94 122 161 200 239 287
#     4  10  18  30  49  74 103 131 163 201 243 292
#     4   8  14  28  49  70  95 127 159 195 245 294
#
# _framework density 21.620404000000001
#
# number of rings (size 3 to 8) (size 9 to 14) (size 15 to 20)
#    0.000    2.800    0.000    3.300    0.000    1.600 
#    0.000    8.000    0.000    3.600    0.000    0.000 
#    0.000    0.000    0.000    0.000    0.000    0.000 
#
# Total GULP energy -111422.927649 kJ/mol
# GULP energy per Si atom -5571.146382 kJ/mol
# Density = 2.157120 g / cm^3
# Si number density = 21.620404 Si / 1000 Ang^3
#
#
#
# Elastic Constant Matrix: (Units=GPa)
#
#
# Indices 1 2 3 4 5 6 
#
# 1 129.5391 102.3895 2.6399 0.0000 0.0000 0.0000
# 2 102.3895 292.4249 1.4344 0.0000 0.0000 0.0000
# 3 2.6399 1.4344 29.6976 0.0000 0.0000 0.0000
# 4 0.0000 0.0000 0.0000 35.1735 0.0000 0.0000
# 5 0.0000 0.0000 0.0000 0.0000 5.2133 0.0000
# 6 0.0000 0.0000 0.0000 0.0000 0.0000 37.3242
#
#
#
# Elastic Compliance Matrix: (Units=1/GPa)
#
#
# Indices 1 2 3 4 5 6 
#
# 1 0.010691 -0.003740 -0.000770 0.000000 0.000000 0.000000
# 2 -0.003740 0.004729 0.000104 0.000000 0.000000 0.000000
# 3 -0.000770 0.000104 0.033736 0.000000 0.000000 0.000000
# 4 0.000000 0.000000 0.000000 0.028431 0.000000 0.000000
# 5 0.000000 0.000000 0.000000 0.000000 0.191816 0.000000
# 6 0.000000 0.000000 0.000000 0.000000 0.000000 0.026792
#
#
# Mechanical properties :
#
#
# Convention : Reuss Voigt Hill
#
# Bulk Modulus (GPa) = 24.78606 73.84325 49.31466
# Shear Modulus (GPa) = 15.70088 38.55539 27.12814
#
# Velocity S-wave (km/s) = 2.69775 4.22748 3.54608
# Velocity P-wave (km/s) = 4.60357 7.61954 6.29485
#
# Compressibility (1/GPa) = 0.04034525
#
# Stress axis : x y z
#
# Youngs Moduli (GPa) = 93.53453 211.48043 29.64177
#
# Poissons Ratio (x) = 0.79086 0.02282
# Poissons Ratio (y) = 0.34979 -0.00308
# Poissons Ratio (z) = 0.07200 -0.02200
#
# Static dielectric constant tensor:
#      x y z
#    x 1.794130 0.000000 0.000000 
#    y 0.000000 1.858300 0.000000 
#    z 0.000000 0.000000 1.812230 
# 
# From -- ./inp_files/18240.got.cif
#   From: 2010.05.17/outbox.cif.g08.bks.cpg/sg42_10_cif.got.tgz:18240.got - 2010.06.03 19:03:34.
