data_PCOD9368905
_publ_section_title
;
Structure prediction by ZEFSAII (Michael W. Deem and Ramdas Pophale) SiO2 
 PCOD9368905
Probable space group: F M M 2
;
_chemical_formula_sum "Si O2"
_cell_formula_units_Z 96
_cell_length_a 14.917691
_cell_length_b 14.490922
_cell_length_c 19.134731
_cell_angle_alpha 90.000000
_cell_angle_beta 90.000000
_cell_angle_gamma 90.000000
_cell_volume 4136.375785
_symmetry_space_group_name_H-M "F M M 2"
_symmetry_group_IT_number 42
_symmetry_cell_setting 'orthorhombic'
loop_
_space_group_symop_operation_xyz
x,y,z
-x,-y,z
-x,y,z
x,-y,z
x,1/2+y,1/2+z
-x,1/2-y,1/2+z
-x,1/2+y,1/2+z
x,1/2-y,1/2+z
1/2+x,y,1/2+z
1/2-x,-y,1/2+z
1/2-x,y,1/2+z
1/2+x,-y,1/2+z
1/2+x,1/2+y,z
1/2-x,1/2-y,z
1/2-x,1/2+y,z
1/2+x,1/2-y,z
loop_
_atom_site_type_symbol
_atom_site_label
_atom_site_fract_x
_atom_site_fract_y
_atom_site_fract_z
Si Si1 0.632303 0.097263 0.153420
Si Si2 0.151333 0.604356 0.652743
Si Si3 0.892869 0.600958 0.372512
Si Si4 0.602836 0.899660 0.989751
Si Si5 0.142668 0.750445 0.756801
Si Si6 0.391573 0.199013 0.506915
O O1 0.740411 0.099519 0.153832
O O2 0.600825 0.099446 0.074169
O O3 0.601849 0.181532 0.199042
O O4 0.603505 0.000000 0.185073
O O5 0.117305 0.500000 0.642866
O O6 0.118165 0.649920 0.725822
O O7 0.131728 0.668446 0.585408
O O8 0.856608 0.500000 0.348848
O O9 0.875685 0.693774 0.327705
O O10 0.862447 0.621868 0.451569
O O11 0.000000 0.593488 0.373302
O O12 0.500000 0.898373 0.963283
O O13 0.644553 0.798419 0.979500
O O14 0.642249 0.000000 0.968222
O O15 0.250000 0.750000 0.752486
O O16 0.500000 0.206176 0.504911
#
# Coordination Sequence:
#
# PCOD9368905 Si02
#       6
#    16  16  16  16  16  16
#     4   9  17  31  53  80 109 139 178 225 275 326
#     4  10  20  34  55  80 110 146 184 229 279 332
#     4  10  22  40  61  84 112 149 192 237 285 334
#     4   9  17  30  51  81 112 140 175 223 276 327
#     4  10  20  36  54  82 113 151 184 231 280 334
#     4  10  20  36  57  81 111 144 183 230 279 332
#
# _framework density 23.208724
#
# number of rings (size 3 to 8) (size 9 to 14) (size 15 to 20)
#    0.000    2.333    1.667    1.000    0.000    3.000 
#    3.000    2.500    0.000    1.000    0.000    0.000 
#    0.000    0.000    0.000    0.000    0.000    0.000 
#
# Total GULP energy -133667.391009 kJ/mol
# GULP energy per Si atom -5569.474625 kJ/mol
# Density = 2.315590 g / cm^3
# Si number density = 23.208724 Si / 1000 Ang^3
#
#
#
# Elastic Constant Matrix: (Units=GPa)
#
#
# Indices 1 2 3 4 5 6 
#
# 1 57.3240 19.4587 -3.3714 0.0000 0.0000 0.0000
# 2 19.4587 164.1293 36.4532 0.0000 0.0000 0.0000
# 3 -3.3714 36.4532 77.5067 0.0000 0.0000 0.0000
# 4 0.0000 0.0000 0.0000 14.0082 0.0000 0.0000
# 5 0.0000 0.0000 0.0000 0.0000 11.4404 0.0000
# 6 0.0000 0.0000 0.0000 0.0000 0.0000 9.0347
#
#
#
# Elastic Compliance Matrix: (Units=1/GPa)
#
#
# Indices 1 2 3 4 5 6 
#
# 1 0.018462 -0.002643 0.002046 0.000000 0.000000 0.000000
# 2 -0.002643 0.007182 -0.003493 0.000000 0.000000 0.000000
# 3 0.002046 -0.003493 0.014634 0.000000 0.000000 0.000000
# 4 0.000000 0.000000 0.000000 0.071387 0.000000 0.000000
# 5 0.000000 0.000000 0.000000 0.000000 0.087410 0.000000
# 6 0.000000 0.000000 0.000000 0.000000 0.000000 0.110684
#
#
# Mechanical properties :
#
#
# Convention : Reuss Voigt Hill
#
# Bulk Modulus (GPa) = 31.15413 44.89343 38.02378
# Shear Modulus (GPa) = 15.21434 23.32464 19.26949
#
# Velocity S-wave (km/s) = 2.56314 3.17360 2.88457
# Velocity P-wave (km/s) = 4.71298 5.72838 5.24531
#
# Compressibility (1/GPa) = 0.03209847
#
# Stress axis : x y z
#
# Youngs Moduli (GPa) = 54.16432 139.23907 68.33464
#
# Poissons Ratio (x) = 0.36805 -0.13983
# Poissons Ratio (y) = 0.14317 0.23868
# Poissons Ratio (z) = -0.11084 0.48633
#
# Static dielectric constant tensor:
#      x y z
#    x 1.880690 0.000000 0.000000 
#    y 0.000000 1.990350 0.000000 
#    z 0.000000 0.000000 1.855980 
# 
# From -- ./inp_files/25119.got.cif
#   From: 2010.05.17/outbox.cif.g08.bks.cpg/sg42_13_cif.got.tgz:25119.got - 2010.06.03 19:03:34.
