data_PCOD9368762
_publ_section_title
;
Structure prediction by ZEFSAII (Michael W. Deem and Ramdas Pophale) SiO2 
 PCOD9368762
Probable space group: F M M 2
;
_chemical_formula_sum "Si O2"
_cell_formula_units_Z 32
_cell_length_a 13.322476
_cell_length_b 5.503722
_cell_length_c 16.589692
_cell_angle_alpha 90.000000
_cell_angle_beta 90.000000
_cell_angle_gamma 90.000000
_cell_volume 1216.409375
_symmetry_space_group_name_H-M "F M M 2"
_symmetry_group_IT_number 42
_symmetry_cell_setting 'orthorhombic'
loop_
_space_group_symop_operation_xyz
x,y,z
-x,-y,z
-x,y,z
x,-y,z
x,1/2+y,1/2+z
-x,1/2-y,1/2+z
-x,1/2+y,1/2+z
x,1/2-y,1/2+z
1/2+x,y,1/2+z
1/2-x,-y,1/2+z
1/2-x,y,1/2+z
1/2+x,-y,1/2+z
1/2+x,1/2+y,z
1/2-x,1/2-y,z
1/2-x,1/2+y,z
1/2+x,1/2-y,z
loop_
_atom_site_type_symbol
_atom_site_label
_atom_site_fract_x
_atom_site_fract_y
_atom_site_fract_z
Si Si1 0.500000 0.000000 0.993351
Si Si2 0.273154 0.000000 0.002634
Si Si3 0.500000 0.000000 0.392668
Si Si4 0.887158 0.500000 0.235675
Si Si5 0.879011 0.500000 0.653183
O O1 0.500000 0.749033 0.942522
O O2 0.388981 0.000000 0.032842
O O3 0.250000 0.750000 0.957651
O O4 0.192314 0.000000 0.075237
O O5 0.405709 0.000000 0.331361
O O6 0.853038 0.238612 0.204878
O O7 0.000000 0.500000 0.201047
O O8 0.000000 0.500000 0.633887
#
# Coordination Sequence:
#
# PCOD9368762 Si02
#       5
#     4   8   4   8   8
#     4  12  26  46  71 108 153 194 252 292 360 462
#     4  12  28  45  70 105 153 204 237 300 372 444
#     4  10  20  42  75 108 145 194 250 320 344 432
#     4   8  17  34  68 112 131 180 236 303 374 401
#     4  10  19  38  69 107 148 170 237 308 370 444
#
# _framework density 26.306934999999999
#
# number of rings (size 3 to 8) (size 9 to 14) (size 15 to 20)
#    0.750    1.000    0.000    4.500    3.500    0.000 
#    0.000    0.000    0.000   30.000    0.000    0.000 
#   22.500    0.000    0.000    0.000    0.000    0.000 
#
# Total GULP energy -44709.096278 kJ/mol
# GULP energy per Si atom -5588.637035 kJ/mol
# Density = 2.624706 g / cm^3
# Si number density = 26.306935 Si / 1000 Ang^3
#
#
#
# Elastic Constant Matrix: (Units=GPa)
#
#
# Indices 1 2 3 4 5 6 
#
# 1 243.8142 50.8019 43.5206 0.0001 -0.0001 -0.0009
# 2 50.8019 310.8161 80.1770 0.0005 -0.0001 -0.0020
# 3 43.5206 80.1770 80.5221 0.0001 0.0000 -0.0001
# 4 0.0001 0.0005 0.0001 45.3750 0.0000 -0.0002
# 5 -0.0001 -0.0001 0.0000 0.0000 40.1896 0.0001
# 6 -0.0009 -0.0020 -0.0001 -0.0002 0.0001 -0.8638
#
#
#
# Elastic Compliance Matrix: (Units=1/GPa)
#
#
# Indices 1 2 3 4 5 6 
#
# 1 0.004544 -0.000147 -0.002310 0.000000 0.000000 -0.000004
# 2 -0.000147 0.004334 -0.004236 0.000000 0.000000 -0.000010
# 3 -0.002310 -0.004236 0.017885 0.000000 0.000000 0.000011
# 4 0.000000 0.000000 0.000000 0.022039 0.000000 -0.000004
# 5 0.000000 0.000000 0.000000 0.000000 0.024882 0.000002
# 6 -0.000004 -0.000010 0.000011 -0.000004 0.000002 -1.157697
#
#
# Mechanical properties :
#
#
# Convention : Reuss Voigt Hill
#
# Bulk Modulus (GPa) = 74.74938 109.35016 92.04977
# Shear Modulus (GPa) = -4.68970 47.65036 21.48033
#
# Velocity S-wave (km/s) = -1.33662 4.26058 2.86059
# Velocity P-wave (km/s) = 5.10822 8.11546 6.78066
#
# Compressibility (1/GPa) = 0.01337804
#
# Stress axis : x y z
#
# Youngs Moduli (GPa) = 220.05071 230.72960 55.91179
#
# Poissons Ratio (x) = 0.03390 0.12915
# Poissons Ratio (y) = 0.03233 0.23685
# Poissons Ratio (z) = 0.50829 0.97739
#
# Static dielectric constant tensor:
#      x y z
#    x 2.077910 0.000000 0.000000 
#    y 0.000000 2.183730 0.000000 
#    z 0.000000 0.000000 2.026220 
# 
# From -- ./inp_files/19451.got.cif
#   From: 2010.05.17/outbox.cif.g08.bks.cpg/sg42_10_cif.got.tgz:19451.got - 2010.06.03 19:03:34.
