data_PCOD9368432
_publ_section_title
;
Structure prediction by ZEFSAII (Michael W. Deem and Ramdas Pophale) SiO2 
 PCOD9368432
Probable space group: F M M 2
;
_chemical_formula_sum "Si O2"
_cell_formula_units_Z 80
_cell_length_a 7.825513
_cell_length_b 16.173259
_cell_length_c 30.111083
_cell_angle_alpha 90.000000
_cell_angle_beta 90.000000
_cell_angle_gamma 90.000000
_cell_volume 3810.980571
_symmetry_space_group_name_H-M "F M M 2"
_symmetry_group_IT_number 42
_symmetry_cell_setting 'orthorhombic'
loop_
_space_group_symop_operation_xyz
x,y,z
-x,-y,z
-x,y,z
x,-y,z
x,1/2+y,1/2+z
-x,1/2-y,1/2+z
-x,1/2+y,1/2+z
x,1/2-y,1/2+z
1/2+x,y,1/2+z
1/2-x,-y,1/2+z
1/2-x,y,1/2+z
1/2+x,-y,1/2+z
1/2+x,1/2+y,z
1/2-x,1/2-y,z
1/2-x,1/2+y,z
1/2+x,1/2-y,z
loop_
_atom_site_type_symbol
_atom_site_label
_atom_site_fract_x
_atom_site_fract_y
_atom_site_fract_z
Si Si1 0.289317 0.000000 0.939661
Si Si2 0.709189 0.500000 0.336996
Si Si3 0.292641 0.905688 0.690804
Si Si4 0.794604 0.659893 0.782239
Si Si5 0.800436 0.346708 0.997190
Si Si6 0.295993 0.153747 0.596088
O O1 0.227165 0.083172 0.964657
O O2 0.500000 0.000000 0.941044
O O3 0.239230 0.000000 0.888248
O O4 0.500000 0.500000 0.335897
O O5 0.766345 0.417231 0.311514
O O6 0.500000 0.897409 0.688685
O O7 0.229952 0.849888 0.731437
O O8 0.228908 0.887113 0.641284
O O9 0.255184 0.000000 0.702851
O O10 0.750000 0.750000 0.800072
O O11 0.000000 0.653727 0.780549
O O12 0.750000 0.250000 0.992492
O O13 0.000000 0.346373 0.988928
O O14 0.770144 0.374116 0.048205
O O15 0.500000 0.143874 0.594712
O O16 0.250000 0.250000 0.599596
#
# Coordination Sequence:
#
# PCOD9368432 Si02
#       6
#     8   8  16  16  16  16
#     4   9  20  36  56  79 105 137 175 219 266 315
#     4   9  18  36  58  79 103 139 179 211 258 327
#     4   9  17  30  49  76 106 139 177 213 250 304
#     4  10  19  34  58  81 106 139 176 214 258 311
#     4  10  20  36  55  77 107 139 176 219 261 310
#     4  10  19  31  50  74 105 139 175 214 254 306
#
# _framework density 20.991973999999999
#
# number of rings (size 3 to 8) (size 9 to 14) (size 15 to 20)
#    0.000    2.400    1.000    3.000    1.400    0.800 
#    0.000    3.000    0.000    6.000    0.000    0.000 
#    0.000    0.000    0.000    0.000    0.000    0.000 
#
# Total GULP energy -111576.421189 kJ/mol
# GULP energy per Si atom -5578.821059 kJ/mol
# Density = 2.094420 g / cm^3
# Si number density = 20.991974 Si / 1000 Ang^3
#
#
#
# Elastic Constant Matrix: (Units=GPa)
#
#
# Indices 1 2 3 4 5 6 
#
# 1 22.2937 4.6863 1.6120 0.0000 0.0000 0.0000
# 2 4.6863 142.6811 99.9540 0.0000 0.0000 0.0000
# 3 1.6120 99.9540 156.3872 0.0000 0.0000 0.0000
# 4 0.0000 0.0000 0.0000 18.3018 0.0000 0.0000
# 5 0.0000 0.0000 0.0000 0.0000 11.7659 0.0000
# 6 0.0000 0.0000 0.0000 0.0000 0.0000 9.0192
#
#
#
# Elastic Compliance Matrix: (Units=1/GPa)
#
#
# Indices 1 2 3 4 5 6 
#
# 1 0.045234 -0.002099 0.000875 0.000000 0.000000 0.000000
# 2 -0.002099 0.012788 -0.008152 0.000000 0.000000 0.000000
# 3 0.000875 -0.008152 0.011596 0.000000 0.000000 0.000000
# 4 0.000000 0.000000 0.000000 0.054640 0.000000 0.000000
# 5 0.000000 0.000000 0.000000 0.000000 0.084992 0.000000
# 6 0.000000 0.000000 0.000000 0.000000 0.000000 0.110875
#
#
# Mechanical properties :
#
#
# Convention : Reuss Voigt Hill
#
# Bulk Modulus (GPa) = 19.65933 59.31851 39.48892
# Shear Modulus (GPa) = 14.05165 22.15801 18.10483
#
# Velocity S-wave (km/s) = 2.59005 3.25244 2.93996
# Velocity P-wave (km/s) = 4.28135 6.51334 5.51151
#
# Compressibility (1/GPa) = 0.05086642
#
# Stress axis : x y z
#
# Youngs Moduli (GPa) = 22.10748 78.19604 86.23920
#
# Poissons Ratio (x) = 0.16412 -0.07548
# Poissons Ratio (y) = 0.04640 0.70302
# Poissons Ratio (z) = -0.01935 0.63745
#
# Static dielectric constant tensor:
#      x y z
#    x 1.790660 0.000000 0.000000 
#    y 0.000000 1.757580 0.000000 
#    z 0.000000 0.000000 1.759990 
# 
# From -- ./inp_files/31329.got.cif
#   From: 2010.05.17/outbox.cif.g08.bks.cpg/sg42_16_cif.got.tgz:31329.got - 2010.06.03 19:03:34.
