data_PCOD9368409
_publ_section_title
;
Structure prediction by ZEFSAII (Michael W. Deem and Ramdas Pophale) SiO2 
 PCOD9368409
Probable space group: F M M 2
;
_chemical_formula_sum "Si O2"
_cell_formula_units_Z 96
_cell_length_a 8.655107
_cell_length_b 19.133629
_cell_length_c 32.844215
_cell_angle_alpha 90.000000
_cell_angle_beta 90.000000
_cell_angle_gamma 90.000000
_cell_volume 5439.120450
_symmetry_space_group_name_H-M "F M M 2"
_symmetry_group_IT_number 42
_symmetry_cell_setting 'orthorhombic'
loop_
_space_group_symop_operation_xyz
x,y,z
-x,-y,z
-x,y,z
x,-y,z
x,1/2+y,1/2+z
-x,1/2-y,1/2+z
-x,1/2+y,1/2+z
x,1/2-y,1/2+z
1/2+x,y,1/2+z
1/2-x,-y,1/2+z
1/2-x,y,1/2+z
1/2+x,-y,1/2+z
1/2+x,1/2+y,z
1/2-x,1/2-y,z
1/2-x,1/2+y,z
1/2+x,1/2-y,z
loop_
_atom_site_type_symbol
_atom_site_label
_atom_site_fract_x
_atom_site_fract_y
_atom_site_fract_z
Si Si1 0.686087 0.171039 0.586690
Si Si2 0.314440 0.171183 0.675730
Si Si3 0.313782 0.418815 0.336485
Si Si4 0.814559 0.171345 0.414415
Si Si5 0.685775 0.829529 0.498672
Si Si6 0.184692 0.581451 0.249645
O O1 0.500000 0.174151 0.586400
O O2 0.750000 0.250000 0.586691
O O3 0.732052 0.141556 0.630852
O O4 0.731103 0.138911 0.542846
O O5 0.500000 0.173622 0.677531
O O6 0.250000 0.250000 0.678734
O O7 0.251626 0.125544 0.712580
O O8 0.500000 0.416166 0.333811
O O9 0.268140 0.500000 0.341914
O O10 0.265923 0.373446 0.375305
O O11 0.245112 0.393695 0.293632
O O12 0.750000 0.250000 0.410738
O O13 0.753936 0.139853 0.457124
O O14 0.000000 0.174249 0.415948
O O15 0.500000 0.827918 0.495727
O O16 0.750000 0.750000 0.499462
O O17 0.231790 0.500000 0.245636
O O18 0.000000 0.585163 0.249119
#
# Coordination Sequence:
#
# PCOD9368409 Si02
#       6
#    16  16  16  16  16  16
#     4   8  15  26  42  66  94 125 158 191 229 275
#     4  10  19  32  51  75 102 130 162 201 244 287
#     4   9  19  36  54  69  89 123 164 199 235 285
#     4  10  19  30  47  72  98 123 154 194 237 280
#     4   9  15  25  42  65  95 126 156 190 229 276
#     4  10  21  36  53  73  97 126 162 202 244 293
#
# _framework density 17.649912
#
# number of rings (size 3 to 8) (size 9 to 14) (size 15 to 20)
#    0.000    2.667    0.000    3.000    0.000    4.333 
#    0.000    1.667    0.000    1.000    0.000    4.667 
#    0.000    0.000    0.000    0.000    0.000    0.000 
#
# Total GULP energy -133658.361037 kJ/mol
# GULP energy per Si atom -5569.098377 kJ/mol
# Density = 1.760974 g / cm^3
# Si number density = 17.649912 Si / 1000 Ang^3
#
#
#
# Elastic Constant Matrix: (Units=GPa)
#
#
# Indices 1 2 3 4 5 6 
#
# 1 33.8257 16.1414 47.9404 0.0000 0.0000 0.0000
# 2 16.1414 31.8714 63.4211 0.0000 0.0000 0.0000
# 3 47.9404 63.4211 240.1017 0.0000 0.0000 0.0000
# 4 0.0000 0.0000 0.0000 -14.3841 0.0000 0.0000
# 5 0.0000 0.0000 0.0000 0.0000 12.6850 0.0000
# 6 0.0000 0.0000 0.0000 0.0000 0.0000 17.3631
#
#
#
# Elastic Compliance Matrix: (Units=1/GPa)
#
#
# Indices 1 2 3 4 5 6 
#
# 1 0.042638 -0.009809 -0.005922 0.000000 0.000000 0.000000
# 2 -0.009809 0.068398 -0.016108 0.000000 0.000000 0.000000
# 3 -0.005922 -0.016108 0.009602 0.000000 0.000000 0.000000
# 4 0.000000 0.000000 0.000000 -0.069521 0.000000 0.000000
# 5 0.000000 0.000000 0.000000 0.000000 0.078833 0.000000
# 6 0.000000 0.000000 0.000000 0.000000 0.000000 0.057593
#
#
# Mechanical properties :
#
#
# Convention : Reuss Voigt Hill
#
# Bulk Modulus (GPa) = 17.55669 62.31162 39.93415
# Shear Modulus (GPa) = 18.50415 15.01918 16.76166
#
# Velocity S-wave (km/s) = 3.24141 2.92027 3.08502
# Velocity P-wave (km/s) = 4.89671 6.83750 5.94682
#
# Compressibility (1/GPa) = 0.05695834
#
# Stress axis : x y z
#
# Youngs Moduli (GPa) = 23.45332 14.62033 104.14224
#
# Poissons Ratio (x) = 0.14342 0.61676
# Poissons Ratio (y) = 0.23006 1.67754
# Poissons Ratio (z) = 0.13890 0.23551
#
# Static dielectric constant tensor:
#      x y z
#    x 1.627060 0.000000 0.000000 
#    y 0.000000 1.567660 0.000000 
#    z 0.000000 0.000000 1.659010 
# 
# From -- ./inp_files/31450.got.cif
#   From: 2010.05.17/outbox.cif.g08.bks.cpg/sg42_16_cif.got.tgz:31450.got - 2010.06.03 19:03:34.
