data_PCOD9368337
_publ_section_title
;
Structure prediction by ZEFSAII (Michael W. Deem and Ramdas Pophale) SiO2 
 PCOD9368337
Probable space group: F M M 2
;
_chemical_formula_sum "Si O2"
_cell_formula_units_Z 96
_cell_length_a 7.609025
_cell_length_b 24.379163
_cell_length_c 26.233008
_cell_angle_alpha 90.000000
_cell_angle_beta 90.000000
_cell_angle_gamma 90.000000
_cell_volume 4866.266550
_symmetry_space_group_name_H-M "F M M 2"
_symmetry_group_IT_number 42
_symmetry_cell_setting 'orthorhombic'
loop_
_space_group_symop_operation_xyz
x,y,z
-x,-y,z
-x,y,z
x,-y,z
x,1/2+y,1/2+z
-x,1/2-y,1/2+z
-x,1/2+y,1/2+z
x,1/2-y,1/2+z
1/2+x,y,1/2+z
1/2-x,-y,1/2+z
1/2-x,y,1/2+z
1/2+x,-y,1/2+z
1/2+x,1/2+y,z
1/2-x,1/2-y,z
1/2-x,1/2+y,z
1/2+x,1/2-y,z
loop_
_atom_site_type_symbol
_atom_site_label
_atom_site_fract_x
_atom_site_fract_y
_atom_site_fract_z
Si Si1 0.290729 0.185741 0.201390
Si Si2 0.210837 0.312993 0.397501
Si Si3 0.788315 0.313032 0.512740
Si Si4 0.286598 0.500000 0.148542
Si Si5 0.205352 0.614154 0.604223
Si Si6 0.784278 0.618942 0.301156
Si Si7 0.290894 0.000000 0.268654
O O1 0.500000 0.178942 0.198864
O O2 0.250000 0.250000 0.201891
O O3 0.216306 0.155216 0.152040
O O4 0.228958 0.155958 0.253017
O O5 0.250000 0.250000 0.383420
O O6 0.278093 0.322179 0.455056
O O7 0.275517 0.353750 0.353824
O O8 0.000000 0.318581 0.399441
O O9 0.750000 0.250000 0.527148
O O10 0.718793 0.355239 0.554820
O O11 0.000000 0.317793 0.511537
O O12 0.500000 0.500000 0.147229
O O13 0.220822 0.444507 0.121611
O O14 0.237737 0.500000 0.207974
O O15 0.000000 0.604352 0.593134
O O16 0.723287 0.556798 0.292110
O O17 0.000000 0.619004 0.301341
O O18 0.500000 0.000000 0.277256
#
# Coordination Sequence:
#
# PCOD9368337 Si02
#       7
#    16  16  16   8  16  16   8
#     4  11  21  32  48  73 101 130 161 203 251 299
#     4   9  17  32  51  73  98 128 162 200 246 294
#     4   9  18  32  51  72  98 129 163 201 245 295
#     4  10  20  34  51  71  99 133 168 205 248 292
#     4  10  20  34  50  72 100 131 166 206 247 295
#     4   9  18  31  50  73  98 126 162 203 243 290
#     4  10  18  34  53  71  97 131 168 203 242 294
#
# _framework density 19.727649
#
# number of rings (size 3 to 8) (size 9 to 14) (size 15 to 20)
#    0.000    2.333    1.667    1.500    0.000    2.000 
#    0.000    2.500    0.000    5.000    0.000    0.000 
#    0.000    6.667    0.000    0.000    0.000    0.000 
#
# Total GULP energy -133980.508103 kJ/mol
# GULP energy per Si atom -5582.521171 kJ/mol
# Density = 1.968275 g / cm^3
# Si number density = 19.727649 Si / 1000 Ang^3
#
#
#
# Elastic Constant Matrix: (Units=GPa)
#
#
# Indices 1 2 3 4 5 6 
#
# 1 39.4109 -6.3658 -4.0024 0.0000 0.0000 0.0000
# 2 -6.3658 201.8263 119.1462 0.0000 0.0000 0.0000
# 3 -4.0024 119.1462 148.4828 0.0000 0.0000 0.0000
# 4 0.0000 0.0000 0.0000 26.0248 0.0000 0.0000
# 5 0.0000 0.0000 0.0000 0.0000 15.4074 0.0000
# 6 0.0000 0.0000 0.0000 0.0000 0.0000 1.1963
#
#
#
# Elastic Compliance Matrix: (Units=1/GPa)
#
#
# Indices 1 2 3 4 5 6 
#
# 1 0.025504 0.000757 0.000080 0.000000 0.000000 0.000000
# 2 0.000757 0.009437 -0.007552 0.000000 0.000000 0.000000
# 3 0.000080 -0.007552 0.012797 0.000000 0.000000 0.000000
# 4 0.000000 0.000000 0.000000 0.038425 0.000000 0.000000
# 5 0.000000 0.000000 0.000000 0.000000 0.064904 0.000000
# 6 0.000000 0.000000 0.000000 0.000000 0.000000 0.835941
#
#
# Mechanical properties :
#
#
# Convention : Reuss Voigt Hill
#
# Bulk Modulus (GPa) = 29.14763 67.47512 48.31137
# Shear Modulus (GPa) = 4.94133 27.25515 16.09824
#
# Velocity S-wave (km/s) = 1.58436 3.72098 2.85971
# Velocity P-wave (km/s) = 4.26076 7.26213 5.95368
#
# Compressibility (1/GPa) = 0.03430811
#
# Stress axis : x y z
#
# Youngs Moduli (GPa) = 39.20931 105.96739 78.14446
#
# Poissons Ratio (x) = -0.08025 -0.00623
# Poissons Ratio (y) = -0.02969 0.59014
# Poissons Ratio (z) = -0.00313 0.80026
#
# Static dielectric constant tensor:
#      x y z
#    x 1.750110 0.000000 0.000000 
#    y 0.000000 1.670570 0.000000 
#    z 0.000000 0.000000 1.681700 
# 
# From -- ./inp_files/28111.got.cif
#   From: 2010.05.17/outbox.cif.g08.bks.cpg/sg42_15_cif.got.tgz:28111.got - 2010.06.03 19:03:34.
