data_PCOD9368516
_publ_section_title
;
Structure prediction by ZEFSAII (Michael W. Deem and Ramdas Pophale) SiO2 
 PCOD9368516
Probable space group: F M M 2
;
_chemical_formula_sum "Si O2"
_cell_formula_units_Z 112
_cell_length_a 20.520668
_cell_length_b 15.869748
_cell_length_c 18.027769
_cell_angle_alpha 90.000000
_cell_angle_beta 90.000000
_cell_angle_gamma 90.000000
_cell_volume 5870.884131
_symmetry_space_group_name_H-M "F M M 2"
_symmetry_group_IT_number 42
_symmetry_cell_setting 'orthorhombic'
loop_
_space_group_symop_operation_xyz
x,y,z
-x,-y,z
-x,y,z
x,-y,z
x,1/2+y,1/2+z
-x,1/2-y,1/2+z
-x,1/2+y,1/2+z
x,1/2-y,1/2+z
1/2+x,y,1/2+z
1/2-x,-y,1/2+z
1/2-x,y,1/2+z
1/2+x,-y,1/2+z
1/2+x,1/2+y,z
1/2-x,1/2-y,z
1/2-x,1/2+y,z
1/2+x,1/2-y,z
loop_
_atom_site_type_symbol
_atom_site_label
_atom_site_fract_x
_atom_site_fract_y
_atom_site_fract_z
Si Si1 0.878770 0.097241 0.838070
Si Si2 0.573319 0.300501 0.701065
Si Si3 0.736705 0.350528 0.289683
Si Si4 0.073037 0.601186 0.049076
Si Si5 0.689205 0.687953 0.143788
Si Si6 0.671005 0.398370 0.992459
Si Si7 0.316170 0.398528 0.437467
O O1 0.917076 0.153575 0.779573
O O2 0.802978 0.103083 0.812765
O O3 0.875898 0.125783 0.924001
O O4 0.900117 0.000000 0.834792
O O5 0.500000 0.265390 0.696587
O O6 0.581225 0.365484 0.632453
O O7 0.631389 0.235910 0.686377
O O8 0.750000 0.250000 0.289202
O O9 0.717322 0.374821 0.206369
O O10 0.683419 0.367436 0.352947
O O11 0.077339 0.500000 0.050762
O O12 0.000000 0.624492 0.024278
O O13 0.127923 0.633413 0.992541
O O14 0.750000 0.750000 0.124924
O O15 0.660734 0.645622 0.070682
O O16 0.668060 0.500000 0.998903
O O17 0.745127 0.375590 0.969210
O O18 0.319779 0.500000 0.435779
#
# Coordination Sequence:
#
# PCOD9368516 Si02
#       7
#    16  16  16  16  16  16  16
#     4  10  20  37  58  85 115 148 191 237 283 339
#     4  11  22  38  57  84 116 149 188 234 288 342
#     4  10  19  33  53  79 112 146 185 232 283 329
#     4   9  18  32  51  77 110 145 182 225 279 342
#     4  11  21  38  56  85 116 153 191 235 286 338
#     4   9  20  35  57  85 112 145 192 240 284 335
#     4   9  18  32  51  80 111 145 186 233 281 331
#
# _framework density 19.077196000000001
#
# number of rings (size 3 to 8) (size 9 to 14) (size 15 to 20)
#    0.000    2.143    2.857    2.571    0.000    6.571 
#    0.000    1.429    0.000    1.286    0.000    0.000 
#    0.000    0.000    0.000    0.000    0.000    0.000 
#
# Total GULP energy -156166.836859 kJ/mol
# GULP energy per Si atom -5577.387031 kJ/mol
# Density = 1.903378 g / cm^3
# Si number density = 19.077196 Si / 1000 Ang^3
#
#
#
# Elastic Constant Matrix: (Units=GPa)
#
#
# Indices 1 2 3 4 5 6 
#
# 1 59.4703 4.3412 18.2410 0.0000 0.0000 0.0000
# 2 4.3412 12.5037 18.9948 0.0000 0.0000 0.0000
# 3 18.2410 18.9948 126.4354 0.0000 0.0000 0.0000
# 4 0.0000 0.0000 0.0000 32.7467 0.0000 0.0000
# 5 0.0000 0.0000 0.0000 0.0000 30.0277 0.0000
# 6 0.0000 0.0000 0.0000 0.0000 0.0000 12.4991
#
#
#
# Elastic Compliance Matrix: (Units=1/GPa)
#
#
# Indices 1 2 3 4 5 6 
#
# 1 0.017676 -0.002932 -0.002110 0.000000 0.000000 0.000000
# 2 -0.002932 0.104113 -0.015218 0.000000 0.000000 0.000000
# 3 -0.002110 -0.015218 0.010500 0.000000 0.000000 0.000000
# 4 0.000000 0.000000 0.000000 0.030537 0.000000 0.000000
# 5 0.000000 0.000000 0.000000 0.000000 0.033303 0.000000
# 6 0.000000 0.000000 0.000000 0.000000 0.000000 0.080006
#
#
# Mechanical properties :
#
#
# Convention : Reuss Voigt Hill
#
# Bulk Modulus (GPa) = 10.89696 31.28482 21.09089
# Shear Modulus (GPa) = 14.39908 25.51020 19.95464
#
# Velocity S-wave (km/s) = 2.75031 3.66075 3.23769
# Velocity P-wave (km/s) = 3.97618 5.85686 5.00564
#
# Compressibility (1/GPa) = 0.09176872
#
# Stress axis : x y z
#
# Youngs Moduli (GPa) = 56.57305 9.60496 95.23983
#
# Poissons Ratio (x) = 0.02816 0.20092
# Poissons Ratio (y) = 0.16589 1.44938
# Poissons Ratio (z) = 0.11935 0.14617
#
# Static dielectric constant tensor:
#      x y z
#    x 1.661350 0.000000 0.000000 
#    y 0.000000 1.662560 0.000000 
#    z 0.000000 0.000000 1.700750 
# 
# From -- ./inp_files/21085.got.cif
#   From: 2010.05.17/outbox.cif.g08.bks.cpg/sg42_11_cif.got.tgz:21085.got - 2010.06.03 19:03:34.
