data_PCOD9368154
_publ_section_title
;
Structure prediction by ZEFSAII (Michael W. Deem and Ramdas Pophale) SiO2 
 PCOD9368154
Probable space group: F M M 2
;
_chemical_formula_sum "Si O2"
_cell_formula_units_Z 80
_cell_length_a 8.197080
_cell_length_b 31.471483
_cell_length_c 14.881281
_cell_angle_alpha 90.000000
_cell_angle_beta 90.000000
_cell_angle_gamma 90.000000
_cell_volume 3838.987511
_symmetry_space_group_name_H-M "F M M 2"
_symmetry_group_IT_number 42
_symmetry_cell_setting 'orthorhombic'
loop_
_space_group_symop_operation_xyz
x,y,z
-x,-y,z
-x,y,z
x,-y,z
x,1/2+y,1/2+z
-x,1/2-y,1/2+z
-x,1/2+y,1/2+z
x,1/2-y,1/2+z
1/2+x,y,1/2+z
1/2-x,-y,1/2+z
1/2-x,y,1/2+z
1/2+x,-y,1/2+z
1/2+x,1/2+y,z
1/2-x,1/2-y,z
1/2-x,1/2+y,z
1/2+x,1/2-y,z
loop_
_atom_site_type_symbol
_atom_site_label
_atom_site_fract_x
_atom_site_fract_y
_atom_site_fract_z
Si Si1 0.694986 0.883191 0.828670
Si Si2 0.197252 0.048377 0.685773
Si Si3 0.800376 0.112810 0.536164
Si Si4 0.691922 0.706474 0.845905
Si Si5 0.688843 0.704448 0.550207
O O1 0.500000 0.879169 0.827121
O O2 0.748597 0.922248 0.767983
O O3 0.748317 0.890434 0.932119
O O4 0.769847 0.837986 0.798492
O O5 0.252209 0.073466 0.596530
O O6 0.000000 0.047317 0.684660
O O7 0.256619 0.000000 0.690699
O O8 0.739390 0.158296 0.574731
O O9 0.000000 0.113978 0.537374
O O10 0.500000 0.709199 0.864253
O O11 0.750000 0.750000 0.799942
O O12 0.787205 0.704969 0.941411
O O13 0.500000 0.703161 0.573193
O O14 0.750000 0.750000 0.582877
#
# Coordination Sequence:
#
# PCOD9368154 Si02
#       5
#    16  16  16  16  16
#     4  10  20  36  57  82 111 144 182 223 271 324
#     4  10  21  38  58  79 104 138 182 231 281 330
#     4   8  17  34  55  77 105 142 180 218 265 325
#     4  10  17  28  49  78 111 146 182 219 263 315
#     4   9  15  26  46  74 107 142 179 218 263 316
#
# _framework density 20.838829
#
# number of rings (size 3 to 8) (size 9 to 14) (size 15 to 20)
#    0.000    2.600    0.000    5.400    0.000    1.200 
#    0.000    9.000    0.000    2.400    0.000    0.000 
#    0.000    0.000    0.000    0.000    0.000    0.000 
#
# Total GULP energy -111576.565285 kJ/mol
# GULP energy per Si atom -5578.828264 kJ/mol
# Density = 2.079140 g / cm^3
# Si number density = 20.838829 Si / 1000 Ang^3
#
#
#
# Elastic Constant Matrix: (Units=GPa)
#
#
# Indices 1 2 3 4 5 6 
#
# 1 26.9688 23.4094 -1.0715 0.0000 0.0000 0.0000
# 2 23.4094 243.3767 69.4761 0.0000 0.0000 0.0000
# 3 -1.0715 69.4761 83.4023 0.0000 0.0000 0.0000
# 4 0.0000 0.0000 0.0000 40.4244 0.0000 0.0000
# 5 0.0000 0.0000 0.0000 0.0000 -49.9413 0.0000
# 6 0.0000 0.0000 0.0000 0.0000 0.0000 28.0573
#
#
#
# Elastic Compliance Matrix: (Units=1/GPa)
#
#
# Indices 1 2 3 4 5 6 
#
# 1 0.042068 -0.005511 0.005131 0.000000 0.000000 0.000000
# 2 -0.005511 0.006113 -0.005163 0.000000 0.000000 0.000000
# 3 0.005131 -0.005163 0.016357 0.000000 0.000000 0.000000
# 4 0.000000 0.000000 0.000000 0.024738 0.000000 0.000000
# 5 0.000000 0.000000 0.000000 0.000000 -0.020024 0.000000
# 6 0.000000 0.000000 0.000000 0.000000 0.000000 0.035641
#
#
# Mechanical properties :
#
#
# Convention : Reuss Voigt Hill
#
# Bulk Modulus (GPa) = 18.70841 59.70842 39.20842
# Shear Modulus (GPa) = 37.37052 21.17031 29.27041
#
# Velocity S-wave (km/s) = 4.23935 3.19079 3.75188
# Velocity P-wave (km/s) = 5.74107 6.50304 6.13390
#
# Compressibility (1/GPa) = 0.05345189
#
# Stress axis : x y z
#
# Youngs Moduli (GPa) = 23.77125 163.59123 61.13652
#
# Poissons Ratio (x) = 0.90158 -0.31372
# Poissons Ratio (y) = 0.13101 0.31564
# Poissons Ratio (z) = -0.12198 0.84461
#
# Static dielectric constant tensor:
#      x y z
#    x 1.738430 0.000000 0.000000 
#    y 0.000000 1.778820 0.000000 
#    z 0.000000 0.000000 1.773680 
# 
# From -- ./inp_files/18213.got.cif
#   From: 2010.05.17/outbox.cif.g08.bks.cpg/sg42_10_cif.got.tgz:18213.got - 2010.06.03 19:03:34.
