data_PCOD9368356
_publ_section_title
;
Structure prediction by ZEFSAII (Michael W. Deem and Ramdas Pophale) SiO2 
 PCOD9368356
Probable space group: F M M 2
;
_chemical_formula_sum "Si O2"
_cell_formula_units_Z 104
_cell_length_a 23.315808
_cell_length_b 9.085776
_cell_length_c 25.509727
_cell_angle_alpha 90.000000
_cell_angle_beta 90.000000
_cell_angle_gamma 90.000000
_cell_volume 5404.036912
_symmetry_space_group_name_H-M "F M M 2"
_symmetry_group_IT_number 42
_symmetry_cell_setting 'orthorhombic'
loop_
_space_group_symop_operation_xyz
x,y,z
-x,-y,z
-x,y,z
x,-y,z
x,1/2+y,1/2+z
-x,1/2-y,1/2+z
-x,1/2+y,1/2+z
x,1/2-y,1/2+z
1/2+x,y,1/2+z
1/2-x,-y,1/2+z
1/2-x,y,1/2+z
1/2+x,-y,1/2+z
1/2+x,1/2+y,z
1/2-x,1/2-y,z
1/2-x,1/2+y,z
1/2+x,1/2-y,z
loop_
_atom_site_type_symbol
_atom_site_label
_atom_site_fract_x
_atom_site_fract_y
_atom_site_fract_z
Si Si1 0.000000 0.664167 0.536820
Si Si2 0.500000 0.735014 0.652328
Si Si3 0.000000 0.175880 0.769394
Si Si4 0.189405 0.673852 0.727182
Si Si5 0.370713 0.662786 0.638178
Si Si6 0.622256 0.676160 0.822024
Si Si7 0.381534 0.325867 0.519891
Si Si8 0.187531 0.822568 0.416440
O O1 0.057657 0.744214 0.518150
O O2 0.000000 0.500000 0.516261
O O3 0.000000 0.660737 0.600844
O O4 0.500000 0.768044 0.714889
O O5 0.439464 0.655252 0.643729
O O6 0.056835 0.202751 0.803524
O O7 0.000000 0.000000 0.754668
O O8 0.194042 0.500000 0.735768
O O9 0.250000 0.750000 0.717772
O O10 0.150952 0.713196 0.677059
O O11 0.161126 0.754649 0.776508
O O12 0.347579 0.500000 0.652237
O O13 0.356623 0.698289 0.578106
O O14 0.630533 0.500000 0.825833
O O15 0.642860 0.755326 0.874752
O O16 0.393115 0.500000 0.515798
O O17 0.337824 0.286571 0.473885
O O18 0.250000 0.750000 0.408672
O O19 0.191471 0.000000 0.410737
#
# Coordination Sequence:
#
# PCOD9368356 Si02
#       8
#     8   8   8  16  16  16  16  16
#     4  10  21  35  58  94 131 164 204 253 302 358
#     4  10  18  34  59  90 127 166 198 239 298 365
#     4  10  20  37  63  92 122 160 200 242 298 367
#     4  12  25  40  58  84 119 160 202 252 306 361
#     4  10  19  36  62  91 122 159 201 246 300 366
#     4  11  23  42  65  92 122 158 203 249 302 366
#     4   9  21  40  63  89 122 164 206 248 305 370
#     4  11  24  44  66  90 119 160 209 258 311 364
#
# _framework density 19.244872999999998
#
# number of rings (size 3 to 8) (size 9 to 14) (size 15 to 20)
#    0.000    1.538    1.538    3.692    0.000    7.385 
#    0.000    4.615    0.000    0.000    0.000    0.000 
#    0.000    0.000    0.000    0.000    0.000    0.000 
#
# Total GULP energy -145095.299009 kJ/mol
# GULP energy per Si atom -5580.588423 kJ/mol
# Density = 1.920107 g / cm^3
# Si number density = 19.244873 Si / 1000 Ang^3
#
#
#
# Elastic Constant Matrix: (Units=GPa)
#
#
# Indices 1 2 3 4 5 6 
#
# 1 73.1700 25.4001 38.5487 0.0000 0.0000 0.0000
# 2 25.4001 69.7457 33.5913 0.0000 0.0000 0.0000
# 3 38.5487 33.5913 116.8763 0.0000 0.0000 0.0000
# 4 0.0000 0.0000 0.0000 12.2507 0.0000 0.0000
# 5 0.0000 0.0000 0.0000 0.0000 43.9099 0.0000
# 6 0.0000 0.0000 0.0000 0.0000 0.0000 3.9894
#
#
#
# Elastic Compliance Matrix: (Units=1/GPa)
#
#
# Indices 1 2 3 4 5 6 
#
# 1 0.017531 -0.004178 -0.004581 0.000000 0.000000 0.000000
# 2 -0.004178 0.017637 -0.003691 0.000000 0.000000 0.000000
# 3 -0.004581 -0.003691 0.011128 0.000000 0.000000 0.000000
# 4 0.000000 0.000000 0.000000 0.081628 0.000000 0.000000
# 5 0.000000 0.000000 0.000000 0.000000 0.022774 0.000000
# 6 0.000000 0.000000 0.000000 0.000000 0.000000 0.250664
#
#
# Mechanical properties :
#
#
# Convention : Reuss Voigt Hill
#
# Bulk Modulus (GPa) = 46.73958 50.54136 48.64047
# Shear Modulus (GPa) = 11.53684 22.84680 17.19182
#
# Velocity S-wave (km/s) = 2.45108 3.44926 2.99209
# Velocity P-wave (km/s) = 5.68769 6.49480 6.10460
#
# Compressibility (1/GPa) = 0.02139514
#
# Stress axis : x y z
#
# Youngs Moduli (GPa) = 57.04274 56.69893 89.86399
#
# Poissons Ratio (x) = 0.23688 0.41169
# Poissons Ratio (y) = 0.23832 0.33169
# Poissons Ratio (z) = 0.26133 0.20928
#
# Static dielectric constant tensor:
#      x y z
#    x 1.651300 0.000000 0.000000 
#    y 0.000000 1.654970 0.000000 
#    z 0.000000 0.000000 1.685780 
# 
# From -- ./inp_files/33090.got.cif
#   From: 2010.05.17/outbox.cif.g08.bks.cpg/sg42_17_cif.got.tgz:33090.got - 2010.06.03 19:03:34.
