data_PCOD9368281
_publ_section_title
;
Structure prediction by ZEFSAII (Michael W. Deem and Ramdas Pophale) SiO2 
 PCOD9368281
Probable space group: F M M 2
;
_chemical_formula_sum "Si O2"
_cell_formula_units_Z 104
_cell_length_a 18.902001
_cell_length_b 14.332576
_cell_length_c 21.887496
_cell_angle_alpha 90.000000
_cell_angle_beta 90.000000
_cell_angle_gamma 90.000000
_cell_volume 5929.637100
_symmetry_space_group_name_H-M "F M M 2"
_symmetry_group_IT_number 42
_symmetry_cell_setting 'orthorhombic'
loop_
_space_group_symop_operation_xyz
x,y,z
-x,-y,z
-x,y,z
x,-y,z
x,1/2+y,1/2+z
-x,1/2-y,1/2+z
-x,1/2+y,1/2+z
x,1/2-y,1/2+z
1/2+x,y,1/2+z
1/2-x,-y,1/2+z
1/2-x,y,1/2+z
1/2+x,-y,1/2+z
1/2+x,1/2+y,z
1/2-x,1/2-y,z
1/2-x,1/2+y,z
1/2+x,1/2-y,z
loop_
_atom_site_type_symbol
_atom_site_label
_atom_site_fract_x
_atom_site_fract_y
_atom_site_fract_z
Si Si1 0.197606 0.892004 0.126160
Si Si2 0.750000 0.250000 0.028936
Si Si3 0.082488 0.204705 0.354402
Si Si4 0.298167 0.340958 0.839433
Si Si5 0.812196 0.102846 0.437838
Si Si6 0.082419 0.797319 0.209810
Si Si7 0.839284 0.103156 0.706793
O O1 0.204228 0.819416 0.070853
O O2 0.133803 0.861916 0.170323
O O3 0.271156 0.883024 0.163743
O O4 0.190455 0.000000 0.107174
O O5 0.797887 0.316437 0.986706
O O6 0.127909 0.299199 0.363359
O O7 0.119956 0.128580 0.396885
O O8 0.090705 0.181833 0.282247
O O9 0.000000 0.215640 0.367279
O O10 0.250000 0.250000 0.824471
O O11 0.254289 0.393165 0.891163
O O12 0.311794 0.393377 0.776628
O O13 0.817938 0.000000 0.465182
O O14 0.108130 0.690341 0.200181
O O15 0.000000 0.807829 0.194223
O O16 0.869531 0.000000 0.694606
#
# Coordination Sequence:
#
# PCOD9368281 Si02
#       7
#    16   8  16  16  16  16  16
#     4  11  22  37  60  82 107 143 188 234 274 323
#     4  12  22  40  56  82 108 146 190 234 268 310
#     4   9  18  34  57  84 116 145 171 218 283 336
#     4   9  16  31  53  81 112 144 179 229 278 325
#     4  11  21  35  58  83 108 143 187 230 274 320
#     4  10  20  36  58  85 118 146 175 225 284 336
#     4  10  18  31  56  85 112 145 184 226 280 332
#
# _framework density 17.539016
#
# number of rings (size 3 to 8) (size 9 to 14) (size 15 to 20)
#    0.000    1.846    3.846    3.692    0.000    2.769 
#    0.000    2.308    0.000    1.385    0.000    0.000 
#    0.000    0.000    0.000    0.000    0.000    0.000 
#
# Total GULP energy -145030.048277 kJ/mol
# GULP energy per Si atom -5578.078780 kJ/mol
# Density = 1.749910 g / cm^3
# Si number density = 17.539016 Si / 1000 Ang^3
#
#
#
# Elastic Constant Matrix: (Units=GPa)
#
#
# Indices 1 2 3 4 5 6 
#
# 1 105.4261 34.5463 32.3041 0.0000 0.0000 0.0000
# 2 34.5463 119.7732 37.1556 0.0000 0.0000 0.0000
# 3 32.3041 37.1556 51.2969 0.0000 0.0000 0.0000
# 4 0.0000 0.0000 0.0000 14.1954 0.0000 0.0000
# 5 0.0000 0.0000 0.0000 0.0000 12.2823 0.0000
# 6 0.0000 0.0000 0.0000 0.0000 0.0000 8.7199
#
#
#
# Elastic Compliance Matrix: (Units=1/GPa)
#
#
# Indices 1 2 3 4 5 6 
#
# 1 0.011941 -0.001434 -0.006482 0.000000 0.000000 0.000000
# 2 -0.001434 0.010941 -0.007022 0.000000 0.000000 0.000000
# 3 -0.006482 -0.007022 0.028662 0.000000 0.000000 0.000000
# 4 0.000000 0.000000 0.000000 0.070446 0.000000 0.000000
# 5 0.000000 0.000000 0.000000 0.000000 0.081418 0.000000
# 6 0.000000 0.000000 0.000000 0.000000 0.000000 0.114680
#
#
# Mechanical properties :
#
#
# Convention : Reuss Voigt Hill
#
# Bulk Modulus (GPa) = 46.14637 53.83424 49.99030
# Shear Modulus (GPa) = 14.07716 18.53886 16.30801
#
# Velocity S-wave (km/s) = 2.83613 3.25469 3.05259
# Velocity P-wave (km/s) = 6.09037 6.69960 6.40224
#
# Compressibility (1/GPa) = 0.02167018
#
# Stress axis : x y z
#
# Youngs Moduli (GPa) = 83.74444 91.39983 34.88898
#
# Poissons Ratio (x) = 0.13102 0.22613
# Poissons Ratio (y) = 0.12005 0.24499
# Poissons Ratio (z) = 0.54279 0.64181
#
# Static dielectric constant tensor:
#      x y z
#    x 1.578390 0.000000 0.000000 
#    y 0.000000 1.630890 0.000000 
#    z 0.000000 0.000000 1.603620 
# 
# From -- ./inp_files/25947.got.cif
#   From: 2010.05.17/outbox.cif.g08.bks.cpg/sg42_13_cif.got.tgz:25947.got - 2010.06.03 19:03:34.
