data_PCOD9368458
_publ_section_title
;
Structure prediction by ZEFSAII (Michael W. Deem and Ramdas Pophale) SiO2 
 PCOD9368458
Probable space group: F M M 2
;
_chemical_formula_sum "Si O2"
_cell_formula_units_Z 96
_cell_length_a 25.866677
_cell_length_b 8.722433
_cell_length_c 26.134801
_cell_angle_alpha 90.000000
_cell_angle_beta 90.000000
_cell_angle_gamma 90.000000
_cell_volume 5896.543133
_symmetry_space_group_name_H-M "F M M 2"
_symmetry_group_IT_number 42
_symmetry_cell_setting 'orthorhombic'
loop_
_space_group_symop_operation_xyz
x,y,z
-x,-y,z
-x,y,z
x,-y,z
x,1/2+y,1/2+z
-x,1/2-y,1/2+z
-x,1/2+y,1/2+z
x,1/2-y,1/2+z
1/2+x,y,1/2+z
1/2-x,-y,1/2+z
1/2-x,y,1/2+z
1/2+x,-y,1/2+z
1/2+x,1/2+y,z
1/2-x,1/2-y,z
1/2-x,1/2+y,z
1/2+x,1/2-y,z
loop_
_atom_site_type_symbol
_atom_site_label
_atom_site_fract_x
_atom_site_fract_y
_atom_site_fract_z
Si Si1 0.808005 0.683927 0.178450
Si Si2 0.807924 0.683562 0.897473
Si Si3 0.500000 0.323958 0.978832
Si Si4 0.000000 0.675937 0.603124
Si Si5 0.691942 0.816660 0.292038
Si Si6 0.612422 0.814742 0.597443
Si Si7 0.390538 0.816335 0.983758
O O1 0.805820 0.500000 0.173682
O O2 0.750000 0.750000 0.174726
O O3 0.829458 0.720470 0.235644
O O4 0.843608 0.754892 0.134860
O O5 0.804100 0.500000 0.894936
O O6 0.750000 0.750000 0.904141
O O7 0.830693 0.744924 0.843628
O O8 0.845553 0.726319 0.943994
O O9 0.500000 0.500000 0.961461
O O10 0.553394 0.241547 0.964655
O O11 0.500000 0.326032 0.041076
O O12 0.055805 0.743263 0.616628
O O13 0.000000 0.500000 0.621409
O O14 0.750000 0.750000 0.290817
O O15 0.693708 0.000000 0.297288
O O16 0.619507 0.755765 0.539561
O O17 0.611418 0.000000 0.596422
O O18 0.391837 0.000000 0.988641
#
# Coordination Sequence:
#
# PCOD9368458 Si02
#       7
#    16  16   8   8  16  16  16
#     4  10  20  33  49  72  99 128 161 198 242 290
#     4  10  20  32  49  72  98 128 161 197 240 287
#     4   9  17  31  51  72  93 124 165 204 240 282
#     4   7  14  29  47  68  91 118 157 194 230 276
#     4   9  17  30  49  69  92 123 161 201 239 283
#     4  10  19  32  51  73  98 129 162 199 240 287
#     4  10  20  33  49  72 101 131 162 199 241 287
#
# _framework density 16.280725
#
# number of rings (size 3 to 8) (size 9 to 14) (size 15 to 20)
#    0.000    2.500    0.000    4.750    0.000    5.333 
#    0.000    2.917    0.000    1.000    0.000    3.500 
#    0.000    0.000    0.000    0.000    0.000    0.000 
#
# Total GULP energy -133673.206480 kJ/mol
# GULP energy per Si atom -5569.716937 kJ/mol
# Density = 1.624367 g / cm^3
# Si number density = 16.280725 Si / 1000 Ang^3
#
#
#
# Elastic Constant Matrix: (Units=GPa)
#
#
# Indices 1 2 3 4 5 6 
#
# 1 105.1151 39.2414 74.4521 0.0000 0.0000 0.0000
# 2 39.2414 64.2398 47.2697 0.0000 0.0000 0.0000
# 3 74.4521 47.2697 118.5088 0.0000 0.0000 0.0000
# 4 0.0000 0.0000 0.0000 23.7794 0.0000 0.0000
# 5 0.0000 0.0000 0.0000 0.0000 -2.4608 0.0000
# 6 0.0000 0.0000 0.0000 0.0000 0.0000 23.4865
#
#
#
# Elastic Compliance Matrix: (Units=1/GPa)
#
#
# Indices 1 2 3 4 5 6 
#
# 1 0.017751 -0.003733 -0.009663 0.000000 0.000000 0.000000
# 2 -0.003733 0.022819 -0.006756 0.000000 0.000000 0.000000
# 3 -0.009663 -0.006756 0.017204 0.000000 0.000000 0.000000
# 4 0.000000 0.000000 0.000000 0.042053 0.000000 0.000000
# 5 0.000000 0.000000 0.000000 0.000000 -0.406371 0.000000
# 6 0.000000 0.000000 0.000000 0.000000 0.000000 0.042578
#
#
# Mechanical properties :
#
#
# Convention : Reuss Voigt Hill
#
# Bulk Modulus (GPa) = 57.24541 67.75445 62.49993
# Shear Modulus (GPa) = -22.95283 17.42103 -2.76590
#
# Velocity S-wave (km/s) = -3.75883 3.27470 -1.30483
# Velocity P-wave (km/s) = 4.04962 7.48364 6.01682
#
# Compressibility (1/GPa) = 0.01746865
#
# Stress axis : x y z
#
# Youngs Moduli (GPa) = 56.33388 43.82375 58.12643
#
# Poissons Ratio (x) = 0.16360 0.56168
# Poissons Ratio (y) = 0.21030 0.39273
# Poissons Ratio (z) = 0.54436 0.29609
#
# Static dielectric constant tensor:
#      x y z
#    x 1.539640 0.000000 0.000000 
#    y 0.000000 1.549260 0.000000 
#    z 0.000000 0.000000 1.553090 
# 
# From -- ./inp_files/30457.got.cif
#   From: 2010.05.17/outbox.cif.g08.bks.cpg/sg42_16_cif.got.tgz:30457.got - 2010.06.03 19:03:34.
