data_PCOD9368029
_publ_section_title
;
Structure prediction by ZEFSAII (Michael W. Deem and Ramdas Pophale) SiO2 
 PCOD9368029
Probable space group: A B A 2
;
_chemical_formula_sum "Si O2"
_cell_formula_units_Z 56
_cell_length_a 14.113504
_cell_length_b 11.613996
_cell_length_c 14.836597
_cell_angle_alpha 90.000000
_cell_angle_beta 90.000000
_cell_angle_gamma 90.000000
_cell_volume 2431.928616
_symmetry_space_group_name_H-M "A B A 2"
_symmetry_group_IT_number 41
_symmetry_cell_setting 'orthorhombic'
loop_
_space_group_symop_operation_xyz
x,y,z
-x,-y,z
1/2-x,y,1/2+z
1/2+x,-y,1/2+z
x,1/2+y,1/2+z
-x,1/2-y,1/2+z
1/2-x,1/2+y,z
1/2+x,1/2-y,z
loop_
_atom_site_type_symbol
_atom_site_label
_atom_site_fract_x
_atom_site_fract_y
_atom_site_fract_z
Si Si1 0.000000 0.500000 0.985461
Si Si2 0.025441 0.274392 0.318172
Si Si3 0.762190 0.295898 0.857035
Si Si4 0.731238 0.978041 0.209474
Si Si5 0.363614 0.911744 0.849418
Si Si6 0.000000 0.000000 0.942748
Si Si7 0.173513 0.119061 0.037281
Si Si8 0.579261 0.160170 0.132299
O O1 0.907482 0.501348 0.921895
O O2 0.982973 0.604065 0.053861
O O3 0.129448 0.220496 0.330288
O O4 0.013039 0.298013 0.212643
O O5 0.947348 0.180892 0.342997
O O6 0.018248 0.388923 0.379016
O O7 0.710628 0.370222 0.777155
O O8 0.725303 0.166396 0.875224
O O9 0.734080 0.358062 0.948379
O O10 0.761663 0.935850 0.112550
O O11 0.824644 0.031619 0.258361
O O12 0.649530 0.071298 0.186251
O O13 0.087612 0.037257 0.005599
O O14 0.134552 0.236276 0.083466
#
# Coordination Sequence:
#
# PCOD9368029 Si02
#       8
#     4   8   8   8   8   4   8   8
#     4  12  27  45  78 110 156 202 268 326 404 466
#     4  12  26  50  79 110 156 205 259 326 396 476
#     4  12  26  51  76 109 157 199 264 326 393 480
#     4  12  28  49  79 110 159 208 257 334 404 475
#     4  12  27  50  74 112 152 208 258 326 399 474
#     4  12  27  47  78 108 154 208 248 330 394 474
#     4  12  28  48  75 115 150 198 265 314 400 476
#     4  12  27  49  73 120 147 204 267 323 394 490
#
# _framework density 23.026992
#
# number of rings (size 3 to 8) (size 9 to 14) (size 15 to 20)
#    0.000    0.000    5.714    2.143   10.000    0.000 
#    0.000    0.000    0.000    0.000    0.000    0.000 
#    0.000    0.000    0.000    0.000    0.000    0.000 
#
# Total GULP energy -156621.312352 kJ/mol
# GULP energy per Si atom -5593.618298 kJ/mol
# Density = 2.297458 g / cm^3
# Si number density = 23.026992 Si / 1000 Ang^3
#
#
#
# Elastic Constant Matrix: (Units=GPa)
#
#
# Indices 1 2 3 4 5 6 
#
# 1 46.5092 15.1897 3.0580 0.0000 0.0000 0.0000
# 2 15.1897 66.4190 6.7207 0.0000 0.0000 0.0000
# 3 3.0580 6.7207 136.2796 0.0000 0.0000 0.0000
# 4 0.0000 0.0000 0.0000 32.6023 0.0000 0.0000
# 5 0.0000 0.0000 0.0000 0.0000 45.4520 0.0000
# 6 0.0000 0.0000 0.0000 0.0000 0.0000 16.9749
#
#
#
# Elastic Compliance Matrix: (Units=1/GPa)
#
#
# Indices 1 2 3 4 5 6 
#
# 1 0.023246 -0.005290 -0.000261 0.000000 0.000000 0.000000
# 2 -0.005290 0.016335 -0.000687 0.000000 0.000000 0.000000
# 3 -0.000261 -0.000687 0.007378 0.000000 0.000000 0.000000
# 4 0.000000 0.000000 0.000000 0.030673 0.000000 0.000000
# 5 0.000000 0.000000 0.000000 0.000000 0.022001 0.000000
# 6 0.000000 0.000000 0.000000 0.000000 0.000000 0.058911
#
#
# Mechanical properties :
#
#
# Convention : Reuss Voigt Hill
#
# Bulk Modulus (GPa) = 28.99914 33.23827 31.11871
# Shear Modulus (GPa) = 27.39535 33.95512 30.67524
#
# Velocity S-wave (km/s) = 3.45295 3.84419 3.65381
# Velocity P-wave (km/s) = 5.34023 5.84547 5.59855
#
# Compressibility (1/GPa) = 0.03448378
#
# Stress axis : x y z
#
# Youngs Moduli (GPa) = 43.01831 61.21754 135.54583
#
# Poissons Ratio (x) = 0.32383 0.03534
# Poissons Ratio (y) = 0.22756 0.09310
# Poissons Ratio (z) = 0.01122 0.04205
#
# Static dielectric constant tensor:
#      x y z
#    x 1.887870 0.000000 0.000000 
#    y 0.000000 2.056130 0.000000 
#    z 0.000000 0.000000 1.812540 
# 
# From -- ./inp_files/8412.got.cif
#   From: 2010.05.17/outbox.cif.g08.bks.cpg/sg41_5_cif.got.tgz:8412.got - 2010.06.03 18:54:24.
