data_PCOD9368064
_publ_section_title
;
Structure prediction by ZEFSAII (Michael W. Deem and Ramdas Pophale) SiO2 
 PCOD9368064
Probable space group: A B A 2
;
_chemical_formula_sum "Si O2"
_cell_formula_units_Z 30
_cell_length_a 9.000000
_cell_length_b 27.000000
_cell_length_c 12.000000
_cell_angle_alpha 90.000000
_cell_angle_beta 90.000000
_cell_angle_gamma 90.000000
_cell_volume 2916.000000
_symmetry_space_group_name_H-M "A B A 2"
_symmetry_group_IT_number 41
_symmetry_cell_setting 'orthorhombic'
loop_
_space_group_symop_operation_xyz
x,y,z
-x,-y,z
1/2-x,y,1/2+z
1/2+x,-y,1/2+z
x,1/2+y,1/2+z
-x,1/2-y,1/2+z
1/2-x,1/2+y,z
1/2+x,1/2-y,z
loop_
_atom_site_type_symbol
_atom_site_label
_atom_site_fract_x
_atom_site_fract_y
_atom_site_fract_z
Si Si1 0.351647 0.405431 0.869540
Si Si2 0.183696 0.584283 0.161773
Si Si3 0.000000 0.500000 0.256593
Si Si4 0.324019 0.156357 0.845222
Si Si5 0.331408 0.319330 0.684997
Si Si6 0.575812 0.615758 0.496034
Si Si7 0.513864 0.225952 0.700678
Si Si8 0.406544 0.646299 0.021987
O O1 0.426821 0.455135 0.824641
O O2 0.322016 0.366332 0.768653
O O3 0.464368 0.377246 0.950120
O O4 0.204124 0.416987 0.941055
O O5 0.139005 0.528118 0.194748
O O6 0.224589 0.620233 0.266339
O O7 0.034583 0.598363 0.093899
O O8 0.322576 0.600418 0.084117
O O9 0.404198 0.203407 0.793071
O O10 0.217760 0.170912 0.945132
O O11 0.463626 0.127034 0.895878
O O12 0.338695 0.339215 0.557839
O O13 0.475481 0.283859 0.694650
O O14 0.187410 0.286011 0.712112
O O15 0.466450 0.190122 0.598835
#
# Coordination Sequence:
#
# PCOD9368064 Si02
#       8
#     8   8   4   8   8   8   8   8
#     4  12  25  46  68 102 145 180 233 295 350 418
#     4  10  23  43  70  98 134 175 233 287 344 415
#     4  12  24  44  74 102 138 184 228 300 360 406
#     4  10  21  44  68  98 131 187 226 286 343 419
#     4  12  26  43  64 105 142 183 231 293 341 425
#     4  11  23  45  72  93 142 183 224 291 354 405
#     4  11  26  40  68  99 140 184 233 280 356 413
#     4  10  22  43  69  93 135 180 231 281 343 420
#
# _framework density 10.288066000000001
#
# number of rings (size 3 to 8) (size 9 to 14) (size 15 to 20)
#    0.000    1.067    5.333    0.000    7.467    3.200 
#    0.000    0.000    0.000    0.000    0.000    0.000 
#    0.000    0.000    0.000    0.000    0.000    0.000 
#
# Total GULP energy -167173.432274 kJ/mol
# GULP energy per Si atom -5572.447742 kJ/mol
# Density = 1.026465 g / cm^3
# Si number density = 10.288066 Si / 1000 Ang^3
#
#
#
# Elastic Constant Matrix: (Units=GPa)
#
#
# Indices 1 2 3 4 5 6 
#
# 1 101.9980 24.0717 34.7877 0.0000 0.0000 0.0000
# 2 24.0717 80.5804 20.2213 0.0000 0.0000 0.0000
# 3 34.7877 20.2213 52.4651 0.0000 0.0000 0.0000
# 4 0.0000 0.0000 0.0000 12.3888 0.0000 0.0000
# 5 0.0000 0.0000 0.0000 0.0000 14.5950 0.0000
# 6 0.0000 0.0000 0.0000 0.0000 0.0000 33.8677
#
#
#
# Elastic Compliance Matrix: (Units=1/GPa)
#
#
# Indices 1 2 3 4 5 6 
#
# 1 0.012925 -0.001894 -0.007840 0.000000 0.000000 0.000000
# 2 -0.001894 0.014016 -0.004147 0.000000 0.000000 0.000000
# 3 -0.007840 -0.004147 0.025857 0.000000 0.000000 0.000000
# 4 0.000000 0.000000 0.000000 0.080718 0.000000 0.000000
# 5 0.000000 0.000000 0.000000 0.000000 0.068517 0.000000
# 6 0.000000 0.000000 0.000000 0.000000 0.000000 0.029527
#
#
# Mechanical properties :
#
#
# Convention : Reuss Voigt Hill
#
# Bulk Modulus (GPa) = 39.94030 43.68944 41.81487
# Shear Modulus (GPa) = 18.67994 22.56780 20.62387
#
# Velocity S-wave (km/s) = 3.01632 3.31538 3.16938
# Velocity P-wave (km/s) = 5.61996 5.99457 5.81029
#
# Compressibility (1/GPa) = 0.02503737
#
# Stress axis : x y z
#
# Youngs Moduli (GPa) = 77.36929 71.34595 38.67406
#
# Poissons Ratio (x) = 0.13510 0.30322
# Poissons Ratio (y) = 0.14651 0.16037
# Poissons Ratio (z) = 0.60660 0.29585
#
# Static dielectric constant tensor:
#      x y z
#    x 1.772200 0.000000 0.000000 
#    y 0.000000 1.712610 0.000000 
#    z 0.000000 0.000000 1.827880 
# 
# From -- ./inp_files/4579.got.cif
#   From: 2010.05.17/outbox.ucp.g08.bks.cvg/sg41_3_cif.got.tgz:4579.got - 2010.06.11 16:28:22.
