data_PCOD9368654
_publ_section_title
;
Structure prediction by ZEFSAII (Michael W. Deem and Ramdas Pophale) SiO2 
 PCOD9368654
Probable space group: F M M 2
;
_chemical_formula_sum "Si O2"
_cell_formula_units_Z 96
_cell_length_a 23.599314
_cell_length_b 15.485996
_cell_length_c 14.141921
_cell_angle_alpha 90.000000
_cell_angle_beta 90.000000
_cell_angle_gamma 90.000000
_cell_volume 5168.290641
_symmetry_space_group_name_H-M "F M M 2"
_symmetry_group_IT_number 42
_symmetry_cell_setting 'orthorhombic'
loop_
_space_group_symop_operation_xyz
x,y,z
-x,-y,z
-x,y,z
x,-y,z
x,1/2+y,1/2+z
-x,1/2-y,1/2+z
-x,1/2+y,1/2+z
x,1/2-y,1/2+z
1/2+x,y,1/2+z
1/2-x,-y,1/2+z
1/2-x,y,1/2+z
1/2+x,-y,1/2+z
1/2+x,1/2+y,z
1/2-x,1/2-y,z
1/2-x,1/2+y,z
1/2+x,1/2-y,z
loop_
_atom_site_type_symbol
_atom_site_label
_atom_site_fract_x
_atom_site_fract_y
_atom_site_fract_z
Si Si1 0.068009 0.402098 0.506470
Si Si2 0.566881 0.727019 0.403040
Si Si3 0.841199 0.099495 0.479568
Si Si4 0.724708 0.099393 0.799453
Si Si5 0.798875 0.312300 0.151734
Si Si6 0.614394 0.170460 0.702607
O O1 0.089683 0.500000 0.486918
O O2 0.085006 0.324568 0.434242
O O3 0.084398 0.373878 0.613427
O O4 0.000000 0.405854 0.501348
O O5 0.500000 0.718958 0.423128
O O6 0.605024 0.660665 0.463138
O O7 0.577944 0.699278 0.293869
O O8 0.793611 0.127281 0.403690
O O9 0.814255 0.111259 0.581831
O O10 0.855704 0.000000 0.459811
O O11 0.772809 0.154731 0.749610
O O12 0.666460 0.111501 0.739922
O O13 0.741511 0.000000 0.800649
O O14 0.750000 0.250000 0.109809
O O15 0.854411 0.256185 0.166638
#
# Coordination Sequence:
#
# PCOD9368654 Si02
#       6
#    16  16  16  16  16  16
#     4  10  20  36  59  86 115 150 196 244 290 346
#     4  10  21  37  59  84 116 150 188 241 298 348
#     4  10  20  36  58  83 115 150 188 234 285 346
#     4   9  19  34  52  79 111 144 186 232 277 331
#     4  10  20  34  55  79 112 151 186 231 281 340
#     4  10  19  35  57  83 110 147 189 237 287 342
#
# _framework density 18.574805999999999
#
# number of rings (size 3 to 8) (size 9 to 14) (size 15 to 20)
#    0.000    2.167    1.667    1.500    0.000    4.333 
#    0.000    1.667    0.000    0.000    0.000    0.000 
#    0.000    0.000    0.000    0.000    0.000    0.000 
#
# Total GULP energy -133735.996685 kJ/mol
# GULP energy per Si atom -5572.333195 kJ/mol
# Density = 1.853253 g / cm^3
# Si number density = 18.574806 Si / 1000 Ang^3
#
#
#
# Elastic Constant Matrix: (Units=GPa)
#
#
# Indices 1 2 3 4 5 6 
#
# 1 36.6015 33.6352 17.9449 0.0000 0.0000 0.0000
# 2 33.6352 100.4892 26.3784 0.0000 0.0000 0.0000
# 3 17.9449 26.3784 49.7449 0.0000 0.0000 0.0000
# 4 0.0000 0.0000 0.0000 16.4087 0.0000 0.0000
# 5 0.0000 0.0000 0.0000 0.0000 12.4694 0.0000
# 6 0.0000 0.0000 0.0000 0.0000 0.0000 22.9665
#
#
#
# Elastic Compliance Matrix: (Units=1/GPa)
#
#
# Indices 1 2 3 4 5 6 
#
# 1 0.042730 -0.011915 -0.009096 0.000000 0.000000 0.000000
# 2 -0.011915 0.014883 -0.003594 0.000000 0.000000 0.000000
# 3 -0.009096 -0.003594 0.025290 0.000000 0.000000 0.000000
# 4 0.000000 0.000000 0.000000 0.060943 0.000000 0.000000
# 5 0.000000 0.000000 0.000000 0.000000 0.080196 0.000000
# 6 0.000000 0.000000 0.000000 0.000000 0.000000 0.043542
#
#
# Mechanical properties :
#
#
# Convention : Reuss Voigt Hill
#
# Bulk Modulus (GPa) = 29.67990 38.08360 33.88175
# Shear Modulus (GPa) = 15.24279 17.62740 16.43510
#
# Velocity S-wave (km/s) = 2.86775 3.08392 2.97780
# Velocity P-wave (km/s) = 5.19409 5.76438 5.48665
#
# Compressibility (1/GPa) = 0.03369283
#
# Stress axis : x y z
#
# Youngs Moduli (GPa) = 23.40275 67.19220 39.54176
#
# Poissons Ratio (x) = 0.80056 0.35969
# Poissons Ratio (y) = 0.27883 0.14211
# Poissons Ratio (z) = 0.21288 0.24148
#
# Static dielectric constant tensor:
#      x y z
#    x 1.619220 0.000000 0.000000 
#    y 0.000000 1.678150 0.000000 
#    z 0.000000 0.000000 1.658550 
# 
# From -- ./inp_files/13972.got.cif
#   From: 2010.05.17/outbox.cif.g08.bks.cpg/sg42_7_cif.got.tgz:13972.got - 2010.06.03 19:03:34.
