data_PCOD9368388
_publ_section_title
;
Structure prediction by ZEFSAII (Michael W. Deem and Ramdas Pophale) SiO2 
 PCOD9368388
Probable space group: F M M 2
;
_chemical_formula_sum "Si O2"
_cell_formula_units_Z 76
_cell_length_a 10.913195
_cell_length_b 15.400704
_cell_length_c 22.765004
_cell_angle_alpha 90.000000
_cell_angle_beta 90.000000
_cell_angle_gamma 90.000000
_cell_volume 3826.134390
_symmetry_space_group_name_H-M "F M M 2"
_symmetry_group_IT_number 42
_symmetry_cell_setting 'orthorhombic'
loop_
_space_group_symop_operation_xyz
x,y,z
-x,-y,z
-x,y,z
x,-y,z
x,1/2+y,1/2+z
-x,1/2-y,1/2+z
-x,1/2+y,1/2+z
x,1/2-y,1/2+z
1/2+x,y,1/2+z
1/2-x,-y,1/2+z
1/2-x,y,1/2+z
1/2+x,-y,1/2+z
1/2+x,1/2+y,z
1/2-x,1/2-y,z
1/2-x,1/2+y,z
1/2+x,1/2-y,z
loop_
_atom_site_type_symbol
_atom_site_label
_atom_site_fract_x
_atom_site_fract_y
_atom_site_fract_z
Si Si1 0.500000 0.903594 0.266621
Si Si2 0.209148 0.000000 0.556803
Si Si3 0.857524 0.598207 0.863033
Si Si4 0.849058 0.823688 0.485631
Si Si5 0.500000 0.000000 0.151482
Si Si6 0.644490 0.000000 0.665184
Si Si7 0.758028 0.344982 0.745132
O O1 0.627493 0.859363 0.277202
O O2 0.500000 0.000000 0.293029
O O3 0.500000 0.919560 0.195961
O O4 0.181031 0.913376 0.519957
O O5 0.333875 0.000000 0.594936
O O6 0.114668 0.000000 0.610366
O O7 0.803305 0.500000 0.859518
O O8 0.847255 0.643912 0.800220
O O9 0.000000 0.587269 0.876000
O O10 0.814017 0.654444 0.917960
O O11 0.750000 0.750000 0.505380
O O12 0.000000 0.805658 0.490912
O O13 0.706003 0.917194 0.697646
O O14 0.500000 0.000000 0.678212
O O15 0.750000 0.250000 0.718110
#
# Coordination Sequence:
#
# PCOD9368388 Si02
#       7
#     8   8  16  16   4   8  16
#     4  10  20  42  62  86 126 170 216 255 305 393
#     4  12  22  45  70  90 123 177 218 260 317 391
#     4  10  20  40  66  94 127 169 216 261 319 389
#     4  11  24  43  71  99 127 170 221 269 323 388
#     4  10  18  42  66  82 116 174 218 250 296 380
#     4  12  26  45  64  95 134 169 216 271 321 375
#     4  12  24  39  65  98 130 169 211 263 322 383
#
# _framework density 19.863391
#
# number of rings (size 3 to 8) (size 9 to 14) (size 15 to 20)
#    0.316    0.632    6.316    1.263    2.947    1.684 
#    1.895    0.000    0.000    0.000    0.000    0.000 
#    0.000    0.000    0.000    0.000    0.000    0.000 
#
# Total GULP energy -105780.213813 kJ/mol
# GULP energy per Si atom -5567.379674 kJ/mol
# Density = 1.981818 g / cm^3
# Si number density = 19.863391 Si / 1000 Ang^3
#
#
#
# Elastic Constant Matrix: (Units=GPa)
#
#
# Indices 1 2 3 4 5 6 
#
# 1 83.9378 39.2101 -5.6828 0.0000 0.0000 0.0000
# 2 39.2101 148.6081 24.0836 0.0000 0.0000 0.0000
# 3 -5.6828 24.0836 76.9550 0.0000 0.0000 0.0000
# 4 0.0000 0.0000 0.0000 6.0915 0.0000 0.0000
# 5 0.0000 0.0000 0.0000 0.0000 22.6172 0.0000
# 6 0.0000 0.0000 0.0000 0.0000 0.0000 6802.8974
#
#
#
# Elastic Compliance Matrix: (Units=1/GPa)
#
#
# Indices 1 2 3 4 5 6 
#
# 1 0.013965 -0.004058 0.002301 0.000000 0.000000 0.000000
# 2 -0.004058 0.008268 -0.002887 0.000000 0.000000 0.000000
# 3 0.002301 -0.002887 0.014068 0.000000 0.000000 0.000000
# 4 0.000000 0.000000 0.000000 0.164162 0.000000 0.000000
# 5 0.000000 0.000000 0.000000 0.000000 0.044214 0.000000
# 6 0.000000 0.000000 0.000000 0.000000 0.000000 0.000147
#
#
# Mechanical properties :
#
#
# Convention : Reuss Voigt Hill
#
# Bulk Modulus (GPa) = 37.01864 47.19143 42.10503
# Shear Modulus (GPa) = 19.00308 1383.11389 701.05849
#
# Velocity S-wave (km/s) = 3.09639 26.41637 18.80708
# Velocity P-wave (km/s) = 5.60898 30.89082 22.20026
#
# Compressibility (1/GPa) = 0.02701342
#
# Stress axis : x y z
#
# Youngs Moduli (GPa) = 71.60884 120.95479 71.08311
#
# Poissons Ratio (x) = 0.49077 -0.16357
# Poissons Ratio (y) = 0.29055 0.20522
# Poissons Ratio (z) = -0.16478 0.34920
#
# Static dielectric constant tensor:
#      x y z
#    x 1.839350 0.000000 0.000000 
#    y 0.000000 1.746830 0.000000 
#    z 0.000000 0.000000 1.671270 
# 
# From -- ./inp_files/28682.got.cif
#   From: 2010.05.17/outbox.cif.g08.bks.cpg/sg42_15_cif.got.tgz:28682.got - 2010.06.03 19:03:34.
