data_PCOD9368566
_publ_section_title
;
Structure prediction by ZEFSAII (Michael W. Deem and Ramdas Pophale) SiO2 
 PCOD9368566
Probable space group: F M M 2
;
_chemical_formula_sum "Si O2"
_cell_formula_units_Z 96
_cell_length_a 28.801742
_cell_length_b 8.828662
_cell_length_c 20.981693
_cell_angle_alpha 90.000000
_cell_angle_beta 90.000000
_cell_angle_gamma 90.000000
_cell_volume 5335.242628
_symmetry_space_group_name_H-M "F M M 2"
_symmetry_group_IT_number 42
_symmetry_cell_setting 'orthorhombic'
loop_
_space_group_symop_operation_xyz
x,y,z
-x,-y,z
-x,y,z
x,-y,z
x,1/2+y,1/2+z
-x,1/2-y,1/2+z
-x,1/2+y,1/2+z
x,1/2-y,1/2+z
1/2+x,y,1/2+z
1/2-x,-y,1/2+z
1/2-x,y,1/2+z
1/2+x,-y,1/2+z
1/2+x,1/2+y,z
1/2-x,1/2-y,z
1/2-x,1/2+y,z
1/2+x,1/2-y,z
loop_
_atom_site_type_symbol
_atom_site_label
_atom_site_fract_x
_atom_site_fract_y
_atom_site_fract_z
Si Si1 0.396277 0.319929 0.833350
Si Si2 0.444767 0.820754 0.955287
Si Si3 0.053884 0.681292 0.711014
Si Si4 0.396494 0.181940 0.088328
Si Si5 0.700902 0.681933 0.890443
Si Si6 0.799127 0.181932 0.531466
O O1 0.399376 0.500000 0.825003
O O2 0.422716 0.270834 0.897488
O O3 0.419800 0.240316 0.773449
O O4 0.342271 0.279997 0.845112
O O5 0.500000 0.801520 0.956603
O O6 0.434655 0.000000 0.945682
O O7 0.423078 0.776494 0.023095
O O8 0.054033 0.500000 0.711245
O O9 0.080041 0.740926 0.648547
O O10 0.000000 0.732742 0.711249
O O11 0.342475 0.219923 0.076564
O O12 0.400069 0.000000 0.095660
O O13 0.704204 0.500000 0.896017
O O14 0.750000 0.750000 0.868719
O O15 0.691900 0.750870 0.960823
O O16 0.750000 0.250000 0.553069
O O17 0.795971 0.000000 0.526271
#
# Coordination Sequence:
#
# PCOD9368566 Si02
#       6
#    16  16  16  16  16  16
#     4  11  23  38  58  85 116 151 192 238 287 342
#     4  10  20  35  57  84 114 148 189 237 287 340
#     4  11  25  42  60  83 114 154 196 240 291 345
#     4  10  21  38  60  85 115 153 193 235 286 343
#     4  10  20  34  56  86 117 150 188 233 286 340
#     4  10  19  33  57  87 118 152 188 231 285 340
#
# _framework density 17.993559000000001
#
# number of rings (size 3 to 8) (size 9 to 14) (size 15 to 20)
#    0.000    1.667    1.667    4.000    0.000    8.333 
#    0.000    0.833    0.000    0.000    0.000    0.000 
#    0.000    0.000    0.000    0.000    0.000    0.000 
#
# Total GULP energy -134077.580779 kJ/mol
# GULP energy per Si atom -5586.565866 kJ/mol
# Density = 1.795260 g / cm^3
# Si number density = 17.993559 Si / 1000 Ang^3
#
#
#
# Elastic Constant Matrix: (Units=GPa)
#
#
# Indices 1 2 3 4 5 6 
#
# 1 163.2660 65.6901 91.2785 0.0000 0.0000 0.0000
# 2 65.6901 55.9635 48.5921 0.0000 0.0000 0.0000
# 3 91.2785 48.5921 131.6167 0.0000 0.0000 0.0000
# 4 0.0000 0.0000 0.0000 32.4521 0.0000 0.0000
# 5 0.0000 0.0000 0.0000 0.0000 27.1776 0.0000
# 6 0.0000 0.0000 0.0000 0.0000 0.0000 26.6954
#
#
#
# Elastic Compliance Matrix: (Units=1/GPa)
#
#
# Indices 1 2 3 4 5 6 
#
# 1 0.013690 -0.011518 -0.005242 0.000000 0.000000 0.000000
# 2 -0.011518 0.035990 -0.005300 0.000000 0.000000 0.000000
# 3 -0.005242 -0.005300 0.013190 0.000000 0.000000 0.000000
# 4 0.000000 0.000000 0.000000 0.030815 0.000000 0.000000
# 5 0.000000 0.000000 0.000000 0.000000 0.036795 0.000000
# 6 0.000000 0.000000 0.000000 0.000000 0.000000 0.037460
#
#
# Mechanical properties :
#
#
# Convention : Reuss Voigt Hill
#
# Bulk Modulus (GPa) = 53.33010 84.66310 68.99660
# Shear Modulus (GPa) = 22.90359 26.95072 24.92715
#
# Velocity S-wave (km/s) = 3.57161 3.87434 3.72605
# Velocity P-wave (km/s) = 6.83457 8.19561 7.54584
#
# Compressibility (1/GPa) = 0.01875114
#
# Stress axis : x y z
#
# Youngs Moduli (GPa) = 73.04791 27.78578 75.81713
#
# Poissons Ratio (x) = 0.32003 0.39742
# Poissons Ratio (y) = 0.84134 0.40179
# Poissons Ratio (z) = 0.38290 0.14725
#
# Static dielectric constant tensor:
#      x y z
#    x 1.627960 0.000000 0.000000 
#    y 0.000000 1.606570 0.000000 
#    z 0.000000 0.000000 1.572730 
# 
# From -- ./inp_files/23722.got.cif
#   From: 2010.05.17/outbox.cif.g08.bks.cpg/sg42_12_cif.got.tgz:23722.got - 2010.06.03 19:03:34.
