data_PCOD9368824
_publ_section_title
;
Structure prediction by ZEFSAII (Michael W. Deem and Ramdas Pophale) SiO2 
 PCOD9368824
Probable space group: F M M 2
;
_chemical_formula_sum "Si O2"
_cell_formula_units_Z 80
_cell_length_a 9.153363
_cell_length_b 19.733961
_cell_length_c 26.037640
_cell_angle_alpha 90.000000
_cell_angle_beta 90.000000
_cell_angle_gamma 90.000000
_cell_volume 4703.233813
_symmetry_space_group_name_H-M "F M M 2"
_symmetry_group_IT_number 42
_symmetry_cell_setting 'orthorhombic'
loop_
_space_group_symop_operation_xyz
x,y,z
-x,-y,z
-x,y,z
x,-y,z
x,1/2+y,1/2+z
-x,1/2-y,1/2+z
-x,1/2+y,1/2+z
x,1/2-y,1/2+z
1/2+x,y,1/2+z
1/2-x,-y,1/2+z
1/2-x,y,1/2+z
1/2+x,-y,1/2+z
1/2+x,1/2+y,z
1/2-x,1/2-y,z
1/2-x,1/2+y,z
1/2+x,1/2-y,z
loop_
_atom_site_type_symbol
_atom_site_label
_atom_site_fract_x
_atom_site_fract_y
_atom_site_fract_z
Si Si1 0.326172 0.677656 0.935470
Si Si2 0.827320 0.080926 0.516101
Si Si3 0.832113 0.417728 0.619711
Si Si4 0.673751 0.322202 0.815508
Si Si5 0.824249 0.420036 0.735018
O O1 0.500000 0.683189 0.943274
O O2 0.250000 0.750000 0.945249
O O3 0.300159 0.660336 0.875478
O O4 0.257932 0.621910 0.972721
O O5 0.768365 0.102413 0.572226
O O6 0.000000 0.092989 0.512124
O O7 0.801716 0.000000 0.510975
O O8 0.833331 0.500000 0.621076
O O9 0.785166 0.396871 0.676964
O O10 0.000000 0.396031 0.610968
O O11 0.500000 0.316649 0.807916
O O12 0.750000 0.250000 0.805975
O O13 0.742548 0.377107 0.777718
O O14 0.790612 0.500000 0.739826
O O15 0.000000 0.412873 0.739817
#
# Coordination Sequence:
#
# PCOD9368824 Si02
#       5
#    16  16  16  16  16
#     4  10  21  37  55  74 100 135 172 211 257 306
#     4  10  20  33  52  79 107 135 169 209 252 299
#     4   8  15  30  51  74 102 136 170 205 250 300
#     4  10  21  36  54  75 101 135 172 211 256 304
#     4   9  18  33  54  79 106 136 169 207 252 300
#
# _framework density 17.009574000000001
#
# number of rings (size 3 to 8) (size 9 to 14) (size 15 to 20)
#    0.000    2.600    0.000    3.000    0.000    5.600 
#    0.000    7.000    0.000    4.800    0.000    0.000 
#    0.000    0.000    0.000    0.000    0.000    0.000 
#
# Total GULP energy -111536.020307 kJ/mol
# GULP energy per Si atom -5576.801015 kJ/mol
# Density = 1.697086 g / cm^3
# Si number density = 17.009574 Si / 1000 Ang^3
#
#
#
# Elastic Constant Matrix: (Units=GPa)
#
#
# Indices 1 2 3 4 5 6 
#
# 1 96.0957 64.7795 95.1902 0.0000 0.0000 0.0000
# 2 64.7795 65.7251 83.3935 0.0000 0.0000 0.0000
# 3 95.1902 83.3935 142.3453 0.0000 0.0000 0.0000
# 4 0.0000 0.0000 0.0000 -71.9877 0.0000 0.0000
# 5 0.0000 0.0000 0.0000 0.0000 33.5858 0.0000
# 6 0.0000 0.0000 0.0000 0.0000 0.0000 31.0958
#
#
#
# Elastic Compliance Matrix: (Units=1/GPa)
#
#
# Indices 1 2 3 4 5 6 
#
# 1 0.036199 -0.019339 -0.012878 0.000000 0.000000 0.000000
# 2 -0.019339 0.069613 -0.027850 0.000000 0.000000 0.000000
# 3 -0.012878 -0.027850 0.031953 0.000000 0.000000 0.000000
# 4 0.000000 0.000000 0.000000 -0.013891 0.000000 0.000000
# 5 0.000000 0.000000 0.000000 0.000000 0.029775 0.000000
# 6 0.000000 0.000000 0.000000 0.000000 0.000000 0.032159
#
#
# Mechanical properties :
#
#
# Convention : Reuss Voigt Hill
#
# Bulk Modulus (GPa) = 56.71809 87.87694 72.29751
# Shear Modulus (GPa) = 16.03499 2.59229 9.31364
#
# Velocity S-wave (km/s) = 3.07368 1.23585 2.34252
# Velocity P-wave (km/s) = 6.78335 7.33565 7.06490
#
# Compressibility (1/GPa) = 0.01763106
#
# Stress axis : x y z
#
# Youngs Moduli (GPa) = 27.62484 14.36518 31.29601
#
# Poissons Ratio (x) = 0.27781 0.40302
# Poissons Ratio (y) = 0.53424 0.87160
# Poissons Ratio (z) = 0.35574 0.40007
#
# Static dielectric constant tensor:
#      x y z
#    x 1.562950 0.000000 0.000000 
#    y 0.000000 1.548930 0.000000 
#    z 0.000000 0.000000 1.572970 
# 
# From -- ./inp_files/31237.got.cif
#   From: 2010.05.17/outbox.cif.g08.bks.cpg/sg42_16_cif.got.tgz:31237.got - 2010.06.03 19:03:34.
