data_PCOD9368714
_publ_section_title
;
Structure prediction by ZEFSAII (Michael W. Deem and Ramdas Pophale) SiO2 
 PCOD9368714
Probable space group: F M M 2
;
_chemical_formula_sum "Si O2"
_cell_formula_units_Z 96
_cell_length_a 8.899277
_cell_length_b 28.712713
_cell_length_c 20.800769
_cell_angle_alpha 90.000000
_cell_angle_beta 90.000000
_cell_angle_gamma 90.000000
_cell_volume 5315.062134
_symmetry_space_group_name_H-M "F M M 2"
_symmetry_group_IT_number 42
_symmetry_cell_setting 'orthorhombic'
loop_
_space_group_symop_operation_xyz
x,y,z
-x,-y,z
-x,y,z
x,-y,z
x,1/2+y,1/2+z
-x,1/2-y,1/2+z
-x,1/2+y,1/2+z
x,1/2-y,1/2+z
1/2+x,y,1/2+z
1/2-x,-y,1/2+z
1/2-x,y,1/2+z
1/2+x,-y,1/2+z
1/2+x,1/2+y,z
1/2-x,1/2-y,z
1/2-x,1/2+y,z
1/2+x,1/2-y,z
loop_
_atom_site_type_symbol
_atom_site_label
_atom_site_fract_x
_atom_site_fract_y
_atom_site_fract_z
Si Si1 0.821748 0.392590 0.243280
Si Si2 0.820090 0.445280 0.622267
Si Si3 0.175650 0.555586 0.861386
Si Si4 0.680133 0.299307 0.443009
Si Si5 0.319378 0.397323 0.498094
Si Si6 0.180088 0.299827 0.791958
O O1 0.754118 0.419819 0.182795
O O2 0.776113 0.420831 0.307292
O O3 0.748795 0.341713 0.251283
O O4 0.000000 0.388830 0.237536
O O5 0.779315 0.500000 0.621727
O O6 0.762768 0.420850 0.557499
O O7 0.000000 0.441917 0.627054
O O8 0.189864 0.500000 0.859856
O O9 0.000000 0.567755 0.848098
O O10 0.210740 0.574827 0.932114
O O11 0.500000 0.295911 0.446239
O O12 0.750000 0.250000 0.462250
O O13 0.726503 0.343842 0.484764
O O14 0.718136 0.307965 0.367714
O O15 0.500000 0.398555 0.508605
O O16 0.250000 0.250000 0.774388
O O17 0.000000 0.298873 0.786367
#
# Coordination Sequence:
#
# PCOD9368714 Si02
#       6
#    16  16  16  16  16  16
#     4  12  24  38  59  87 118 156 201 247 295 350
#     4  11  25  43  61  83 116 158 200 248 306 360
#     4  10  20  36  59  85 116 153 193 244 302 355
#     4   9  18  33  57  87 120 154 190 233 287 346
#     4  10  20  38  61  87 117 154 196 240 294 357
#     4  10  19  36  60  89 123 156 194 240 296 353
#
# _framework density 18.061878
#
# number of rings (size 3 to 8) (size 9 to 14) (size 15 to 20)
#    0.000    1.667    1.667    3.500    0.000    6.333 
#    0.000    0.833    0.000    2.000    0.000    0.000 
#    0.000    0.000    0.000    0.000    0.000    0.000 
#
# Total GULP energy -134113.524732 kJ/mol
# GULP energy per Si atom -5588.063530 kJ/mol
# Density = 1.802077 g / cm^3
# Si number density = 18.061878 Si / 1000 Ang^3
#
#
#
# Elastic Constant Matrix: (Units=GPa)
#
#
# Indices 1 2 3 4 5 6 
#
# 1 79.1118 76.5645 62.3658 0.0000 0.0000 0.0000
# 2 76.5645 171.8038 84.5122 0.0000 0.0000 0.0000
# 3 62.3658 84.5122 107.0395 0.0000 0.0000 0.0000
# 4 0.0000 0.0000 0.0000 32.0884 0.0000 0.0000
# 5 0.0000 0.0000 0.0000 0.0000 30.0401 0.0000
# 6 0.0000 0.0000 0.0000 0.0000 0.0000 32.5272
#
#
#
# Elastic Compliance Matrix: (Units=1/GPa)
#
#
# Indices 1 2 3 4 5 6 
#
# 1 0.028035 -0.007290 -0.010579 0.000000 0.000000 0.000000
# 2 -0.007290 0.011412 -0.004763 0.000000 0.000000 0.000000
# 3 -0.010579 -0.004763 0.019267 0.000000 0.000000 0.000000
# 4 0.000000 0.000000 0.000000 0.031164 0.000000 0.000000
# 5 0.000000 0.000000 0.000000 0.000000 0.033289 0.000000
# 6 0.000000 0.000000 0.000000 0.000000 0.000000 0.030744
#
#
# Mechanical properties :
#
#
# Convention : Reuss Voigt Hill
#
# Bulk Modulus (GPa) = 74.34665 89.42669 81.88667
# Shear Modulus (GPa) = 24.55104 27.89865 26.22485
#
# Velocity S-wave (km/s) = 3.69083 3.93442 3.81457
# Velocity P-wave (km/s) = 7.70808 8.38203 8.05211
#
# Compressibility (1/GPa) = 0.01345051
#
# Stress axis : x y z
#
# Youngs Moduli (GPa) = 35.66959 87.62353 51.90350
#
# Poissons Ratio (x) = 0.63879 0.54906
# Poissons Ratio (y) = 0.26004 0.24722
# Poissons Ratio (z) = 0.37733 0.41736
#
# Static dielectric constant tensor:
#      x y z
#    x 1.606050 0.000000 0.000000 
#    y 0.000000 1.613220 0.000000 
#    z 0.000000 0.000000 1.589340 
# 
# From -- ./inp_files/23713.got.cif
#   From: 2010.05.17/outbox.cif.g08.bks.cpg/sg42_12_cif.got.tgz:23713.got - 2010.06.03 19:03:34.
