data_PCOD9368466
_publ_section_title
;
Structure prediction by ZEFSAII (Michael W. Deem and Ramdas Pophale) SiO2 
 PCOD9368466
Probable space group: F M M 2
;
_chemical_formula_sum "Si O2"
_cell_formula_units_Z 96
_cell_length_a 23.494238
_cell_length_b 23.520258
_cell_length_c 8.383744
_cell_angle_alpha 90.000000
_cell_angle_beta 90.000000
_cell_angle_gamma 90.000000
_cell_volume 4632.777618
_symmetry_space_group_name_H-M "F M M 2"
_symmetry_group_IT_number 42
_symmetry_cell_setting 'orthorhombic'
loop_
_space_group_symop_operation_xyz
x,y,z
-x,-y,z
-x,y,z
x,-y,z
x,1/2+y,1/2+z
-x,1/2-y,1/2+z
-x,1/2+y,1/2+z
x,1/2-y,1/2+z
1/2+x,y,1/2+z
1/2-x,-y,1/2+z
1/2-x,y,1/2+z
1/2+x,-y,1/2+z
1/2+x,1/2+y,z
1/2-x,1/2-y,z
1/2-x,1/2+y,z
1/2+x,1/2-y,z
loop_
_atom_site_type_symbol
_atom_site_label
_atom_site_fract_x
_atom_site_fract_y
_atom_site_fract_z
Si Si1 0.931476 0.731576 0.261460
Si Si2 0.722753 0.431842 0.477607
Si Si3 0.931561 0.334319 0.947002
Si Si4 0.165775 0.069267 0.146469
Si Si5 0.566908 0.123147 0.460913
Si Si6 0.389393 0.567043 0.635914
O O1 0.911066 0.794815 0.302082
O O2 0.921909 0.688418 0.409241
O O3 0.000000 0.734414 0.241873
O O4 0.910300 0.700089 0.104105
O O5 0.726911 0.500000 0.463132
O O6 0.786082 0.412847 0.517861
O O7 0.693086 0.412602 0.314881
O O8 0.678280 0.421122 0.621580
O O9 0.000000 0.332761 0.942035
O O10 0.915351 0.398494 0.987042
O O11 0.159787 0.000000 0.145610
O O12 0.106938 0.097823 0.096783
O O13 0.500000 0.117872 0.498082
O O14 0.582095 0.088239 0.298862
O O15 0.397680 0.500000 0.619150
#
# Coordination Sequence:
#
# PCOD9368466 Si02
#       6
#    16  16  16  16  16  16
#     4   8  16  30  46  68  97 134 179 215 252 307
#     4   9  19  34  52  75 101 136 181 222 262 313
#     4   9  17  30  49  71  99 137 178 219 258 305
#     4  10  19  33  53  75 103 139 181 225 266 314
#     4  10  20  33  51  76 108 144 177 215 266 321
#     4  10  19  32  51  77 108 138 172 216 268 322
#
# _framework density 20.721907999999999
#
# number of rings (size 3 to 8) (size 9 to 14) (size 15 to 20)
#    0.000    2.667    0.000    3.000    0.000    6.333 
#    0.000    3.333    0.000    7.000    0.000    7.000 
#    0.000    0.000    0.000    0.000    0.000    0.000 
#
# Total GULP energy -133844.831558 kJ/mol
# GULP energy per Si atom -5576.867982 kJ/mol
# Density = 2.067474 g / cm^3
# Si number density = 20.721908 Si / 1000 Ang^3
#
#
#
# Elastic Constant Matrix: (Units=GPa)
#
#
# Indices 1 2 3 4 5 6 
#
# 1 92.9216 24.5970 29.7825 -0.0015 0.0012 -0.0005
# 2 24.5970 91.6321 12.3782 -0.0017 0.0013 -0.0006
# 3 29.7825 12.3782 65.8073 -0.0058 0.0051 -0.0051
# 4 -0.0015 -0.0017 -0.0058 26.1141 0.0019 -0.0013
# 5 0.0012 0.0013 0.0051 0.0019 26.4555 0.0020
# 6 -0.0005 -0.0006 -0.0051 -0.0013 0.0020 -13.1294
#
#
#
# Elastic Compliance Matrix: (Units=1/GPa)
#
#
# Indices 1 2 3 4 5 6 
#
# 1 0.013262 -0.002821 -0.005471 -0.000001 0.000001 0.000002
# 2 -0.002821 0.011798 -0.000942 0.000000 0.000000 0.000000
# 3 -0.005471 -0.000942 0.017849 0.000004 -0.000003 -0.000007
# 4 -0.000001 0.000000 0.000004 0.038293 -0.000003 -0.000004
# 5 0.000001 0.000000 -0.000003 -0.000003 0.037799 0.000006
# 6 0.000002 0.000000 -0.000007 -0.000004 0.000006 -0.076165
#
#
# Mechanical properties :
#
#
# Convention : Reuss Voigt Hill
#
# Bulk Modulus (GPa) = 40.91713 42.65293 41.78503
# Shear Modulus (GPa) = 71.99049 20.12825 46.05937
#
# Velocity S-wave (km/s) = 5.90056 3.12003 4.71971
# Velocity P-wave (km/s) = 8.13701 5.79721 7.06465
#
# Compressibility (1/GPa) = 0.02443964
#
# Stress axis : x y z
#
# Youngs Moduli (GPa) = 75.40258 84.76207 56.02430
#
# Poissons Ratio (x) = 0.23910 0.30654
# Poissons Ratio (y) = 0.21270 0.05280
# Poissons Ratio (z) = 0.41256 0.07989
#
# Static dielectric constant tensor:
#      x y z
#    x 1.741250 0.000000 0.000000 
#    y 0.000000 1.744450 0.000000 
#    z 0.000000 0.000000 1.836840 
# 
# From -- ./inp_files/4719.got.cif
#   From: 2010.05.17/outbox.cif.g08.bks.cpg/sg42_3_cif.got.tgz:4719.got - 2010.06.03 19:03:34.
