data_PCOD9368528
_publ_section_title
;
Structure prediction by ZEFSAII (Michael W. Deem and Ramdas Pophale) SiO2 
 PCOD9368528
Probable space group: F M M 2
;
_chemical_formula_sum "Si O2"
_cell_formula_units_Z 80
_cell_length_a 18.724176
_cell_length_b 35.758542
_cell_length_c 5.376214
_cell_angle_alpha 90.000000
_cell_angle_beta 90.000000
_cell_angle_gamma 90.000000
_cell_volume 3599.639965
_symmetry_space_group_name_H-M "F M M 2"
_symmetry_group_IT_number 42
_symmetry_cell_setting 'orthorhombic'
loop_
_space_group_symop_operation_xyz
x,y,z
-x,-y,z
-x,y,z
x,-y,z
x,1/2+y,1/2+z
-x,1/2-y,1/2+z
-x,1/2+y,1/2+z
x,1/2-y,1/2+z
1/2+x,y,1/2+z
1/2-x,-y,1/2+z
1/2-x,y,1/2+z
1/2+x,-y,1/2+z
1/2+x,1/2+y,z
1/2-x,1/2-y,z
1/2-x,1/2+y,z
1/2+x,1/2-y,z
loop_
_atom_site_type_symbol
_atom_site_label
_atom_site_fract_x
_atom_site_fract_y
_atom_site_fract_z
Si Si1 0.421764 0.544424 0.497580
Si Si2 0.340034 0.148038 0.151233
Si Si3 0.183834 0.880785 0.150127
Si Si4 0.664214 0.543107 0.991855
Si Si5 0.414925 0.226611 0.076194
O O1 0.500000 0.562101 0.525113
O O2 0.429438 0.500000 0.537592
O O3 0.368563 0.552935 0.724889
O O4 0.393719 0.546400 0.214539
O O5 0.253797 0.145103 0.174818
O O6 0.363869 0.133287 0.420777
O O7 0.370054 0.188805 0.100015
O O8 0.356903 0.122597 0.910698
O O9 0.212504 0.921999 0.075511
O O10 0.692049 0.500000 0.992306
O O11 0.500000 0.218154 0.080915
O O12 0.399629 0.252497 0.316313
#
# Coordination Sequence:
#
# PCOD9368528 Si02
#       5
#    16  16  16  16  16
#     4   9  17  30  49  74 105 142 190 252 309 348
#     4  10  21  40  60  83 120 156 185 232 289 343
#     4  10  21  38  56  81 120 160 198 241 287 339
#     4  10  19  33  54  78 110 154 208 261 298 334
#     4  10  21  40  67  95 120 147 185 233 282 344
#
# _framework density 22.224443999999998
#
# number of rings (size 3 to 8) (size 9 to 14) (size 15 to 20)
#    0.000    2.200    0.000    3.000    0.000    2.400 
#    0.000   22.000    0.000    0.000    0.000    0.000 
#    0.000    4.000    0.000    0.000    0.000    0.000 
#
# Total GULP energy -111492.639272 kJ/mol
# GULP energy per Si atom -5574.631964 kJ/mol
# Density = 2.217386 g / cm^3
# Si number density = 22.224444 Si / 1000 Ang^3
#
#
#
# Elastic Constant Matrix: (Units=GPa)
#
#
# Indices 1 2 3 4 5 6 
#
# 1 49.3885 31.6226 22.8039 -0.0070 0.0274 -0.0025
# 2 31.6226 118.6694 31.5470 -0.0210 -0.0220 0.0003
# 3 22.8039 31.5470 190.5200 -0.0295 0.0129 -0.0018
# 4 -0.0070 -0.0210 -0.0295 35.2199 -0.0001 -0.0006
# 5 0.0274 -0.0220 0.0129 -0.0001 -10.7147 0.0136
# 6 -0.0025 0.0003 -0.0018 -0.0006 0.0136 13.4711
#
#
#
# Elastic Compliance Matrix: (Units=1/GPa)
#
#
# Indices 1 2 3 4 5 6 
#
# 1 0.025111 -0.006164 -0.001985 0.000000 0.000074 0.000005
# 2 -0.006164 0.010328 -0.000972 0.000004 -0.000038 -0.000001
# 3 -0.001985 -0.000972 0.005647 0.000004 0.000004 0.000000
# 4 0.000000 0.000004 0.000004 0.028393 0.000000 0.000001
# 5 0.000074 -0.000038 0.000004 0.000000 -0.093329 0.000094
# 6 0.000005 -0.000001 0.000000 0.000001 0.000094 0.074233
#
#
# Mechanical properties :
#
#
# Convention : Reuss Voigt Hill
#
# Bulk Modulus (GPa) = 43.77572 58.94724 51.36148
# Shear Modulus (GPa) = 65.58319 25.76888 45.67603
#
# Velocity S-wave (km/s) = 5.43816 3.40881 4.53837
# Velocity P-wave (km/s) = 7.69229 6.48649 7.11498
#
# Compressibility (1/GPa) = 0.02284371
#
# Stress axis : x y z
#
# Youngs Moduli (GPa) = 39.82377 96.82663 177.07309
#
# Poissons Ratio (x) = 0.59681 0.35148
# Poissons Ratio (y) = 0.24546 0.17218
# Poissons Ratio (z) = 0.07905 0.09415
#
# Static dielectric constant tensor:
#      x y z
#    x 1.857040 0.000000 0.000010 
#    y 0.000000 1.856620 0.000010 
#    z 0.000010 0.000010 1.908740 
# 
# From -- ./inp_files/1001.got.cif
#   From: 2010.05.17/outbox.cif.g08.bks.cpg/sg42_1_cif.got.tgz:1001.got - 2010.06.03 19:03:34.
