data_PCOD9368214
_publ_section_title
;
Structure prediction by ZEFSAII (Michael W. Deem and Ramdas Pophale) SiO2 
 PCOD9368214
Probable space group: F M M 2
;
_chemical_formula_sum "Si O2"
_cell_formula_units_Z 80
_cell_length_a 27.128064
_cell_length_b 8.944383
_cell_length_c 18.867531
_cell_angle_alpha 90.000000
_cell_angle_beta 90.000000
_cell_angle_gamma 90.000000
_cell_volume 4578.089314
_symmetry_space_group_name_H-M "F M M 2"
_symmetry_group_IT_number 42
_symmetry_cell_setting 'orthorhombic'
loop_
_space_group_symop_operation_xyz
x,y,z
-x,-y,z
-x,y,z
x,-y,z
x,1/2+y,1/2+z
-x,1/2-y,1/2+z
-x,1/2+y,1/2+z
x,1/2-y,1/2+z
1/2+x,y,1/2+z
1/2-x,-y,1/2+z
1/2-x,y,1/2+z
1/2+x,-y,1/2+z
1/2+x,1/2+y,z
1/2-x,1/2-y,z
1/2-x,1/2+y,z
1/2+x,1/2-y,z
loop_
_atom_site_type_symbol
_atom_site_label
_atom_site_fract_x
_atom_site_fract_y
_atom_site_fract_z
Si Si1 0.096171 0.319955 0.093370
Si Si2 0.799405 0.171426 0.927194
Si Si3 0.406552 0.817747 0.437450
Si Si4 0.000000 0.318180 0.344049
Si Si5 0.500000 0.318148 0.682563
Si Si6 0.300849 0.326601 0.099977
O O1 0.098475 0.500000 0.089700
O O2 0.148823 0.257670 0.120148
O O3 0.049824 0.274308 0.141698
O O4 0.087722 0.252844 0.015038
O O5 0.750000 0.250000 0.901925
O O6 0.853290 0.231002 0.907035
O O7 0.796717 0.000000 0.905372
O O8 0.799651 0.177320 0.013477
O O9 0.451372 0.774199 0.387158
O O10 0.405397 0.000000 0.444519
O O11 0.000000 0.264868 0.263416
O O12 0.000000 0.500000 0.342276
O O13 0.500000 0.500000 0.683464
O O14 0.302578 0.500000 0.120898
O O15 0.250000 0.250000 0.124288
#
# Coordination Sequence:
#
# PCOD9368214 Si02
#       6
#    16  16  16   8   8  16
#     4  10  18  29  47  71  99 127 157 196 239 284
#     4   8  14  23  37  62  90 113 140 176 220 267
#     4   9  17  29  48  71  91 117 157 199 236 278
#     4   9  17  32  51  67  88 121 162 204 242 283
#     4   9  19  32  47  69  94 125 164 202 242 285
#     4   9  16  27  44  69  98 125 156 192 234 282
#
# _framework density 17.474539
#
# number of rings (size 3 to 8) (size 9 to 14) (size 15 to 20)
#    0.000    3.000    0.000    3.000    0.000    4.800 
#    0.000    1.500    0.000    6.000    0.000    2.800 
#    0.000    0.000    0.000    0.000    0.000    0.000 
#
# Total GULP energy -111383.471501 kJ/mol
# GULP energy per Si atom -5569.173575 kJ/mol
# Density = 1.743477 g / cm^3
# Si number density = 17.474539 Si / 1000 Ang^3
#
#
#
# Elastic Constant Matrix: (Units=GPa)
#
#
# Indices 1 2 3 4 5 6 
#
# 1 227.7218 56.9097 77.7237 0.0000 0.0000 0.0000
# 2 56.9097 48.4217 23.5585 0.0000 0.0000 0.0000
# 3 77.7237 23.5585 58.8063 0.0000 0.0000 0.0000
# 4 0.0000 0.0000 0.0000 8.8436 0.0000 0.0000
# 5 0.0000 0.0000 0.0000 0.0000 -3.1504 0.0000
# 6 0.0000 0.0000 0.0000 0.0000 0.0000 26.9948
#
#
#
# Elastic Compliance Matrix: (Units=1/GPa)
#
#
# Indices 1 2 3 4 5 6 
#
# 1 0.009263 -0.006124 -0.009790 0.000000 0.000000 0.000000
# 2 -0.006124 0.029700 -0.003804 0.000000 0.000000 0.000000
# 3 -0.009790 -0.003804 0.031468 0.000000 0.000000 0.000000
# 4 0.000000 0.000000 0.000000 0.113076 0.000000 0.000000
# 5 0.000000 0.000000 0.000000 0.000000 -0.317417 0.000000
# 6 0.000000 0.000000 0.000000 0.000000 0.000000 0.037044
#
#
# Mechanical properties :
#
#
# Convention : Reuss Voigt Hill
#
# Bulk Modulus (GPa) = 32.26288 72.37042 52.31665
# Shear Modulus (GPa) = -106.15817 18.32147 -43.91835
#
# Velocity S-wave (km/s) = -7.80270 3.24152 -5.01870
# Velocity P-wave (km/s) = 7.91664 7.45081 1.89191
#
# Compressibility (1/GPa) = 0.03099537
#
# Stress axis : x y z
#
# Youngs Moduli (GPa) = 107.95658 33.66987 31.77850
#
# Poissons Ratio (x) = 0.20619 0.31110
# Poissons Ratio (y) = 0.66111 0.12090
# Poissons Ratio (z) = 1.05684 0.12809
#
# Static dielectric constant tensor:
#      x y z
#    x 1.621710 0.000000 0.000000 
#    y 0.000000 1.594050 0.000000 
#    z 0.000000 0.000000 1.562960 
# 
# From -- ./inp_files/18238.got.cif
#   From: 2010.05.17/outbox.cif.g08.bks.cpg/sg42_10_cif.got.tgz:18238.got - 2010.06.03 19:03:34.
