data_PCOD9368896
_publ_section_title
;
Structure prediction by ZEFSAII (Michael W. Deem and Ramdas Pophale) SiO2 
 PCOD9368896
Probable space group: F M M 2
;
_chemical_formula_sum "Si O2"
_cell_formula_units_Z 96
_cell_length_a 16.876147
_cell_length_b 11.420387
_cell_length_c 26.049922
_cell_angle_alpha 90.000000
_cell_angle_beta 90.000000
_cell_angle_gamma 90.000000
_cell_volume 5020.656948
_symmetry_space_group_name_H-M "F M M 2"
_symmetry_group_IT_number 42
_symmetry_cell_setting 'orthorhombic'
loop_
_space_group_symop_operation_xyz
x,y,z
-x,-y,z
-x,y,z
x,-y,z
x,1/2+y,1/2+z
-x,1/2-y,1/2+z
-x,1/2+y,1/2+z
x,1/2-y,1/2+z
1/2+x,y,1/2+z
1/2-x,-y,1/2+z
1/2-x,y,1/2+z
1/2+x,-y,1/2+z
1/2+x,1/2+y,z
1/2-x,1/2-y,z
1/2-x,1/2+y,z
1/2+x,1/2-y,z
loop_
_atom_site_type_symbol
_atom_site_label
_atom_site_fract_x
_atom_site_fract_y
_atom_site_fract_z
Si Si1 0.595296 0.000000 0.891120
Si Si2 0.407284 0.636363 0.680442
Si Si3 0.403243 0.772704 0.074497
Si Si4 0.096242 0.500000 0.010212
Si Si5 0.156453 0.751096 0.383168
Si Si6 0.404835 0.627807 0.981699
Si Si7 0.808453 0.863870 0.784449
O O1 0.628542 0.119434 0.867520
O O2 0.500000 0.000000 0.888933
O O3 0.621634 0.000000 0.951093
O O4 0.500000 0.662583 0.689532
O O5 0.403275 0.500000 0.663239
O O6 0.376736 0.714895 0.633138
O O7 0.359958 0.646466 0.733021
O O8 0.500000 0.772793 0.076830
O O9 0.379179 0.886248 0.041730
O O10 0.377204 0.666773 0.038188
O O11 0.000000 0.500000 0.008945
O O12 0.250000 0.750000 0.393435
O O13 0.115283 0.715678 0.436075
O O14 0.142518 0.660307 0.336794
O O15 0.500000 0.623934 0.984349
O O16 0.373077 0.500000 0.968353
O O17 0.750000 0.750000 0.783600
O O18 0.777898 0.000000 0.786117
#
# Coordination Sequence:
#
# PCOD9368896 Si02
#       7
#     8  16  16   8  16  16  16
#     4  11  22  38  62  93 119 157 207 255 299 363
#     4   9  17  32  58  88 110 138 191 250 292 339
#     4   9  15  28  52  82 112 143 182 235 291 346
#     4   9  14  26  52  83 108 137 179 229 284 339
#     4  11  24  37  60  82 119 153 198 244 306 357
#     4  10  20  34  54  81 116 155 192 232 289 358
#     4  10  23  41  62  81 114 158 201 241 299 364
#
# _framework density 19.121003999999999
#
# number of rings (size 3 to 8) (size 9 to 14) (size 15 to 20)
#    0.000    2.167    2.500    1.000    5.833    1.333 
#    0.000    3.333    0.000    3.000    0.000    0.000 
#    0.000    0.000    0.000    0.000    0.000    0.000 
#
# Total GULP energy -133718.615990 kJ/mol
# GULP energy per Si atom -5571.609000 kJ/mol
# Density = 1.907748 g / cm^3
# Si number density = 19.121004 Si / 1000 Ang^3
#
#
#
# Elastic Constant Matrix: (Units=GPa)
#
#
# Indices 1 2 3 4 5 6 
#
# 1 25.7866 22.9026 14.6938 0.0000 0.0000 0.0000
# 2 22.9026 112.5810 30.2344 0.0000 0.0000 0.0000
# 3 14.6938 30.2344 113.3793 0.0000 0.0000 0.0000
# 4 0.0000 0.0000 0.0000 29.2574 0.0000 0.0000
# 5 0.0000 0.0000 0.0000 0.0000 -114.1639 0.0000
# 6 0.0000 0.0000 0.0000 0.0000 0.0000 21.1835
#
#
#
# Elastic Compliance Matrix: (Units=1/GPa)
#
#
# Indices 1 2 3 4 5 6 
#
# 1 0.048938 -0.008889 -0.003972 0.000000 0.000000 0.000000
# 2 -0.008889 0.011182 -0.001830 0.000000 0.000000 0.000000
# 3 -0.003972 -0.001830 0.009823 0.000000 0.000000 0.000000
# 4 0.000000 0.000000 0.000000 0.034179 0.000000 0.000000
# 5 0.000000 0.000000 0.000000 0.000000 -0.008759 0.000000
# 6 0.000000 0.000000 0.000000 0.000000 0.000000 0.047206
#
#
# Mechanical properties :
#
#
# Convention : Reuss Voigt Hill
#
# Bulk Modulus (GPa) = 24.65406 43.04538 33.84972
# Shear Modulus (GPa) = 26.95841 -0.48352 13.23745
#
# Velocity S-wave (km/s) = 3.75892 -0.50341 2.63401
# Velocity P-wave (km/s) = 5.63569 4.71413 5.19538
#
# Compressibility (1/GPa) = 0.04056127
#
# Stress axis : x y z
#
# Youngs Moduli (GPa) = 20.43415 89.42780 101.80513
#
# Poissons Ratio (x) = 0.79491 0.40436
# Poissons Ratio (y) = 0.18164 0.18630
# Poissons Ratio (z) = 0.08116 0.16365
#
# Static dielectric constant tensor:
#      x y z
#    x 1.660580 0.000000 0.000000 
#    y 0.000000 1.698970 0.000000 
#    z 0.000000 0.000000 1.664600 
# 
# From -- ./inp_files/29863.got.cif
#   From: 2010.05.17/outbox.cif.g08.bks.cpg/sg42_15_cif.got.tgz:29863.got - 2010.06.03 19:03:34.
