data_PCOD9368887
_publ_section_title
;
Structure prediction by ZEFSAII (Michael W. Deem and Ramdas Pophale) SiO2 
 PCOD9368887
Probable space group: F M M 2
;
_chemical_formula_sum "Si O2"
_cell_formula_units_Z 112
_cell_length_a 24.493600
_cell_length_b 14.720843
_cell_length_c 16.360890
_cell_angle_alpha 90.000000
_cell_angle_beta 90.000000
_cell_angle_gamma 90.000000
_cell_volume 5899.187864
_symmetry_space_group_name_H-M "F M M 2"
_symmetry_group_IT_number 42
_symmetry_cell_setting 'orthorhombic'
loop_
_space_group_symop_operation_xyz
x,y,z
-x,-y,z
-x,y,z
x,-y,z
x,1/2+y,1/2+z
-x,1/2-y,1/2+z
-x,1/2+y,1/2+z
x,1/2-y,1/2+z
1/2+x,y,1/2+z
1/2-x,-y,1/2+z
1/2-x,y,1/2+z
1/2+x,-y,1/2+z
1/2+x,1/2+y,z
1/2-x,1/2-y,z
1/2-x,1/2+y,z
1/2+x,1/2-y,z
loop_
_atom_site_type_symbol
_atom_site_label
_atom_site_fract_x
_atom_site_fract_y
_atom_site_fract_z
Si Si1 0.438094 0.896816 0.258930
Si Si2 0.436357 0.891050 0.580269
Si Si3 0.874986 0.108781 0.921860
Si Si4 0.718909 0.106156 0.148316
Si Si5 0.624989 0.252553 0.191802
Si Si6 0.209750 0.664923 0.799248
Si Si7 0.243839 0.107949 0.966115
O O1 0.500000 0.895148 0.289954
O O2 0.395473 0.876788 0.330857
O O3 0.426979 0.813854 0.199351
O O4 0.428580 0.000000 0.228045
O O5 0.500000 0.872273 0.597669
O O6 0.420745 0.865859 0.487270
O O7 0.393750 0.833191 0.632834
O O8 0.428252 0.000000 0.591075
O O9 0.815501 0.148039 0.941901
O O10 0.870221 0.000000 0.928263
O O11 0.672338 0.180914 0.166307
O O12 0.763532 0.110668 0.221932
O O13 0.700169 0.000000 0.145170
O O14 0.741040 0.133700 0.058584
O O15 0.650138 0.302933 0.271232
O O16 0.250000 0.750000 0.803240
O O17 0.215311 0.624364 0.890082
O O18 0.238061 0.000000 0.970688
#
# Coordination Sequence:
#
# PCOD9368887 Si02
#       7
#    16  16  16  16  16  16  16
#     4  10  20  35  56  80 105 135 175 226 279 324
#     4  10  21  37  56  78 104 136 178 227 274 319
#     4   9  17  32  55  79 103 134 174 223 275 319
#     4  10  21  37  55  79 112 147 185 224 265 321
#     4  11  22  35  54  79 109 146 180 218 266 320
#     4  10  21  33  50  78 111 146 182 220 263 317
#     4  10  20  34  54  78 108 146 179 215 265 323
#
# _framework density 18.985665000000001
#
# number of rings (size 3 to 8) (size 9 to 14) (size 15 to 20)
#    0.000    2.000    0.000    4.286    0.000    9.143 
#    0.000    0.000    0.000    0.000    0.000    0.000 
#    0.000    9.143    0.000    0.000    0.000    0.000 
#
# Total GULP energy -155922.816507 kJ/mol
# GULP energy per Si atom -5568.672018 kJ/mol
# Density = 1.894245 g / cm^3
# Si number density = 18.985665 Si / 1000 Ang^3
#
#
#
# Elastic Constant Matrix: (Units=GPa)
#
#
# Indices 1 2 3 4 5 6 
#
# 1 61.7746 24.4754 13.1115 0.0000 0.0000 0.0000
# 2 24.4754 60.4823 19.0452 0.0000 0.0000 0.0000
# 3 13.1115 19.0452 71.5236 0.0000 0.0000 0.0000
# 4 0.0000 0.0000 0.0000 -8.5603 0.0000 0.0000
# 5 0.0000 0.0000 0.0000 0.0000 26.1258 0.0000
# 6 0.0000 0.0000 0.0000 0.0000 0.0000 21.7505
#
#
#
# Elastic Compliance Matrix: (Units=1/GPa)
#
#
# Indices 1 2 3 4 5 6 
#
# 1 0.019446 -0.007364 -0.001604 0.000000 0.000000 0.000000
# 2 -0.007364 0.020836 -0.004198 0.000000 0.000000 0.000000
# 3 -0.001604 -0.004198 0.015393 0.000000 0.000000 0.000000
# 4 0.000000 0.000000 0.000000 -0.116819 0.000000 0.000000
# 5 0.000000 0.000000 0.000000 0.000000 0.038276 0.000000
# 6 0.000000 0.000000 0.000000 0.000000 0.000000 0.045976
#
#
# Mechanical properties :
#
#
# Convention : Reuss Voigt Hill
#
# Bulk Modulus (GPa) = 34.07999 34.11605 34.09802
# Shear Modulus (GPa) = 84.42792 17.00643 50.71717
#
# Velocity S-wave (km/s) = 6.67576 2.99616 5.17411
# Velocity P-wave (km/s) = 8.79832 5.47519 7.32762
#
# Compressibility (1/GPa) = 0.02934273
#
# Stress axis : x y z
#
# Youngs Moduli (GPa) = 51.42443 47.99438 64.96346
#
# Poissons Ratio (x) = 0.35344 0.10419
# Poissons Ratio (y) = 0.37870 0.27272
# Poissons Ratio (z) = 0.08248 0.20149
#
# Static dielectric constant tensor:
#      x y z
#    x 1.676750 0.000000 0.000000 
#    y 0.000000 1.687110 0.000000 
#    z 0.000000 0.000000 1.721960 
# 
# From -- ./inp_files/14236.got.cif
#   From: 2010.05.17/outbox.cif.g08.bks.cpg/sg42_8_cif.got.tgz:14236.got - 2010.06.03 19:03:34.
