data_PCOD9368681
_publ_section_title
;
Structure prediction by ZEFSAII (Michael W. Deem and Ramdas Pophale) SiO2 
 PCOD9368681
Probable space group: F M M 2
;
_chemical_formula_sum "Si O2"
_cell_formula_units_Z 96
_cell_length_a 22.605294
_cell_length_b 14.042250
_cell_length_c 14.259298
_cell_angle_alpha 90.000000
_cell_angle_beta 90.000000
_cell_angle_gamma 90.000000
_cell_volume 4526.317409
_symmetry_space_group_name_H-M "F M M 2"
_symmetry_group_IT_number 42
_symmetry_cell_setting 'orthorhombic'
loop_
_space_group_symop_operation_xyz
x,y,z
-x,-y,z
-x,y,z
x,-y,z
x,1/2+y,1/2+z
-x,1/2-y,1/2+z
-x,1/2+y,1/2+z
x,1/2-y,1/2+z
1/2+x,y,1/2+z
1/2-x,-y,1/2+z
1/2-x,y,1/2+z
1/2+x,-y,1/2+z
1/2+x,1/2+y,z
1/2-x,1/2-y,z
1/2-x,1/2+y,z
1/2+x,1/2-y,z
loop_
_atom_site_type_symbol
_atom_site_label
_atom_site_fract_x
_atom_site_fract_y
_atom_site_fract_z
Si Si1 0.000000 0.383334 0.307900
Si Si2 0.000000 0.115287 0.025447
Si Si3 0.182113 0.756546 0.717101
Si Si4 0.873959 0.886529 0.095773
Si Si5 0.067452 0.111332 0.444830
Si Si6 0.821686 0.261575 0.431141
Si Si7 0.906524 0.891224 0.657259
O O1 0.055433 0.352822 0.244534
O O2 0.000000 0.500000 0.306921
O O3 0.000000 0.353839 0.416269
O O4 0.058334 0.144850 0.079980
O O5 0.000000 0.000000 0.022314
O O6 0.250000 0.750000 0.695124
O O7 0.151171 0.657189 0.691442
O O8 0.175697 0.792424 0.822634
O O9 0.152163 0.831100 0.648480
O O10 0.869865 0.000000 0.094028
O O11 0.841377 0.839756 0.006737
O O12 0.126470 0.177605 0.429774
O O13 0.061975 0.112033 0.557899
O O14 0.000000 0.136808 0.408704
O O15 0.078493 0.000000 0.417007
O O16 0.750000 0.250000 0.447499
O O17 0.892475 0.000000 0.678622
#
# Coordination Sequence:
#
# PCOD9368681 Si02
#       7
#     8   8  16  16  16  16  16
#     4   9  16  31  58  95 124 150 199 262 322 387
#     4   9  20  37  58  87 130 168 207 260 326 399
#     4  11  25  43  62  92 129 170 222 274 331 402
#     4  11  24  43  65  94 132 176 219 272 339 406
#     4  10  21  40  66  98 133 171 220 283 344 399
#     4  11  25  44  66  96 133 175 228 281 336 407
#     4  10  19  35  62  92 121 157 209 271 330 389
#
# _framework density 21.209295999999998
#
# number of rings (size 3 to 8) (size 9 to 14) (size 15 to 20)
#    0.000    1.667    2.500    1.500    1.167    4.667 
#    3.000    3.333    0.000    0.000    0.000    0.000 
#    0.000    0.000    0.000    0.000    0.000    0.000 
#
# Total GULP energy -133732.432837 kJ/mol
# GULP energy per Si atom -5572.184702 kJ/mol
# Density = 2.116102 g / cm^3
# Si number density = 21.209296 Si / 1000 Ang^3
#
#
#
# Elastic Constant Matrix: (Units=GPa)
#
#
# Indices 1 2 3 4 5 6 
#
# 1 125.2523 13.2826 -2.8606 0.0000 0.0000 0.0000
# 2 13.2826 56.2351 -15.7104 0.0000 0.0000 0.0000
# 3 -2.8606 -15.7104 42.1248 0.0000 0.0000 0.0000
# 4 0.0000 0.0000 0.0000 15.8741 0.0000 0.0000
# 5 0.0000 0.0000 0.0000 0.0000 428.3626 0.0000
# 6 0.0000 0.0000 0.0000 0.0000 0.0000 44.1771
#
#
#
# Elastic Compliance Matrix: (Units=1/GPa)
#
#
# Indices 1 2 3 4 5 6 
#
# 1 0.008190 -0.001986 -0.000185 0.000000 0.000000 0.000000
# 2 -0.001986 0.020332 0.007448 0.000000 0.000000 0.000000
# 3 -0.000185 0.007448 0.026504 0.000000 0.000000 0.000000
# 4 0.000000 0.000000 0.000000 0.062996 0.000000 0.000000
# 5 0.000000 0.000000 0.000000 0.000000 0.002334 0.000000
# 6 0.000000 0.000000 0.000000 0.000000 0.000000 0.022636
#
#
# Mechanical properties :
#
#
# Convention : Reuss Voigt Hill
#
# Bulk Modulus (GPa) = 15.24816 23.67062 19.45939
# Shear Modulus (GPa) = 32.40465 112.94282 72.67373
#
# Velocity S-wave (km/s) = 3.91301 7.30528 5.85999
# Velocity P-wave (km/s) = 5.25553 9.07419 7.41490
#
# Compressibility (1/GPa) = 0.06558169
#
# Stress axis : x y z
#
# Youngs Moduli (GPa) = 122.09589 49.18275 37.72990
#
# Poissons Ratio (x) = 0.09768 0.00696
# Poissons Ratio (y) = 0.24249 -0.28101
# Poissons Ratio (z) = 0.02253 -0.36632
#
# Static dielectric constant tensor:
#      x y z
#    x 1.806940 0.000000 0.000000 
#    y 0.000000 1.793250 0.000000 
#    z 0.000000 0.000000 1.747510 
# 
# From -- ./inp_files/15861.got.cif
#   From: 2010.05.17/outbox.cif.g08.bks.cpg/sg42_8_cif.got.tgz:15861.got - 2010.06.03 19:03:34.
