data_PCOD9368164
_publ_section_title
;
Structure prediction by ZEFSAII (Michael W. Deem and Ramdas Pophale) SiO2 
 PCOD9368164
Probable space group: F M M 2
;
_chemical_formula_sum "Si O2"
_cell_formula_units_Z 128
_cell_length_a 22.933645
_cell_length_b 22.848801
_cell_length_c 13.126920
_cell_angle_alpha 90.000000
_cell_angle_beta 90.000000
_cell_angle_gamma 90.000000
_cell_volume 6878.588659
_symmetry_space_group_name_H-M "F M M 2"
_symmetry_group_IT_number 42
_symmetry_cell_setting 'orthorhombic'
loop_
_space_group_symop_operation_xyz
x,y,z
-x,-y,z
-x,y,z
x,-y,z
x,1/2+y,1/2+z
-x,1/2-y,1/2+z
-x,1/2+y,1/2+z
x,1/2-y,1/2+z
1/2+x,y,1/2+z
1/2-x,-y,1/2+z
1/2-x,y,1/2+z
1/2+x,-y,1/2+z
1/2+x,1/2+y,z
1/2-x,1/2-y,z
1/2-x,1/2+y,z
1/2+x,1/2-y,z
loop_
_atom_site_type_symbol
_atom_site_label
_atom_site_fract_x
_atom_site_fract_y
_atom_site_fract_z
Si Si1 0.382433 0.778368 0.741060
Si Si2 0.431863 0.069532 0.627950
Si Si3 0.267281 0.816486 0.627765
Si Si4 0.152459 0.643314 0.240615
Si Si5 0.930039 0.380918 0.849017
Si Si6 0.647637 0.640661 0.971336
Si Si7 0.435468 0.239692 0.533193
Si Si8 0.567991 0.379656 0.567859
O O1 0.322148 0.807276 0.703018
O O2 0.371222 0.709931 0.752940
O O3 0.405971 0.815341 0.834389
O O4 0.428569 0.784383 0.648941
O O5 0.500000 0.086383 0.614694
O O6 0.414116 0.086647 0.743952
O O7 0.392206 0.099596 0.542405
O O8 0.427914 0.000000 0.618449
O O9 0.250000 0.750000 0.598584
O O10 0.214449 0.848228 0.684701
O O11 0.291297 0.849727 0.529097
O O12 0.154887 0.620041 0.355639
O O13 0.108993 0.609663 0.164398
O O14 0.000000 0.378816 0.853422
O O15 0.912109 0.406121 0.959055
O O16 0.614525 0.703831 0.975614
O O17 0.500000 0.227603 0.491792
O O18 0.428811 0.309287 0.547379
O O19 0.500000 0.394012 0.587578
#
# Coordination Sequence:
#
# PCOD9368164 Si02
#       8
#    16  16  16  16  16  16  16  16
#     4   9  16  28  47  72 106 144 178 214 256 320
#     4  10  21  37  59  85 106 133 184 239 276 308
#     4   9  19  32  46  73 106 143 185 221 258 318
#     4  10  21  32  46  75 110 144 175 211 262 329
#     4  10  17  30  52  74 103 140 176 220 268 309
#     4  11  20  33  53  75 105 144 181 220 276 321
#     4   9  15  26  44  72 106 138 176 214 257 320
#     4   9  19  30  44  73 109 145 175 206 258 329
#
# _framework density 18.608467999999998
#
# number of rings (size 3 to 8) (size 9 to 14) (size 15 to 20)
#    0.000    2.375    2.500    2.250    0.000    4.000 
#    0.000    0.000    0.000    1.500    0.000    1.750 
#    0.000    0.000    0.000    0.000    0.000    0.000 
#
# Total GULP energy -178317.943588 kJ/mol
# GULP energy per Si atom -5572.435737 kJ/mol
# Density = 1.856611 g / cm^3
# Si number density = 18.608468 Si / 1000 Ang^3
#
#
#
# Elastic Constant Matrix: (Units=GPa)
#
#
# Indices 1 2 3 4 5 6 
#
# 1 63.6600 13.1533 61.7296 0.0000 0.0000 0.0000
# 2 13.1533 27.0777 14.7121 0.0000 0.0000 0.0000
# 3 61.7296 14.7121 172.6365 0.0000 0.0000 0.0000
# 4 0.0000 0.0000 0.0000 9.8559 0.0000 0.0000
# 5 0.0000 0.0000 0.0000 0.0000 16.2036 0.0000
# 6 0.0000 0.0000 0.0000 0.0000 0.0000 11.1316
#
#
#
# Elastic Compliance Matrix: (Units=1/GPa)
#
#
# Indices 1 2 3 4 5 6 
#
# 1 0.025526 -0.007802 -0.008463 0.000000 0.000000 0.000000
# 2 -0.007802 0.041108 -0.000714 0.000000 0.000000 0.000000
# 3 -0.008463 -0.000714 0.008879 0.000000 0.000000 0.000000
# 4 0.000000 0.000000 0.000000 0.101462 0.000000 0.000000
# 5 0.000000 0.000000 0.000000 0.000000 0.061715 0.000000
# 6 0.000000 0.000000 0.000000 0.000000 0.000000 0.089834
#
#
# Mechanical properties :
#
#
# Convention : Reuss Voigt Hill
#
# Bulk Modulus (GPa) = 24.06272 49.17379 36.61825
# Shear Modulus (GPa) = 13.28609 19.02352 16.15481
#
# Velocity S-wave (km/s) = 2.67494 3.20082 2.94962
# Velocity P-wave (km/s) = 4.74337 6.33586 5.59655
#
# Compressibility (1/GPa) = 0.04155807
#
# Stress axis : x y z
#
# Youngs Moduli (GPa) = 39.17507 24.32601 112.62155
#
# Poissons Ratio (x) = 0.18979 0.95307
# Poissons Ratio (y) = 0.30564 0.08036
# Poissons Ratio (z) = 0.33152 0.01736
#
# Static dielectric constant tensor:
#      x y z
#    x 1.643250 0.000000 0.000000 
#    y 0.000000 1.643220 0.000000 
#    z 0.000000 0.000000 1.697490 
# 
# From -- ./inp_files/10406.got.cif
#   From: 2010.05.17/outbox.cif.g08.bks.cpg/sg42_6_cif.got.tgz:10406.got - 2010.06.03 19:03:34.
