data_PCOD9368287
_publ_section_title
;
Structure prediction by ZEFSAII (Michael W. Deem and Ramdas Pophale) SiO2 
 PCOD9368287
Probable space group: F M M 2
;
_chemical_formula_sum "Si O2"
_cell_formula_units_Z 116
_cell_length_a 31.109576
_cell_length_b 7.523855
_cell_length_c 26.023281
_cell_angle_alpha 90.000000
_cell_angle_beta 90.000000
_cell_angle_gamma 90.000000
_cell_volume 6091.111655
_symmetry_space_group_name_H-M "F M M 2"
_symmetry_group_IT_number 42
_symmetry_cell_setting 'orthorhombic'
loop_
_space_group_symop_operation_xyz
x,y,z
-x,-y,z
-x,y,z
x,-y,z
x,1/2+y,1/2+z
-x,1/2-y,1/2+z
-x,1/2+y,1/2+z
x,1/2-y,1/2+z
1/2+x,y,1/2+z
1/2-x,-y,1/2+z
1/2-x,y,1/2+z
1/2+x,-y,1/2+z
1/2+x,1/2+y,z
1/2-x,1/2-y,z
1/2-x,1/2+y,z
1/2+x,1/2-y,z
loop_
_atom_site_type_symbol
_atom_site_label
_atom_site_fract_x
_atom_site_fract_y
_atom_site_fract_z
Si Si1 0.065721 0.705547 0.812980
Si Si2 0.451893 0.716204 0.693717
Si Si3 0.164039 0.214804 0.338721
Si Si4 0.200029 0.787325 0.444707
Si Si5 0.000000 0.500000 0.348148
Si Si6 0.300066 0.285988 0.560143
Si Si7 0.864239 0.205948 0.646451
Si Si8 0.201717 0.211444 0.234441
O O1 0.058709 0.500000 0.827904
O O2 0.054588 0.724977 0.752599
O O3 0.115608 0.749640 0.821419
O O4 0.036960 0.843991 0.843358
O O5 0.500000 0.769252 0.676739
O O6 0.450827 0.500000 0.694575
O O7 0.411205 0.780925 0.660470
O O8 0.174369 0.282882 0.395579
O O9 0.194765 0.278120 0.292675
O O10 0.169056 0.000000 0.341029
O O11 0.250000 0.750000 0.434660
O O12 0.191007 0.719170 0.502245
O O13 0.193670 0.000000 0.447053
O O14 0.303429 0.500000 0.559898
O O15 0.250000 0.250000 0.573072
O O16 0.334508 0.216002 0.601246
O O17 0.834420 0.212276 0.697011
O O18 0.871900 0.000000 0.632967
O O19 0.250000 0.250000 0.216680
O O20 0.195351 0.000000 0.233956
#
# Coordination Sequence:
#
# PCOD9368287 Si02
#       8
#    16  16  16  16   4  16  16  16
#     4  11  20  34  54  77 109 143 179 221 272 327
#     4  10  18  32  50  74 103 135 176 223 269 318
#     4   9  19  33  50  73 102 136 174 214 262 321
#     4   9  17  33  52  73 101 133 177 226 264 311
#     4  12  22  36  52  82 108 144 182 224 272 318
#     4   9  18  32  51  73  99 135 176 220 267 315
#     4  10  20  32  49  73 103 137 172 213 265 316
#     4  11  21  32  45  68 101 138 171 204 254 316
#
# _framework density 19.044142999999998
#
# number of rings (size 3 to 8) (size 9 to 14) (size 15 to 20)
#    0.000    2.069    2.759    1.448    0.000    1.655 
#    2.483    0.000    0.000    0.000    1.793    0.000 
#    0.000    0.000    0.000    0.276    0.000    0.276 
#
# Total GULP energy -161541.518071 kJ/mol
# GULP energy per Si atom -5570.397175 kJ/mol
# Density = 1.900080 g / cm^3
# Si number density = 19.044143 Si / 1000 Ang^3
#
#
#
# Elastic Constant Matrix: (Units=GPa)
#
#
# Indices 1 2 3 4 5 6 
#
# 1 141.5894 7.3576 65.0422 0.0001 0.0000 0.0000
# 2 7.3576 67.6177 -1.5326 0.0002 0.0000 0.0002
# 3 65.0422 -1.5326 92.4636 -0.0001 0.0000 0.0001
# 4 0.0001 0.0002 -0.0001 9.0357 0.0000 0.0001
# 5 0.0000 0.0000 0.0000 0.0000 30.9201 0.0001
# 6 0.0000 0.0002 0.0001 0.0001 0.0001 17.4832
#
#
#
# Elastic Compliance Matrix: (Units=1/GPa)
#
#
# Indices 1 2 3 4 5 6 
#
# 1 0.010550 -0.001317 -0.007443 0.000000 0.000000 0.000000
# 2 -0.001317 0.014959 0.001174 0.000000 0.000000 0.000000
# 3 -0.007443 0.001174 0.016070 0.000000 0.000000 0.000000
# 4 0.000000 0.000000 0.000000 0.110672 0.000000 -0.000001
# 5 0.000000 0.000000 0.000000 0.000000 0.032341 0.000000
# 6 0.000000 0.000000 0.000000 -0.000001 0.000000 0.057198
#
#
# Mechanical properties :
#
#
# Convention : Reuss Voigt Hill
#
# Bulk Modulus (GPa) = 37.86737 49.26723 43.56730
# Shear Modulus (GPa) = 18.81358 26.87470 22.84414
#
# Velocity S-wave (km/s) = 3.14649 3.76064 3.46719
# Velocity P-wave (km/s) = 5.75566 6.69199 6.24141
#
# Compressibility (1/GPa) = 0.02640796
#
# Stress axis : x y z
#
# Youngs Moduli (GPa) = 94.78356 66.84980 62.22608
#
# Poissons Ratio (x) = 0.08802 0.46317
# Poissons Ratio (y) = 0.12480 -0.07306
# Poissons Ratio (z) = 0.70550 -0.07849
#
# Static dielectric constant tensor:
#      x y z
#    x 1.654440 0.000000 0.000000 
#    y 0.000000 1.729330 0.000000 
#    z 0.000000 0.000000 1.678270 
# 
# From -- ./inp_files/31950.got.cif
#   From: 2010.05.17/outbox.cif.g08.bks.cpg/sg42_16_cif.got.tgz:31950.got - 2010.06.03 19:03:34.
