data_PCOD9368190
_publ_section_title
;
Structure prediction by ZEFSAII (Michael W. Deem and Ramdas Pophale) SiO2 
 PCOD9368190
Probable space group: F M M 2
;
_chemical_formula_sum "Si O2"
_cell_formula_units_Z 88
_cell_length_a 18.328274
_cell_length_b 13.417589
_cell_length_c 19.268521
_cell_angle_alpha 90.000000
_cell_angle_beta 90.000000
_cell_angle_gamma 90.000000
_cell_volume 4738.538724
_symmetry_space_group_name_H-M "F M M 2"
_symmetry_group_IT_number 42
_symmetry_cell_setting 'orthorhombic'
loop_
_space_group_symop_operation_xyz
x,y,z
-x,-y,z
-x,y,z
x,-y,z
x,1/2+y,1/2+z
-x,1/2-y,1/2+z
-x,1/2+y,1/2+z
x,1/2-y,1/2+z
1/2+x,y,1/2+z
1/2-x,-y,1/2+z
1/2-x,y,1/2+z
1/2+x,-y,1/2+z
1/2+x,1/2+y,z
1/2-x,1/2-y,z
1/2-x,1/2+y,z
1/2+x,1/2-y,z
loop_
_atom_site_type_symbol
_atom_site_label
_atom_site_fract_x
_atom_site_fract_y
_atom_site_fract_z
Si Si1 0.086302 0.381706 0.570700
Si Si2 0.670910 0.500000 0.310548
Si Si3 0.679827 0.000000 0.375723
Si Si4 0.333915 0.720587 0.474652
Si Si5 0.085482 0.805824 0.851161
Si Si6 0.584395 0.666044 0.231913
Si Si7 0.684666 0.000000 0.967919
O O1 0.105623 0.500000 0.565980
O O2 0.131285 0.305023 0.523587
O O3 0.095049 0.344350 0.650010
O O4 0.000000 0.374866 0.553039
O O5 0.758228 0.500000 0.316389
O O6 0.639690 0.593376 0.269989
O O7 0.647600 0.500000 0.391334
O O8 0.629703 0.904537 0.368556
O O9 0.729513 0.000000 0.445307
O O10 0.250000 0.750000 0.460171
O O11 0.379431 0.725401 0.403274
O O12 0.333956 0.606252 0.501941
O O13 0.093449 0.770947 0.771399
O O14 0.000000 0.817718 0.865686
O O15 0.500000 0.634951 0.245508
#
# Coordination Sequence:
#
# PCOD9368190 Si02
#       7
#    16   8   8  16  16  16   8
#     4  10  23  43  65  90 125 168 218 266 312 374
#     4  10  17  35  62  89 118 156 193 260 321 355
#     4  10  21  37  56  92 128 164 202 259 322 372
#     4  12  23  41  59  93 127 162 211 260 319 381
#     4  11  22  38  64  91 121 164 212 260 314 377
#     4  10  20  38  63  92 121 157 208 260 309 370
#     4  10  22  38  62  89 130 164 197 259 329 371
#
# _framework density 18.571124999999999
#
# number of rings (size 3 to 8) (size 9 to 14) (size 15 to 20)
#    0.545    0.909    4.545    1.091    2.545    0.000 
#    3.273    2.727    0.000    2.182    0.000    0.000 
#    0.000    0.000    0.000    0.000    0.000    0.000 
#
# Total GULP energy -122631.796828 kJ/mol
# GULP energy per Si atom -5574.172583 kJ/mol
# Density = 1.852886 g / cm^3
# Si number density = 18.571125 Si / 1000 Ang^3
#
#
#
# Elastic Constant Matrix: (Units=GPa)
#
#
# Indices 1 2 3 4 5 6 
#
# 1 98.4992 54.4025 49.1958 0.0000 0.0000 0.0000
# 2 54.4025 149.0852 41.6156 0.0000 0.0000 0.0000
# 3 49.1958 41.6156 74.4029 0.0000 0.0000 0.0000
# 4 0.0000 0.0000 0.0000 27.1565 0.0000 0.0000
# 5 0.0000 0.0000 0.0000 0.0000 23.2399 0.0000
# 6 0.0000 0.0000 0.0000 0.0000 0.0000 39.5557
#
#
#
# Elastic Compliance Matrix: (Units=1/GPa)
#
#
# Indices 1 2 3 4 5 6 
#
# 1 0.016604 -0.003548 -0.008994 0.000000 0.000000 0.000000
# 2 -0.003548 0.008707 -0.002524 0.000000 0.000000 0.000000
# 3 -0.008994 -0.002524 0.020799 0.000000 0.000000 0.000000
# 4 0.000000 0.000000 0.000000 0.036824 0.000000 0.000000
# 5 0.000000 0.000000 0.000000 0.000000 0.043029 0.000000
# 6 0.000000 0.000000 0.000000 0.000000 0.000000 0.025281
#
#
# Mechanical properties :
#
#
# Convention : Reuss Voigt Hill
#
# Bulk Modulus (GPa) = 62.58818 68.04613 65.31716
# Shear Modulus (GPa) = 26.78051 29.77531 28.27791
#
# Velocity S-wave (km/s) = 3.80155 4.00848 3.90639
# Velocity P-wave (km/s) = 7.28314 7.62524 7.45615
#
# Compressibility (1/GPa) = 0.01597746
#
# Stress axis : x y z
#
# Youngs Moduli (GPa) = 60.22482 114.85117 48.07923
#
# Poissons Ratio (x) = 0.40754 0.43244
# Poissons Ratio (y) = 0.21371 0.12134
# Poissons Ratio (z) = 0.54168 0.28986
#
# Static dielectric constant tensor:
#      x y z
#    x 1.627340 0.000000 0.000000 
#    y 0.000000 1.675250 0.000000 
#    z 0.000000 0.000000 1.645340 
# 
# From -- ./inp_files/25810.got.cif
#   From: 2010.05.17/outbox.cif.g08.bks.cpg/sg42_13_cif.got.tgz:25810.got - 2010.06.03 19:03:34.
