data_PCOD9368339
_publ_section_title
;
Structure prediction by ZEFSAII (Michael W. Deem and Ramdas Pophale) SiO2 
 PCOD9368339
Probable space group: F M M 2
;
_chemical_formula_sum "Si O2"
_cell_formula_units_Z 128
_cell_length_a 18.264958
_cell_length_b 22.245832
_cell_length_c 18.926098
_cell_angle_alpha 90.000000
_cell_angle_beta 90.000000
_cell_angle_gamma 90.000000
_cell_volume 7690.036755
_symmetry_space_group_name_H-M "F M M 2"
_symmetry_group_IT_number 42
_symmetry_cell_setting 'orthorhombic'
loop_
_space_group_symop_operation_xyz
x,y,z
-x,-y,z
-x,y,z
x,-y,z
x,1/2+y,1/2+z
-x,1/2-y,1/2+z
-x,1/2+y,1/2+z
x,1/2-y,1/2+z
1/2+x,y,1/2+z
1/2-x,-y,1/2+z
1/2-x,y,1/2+z
1/2+x,-y,1/2+z
1/2+x,1/2+y,z
1/2-x,1/2-y,z
1/2-x,1/2+y,z
1/2+x,1/2-y,z
loop_
_atom_site_type_symbol
_atom_site_label
_atom_site_fract_x
_atom_site_fract_y
_atom_site_fract_z
Si Si1 0.691568 0.429817 0.502740
Si Si2 0.916898 0.071759 0.374973
Si Si3 0.200327 0.115611 0.261730
Si Si4 0.329442 0.217087 0.649205
Si Si5 0.309043 0.303730 0.844620
Si Si6 0.585849 0.816518 0.218665
Si Si7 0.295189 0.186558 0.497996
Si Si8 0.672078 0.433730 0.671426
O O1 0.714932 0.500000 0.486883
O O2 0.624486 0.415844 0.449339
O O3 0.747142 0.374171 0.493123
O O4 0.674679 0.429139 0.586413
O O5 0.865346 0.091206 0.309708
O O6 0.000000 0.096483 0.372514
O O7 0.922082 0.000000 0.370979
O O8 0.170896 0.168953 0.211866
O O9 0.261182 0.140283 0.316713
O O10 0.247809 0.074757 0.207633
O O11 0.250000 0.250000 0.653943
O O12 0.389441 0.268146 0.660383
O O13 0.335649 0.186574 0.572846
O O14 0.250000 0.250000 0.842454
O O15 0.373913 0.294709 0.789756
O O16 0.337351 0.310883 0.924014
O O17 0.500000 0.820377 0.226004
O O18 0.621374 0.880238 0.198797
O O19 0.250000 0.250000 0.499562
O O20 0.644588 0.500000 0.690279
#
# Coordination Sequence:
#
# PCOD9368339 Si02
#       8
#    16  16  16  16  16  16  16  16
#     4  10  19  34  54  81 109 140 183 228 273 329
#     4  10  22  36  50  77 119 155 180 220 281 340
#     4  11  17  32  57  79 110 136 187 230 268 320
#     4  11  18  35  56  79 108 137 176 226 279 323
#     4  10  18  34  55  78 105 137 177 226 270 322
#     4  11  22  36  53  78 111 146 179 224 280 330
#     4  10  19  32  56  79 105 139 179 223 275 318
#     4  10  20  34  56  81 105 143 189 230 270 323
#
# _framework density 16.644914
#
# number of rings (size 3 to 8) (size 9 to 14) (size 15 to 20)
#    0.000    1.625    6.250    1.125    0.000    1.250 
#    0.000    1.875    0.000    0.000    0.000    0.000 
#    0.000    1.000    0.000    0.000    0.000    0.000 
#
# Total GULP energy -178161.893979 kJ/mol
# GULP energy per Si atom -5567.559187 kJ/mol
# Density = 1.660703 g / cm^3
# Si number density = 16.644914 Si / 1000 Ang^3
#
#
#
# Elastic Constant Matrix: (Units=GPa)
#
#
# Indices 1 2 3 4 5 6 
#
# 1 97.9282 39.3828 51.3726 0.0000 0.0000 0.0000
# 2 39.3828 78.8647 35.8741 0.0000 0.0000 0.0000
# 3 51.3726 35.8741 135.5829 0.0000 0.0000 0.0000
# 4 0.0000 0.0000 0.0000 13.7492 0.0000 0.0000
# 5 0.0000 0.0000 0.0000 0.0000 4.4961 0.0000
# 6 0.0000 0.0000 0.0000 0.0000 0.0000 14.1336
#
#
#
# Elastic Compliance Matrix: (Units=1/GPa)
#
#
# Indices 1 2 3 4 5 6 
#
# 1 0.014519 -0.005398 -0.004073 0.000000 0.000000 0.000000
# 2 -0.005398 0.016422 -0.002300 0.000000 0.000000 0.000000
# 3 -0.004073 -0.002300 0.009527 0.000000 0.000000 0.000000
# 4 0.000000 0.000000 0.000000 0.072731 0.000000 0.000000
# 5 0.000000 0.000000 0.000000 0.000000 0.222413 0.000000
# 6 0.000000 0.000000 0.000000 0.000000 0.000000 0.070753
#
#
# Mechanical properties :
#
#
# Convention : Reuss Voigt Hill
#
# Bulk Modulus (GPa) = 59.07789 62.84831 60.96310
# Shear Modulus (GPa) = 11.47977 18.85889 15.16933
#
# Velocity S-wave (km/s) = 2.62904 3.36968 3.02213
# Velocity P-wave (km/s) = 6.69223 7.27873 6.99163
#
# Compressibility (1/GPa) = 0.01692681
#
# Stress axis : x y z
#
# Youngs Moduli (GPa) = 68.87535 60.89574 104.96057
#
# Poissons Ratio (x) = 0.32869 0.42752
# Poissons Ratio (y) = 0.37176 0.24139
# Poissons Ratio (z) = 0.28054 0.14005
#
# Static dielectric constant tensor:
#      x y z
#    x 1.542340 0.000000 0.000000 
#    y 0.000000 1.595300 0.000000 
#    z 0.000000 0.000000 1.591090 
# 
# From -- ./inp_files/21224.got.cif
#   From: 2010.05.17/outbox.cif.g08.bks.cpg/sg42_11_cif.got.tgz:21224.got - 2010.06.03 19:03:34.
