data_PCOD9368536
_publ_section_title
;
Structure prediction by ZEFSAII (Michael W. Deem and Ramdas Pophale) SiO2 
 PCOD9368536
Probable space group: F M M 2
;
_chemical_formula_sum "Si O2"
_cell_formula_units_Z 100
_cell_length_a 30.560441
_cell_length_b 7.500820
_cell_length_c 20.558688
_cell_angle_alpha 90.000000
_cell_angle_beta 90.000000
_cell_angle_gamma 90.000000
_cell_volume 4712.634479
_symmetry_space_group_name_H-M "F M M 2"
_symmetry_group_IT_number 42
_symmetry_cell_setting 'orthorhombic'
loop_
_space_group_symop_operation_xyz
x,y,z
-x,-y,z
-x,y,z
x,-y,z
x,1/2+y,1/2+z
-x,1/2-y,1/2+z
-x,1/2+y,1/2+z
x,1/2-y,1/2+z
1/2+x,y,1/2+z
1/2-x,-y,1/2+z
1/2-x,y,1/2+z
1/2+x,-y,1/2+z
1/2+x,1/2+y,z
1/2-x,1/2-y,z
1/2-x,1/2+y,z
1/2+x,1/2-y,z
loop_
_atom_site_type_symbol
_atom_site_label
_atom_site_fract_x
_atom_site_fract_y
_atom_site_fract_z
Si Si1 0.635157 0.287702 0.182960
Si Si2 0.798247 0.213344 0.075879
Si Si3 0.428644 0.786414 0.469448
Si Si4 0.672538 0.215712 0.437870
Si Si5 0.299482 0.789456 0.298128
Si Si6 0.500000 0.500000 0.428721
Si Si7 0.549324 0.215706 0.620480
O O1 0.632119 0.500000 0.174088
O O2 0.665358 0.215377 0.124724
O O3 0.662022 0.262343 0.248851
O O4 0.585857 0.220383 0.171637
O O5 0.750000 0.250000 0.101228
O O6 0.804008 0.000000 0.073096
O O7 0.803737 0.283285 0.002782
O O8 0.379040 0.750798 0.447184
O O9 0.461980 0.657490 0.433153
O O10 0.434751 0.747172 0.546763
O O11 0.437186 0.000000 0.461193
O O12 0.691727 0.286038 0.370277
O O13 0.677424 0.000000 0.437121
O O14 0.250000 0.750000 0.275728
O O15 0.302227 0.000000 0.302998
O O16 0.500000 0.284565 0.629137
O O17 0.546761 0.000000 0.625078
#
# Coordination Sequence:
#
# PCOD9368536 Si02
#       7
#    16  16  16  16  16   4  16
#     4  10  20  36  58  84 116 152 196 242 293 361
#     4  10  19  33  54  83 112 147 192 241 299 359
#     4  10  19  37  59  86 125 162 196 256 306 361
#     4   9  19  38  61  80 112 158 199 237 303 368
#     4  11  23  40  60  84 114 158 203 242 302 369
#     4  12  22  32  56 102 124 152 214 236 310 378
#     4   9  16  32  61  85 111 156 199 235 299 359
#
# _framework density 21.219555
#
# number of rings (size 3 to 8) (size 9 to 14) (size 15 to 20)
#    0.000    2.080    2.400    1.680    0.000    1.920 
#    5.760    0.000    1.760    0.000    0.000    0.000 
#    0.000    0.000    0.000    0.000    0.000    0.000 
#
# Total GULP energy -139298.689917 kJ/mol
# GULP energy per Si atom -5571.947597 kJ/mol
# Density = 2.117126 g / cm^3
# Si number density = 21.219555 Si / 1000 Ang^3
#
#
#
# Elastic Constant Matrix: (Units=GPa)
#
#
# Indices 1 2 3 4 5 6 
#
# 1 130.0646 12.3038 36.1606 0.0000 0.0000 0.0000
# 2 12.3038 71.4277 -1.6968 0.0000 0.0000 -0.0001
# 3 36.1606 -1.6968 85.5504 0.0000 0.0000 0.0000
# 4 0.0000 0.0000 0.0000 -1.1828 0.0000 0.0000
# 5 0.0000 0.0000 0.0000 0.0000 5.0729 0.0000
# 6 0.0000 -0.0001 0.0000 0.0000 0.0000 19.5955
#
#
#
# Elastic Compliance Matrix: (Units=1/GPa)
#
#
# Indices 1 2 3 4 5 6 
#
# 1 0.008896 -0.001623 -0.003793 0.000000 0.000000 0.000000
# 2 -0.001623 0.014303 0.000969 0.000000 0.000000 0.000000
# 3 -0.003793 0.000969 0.013311 0.000000 0.000000 0.000000
# 4 0.000000 0.000000 0.000000 -0.845442 -0.000003 0.000000
# 5 0.000000 0.000000 0.000000 -0.000003 0.197125 0.000000
# 6 0.000000 0.000000 0.000000 0.000000 0.000000 0.051032
#
#
# Mechanical properties :
#
#
# Convention : Reuss Voigt Hill
#
# Bulk Modulus (GPa) = 36.20668 42.28644 39.24656
# Shear Modulus (GPa) = -9.21358 20.71547 5.75094
#
# Velocity S-wave (km/s) = -2.08601 3.12788 1.64806
# Velocity P-wave (km/s) = 3.36125 5.74597 4.70713
#
# Compressibility (1/GPa) = 0.02761921
#
# Stress axis : x y z
#
# Youngs Moduli (GPa) = 112.40531 69.91691 75.12428
#
# Poissons Ratio (x) = 0.11344 0.28491
# Poissons Ratio (y) = 0.18238 -0.07283
# Poissons Ratio (z) = 0.42630 -0.06778
#
# Static dielectric constant tensor:
#      x y z
#    x 1.758640 0.000000 0.000000 
#    y 0.000000 1.805000 0.000000 
#    z 0.000000 0.000000 1.781110 
# 
# From -- ./inp_files/23976.got.cif
#   From: 2010.05.17/outbox.cif.g08.bks.cpg/sg42_12_cif.got.tgz:23976.got - 2010.06.03 19:03:34.
