data_PCOD9368477
_publ_section_title
;
Structure prediction by ZEFSAII (Michael W. Deem and Ramdas Pophale) SiO2 
 PCOD9368477
Probable space group: F M M 2
;
_chemical_formula_sum "Si O2"
_cell_formula_units_Z 80
_cell_length_a 17.881042
_cell_length_b 7.993038
_cell_length_c 29.782646
_cell_angle_alpha 90.000000
_cell_angle_beta 90.000000
_cell_angle_gamma 90.000000
_cell_volume 4256.650375
_symmetry_space_group_name_H-M "F M M 2"
_symmetry_group_IT_number 42
_symmetry_cell_setting 'orthorhombic'
loop_
_space_group_symop_operation_xyz
x,y,z
-x,-y,z
-x,y,z
x,-y,z
x,1/2+y,1/2+z
-x,1/2-y,1/2+z
-x,1/2+y,1/2+z
x,1/2-y,1/2+z
1/2+x,y,1/2+z
1/2-x,-y,1/2+z
1/2-x,y,1/2+z
1/2+x,-y,1/2+z
1/2+x,1/2+y,z
1/2-x,1/2-y,z
1/2-x,1/2+y,z
1/2+x,1/2-y,z
loop_
_atom_site_type_symbol
_atom_site_label
_atom_site_fract_x
_atom_site_fract_y
_atom_site_fract_z
Si Si1 0.089650 0.000000 0.230780
Si Si2 0.910146 0.305341 0.470456
Si Si3 0.664978 0.804896 0.879559
Si Si4 0.091272 0.815040 0.567961
Si Si5 0.337102 0.693263 0.783355
Si Si6 0.591264 0.500000 0.126945
O O1 0.119597 0.167929 0.254661
O O2 0.113997 0.000000 0.178700
O O3 0.000000 0.000000 0.232625
O O4 0.888112 0.500000 0.472233
O O5 0.879934 0.227176 0.424857
O O6 0.885015 0.218376 0.516581
O O7 0.000000 0.297098 0.469793
O O8 0.750000 0.750000 0.888122
O O9 0.637660 0.707283 0.835445
O O10 0.663622 0.000000 0.867739
O O11 0.116058 0.665167 0.600118
O O12 0.000000 0.811682 0.567950
O O13 0.114879 0.000000 0.582536
O O14 0.344059 0.500000 0.768501
O O15 0.250000 0.750000 0.783043
O O16 0.500000 0.500000 0.126091
#
# Coordination Sequence:
#
# PCOD9368477 Si02
#       6
#     8  16  16  16  16   8
#     4  11  24  40  62  97 125 151 201 262 311 347
#     4  10  19  32  52  82 116 151 190 234 285 337
#     4  11  21  36  56  82 113 152 199 236 278 348
#     4   9  16  29  51  78 110 150 191 229 282 351
#     4  11  21  41  66  87 117 164 208 243 297 373
#     4   9  18  34  54  79 116 149 183 242 298 341
#
# _framework density 18.794119999999999
#
# number of rings (size 3 to 8) (size 9 to 14) (size 15 to 20)
#    0.000    1.800    3.000    3.600    0.000    3.200 
#    0.000    2.000    0.000    1.200    0.000    0.000 
#    0.000    0.000    0.000    0.000    0.000    0.000 
#
# Total GULP energy -111623.277798 kJ/mol
# GULP energy per Si atom -5581.163890 kJ/mol
# Density = 1.875134 g / cm^3
# Si number density = 18.794120 Si / 1000 Ang^3
#
#
#
# Elastic Constant Matrix: (Units=GPa)
#
#
# Indices 1 2 3 4 5 6 
#
# 1 12.7774 24.4898 24.7581 0.0000 0.0000 0.0000
# 2 24.4898 178.1794 70.1074 0.0000 0.0000 0.0000
# 3 24.7581 70.1074 139.6075 0.0000 0.0000 0.0000
# 4 0.0000 0.0000 0.0000 23.9000 0.0000 0.0000
# 5 0.0000 0.0000 0.0000 0.0000 9.0317 0.0000
# 6 0.0000 0.0000 0.0000 0.0000 0.0000 18.3834
#
#
#
# Elastic Compliance Matrix: (Units=1/GPa)
#
#
# Indices 1 2 3 4 5 6 
#
# 1 0.135684 -0.011442 -0.018316 0.000000 0.000000 0.000000
# 2 -0.011442 0.007959 -0.001968 0.000000 0.000000 0.000000
# 3 -0.018316 -0.001968 0.011399 0.000000 0.000000 0.000000
# 4 0.000000 0.000000 0.000000 0.041841 0.000000 0.000000
# 5 0.000000 0.000000 0.000000 0.000000 0.110721 0.000000
# 6 0.000000 0.000000 0.000000 0.000000 0.000000 0.054397
#
#
# Mechanical properties :
#
#
# Convention : Reuss Voigt Hill
#
# Bulk Modulus (GPa) = 10.91820 63.25275 37.08548
# Shear Modulus (GPa) = 10.96530 24.34363 17.65446
#
# Velocity S-wave (km/s) = 2.41808 3.60290 3.06822
# Velocity P-wave (km/s) = 3.69027 7.14399 5.68571
#
# Compressibility (1/GPa) = 0.09159015
#
# Stress axis : x y z
#
# Youngs Moduli (GPa) = 7.37006 125.64030 87.72441
#
# Poissons Ratio (x) = 1.43760 1.60679
# Poissons Ratio (y) = 0.08433 0.17262
# Poissons Ratio (z) = 0.13499 0.24723
#
# Static dielectric constant tensor:
#      x y z
#    x 1.634310 0.000000 0.000000 
#    y 0.000000 1.661800 0.000000 
#    z 0.000000 0.000000 1.644370 
# 
# From -- ./inp_files/31321.got.cif
#   From: 2010.05.17/outbox.cif.g08.bks.cpg/sg42_16_cif.got.tgz:31321.got - 2010.06.03 19:03:34.
