data_PCOD9368496
_publ_section_title
;
Structure prediction by ZEFSAII (Michael W. Deem and Ramdas Pophale) SiO2 
 PCOD9368496
Probable space group: F M M 2
;
_chemical_formula_sum "Si O2"
_cell_formula_units_Z 96
_cell_length_a 8.823012
_cell_length_b 24.101093
_cell_length_c 26.834448
_cell_angle_alpha 90.000000
_cell_angle_beta 90.000000
_cell_angle_gamma 90.000000
_cell_volume 5706.190606
_symmetry_space_group_name_H-M "F M M 2"
_symmetry_group_IT_number 42
_symmetry_cell_setting 'orthorhombic'
loop_
_space_group_symop_operation_xyz
x,y,z
-x,-y,z
-x,y,z
x,-y,z
x,1/2+y,1/2+z
-x,1/2-y,1/2+z
-x,1/2+y,1/2+z
x,1/2-y,1/2+z
1/2+x,y,1/2+z
1/2-x,-y,1/2+z
1/2-x,y,1/2+z
1/2+x,-y,1/2+z
1/2+x,1/2+y,z
1/2-x,1/2-y,z
1/2-x,1/2+y,z
1/2+x,1/2-y,z
loop_
_atom_site_type_symbol
_atom_site_label
_atom_site_fract_x
_atom_site_fract_y
_atom_site_fract_z
Si Si1 0.681868 0.688329 0.463080
Si Si2 0.672699 0.094241 0.528168
Si Si3 0.181166 0.092217 0.789667
Si Si4 0.816204 0.500000 0.211150
Si Si5 0.682443 0.000000 0.096054
Si Si6 0.181758 0.811326 0.349220
Si Si7 0.673178 0.500000 0.354045
Si Si8 0.662062 0.500000 0.946107
O O1 0.500000 0.690526 0.465765
O O2 0.750000 0.750000 0.468432
O O3 0.744542 0.648192 0.506229
O O4 0.721813 0.669052 0.406084
O O5 0.500000 0.107052 0.544003
O O6 0.755012 0.055658 0.569212
O O7 0.663898 0.053137 0.481064
O O8 0.253974 0.150428 0.805002
O O9 0.000000 0.097324 0.788452
O O10 0.230255 0.055820 0.741270
O O11 0.237979 0.052749 0.833909
O O12 0.769682 0.500000 0.153897
O O13 0.000000 0.500000 0.212615
O O14 0.500000 0.000000 0.092839
O O15 0.250000 0.750000 0.344777
O O16 0.000000 0.810165 0.346409
O O17 0.500000 0.500000 0.337381
O O18 0.690618 0.500000 0.412672
O O19 0.500000 0.500000 0.917794
#
# Coordination Sequence:
#
# PCOD9368496 Si02
#       8
#    16  16  16   8   8  16   8   8
#     4  10  20  33  50  73 103 139 174 206 241 287
#     4  10  20  33  49  72 100 129 164 204 249 300
#     4  10  19  33  51  71  98 131 166 204 249 297
#     4   8  18  35  55  77  98 126 164 208 258 307
#     4  10  19  35  57  77  98 126 164 210 260 307
#     4  10  20  33  50  75 105 138 174 206 241 288
#     4  11  20  28  42  68  99 128 162 202 243 292
#     4   9  18  30  44  64  95 132 162 194 241 294
#
# _framework density 16.823833
#
# number of rings (size 3 to 8) (size 9 to 14) (size 15 to 20)
#    0.000    2.167    0.000    5.000    0.000    6.667 
#    0.000    5.000    0.000    1.000    0.000    4.667 
#    0.000    0.000    0.000    0.000    0.000    0.000 
#
# Total GULP energy -133686.021836 kJ/mol
# GULP energy per Si atom -5570.250910 kJ/mol
# Density = 1.678554 g / cm^3
# Si number density = 16.823833 Si / 1000 Ang^3
#
#
#
# Elastic Constant Matrix: (Units=GPa)
#
#
# Indices 1 2 3 4 5 6 
#
# 1 81.5290 39.7323 45.1891 0.0000 0.0000 0.0000
# 2 39.7323 97.9607 57.2593 0.0000 0.0000 0.0000
# 3 45.1891 57.2593 106.6421 0.0000 0.0000 0.0000
# 4 0.0000 0.0000 0.0000 15.9132 0.0000 0.0000
# 5 0.0000 0.0000 0.0000 0.0000 16.2064 0.0000
# 6 0.0000 0.0000 0.0000 0.0000 0.0000 -1.8190
#
#
#
# Elastic Compliance Matrix: (Units=1/GPa)
#
#
# Indices 1 2 3 4 5 6 
#
# 1 0.017001 -0.003913 -0.005103 0.000000 0.000000 0.000000
# 2 -0.003913 0.015778 -0.006814 0.000000 0.000000 0.000000
# 3 -0.005103 -0.006814 0.015198 0.000000 0.000000 0.000000
# 4 0.000000 0.000000 0.000000 0.062841 0.000000 0.000000
# 5 0.000000 0.000000 0.000000 0.000000 0.061704 0.000000
# 6 0.000000 0.000000 0.000000 0.000000 0.000000 -0.549763
#
#
# Mechanical properties :
#
#
# Convention : Reuss Voigt Hill
#
# Bulk Modulus (GPa) = 61.28263 63.38814 62.33539
# Shear Modulus (GPa) = -14.69968 15.65686 0.47859
#
# Velocity S-wave (km/s) = -2.95912 3.05394 0.53394
# Velocity P-wave (km/s) = 4.98297 7.08483 6.12474
#
# Compressibility (1/GPa) = 0.01631784
#
# Stress axis : x y z
#
# Youngs Moduli (GPa) = 58.82030 63.38057 65.79772
#
# Poissons Ratio (x) = 0.24798 0.33579
# Poissons Ratio (y) = 0.23014 0.44832
# Poissons Ratio (z) = 0.30018 0.43185
#
# Static dielectric constant tensor:
#      x y z
#    x 1.588350 0.000000 0.000000 
#    y 0.000000 1.561840 0.000000 
#    z 0.000000 0.000000 1.572150 
# 
# From -- ./inp_files/31661.got.cif
#   From: 2010.05.17/outbox.cif.g08.bks.cpg/sg42_16_cif.got.tgz:31661.got - 2010.06.03 19:03:34.
