data_PCOD9368594
_publ_section_title
;
Structure prediction by ZEFSAII (Michael W. Deem and Ramdas Pophale) SiO2 
 PCOD9368594
Probable space group: F M M 2
;
_chemical_formula_sum "Si O2"
_cell_formula_units_Z 104
_cell_length_a 9.350438
_cell_length_b 25.916960
_cell_length_c 20.717564
_cell_angle_alpha 90.000000
_cell_angle_beta 90.000000
_cell_angle_gamma 90.000000
_cell_volume 5020.589373
_symmetry_space_group_name_H-M "F M M 2"
_symmetry_group_IT_number 42
_symmetry_cell_setting 'orthorhombic'
loop_
_space_group_symop_operation_xyz
x,y,z
-x,-y,z
-x,y,z
x,-y,z
x,1/2+y,1/2+z
-x,1/2-y,1/2+z
-x,1/2+y,1/2+z
x,1/2-y,1/2+z
1/2+x,y,1/2+z
1/2-x,-y,1/2+z
1/2-x,y,1/2+z
1/2+x,-y,1/2+z
1/2+x,1/2+y,z
1/2-x,1/2-y,z
1/2-x,1/2+y,z
1/2+x,1/2-y,z
loop_
_atom_site_type_symbol
_atom_site_label
_atom_site_fract_x
_atom_site_fract_y
_atom_site_fract_z
Si Si1 0.250917 0.000000 0.737640
Si Si2 0.660390 0.500000 0.879420
Si Si3 0.326752 0.893961 0.541008
Si Si4 0.653995 0.295190 0.736635
Si Si5 0.664984 0.600587 0.415882
Si Si6 0.171051 0.500000 0.087324
Si Si7 0.153282 0.614371 0.766557
Si Si8 0.837960 0.202151 0.585792
O O1 0.334306 0.054093 0.747925
O O2 0.152386 0.000000 0.801558
O O3 0.186990 0.000000 0.665712
O O4 0.500000 0.500000 0.906280
O O5 0.753506 0.452562 0.902621
O O6 0.500000 0.897340 0.543073
O O7 0.264153 0.876065 0.471283
O O8 0.252204 0.948804 0.560035
O O9 0.259711 0.848980 0.584792
O O10 0.500000 0.294716 0.768140
O O11 0.750000 0.250000 0.765590
O O12 0.719916 0.351733 0.740325
O O13 0.641257 0.284239 0.660784
O O14 0.500000 0.594610 0.437746
O O15 0.658473 0.623102 0.343786
O O16 0.000000 0.500000 0.071686
O O17 0.000000 0.633625 0.741971
O O18 0.750000 0.250000 0.555553
O O19 0.000000 0.194336 0.558968
#
# Coordination Sequence:
#
# PCOD9368594 Si02
#       8
#     8   8  16  16  16   8  16  16
#     4  10  22  36  58  88 120 154 188 228 284 344
#     4  10  19  34  56  82 112 147 190 237 281 336
#     4  12  25  40  59  85 116 153 196 243 290 340
#     4  10  21  37  60  87 117 151 189 233 284 338
#     4  10  21  38  57  79 110 151 193 234 283 341
#     4  12  25  40  58  84 120 159 194 235 287 344
#     4  10  21  37  60  87 117 151 189 233 284 339
#     4  10  21  39  62  88 117 153 193 236 286 342
#
# _framework density 20.714699
#
# number of rings (size 3 to 8) (size 9 to 14) (size 15 to 20)
#    0.000    1.538    0.000    5.077    0.000   11.077 
#    0.000    0.769    0.000    3.692    0.000    0.000 
#    0.000    0.000    0.000    0.000    0.000    0.000 
#
# Total GULP energy -144860.278288 kJ/mol
# GULP energy per Si atom -5571.549165 kJ/mol
# Density = 2.066755 g / cm^3
# Si number density = 20.714699 Si / 1000 Ang^3
#
#
#
# Elastic Constant Matrix: (Units=GPa)
#
#
# Indices 1 2 3 4 5 6 
#
# 1 208.9674 64.3867 18.8648 0.0000 0.0000 0.0000
# 2 64.3867 96.1684 -3.9387 0.0000 0.0000 0.0000
# 3 18.8648 -3.9387 50.4449 0.0000 0.0000 0.0000
# 4 0.0000 0.0000 0.0000 -14.5870 0.0000 0.0000
# 5 0.0000 0.0000 0.0000 0.0000 9.2643 0.0000
# 6 0.0000 0.0000 0.0000 0.0000 0.0000 23.8363
#
#
#
# Elastic Compliance Matrix: (Units=1/GPa)
#
#
# Indices 1 2 3 4 5 6 
#
# 1 0.006383 -0.004385 -0.002729 0.000000 0.000000 0.000000
# 2 -0.004385 0.013445 0.002690 0.000000 0.000000 0.000000
# 3 -0.002729 0.002690 0.021054 0.000000 0.000000 0.000000
# 4 0.000000 0.000000 0.000000 -0.068554 0.000000 0.000000
# 5 0.000000 0.000000 0.000000 0.000000 0.107941 0.000000
# 6 0.000000 0.000000 0.000000 0.000000 0.000000 0.041953
#
#
# Mechanical properties :
#
#
# Convention : Reuss Voigt Hill
#
# Bulk Modulus (GPa) = 31.21886 57.13402 44.17644
# Shear Modulus (GPa) = 35.27359 22.12060 28.69710
#
# Velocity S-wave (km/s) = 4.13101 3.27137 3.72607
# Velocity P-wave (km/s) = 6.15283 6.47383 6.31537
#
# Compressibility (1/GPa) = 0.03203192
#
# Stress axis : x y z
#
# Youngs Moduli (GPa) = 156.66480 74.37885 47.49608
#
# Poissons Ratio (x) = 0.32618 0.12964
# Poissons Ratio (y) = 0.68703 -0.12775
# Poissons Ratio (z) = 0.42761 -0.20006
#
# Static dielectric constant tensor:
#      x y z
#    x 1.771510 0.000000 0.000000 
#    y 0.000000 1.662370 0.000000 
#    z 0.000000 0.000000 1.818530 
# 
# From -- ./inp_files/23843.got.cif
#   From: 2010.05.17/outbox.cif.g08.bks.cpg/sg42_12_cif.got.tgz:23843.got - 2010.06.03 19:03:34.
