data_PCOD9368798
_publ_section_title
;
Structure prediction by ZEFSAII (Michael W. Deem and Ramdas Pophale) SiO2 
 PCOD9368798
Probable space group: F M M 2
;
_chemical_formula_sum "Si O2"
_cell_formula_units_Z 80
_cell_length_a 27.107208
_cell_length_b 7.742468
_cell_length_c 19.959982
_cell_angle_alpha 90.000000
_cell_angle_beta 90.000000
_cell_angle_gamma 90.000000
_cell_volume 4189.134965
_symmetry_space_group_name_H-M "F M M 2"
_symmetry_group_IT_number 42
_symmetry_cell_setting 'orthorhombic'
loop_
_space_group_symop_operation_xyz
x,y,z
-x,-y,z
-x,y,z
x,-y,z
x,1/2+y,1/2+z
-x,1/2-y,1/2+z
-x,1/2+y,1/2+z
x,1/2-y,1/2+z
1/2+x,y,1/2+z
1/2-x,-y,1/2+z
1/2-x,y,1/2+z
1/2+x,-y,1/2+z
1/2+x,1/2+y,z
1/2-x,1/2-y,z
1/2-x,1/2+y,z
1/2+x,1/2-y,z
loop_
_atom_site_type_symbol
_atom_site_label
_atom_site_fract_x
_atom_site_fract_y
_atom_site_fract_z
Si Si1 0.500000 0.300433 0.808560
Si Si2 0.393764 0.706257 0.800608
Si Si3 0.608027 0.712624 0.647536
Si Si4 0.000000 0.699857 0.145448
Si Si5 0.305300 0.292240 0.550282
Si Si6 0.305073 0.205130 0.898043
O O1 0.500000 0.500000 0.832213
O O2 0.553316 0.222895 0.826570
O O3 0.500000 0.300892 0.726958
O O4 0.400663 0.500000 0.794850
O O5 0.384119 0.767875 0.724661
O O6 0.348310 0.736672 0.849266
O O7 0.607290 0.500000 0.647006
O O8 0.553249 0.772874 0.625623
O O9 0.651741 0.770734 0.599202
O O10 0.000000 0.500000 0.123435
O O11 0.309206 0.500000 0.548034
O O12 0.250000 0.250000 0.573790
O O13 0.310380 0.224950 0.474025
O O14 0.250000 0.250000 0.873943
O O15 0.308074 0.000000 0.902094
#
# Coordination Sequence:
#
# PCOD9368798 Si02
#       6
#     8  16  16   8  16  16
#     4   7  12  24  44  69  93 119 148 177 216 266
#     4   9  16  29  50  72  93 118 151 188 222 262
#     4   8  14  26  46  70  91 113 146 185 220 257
#     4   7  10  20  41  67  91 113 140 177 218 258
#     4   9  18  32  47  64  88 118 150 183 222 267
#     4  10  20  33  47  64  90 123 155 187 227 273
#
# _framework density 19.097021999999999
#
# number of rings (size 3 to 8) (size 9 to 14) (size 15 to 20)
#    0.000    3.400    0.000    3.000    0.000    1.600 
#    0.000    4.500    0.000    2.400    0.000    2.100 
#    0.000    0.000    0.000    0.000    0.000    0.000 
#
# Total GULP energy -111355.096851 kJ/mol
# GULP energy per Si atom -5567.754843 kJ/mol
# Density = 1.905356 g / cm^3
# Si number density = 19.097022 Si / 1000 Ang^3
#
#
#
# Elastic Constant Matrix: (Units=GPa)
#
#
# Indices 1 2 3 4 5 6 
#
# 1 237.4650 2.1076 102.6521 0.0000 0.0000 0.0000
# 2 2.1076 26.1254 3.6302 0.0000 0.0000 0.0000
# 3 102.6521 3.6302 67.3894 0.0000 0.0000 0.0000
# 4 0.0000 0.0000 0.0000 2.3835 0.0000 0.0000
# 5 0.0000 0.0000 0.0000 0.0000 -33.4577 0.0000
# 6 0.0000 0.0000 0.0000 0.0000 0.0000 12.5585
#
#
#
# Elastic Compliance Matrix: (Units=1/GPa)
#
#
# Indices 1 2 3 4 5 6 
#
# 1 0.012400 0.001636 -0.018976 0.000000 0.000000 0.000000
# 2 0.001636 0.038782 -0.004582 0.000000 0.000000 0.000000
# 3 -0.018976 -0.004582 0.043992 0.000000 0.000000 0.000000
# 4 0.000000 0.000000 0.000000 0.419555 0.000000 0.000000
# 5 0.000000 0.000000 0.000000 0.000000 -0.029888 0.000000
# 6 0.000000 0.000000 0.000000 0.000000 0.000000 0.079627
#
#
# Mechanical properties :
#
#
# Convention : Reuss Voigt Hill
#
# Bulk Modulus (GPa) = 19.48186 60.86218 40.17202
# Shear Modulus (GPa) = 7.99462 11.13618 9.56540
#
# Velocity S-wave (km/s) = 2.04827 2.41744 2.24047
# Velocity P-wave (km/s) = 3.97713 6.30327 5.27014
#
# Compressibility (1/GPa) = 0.05132980
#
# Stress axis : x y z
#
# Youngs Moduli (GPa) = 80.64686 25.78539 22.73148
#
# Poissons Ratio (x) = -0.04220 0.43136
# Poissons Ratio (y) = -0.13198 0.10415
# Poissons Ratio (z) = 1.53038 0.11815
#
# Static dielectric constant tensor:
#      x y z
#    x 1.640810 0.000000 0.000000 
#    y 0.000000 1.713830 0.000000 
#    z 0.000000 0.000000 1.649770 
# 
# From -- ./inp_files/18226.got.cif
#   From: 2010.05.17/outbox.cif.g08.bks.cpg/sg42_10_cif.got.tgz:18226.got - 2010.06.03 19:03:34.
