data_PCOD9368392
_publ_section_title
;
Structure prediction by ZEFSAII (Michael W. Deem and Ramdas Pophale) SiO2 
 PCOD9368392
Probable space group: F M M 2
;
_chemical_formula_sum "Si O2"
_cell_formula_units_Z 96
_cell_length_a 27.017901
_cell_length_b 8.391289
_cell_length_c 24.196424
_cell_angle_alpha 90.000000
_cell_angle_beta 90.000000
_cell_angle_gamma 90.000000
_cell_volume 5485.692641
_symmetry_space_group_name_H-M "F M M 2"
_symmetry_group_IT_number 42
_symmetry_cell_setting 'orthorhombic'
loop_
_space_group_symop_operation_xyz
x,y,z
-x,-y,z
-x,y,z
x,-y,z
x,1/2+y,1/2+z
-x,1/2-y,1/2+z
-x,1/2+y,1/2+z
x,1/2-y,1/2+z
1/2+x,y,1/2+z
1/2-x,-y,1/2+z
1/2-x,y,1/2+z
1/2+x,-y,1/2+z
1/2+x,1/2+y,z
1/2-x,1/2-y,z
1/2-x,1/2+y,z
1/2+x,1/2-y,z
loop_
_atom_site_type_symbol
_atom_site_label
_atom_site_fract_x
_atom_site_fract_y
_atom_site_fract_z
Si Si1 0.608109 0.190792 0.366370
Si Si2 0.194460 0.188608 0.445851
Si Si3 0.943230 0.679065 0.965243
Si Si4 0.556240 0.691198 0.132995
Si Si5 0.056702 0.308587 0.256843
Si Si6 0.869000 0.318590 0.543041
O O1 0.658497 0.238415 0.398386
O O2 0.566245 0.279376 0.401957
O O3 0.597226 0.236071 0.302973
O O4 0.602601 0.000000 0.370133
O O5 0.250000 0.250000 0.439855
O O6 0.173523 0.234096 0.506997
O O7 0.193170 0.000000 0.439841
O O8 0.923713 0.500000 0.976878
O O9 0.000000 0.682226 0.979326
O O10 0.914031 0.809837 0.999479
O O11 0.500000 0.749677 0.118378
O O12 0.555708 0.500000 0.125050
O O13 0.564081 0.730411 0.197176
O O14 0.602746 0.752389 0.096589
O O15 0.058864 0.500000 0.249824
O O16 0.000000 0.270535 0.274927
O O17 0.853499 0.500000 0.554139
#
# Coordination Sequence:
#
# PCOD9368392 Si02
#       6
#    16  16  16  16  16  16
#     4  10  19  32  50  72  98 129 165 204 248 296
#     4  11  22  37  56  77  99 125 160 204 257 307
#     4  10  19  28  41  66  98 130 163 200 243 291
#     4   9  18  31  48  72 103 139 174 204 237 282
#     4   9  18  31  48  72 103 139 174 204 237 282
#     4  10  19  32  50  72  98 129 165 204 248 296
#
# _framework density 17.500070000000001
#
# number of rings (size 3 to 8) (size 9 to 14) (size 15 to 20)
#    0.000    2.167    0.000    6.000    0.000    5.333 
#    0.000    3.333    0.000    1.000    0.000    7.000 
#    0.000    0.000    0.000    0.000    0.000    0.000 
#
# Total GULP energy -133621.624521 kJ/mol
# GULP energy per Si atom -5567.567688 kJ/mol
# Density = 1.746024 g / cm^3
# Si number density = 17.500070 Si / 1000 Ang^3
#
#
#
# Elastic Constant Matrix: (Units=GPa)
#
#
# Indices 1 2 3 4 5 6 
#
# 1 79.8467 13.2124 35.3563 0.0000 0.0000 0.0000
# 2 13.2124 41.8986 6.9065 0.0000 0.0000 0.0000
# 3 35.3563 6.9065 92.1629 0.0000 0.0000 0.0000
# 4 0.0000 0.0000 0.0000 24.0000 0.0000 0.0000
# 5 0.0000 0.0000 0.0000 0.0000 21.7197 0.0000
# 6 0.0000 0.0000 0.0000 0.0000 0.0000 20.1222
#
#
#
# Elastic Compliance Matrix: (Units=1/GPa)
#
#
# Indices 1 2 3 4 5 6 
#
# 1 0.015727 -0.004014 -0.005732 0.000000 0.000000 0.000000
# 2 -0.004014 0.025190 -0.000348 0.000000 0.000000 0.000000
# 3 -0.005732 -0.000348 0.013075 0.000000 0.000000 0.000000
# 4 0.000000 0.000000 0.000000 0.041667 0.000000 0.000000
# 5 0.000000 0.000000 0.000000 0.000000 0.046041 0.000000
# 6 0.000000 0.000000 0.000000 0.000000 0.000000 0.049696
#
#
# Mechanical properties :
#
#
# Convention : Reuss Voigt Hill
#
# Bulk Modulus (GPa) = 29.58261 36.09541 32.83901
# Shear Modulus (GPa) = 22.43629 23.73058 23.08343
#
# Velocity S-wave (km/s) = 3.58448 3.68642 3.63581
# Velocity P-wave (km/s) = 5.83715 6.22818 6.03583
#
# Compressibility (1/GPa) = 0.03380365
#
# Stress axis : x y z
#
# Youngs Moduli (GPa) = 63.58679 39.69774 76.47901
#
# Poissons Ratio (x) = 0.15936 0.43840
# Poissons Ratio (y) = 0.25526 0.02659
# Poissons Ratio (z) = 0.36450 0.01380
#
# Static dielectric constant tensor:
#      x y z
#    x 1.610290 0.000000 0.000000 
#    y 0.000000 1.616630 0.000000 
#    z 0.000000 0.000000 1.623620 
# 
# From -- ./inp_files/30599.got.cif
#   From: 2010.05.17/outbox.cif.g08.bks.cpg/sg42_16_cif.got.tgz:30599.got - 2010.06.03 19:03:34.
