data_PCOD9368373
_publ_section_title
;
Structure prediction by ZEFSAII (Michael W. Deem and Ramdas Pophale) SiO2 
 PCOD9368373
Probable space group: F M M 2
;
_chemical_formula_sum "Si O2"
_cell_formula_units_Z 100
_cell_length_a 13.245095
_cell_length_b 20.645360
_cell_length_c 13.812084
_cell_angle_alpha 90.000000
_cell_angle_beta 90.000000
_cell_angle_gamma 90.000000
_cell_volume 3776.910979
_symmetry_space_group_name_H-M "F M M 2"
_symmetry_group_IT_number 42
_symmetry_cell_setting 'orthorhombic'
loop_
_space_group_symop_operation_xyz
x,y,z
-x,-y,z
-x,y,z
x,-y,z
x,1/2+y,1/2+z
-x,1/2-y,1/2+z
-x,1/2+y,1/2+z
x,1/2-y,1/2+z
1/2+x,y,1/2+z
1/2-x,-y,1/2+z
1/2-x,y,1/2+z
1/2+x,-y,1/2+z
1/2+x,1/2+y,z
1/2-x,1/2-y,z
1/2-x,1/2+y,z
1/2+x,1/2-y,z
loop_
_atom_site_type_symbol
_atom_site_label
_atom_site_fract_x
_atom_site_fract_y
_atom_site_fract_z
Si Si1 0.632472 0.252856 0.365140
Si Si2 0.379369 0.429315 0.158653
Si Si3 0.000000 0.500000 0.966775
Si Si4 0.116227 0.794329 0.071709
Si Si5 0.608600 0.326694 0.674283
Si Si6 0.620746 0.423022 0.833840
Si Si7 0.844824 0.598998 0.883998
O O1 0.750000 0.250000 0.351496
O O2 0.608810 0.209143 0.456785
O O3 0.597105 0.221121 0.266775
O O4 0.613397 0.327822 0.383377
O O5 0.500000 0.430155 0.137119
O O6 0.339659 0.500000 0.124584
O O7 0.340172 0.361408 0.113650
O O8 0.366960 0.426068 0.274585
O O9 0.910256 0.555966 0.955939
O O10 0.158892 0.722796 0.099739
O O11 0.000000 0.793164 0.108102
O O12 0.500000 0.344932 0.632385
O O13 0.645458 0.390641 0.729095
O O14 0.500000 0.406995 0.856664
O O15 0.622097 0.500000 0.828189
O O16 0.722239 0.404820 0.895449
#
# Coordination Sequence:
#
# PCOD9368373 Si02
#       7
#    16  16   4  16  16  16  16
#     4  12  25  39  63 100 139 187 232 291 356 425
#     4  10  18  35  63  98 136 178 230 292 362 417
#     4  12  24  36  70 108 140 180 232 302 364 428
#     4  10  23  39  63  99 140 183 234 293 356 430
#     4  10  21  41  66  93 130 182 234 288 356 415
#     4  10  21  39  65  94 131 181 239 286 341 427
#     4  12  21  38  66 104 137 178 232 288 364 426
#
# _framework density 26.476662000000001
#
# number of rings (size 3 to 8) (size 9 to 14) (size 15 to 20)
#    0.000    1.280    5.600    0.480    2.240    1.920 
#    0.000    0.800    3.520    3.840    0.000    0.000 
#    0.000    0.000    0.000    0.000    0.000    0.000 
#
# Total GULP energy -139281.835397 kJ/mol
# GULP energy per Si atom -5571.273416 kJ/mol
# Density = 2.641640 g / cm^3
# Si number density = 26.476662 Si / 1000 Ang^3
#
#
#
# Elastic Constant Matrix: (Units=GPa)
#
#
# Indices 1 2 3 4 5 6 
#
# 1 151.2450 17.1443 2.4705 0.0000 0.0000 0.0000
# 2 17.1443 176.1531 6.9416 0.0000 0.0000 0.0000
# 3 2.4705 6.9416 78.9513 0.0000 0.0000 0.0000
# 4 0.0000 0.0000 0.0000 12.4140 0.0000 0.0000
# 5 0.0000 0.0000 0.0000 0.0000 28.6431 0.0000
# 6 0.0000 0.0000 0.0000 0.0000 0.0000 97.9362
#
#
#
# Elastic Compliance Matrix: (Units=1/GPa)
#
#
# Indices 1 2 3 4 5 6 
#
# 1 0.006687 -0.000645 -0.000153 0.000000 0.000000 0.000000
# 2 -0.000645 0.005759 -0.000486 0.000000 0.000000 0.000000
# 3 -0.000153 -0.000486 0.012714 0.000000 0.000000 0.000000
# 4 0.000000 0.000000 0.000000 0.080554 0.000000 0.000000
# 5 0.000000 0.000000 0.000000 0.000000 0.034912 0.000000
# 6 0.000000 0.000000 0.000000 0.000000 0.000000 0.010211
#
#
# Mechanical properties :
#
#
# Convention : Reuss Voigt Hill
#
# Bulk Modulus (GPa) = 44.26224 51.05133 47.65679
# Shear Modulus (GPa) = 31.06849 53.11821 42.09335
#
# Velocity S-wave (km/s) = 3.42925 4.48395 3.99159
# Velocity P-wave (km/s) = 5.69504 6.79200 6.26756
#
# Compressibility (1/GPa) = 0.02259262
#
# Stress axis : x y z
#
# Youngs Moduli (GPa) = 149.53544 173.64740 78.65626
#
# Poissons Ratio (x) = 0.11198 0.01200
# Poissons Ratio (y) = 0.09643 0.03824
# Poissons Ratio (z) = 0.02281 0.08442
#
# Static dielectric constant tensor:
#      x y z
#    x 2.028020 0.000000 0.000000 
#    y 0.000000 2.111100 0.000000 
#    z 0.000000 0.000000 2.036410 
# 
# From -- ./inp_files/20122.got.cif
#   From: 2010.05.17/outbox.cif.g08.bks.cpg/sg42_11_cif.got.tgz:20122.got - 2010.06.03 19:03:34.
