data_PCOD9368233
_publ_section_title
;
Structure prediction by ZEFSAII (Michael W. Deem and Ramdas Pophale) SiO2 
 PCOD9368233
Probable space group: F M M 2
;
_chemical_formula_sum "Si O2"
_cell_formula_units_Z 88
_cell_length_a 20.905118
_cell_length_b 10.674271
_cell_length_c 21.633286
_cell_angle_alpha 90.000000
_cell_angle_beta 90.000000
_cell_angle_gamma 90.000000
_cell_volume 4827.400596
_symmetry_space_group_name_H-M "F M M 2"
_symmetry_group_IT_number 42
_symmetry_cell_setting 'orthorhombic'
loop_
_space_group_symop_operation_xyz
x,y,z
-x,-y,z
-x,y,z
x,-y,z
x,1/2+y,1/2+z
-x,1/2-y,1/2+z
-x,1/2+y,1/2+z
x,1/2-y,1/2+z
1/2+x,y,1/2+z
1/2-x,-y,1/2+z
1/2-x,y,1/2+z
1/2+x,-y,1/2+z
1/2+x,1/2+y,z
1/2-x,1/2-y,z
1/2-x,1/2+y,z
1/2+x,1/2-y,z
loop_
_atom_site_type_symbol
_atom_site_label
_atom_site_fract_x
_atom_site_fract_y
_atom_site_fract_z
Si Si1 0.876536 0.852792 0.660830
Si Si2 0.570865 0.348129 0.791757
Si Si3 0.750000 0.250000 0.100839
Si Si4 0.170489 0.636569 0.495907
Si Si5 0.702046 0.143542 0.355591
Si Si6 0.573414 0.855099 0.025850
O O1 0.909177 0.803971 0.723091
O O2 0.808607 0.794536 0.642589
O O3 0.920484 0.840406 0.600186
O O4 0.865598 0.000000 0.670611
O O5 0.500000 0.302021 0.808956
O O6 0.567132 0.500000 0.790113
O O7 0.629765 0.320231 0.836715
O O8 0.779880 0.150339 0.052486
O O9 0.138065 0.500000 0.500495
O O10 0.204930 0.640158 0.429877
O O11 0.121479 0.752101 0.499261
O O12 0.750000 0.250000 0.331858
O O13 0.714340 0.000000 0.333328
O O14 0.500000 0.836372 0.006853
O O15 0.591832 0.000000 0.011850
#
# Coordination Sequence:
#
# PCOD9368233 Si02
#       6
#    16  16   8  16  16  16
#     4   9  17  29  49  74 102 136 176 219 262 311
#     4   9  18  33  53  77 104 136 180 227 265 309
#     4  10  18  30  48  76 104 140 172 216 262 322
#     4  10  20  33  50  75 106 139 173 216 267 315
#     4  10  21  36  56  80 106 141 179 219 268 316
#     4   9  18  32  51  76 104 137 176 217 264 317
#
# _framework density 18.229271000000001
#
# number of rings (size 3 to 8) (size 9 to 14) (size 15 to 20)
#    0.000    2.545    0.909    1.091    1.273    4.727 
#    0.000    1.818    0.000    0.545    0.000    0.000 
#    0.000    0.000    0.000    0.000    0.000    0.000 
#
# Total GULP energy -122527.157933 kJ/mol
# GULP energy per Si atom -5569.416270 kJ/mol
# Density = 1.818778 g / cm^3
# Si number density = 18.229271 Si / 1000 Ang^3
#
#
#
# Elastic Constant Matrix: (Units=GPa)
#
#
# Indices 1 2 3 4 5 6 
#
# 1 116.9092 46.0211 9.5550 0.0000 0.0000 0.0000
# 2 46.0211 86.0109 5.5531 0.0000 0.0000 0.0000
# 3 9.5550 5.5531 23.8022 0.0000 0.0000 0.0000
# 4 0.0000 0.0000 0.0000 13.4251 0.0000 0.0000
# 5 0.0000 0.0000 0.0000 0.0000 10.4713 0.0000
# 6 0.0000 0.0000 0.0000 0.0000 0.0000 24.9455
#
#
#
# Elastic Compliance Matrix: (Units=1/GPa)
#
#
# Indices 1 2 3 4 5 6 
#
# 1 0.011058 -0.005716 -0.003105 0.000000 0.000000 0.000000
# 2 -0.005716 0.014759 -0.001149 0.000000 0.000000 0.000000
# 3 -0.003105 -0.001149 0.043527 0.000000 0.000000 0.000000
# 4 0.000000 0.000000 0.000000 0.074488 0.000000 0.000000
# 5 0.000000 0.000000 0.000000 0.000000 0.095499 0.000000
# 6 0.000000 0.000000 0.000000 0.000000 0.000000 0.040087
#
#
# Mechanical properties :
#
#
# Convention : Reuss Voigt Hill
#
# Bulk Modulus (GPa) = 20.24130 38.77565 29.50848
# Shear Modulus (GPa) = 15.83150 20.80791 18.31971
#
# Velocity S-wave (km/s) = 2.95017 3.38221 3.17355
# Velocity P-wave (km/s) = 4.76786 6.04729 5.44528
#
# Compressibility (1/GPa) = 0.04940394
#
# Stress axis : x y z
#
# Youngs Moduli (GPa) = 90.43618 67.75528 22.97402
#
# Poissons Ratio (x) = 0.38729 0.07134
# Poissons Ratio (y) = 0.51693 0.02639
# Poissons Ratio (z) = 0.28083 0.07783
#
# Static dielectric constant tensor:
#      x y z
#    x 1.634420 0.000000 0.000000 
#    y 0.000000 1.636780 0.000000 
#    z 0.000000 0.000000 1.634320 
# 
# From -- ./inp_files/25795.got.cif
#   From: 2010.05.17/outbox.cif.g08.bks.cpg/sg42_13_cif.got.tgz:25795.got - 2010.06.03 19:03:34.
