data_PCOD9368817
_publ_section_title
;
Structure prediction by ZEFSAII (Michael W. Deem and Ramdas Pophale) SiO2 
 PCOD9368817
Probable space group: F M M 2
;
_chemical_formula_sum "Si O2"
_cell_formula_units_Z 80
_cell_length_a 7.661545
_cell_length_b 18.836771
_cell_length_c 26.683924
_cell_angle_alpha 90.000000
_cell_angle_beta 90.000000
_cell_angle_gamma 90.000000
_cell_volume 3850.991055
_symmetry_space_group_name_H-M "F M M 2"
_symmetry_group_IT_number 42
_symmetry_cell_setting 'orthorhombic'
loop_
_space_group_symop_operation_xyz
x,y,z
-x,-y,z
-x,y,z
x,-y,z
x,1/2+y,1/2+z
-x,1/2-y,1/2+z
-x,1/2+y,1/2+z
x,1/2-y,1/2+z
1/2+x,y,1/2+z
1/2-x,-y,1/2+z
1/2-x,y,1/2+z
1/2+x,-y,1/2+z
1/2+x,1/2+y,z
1/2-x,1/2-y,z
1/2-x,1/2+y,z
1/2+x,1/2-y,z
loop_
_atom_site_type_symbol
_atom_site_label
_atom_site_fract_x
_atom_site_fract_y
_atom_site_fract_z
Si Si1 0.712892 0.417847 0.063830
Si Si2 0.792668 0.167274 0.272138
Si Si3 0.789946 0.332826 0.467415
Si Si4 0.291939 0.080241 0.371539
Si Si5 0.213007 0.417821 0.676310
O O1 0.500000 0.416377 0.063942
O O2 0.762574 0.500000 0.054813
O O3 0.769628 0.397645 0.120059
O O4 0.774618 0.367626 0.019188
O O5 0.750000 0.250000 0.276357
O O6 0.734825 0.123436 0.320592
O O7 0.722885 0.132246 0.220852
O O8 0.000000 0.160844 0.270208
O O9 0.750000 0.250000 0.463668
O O10 0.722675 0.376132 0.419256
O O11 0.000000 0.339603 0.467774
O O12 0.500000 0.074711 0.378654
O O13 0.221656 0.000000 0.368427
O O14 0.262587 0.500000 0.685333
O O15 0.000000 0.416164 0.676101
#
# Coordination Sequence:
#
# PCOD9368817 Si02
#       5
#    16  16  16  16  16
#     4   8  14  28  51  75  98 128 168 210 249 293
#     4  11  22  35  52  76 106 138 172 210 254 304
#     4  10  20  33  51  76 104 133 165 204 251 302
#     4  10  21  37  56  77 101 131 170 214 258 306
#     4   8  15  29  50  75 100 128 167 212 253 297
#
# _framework density 20.773872999999998
#
# number of rings (size 3 to 8) (size 9 to 14) (size 15 to 20)
#    0.000    2.600    0.000    3.600    0.000    6.800 
#    0.000    0.000    0.000    3.000    0.000    5.600 
#    0.000    0.000    0.000    0.000    0.000    0.000 
#
# Total GULP energy -111670.187683 kJ/mol
# GULP energy per Si atom -5583.509384 kJ/mol
# Density = 2.072659 g / cm^3
# Si number density = 20.773873 Si / 1000 Ang^3
#
#
#
# Elastic Constant Matrix: (Units=GPa)
#
#
# Indices 1 2 3 4 5 6 
#
# 1 38.5936 1.7387 5.6555 0.0000 0.0000 0.0000
# 2 1.7387 192.0975 152.3772 0.0000 0.0000 0.0000
# 3 5.6555 152.3772 220.8346 0.0000 0.0000 0.0000
# 4 0.0000 0.0000 0.0000 15.5784 0.0000 0.0000
# 5 0.0000 0.0000 0.0000 0.0000 9.4802 0.0000
# 6 0.0000 0.0000 0.0000 0.0000 0.0000 13.3626
#
#
#
# Elastic Compliance Matrix: (Units=1/GPa)
#
#
# Indices 1 2 3 4 5 6 
#
# 1 0.026045 0.000648 -0.001114 0.000000 0.000000 0.000000
# 2 0.000648 0.011516 -0.007963 0.000000 0.000000 0.000000
# 3 -0.001114 -0.007963 0.010051 0.000000 0.000000 0.000000
# 4 0.000000 0.000000 0.000000 0.064192 0.000000 0.000000
# 5 0.000000 0.000000 0.000000 0.000000 0.105483 0.000000
# 6 0.000000 0.000000 0.000000 0.000000 0.000000 0.074836
#
#
# Mechanical properties :
#
#
# Convention : Reuss Voigt Hill
#
# Bulk Modulus (GPa) = 32.51550 85.67429 59.09489
# Shear Modulus (GPa) = 15.66260 27.13453 21.39856
#
# Velocity S-wave (km/s) = 2.74881 3.61804 3.21295
# Velocity P-wave (km/s) = 5.07550 7.66711 6.50174
#
# Compressibility (1/GPa) = 0.03075457
#
# Stress axis : x y z
#
# Youngs Moduli (GPa) = 38.39497 86.83461 99.49067
#
# Poissons Ratio (x) = -0.05627 0.11085
# Poissons Ratio (y) = -0.02488 0.79222
# Poissons Ratio (z) = 0.04278 0.69145
#
# Static dielectric constant tensor:
#      x y z
#    x 1.795890 0.000000 0.000000 
#    y 0.000000 1.696980 0.000000 
#    z 0.000000 0.000000 1.741060 
# 
# From -- ./inp_files/31246.got.cif
#   From: 2010.05.17/outbox.cif.g08.bks.cpg/sg42_16_cif.got.tgz:31246.got - 2010.06.03 19:03:34.
