data_PCOD9368434
_publ_section_title
;
Structure prediction by ZEFSAII (Michael W. Deem and Ramdas Pophale) SiO2 
 PCOD9368434
Probable space group: F M M 2
;
_chemical_formula_sum "Si O2"
_cell_formula_units_Z 96
_cell_length_a 8.487914
_cell_length_b 32.940758
_cell_length_c 19.329373
_cell_angle_alpha 90.000000
_cell_angle_beta 90.000000
_cell_angle_gamma 90.000000
_cell_volume 5404.460237
_symmetry_space_group_name_H-M "F M M 2"
_symmetry_group_IT_number 42
_symmetry_cell_setting 'orthorhombic'
loop_
_space_group_symop_operation_xyz
x,y,z
-x,-y,z
-x,y,z
x,-y,z
x,1/2+y,1/2+z
-x,1/2-y,1/2+z
-x,1/2+y,1/2+z
x,1/2-y,1/2+z
1/2+x,y,1/2+z
1/2-x,-y,1/2+z
1/2-x,y,1/2+z
1/2+x,-y,1/2+z
1/2+x,1/2+y,z
1/2-x,1/2-y,z
1/2-x,1/2+y,z
1/2+x,1/2-y,z
loop_
_atom_site_type_symbol
_atom_site_label
_atom_site_fract_x
_atom_site_fract_y
_atom_site_fract_z
Si Si1 0.191550 0.631882 0.883270
Si Si2 0.190375 0.956176 0.035876
Si Si3 0.686770 0.206474 0.131799
Si Si4 0.188691 0.867055 0.040658
Si Si5 0.188687 0.293745 0.787537
Si Si6 0.310625 0.043436 0.878030
O O1 0.241963 0.669292 0.835815
O O2 0.241450 0.587837 0.852586
O O3 0.000000 0.632181 0.887625
O O4 0.258435 0.635677 0.960664
O O5 0.262628 0.956488 0.958856
O O6 0.000000 0.955549 0.029747
O O7 0.233601 0.000000 0.068527
O O8 0.235930 0.912480 0.066857
O O9 0.500000 0.208941 0.135932
O O10 0.750000 0.250000 0.105689
O O11 0.737409 0.169191 0.084114
O O12 0.754043 0.200676 0.209003
O O13 0.000000 0.863941 0.044596
O O14 0.250000 0.250000 0.812108
O O15 0.000000 0.292959 0.787379
O O16 0.500000 0.042884 0.872692
O O17 0.251857 0.000000 0.848861
#
# Coordination Sequence:
#
# PCOD9368434 Si02
#       6
#    16  16  16  16  16  16
#     4   9  18  31  48  73 102 129 159 199 243 284
#     4   8  14  25  42  66  96 128 160 194 233 278
#     4  11  22  37  55  72  94 125 163 203 245 296
#     4  10  19  31  50  76 104 131 162 201 243 286
#     4  10  20  35  53  71  94 125 161 199 240 290
#     4   8  13  23  41  65  93 124 157 192 232 279
#
# _framework density 17.763106000000001
#
# number of rings (size 3 to 8) (size 9 to 14) (size 15 to 20)
#    0.000    2.667    0.000    3.500    0.000    2.667 
#    0.000    1.667    0.000    1.000    0.000    4.667 
#    0.000    0.000    0.000    0.000    0.000    0.000 
#
# Total GULP energy -133613.172348 kJ/mol
# GULP energy per Si atom -5567.215515 kJ/mol
# Density = 1.772268 g / cm^3
# Si number density = 17.763106 Si / 1000 Ang^3
#
#
#
# Elastic Constant Matrix: (Units=GPa)
#
#
# Indices 1 2 3 4 5 6 
#
# 1 37.7720 36.5417 11.8348 0.0000 0.0000 0.0000
# 2 36.5417 225.0827 63.1117 0.0000 0.0000 0.0000
# 3 11.8348 63.1117 30.9055 0.0000 0.0000 0.0000
# 4 0.0000 0.0000 0.0000 -7.8045 0.0000 0.0000
# 5 0.0000 0.0000 0.0000 0.0000 15.5635 0.0000
# 6 0.0000 0.0000 0.0000 0.0000 0.0000 19.4409
#
#
#
# Elastic Compliance Matrix: (Units=1/GPa)
#
#
# Indices 1 2 3 4 5 6 
#
# 1 0.031597 -0.004064 -0.003800 0.000000 0.000000 0.000000
# 2 -0.004064 0.010917 -0.020738 0.000000 0.000000 0.000000
# 3 -0.003800 -0.020738 0.076161 0.000000 0.000000 0.000000
# 4 0.000000 0.000000 0.000000 -0.128131 0.000000 0.000000
# 5 0.000000 0.000000 0.000000 0.000000 0.064253 0.000000
# 6 0.000000 0.000000 0.000000 0.000000 0.000000 0.051438
#
#
# Mechanical properties :
#
#
# Convention : Reuss Voigt Hill
#
# Bulk Modulus (GPa) = 16.26801 57.41517 36.84159
# Shear Modulus (GPa) = 27.18421 17.59145 22.38783
#
# Velocity S-wave (km/s) = 3.91624 3.15038 3.55400
# Velocity P-wave (km/s) = 5.44311 6.75470 6.13407
#
# Compressibility (1/GPa) = 0.06147034
#
# Stress axis : x y z
#
# Youngs Moduli (GPa) = 31.64846 91.59680 13.13010
#
# Poissons Ratio (x) = 0.37226 0.04990
# Poissons Ratio (y) = 0.12862 0.27229
# Poissons Ratio (z) = 0.12028 1.89954
#
# Static dielectric constant tensor:
#      x y z
#    x 1.625310 0.000000 0.000000 
#    y 0.000000 1.685210 0.000000 
#    z 0.000000 0.000000 1.559020 
# 
# From -- ./inp_files/23729.got.cif
#   From: 2010.05.17/outbox.cif.g08.bks.cpg/sg42_12_cif.got.tgz:23729.got - 2010.06.03 19:03:34.
