data_PCOD9368500
_publ_section_title
;
Structure prediction by ZEFSAII (Michael W. Deem and Ramdas Pophale) SiO2 
 PCOD9368500
Probable space group: F M M 2
;
_chemical_formula_sum "Si O2"
_cell_formula_units_Z 128
_cell_length_a 23.857567
_cell_length_b 17.058910
_cell_length_c 19.542210
_cell_angle_alpha 90.000000
_cell_angle_beta 90.000000
_cell_angle_gamma 90.000000
_cell_volume 7953.368520
_symmetry_space_group_name_H-M "F M M 2"
_symmetry_group_IT_number 42
_symmetry_cell_setting 'orthorhombic'
loop_
_space_group_symop_operation_xyz
x,y,z
-x,-y,z
-x,y,z
x,-y,z
x,1/2+y,1/2+z
-x,1/2-y,1/2+z
-x,1/2+y,1/2+z
x,1/2-y,1/2+z
1/2+x,y,1/2+z
1/2-x,-y,1/2+z
1/2-x,y,1/2+z
1/2+x,-y,1/2+z
1/2+x,1/2+y,z
1/2-x,1/2-y,z
1/2-x,1/2+y,z
1/2+x,1/2-y,z
loop_
_atom_site_type_symbol
_atom_site_label
_atom_site_fract_x
_atom_site_fract_y
_atom_site_fract_z
Si Si1 0.118553 0.094326 0.150370
Si Si2 0.435021 0.094191 0.796752
Si Si3 0.165822 0.328858 0.877562
Si Si4 0.659706 0.855982 0.406804
Si Si5 0.764742 0.089081 0.794882
Si Si6 0.255533 0.156523 0.653701
Si Si7 0.237845 0.656217 0.001802
Si Si8 0.064299 0.405396 0.505306
O O1 0.082581 0.112429 0.218206
O O2 0.179114 0.133516 0.156135
O O3 0.089617 0.118433 0.079112
O O4 0.125748 0.000000 0.148706
O O5 0.500000 0.115366 0.808394
O O6 0.390954 0.136184 0.846824
O O7 0.429701 0.000000 0.804852
O O8 0.163092 0.235232 0.885606
O O9 0.217080 0.355104 0.828176
O O10 0.185285 0.359002 0.952477
O O11 0.679566 0.902740 0.340203
O O12 0.707132 0.876343 0.463838
O O13 0.601531 0.874283 0.443010
O O14 0.773629 0.115318 0.717491
O O15 0.743546 0.000000 0.797378
O O16 0.250000 0.250000 0.660052
O O17 0.232789 0.130450 0.579675
O O18 0.250000 0.750000 0.003656
O O19 0.065981 0.500000 0.503555
O O20 0.000000 0.380136 0.500507
#
# Coordination Sequence:
#
# PCOD9368500 Si02
#       8
#    16  16  16  16  16  16  16  16
#     4  10  19  33  52  77 107 135 167 208 254 314
#     4  10  20  34  52  75 103 136 170 208 256 306
#     4  10  19  33  52  73 101 132 172 211 250 304
#     4  10  19  34  51  73 102 134 171 210 253 303
#     4  11  21  33  49  75 105 136 169 208 260 311
#     4  11  19  31  52  77 102 137 167 204 255 306
#     4   8  17  31  48  72  99 129 161 203 252 299
#     4  10  20  34  53  77 104 137 173 212 261 309
#
# _framework density 16.093810000000001
#
# number of rings (size 3 to 8) (size 9 to 14) (size 15 to 20)
#    0.000    2.000    2.500    3.375    0.000    2.000 
#    0.000    1.875    0.000    0.000    0.000    0.875 
#    0.000    2.000    0.000    0.000    0.000    0.000 
#
# Total GULP energy -178439.743972 kJ/mol
# GULP energy per Si atom -5576.241999 kJ/mol
# Density = 1.605718 g / cm^3
# Si number density = 16.093810 Si / 1000 Ang^3
#
#
#
# Elastic Constant Matrix: (Units=GPa)
#
#
# Indices 1 2 3 4 5 6 
#
# 1 96.9883 24.6104 61.9145 0.0000 0.0000 0.0000
# 2 24.6104 37.1862 31.2690 0.0000 0.0000 0.0000
# 3 61.9145 31.2690 143.2092 0.0000 0.0000 0.0000
# 4 0.0000 0.0000 0.0000 12.6162 0.0000 0.0000
# 5 0.0000 0.0000 0.0000 0.0000 21.5671 0.0000
# 6 0.0000 0.0000 0.0000 0.0000 0.0000 13.4887
#
#
#
# Elastic Compliance Matrix: (Units=1/GPa)
#
#
# Indices 1 2 3 4 5 6 
#
# 1 0.015113 -0.005522 -0.005328 0.000000 0.000000 0.000000
# 2 -0.005522 0.034957 -0.005245 0.000000 0.000000 0.000000
# 3 -0.005328 -0.005245 0.010432 0.000000 0.000000 0.000000
# 4 0.000000 0.000000 0.000000 0.079263 0.000000 0.000000
# 5 0.000000 0.000000 0.000000 0.000000 0.046367 0.000000
# 6 0.000000 0.000000 0.000000 0.000000 0.000000 0.074136
#
#
# Mechanical properties :
#
#
# Convention : Reuss Voigt Hill
#
# Bulk Modulus (GPa) = 35.32216 56.99683 46.15949
# Shear Modulus (GPa) = 16.56203 20.17373 18.36788
#
# Velocity S-wave (km/s) = 3.21143 3.54433 3.38198
# Velocity P-wave (km/s) = 5.97882 7.22786 6.63281
#
# Compressibility (1/GPa) = 0.02831084
#
# Stress axis : x y z
#
# Youngs Moduli (GPa) = 66.16806 28.60675 95.86147
#
# Poissons Ratio (x) = 0.15796 0.51078
# Poissons Ratio (y) = 0.36535 0.50284
# Poissons Ratio (z) = 0.35256 0.15006
#
# Static dielectric constant tensor:
#      x y z
#    x 1.523110 0.000000 0.000000 
#    y 0.000000 1.541380 0.000000 
#    z 0.000000 0.000000 1.561940 
# 
# From -- ./inp_files/22332.got.cif
#   From: 2010.05.17/outbox.cif.g08.bks.cpg/sg42_12_cif.got.tgz:22332.got - 2010.06.03 19:03:34.
