data_PCOD9368470
_publ_section_title
;
Structure prediction by ZEFSAII (Michael W. Deem and Ramdas Pophale) SiO2 
 PCOD9368470
Probable space group: F M M 2
;
_chemical_formula_sum "Si O2"
_cell_formula_units_Z 80
_cell_length_a 26.853363
_cell_length_b 9.297648
_cell_length_c 14.788364
_cell_angle_alpha 90.000000
_cell_angle_beta 90.000000
_cell_angle_gamma 90.000000
_cell_volume 3692.256932
_symmetry_space_group_name_H-M "F M M 2"
_symmetry_group_IT_number 42
_symmetry_cell_setting 'orthorhombic'
loop_
_space_group_symop_operation_xyz
x,y,z
-x,-y,z
-x,y,z
x,-y,z
x,1/2+y,1/2+z
-x,1/2-y,1/2+z
-x,1/2+y,1/2+z
x,1/2-y,1/2+z
1/2+x,y,1/2+z
1/2-x,-y,1/2+z
1/2-x,y,1/2+z
1/2+x,-y,1/2+z
1/2+x,1/2+y,z
1/2-x,1/2-y,z
1/2-x,1/2+y,z
1/2+x,1/2-y,z
loop_
_atom_site_type_symbol
_atom_site_label
_atom_site_fract_x
_atom_site_fract_y
_atom_site_fract_z
Si Si1 0.699824 0.165613 0.367810
Si Si2 0.893516 0.837417 0.145340
Si Si3 0.897997 0.836970 0.359874
Si Si4 0.201248 0.336790 0.146306
Si Si5 0.000000 0.662665 0.603444
Si Si6 0.500000 0.836587 0.388939
O O1 0.750000 0.250000 0.394423
O O2 0.649349 0.247847 0.396047
O O3 0.700045 0.161814 0.256940
O O4 0.700197 0.000000 0.398589
O O5 0.887948 0.850635 0.252839
O O6 0.848022 0.742727 0.112834
O O7 0.947719 0.769190 0.129779
O O8 0.893095 0.000000 0.106154
O O9 0.949827 0.750958 0.366906
O O10 0.901735 0.000000 0.396889
O O11 0.203458 0.500000 0.115116
O O12 0.250000 0.250000 0.119430
O O13 0.000000 0.650169 0.496713
O O14 0.000000 0.500000 0.645368
O O15 0.500000 0.000000 0.350743
#
# Coordination Sequence:
#
# PCOD9368470 Si02
#       6
#    16  16  16  16   8   8
#     4   9  16  27  45  72 104 133 162 198 242 291
#     4   9  17  32  53  74  97 128 166 204 241 286
#     4  10  19  32  52  76 101 130 165 205 247 292
#     4   9  16  26  43  71 103 131 159 195 241 289
#     4   9  19  35  53  71  94 129 168 204 246 293
#     4  11  22  35  51  71  98 131 166 206 252 299
#
# _framework density 21.666962999999999
#
# number of rings (size 3 to 8) (size 9 to 14) (size 15 to 20)
#    0.000    2.600    0.000    2.700    0.000    7.200 
#    0.000    2.500    0.000    1.200    0.000    5.600 
#    0.000    0.000    0.000    0.000    0.000    0.000 
#
# Total GULP energy -111653.386258 kJ/mol
# GULP energy per Si atom -5582.669313 kJ/mol
# Density = 2.161765 g / cm^3
# Si number density = 21.666963 Si / 1000 Ang^3
#
#
#
# Elastic Constant Matrix: (Units=GPa)
#
#
# Indices 1 2 3 4 5 6 
#
# 1 259.1550 144.3904 -4.6464 0.0000 0.0000 0.0000
# 2 144.3904 198.6718 4.4211 0.0000 0.0000 0.0000
# 3 -4.6464 4.4211 33.4259 0.0000 0.0000 0.0000
# 4 0.0000 0.0000 0.0000 -8.9666 0.0000 0.0000
# 5 0.0000 0.0000 0.0000 0.0000 -107.5957 0.0000
# 6 0.0000 0.0000 0.0000 0.0000 0.0000 24.7762
#
#
#
# Elastic Compliance Matrix: (Units=1/GPa)
#
#
# Indices 1 2 3 4 5 6 
#
# 1 0.006563 -0.004805 0.001548 0.000000 0.000000 0.000000
# 2 -0.004805 0.008565 -0.001801 0.000000 0.000000 0.000000
# 3 0.001548 -0.001801 0.030370 0.000000 0.000000 0.000000
# 4 0.000000 0.000000 0.000000 -0.111525 0.000000 0.000000
# 5 0.000000 0.000000 0.000000 0.000000 -0.009294 0.000000
# 6 0.000000 0.000000 0.000000 0.000000 0.000000 0.040361
#
#
# Mechanical properties :
#
#
# Convention : Reuss Voigt Hill
#
# Bulk Modulus (GPa) = 28.26138 86.62031 57.44084
# Shear Modulus (GPa) = -383.16847 4.78196 -189.19325
#
# Velocity S-wave (km/s) = -13.31272 1.48722 -9.35459
# Velocity P-wave (km/s) = 14.94098 6.55850 9.49260
#
# Compressibility (1/GPa) = 0.03538398
#
# Stress axis : x y z
#
# Youngs Moduli (GPa) = 152.36172 116.74978 32.92695
#
# Poissons Ratio (x) = 0.56093 -0.05097
# Poissons Ratio (y) = 0.73203 0.05929
# Poissons Ratio (z) = -0.23583 0.21024
#
# Static dielectric constant tensor:
#      x y z
#    x 1.775290 0.000000 0.000000 
#    y 0.000000 1.793130 0.000000 
#    z 0.000000 0.000000 1.802720 
# 
# From -- ./inp_files/18224.got.cif
#   From: 2010.05.17/outbox.cif.g08.bks.cpg/sg42_10_cif.got.tgz:18224.got - 2010.06.03 19:03:34.
