data_PCOD9368707
_publ_section_title
;
Structure prediction by ZEFSAII (Michael W. Deem and Ramdas Pophale) SiO2 
 PCOD9368707
Probable space group: F M M 2
;
_chemical_formula_sum "Si O2"
_cell_formula_units_Z 112
_cell_length_a 31.320235
_cell_length_b 14.573724
_cell_length_c 12.503961
_cell_angle_alpha 90.000000
_cell_angle_beta 90.000000
_cell_angle_gamma 90.000000
_cell_volume 5707.463765
_symmetry_space_group_name_H-M "F M M 2"
_symmetry_group_IT_number 42
_symmetry_cell_setting 'orthorhombic'
loop_
_space_group_symop_operation_xyz
x,y,z
-x,-y,z
-x,y,z
x,-y,z
x,1/2+y,1/2+z
-x,1/2-y,1/2+z
-x,1/2+y,1/2+z
x,1/2-y,1/2+z
1/2+x,y,1/2+z
1/2-x,-y,1/2+z
1/2-x,y,1/2+z
1/2+x,-y,1/2+z
1/2+x,1/2+y,z
1/2-x,1/2-y,z
1/2-x,1/2+y,z
1/2+x,1/2-y,z
loop_
_atom_site_type_symbol
_atom_site_label
_atom_site_fract_x
_atom_site_fract_y
_atom_site_fract_z
Si Si1 0.599736 0.396322 0.971740
Si Si2 0.806473 0.399441 0.576813
Si Si3 0.312624 0.708370 0.645040
Si Si4 0.050600 0.892432 0.185165
Si Si5 0.384488 0.233797 0.808375
Si Si6 0.246959 0.397878 0.783355
Si Si7 0.821454 0.894188 0.441738
O O1 0.591745 0.500000 0.931876
O O2 0.602277 0.322534 0.877404
O O3 0.645176 0.399700 0.034718
O O4 0.565383 0.373116 0.063274
O O5 0.788734 0.500000 0.537643
O O6 0.795979 0.290763 0.567398
O O7 0.793582 0.403322 0.702409
O O8 0.354977 0.738627 0.707419
O O9 0.279965 0.673532 0.735121
O O10 0.320985 0.624037 0.567064
O O11 0.076616 0.826188 0.263468
O O12 0.000000 0.881683 0.196467
O O13 0.061708 0.000000 0.204986
O O14 0.355294 0.171533 0.885543
O O15 0.266336 0.500000 0.786213
O O16 0.225925 0.374689 0.895623
O O17 0.830555 0.000000 0.417286
#
# Coordination Sequence:
#
# PCOD9368707 Si02
#       7
#    16  16  16  16  16  16  16
#     4  10  21  39  61  90 125 161 201 242 300 362
#     4  10  19  36  59  84 116 160 206 252 295 344
#     4  12  23  38  60  86 118 156 210 250 304 358
#     4  10  21  40  67  94 120 153 195 240 288 360
#     4  12  22  38  61  95 121 158 191 251 303 358
#     4  10  22  39  57  81 116 158 207 260 302 346
#     4  11  23  40  60  84 118 162 204 253 309 358
#
# _framework density 19.623428000000001
#
# number of rings (size 3 to 8) (size 9 to 14) (size 15 to 20)
#    0.000    1.286    4.286    1.286    0.000    2.857 
#    2.571    2.857    0.000    0.857    0.000    0.000 
#    0.000    0.000    0.000    0.000    0.000    0.000 
#
# Total GULP energy -156128.407424 kJ/mol
# GULP energy per Si atom -5576.014551 kJ/mol
# Density = 1.957876 g / cm^3
# Si number density = 19.623428 Si / 1000 Ang^3
#
#
#
# Elastic Constant Matrix: (Units=GPa)
#
#
# Indices 1 2 3 4 5 6 
#
# 1 80.4001 56.0222 42.4574 0.0000 0.0000 0.0000
# 2 56.0222 133.7678 45.8903 0.0000 0.0000 0.0000
# 3 42.4574 45.8903 77.0374 0.0000 0.0000 0.0000
# 4 0.0000 0.0000 0.0000 39.4078 0.0000 0.0000
# 5 0.0000 0.0000 0.0000 0.0000 11.5480 0.0000
# 6 0.0000 0.0000 0.0000 0.0000 0.0000 24.8188
#
#
#
# Elastic Compliance Matrix: (Units=1/GPa)
#
#
# Indices 1 2 3 4 5 6 
#
# 1 0.020778 -0.005999 -0.007878 0.000000 0.000000 0.000000
# 2 -0.005999 0.011128 -0.003322 0.000000 0.000000 0.000000
# 3 -0.007878 -0.003322 0.019301 0.000000 0.000000 0.000000
# 4 0.000000 0.000000 0.000000 0.025376 0.000000 0.000000
# 5 0.000000 0.000000 0.000000 0.000000 0.086595 0.000000
# 6 0.000000 0.000000 0.000000 0.000000 0.000000 0.040292
#
#
# Mechanical properties :
#
#
# Convention : Reuss Voigt Hill
#
# Bulk Modulus (GPa) = 59.49303 64.43833 61.96568
# Shear Modulus (GPa) = 20.53625 24.94395 22.74010
#
# Velocity S-wave (km/s) = 3.23850 3.56916 3.40784
# Velocity P-wave (km/s) = 6.66086 7.06356 6.86516
#
# Compressibility (1/GPa) = 0.01680869
#
# Stress axis : x y z
#
# Youngs Moduli (GPa) = 48.12753 89.86360 51.80986
#
# Poissons Ratio (x) = 0.53913 0.40814
# Poissons Ratio (y) = 0.28874 0.17213
# Poissons Ratio (z) = 0.37913 0.29856
#
# Static dielectric constant tensor:
#      x y z
#    x 1.682600 0.000000 0.000000 
#    y 0.000000 1.759930 0.000000 
#    z 0.000000 0.000000 1.691960 
# 
# From -- ./inp_files/8093.got.cif
#   From: 2010.05.17/outbox.cif.g08.bks.cpg/sg42_5_cif.got.tgz:8093.got - 2010.06.03 19:03:34.
