data_PCOD9368989
_publ_section_title
;
Structure prediction by ZEFSAII (Michael W. Deem and Ramdas Pophale) SiO2 
 PCOD9368989
Probable space group: F M M 2
;
_chemical_formula_sum "Si O2"
_cell_formula_units_Z 80
_cell_length_a 15.923662
_cell_length_b 8.811199
_cell_length_c 29.530695
_cell_angle_alpha 90.000000
_cell_angle_beta 90.000000
_cell_angle_gamma 90.000000
_cell_volume 4143.350073
_symmetry_space_group_name_H-M "F M M 2"
_symmetry_group_IT_number 42
_symmetry_cell_setting 'orthorhombic'
loop_
_space_group_symop_operation_xyz
x,y,z
-x,-y,z
-x,y,z
x,-y,z
x,1/2+y,1/2+z
-x,1/2-y,1/2+z
-x,1/2+y,1/2+z
x,1/2-y,1/2+z
1/2+x,y,1/2+z
1/2-x,-y,1/2+z
1/2-x,y,1/2+z
1/2+x,-y,1/2+z
1/2+x,1/2+y,z
1/2-x,1/2-y,z
1/2-x,1/2+y,z
1/2+x,1/2-y,z
loop_
_atom_site_type_symbol
_atom_site_label
_atom_site_fract_x
_atom_site_fract_y
_atom_site_fract_z
Si Si1 0.336748 0.183166 0.586640
Si Si2 0.903468 0.325479 0.680680
Si Si3 0.000000 0.683567 0.527952
Si Si4 0.158298 0.319788 0.269247
Si Si5 0.343874 0.683215 0.872717
Si Si6 0.000000 0.318309 0.927960
O O1 0.250000 0.250000 0.568857
O O2 0.351194 0.237359 0.638421
O O3 0.416834 0.224247 0.556347
O O4 0.333032 0.000000 0.588015
O O5 0.877610 0.500000 0.688939
O O6 0.896173 0.239005 0.727720
O O7 0.000000 0.326993 0.665313
O O8 0.000000 0.500000 0.521865
O O9 0.000000 0.764427 0.479810
O O10 0.162977 0.500000 0.267458
O O11 0.250000 0.250000 0.262130
O O12 0.132330 0.278396 0.320412
O O13 0.340977 0.500000 0.877203
O O14 0.250000 0.750000 0.880925
O O15 0.416215 0.751455 0.904239
O O16 0.000000 0.500000 0.924394
#
# Coordination Sequence:
#
# PCOD9368989 Si02
#       6
#    16  16   8  16  16   8
#     4  10  21  39  63  88 118 158 200 244 298 357
#     4  10  20  35  56  85 122 162 202 242 291 352
#     4  10  22  44  65  84 117 157 198 249 309 366
#     4  10  21  36  56  84 119 158 201 245 292 349
#     4  10  22  42  65  91 125 163 206 254 304 362
#     4  12  26  42  65  94 123 157 202 253 313 374
#
# _framework density 19.308046999999998
#
# number of rings (size 3 to 8) (size 9 to 14) (size 15 to 20)
#    0.000    1.800    1.000    2.700    1.400    6.800 
#    0.000    2.000    0.000    0.000    0.000    0.000 
#    0.000    0.000    0.000    0.000    0.000    0.000 
#
# Total GULP energy -111682.461712 kJ/mol
# GULP energy per Si atom -5584.123086 kJ/mol
# Density = 1.926410 g / cm^3
# Si number density = 19.308047 Si / 1000 Ang^3
#
#
#
# Elastic Constant Matrix: (Units=GPa)
#
#
# Indices 1 2 3 4 5 6 
#
# 1 135.6208 45.2759 84.5973 0.0000 0.0000 0.0000
# 2 45.2759 56.7778 51.6213 0.0000 0.0000 0.0000
# 3 84.5973 51.6213 128.1511 0.0000 0.0000 0.0000
# 4 0.0000 0.0000 0.0000 28.7114 0.0000 0.0000
# 5 0.0000 0.0000 0.0000 0.0000 9.1758 0.0000
# 6 0.0000 0.0000 0.0000 0.0000 0.0000 29.4930
#
#
#
# Elastic Compliance Matrix: (Units=1/GPa)
#
#
# Indices 1 2 3 4 5 6 
#
# 1 0.013108 -0.004079 -0.007010 0.000000 0.000000 0.000000
# 2 -0.004079 0.029060 -0.009013 0.000000 0.000000 0.000000
# 3 -0.007010 -0.009013 0.016061 0.000000 0.000000 0.000000
# 4 0.000000 0.000000 0.000000 0.034829 0.000000 0.000000
# 5 0.000000 0.000000 0.000000 0.000000 0.108982 0.000000
# 6 0.000000 0.000000 0.000000 0.000000 0.000000 0.033906
#
#
# Mechanical properties :
#
#
# Convention : Reuss Voigt Hill
#
# Bulk Modulus (GPa) = 55.47858 75.94873 65.71366
# Shear Modulus (GPa) = 17.72053 22.74639 20.23346
#
# Velocity S-wave (km/s) = 3.03277 3.43604 3.24069
# Velocity P-wave (km/s) = 6.40776 7.42714 6.93621
#
# Compressibility (1/GPa) = 0.01802497
#
# Stress axis : x y z
#
# Youngs Moduli (GPa) = 76.28971 34.41189 62.26188
#
# Poissons Ratio (x) = 0.14038 0.43644
# Poissons Ratio (y) = 0.31122 0.56115
# Poissons Ratio (z) = 0.53477 0.31015
#
# Static dielectric constant tensor:
#      x y z
#    x 1.661600 0.000000 0.000000 
#    y 0.000000 1.657330 0.000000 
#    z 0.000000 0.000000 1.674780 
# 
# From -- ./inp_files/32766.got.cif
#   From: 2010.05.17/outbox.cif.g08.bks.cpg/sg42_17_cif.got.tgz:32766.got - 2010.06.03 19:03:34.
