data_PCOD9368803
_publ_section_title
;
Structure prediction by ZEFSAII (Michael W. Deem and Ramdas Pophale) SiO2 
 PCOD9368803
Probable space group: F M M 2
;
_chemical_formula_sum "Si O2"
_cell_formula_units_Z 96
_cell_length_a 7.579296
_cell_length_b 18.648693
_cell_length_c 32.634697
_cell_angle_alpha 90.000000
_cell_angle_beta 90.000000
_cell_angle_gamma 90.000000
_cell_volume 4612.717446
_symmetry_space_group_name_H-M "F M M 2"
_symmetry_group_IT_number 42
_symmetry_cell_setting 'orthorhombic'
loop_
_space_group_symop_operation_xyz
x,y,z
-x,-y,z
-x,y,z
x,-y,z
x,1/2+y,1/2+z
-x,1/2-y,1/2+z
-x,1/2+y,1/2+z
x,1/2-y,1/2+z
1/2+x,y,1/2+z
1/2-x,-y,1/2+z
1/2-x,y,1/2+z
1/2+x,-y,1/2+z
1/2+x,1/2+y,z
1/2-x,1/2-y,z
1/2-x,1/2+y,z
1/2+x,1/2-y,z
loop_
_atom_site_type_symbol
_atom_site_label
_atom_site_fract_x
_atom_site_fract_y
_atom_site_fract_z
Si Si1 0.716322 0.083496 0.717930
Si Si2 0.790232 0.419201 0.055863
Si Si3 0.209046 0.833757 0.138136
Si Si4 0.711896 0.666150 0.476811
Si Si5 0.783814 0.416535 0.896484
Si Si6 0.705819 0.912771 0.807222
O O1 0.500000 0.084986 0.719149
O O2 0.779458 0.130677 0.679938
O O3 0.779600 0.108729 0.762924
O O4 0.765165 0.000000 0.712019
O O5 0.718399 0.500000 0.058748
O O6 0.766774 0.375963 0.097759
O O7 0.719278 0.375701 0.016767
O O8 0.000000 0.425095 0.049552
O O9 0.250000 0.750000 0.135314
O O10 0.000000 0.841598 0.139949
O O11 0.500000 0.658220 0.476379
O O12 0.750000 0.750000 0.479327
O O13 0.776606 0.630862 0.434548
O O14 0.734721 0.500000 0.902421
O O15 0.720301 0.391300 0.851512
O O16 0.000000 0.415265 0.895293
O O17 0.500000 0.891395 0.807237
O O18 0.710411 0.000000 0.807207
#
# Coordination Sequence:
#
# PCOD9368803 Si02
#       6
#    16  16  16  16  16  16
#     4   8  14  26  45  69  95 123 158 201 245 286
#     4  10  21  37  56  76  97 123 159 204 250 295
#     4  11  22  35  51  72 101 134 166 201 243 291
#     4  10  20  33  49  71 100 130 158 192 237 287
#     4   8  13  24  45  70  93 121 160 201 237 277
#     4   7  10  19  39  67  94 118 151 198 243 279
#
# _framework density 20.812028000000002
#
# number of rings (size 3 to 8) (size 9 to 14) (size 15 to 20)
#    0.000    3.000    0.000    4.000    0.000    5.000 
#    0.000    0.833    0.000    1.500    0.000    1.167 
#    0.000    8.000    0.000    0.000    0.000    0.000 
#
# Total GULP energy -133854.091286 kJ/mol
# GULP energy per Si atom -5577.253804 kJ/mol
# Density = 2.076466 g / cm^3
# Si number density = 20.812028 Si / 1000 Ang^3
#
#
#
# Elastic Constant Matrix: (Units=GPa)
#
#
# Indices 1 2 3 4 5 6 
#
# 1 47.2219 0.0868 7.8924 0.0000 0.0000 0.0000
# 2 0.0868 140.3159 126.3141 0.0000 0.0000 0.0000
# 3 7.8924 126.3141 260.0574 0.0000 0.0000 0.0000
# 4 0.0000 0.0000 0.0000 -3.8833 0.0000 0.0000
# 5 0.0000 0.0000 0.0000 0.0000 5.2762 0.0000
# 6 0.0000 0.0000 0.0000 0.0000 0.0000 7.0771
#
#
#
# Elastic Compliance Matrix: (Units=1/GPa)
#
#
# Indices 1 2 3 4 5 6 
#
# 1 0.021365 0.001014 -0.001141 0.000000 0.000000 0.000000
# 2 0.001014 0.012712 -0.006205 0.000000 0.000000 0.000000
# 3 -0.001141 -0.006205 0.006894 0.000000 0.000000 0.000000
# 4 0.000000 0.000000 0.000000 -0.257513 0.000000 0.000000
# 5 0.000000 0.000000 0.000000 0.000000 0.189531 0.000000
# 6 0.000000 0.000000 0.000000 0.000000 0.000000 0.141302
#
#
# Mechanical properties :
#
#
# Convention : Reuss Voigt Hill
#
# Bulk Modulus (GPa) = 35.32709 79.57575 57.45142
# Shear Modulus (GPa) = 36.65918 22.58078 29.61998
#
# Velocity S-wave (km/s) = 4.20151 3.29749 3.77664
# Velocity P-wave (km/s) = 6.36774 7.26749 6.83244
#
# Compressibility (1/GPa) = 0.02830689
#
# Stress axis : x y z
#
# Youngs Moduli (GPa) = 46.80459 78.66428 145.05474
#
# Poissons Ratio (x) = -0.07975 0.16548
# Poissons Ratio (y) = -0.04745 0.90011
# Poissons Ratio (z) = 0.05340 0.48814
#
# Static dielectric constant tensor:
#      x y z
#    x 1.825100 0.000000 0.000000 
#    y 0.000000 1.689670 0.000000 
#    z 0.000000 0.000000 1.778220 
# 
# From -- ./inp_files/32144.got.cif
#   From: 2010.05.17/outbox.cif.g08.bks.cpg/sg42_17_cif.got.tgz:32144.got - 2010.06.03 19:03:34.
