data_PCOD9368094
_publ_section_title
;
Structure prediction by ZEFSAII (Michael W. Deem and Ramdas Pophale) SiO2 
 PCOD9368094
Probable space group: F M M 2
;
_chemical_formula_sum "Si O2"
_cell_formula_units_Z 100
_cell_length_a 16.880081
_cell_length_b 20.071985
_cell_length_c 14.839147
_cell_angle_alpha 90.000000
_cell_angle_beta 90.000000
_cell_angle_gamma 90.000000
_cell_volume 5027.751302
_symmetry_space_group_name_H-M "F M M 2"
_symmetry_group_IT_number 42
_symmetry_cell_setting 'orthorhombic'
loop_
_space_group_symop_operation_xyz
x,y,z
-x,-y,z
-x,y,z
x,-y,z
x,1/2+y,1/2+z
-x,1/2-y,1/2+z
-x,1/2+y,1/2+z
x,1/2-y,1/2+z
1/2+x,y,1/2+z
1/2-x,-y,1/2+z
1/2-x,y,1/2+z
1/2+x,-y,1/2+z
1/2+x,1/2+y,z
1/2-x,1/2-y,z
1/2-x,1/2+y,z
1/2+x,1/2-y,z
loop_
_atom_site_type_symbol
_atom_site_label
_atom_site_fract_x
_atom_site_fract_y
_atom_site_fract_z
Si Si1 0.906058 0.624261 0.615160
Si Si2 0.841545 0.427221 0.801671
Si Si3 0.678273 0.801346 0.908968
Si Si4 0.903479 0.574020 0.419986
Si Si5 0.404936 0.194419 0.291297
Si Si6 0.406600 0.216291 0.093337
Si Si7 0.000000 0.000000 0.347571
O O1 0.857260 0.599620 0.700910
O O2 0.879416 0.589987 0.522393
O O3 0.900134 0.703405 0.599681
O O4 0.000000 0.608246 0.630111
O O5 0.801541 0.500000 0.798735
O O6 0.802111 0.371486 0.863375
O O7 0.929167 0.443148 0.841537
O O8 0.750000 0.750000 0.919363
O O9 0.620592 0.762377 0.839771
O O10 0.638403 0.809320 0.006026
O O11 0.878764 0.500000 0.393461
O O12 0.879975 0.632444 0.352473
O O13 0.000000 0.575391 0.421352
O O14 0.500000 0.194799 0.285961
O O15 0.374957 0.189983 0.189019
O O16 0.500000 0.200546 0.084515
#
# Coordination Sequence:
#
# PCOD9368094 Si02
#       7
#    16  16  16  16  16  16   4
#     4  10  15  28  54  93 121 147 191 263 322 357
#     4  10  20  35  60  94 126 157 204 263 327 363
#     4  12  25  39  58  88 126 168 201 248 315 392
#     4   9  17  28  50  83 121 150 186 238 306 370
#     4  10  20  37  59  86 114 153 204 258 311 361
#     4  10  21  34  60  87 116 154 207 264 306 361
#     4   8  20  32  64 100 124 158 204 284 328 356
#
# _framework density 19.889607999999999
#
# number of rings (size 3 to 8) (size 9 to 14) (size 15 to 20)
#    0.480    1.440    4.000    0.960    2.240    1.280 
#    0.000    1.600    0.000    0.960    0.000    0.000 
#    0.000    0.000    0.000    0.000    0.000    0.000 
#
# Total GULP energy -139278.910987 kJ/mol
# GULP energy per Si atom -5571.156439 kJ/mol
# Density = 1.984434 g / cm^3
# Si number density = 19.889608 Si / 1000 Ang^3
#
#
#
# Elastic Constant Matrix: (Units=GPa)
#
#
# Indices 1 2 3 4 5 6 
#
# 1 38.1851 5.2527 26.5156 0.0000 0.0000 0.0000
# 2 5.2527 91.0816 54.6488 0.0000 0.0000 0.0000
# 3 26.5156 54.6488 154.8930 0.0000 0.0000 0.0000
# 4 0.0000 0.0000 0.0000 17.1594 0.0000 0.0000
# 5 0.0000 0.0000 0.0000 0.0000 -22.2431 0.0000
# 6 0.0000 0.0000 0.0000 0.0000 0.0000 -1.2803
#
#
#
# Elastic Compliance Matrix: (Units=1/GPa)
#
#
# Indices 1 2 3 4 5 6 
#
# 1 0.029930 0.001710 -0.005727 0.000000 0.000000 0.000000
# 2 0.001710 0.014025 -0.005241 0.000000 0.000000 0.000000
# 3 -0.005727 -0.005241 0.009286 0.000000 0.000000 0.000000
# 4 0.000000 0.000000 0.000000 0.058277 0.000000 0.000000
# 5 0.000000 0.000000 0.000000 0.000000 -0.044958 0.000000
# 6 0.000000 0.000000 0.000000 0.000000 0.000000 -0.781058
#
#
# Mechanical properties :
#
#
# Convention : Reuss Voigt Hill
#
# Bulk Modulus (GPa) = 28.79795 50.77709 39.78752
# Shear Modulus (GPa) = -7.30559 11.91004 2.30223
#
# Velocity S-wave (km/s) = -1.91860 2.44971 1.07704
# Velocity P-wave (km/s) = 3.09875 5.79537 4.64697
#
# Compressibility (1/GPa) = 0.03472470
#
# Stress axis : x y z
#
# Youngs Moduli (GPa) = 33.41159 71.30038 107.69397
#
# Poissons Ratio (x) = -0.12193 0.61675
# Poissons Ratio (y) = -0.05714 0.56443
# Poissons Ratio (z) = 0.19135 0.37369
#
# Static dielectric constant tensor:
#      x y z
#    x 1.722370 0.000000 0.000000 
#    y 0.000000 1.710100 0.000000 
#    z 0.000000 0.000000 1.683920 
# 
# From -- ./inp_files/15222.got.cif
#   From: 2010.05.17/outbox.cif.g08.bks.cpg/sg42_8_cif.got.tgz:15222.got - 2010.06.03 19:03:34.
