data_PCOD9368101
_publ_section_title
;
Structure prediction by ZEFSAII (Michael W. Deem and Ramdas Pophale) SiO2 
 PCOD9368101
Probable space group: F M M 2
;
_chemical_formula_sum "Si O2"
_cell_formula_units_Z 88
_cell_length_a 9.598793
_cell_length_b 24.096502
_cell_length_c 20.960374
_cell_angle_alpha 90.000000
_cell_angle_beta 90.000000
_cell_angle_gamma 90.000000
_cell_volume 4848.078641
_symmetry_space_group_name_H-M "F M M 2"
_symmetry_group_IT_number 42
_symmetry_cell_setting 'orthorhombic'
loop_
_space_group_symop_operation_xyz
x,y,z
-x,-y,z
-x,y,z
x,-y,z
x,1/2+y,1/2+z
-x,1/2-y,1/2+z
-x,1/2+y,1/2+z
x,1/2-y,1/2+z
1/2+x,y,1/2+z
1/2-x,-y,1/2+z
1/2-x,y,1/2+z
1/2+x,-y,1/2+z
1/2+x,1/2+y,z
1/2-x,1/2-y,z
1/2-x,1/2+y,z
1/2+x,1/2-y,z
loop_
_atom_site_type_symbol
_atom_site_label
_atom_site_fract_x
_atom_site_fract_y
_atom_site_fract_z
Si Si1 0.844369 0.625002 0.126470
Si Si2 0.163956 0.607105 0.983804
Si Si3 0.167505 0.500000 0.793916
Si Si4 0.261682 0.500000 0.647184
Si Si5 0.344206 0.000000 0.510736
Si Si6 0.831974 0.880494 0.344041
Si Si7 0.168030 0.192606 0.223921
O O1 0.841015 0.558224 0.136401
O O2 0.724770 0.652078 0.168753
O O3 0.000000 0.644747 0.144275
O O4 0.820441 0.637515 0.051522
O O5 0.258592 0.553120 0.988846
O O6 0.201433 0.635453 0.916807
O O7 0.000000 0.591217 0.980321
O O8 0.203633 0.500000 0.718857
O O9 0.218849 0.557240 0.826237
O O10 0.000000 0.500000 0.799787
O O11 0.154580 0.500000 0.588073
O O12 0.500000 0.000000 0.485906
O O13 0.789498 0.836885 0.290404
O O14 0.000000 0.882820 0.339723
O O15 0.250000 0.250000 0.217525
O O16 0.000000 0.198770 0.221268
#
# Coordination Sequence:
#
# PCOD9368101 Si02
#       7
#    16  16   8   8   8  16  16
#     4  10  20  35  57  85 115 148 182 222 273 328
#     4   9  18  34  55  77 108 147 185 222 268 329
#     4  10  16  26  50  84 112 139 180 223 264 319
#     4  10  18  30  51  81 118 151 178 220 270 325
#     4  10  19  28  45  77 118 152 182 221 268 322
#     4   9  18  33  57  83 108 143 185 223 268 328
#     4  11  23  40  61  82 107 142 185 234 281 327
#
# _framework density 18.151520000000001
#
# number of rings (size 3 to 8) (size 9 to 14) (size 15 to 20)
#    0.000    2.182    1.818    1.909    0.000    6.545 
#    0.000    2.727    0.000    2.182    0.000    0.000 
#    0.000    0.000    0.000    0.000    0.000    0.000 
#
# Total GULP energy -122560.208620 kJ/mol
# GULP energy per Si atom -5570.918574 kJ/mol
# Density = 1.811021 g / cm^3
# Si number density = 18.151520 Si / 1000 Ang^3
#
#
#
# Elastic Constant Matrix: (Units=GPa)
#
#
# Indices 1 2 3 4 5 6 
#
# 1 73.9656 26.4420 37.8860 0.0000 0.0000 0.0000
# 2 26.4420 65.4332 34.5749 0.0000 0.0000 0.0000
# 3 37.8860 34.5749 126.4318 0.0000 0.0000 0.0000
# 4 0.0000 0.0000 0.0000 3.8723 0.0000 0.0000
# 5 0.0000 0.0000 0.0000 0.0000 20.5853 0.0000
# 6 0.0000 0.0000 0.0000 0.0000 0.0000 10.5502
#
#
#
# Elastic Compliance Matrix: (Units=1/GPa)
#
#
# Indices 1 2 3 4 5 6 
#
# 1 0.017243 -0.004954 -0.003812 0.000000 0.000000 0.000000
# 2 -0.004954 0.019287 -0.003790 0.000000 0.000000 0.000000
# 3 -0.003812 -0.003790 0.010088 0.000000 0.000000 0.000000
# 4 0.000000 0.000000 0.000000 0.258243 0.000000 0.000000
# 5 0.000000 0.000000 0.000000 0.000000 0.048578 0.000000
# 6 0.000000 0.000000 0.000000 0.000000 0.000000 0.094785
#
#
# Mechanical properties :
#
#
# Convention : Reuss Voigt Hill
#
# Bulk Modulus (GPa) = 46.49724 51.51516 49.00620
# Shear Modulus (GPa) = 10.40569 18.13008 14.26789
#
# Velocity S-wave (km/s) = 2.39690 3.16384 2.80669
# Velocity P-wave (km/s) = 5.77338 6.46442 6.12865
#
# Compressibility (1/GPa) = 0.02150665
#
# Stress axis : x y z
#
# Youngs Moduli (GPa) = 57.99296 51.84775 99.12521
#
# Poissons Ratio (x) = 0.25684 0.37791
# Poissons Ratio (y) = 0.28728 0.37568
# Poissons Ratio (z) = 0.22109 0.19650
#
# Static dielectric constant tensor:
#      x y z
#    x 1.611730 0.000000 0.000000 
#    y 0.000000 1.613350 0.000000 
#    z 0.000000 0.000000 1.656350 
# 
# From -- ./inp_files/23590.got.cif
#   From: 2010.05.17/outbox.cif.g08.bks.cpg/sg42_12_cif.got.tgz:23590.got - 2010.06.03 19:03:34.
