data_PCOD9368511
_publ_section_title
;
Structure prediction by ZEFSAII (Michael W. Deem and Ramdas Pophale) SiO2 
 PCOD9368511
Probable space group: F M M 2
;
_chemical_formula_sum "Si O2"
_cell_formula_units_Z 88
_cell_length_a 20.093074
_cell_length_b 13.452088
_cell_length_c 19.343325
_cell_angle_alpha 90.000000
_cell_angle_beta 90.000000
_cell_angle_gamma 90.000000
_cell_volume 5228.380812
_symmetry_space_group_name_H-M "F M M 2"
_symmetry_group_IT_number 42
_symmetry_cell_setting 'orthorhombic'
loop_
_space_group_symop_operation_xyz
x,y,z
-x,-y,z
-x,y,z
x,-y,z
x,1/2+y,1/2+z
-x,1/2-y,1/2+z
-x,1/2+y,1/2+z
x,1/2-y,1/2+z
1/2+x,y,1/2+z
1/2-x,-y,1/2+z
1/2-x,y,1/2+z
1/2+x,-y,1/2+z
1/2+x,1/2+y,z
1/2-x,1/2-y,z
1/2-x,1/2+y,z
1/2+x,1/2-y,z
loop_
_atom_site_type_symbol
_atom_site_label
_atom_site_fract_x
_atom_site_fract_y
_atom_site_fract_z
Si Si1 0.000000 0.620729 0.869761
Si Si2 0.677145 0.707033 0.181693
Si Si3 0.647700 0.117446 0.825074
Si Si4 0.869406 0.883895 0.609972
Si Si5 0.277123 0.884749 0.541022
Si Si6 0.750000 0.250000 0.415934
Si Si7 0.000000 0.119872 0.524763
O O1 0.071068 0.648205 0.837955
O O2 0.000000 0.500000 0.869584
O O3 0.000000 0.659581 0.947810
O O4 0.750000 0.750000 0.196881
O O5 0.659592 0.634902 0.243810
O O6 0.633392 0.806062 0.172469
O O7 0.681237 0.654907 0.106614
O O8 0.698630 0.185671 0.869469
O O9 0.656067 0.000000 0.843110
O O10 0.800377 0.874471 0.566533
O O11 0.932481 0.855322 0.564055
O O12 0.874432 0.000000 0.630380
O O13 0.285928 0.824386 0.470358
O O14 0.290245 0.000000 0.529896
O O15 0.000000 0.000000 0.519719
#
# Coordination Sequence:
#
# PCOD9368511 Si02
#       7
#     8  16  16  16  16   8   8
#     4   9  20  35  54  78 112 148 178 222 280 324
#     4  10  19  36  52  79 109 142 186 220 276 327
#     4  11  23  38  56  82 114 148 185 228 274 329
#     4   9  17  30  52  78 108 137 175 224 268 317
#     4  10  19  33  53  78 109 138 171 227 273 315
#     4  12  20  34  56  86 110 140 188 224 274 330
#     4   9  16  29  50  80 108 138 174 218 272 322
#
# _framework density 16.831215
#
# number of rings (size 3 to 8) (size 9 to 14) (size 15 to 20)
#    0.000    2.000    3.636    2.182    0.000    4.364 
#    0.000    0.000    0.000    0.000    0.000    5.091 
#    0.000    0.000    0.000    0.000    0.000    0.000 
#
# Total GULP energy -122526.211846 kJ/mol
# GULP energy per Si atom -5569.373266 kJ/mol
# Density = 1.679291 g / cm^3
# Si number density = 16.831215 Si / 1000 Ang^3
#
#
#
# Elastic Constant Matrix: (Units=GPa)
#
#
# Indices 1 2 3 4 5 6 
#
# 1 71.7419 29.5001 42.4975 0.0000 0.0000 0.0000
# 2 29.5001 97.6361 45.3578 0.0000 0.0000 0.0000
# 3 42.4975 45.3578 97.4999 0.0000 0.0000 0.0000
# 4 0.0000 0.0000 0.0000 30.2436 0.0000 0.0000
# 5 0.0000 0.0000 0.0000 0.0000 0.4700 0.0000
# 6 0.0000 0.0000 0.0000 0.0000 0.0000 16.1743
#
#
#
# Elastic Compliance Matrix: (Units=1/GPa)
#
#
# Indices 1 2 3 4 5 6 
#
# 1 0.019238 -0.002446 -0.007247 0.000000 0.000000 0.000000
# 2 -0.002446 0.013377 -0.005157 0.000000 0.000000 0.000000
# 3 -0.007247 -0.005157 0.015814 0.000000 0.000000 0.000000
# 4 0.000000 0.000000 0.000000 0.033065 0.000000 0.000000
# 5 0.000000 0.000000 0.000000 0.000000 2.127452 0.000000
# 6 0.000000 0.000000 0.000000 0.000000 0.000000 0.061826
#
#
# Mechanical properties :
#
#
# Convention : Reuss Voigt Hill
#
# Bulk Modulus (GPa) = 53.39395 55.73209 54.56302
# Shear Modulus (GPa) = 2.16758 19.34577 10.75668
#
# Velocity S-wave (km/s) = 1.13606 3.39396 2.53077
# Velocity P-wave (km/s) = 5.78903 6.96727 6.40530
#
# Compressibility (1/GPa) = 0.01872871
#
# Stress axis : x y z
#
# Youngs Moduli (GPa) = 51.98152 74.75629 63.23342
#
# Poissons Ratio (x) = 0.18283 0.45828
# Poissons Ratio (y) = 0.12713 0.32609
# Poissons Ratio (z) = 0.37673 0.38552
#
# Static dielectric constant tensor:
#      x y z
#    x 1.646820 0.000000 0.000000 
#    y 0.000000 1.597570 0.000000 
#    z 0.000000 0.000000 1.579740 
# 
# From -- ./inp_files/21649.got.cif
#   From: 2010.05.17/outbox.cif.g08.bks.cpg/sg42_11_cif.got.tgz:21649.got - 2010.06.03 19:03:34.
