data_PCOD9368725
_publ_section_title
;
Structure prediction by ZEFSAII (Michael W. Deem and Ramdas Pophale) SiO2 
 PCOD9368725
Probable space group: F M M 2
;
_chemical_formula_sum "Si O2"
_cell_formula_units_Z 104
_cell_length_a 27.562655
_cell_length_b 11.373778
_cell_length_c 14.314043
_cell_angle_alpha 90.000000
_cell_angle_beta 90.000000
_cell_angle_gamma 90.000000
_cell_volume 4487.331084
_symmetry_space_group_name_H-M "F M M 2"
_symmetry_group_IT_number 42
_symmetry_cell_setting 'orthorhombic'
loop_
_space_group_symop_operation_xyz
x,y,z
-x,-y,z
-x,y,z
x,-y,z
x,1/2+y,1/2+z
-x,1/2-y,1/2+z
-x,1/2+y,1/2+z
x,1/2-y,1/2+z
1/2+x,y,1/2+z
1/2-x,-y,1/2+z
1/2-x,y,1/2+z
1/2+x,-y,1/2+z
1/2+x,1/2+y,z
1/2-x,1/2-y,z
1/2-x,1/2+y,z
1/2+x,1/2-y,z
loop_
_atom_site_type_symbol
_atom_site_label
_atom_site_fract_x
_atom_site_fract_y
_atom_site_fract_z
Si Si1 0.701385 0.204896 0.160150
Si Si2 0.221716 0.130070 0.868204
Si Si3 0.389011 0.685186 0.896535
Si Si4 0.949674 0.000000 0.511340
Si Si5 0.382272 0.138796 0.739884
Si Si6 0.553383 0.233656 0.579384
Si Si7 0.059365 0.500000 0.265554
Si Si8 0.862155 0.000000 0.591123
O O1 0.750000 0.250000 0.112584
O O2 0.717811 0.138383 0.255015
O O3 0.667134 0.310344 0.194883
O O4 0.669915 0.115538 0.100361
O O5 0.250000 0.250000 0.895241
O O6 0.165693 0.137065 0.900468
O O7 0.241721 0.000000 0.893814
O O8 0.386051 0.809220 0.843387
O O9 0.424511 0.609032 0.830403
O O10 0.411568 0.690933 0.998073
O O11 0.951737 0.874396 0.565475
O O12 0.892389 0.000000 0.495212
O O13 0.000000 0.000000 0.452651
O O14 0.424605 0.196405 0.677437
O O15 0.384576 0.000000 0.736233
O O16 0.500000 0.182298 0.567395
O O17 0.100606 0.500000 0.181937
O O18 0.000000 0.500000 0.245761
#
# Coordination Sequence:
#
# PCOD9368725 Si02
#       8
#    16  16  16   8  16  16   8   8
#     4  10  20  34  61  91 128 169 216 264 331 399
#     4  10  19  36  62  95 133 175 226 281 339 404
#     4  11  23  43  67  98 136 175 228 276 338 404
#     4  10  21  40  66  89 125 170 219 274 335 395
#     4  11  25  43  64  98 138 173 220 281 339 401
#     4  11  25  44  67  97 132 178 224 278 344 409
#     4  12  21  36  64  93 125 170 227 276 323 391
#     4  12  17  38  62  94 122 160 225 274 316 388
#
# _framework density 23.176359999999999
#
# number of rings (size 3 to 8) (size 9 to 14) (size 15 to 20)
#    0.000    1.231    6.154    0.692    3.231    6.462 
#    0.000    0.769    0.000    0.000    0.000    0.000 
#    0.000    0.000    0.000    0.000    0.000    0.000 
#
# Total GULP energy -145146.074105 kJ/mol
# GULP energy per Si atom -5582.541312 kJ/mol
# Density = 2.312361 g / cm^3
# Si number density = 23.176360 Si / 1000 Ang^3
#
#
#
# Elastic Constant Matrix: (Units=GPa)
#
#
# Indices 1 2 3 4 5 6 
#
# 1 147.7958 34.4695 25.2734 0.0000 0.0000 0.0000
# 2 34.4695 144.3262 22.5838 0.0000 0.0000 0.0000
# 3 25.2734 22.5838 57.3259 0.0000 0.0000 0.0000
# 4 0.0000 0.0000 0.0000 19.0191 0.0000 0.0000
# 5 0.0000 0.0000 0.0000 0.0000 14.0134 0.0000
# 6 0.0000 0.0000 0.0000 0.0000 0.0000 18.8384
#
#
#
# Elastic Compliance Matrix: (Units=1/GPa)
#
#
# Indices 1 2 3 4 5 6 
#
# 1 0.007563 -0.001369 -0.002795 0.000000 0.000000 0.000000
# 2 -0.001369 0.007632 -0.002403 0.000000 0.000000 0.000000
# 3 -0.002795 -0.002403 0.019623 0.000000 0.000000 0.000000
# 4 0.000000 0.000000 0.000000 0.052579 0.000000 0.000000
# 5 0.000000 0.000000 0.000000 0.000000 0.071360 0.000000
# 6 0.000000 0.000000 0.000000 0.000000 0.000000 0.053083
#
#
# Mechanical properties :
#
#
# Convention : Reuss Voigt Hill
#
# Bulk Modulus (GPa) = 46.11720 57.12237 51.61979
# Shear Modulus (GPa) = 21.53294 28.18226 24.85760
#
# Velocity S-wave (km/s) = 3.05141 3.49089 3.27852
# Velocity P-wave (km/s) = 5.68826 6.39912 6.05413
#
# Compressibility (1/GPa) = 0.02168388
#
# Stress axis : x y z
#
# Youngs Moduli (GPa) = 132.21654 131.03210 50.96032
#
# Poissons Ratio (x) = 0.17938 0.14244
# Poissons Ratio (y) = 0.18100 0.12246
# Poissons Ratio (z) = 0.36957 0.31487
#
# Static dielectric constant tensor:
#      x y z
#    x 1.926250 0.000000 0.000000 
#    y 0.000000 1.916000 0.000000 
#    z 0.000000 0.000000 1.877850 
# 
# From -- ./inp_files/22571.got.cif
#   From: 2010.05.17/outbox.cif.g08.bks.cpg/sg42_12_cif.got.tgz:22571.got - 2010.06.03 19:03:34.
