data_PCOD9368840
_publ_section_title
;
Structure prediction by ZEFSAII (Michael W. Deem and Ramdas Pophale) SiO2 
 PCOD9368840
Probable space group: F M M 2
;
_chemical_formula_sum "Si O2"
_cell_formula_units_Z 112
_cell_length_a 18.341018
_cell_length_b 15.530571
_cell_length_c 20.443181
_cell_angle_alpha 90.000000
_cell_angle_beta 90.000000
_cell_angle_gamma 90.000000
_cell_volume 5823.168194
_symmetry_space_group_name_H-M "F M M 2"
_symmetry_group_IT_number 42
_symmetry_cell_setting 'orthorhombic'
loop_
_space_group_symop_operation_xyz
x,y,z
-x,-y,z
-x,y,z
x,-y,z
x,1/2+y,1/2+z
-x,1/2-y,1/2+z
-x,1/2+y,1/2+z
x,1/2-y,1/2+z
1/2+x,y,1/2+z
1/2-x,-y,1/2+z
1/2-x,y,1/2+z
1/2+x,-y,1/2+z
1/2+x,1/2+y,z
1/2-x,1/2-y,z
1/2-x,1/2+y,z
1/2+x,1/2-y,z
loop_
_atom_site_type_symbol
_atom_site_label
_atom_site_fract_x
_atom_site_fract_y
_atom_site_fract_z
Si Si1 0.791818 0.157428 0.494560
Si Si2 0.178767 0.595787 0.740793
Si Si3 0.086408 0.267740 0.079125
Si Si4 0.827733 0.405901 0.589197
Si Si5 0.418320 0.897844 0.343953
Si Si6 0.915552 0.263176 0.227404
Si Si7 0.762848 0.351116 0.361570
O O1 0.750000 0.250000 0.491113
O O2 0.869075 0.175507 0.527541
O O3 0.741128 0.102557 0.542099
O O4 0.789889 0.122408 0.420994
O O5 0.145248 0.500000 0.748540
O O6 0.199176 0.603266 0.664319
O O7 0.127867 0.679102 0.751281
O O8 0.243048 0.603339 0.793640
O O9 0.115542 0.169781 0.073785
O O10 0.107111 0.291112 0.154322
O O11 0.000000 0.273821 0.070709
O O12 0.861868 0.500000 0.582410
O O13 0.500000 0.879577 0.371329
O O14 0.411018 0.841018 0.278310
O O15 0.345922 0.870632 0.383202
O O16 0.414801 0.000000 0.331967
O O17 0.000000 0.237356 0.221786
O O18 0.750000 0.250000 0.350126
#
# Coordination Sequence:
#
# PCOD9368840 Si02
#       7
#    16  16  16  16  16  16  16
#     4   9  20  36  54  78 112 150 192 231 282 343
#     4  10  20  33  55  85 113 152 199 239 286 347
#     4   9  18  35  59  83 112 148 189 236 285 343
#     4   9  19  34  55  83 113 147 189 240 291 338
#     4  10  21  37  58  85 116 147 187 240 295 349
#     4   9  18  34  57  86 118 153 188 236 295 342
#     4  11  21  36  56  80 115 157 194 237 295 351
#
# _framework density 19.233516999999999
#
# number of rings (size 3 to 8) (size 9 to 14) (size 15 to 20)
#    0.000    2.429    1.429    0.429    2.000    2.286 
#    0.000   10.000    0.000    0.429    0.000    0.000 
#    0.000    0.000    0.000    0.000    0.000    0.000 
#
# Total GULP energy -156026.802492 kJ/mol
# GULP energy per Si atom -5572.385803 kJ/mol
# Density = 1.918974 g / cm^3
# Si number density = 19.233517 Si / 1000 Ang^3
#
#
#
# Elastic Constant Matrix: (Units=GPa)
#
#
# Indices 1 2 3 4 5 6 
#
# 1 86.7291 16.4004 23.9948 0.0000 0.0000 0.0000
# 2 16.4004 62.0544 8.8016 0.0000 0.0000 0.0000
# 3 23.9948 8.8016 48.4068 0.0000 0.0000 0.0000
# 4 0.0000 0.0000 0.0000 6.8447 0.0000 0.0000
# 5 0.0000 0.0000 0.0000 0.0000 26.8993 0.0000
# 6 0.0000 0.0000 0.0000 0.0000 0.0000 20.2832
#
#
#
# Elastic Compliance Matrix: (Units=1/GPa)
#
#
# Indices 1 2 3 4 5 6 
#
# 1 0.013805 -0.002749 -0.006343 0.000000 0.000000 0.000000
# 2 -0.002749 0.017089 -0.001745 0.000000 0.000000 0.000000
# 3 -0.006343 -0.001745 0.024120 0.000000 0.000000 0.000000
# 4 0.000000 0.000000 0.000000 0.146099 0.000000 0.000000
# 5 0.000000 0.000000 0.000000 0.000000 0.037176 0.000000
# 6 0.000000 0.000000 0.000000 0.000000 0.000000 0.049302
#
#
# Mechanical properties :
#
#
# Convention : Reuss Voigt Hill
#
# Bulk Modulus (GPa) = 29.99379 32.84267 31.41823
# Shear Modulus (GPa) = 15.60662 20.67166 18.13914
#
# Velocity S-wave (km/s) = 2.85165 3.28193 3.07433
# Velocity P-wave (km/s) = 5.14499 5.61019 5.38262
#
# Compressibility (1/GPa) = 0.03334023
#
# Stress axis : x y z
#
# Youngs Moduli (GPa) = 72.43815 58.51777 41.45982
#
# Poissons Ratio (x) = 0.16085 0.26299
# Poissons Ratio (y) = 0.19912 0.07233
# Poissons Ratio (z) = 0.45949 0.10209
#
# Static dielectric constant tensor:
#      x y z
#    x 1.675030 0.000000 0.000000 
#    y 0.000000 1.681040 0.000000 
#    z 0.000000 0.000000 1.708980 
# 
# From -- ./inp_files/26080.got.cif
#   From: 2010.05.17/outbox.cif.g08.bks.cpg/sg42_14_cif.got.tgz:26080.got - 2010.06.03 19:03:34.
