data_PCOD9368638
_publ_section_title
;
Structure prediction by ZEFSAII (Michael W. Deem and Ramdas Pophale) SiO2 
 PCOD9368638
Probable space group: F M M 2
;
_chemical_formula_sum "Si O2"
_cell_formula_units_Z 80
_cell_length_a 25.192673
_cell_length_b 17.204369
_cell_length_c 7.815786
_cell_angle_alpha 90.000000
_cell_angle_beta 90.000000
_cell_angle_gamma 90.000000
_cell_volume 3387.549563
_symmetry_space_group_name_H-M "F M M 2"
_symmetry_group_IT_number 42
_symmetry_cell_setting 'orthorhombic'
loop_
_space_group_symop_operation_xyz
x,y,z
-x,-y,z
-x,y,z
x,-y,z
x,1/2+y,1/2+z
-x,1/2-y,1/2+z
-x,1/2+y,1/2+z
x,1/2-y,1/2+z
1/2+x,y,1/2+z
1/2-x,-y,1/2+z
1/2-x,y,1/2+z
1/2+x,-y,1/2+z
1/2+x,1/2+y,z
1/2-x,1/2-y,z
1/2-x,1/2+y,z
1/2+x,1/2-y,z
loop_
_atom_site_type_symbol
_atom_site_label
_atom_site_fract_x
_atom_site_fract_y
_atom_site_fract_z
Si Si1 0.160788 0.409600 0.201780
Si Si2 0.675730 0.415655 0.295799
Si Si3 0.943162 0.368864 0.747841
Si Si4 0.407947 0.784407 0.069616
Si Si5 0.300444 0.695517 0.993778
O O1 0.150334 0.500000 0.242036
O O2 0.197089 0.369046 0.344684
O O3 0.110284 0.351171 0.202215
O O4 0.301933 0.348546 0.175371
O O5 0.698672 0.500000 0.249057
O O6 0.612486 0.414791 0.247039
O O7 0.679900 0.407996 0.502344
O O8 0.936558 0.292277 0.632743
O O9 0.000000 0.407242 0.714192
O O10 0.941794 0.331284 0.935012
O O11 0.352838 0.750180 0.990648
O O12 0.250000 0.750000 0.981169
#
# Coordination Sequence:
#
# PCOD9368638 Si02
#       5
#    16  16  16  16  16
#     4  10  21  42  67  93 132 178 223 280 344 400
#     4   9  21  41  66  99 140 178 224 290 347 404
#     4  10  19  34  63  95 129 177 227 278 338 406
#     4  10  20  39  58  94 132 169 223 286 336 399
#     4  11  23  40  68  96 128 180 232 282 345 411
#
# _framework density 23.615891999999999
#
# number of rings (size 3 to 8) (size 9 to 14) (size 15 to 20)
#    0.000    2.000    2.000    1.200    0.000    2.000 
#    0.000    2.000    0.000    1.800    0.000    0.000 
#    0.000    0.000    0.000    0.000    0.000    0.000 
#
# Total GULP energy -111744.296838 kJ/mol
# GULP energy per Si atom -5587.214842 kJ/mol
# Density = 2.356214 g / cm^3
# Si number density = 23.615892 Si / 1000 Ang^3
#
#
#
# Elastic Constant Matrix: (Units=GPa)
#
#
# Indices 1 2 3 4 5 6 
#
# 1 116.5087 29.0137 28.7535 0.0000 0.0000 0.0000
# 2 29.0137 162.3428 43.2867 0.0000 0.0000 0.0000
# 3 28.7535 43.2867 56.7490 0.0000 0.0000 0.0000
# 4 0.0000 0.0000 0.0000 14.0115 0.0000 0.0000
# 5 0.0000 0.0000 0.0000 0.0000 -9.6436 0.0000
# 6 0.0000 0.0000 0.0000 0.0000 0.0000 14.2843
#
#
#
# Elastic Compliance Matrix: (Units=1/GPa)
#
#
# Indices 1 2 3 4 5 6 
#
# 1 0.009847 -0.000539 -0.004578 0.000000 0.000000 0.000000
# 2 -0.000539 0.007762 -0.005647 0.000000 0.000000 0.000000
# 3 -0.004578 -0.005647 0.024249 0.000000 0.000000 0.000000
# 4 0.000000 0.000000 0.000000 0.071370 0.000000 0.000000
# 5 0.000000 0.000000 0.000000 0.000000 -0.103695 0.000000
# 6 0.000000 0.000000 0.000000 0.000000 0.000000 0.070007
#
#
# Mechanical properties :
#
#
# Convention : Reuss Voigt Hill
#
# Bulk Modulus (GPa) = 49.19193 59.74536 54.46865
# Shear Modulus (GPa) = 46.36267 19.36686 32.86476
#
# Velocity S-wave (km/s) = 4.43561 2.86681 3.73451
# Velocity P-wave (km/s) = 6.86353 6.02593 6.45832
#
# Compressibility (1/GPa) = 0.02032854
#
# Stress axis : x y z
#
# Youngs Moduli (GPa) = 101.55217 128.83287 41.23917
#
# Poissons Ratio (x) = 0.06947 0.18880
# Poissons Ratio (y) = 0.05476 0.23290
# Poissons Ratio (z) = 0.46491 0.72758
#
# Static dielectric constant tensor:
#      x y z
#    x 1.961610 0.000000 0.000000 
#    y 0.000000 1.856840 0.000000 
#    z 0.000000 0.000000 1.949020 
# 
# From -- ./inp_files/7751.got.cif
#   From: 2010.05.17/outbox.cif.g08.bks.cpg/sg42_4_cif.got.tgz:7751.got - 2010.06.03 19:03:34.
