data_PCOD9368736
_publ_section_title
;
Structure prediction by ZEFSAII (Michael W. Deem and Ramdas Pophale) SiO2 
 PCOD9368736
Probable space group: F M M 2
;
_chemical_formula_sum "Si O2"
_cell_formula_units_Z 112
_cell_length_a 23.647444
_cell_length_b 15.149768
_cell_length_c 15.606833
_cell_angle_alpha 90.000000
_cell_angle_beta 90.000000
_cell_angle_gamma 90.000000
_cell_volume 5591.199275
_symmetry_space_group_name_H-M "F M M 2"
_symmetry_group_IT_number 42
_symmetry_cell_setting 'orthorhombic'
loop_
_space_group_symop_operation_xyz
x,y,z
-x,-y,z
-x,y,z
x,-y,z
x,1/2+y,1/2+z
-x,1/2-y,1/2+z
-x,1/2+y,1/2+z
x,1/2-y,1/2+z
1/2+x,y,1/2+z
1/2-x,-y,1/2+z
1/2-x,y,1/2+z
1/2+x,-y,1/2+z
1/2+x,1/2+y,z
1/2-x,1/2-y,z
1/2-x,1/2+y,z
1/2+x,1/2-y,z
loop_
_atom_site_type_symbol
_atom_site_label
_atom_site_fract_x
_atom_site_fract_y
_atom_site_fract_z
Si Si1 0.756345 0.896194 0.560860
Si Si2 0.382545 0.104191 0.133857
Si Si3 0.063234 0.720884 0.640941
Si Si4 0.337123 0.895210 0.705856
Si Si5 0.134492 0.399981 0.326820
Si Si6 0.062972 0.601801 0.474462
Si Si7 0.258664 0.148431 0.861088
O O1 0.817943 0.885995 0.603350
O O2 0.707978 0.868181 0.629638
O O3 0.761046 0.858216 0.464549
O O4 0.745607 0.000000 0.547807
O O5 0.420504 0.183781 0.100021
O O6 0.384256 0.128886 0.234242
O O7 0.397909 0.000000 0.121674
O O8 0.110836 0.673047 0.699124
O O9 0.061769 0.654409 0.561307
O O10 0.000000 0.726299 0.679353
O O11 0.308133 0.886786 0.799678
O O12 0.351022 0.000000 0.693351
O O13 0.113271 0.500000 0.332611
O O14 0.107142 0.355270 0.408872
O O15 0.201367 0.399549 0.333186
O O16 0.077715 0.500000 0.495173
O O17 0.000000 0.602802 0.435485
O O18 0.250000 0.250000 0.838282
#
# Coordination Sequence:
#
# PCOD9368736 Si02
#       7
#    16  16  16  16  16  16  16
#     4  10  22  39  61  91 125 163 202 254 317 376
#     4  10  22  40  62  87 124 163 205 256 313 377
#     4  11  24  40  61  90 124 164 210 256 309 374
#     4  11  23  41  65  93 129 167 206 258 317 376
#     4  10  19  37  60  85 117 152 197 255 310 362
#     4   9  19  36  61  92 120 151 198 258 315 363
#     4  12  24  34  58  93 127 166 204 252 306 377
#
# _framework density 20.031480999999999
#
# number of rings (size 3 to 8) (size 9 to 14) (size 15 to 20)
#    0.000    1.571    1.429    3.429    4.000    4.000 
#    0.000    1.429    0.000    0.000    0.000    2.000 
#    0.000    0.000    0.000    0.000    0.000    0.000 
#
# Total GULP energy -156020.819851 kJ/mol
# GULP energy per Si atom -5572.172138 kJ/mol
# Density = 1.998589 g / cm^3
# Si number density = 20.031481 Si / 1000 Ang^3
#
#
#
# Elastic Constant Matrix: (Units=GPa)
#
#
# Indices 1 2 3 4 5 6 
#
# 1 79.5765 37.7724 7.0667 0.0000 0.0000 0.0000
# 2 37.7724 107.0068 14.6152 0.0000 0.0000 0.0000
# 3 7.0667 14.6152 54.5972 0.0000 0.0000 0.0000
# 4 0.0000 0.0000 0.0000 24.6713 0.0000 0.0000
# 5 0.0000 0.0000 0.0000 0.0000 26.5746 0.0000
# 6 0.0000 0.0000 0.0000 0.0000 0.0000 28.4791
#
#
#
# Elastic Compliance Matrix: (Units=1/GPa)
#
#
# Indices 1 2 3 4 5 6 
#
# 1 0.015112 -0.005259 -0.000548 0.000000 0.000000 0.000000
# 2 -0.005259 0.011530 -0.002406 0.000000 0.000000 0.000000
# 3 -0.000548 -0.002406 0.019031 0.000000 0.000000 0.000000
# 4 0.000000 0.000000 0.000000 0.040533 0.000000 0.000000
# 5 0.000000 0.000000 0.000000 0.000000 0.037630 0.000000
# 6 0.000000 0.000000 0.000000 0.000000 0.000000 0.035113
#
#
# Mechanical properties :
#
#
# Convention : Reuss Voigt Hill
#
# Bulk Modulus (GPa) = 34.19236 40.00990 37.10113
# Shear Modulus (GPa) = 27.00886 28.06010 27.53448
#
# Velocity S-wave (km/s) = 3.67593 3.74679 3.71153
# Velocity P-wave (km/s) = 5.92647 6.22373 6.07691
#
# Compressibility (1/GPa) = 0.02924630
#
# Stress axis : x y z
#
# Youngs Moduli (GPa) = 66.17405 86.72792 52.54609
#
# Poissons Ratio (x) = 0.45614 0.02880
# Poissons Ratio (y) = 0.34804 0.12642
# Poissons Ratio (z) = 0.03627 0.20865
#
# Static dielectric constant tensor:
#      x y z
#    x 1.789840 0.000000 0.000000 
#    y 0.000000 1.740050 0.000000 
#    z 0.000000 0.000000 1.762250 
# 
# From -- ./inp_files/14207.got.cif
#   From: 2010.05.17/outbox.cif.g08.bks.cpg/sg42_8_cif.got.tgz:14207.got - 2010.06.03 19:03:34.
