data_PCOD9368975
_publ_section_title
;
Structure prediction by ZEFSAII (Michael W. Deem and Ramdas Pophale) SiO2 
 PCOD9368975
Probable space group: F M M 2
;
_chemical_formula_sum "Si O2"
_cell_formula_units_Z 88
_cell_length_a 17.202738
_cell_length_b 27.524323
_cell_length_c 8.888743
_cell_angle_alpha 90.000000
_cell_angle_beta 90.000000
_cell_angle_gamma 90.000000
_cell_volume 4208.763964
_symmetry_space_group_name_H-M "F M M 2"
_symmetry_group_IT_number 42
_symmetry_cell_setting 'orthorhombic'
loop_
_space_group_symop_operation_xyz
x,y,z
-x,-y,z
-x,y,z
x,-y,z
x,1/2+y,1/2+z
-x,1/2-y,1/2+z
-x,1/2+y,1/2+z
x,1/2-y,1/2+z
1/2+x,y,1/2+z
1/2-x,-y,1/2+z
1/2-x,y,1/2+z
1/2+x,-y,1/2+z
1/2+x,1/2+y,z
1/2-x,1/2-y,z
1/2-x,1/2+y,z
1/2+x,1/2-y,z
loop_
_atom_site_type_symbol
_atom_site_label
_atom_site_fract_x
_atom_site_fract_y
_atom_site_fract_z
Si Si1 0.250000 0.250000 0.020180
Si Si2 0.912709 0.290521 0.960313
Si Si3 0.406815 0.053357 0.086711
Si Si4 0.203142 0.147847 0.033102
Si Si5 0.910164 0.850569 0.763316
Si Si6 0.150774 0.114158 0.336733
O O1 0.168387 0.261972 0.934482
O O2 0.230763 0.199470 0.103660
O O3 0.906231 0.339753 0.862450
O O4 0.000000 0.268809 0.938400
O O5 0.907219 0.309501 0.133617
O O6 0.500000 0.052821 0.098578
O O7 0.385528 0.067519 0.916063
O O8 0.376833 0.000000 0.128339
O O9 0.380477 0.098889 0.188506
O O10 0.136660 0.158827 0.913084
O O11 0.273361 0.127003 0.935301
O O12 0.174449 0.112896 0.164086
O O13 0.000000 0.857187 0.800801
#
# Coordination Sequence:
#
# PCOD9368975 Si02
#       6
#     8  16  16  16  16  16
#     4  10  22  36  56  80 110 158 204 242 286 344
#     4   9  19  36  55  78 111 150 193 238 288 347
#     4   9  18  37  63  85 108 143 185 229 288 363
#     4  11  22  36  54  80 114 152 193 238 286 341
#     4   9  19  36  57  82 113 148 186 234 292 349
#     4  10  20  35  56  79 111 149 185 234 292 341
#
# _framework density 20.908752
#
# number of rings (size 3 to 8) (size 9 to 14) (size 15 to 20)
#    0.000    2.364    0.000    4.909    0.000    8.727 
#    0.000    6.364    0.000    2.182    0.000    0.000 
#    0.000    0.000    0.000    0.000    0.000    0.000 
#
# Total GULP energy -122666.322580 kJ/mol
# GULP energy per Si atom -5575.741935 kJ/mol
# Density = 2.086116 g / cm^3
# Si number density = 20.908752 Si / 1000 Ang^3
#
#
#
# Elastic Constant Matrix: (Units=GPa)
#
#
# Indices 1 2 3 4 5 6 
#
# 1 124.5174 12.1759 24.0991 0.0000 0.0000 0.0000
# 2 12.1759 64.5239 10.8696 0.0000 0.0000 0.0000
# 3 24.0991 10.8696 86.8805 0.0000 0.0000 0.0000
# 4 0.0000 0.0000 0.0000 6.6450 0.0000 0.0000
# 5 0.0000 0.0000 0.0000 0.0000 28.0946 0.0000
# 6 0.0000 0.0000 0.0000 0.0000 0.0000 18.8931
#
#
#
# Elastic Compliance Matrix: (Units=1/GPa)
#
#
# Indices 1 2 3 4 5 6 
#
# 1 0.008583 -0.001245 -0.002225 0.000000 0.000000 0.000000
# 2 -0.001245 0.016012 -0.001658 0.000000 0.000000 0.000000
# 3 -0.002225 -0.001658 0.012335 0.000000 0.000000 0.000000
# 4 0.000000 0.000000 0.000000 0.150488 0.000000 0.000000
# 5 0.000000 0.000000 0.000000 0.000000 0.035594 0.000000
# 6 0.000000 0.000000 0.000000 0.000000 0.000000 0.052929
#
#
# Mechanical properties :
#
#
# Convention : Reuss Voigt Hill
#
# Bulk Modulus (GPa) = 37.48910 41.13458 39.31184
# Shear Modulus (GPa) = 16.94401 25.97836 21.46119
#
# Velocity S-wave (km/s) = 2.84980 3.52868 3.20726
# Velocity P-wave (km/s) = 5.36631 6.02646 5.70594
#
# Compressibility (1/GPa) = 0.02667442
#
# Stress axis : x y z
#
# Youngs Moduli (GPa) = 116.50409 62.45183 81.07203
#
# Poissons Ratio (x) = 0.07774 0.18040
# Poissons Ratio (y) = 0.14503 0.13442
# Poissons Ratio (z) = 0.25924 0.10355
#
# Static dielectric constant tensor:
#      x y z
#    x 1.796440 0.000000 0.000000 
#    y 0.000000 1.801050 0.000000 
#    z 0.000000 0.000000 1.743010 
# 
# From -- ./inp_files/3623.got.cif
#   From: 2010.05.17/outbox.cif.g08.bks.cpg/sg42_2_cif.got.tgz:3623.got - 2010.06.03 19:03:34.
