data_PCOD9368630
_publ_section_title
;
Structure prediction by ZEFSAII (Michael W. Deem and Ramdas Pophale) SiO2 
 PCOD9368630
Probable space group: F M M 2
;
_chemical_formula_sum "Si O2"
_cell_formula_units_Z 104
_cell_length_a 13.401593
_cell_length_b 14.235788
_cell_length_c 23.687996
_cell_angle_alpha 90.000000
_cell_angle_beta 90.000000
_cell_angle_gamma 90.000000
_cell_volume 4519.248862
_symmetry_space_group_name_H-M "F M M 2"
_symmetry_group_IT_number 42
_symmetry_cell_setting 'orthorhombic'
loop_
_space_group_symop_operation_xyz
x,y,z
-x,-y,z
-x,y,z
x,-y,z
x,1/2+y,1/2+z
-x,1/2-y,1/2+z
-x,1/2+y,1/2+z
x,1/2-y,1/2+z
1/2+x,y,1/2+z
1/2-x,-y,1/2+z
1/2-x,y,1/2+z
1/2+x,-y,1/2+z
1/2+x,1/2+y,z
1/2-x,1/2-y,z
1/2-x,1/2+y,z
1/2+x,1/2-y,z
loop_
_atom_site_type_symbol
_atom_site_label
_atom_site_fract_x
_atom_site_fract_y
_atom_site_fract_z
Si Si1 0.000000 0.391449 0.578990
Si Si2 0.690355 0.114864 0.884792
Si Si3 0.500000 0.886780 0.807385
Si Si4 0.885783 0.884781 0.507557
Si Si5 0.283878 0.112139 0.592702
Si Si6 0.186130 0.331260 0.208421
Si Si7 0.611287 0.391234 0.826041
Si Si8 0.000000 0.787812 0.187710
O O1 0.110602 0.351759 0.567096
O O2 0.000000 0.500000 0.561130
O O3 0.000000 0.376684 0.646695
O O4 0.599964 0.135977 0.842179
O O5 0.657954 0.144944 0.947144
O O6 0.798048 0.149101 0.863014
O O7 0.695133 0.000000 0.885870
O O8 0.500000 0.828747 0.750157
O O9 0.500000 0.000000 0.796900
O O10 0.809781 0.855273 0.556181
O O11 0.000000 0.853284 0.515205
O O12 0.888225 0.000000 0.507797
O O13 0.255814 0.129010 0.658577
O O14 0.290875 0.000000 0.587255
O O15 0.250000 0.250000 0.237679
O O16 0.143867 0.390890 0.260029
O O17 0.093725 0.279812 0.179063
O O18 0.500000 0.349176 0.831652
O O19 0.603303 0.500000 0.842949
#
# Coordination Sequence:
#
# PCOD9368630 Si02
#       8
#     8  16   8  16  16  16  16   8
#     4  10  21  40  58  81 115 148 190 235 281 345
#     4   9  17  32  57  87 114 147 189 238 288 333
#     4  10  19  34  59  89 118 147 188 240 289 338
#     4   9  17  33  57  87 116 142 187 243 287 331
#     4  10  22  38  59  86 115 151 191 237 288 339
#     4  12  23  38  57  83 116 155 194 235 285 341
#     4  10  21  37  56  84 121 155 189 231 282 346
#     4  12  23  36  54  86 115 153 188 233 287 337
#
# _framework density 23.012675000000002
#
# number of rings (size 3 to 8) (size 9 to 14) (size 15 to 20)
#    0.000    1.846    3.077    1.615    1.077    0.000 
#    1.385    0.000    0.000    2.769    4.000    0.000 
#    0.000    0.000    0.000    0.000    0.000    0.000 
#
# Total GULP energy -145138.647306 kJ/mol
# GULP energy per Si atom -5582.255666 kJ/mol
# Density = 2.296030 g / cm^3
# Si number density = 23.012675 Si / 1000 Ang^3
#
#
#
# Elastic Constant Matrix: (Units=GPa)
#
#
# Indices 1 2 3 4 5 6 
#
# 1 229.4381 25.1554 55.2626 0.0000 0.0000 0.0000
# 2 25.1554 50.3501 -5.2995 0.0000 0.0000 0.0000
# 3 55.2626 -5.2995 78.5039 0.0000 0.0000 0.0000
# 4 0.0000 0.0000 0.0000 -0.6286 0.0000 0.0000
# 5 0.0000 0.0000 0.0000 0.0000 35.0106 0.0000
# 6 0.0000 0.0000 0.0000 0.0000 0.0000 21.5944
#
#
#
# Elastic Compliance Matrix: (Units=1/GPa)
#
#
# Indices 1 2 3 4 5 6 
#
# 1 0.005752 -0.003324 -0.004274 0.000000 0.000000 0.000000
# 2 -0.003324 0.021924 0.003820 0.000000 0.000000 0.000000
# 3 -0.004274 0.003820 0.016004 0.000000 0.000000 0.000000
# 4 0.000000 0.000000 0.000000 -1.590928 0.000000 0.000000
# 5 0.000000 0.000000 0.000000 0.000000 0.028563 0.000000
# 6 0.000000 0.000000 0.000000 0.000000 0.000000 0.046308
#
#
# Mechanical properties :
#
#
# Convention : Reuss Voigt Hill
#
# Bulk Modulus (GPa) = 27.68173 56.50325 42.09249
# Shear Modulus (GPa) = -3.44168 30.07352 13.31592
#
# Velocity S-wave (km/s) = -1.22426 3.61892 2.40809
# Velocity P-wave (km/s) = 3.17122 6.48603 5.10515
#
# Compressibility (1/GPa) = 0.03612491
#
# Stress axis : x y z
#
# Youngs Moduli (GPa) = 173.84559 45.61314 62.48247
#
# Poissons Ratio (x) = 0.15160 0.26703
# Poissons Ratio (y) = 0.57781 -0.23866
# Poissons Ratio (z) = 0.74295 -0.17423
#
# Static dielectric constant tensor:
#      x y z
#    x 1.907520 0.000000 0.000000 
#    y 0.000000 1.876600 0.000000 
#    z 0.000000 0.000000 1.792880 
# 
# From -- ./inp_files/32239.got.cif
#   From: 2010.05.17/outbox.cif.g08.bks.cpg/sg42_17_cif.got.tgz:32239.got - 2010.06.03 19:03:34.
