data_PCOD9368661
_publ_section_title
;
Structure prediction by ZEFSAII (Michael W. Deem and Ramdas Pophale) SiO2 
 PCOD9368661
Probable space group: F M M 2
;
_chemical_formula_sum "Si O2"
_cell_formula_units_Z 96
_cell_length_a 8.603405
_cell_length_b 26.031824
_cell_length_c 24.138582
_cell_angle_alpha 90.000000
_cell_angle_beta 90.000000
_cell_angle_gamma 90.000000
_cell_volume 5406.132941
_symmetry_space_group_name_H-M "F M M 2"
_symmetry_group_IT_number 42
_symmetry_cell_setting 'orthorhombic'
loop_
_space_group_symop_operation_xyz
x,y,z
-x,-y,z
-x,y,z
x,-y,z
x,1/2+y,1/2+z
-x,1/2-y,1/2+z
-x,1/2+y,1/2+z
x,1/2-y,1/2+z
1/2+x,y,1/2+z
1/2-x,-y,1/2+z
1/2-x,y,1/2+z
1/2+x,-y,1/2+z
1/2+x,1/2+y,z
1/2-x,1/2-y,z
1/2-x,1/2+y,z
1/2+x,1/2-y,z
loop_
_atom_site_type_symbol
_atom_site_label
_atom_site_fract_x
_atom_site_fract_y
_atom_site_fract_z
Si Si1 0.312577 0.000000 0.171850
Si Si2 0.314684 0.402643 0.238974
Si Si3 0.812808 0.306426 0.044363
Si Si4 0.186402 0.560346 0.355073
Si Si5 0.188780 0.000000 0.544517
Si Si6 0.813166 0.693011 0.171994
Si Si7 0.688563 0.097595 0.971482
O O1 0.251802 0.949590 0.202670
O O2 0.500000 0.000000 0.173745
O O3 0.260277 0.000000 0.107999
O O4 0.500000 0.403568 0.237598
O O5 0.256430 0.412417 0.301252
O O6 0.253474 0.349780 0.212761
O O7 0.750000 0.250000 0.031272
O O8 0.767505 0.319184 0.107974
O O9 0.000000 0.305019 0.043469
O O10 0.761829 0.349763 0.001157
O O11 0.234334 0.500000 0.355805
O O12 0.243403 0.587236 0.411119
O O13 0.000000 0.561803 0.351876
O O14 0.236896 0.949506 0.511129
O O15 0.000000 0.000000 0.545557
O O16 0.750000 0.750000 0.184184
O O17 0.000000 0.692971 0.174987
O O18 0.500000 0.097334 0.967948
#
# Coordination Sequence:
#
# PCOD9368661 Si02
#       7
#     8  16  16  16   8  16  16
#     4  11  21  36  57  84 117 152 188 235 290 345
#     4  12  24  38  58  85 115 152 196 240 289 346
#     4   9  19  35  58  86 116 153 191 230 282 340
#     4  11  23  39  58  81 112 152 193 238 294 347
#     4   9  18  32  55  82 111 144 180 227 284 345
#     4  10  20  38  62  88 120 155 193 237 287 344
#     4  10  19  35  58  83 111 147 191 232 279 343
#
# _framework density 17.75761
#
# number of rings (size 3 to 8) (size 9 to 14) (size 15 to 20)
#    0.000    1.667    1.667    3.750    0.000    4.667 
#    0.000    4.167    0.000    2.000    0.000    0.000 
#    0.000    0.000    0.000    0.000    0.000    0.000 
#
# Total GULP energy -134085.340459 kJ/mol
# GULP energy per Si atom -5586.889186 kJ/mol
# Density = 1.771719 g / cm^3
# Si number density = 17.757610 Si / 1000 Ang^3
#
#
#
# Elastic Constant Matrix: (Units=GPa)
#
#
# Indices 1 2 3 4 5 6 
#
# 1 65.3756 50.9990 53.6846 0.0000 0.0000 0.0000
# 2 50.9990 159.6743 119.1328 0.0000 0.0000 0.0000
# 3 53.6846 119.1328 188.9686 0.0000 0.0000 0.0000
# 4 0.0000 0.0000 0.0000 5.1916 0.0000 0.0000
# 5 0.0000 0.0000 0.0000 0.0000 28.6770 0.0000
# 6 0.0000 0.0000 0.0000 0.0000 0.0000 30.2751
#
#
#
# Elastic Compliance Matrix: (Units=1/GPa)
#
#
# Indices 1 2 3 4 5 6 
#
# 1 0.021439 -0.004349 -0.003349 0.000000 0.000000 0.000000
# 2 -0.004349 0.012707 -0.006775 0.000000 0.000000 0.000000
# 3 -0.003349 -0.006775 0.010515 0.000000 0.000000 0.000000
# 4 0.000000 0.000000 0.000000 0.192621 0.000000 0.000000
# 5 0.000000 0.000000 0.000000 0.000000 0.034871 0.000000
# 6 0.000000 0.000000 0.000000 0.000000 0.000000 0.033030
#
#
# Mechanical properties :
#
#
# Convention : Reuss Voigt Hill
#
# Bulk Modulus (GPa) = 63.63722 95.73905 79.68814
# Shear Modulus (GPa) = 14.73332 25.50886 20.12109
#
# Velocity S-wave (km/s) = 2.88356 3.79423 3.36980
# Velocity P-wave (km/s) = 6.85572 8.55724 7.75330
#
# Compressibility (1/GPa) = 0.01571407
#
# Stress axis : x y z
#
# Youngs Moduli (GPa) = 46.64458 78.69782 95.10418
#
# Poissons Ratio (x) = 0.34223 0.31850
# Poissons Ratio (y) = 0.20284 0.64437
# Poissons Ratio (z) = 0.15621 0.53321
#
# Static dielectric constant tensor:
#      x y z
#    x 1.603650 0.000000 0.000000 
#    y 0.000000 1.580520 0.000000 
#    z 0.000000 0.000000 1.585250 
# 
# From -- ./inp_files/28090.got.cif
#   From: 2010.05.17/outbox.cif.g08.bks.cpg/sg42_15_cif.got.tgz:28090.got - 2010.06.03 19:03:34.
