data_PCOD9368492
_publ_section_title
;
Structure prediction by ZEFSAII (Michael W. Deem and Ramdas Pophale) SiO2 
 PCOD9368492
Probable space group: F M M 2
;
_chemical_formula_sum "Si O2"
_cell_formula_units_Z 72
_cell_length_a 22.702570
_cell_length_b 15.493626
_cell_length_c 8.937059
_cell_angle_alpha 90.000000
_cell_angle_beta 90.000000
_cell_angle_gamma 90.000000
_cell_volume 3143.566969
_symmetry_space_group_name_H-M "F M M 2"
_symmetry_group_IT_number 42
_symmetry_cell_setting 'orthorhombic'
loop_
_space_group_symop_operation_xyz
x,y,z
-x,-y,z
-x,y,z
x,-y,z
x,1/2+y,1/2+z
-x,1/2-y,1/2+z
-x,1/2+y,1/2+z
x,1/2-y,1/2+z
1/2+x,y,1/2+z
1/2-x,-y,1/2+z
1/2-x,y,1/2+z
1/2+x,-y,1/2+z
1/2+x,1/2+y,z
1/2-x,1/2-y,z
1/2-x,1/2+y,z
1/2+x,1/2-y,z
loop_
_atom_site_type_symbol
_atom_site_label
_atom_site_fract_x
_atom_site_fract_y
_atom_site_fract_z
Si Si1 0.236247 0.403341 0.988110
Si Si2 0.934489 0.000000 0.413968
Si Si3 0.307512 0.191188 0.696237
Si Si4 0.065338 0.500000 0.436553
Si Si5 0.433958 0.153342 0.676169
Si Si6 0.156967 0.500000 0.178996
O O1 0.240928 0.500000 0.922984
O O2 0.205593 0.346059 0.862138
O O3 0.297994 0.374285 0.056696
O O4 0.197292 0.417581 0.139209
O O5 0.927856 0.914616 0.313019
O O6 0.888053 0.000000 0.542413
O O7 0.000000 0.000000 0.475269
O O8 0.250000 0.250000 0.667148
O O9 0.376584 0.214826 0.684575
O O10 0.067463 0.413350 0.537212
O O11 0.119742 0.500000 0.325897
O O12 0.000000 0.500000 0.363998
O O13 0.500000 0.192915 0.681371
#
# Coordination Sequence:
#
# PCOD9368492 Si02
#       6
#    16   8  16   8  16   8
#     4  10  24  38  62  93 122 173 209 273 319 378
#     4   9  15  30  58  90 125 161 216 267 314 378
#     4  12  24  41  63  94 132 166 217 270 327 388
#     4   9  19  32  58  99 139 166 211 277 332 378
#     4   9  19  36  61  90 127 177 215 263 327 399
#     4  10  19  32  58  93 129 161 211 262 320 364
#
# _framework density 22.903918999999998
#
# number of rings (size 3 to 8) (size 9 to 14) (size 15 to 20)
#    0.667    1.333    2.222    3.000    7.778    0.000 
#    0.000    0.000    0.000    8.000    0.000    0.000 
#    0.000    0.000    0.000    0.000    0.000    0.000 
#
# Total GULP energy -100313.236797 kJ/mol
# GULP energy per Si atom -5572.957600 kJ/mol
# Density = 2.285179 g / cm^3
# Si number density = 22.903919 Si / 1000 Ang^3
#
#
#
# Elastic Constant Matrix: (Units=GPa)
#
#
# Indices 1 2 3 4 5 6 
#
# 1 204.3955 29.2507 35.2061 0.0000 0.0000 0.0000
# 2 29.2507 23.1822 -1.5424 0.0000 0.0000 0.0000
# 3 35.2061 -1.5424 76.5716 0.0000 0.0000 0.0000
# 4 0.0000 0.0000 0.0000 5.9368 0.0000 0.0000
# 5 0.0000 0.0000 0.0000 0.0000 43.9339 0.0000
# 6 0.0000 0.0000 0.0000 0.0000 0.0000 32.1866
#
#
#
# Elastic Compliance Matrix: (Units=1/GPa)
#
#
# Indices 1 2 3 4 5 6 
#
# 1 0.006692 -0.008660 -0.003251 0.000000 0.000000 0.000000
# 2 -0.008660 0.054401 0.005077 0.000000 0.000000 0.000000
# 3 -0.003251 0.005077 0.014657 0.000000 0.000000 0.000000
# 4 0.000000 0.000000 0.000000 0.168441 0.000000 0.000000
# 5 0.000000 0.000000 0.000000 0.000000 0.022761 0.000000
# 6 0.000000 0.000000 0.000000 0.000000 0.000000 0.031069
#
#
# Mechanical properties :
#
#
# Convention : Reuss Voigt Hill
#
# Bulk Modulus (GPa) = 16.10759 47.77533 31.94146
# Shear Modulus (GPa) = 15.04294 32.49378 23.76836
#
# Velocity S-wave (km/s) = 2.56556 3.77065 3.22490
# Velocity P-wave (km/s) = 3.97795 6.31359 5.27662
#
# Compressibility (1/GPa) = 0.06208255
#
# Stress axis : x y z
#
# Youngs Moduli (GPa) = 149.43744 18.38196 68.22785
#
# Poissons Ratio (x) = 0.15918 0.22182
# Poissons Ratio (y) = 1.29410 -0.34642
# Poissons Ratio (z) = 0.48585 -0.09333
#
# Static dielectric constant tensor:
#      x y z
#    x 1.960660 0.000000 0.000000 
#    y 0.000000 1.979700 0.000000 
#    z 0.000000 0.000000 1.838760 
# 
# From -- ./inp_files/4551.got.cif
#   From: 2010.05.17/outbox.cif.g08.bks.cpg/sg42_3_cif.got.tgz:4551.got - 2010.06.03 19:03:34.
