data_PCOD9368252
_publ_section_title
;
Structure prediction by ZEFSAII (Michael W. Deem and Ramdas Pophale) SiO2 
 PCOD9368252
Probable space group: F M M 2
;
_chemical_formula_sum "Si O2"
_cell_formula_units_Z 96
_cell_length_a 14.815137
_cell_length_b 10.417872
_cell_length_c 28.773643
_cell_angle_alpha 90.000000
_cell_angle_beta 90.000000
_cell_angle_gamma 90.000000
_cell_volume 4440.987389
_symmetry_space_group_name_H-M "F M M 2"
_symmetry_group_IT_number 42
_symmetry_cell_setting 'orthorhombic'
loop_
_space_group_symop_operation_xyz
x,y,z
-x,-y,z
-x,y,z
x,-y,z
x,1/2+y,1/2+z
-x,1/2-y,1/2+z
-x,1/2+y,1/2+z
x,1/2-y,1/2+z
1/2+x,y,1/2+z
1/2-x,-y,1/2+z
1/2-x,y,1/2+z
1/2+x,-y,1/2+z
1/2+x,1/2+y,z
1/2-x,1/2-y,z
1/2-x,1/2+y,z
1/2+x,1/2-y,z
loop_
_atom_site_type_symbol
_atom_site_label
_atom_site_fract_x
_atom_site_fract_y
_atom_site_fract_z
Si Si1 0.857054 0.500000 0.172068
Si Si2 0.889555 0.150107 0.437806
Si Si3 0.891698 0.000000 0.783035
Si Si4 0.106931 0.351568 0.515744
Si Si5 0.389604 0.254438 0.335726
Si Si6 0.393768 0.000000 0.781334
Si Si7 0.359513 0.000000 0.673361
Si Si8 0.858937 0.746548 0.618818
O O1 0.873905 0.500000 0.227562
O O2 0.748625 0.500000 0.168388
O O3 0.890840 0.375520 0.144143
O O4 0.858729 0.249983 0.477450
O O5 0.863321 0.211524 0.388264
O O6 0.000000 0.145789 0.439082
O O7 0.860189 0.000000 0.442285
O O8 0.858869 0.875532 0.811075
O O9 0.000000 0.000000 0.786447
O O10 0.143358 0.500000 0.515644
O O11 0.117949 0.283686 0.565659
O O12 0.000000 0.364008 0.507025
O O13 0.500000 0.250208 0.335831
O O14 0.357380 0.371777 0.304122
O O15 0.382028 0.000000 0.726905
O O16 0.500000 0.000000 0.792273
O O17 0.393325 0.126649 0.648325
O O18 0.750000 0.750000 0.620840
#
# Coordination Sequence:
#
# PCOD9368252 Si02
#       8
#     8  16   8  16  16   8   8  16
#     4  10  22  36  53  76 102 142 183 216 263 316
#     4   9  17  31  51  78 110 139 169 209 262 321
#     4  10  20  32  49  76 106 136 175 220 261 300
#     4  10  21  35  55  84 110 135 174 225 274 312
#     4   9  17  30  49  76 108 138 170 210 258 314
#     4  10  18  30  53  80 102 132 173 218 263 306
#     4  10  20  36  55  74 102 140 179 218 263 318
#     4  10  21  38  56  75 104 144 183 215 262 327
#
# _framework density 21.616814000000002
#
# number of rings (size 3 to 8) (size 9 to 14) (size 15 to 20)
#    0.000    2.333    1.667    1.000    2.333    1.333 
#    0.000    0.000    0.000    2.000    0.000    0.000 
#    0.000    0.000    0.000    0.000    0.000    0.000 
#
# Total GULP energy -133973.487369 kJ/mol
# GULP energy per Si atom -5582.228640 kJ/mol
# Density = 2.156761 g / cm^3
# Si number density = 21.616814 Si / 1000 Ang^3
#
#
#
# Elastic Constant Matrix: (Units=GPa)
#
#
# Indices 1 2 3 4 5 6 
#
# 1 58.8383 11.8889 -10.4562 0.0000 0.0000 0.0000
# 2 11.8889 269.3981 151.9058 0.0000 0.0000 0.0000
# 3 -10.4562 151.9058 225.1301 0.0000 0.0000 0.0000
# 4 0.0000 0.0000 0.0000 44.1978 0.0000 0.0000
# 5 0.0000 0.0000 0.0000 0.0000 39.2677 0.0000
# 6 0.0000 0.0000 0.0000 0.0000 0.0000 -16.4993
#
#
#
# Elastic Compliance Matrix: (Units=1/GPa)
#
#
# Indices 1 2 3 4 5 6 
#
# 1 0.017793 -0.002020 0.002189 0.000000 0.000000 0.000000
# 2 -0.002020 0.006221 -0.004291 0.000000 0.000000 0.000000
# 3 0.002189 -0.004291 0.007439 0.000000 0.000000 0.000000
# 4 0.000000 0.000000 0.000000 0.022626 0.000000 0.000000
# 5 0.000000 0.000000 0.000000 0.000000 0.025466 0.000000
# 6 0.000000 0.000000 0.000000 0.000000 0.000000 -0.060609
#
#
# Mechanical properties :
#
#
# Convention : Reuss Voigt Hill
#
# Bulk Modulus (GPa) = 43.08638 95.56041 69.32339
# Shear Modulus (GPa) = 143.20159 40.06178 91.63169
#
# Velocity S-wave (km/s) = 8.14796 4.30963 6.51775
# Velocity P-wave (km/s) = 10.41605 8.31062 9.42233
#
# Compressibility (1/GPa) = 0.02320919
#
# Stress axis : x y z
#
# Youngs Moduli (GPa) = 56.20240 160.74987 134.42513
#
# Poissons Ratio (x) = 0.32465 -0.29427
# Poissons Ratio (y) = 0.11351 0.57686
# Poissons Ratio (z) = -0.12303 0.68983
#
# Static dielectric constant tensor:
#      x y z
#    x 1.820120 0.000000 0.000000 
#    y 0.000000 1.822130 0.000000 
#    z 0.000000 0.000000 1.739850 
# 
# From -- ./inp_files/28154.got.cif
#   From: 2010.05.17/outbox.cif.g08.bks.cpg/sg42_15_cif.got.tgz:28154.got - 2010.06.03 19:03:34.
