data_PCOD9368462
_publ_section_title
;
Structure prediction by ZEFSAII (Michael W. Deem and Ramdas Pophale) SiO2 
 PCOD9368462
Probable space group: F M M 2
;
_chemical_formula_sum "Si O2"
_cell_formula_units_Z 104
_cell_length_a 18.818202
_cell_length_b 18.582018
_cell_length_c 15.530752
_cell_angle_alpha 90.000000
_cell_angle_beta 90.000000
_cell_angle_gamma 90.000000
_cell_volume 5430.795973
_symmetry_space_group_name_H-M "F M M 2"
_symmetry_group_IT_number 42
_symmetry_cell_setting 'orthorhombic'
loop_
_space_group_symop_operation_xyz
x,y,z
-x,-y,z
-x,y,z
x,-y,z
x,1/2+y,1/2+z
-x,1/2-y,1/2+z
-x,1/2+y,1/2+z
x,1/2-y,1/2+z
1/2+x,y,1/2+z
1/2-x,-y,1/2+z
1/2-x,y,1/2+z
1/2+x,-y,1/2+z
1/2+x,1/2+y,z
1/2-x,1/2-y,z
1/2-x,1/2+y,z
1/2+x,1/2-y,z
loop_
_atom_site_type_symbol
_atom_site_label
_atom_site_fract_x
_atom_site_fract_y
_atom_site_fract_z
Si Si1 0.234026 0.915807 0.919850
Si Si2 0.192131 0.149453 0.736457
Si Si3 0.250000 0.250000 0.105692
Si Si4 0.578714 0.228398 0.327064
Si Si5 0.859140 0.814685 0.487196
Si Si6 0.421767 0.080901 0.121103
Si Si7 0.076849 0.081611 0.931294
O O1 0.223004 0.883614 0.823610
O O2 0.295818 0.868975 0.961401
O O3 0.156950 0.910414 0.967691
O O4 0.252595 0.000000 0.916229
O O5 0.246769 0.180028 0.666732
O O6 0.141931 0.218418 0.759364
O O7 0.140118 0.093818 0.689490
O O8 0.180968 0.255221 0.044925
O O9 0.500000 0.248820 0.295611
O O10 0.603836 0.279437 0.404809
O O11 0.573729 0.147291 0.365021
O O12 0.911665 0.860048 0.547112
O O13 0.500000 0.089289 0.161162
O O14 0.416629 0.000000 0.086049
O O15 0.000000 0.086133 0.979703
O O16 0.078071 0.000000 0.893916
#
# Coordination Sequence:
#
# PCOD9368462 Si02
#       7
#    16  16   8  16  16  16  16
#     4  10  19  32  52  76 101 131 170 214 253 291
#     4  10  19  32  51  75 101 128 164 209 258 307
#     4  10  20  32  48  70 104 138 160 198 256 312
#     4  10  19  32  52  76 101 131 170 214 253 291
#     4  11  21  34  51  74 105 138 172 205 244 300
#     4  10  21  36  52  72 102 138 172 208 252 300
#     4   8  15  27  44  69  98 123 150 193 250 299
#
# _framework density 19.150047000000001
#
# number of rings (size 3 to 8) (size 9 to 14) (size 15 to 20)
#    0.000    2.154    0.000    4.615    0.000    1.231 
#    0.000    6.154    0.000    1.846    0.000    0.000 
#    0.000    4.923    0.000    0.000    0.000    0.000 
#
# Total GULP energy -144782.871390 kJ/mol
# GULP energy per Si atom -5568.571977 kJ/mol
# Density = 1.910646 g / cm^3
# Si number density = 19.150047 Si / 1000 Ang^3
#
#
#
# Elastic Constant Matrix: (Units=GPa)
#
#
# Indices 1 2 3 4 5 6 
#
# 1 77.9107 33.3994 17.6479 0.0000 0.0000 0.0000
# 2 33.3994 69.2149 18.9531 0.0000 0.0000 0.0000
# 3 17.6479 18.9531 42.4259 0.0000 0.0000 0.0000
# 4 0.0000 0.0000 0.0000 15.6703 0.0000 0.0000
# 5 0.0000 0.0000 0.0000 0.0000 21.7608 0.0000
# 6 0.0000 0.0000 0.0000 0.0000 0.0000 15.5003
#
#
#
# Elastic Compliance Matrix: (Units=1/GPa)
#
#
# Indices 1 2 3 4 5 6 
#
# 1 0.016708 -0.007018 -0.003815 0.000000 0.000000 0.000000
# 2 -0.007018 0.019409 -0.005752 0.000000 0.000000 0.000000
# 3 -0.003815 -0.005752 0.027727 0.000000 0.000000 0.000000
# 4 0.000000 0.000000 0.000000 0.063815 0.000000 0.000000
# 5 0.000000 0.000000 0.000000 0.000000 0.045954 0.000000
# 6 0.000000 0.000000 0.000000 0.000000 0.000000 0.064515
#
#
# Mechanical properties :
#
#
# Convention : Reuss Voigt Hill
#
# Bulk Modulus (GPa) = 32.59943 36.61693 34.60818
# Shear Modulus (GPa) = 17.76068 18.55636 18.15852
#
# Velocity S-wave (km/s) = 3.04871 3.11625 3.08266
# Velocity P-wave (km/s) = 5.42706 5.66662 5.54813
#
# Compressibility (1/GPa) = 0.03067539
#
# Stress axis : x y z
#
# Youngs Moduli (GPa) = 59.85269 51.52247 36.06620
#
# Poissons Ratio (x) = 0.36156 0.13759
# Poissons Ratio (y) = 0.42002 0.20744
# Poissons Ratio (z) = 0.22833 0.29633
#
# Static dielectric constant tensor:
#      x y z
#    x 1.739610 0.000000 0.000000 
#    y 0.000000 1.670660 0.000000 
#    z 0.000000 0.000000 1.667410 
# 
# From -- ./inp_files/16002.got.cif
#   From: 2010.05.17/outbox.cif.g08.bks.cpg/sg42_9_cif.got.tgz:16002.got - 2010.06.03 19:03:34.
