data_PCOD9368336
_publ_section_title
;
Structure prediction by ZEFSAII (Michael W. Deem and Ramdas Pophale) SiO2 
 PCOD9368336
Probable space group: F M M 2
;
_chemical_formula_sum "Si O2"
_cell_formula_units_Z 96
_cell_length_a 27.068647
_cell_length_b 18.680927
_cell_length_c 9.750985
_cell_angle_alpha 90.000000
_cell_angle_beta 90.000000
_cell_angle_gamma 90.000000
_cell_volume 4930.755414
_symmetry_space_group_name_H-M "F M M 2"
_symmetry_group_IT_number 42
_symmetry_cell_setting 'orthorhombic'
loop_
_space_group_symop_operation_xyz
x,y,z
-x,-y,z
-x,y,z
x,-y,z
x,1/2+y,1/2+z
-x,1/2-y,1/2+z
-x,1/2+y,1/2+z
x,1/2-y,1/2+z
1/2+x,y,1/2+z
1/2-x,-y,1/2+z
1/2-x,y,1/2+z
1/2+x,-y,1/2+z
1/2+x,1/2+y,z
1/2-x,1/2-y,z
1/2-x,1/2+y,z
1/2+x,1/2-y,z
loop_
_atom_site_type_symbol
_atom_site_label
_atom_site_fract_x
_atom_site_fract_y
_atom_site_fract_z
Si Si1 0.442816 0.194742 0.527510
Si Si2 0.844597 0.629765 0.570598
Si Si3 0.825725 0.420826 0.270141
Si Si4 0.106845 0.291556 0.239196
Si Si5 0.213558 0.582103 0.831876
Si Si6 0.805684 0.269446 0.915323
O O1 0.500000 0.181519 0.552274
O O2 0.403467 0.137546 0.583810
O O3 0.423221 0.264114 0.609425
O O4 0.430605 0.200229 0.366519
O O5 0.834983 0.584319 0.434122
O O6 0.821910 0.594103 0.702882
O O7 0.820926 0.708823 0.528253
O O8 0.834597 0.500000 0.217568
O O9 0.863253 0.363639 0.209069
O O10 0.767694 0.404247 0.266394
O O11 0.150682 0.241569 0.303690
O O12 0.212547 0.500000 0.882570
O O13 0.199976 0.645178 0.939563
O O14 0.750000 0.250000 0.868176
#
# Coordination Sequence:
#
# PCOD9368336 Si02
#       6
#    16  16  16  16  16  16
#     4  10  20  35  57  82 107 139 197 250 288 328
#     4  10  21  33  55  77 111 149 189 232 287 331
#     4   9  19  35  51  80 117 149 183 227 276 341
#     4  10  20  34  57  84 109 149 186 235 289 337
#     4  11  20  34  54  81 114 151 184 221 280 342
#     4  10  18  34  50  81 110 146 185 225 267 347
#
# _framework density 19.469633000000002
#
# number of rings (size 3 to 8) (size 9 to 14) (size 15 to 20)
#    0.000    2.333    5.000    1.000    0.000    3.333 
#    0.000    0.000    0.000   17.000    0.000    0.000 
#    0.000    0.000    0.000    0.000    0.000    0.000 
#
# Total GULP energy -133692.493174 kJ/mol
# GULP energy per Si atom -5570.520549 kJ/mol
# Density = 1.942532 g / cm^3
# Si number density = 19.469633 Si / 1000 Ang^3
#
#
#
# Elastic Constant Matrix: (Units=GPa)
#
#
# Indices 1 2 3 4 5 6 
#
# 1 158.1891 36.1171 22.8693 0.0000 0.0000 0.0000
# 2 36.1171 94.4660 5.4001 0.0000 0.0000 0.0000
# 3 22.8693 5.4001 45.1251 0.0000 0.0000 0.0000
# 4 0.0000 0.0000 0.0000 14.1503 0.0000 0.0000
# 5 0.0000 0.0000 0.0000 0.0000 16.2716 0.0000
# 6 0.0000 0.0000 0.0000 0.0000 0.0000 -19.0583
#
#
#
# Elastic Compliance Matrix: (Units=1/GPa)
#
#
# Indices 1 2 3 4 5 6 
#
# 1 0.007423 -0.002641 -0.003446 0.000000 0.000000 0.000000
# 2 -0.002641 0.011598 -0.000050 0.000000 0.000000 0.000000
# 3 -0.003446 -0.000050 0.023913 0.000000 0.000000 0.000000
# 4 0.000000 0.000000 0.000000 0.070670 0.000000 0.000000
# 5 0.000000 0.000000 0.000000 0.000000 0.061457 0.000000
# 6 0.000000 0.000000 0.000000 0.000000 0.000000 -0.052471
#
#
# Mechanical properties :
#
#
# Convention : Reuss Voigt Hill
#
# Bulk Modulus (GPa) = 32.61429 47.39480 40.00454
# Shear Modulus (GPa) = 34.46308 17.83230 26.14769
#
# Velocity S-wave (km/s) = 4.21181 3.02967 3.66867
# Velocity P-wave (km/s) = 6.35926 6.05263 6.20784
#
# Compressibility (1/GPa) = 0.03066141
#
# Stress axis : x y z
#
# Youngs Moduli (GPa) = 134.72246 86.21911 41.81852
#
# Poissons Ratio (x) = 0.22770 0.14410
# Poissons Ratio (y) = 0.35579 0.00207
# Poissons Ratio (z) = 0.46422 0.00427
#
# Static dielectric constant tensor:
#      x y z
#    x 1.659510 0.000000 0.000000 
#    y 0.000000 1.776280 0.000000 
#    z 0.000000 0.000000 1.743170 
# 
# From -- ./inp_files/10654.got.cif
#   From: 2010.05.17/outbox.cif.g08.bks.cpg/sg42_6_cif.got.tgz:10654.got - 2010.06.03 19:03:34.
