data_PCOD9368085
_publ_section_title
;
Structure prediction by ZEFSAII (Michael W. Deem and Ramdas Pophale) SiO2 
 PCOD9368085
Probable space group: A B A 2
;
_chemical_formula_sum "Si O2"
_cell_formula_units_Z 24
_cell_length_a 18.000000
_cell_length_b 9.000000
_cell_length_c 15.000000
_cell_angle_alpha 90.000000
_cell_angle_beta 90.000000
_cell_angle_gamma 90.000000
_cell_volume 2430.000000
_symmetry_space_group_name_H-M "A B A 2"
_symmetry_group_IT_number 41
_symmetry_cell_setting 'orthorhombic'
loop_
_space_group_symop_operation_xyz
x,y,z
-x,-y,z
1/2-x,y,1/2+z
1/2+x,-y,1/2+z
x,1/2+y,1/2+z
-x,1/2-y,1/2+z
1/2-x,1/2+y,z
1/2+x,1/2-y,z
loop_
_atom_site_type_symbol
_atom_site_label
_atom_site_fract_x
_atom_site_fract_y
_atom_site_fract_z
Si Si1 0.680529 0.810664 0.274020
Si Si2 0.935545 0.899987 0.440271
Si Si3 0.315589 0.040309 0.083194
Si Si4 0.334670 0.038368 0.774298
Si Si5 0.843199 0.315851 0.584841
Si Si6 0.550109 0.856268 0.417777
O O1 0.667203 0.896400 0.181337
O O2 0.760403 0.874186 0.305832
O O3 0.685488 0.633799 0.255767
O O4 0.614861 0.840528 0.344088
O O5 0.871460 0.884607 0.513020
O O6 0.895231 0.963372 0.352546
O O7 0.985937 0.765491 0.409286
O O8 0.000000 0.000000 0.483146
O O9 0.231782 0.092496 0.061124
O O10 0.325302 0.861228 0.082592
O O11 0.361040 0.123679 0.684604
O O12 0.907541 0.345359 0.512934
O O13 0.500000 0.000000 0.409808
#
# Coordination Sequence:
#
# PCOD9368085 Si02
#       6
#     8   8   8   8   8   8
#     4  11  24  45  67  99 124 174 216 266 315 382
#     4  12  25  46  62  96 133 172 204 269 323 383
#     4  11  24  43  71  92 132 167 221 262 320 376
#     4  11  24  43  71  92 132 167 221 262 320 376
#     4  11  24  45  67  99 124 174 216 266 315 382
#     4  12  29  42  66  96 135 168 218 260 331 383
#
# _framework density 9.8765429999999999
#
# number of rings (size 3 to 8) (size 9 to 14) (size 15 to 20)
#    0.000    0.667    3.333    5.000    9.333    2.667 
#    0.000    0.000    0.000    0.000    0.000    0.000 
#    0.000    0.000    0.000    0.000    0.000    0.000 
#
# Total GULP energy -134028.790949 kJ/mol
# GULP energy per Si atom -5584.532956 kJ/mol
# Density = 0.985406 g / cm^3
# Si number density = 9.876543 Si / 1000 Ang^3
#
#
#
# Elastic Constant Matrix: (Units=GPa)
#
#
# Indices 1 2 3 4 5 6 
#
# 1 74.8989 21.5818 39.8712 0.0000 0.0000 0.0000
# 2 21.5818 109.1888 2.6813 0.0000 0.0000 0.0000
# 3 39.8712 2.6813 68.6924 0.0000 0.0000 0.0000
# 4 0.0000 0.0000 0.0000 20.1354 0.0000 0.0000
# 5 0.0000 0.0000 0.0000 0.0000 22.5592 0.0000
# 6 0.0000 0.0000 0.0000 0.0000 0.0000 42.3764
#
#
#
# Elastic Compliance Matrix: (Units=1/GPa)
#
#
# Indices 1 2 3 4 5 6 
#
# 1 0.020799 -0.003818 -0.011923 0.000000 0.000000 0.000000
# 2 -0.003818 0.009868 0.001831 0.000000 0.000000 0.000000
# 3 -0.011923 0.001831 0.021407 0.000000 0.000000 0.000000
# 4 0.000000 0.000000 0.000000 0.049664 0.000000 0.000000
# 5 0.000000 0.000000 0.000000 0.000000 0.044328 0.000000
# 6 0.000000 0.000000 0.000000 0.000000 0.000000 0.023598
#
#
# Mechanical properties :
#
#
# Convention : Reuss Voigt Hill
#
# Bulk Modulus (GPa) = 41.23215 42.33873 41.78544
# Shear Modulus (GPa) = 24.32287 29.59060 26.95674
#
# Velocity S-wave (km/s) = 3.51286 3.87463 3.69817
# Velocity P-wave (km/s) = 6.11332 6.44186 6.27974
#
# Compressibility (1/GPa) = 0.02425292
#
# Stress axis : x y z
#
# Youngs Moduli (GPa) = 48.08028 101.33590 46.71438
#
# Poissons Ratio (x) = 0.38692 0.55698
# Poissons Ratio (y) = 0.18358 -0.08553
# Poissons Ratio (z) = 0.57326 -0.18554
#
# Static dielectric constant tensor:
#      x y z
#    x 1.644270 0.000000 0.000000 
#    y 0.000000 1.589590 0.000000 
#    z 0.000000 0.000000 1.681510 
# 
# From -- ./inp_files/8706.got.cif
#   From: 2010.05.17/outbox.ucp.g08.bks.cvg/sg41_5_cif.got.tgz:8706.got - 2010.06.11 16:28:22.
