data_PCOD9368145
_publ_section_title
;
Structure prediction by ZEFSAII (Michael W. Deem and Ramdas Pophale) SiO2 
 PCOD9368145
Probable space group: F M M 2
;
_chemical_formula_sum "Si O2"
_cell_formula_units_Z 80
_cell_length_a 8.824007
_cell_length_b 27.059227
_cell_length_c 17.481858
_cell_angle_alpha 90.000000
_cell_angle_beta 90.000000
_cell_angle_gamma 90.000000
_cell_volume 4174.157368
_symmetry_space_group_name_H-M "F M M 2"
_symmetry_group_IT_number 42
_symmetry_cell_setting 'orthorhombic'
loop_
_space_group_symop_operation_xyz
x,y,z
-x,-y,z
-x,y,z
x,-y,z
x,1/2+y,1/2+z
-x,1/2-y,1/2+z
-x,1/2+y,1/2+z
x,1/2-y,1/2+z
1/2+x,y,1/2+z
1/2-x,-y,1/2+z
1/2-x,y,1/2+z
1/2+x,-y,1/2+z
1/2+x,1/2+y,z
1/2-x,1/2-y,z
1/2-x,1/2+y,z
1/2+x,1/2-y,z
loop_
_atom_site_type_symbol
_atom_site_label
_atom_site_fract_x
_atom_site_fract_y
_atom_site_fract_z
Si Si1 0.178731 0.000000 0.507520
Si Si2 0.323516 0.591358 0.751328
Si Si3 0.676204 0.000000 0.671275
Si Si4 0.677458 0.902291 0.435743
Si Si5 0.818075 0.700857 0.256853
Si Si6 0.680699 0.300244 0.428605
O O1 0.250196 0.950954 0.471073
O O2 0.221208 0.000000 0.596254
O O3 0.000000 0.000000 0.495391
O O4 0.500000 0.580249 0.733411
O O5 0.218134 0.548863 0.718821
O O6 0.310641 0.593390 0.843449
O O7 0.288512 0.646822 0.721600
O O8 0.500000 0.000000 0.650315
O O9 0.500000 0.899202 0.454562
O O10 0.759473 0.851921 0.461719
O O11 0.750000 0.750000 0.218368
O O12 0.740917 0.699115 0.340749
O O13 0.000000 0.705470 0.265941
O O14 0.500000 0.298076 0.429656
O O15 0.750000 0.250000 0.463306
#
# Coordination Sequence:
#
# PCOD9368145 Si02
#       6
#     8  16   8  16  16  16
#     4  12  25  40  57  77 105 141 179 220 271 326
#     4   9  19  35  55  79 109 142 173 214 265 314
#     4  12  25  38  55  77 103 139 181 224 267 314
#     4  10  20  36  57  82 111 141 177 221 268 316
#     4   9  16  27  46  74 107 140 172 212 263 312
#     4  10  17  27  46  75 109 142 176 215 262 312
#
# _framework density 19.165543
#
# number of rings (size 3 to 8) (size 9 to 14) (size 15 to 20)
#    0.000    2.000    0.000    7.800    0.000    7.200 
#    0.000    0.000    0.000    1.200    0.000    5.600 
#    0.000    0.000    0.000    0.000    0.000    0.000 
#
# Total GULP energy -111602.917486 kJ/mol
# GULP energy per Si atom -5580.145874 kJ/mol
# Density = 1.912192 g / cm^3
# Si number density = 19.165543 Si / 1000 Ang^3
#
#
#
# Elastic Constant Matrix: (Units=GPa)
#
#
# Indices 1 2 3 4 5 6 
#
# 1 131.7715 88.8022 19.1720 0.0000 0.0000 0.0000
# 2 88.8022 197.0101 23.3517 0.0000 0.0000 0.0000
# 3 19.1720 23.3517 8.6549 0.0000 0.0000 0.0000
# 4 0.0000 0.0000 0.0000 -13.6597 0.0000 0.0000
# 5 0.0000 0.0000 0.0000 0.0000 19.4175 0.0000
# 6 0.0000 0.0000 0.0000 0.0000 0.0000 41.3217
#
#
#
# Elastic Compliance Matrix: (Units=1/GPa)
#
#
# Indices 1 2 3 4 5 6 
#
# 1 0.012651 -0.003500 -0.018581 0.000000 0.000000 0.000000
# 2 -0.003500 0.008431 -0.014994 0.000000 0.000000 0.000000
# 3 -0.018581 -0.014994 0.197156 0.000000 0.000000 0.000000
# 4 0.000000 0.000000 0.000000 -0.073208 0.000000 0.000000
# 5 0.000000 0.000000 0.000000 0.000000 0.051500 0.000000
# 6 0.000000 0.000000 0.000000 0.000000 0.000000 0.024200
#
#
# Mechanical properties :
#
#
# Convention : Reuss Voigt Hill
#
# Bulk Modulus (GPa) = 6.94015 66.67648 36.80832
# Shear Modulus (GPa) = 14.58111 23.15659 18.86885
#
# Velocity S-wave (km/s) = 2.76125 3.47975 3.14111
# Velocity P-wave (km/s) = 3.71416 7.14214 5.69233
#
# Compressibility (1/GPa) = 0.14408910
#
# Stress axis : x y z
#
# Youngs Moduli (GPa) = 79.04525 118.61320 5.07211
#
# Poissons Ratio (x) = 0.41515 0.09424
# Poissons Ratio (y) = 0.27666 0.07605
# Poissons Ratio (z) = 1.46871 1.77847
#
# Static dielectric constant tensor:
#      x y z
#    x 1.633780 0.000000 0.000000 
#    y 0.000000 1.724450 0.000000 
#    z 0.000000 0.000000 1.649530 
# 
# From -- ./inp_files/18242.got.cif
#   From: 2010.05.17/outbox.cif.g08.bks.cpg/sg42_10_cif.got.tgz:18242.got - 2010.06.03 19:03:34.
