data_PCOD9368556
_publ_section_title
;
Structure prediction by ZEFSAII (Michael W. Deem and Ramdas Pophale) SiO2 
 PCOD9368556
Probable space group: F M M 2
;
_chemical_formula_sum "Si O2"
_cell_formula_units_Z 96
_cell_length_a 19.853677
_cell_length_b 20.448645
_cell_length_c 11.085263
_cell_angle_alpha 90.000000
_cell_angle_beta 90.000000
_cell_angle_gamma 90.000000
_cell_volume 4500.403862
_symmetry_space_group_name_H-M "F M M 2"
_symmetry_group_IT_number 42
_symmetry_cell_setting 'orthorhombic'
loop_
_space_group_symop_operation_xyz
x,y,z
-x,-y,z
-x,y,z
x,-y,z
x,1/2+y,1/2+z
-x,1/2-y,1/2+z
-x,1/2+y,1/2+z
x,1/2-y,1/2+z
1/2+x,y,1/2+z
1/2-x,-y,1/2+z
1/2-x,y,1/2+z
1/2+x,-y,1/2+z
1/2+x,1/2+y,z
1/2-x,1/2-y,z
1/2-x,1/2+y,z
1/2+x,1/2-y,z
loop_
_atom_site_type_symbol
_atom_site_label
_atom_site_fract_x
_atom_site_fract_y
_atom_site_fract_z
Si Si1 0.079419 0.431834 0.761140
Si Si2 0.272530 0.423405 0.923468
Si Si3 0.633037 0.571811 0.536069
Si Si4 0.133307 0.332250 0.568826
Si Si5 0.421686 0.699801 0.476913
Si Si6 0.296435 0.191401 0.794018
O O1 0.104917 0.500000 0.706104
O O2 0.107786 0.431125 0.896539
O O3 0.097075 0.376485 0.667902
O O4 0.000000 0.433234 0.774194
O O5 0.284924 0.500000 0.893290
O O6 0.213763 0.423381 0.026214
O O7 0.238892 0.378408 0.819649
O O8 0.335512 0.381183 0.970310
O O9 0.615267 0.500000 0.590181
O O10 0.600220 0.641573 0.570977
O O11 0.087545 0.272964 0.525484
O O12 0.191627 0.300920 0.652016
O O13 0.500000 0.689271 0.442421
O O14 0.365973 0.697013 0.369905
O O15 0.250000 0.250000 0.840058
#
# Coordination Sequence:
#
# PCOD9368556 Si02
#       6
#    16  16  16  16  16  16
#     4  10  19  33  56  84 112 148 191 244 304 359
#     4  10  21  38  60  90 120 154 199 250 310 371
#     4   9  19  36  57  83 117 155 201 250 306 362
#     4  12  23  36  62  87 125 151 208 249 311 364
#     4  11  23  38  60  92 124 159 203 252 315 375
#     4  11  24  41  62  82 121 164 201 251 307 363
#
# _framework density 21.331419
#
# number of rings (size 3 to 8) (size 9 to 14) (size 15 to 20)
#    0.000    1.500    5.000    1.500    4.667    2.333 
#    0.000    0.000    0.000    0.000    0.000    0.000 
#    0.000    0.000    0.000    0.000    0.000    0.000 
#
# Total GULP energy -133661.836929 kJ/mol
# GULP energy per Si atom -5569.243205 kJ/mol
# Density = 2.128287 g / cm^3
# Si number density = 21.331419 Si / 1000 Ang^3
#
#
#
# Elastic Constant Matrix: (Units=GPa)
#
#
# Indices 1 2 3 4 5 6 
#
# 1 67.1966 37.9517 -8.2051 0.0000 0.0000 0.0000
# 2 37.9517 163.6842 5.3807 0.0000 0.0000 0.0000
# 3 -8.2051 5.3807 18.8203 0.0000 0.0000 0.0000
# 4 0.0000 0.0000 0.0000 27.2281 0.0000 0.0000
# 5 0.0000 0.0000 0.0000 0.0000 15.9581 0.0000
# 6 0.0000 0.0000 0.0000 0.0000 0.0000 33.1278
#
#
#
# Elastic Compliance Matrix: (Units=1/GPa)
#
#
# Indices 1 2 3 4 5 6 
#
# 1 0.018655 -0.004636 0.009459 0.000000 0.000000 0.000000
# 2 -0.004636 0.007320 -0.004114 0.000000 0.000000 0.000000
# 3 0.009459 -0.004114 0.058434 0.000000 0.000000 0.000000
# 4 0.000000 0.000000 0.000000 0.036727 0.000000 0.000000
# 5 0.000000 0.000000 0.000000 0.000000 0.062664 0.000000
# 6 0.000000 0.000000 0.000000 0.000000 0.000000 0.030186
#
#
# Mechanical properties :
#
#
# Convention : Reuss Voigt Hill
#
# Bulk Modulus (GPa) = 11.65154 35.55062 23.60108
# Shear Modulus (GPa) = 20.73160 29.56771 25.14966
#
# Velocity S-wave (km/s) = 3.12088 3.72709 3.43738
# Velocity P-wave (km/s) = 4.29657 5.93495 5.18094
#
# Compressibility (1/GPa) = 0.08582559
#
# Stress axis : x y z
#
# Youngs Moduli (GPa) = 53.60438 136.62071 17.11330
#
# Poissons Ratio (x) = 0.63342 -0.16187
# Poissons Ratio (y) = 0.24853 0.07040
# Poissons Ratio (z) = -0.50703 0.56205
#
# Static dielectric constant tensor:
#      x y z
#    x 1.817960 0.000000 0.000000 
#    y 0.000000 1.873790 0.000000 
#    z 0.000000 0.000000 1.772690 
# 
# From -- ./inp_files/10216.got.cif
#   From: 2010.05.17/outbox.cif.g08.bks.cpg/sg42_6_cif.got.tgz:10216.got - 2010.06.03 19:03:34.
