data_PCOD9368019
_publ_section_title
;
Structure prediction by ZEFSAII (Michael W. Deem and Ramdas Pophale) SiO2 
 PCOD9368019
Probable space group: A B A 2
;
_chemical_formula_sum "Si O2"
_cell_formula_units_Z 40
_cell_length_a 10.252608
_cell_length_b 14.612101
_cell_length_c 10.628815
_cell_angle_alpha 90.000000
_cell_angle_beta 90.000000
_cell_angle_gamma 90.000000
_cell_volume 1592.325559
_symmetry_space_group_name_H-M "A B A 2"
_symmetry_group_IT_number 41
_symmetry_cell_setting 'orthorhombic'
loop_
_space_group_symop_operation_xyz
x,y,z
-x,-y,z
1/2-x,y,1/2+z
1/2+x,-y,1/2+z
x,1/2+y,1/2+z
-x,1/2-y,1/2+z
1/2-x,1/2+y,z
1/2+x,1/2-y,z
loop_
_atom_site_type_symbol
_atom_site_label
_atom_site_fract_x
_atom_site_fract_y
_atom_site_fract_z
Si Si1 0.320433 0.394828 0.005010
Si Si2 0.500000 0.000000 0.337966
Si Si3 0.500000 0.000000 0.810496
Si Si4 0.259788 0.553992 0.660249
Si Si5 0.425952 0.808522 0.921633
Si Si6 0.597369 0.761450 0.159881
O O1 0.246789 0.489693 0.037123
O O2 0.349853 0.340114 0.132182
O O3 0.449329 0.421439 0.930890
O O4 0.229151 0.324088 0.931406
O O5 0.621890 0.977716 0.249514
O O6 0.522851 0.090060 0.892625
O O7 0.377068 0.031007 0.725721
O O8 0.511881 0.721178 0.553765
O O9 0.292873 0.660499 0.640762
O O10 0.452801 0.743785 0.802441
#
# Coordination Sequence:
#
# PCOD9368019 Si02
#       6
#     8   4   4   8   8   8
#     4  12  26  49  79 119 163 216 279 346 413 501
#     4  12  25  51  76 112 160 218 268 340 412 504
#     4  12  25  53  82 120 168 218 280 350 422 502
#     4  12  27  50  81 116 165 218 274 340 424 493
#     4  12  28  52  79 125 167 220 281 348 416 507
#     4  12  29  47  86 119 169 218 282 343 425 498
#
# _framework density 25.120491999999999
#
# number of rings (size 3 to 8) (size 9 to 14) (size 15 to 20)
#    0.000    0.000    4.000    4.200    5.600    0.000 
#    0.000    0.000    0.000    0.000    0.000    0.000 
#    0.000    0.000    0.000    0.000    0.000    0.000 
#
# Total GULP energy -112043.607156 kJ/mol
# GULP energy per Si atom -5602.180358 kJ/mol
# Density = 2.506332 g / cm^3
# Si number density = 25.120492 Si / 1000 Ang^3
#
#
#
# Elastic Constant Matrix: (Units=GPa)
#
#
# Indices 1 2 3 4 5 6 
#
# 1 140.1351 35.5991 54.5188 0.0000 0.0000 0.0000
# 2 35.5991 137.0427 40.4429 0.0000 0.0000 0.0000
# 3 54.5188 40.4429 132.3263 0.0000 0.0000 0.0000
# 4 0.0000 0.0000 0.0000 53.1290 0.0000 0.0000
# 5 0.0000 0.0000 0.0000 0.0000 52.1688 0.0000
# 6 0.0000 0.0000 0.0000 0.0000 0.0000 20.5893
#
#
#
# Elastic Compliance Matrix: (Units=1/GPa)
#
#
# Indices 1 2 3 4 5 6 
#
# 1 0.008711 -0.001323 -0.003185 0.000000 0.000000 0.000000
# 2 -0.001323 0.008221 -0.001968 0.000000 0.000000 0.000000
# 3 -0.003185 -0.001968 0.009470 0.000000 0.000000 0.000000
# 4 0.000000 0.000000 0.000000 0.018822 0.000000 0.000000
# 5 0.000000 0.000000 0.000000 0.000000 0.019169 0.000000
# 6 0.000000 0.000000 0.000000 0.000000 0.000000 0.048569
#
#
# Mechanical properties :
#
#
# Convention : Reuss Voigt Hill
#
# Bulk Modulus (GPa) = 74.33617 74.51396 74.42506
# Shear Modulus (GPa) = 38.34446 43.77365 41.05906
#
# Velocity S-wave (km/s) = 3.91118 4.17891 4.04726
# Velocity P-wave (km/s) = 7.07478 7.28089 7.17858
#
# Compressibility (1/GPa) = 0.01345240
#
# Stress axis : x y z
#
# Youngs Moduli (GPa) = 114.79721 121.63476 105.59105
#
# Poissons Ratio (x) = 0.16092 0.33627
# Poissons Ratio (y) = 0.15188 0.20776
# Poissons Ratio (z) = 0.36558 0.23933
#
# Static dielectric constant tensor:
#      x y z
#    x 2.078170 0.000000 0.000000 
#    y 0.000000 1.990690 0.000000 
#    z 0.000000 0.000000 2.023870 
# 
# From -- ./inp_files/4891.got.cif
#   From: 2010.05.17/outbox.cif.g08.bks.cpg/sg41_3_cif.got.tgz:4891.got - 2010.06.03 18:54:24.
