data_PCOD9368433
_publ_section_title
;
Structure prediction by ZEFSAII (Michael W. Deem and Ramdas Pophale) SiO2 
 PCOD9368433
Probable space group: F M M 2
;
_chemical_formula_sum "Si O2"
_cell_formula_units_Z 128
_cell_length_a 28.425570
_cell_length_b 20.498708
_cell_length_c 10.955154
_cell_angle_alpha 90.000000
_cell_angle_beta 90.000000
_cell_angle_gamma 90.000000
_cell_volume 6383.430849
_symmetry_space_group_name_H-M "F M M 2"
_symmetry_group_IT_number 42
_symmetry_cell_setting 'orthorhombic'
loop_
_space_group_symop_operation_xyz
x,y,z
-x,-y,z
-x,y,z
x,-y,z
x,1/2+y,1/2+z
-x,1/2-y,1/2+z
-x,1/2+y,1/2+z
x,1/2-y,1/2+z
1/2+x,y,1/2+z
1/2-x,-y,1/2+z
1/2-x,y,1/2+z
1/2+x,-y,1/2+z
1/2+x,1/2+y,z
1/2-x,1/2-y,z
1/2-x,1/2+y,z
1/2+x,1/2-y,z
loop_
_atom_site_type_symbol
_atom_site_label
_atom_site_fract_x
_atom_site_fract_y
_atom_site_fract_z
Si Si1 0.721646 0.574583 0.751830
Si Si2 0.382821 0.763448 0.481837
Si Si3 0.552592 0.423353 0.363913
Si Si4 0.945885 0.333118 0.106618
Si Si5 0.286160 0.579185 0.475036
Si Si6 0.862231 0.352317 0.819643
Si Si7 0.305808 0.744617 0.171261
Si Si8 0.633633 0.859235 0.296563
O O1 0.738024 0.500000 0.742467
O O2 0.726677 0.600803 0.612721
O O3 0.749145 0.600785 0.870652
O O4 0.666600 0.578577 0.785252
O O5 0.423109 0.737204 0.571340
O O6 0.386521 0.713242 0.369798
O O7 0.331951 0.750658 0.541859
O O8 0.383527 0.835542 0.428566
O O9 0.500000 0.412471 0.313832
O O10 0.557822 0.500000 0.389871
O O11 0.555657 0.381387 0.489362
O O12 0.595372 0.398695 0.279882
O O13 0.910673 0.360699 0.207849
O O14 0.000000 0.327012 0.144723
O O15 0.289899 0.500000 0.476916
O O16 0.334832 0.610356 0.428166
O O17 0.824651 0.324418 0.724395
O O18 0.250000 0.750000 0.169759
O O19 0.329103 0.802964 0.250864
#
# Coordination Sequence:
#
# PCOD9368433 Si02
#       8
#    16  16  16  16  16  16  16  16
#     4  10  21  35  52  75 106 143 182 225 270 319
#     4   9  20  34  48  72 103 135 171 213 265 320
#     4   9  17  31  53  79 104 131 166 213 268 318
#     4   9  18  33  52  75 103 132 168 215 263 317
#     4  10  20  34  52  75 103 139 181 224 272 322
#     4  10  19  31  50  75 103 135 173 220 269 321
#     4  10  20  33  49  72 102 138 177 217 262 318
#     4  10  20  33  51  76 103 134 173 215 267 322
#
# _framework density 20.051912000000002
#
# number of rings (size 3 to 8) (size 9 to 14) (size 15 to 20)
#    0.000    2.375    0.000    3.375    0.000    7.000 
#    0.000    6.250    0.000    0.750    0.000    0.000 
#    0.000    2.000    0.000    0.000    0.000    0.000 
#
# Total GULP energy -178231.858391 kJ/mol
# GULP energy per Si atom -5569.745575 kJ/mol
# Density = 2.000627 g / cm^3
# Si number density = 20.051912 Si / 1000 Ang^3
#
#
#
# Elastic Constant Matrix: (Units=GPa)
#
#
# Indices 1 2 3 4 5 6 
#
# 1 150.1996 27.5255 26.4418 0.0000 0.0000 0.0000
# 2 27.5255 45.5389 25.6636 0.0000 0.0000 0.0000
# 3 26.4418 25.6636 42.5357 0.0000 0.0000 0.0000
# 4 0.0000 0.0000 0.0000 21.3243 0.0000 0.0000
# 5 0.0000 0.0000 0.0000 0.0000 18.5335 0.0000
# 6 0.0000 0.0000 0.0000 0.0000 0.0000 23.9975
#
#
#
# Elastic Compliance Matrix: (Units=1/GPa)
#
#
# Indices 1 2 3 4 5 6 
#
# 1 0.007734 -0.002978 -0.003011 0.000000 0.000000 0.000000
# 2 -0.002978 0.034419 -0.018915 0.000000 0.000000 0.000000
# 3 -0.003011 -0.018915 0.036794 0.000000 0.000000 0.000000
# 4 0.000000 0.000000 0.000000 0.046895 0.000000 0.000000
# 5 0.000000 0.000000 0.000000 0.000000 0.053956 0.000000
# 6 0.000000 0.000000 0.000000 0.000000 0.000000 0.041671
#
#
# Mechanical properties :
#
#
# Convention : Reuss Voigt Hill
#
# Bulk Modulus (GPa) = 34.31902 44.17067 39.24484
# Shear Modulus (GPa) = 17.79428 23.34726 20.57077
#
# Velocity S-wave (km/s) = 2.98218 3.41595 3.20640
# Velocity P-wave (km/s) = 5.38610 6.13467 5.77253
#
# Compressibility (1/GPa) = 0.02913836
#
# Stress axis : x y z
#
# Youngs Moduli (GPa) = 129.30683 29.05384 27.17851
#
# Poissons Ratio (x) = 0.08651 0.08183
# Poissons Ratio (y) = 0.38503 0.51409
# Poissons Ratio (z) = 0.38933 0.54956
#
# Static dielectric constant tensor:
#      x y z
#    x 1.728530 0.000000 0.000000 
#    y 0.000000 1.766100 0.000000 
#    z 0.000000 0.000000 1.752590 
# 
# From -- ./inp_files/10807.got.cif
#   From: 2010.05.17/outbox.cif.g08.bks.cpg/sg42_6_cif.got.tgz:10807.got - 2010.06.03 19:03:34.
