data_PCOD9368292
_publ_section_title
;
Structure prediction by ZEFSAII (Michael W. Deem and Ramdas Pophale) SiO2 
 PCOD9368292
Probable space group: F M M 2
;
_chemical_formula_sum "Si O2"
_cell_formula_units_Z 112
_cell_length_a 14.546892
_cell_length_b 29.413432
_cell_length_c 14.977042
_cell_angle_alpha 90.000000
_cell_angle_beta 90.000000
_cell_angle_gamma 90.000000
_cell_volume 6408.287148
_symmetry_space_group_name_H-M "F M M 2"
_symmetry_group_IT_number 42
_symmetry_cell_setting 'orthorhombic'
loop_
_space_group_symop_operation_xyz
x,y,z
-x,-y,z
-x,y,z
x,-y,z
x,1/2+y,1/2+z
-x,1/2-y,1/2+z
-x,1/2+y,1/2+z
x,1/2-y,1/2+z
1/2+x,y,1/2+z
1/2-x,-y,1/2+z
1/2-x,y,1/2+z
1/2+x,-y,1/2+z
1/2+x,1/2+y,z
1/2-x,1/2-y,z
1/2-x,1/2+y,z
1/2+x,1/2-y,z
loop_
_atom_site_type_symbol
_atom_site_label
_atom_site_fract_x
_atom_site_fract_y
_atom_site_fract_z
Si Si1 0.390396 0.297769 0.777040
Si Si2 0.608705 0.293527 0.173577
Si Si3 0.293565 0.946258 0.349456
Si Si4 0.308412 0.592438 0.038423
Si Si5 0.000000 0.948573 0.064872
Si Si6 0.249233 0.626899 0.715347
Si Si7 0.500000 0.051341 0.349093
Si Si8 0.891701 0.815025 0.977309
O O1 0.500000 0.304919 0.765868
O O2 0.364624 0.251634 0.726344
O O3 0.333616 0.340298 0.740461
O O4 0.371677 0.292648 0.882732
O O5 0.500000 0.301283 0.187108
O O6 0.665037 0.337720 0.203533
O O7 0.623418 0.286599 0.067317
O O8 0.281044 0.939988 0.456333
O O9 0.234554 0.911620 0.290445
O O10 0.399293 0.930501 0.327095
O O11 0.283780 0.000000 0.328657
O O12 0.239778 0.602006 0.119549
O O13 0.403796 0.575709 0.084514
O O14 0.332596 0.639745 0.989954
O O15 0.000000 0.950317 0.956718
O O16 0.000000 0.000000 0.099235
O O17 0.500000 0.000000 0.314265
O O18 0.000000 0.828337 0.976252
#
# Coordination Sequence:
#
# PCOD9368292 Si02
#       8
#    16  16  16  16   8  16   8  16
#     4  10  20  36  57  85 112 138 178 224 269 328
#     4   9  20  38  56  81 114 140 177 225 271 324
#     4  10  20  34  53  81 112 142 180 229 275 321
#     4  10  18  32  51  79 109 139 177 226 275 314
#     4   9  16  28  52  80 102 132 178 234 281 314
#     4  11  22  33  56  83 109 143 182 218 276 326
#     4   7  14  28  50  76 102 128 166 228 283 308
#     4   9  16  31  57  78 101 137 173 220 277 309
#
# _framework density 17.477368999999999
#
# number of rings (size 3 to 8) (size 9 to 14) (size 15 to 20)
#    0.000    2.429    2.143    1.714    2.000    1.143 
#    2.571    1.429    0.000    0.000    0.000    0.000 
#    0.000    0.000    0.000    0.000    0.000    0.000 
#
# Total GULP energy -155935.756408 kJ/mol
# GULP energy per Si atom -5569.134157 kJ/mol
# Density = 1.743759 g / cm^3
# Si number density = 17.477369 Si / 1000 Ang^3
#
#
#
# Elastic Constant Matrix: (Units=GPa)
#
#
# Indices 1 2 3 4 5 6 
#
# 1 39.5463 29.2856 38.5135 0.0000 0.0000 0.0000
# 2 29.2856 98.2898 57.6888 0.0000 0.0000 0.0000
# 3 38.5135 57.6888 102.1756 0.0000 0.0000 0.0000
# 4 0.0000 0.0000 0.0000 20.2373 0.0000 0.0000
# 5 0.0000 0.0000 0.0000 0.0000 20.6530 0.0000
# 6 0.0000 0.0000 0.0000 0.0000 0.0000 22.8301
#
#
#
# Elastic Compliance Matrix: (Units=1/GPa)
#
#
# Indices 1 2 3 4 5 6 
#
# 1 0.041384 -0.004748 -0.012918 0.000000 0.000000 0.000000
# 2 -0.004748 0.015761 -0.007109 0.000000 0.000000 0.000000
# 3 -0.012918 -0.007109 0.018670 0.000000 0.000000 0.000000
# 4 0.000000 0.000000 0.000000 0.049414 0.000000 0.000000
# 5 0.000000 0.000000 0.000000 0.000000 0.048419 0.000000
# 6 0.000000 0.000000 0.000000 0.000000 0.000000 0.043802
#
#
# Mechanical properties :
#
#
# Convention : Reuss Voigt Hill
#
# Bulk Modulus (GPa) = 38.07457 54.55417 46.31437
# Shear Modulus (GPa) = 18.13201 20.37901 19.25551
#
# Velocity S-wave (km/s) = 3.22445 3.41841 3.32285
# Velocity P-wave (km/s) = 5.97454 6.84563 6.42487
#
# Compressibility (1/GPa) = 0.02626425
#
# Stress axis : x y z
#
# Youngs Moduli (GPa) = 24.16403 63.44662 53.56157
#
# Poissons Ratio (x) = 0.30127 0.69191
# Poissons Ratio (y) = 0.11474 0.38077
# Poissons Ratio (z) = 0.31215 0.45104
#
# Static dielectric constant tensor:
#      x y z
#    x 1.634150 0.000000 0.000000 
#    y 0.000000 1.608620 0.000000 
#    z 0.000000 0.000000 1.609840 
# 
# From -- ./inp_files/14443.got.cif
#   From: 2010.05.17/outbox.cif.g08.bks.cpg/sg42_8_cif.got.tgz:14443.got - 2010.06.03 19:03:34.
