data_PCOD9368551
_publ_section_title
;
Structure prediction by ZEFSAII (Michael W. Deem and Ramdas Pophale) SiO2 
 PCOD9368551
Probable space group: F M M 2
;
_chemical_formula_sum "Si O2"
_cell_formula_units_Z 128
_cell_length_a 17.999565
_cell_length_b 20.381905
_cell_length_c 20.140380
_cell_angle_alpha 90.000000
_cell_angle_beta 90.000000
_cell_angle_gamma 90.000000
_cell_volume 7388.809046
_symmetry_space_group_name_H-M "F M M 2"
_symmetry_group_IT_number 42
_symmetry_cell_setting 'orthorhombic'
loop_
_space_group_symop_operation_xyz
x,y,z
-x,-y,z
-x,y,z
x,-y,z
x,1/2+y,1/2+z
-x,1/2-y,1/2+z
-x,1/2+y,1/2+z
x,1/2-y,1/2+z
1/2+x,y,1/2+z
1/2-x,-y,1/2+z
1/2-x,y,1/2+z
1/2+x,-y,1/2+z
1/2+x,1/2+y,z
1/2-x,1/2-y,z
1/2-x,1/2+y,z
1/2+x,1/2-y,z
loop_
_atom_site_type_symbol
_atom_site_label
_atom_site_fract_x
_atom_site_fract_y
_atom_site_fract_z
Si Si1 0.415113 0.602057 0.360720
Si Si2 0.085429 0.742114 0.348631
Si Si3 0.686383 0.926608 0.445028
Si Si4 0.669493 0.213461 0.081340
Si Si5 0.255676 0.574187 0.303264
Si Si6 0.690408 0.693943 0.735398
Si Si7 0.088189 0.188747 0.990331
Si Si8 0.649843 0.074919 0.005358
O O1 0.500000 0.580247 0.345310
O O2 0.411242 0.679422 0.344943
O O3 0.343389 0.574721 0.321562
O O4 0.398791 0.588118 0.438722
O O5 0.127269 0.706285 0.289566
O O6 0.113146 0.724839 0.422253
O O7 0.000000 0.721655 0.346020
O O8 0.710439 0.906284 0.370316
O O9 0.631627 0.879246 0.484026
O O10 0.764864 0.928943 0.482126
O O11 0.655287 0.000000 0.440729
O O12 0.750000 0.250000 0.067287
O O13 0.664740 0.203835 0.160191
O O14 0.612146 0.265519 0.050915
O O15 0.651354 0.141571 0.049555
O O16 0.235131 0.500000 0.286146
O O17 0.231374 0.625076 0.247487
O O18 0.750000 0.750000 0.750372
O O19 0.000000 0.179784 0.990386
O O20 0.630723 0.000000 0.030485
#
# Coordination Sequence:
#
# PCOD9368551 Si02
#       8
#    16  16  16  16  16  16  16  16
#     4  10  19  33  55  86 119 145 183 241 295 336
#     4  10  20  34  57  84 110 144 186 234 287 336
#     4   9  18  33  55  84 113 144 184 233 283 332
#     4  11  23  37  56  81 112 150 191 234 282 335
#     4  10  20  34  56  85 115 151 191 229 277 341
#     4  11  22  37  57  81 110 150 194 233 282 334
#     4  11  21  35  59  87 110 144 190 236 286 340
#     4  10  20  34  55  82 112 149 189 229 282 343
#
# _framework density 17.323495999999999
#
# number of rings (size 3 to 8) (size 9 to 14) (size 15 to 20)
#    0.000    1.750    5.000    1.125    0.000    2.750 
#    0.000    0.000    0.000    0.375    0.000    1.750 
#    0.000    0.000    0.000    0.000    0.000    0.000 
#
# Total GULP energy -178179.191490 kJ/mol
# GULP energy per Si atom -5568.099734 kJ/mol
# Density = 1.728407 g / cm^3
# Si number density = 17.323496 Si / 1000 Ang^3
#
#
#
# Elastic Constant Matrix: (Units=GPa)
#
#
# Indices 1 2 3 4 5 6 
#
# 1 70.0485 45.9737 39.6655 0.0000 0.0000 0.0000
# 2 45.9737 97.1731 27.8478 0.0000 0.0000 0.0000
# 3 39.6655 27.8478 60.0001 0.0000 0.0000 0.0000
# 4 0.0000 0.0000 0.0000 0.1948 0.0000 0.0000
# 5 0.0000 0.0000 0.0000 0.0000 19.5986 0.0000
# 6 0.0000 0.0000 0.0000 0.0000 0.0000 16.8058
#
#
#
# Elastic Compliance Matrix: (Units=1/GPa)
#
#
# Indices 1 2 3 4 5 6 
#
# 1 0.028729 -0.009399 -0.014630 0.000000 0.000000 0.000000
# 2 -0.009399 0.014945 -0.000723 0.000000 0.000000 0.000000
# 3 -0.014630 -0.000723 0.026674 0.000000 0.000000 0.000000
# 4 0.000000 0.000000 0.000000 5.133698 0.000000 0.000000
# 5 0.000000 0.000000 0.000000 0.000000 0.051024 0.000000
# 6 0.000000 0.000000 0.000000 0.000000 0.000000 0.059503
#
#
# Mechanical properties :
#
#
# Convention : Reuss Voigt Hill
#
# Bulk Modulus (GPa) = 47.97562 50.46619 49.22091
# Shear Modulus (GPa) = 0.93092 14.90216 7.91654
#
# Velocity S-wave (km/s) = 0.73385 2.93615 2.14003
# Velocity P-wave (km/s) = 5.33593 6.37883 5.88055
#
# Compressibility (1/GPa) = 0.02084392
#
# Stress axis : x y z
#
# Youngs Moduli (GPa) = 34.80781 66.91225 37.48999
#
# Poissons Ratio (x) = 0.62894 0.54848
# Poissons Ratio (y) = 0.32717 0.02709
# Poissons Ratio (z) = 0.50924 0.04835
#
# Static dielectric constant tensor:
#      x y z
#    x 1.592490 0.000000 0.000000 
#    y 0.000000 1.626330 0.000000 
#    z 0.000000 0.000000 1.578930 
# 
# From -- ./inp_files/26239.got.cif
#   From: 2010.05.17/outbox.cif.g08.bks.cpg/sg42_14_cif.got.tgz:26239.got - 2010.06.03 19:03:34.
