data_PCOD9368440
_publ_section_title
;
Structure prediction by ZEFSAII (Michael W. Deem and Ramdas Pophale) SiO2 
 PCOD9368440
Probable space group: F M M 2
;
_chemical_formula_sum "Si O2"
_cell_formula_units_Z 112
_cell_length_a 20.112222
_cell_length_b 21.625821
_cell_length_c 13.571143
_cell_angle_alpha 90.000000
_cell_angle_beta 90.000000
_cell_angle_gamma 90.000000
_cell_volume 5902.677896
_symmetry_space_group_name_H-M "F M M 2"
_symmetry_group_IT_number 42
_symmetry_cell_setting 'orthorhombic'
loop_
_space_group_symop_operation_xyz
x,y,z
-x,-y,z
-x,y,z
x,-y,z
x,1/2+y,1/2+z
-x,1/2-y,1/2+z
-x,1/2+y,1/2+z
x,1/2-y,1/2+z
1/2+x,y,1/2+z
1/2-x,-y,1/2+z
1/2-x,y,1/2+z
1/2+x,-y,1/2+z
1/2+x,1/2+y,z
1/2-x,1/2-y,z
1/2-x,1/2+y,z
1/2+x,1/2-y,z
loop_
_atom_site_type_symbol
_atom_site_label
_atom_site_fract_x
_atom_site_fract_y
_atom_site_fract_z
Si Si1 0.727317 0.072967 0.202060
Si Si2 0.173853 0.740853 0.846505
Si Si3 0.792119 0.629602 0.993200
Si Si4 0.578550 0.931631 0.554971
Si Si5 0.847455 0.379874 0.385315
Si Si6 0.863019 0.930654 0.328742
Si Si7 0.424439 0.667075 0.213873
O O1 0.671411 0.089157 0.282402
O O2 0.797515 0.083661 0.260358
O O3 0.726029 0.000000 0.174852
O O4 0.714340 0.117451 0.108961
O O5 0.250000 0.750000 0.811716
O O6 0.183002 0.693983 0.940778
O O7 0.142712 0.806501 0.875212
O O8 0.128611 0.714505 0.758426
O O9 0.718789 0.615790 0.951991
O O10 0.840141 0.580503 0.940070
O O11 0.500000 0.935037 0.571032
O O12 0.595916 0.915611 0.443307
O O13 0.599548 0.871933 0.618873
O O14 0.607125 0.000000 0.579882
O O15 0.921446 0.885553 0.297835
O O16 0.882589 0.000000 0.310840
O O17 0.500000 0.690033 0.199938
#
# Coordination Sequence:
#
# PCOD9368440 Si02
#       7
#    16  16  16  16  16  16  16
#     4  10  19  31  52  80 107 137 175 222 275 326
#     4   9  20  37  54  78 109 142 178 219 271 327
#     4   9  18  32  49  75 106 136 170 214 270 325
#     4  10  21  36  54  78 108 143 184 229 276 324
#     4  10  20  34  53  76 104 140 179 218 266 326
#     4   9  17  29  47  74 107 138 170 216 271 322
#     4  10  20  34  54  79 107 141 182 226 271 322
#
# _framework density 18.974439
#
# number of rings (size 3 to 8) (size 9 to 14) (size 15 to 20)
#    0.000    2.429    0.000    3.000    0.000    5.429 
#    0.000    8.571    0.000    3.429    0.000    0.000 
#    0.000    0.000    0.000    0.000    0.000    0.000 
#
# Total GULP energy -155904.847270 kJ/mol
# GULP energy per Si atom -5568.030260 kJ/mol
# Density = 1.893125 g / cm^3
# Si number density = 18.974439 Si / 1000 Ang^3
#
#
#
# Elastic Constant Matrix: (Units=GPa)
#
#
# Indices 1 2 3 4 5 6 
#
# 1 31.7159 21.3915 26.6296 0.0000 0.0000 0.0000
# 2 21.3915 65.0576 9.6934 0.0000 0.0000 0.0000
# 3 26.6296 9.6934 88.0112 0.0000 0.0000 0.0000
# 4 0.0000 0.0000 0.0000 14.4464 0.0000 0.0000
# 5 0.0000 0.0000 0.0000 0.0000 21.9958 0.0000
# 6 0.0000 0.0000 0.0000 0.0000 0.0000 0.3868
#
#
#
# Elastic Compliance Matrix: (Units=1/GPa)
#
#
# Indices 1 2 3 4 5 6 
#
# 1 0.054543 -0.015734 -0.014770 0.000000 0.000000 0.000000
# 2 -0.015734 0.020166 0.002539 0.000000 0.000000 0.000000
# 3 -0.014770 0.002539 0.015552 0.000000 0.000000 0.000000
# 4 0.000000 0.000000 0.000000 0.069221 0.000000 0.000000
# 5 0.000000 0.000000 0.000000 0.000000 0.045463 0.000000
# 6 0.000000 0.000000 0.000000 0.000000 0.000000 2.585192
#
#
# Mechanical properties :
#
#
# Convention : Reuss Voigt Hill
#
# Bulk Modulus (GPa) = 29.12734 33.35706 31.24220
# Shear Modulus (GPa) = 1.74978 15.83715 8.79346
#
# Velocity S-wave (km/s) = 0.96134 2.89218 2.15509
# Velocity P-wave (km/s) = 4.07632 5.36387 4.76379
#
# Compressibility (1/GPa) = 0.03433200
#
# Stress axis : x y z
#
# Youngs Moduli (GPa) = 18.33406 49.58860 64.30227
#
# Poissons Ratio (x) = 0.78020 0.94976
# Poissons Ratio (y) = 0.28846 -0.16329
# Poissons Ratio (z) = 0.27080 -0.12593
#
# Static dielectric constant tensor:
#      x y z
#    x 1.679460 0.000000 0.000000 
#    y 0.000000 1.721560 0.000000 
#    z 0.000000 0.000000 1.688530 
# 
# From -- ./inp_files/9642.got.cif
#   From: 2010.05.17/outbox.cif.g08.bks.cpg/sg42_5_cif.got.tgz:9642.got - 2010.06.03 19:03:34.
