data_PCOD9368773
_publ_section_title
;
Structure prediction by ZEFSAII (Michael W. Deem and Ramdas Pophale) SiO2 
 PCOD9368773
Probable space group: F M M 2
;
_chemical_formula_sum "Si O2"
_cell_formula_units_Z 96
_cell_length_a 30.458861
_cell_length_b 17.014457
_cell_length_c 8.530688
_cell_angle_alpha 90.000000
_cell_angle_beta 90.000000
_cell_angle_gamma 90.000000
_cell_volume 4420.952116
_symmetry_space_group_name_H-M "F M M 2"
_symmetry_group_IT_number 42
_symmetry_cell_setting 'orthorhombic'
loop_
_space_group_symop_operation_xyz
x,y,z
-x,-y,z
-x,y,z
x,-y,z
x,1/2+y,1/2+z
-x,1/2-y,1/2+z
-x,1/2+y,1/2+z
x,1/2-y,1/2+z
1/2+x,y,1/2+z
1/2-x,-y,1/2+z
1/2-x,y,1/2+z
1/2+x,-y,1/2+z
1/2+x,1/2+y,z
1/2-x,1/2-y,z
1/2-x,1/2+y,z
1/2+x,1/2-y,z
loop_
_atom_site_type_symbol
_atom_site_label
_atom_site_fract_x
_atom_site_fract_y
_atom_site_fract_z
Si Si1 0.241625 0.869728 0.295850
Si Si2 0.085377 0.587857 0.451527
Si Si3 0.103421 0.903699 0.604347
Si Si4 0.185041 0.390694 0.534153
Si Si5 0.188787 0.295777 0.062677
Si Si6 0.449153 0.404713 0.285058
O O1 0.206553 0.918177 0.195930
O O2 0.277138 0.909239 0.408608
O O3 0.210560 0.814603 0.397256
O O4 0.273114 0.823015 0.179122
O O5 0.065869 0.500000 0.445400
O O6 0.080837 0.618531 0.272369
O O7 0.137653 0.582049 0.481334
O O8 0.067363 0.625489 0.613843
O O9 0.147713 0.852409 0.595205
O O10 0.077266 0.883768 0.443769
O O11 0.110472 0.000000 0.608025
O O12 0.179242 0.296390 0.558461
O O13 0.500000 0.383694 0.303999
O O14 0.445511 0.500000 0.277775
#
# Coordination Sequence:
#
# PCOD9368773 Si02
#       6
#    16  16  16  16  16  16
#     4  10  20  31  50  75 106 143 196 236 259 301
#     4  10  21  37  56  84 117 142 177 230 283 334
#     4  10  21  37  56  84 117 142 177 230 283 334
#     4  11  19  33  52  76 105 147 190 230 266 315
#     4  11  19  33  52  76 105 147 190 230 266 315
#     4   9  19  37  61  85 108 141 182 223 274 338
#
# _framework density 21.714780000000001
#
# number of rings (size 3 to 8) (size 9 to 14) (size 15 to 20)
#    0.000    1.833    1.667    5.000    0.000    0.667 
#    0.000    8.333    0.000    1.000    0.000    0.000 
#    0.000    0.000    0.000    0.000    0.000    0.000 
#
# Total GULP energy -133749.416850 kJ/mol
# GULP energy per Si atom -5572.892369 kJ/mol
# Density = 2.166536 g / cm^3
# Si number density = 21.714780 Si / 1000 Ang^3
#
#
#
# Elastic Constant Matrix: (Units=GPa)
#
#
# Indices 1 2 3 4 5 6 
#
# 1 75.1555 12.9791 51.7946 0.0000 0.0000 0.0000
# 2 12.9791 85.1765 28.8254 0.0000 0.0000 0.0000
# 3 51.7946 28.8254 188.2061 0.0000 0.0000 0.0000
# 4 0.0000 0.0000 0.0000 31.9635 0.0000 0.0000
# 5 0.0000 0.0000 0.0000 0.0000 17.2588 0.0000
# 6 0.0000 0.0000 0.0000 0.0000 0.0000 14.3613
#
#
#
# Elastic Compliance Matrix: (Units=1/GPa)
#
#
# Indices 1 2 3 4 5 6 
#
# 1 0.016505 -0.001031 -0.004384 0.000000 0.000000 0.000000
# 2 -0.001031 0.012447 -0.001622 0.000000 0.000000 0.000000
# 3 -0.004384 -0.001622 0.006768 0.000000 0.000000 0.000000
# 4 0.000000 0.000000 0.000000 0.031286 0.000000 0.000000
# 5 0.000000 0.000000 0.000000 0.000000 0.057941 0.000000
# 6 0.000000 0.000000 0.000000 0.000000 0.000000 0.069631
#
#
# Mechanical properties :
#
#
# Convention : Reuss Voigt Hill
#
# Bulk Modulus (GPa) = 46.20209 59.52627 52.86418
# Shear Modulus (GPa) = 23.16212 29.71268 26.43740
#
# Velocity S-wave (km/s) = 3.26951 3.70309 3.49303
# Velocity P-wave (km/s) = 5.96455 6.76433 6.37699
#
# Compressibility (1/GPa) = 0.02164404
#
# Stress axis : x y z
#
# Youngs Moduli (GPa) = 60.58628 80.34352 147.74538
#
# Poissons Ratio (x) = 0.08286 0.64777
# Poissons Ratio (y) = 0.06248 0.23971
# Poissons Ratio (z) = 0.26563 0.13036
#
# Static dielectric constant tensor:
#      x y z
#    x 1.750060 0.000000 0.000000 
#    y 0.000000 1.745640 0.000000 
#    z 0.000000 0.000000 1.890790 
# 
# From -- ./inp_files/5184.got.cif
#   From: 2010.05.17/outbox.cif.g08.bks.cpg/sg42_3_cif.got.tgz:5184.got - 2010.06.03 19:03:34.
