data_PCOD9368048
_publ_section_title
;
Structure prediction by ZEFSAII (Michael W. Deem and Ramdas Pophale) SiO2 
 PCOD9368048
Probable space group: A B A 2
;
_chemical_formula_sum "Si O2"
_cell_formula_units_Z 64
_cell_length_a 7.928580
_cell_length_b 12.817181
_cell_length_c 29.090378
_cell_angle_alpha 90.000000
_cell_angle_beta 90.000000
_cell_angle_gamma 90.000000
_cell_volume 2956.223700
_symmetry_space_group_name_H-M "A B A 2"
_symmetry_group_IT_number 41
_symmetry_cell_setting 'orthorhombic'
loop_
_space_group_symop_operation_xyz
x,y,z
-x,-y,z
1/2-x,y,1/2+z
1/2+x,-y,1/2+z
x,1/2+y,1/2+z
-x,1/2-y,1/2+z
1/2-x,1/2+y,z
1/2+x,1/2-y,z
loop_
_atom_site_type_symbol
_atom_site_label
_atom_site_fract_x
_atom_site_fract_y
_atom_site_fract_z
Si Si1 0.314632 0.582424 0.821930
Si Si2 0.466949 0.288653 0.322846
Si Si3 0.966949 0.711346 0.073521
Si Si4 0.823246 0.564303 0.896255
Si Si5 0.185368 0.082424 0.074437
Si Si6 0.676754 0.064303 0.000112
Si Si7 0.326953 0.935082 0.149375
Si Si8 0.326953 0.435082 0.246992
O O1 0.465631 0.664389 0.821643
O O2 0.299154 0.508134 0.866078
O O3 0.292891 0.510634 0.777175
O O4 0.148910 0.656899 0.823165
O O5 0.368672 0.332243 0.367602
O O6 0.373576 0.336010 0.278253
O O7 0.965630 0.835611 0.074724
O O8 0.868672 0.667757 0.028765
O O9 0.873576 0.663990 0.118114
O O10 0.148910 0.656899 0.073202
O O11 0.000000 0.500000 0.897810
O O12 0.766434 0.583965 0.948183
O O13 0.200846 0.008134 0.030289
O O14 0.207109 0.010634 0.119192
O O15 0.500000 0.000000 0.998556
O O16 0.250000 0.907396 0.198183
O O17 0.500000 0.000000 0.155874
O O18 0.500000 0.500000 0.240492
#
# Coordination Sequence:
#
# PCOD9368048 Si02
#       8
#     8   8   8   8   8   8   8   8
#     4   9  18  32  49  70  95 122 154 191 230 273
#     4   9  18  32  49  70  95 122 154 191 230 273
#     4   9  18  32  49  70  95 122 154 191 230 273
#     4   8  15  30  50  69  93 126 157 185 225 277
#     4   9  18  32  49  70  95 122 154 191 230 273
#     4   8  15  30  50  69  93 126 157 185 225 277
#     4   9  19  34  49  67  93 124 156 190 230 276
#     4   9  19  34  49  67  93 124 156 190 230 276
#
# _framework density 21.649239999999999
#
# number of rings (size 3 to 8) (size 9 to 14) (size 15 to 20)
#    0.000    3.250    0.000    3.000    0.000    4.000 
#    0.000    8.750    0.000    1.500    0.000    0.000 
#    0.000    0.000    0.000    0.000    0.000    0.000 
#
# Total GULP energy -178815.853592 kJ/mol
# GULP energy per Si atom -5587.995425 kJ/mol
# Density = 2.159997 g / cm^3
# Si number density = 21.649240 Si / 1000 Ang^3
#
#
#
# Elastic Constant Matrix: (Units=GPa)
#
#
# Indices 1 2 3 4 5 6 
#
# 1 63.5516 34.6028 29.6972 0.0000 0.0000 0.0000
# 2 34.6028 73.1080 29.9902 0.0000 0.0000 0.0000
# 3 29.6972 29.9902 165.1210 0.0000 0.0000 0.0000
# 4 0.0000 0.0000 0.0000 3.1416 0.0000 0.0000
# 5 0.0000 0.0000 0.0000 0.0000 10.2428 0.0000
# 6 0.0000 0.0000 0.0000 0.0000 0.0000 42.5221
#
#
#
# Elastic Compliance Matrix: (Units=1/GPa)
#
#
# Indices 1 2 3 4 5 6 
#
# 1 0.021929 -0.009467 -0.002225 0.000000 0.000000 0.000000
# 2 -0.009467 0.018866 -0.001724 0.000000 0.000000 0.000000
# 3 -0.002225 -0.001724 0.006769 0.000000 0.000000 0.000000
# 4 0.000000 0.000000 0.000000 0.318311 0.000000 0.000000
# 5 0.000000 0.000000 0.000000 0.000000 0.097629 0.000000
# 6 0.000000 0.000000 0.000000 0.000000 0.000000 0.023517
#
#
# Mechanical properties :
#
#
# Convention : Reuss Voigt Hill
#
# Bulk Modulus (GPa) = 48.22941 54.48455 51.35698
# Shear Modulus (GPa) = 9.60127 25.01400 17.30763
#
# Velocity S-wave (km/s) = 2.10821 3.40284 2.83053
# Velocity P-wave (km/s) = 5.31527 6.37657 5.86995
#
# Compressibility (1/GPa) = 0.02073423
#
# Stress axis : x y z
#
# Youngs Moduli (GPa) = 45.60107 53.00439 147.72396
#
# Poissons Ratio (x) = 0.50178 0.32863
# Poissons Ratio (y) = 0.43170 0.25467
# Poissons Ratio (z) = 0.10144 0.09138
#
# Static dielectric constant tensor:
#      x y z
#    x 1.871970 0.000000 0.000000 
#    y 0.000000 1.742450 0.000000 
#    z 0.000000 0.000000 1.741180 
# 
# From -- ./inp_files/2851.got.cif
#   From: 2010.05.17/outbox.cif.g08.bks.cpg/sg41_2_cif.got.tgz:2851.got - 2010.06.03 18:54:24.
