data_PCOD9368487
_publ_section_title
;
Structure prediction by ZEFSAII (Michael W. Deem and Ramdas Pophale) SiO2 
 PCOD9368487
Probable space group: F M M 2
;
_chemical_formula_sum "Si O2"
_cell_formula_units_Z 80
_cell_length_a 23.987630
_cell_length_b 11.676698
_cell_length_c 14.045893
_cell_angle_alpha 90.000000
_cell_angle_beta 90.000000
_cell_angle_gamma 90.000000
_cell_volume 3934.202817
_symmetry_space_group_name_H-M "F M M 2"
_symmetry_group_IT_number 42
_symmetry_cell_setting 'orthorhombic'
loop_
_space_group_symop_operation_xyz
x,y,z
-x,-y,z
-x,y,z
x,-y,z
x,1/2+y,1/2+z
-x,1/2-y,1/2+z
-x,1/2+y,1/2+z
x,1/2-y,1/2+z
1/2+x,y,1/2+z
1/2-x,-y,1/2+z
1/2-x,y,1/2+z
1/2+x,-y,1/2+z
1/2+x,1/2+y,z
1/2-x,1/2-y,z
1/2-x,1/2+y,z
1/2+x,1/2-y,z
loop_
_atom_site_type_symbol
_atom_site_label
_atom_site_fract_x
_atom_site_fract_y
_atom_site_fract_z
Si Si1 0.858547 0.197458 0.491430
Si Si2 0.343937 0.371208 0.846706
Si Si3 0.565700 0.869542 0.612401
Si Si4 0.434484 0.804507 0.829658
Si Si5 0.721607 0.374849 0.647879
O O1 0.821730 0.282067 0.424911
O O2 0.896937 0.280403 0.555715
O O3 0.899398 0.138090 0.414820
O O4 0.821979 0.123814 0.561285
O O5 0.344489 0.500000 0.882645
O O6 0.406246 0.321856 0.828082
O O7 0.310281 0.368671 0.748795
O O8 0.500000 0.846824 0.595736
O O9 0.575132 0.857385 0.725817
O O10 0.577495 0.000000 0.583815
O O11 0.500000 0.803200 0.848746
O O12 0.752279 0.500000 0.646810
O O13 0.750000 0.250000 0.638807
#
# Coordination Sequence:
#
# PCOD9368487 Si02
#       5
#    16  16  16  16  16
#     4  10  19  38  59  89 117 157 205 254 302 361
#     4   9  20  38  58  87 126 160 202 253 306 367
#     4  10  19  32  54  86 125 166 207 247 293 360
#     4   9  19  34  56  89 129 162 200 240 299 367
#     4  11  25  46  66  90 121 160 210 266 325 376
#
# _framework density 20.334488
#
# number of rings (size 3 to 8) (size 9 to 14) (size 15 to 20)
#    1.200    1.000    2.000    1.200    0.000    3.600 
#    0.000    3.000    0.000    1.800    0.000    0.000 
#    0.000    0.000    0.000    0.000    0.000    0.000 
#
# Total GULP energy -111359.742896 kJ/mol
# GULP energy per Si atom -5567.987145 kJ/mol
# Density = 2.028821 g / cm^3
# Si number density = 20.334488 Si / 1000 Ang^3
#
#
#
# Elastic Constant Matrix: (Units=GPa)
#
#
# Indices 1 2 3 4 5 6 
#
# 1 39.0471 32.6972 26.7791 0.0000 0.0000 0.0000
# 2 32.6972 123.2514 31.2427 0.0000 0.0000 0.0000
# 3 26.7791 31.2427 107.0953 0.0000 0.0000 0.0000
# 4 0.0000 0.0000 0.0000 -28.5013 0.0000 0.0000
# 5 0.0000 0.0000 0.0000 0.0000 1.4052 0.0000
# 6 0.0000 0.0000 0.0000 0.0000 0.0000 19.9437
#
#
#
# Elastic Compliance Matrix: (Units=1/GPa)
#
#
# Indices 1 2 3 4 5 6 
#
# 1 0.037140 -0.008097 -0.006924 0.000000 0.000000 0.000000
# 2 -0.008097 0.010527 -0.001046 0.000000 0.000000 0.000000
# 3 -0.006924 -0.001046 0.011374 0.000000 0.000000 0.000000
# 4 0.000000 0.000000 0.000000 -0.035086 0.000000 0.000000
# 5 0.000000 0.000000 0.000000 0.000000 0.711631 0.000000
# 6 0.000000 0.000000 0.000000 0.000000 0.000000 0.050141
#
#
# Mechanical properties :
#
#
# Convention : Reuss Voigt Hill
#
# Bulk Modulus (GPa) = 37.16870 50.09241 43.63055
# Shear Modulus (GPa) = 6.04718 10.48118 8.26418
#
# Velocity S-wave (km/s) = 1.72636 2.27279 2.01815
# Velocity P-wave (km/s) = 4.72145 5.61917 5.18976
#
# Compressibility (1/GPa) = 0.02690436
#
# Stress axis : x y z
#
# Youngs Moduli (GPa) = 26.92538 94.99506 87.91866
#
# Poissons Ratio (x) = 0.76922 0.60879
# Poissons Ratio (y) = 0.21803 0.09198
# Poissons Ratio (z) = 0.18644 0.09938
#
# Static dielectric constant tensor:
#      x y z
#    x 1.717630 0.000000 0.000000 
#    y 0.000000 1.792360 0.000000 
#    z 0.000000 0.000000 1.730100 
# 
# From -- ./inp_files/13118.got.cif
#   From: 2010.05.17/outbox.cif.g08.bks.cpg/sg42_7_cif.got.tgz:13118.got - 2010.06.03 19:03:34.
