data_PCOD9368794
_publ_section_title
;
Structure prediction by ZEFSAII (Michael W. Deem and Ramdas Pophale) SiO2 
 PCOD9368794
Probable space group: F M M 2
;
_chemical_formula_sum "Si O2"
_cell_formula_units_Z 72
_cell_length_a 7.911201
_cell_length_b 24.234605
_cell_length_c 19.337643
_cell_angle_alpha 90.000000
_cell_angle_beta 90.000000
_cell_angle_gamma 90.000000
_cell_volume 3707.506342
_symmetry_space_group_name_H-M "F M M 2"
_symmetry_group_IT_number 42
_symmetry_cell_setting 'orthorhombic'
loop_
_space_group_symop_operation_xyz
x,y,z
-x,-y,z
-x,y,z
x,-y,z
x,1/2+y,1/2+z
-x,1/2-y,1/2+z
-x,1/2+y,1/2+z
x,1/2-y,1/2+z
1/2+x,y,1/2+z
1/2-x,-y,1/2+z
1/2-x,y,1/2+z
1/2+x,-y,1/2+z
1/2+x,1/2+y,z
1/2-x,1/2-y,z
1/2-x,1/2+y,z
1/2+x,1/2-y,z
loop_
_atom_site_type_symbol
_atom_site_label
_atom_site_fract_x
_atom_site_fract_y
_atom_site_fract_z
Si Si1 0.250000 0.750000 0.429430
Si Si2 0.305821 0.161097 0.030698
Si Si3 0.203458 0.937292 0.939766
Si Si4 0.700207 0.655534 0.833704
Si Si5 0.700679 0.314003 0.184316
O O1 0.191885 0.704070 0.486606
O O2 0.194793 0.796309 0.372616
O O3 0.500000 0.177858 0.016011
O O4 0.272934 0.165220 0.111629
O O5 0.274782 0.100277 0.001354
O O6 0.240780 0.902163 0.870611
O O7 0.000000 0.938417 0.946701
O O8 0.265161 0.000000 0.938441
O O9 0.500000 0.668308 0.845965
O O10 0.732510 0.655880 0.752563
O O11 0.500000 0.318842 0.181939
O O12 0.750000 0.250000 0.191376
#
# Coordination Sequence:
#
# PCOD9368794 Si02
#       5
#     8  16  16  16  16
#     4  10  20  32  56  82 118 146 188 230 292 340
#     4  11  22  36  58  86 117 152 193 237 286 343
#     4   9  20  40  63  86 115 151 193 241 289 337
#     4  10  20  35  57  84 115 150 190 233 285 344
#     4  12  24  37  55  82 119 156 190 233 288 348
#
# _framework density 19.420062000000001
#
# number of rings (size 3 to 8) (size 9 to 14) (size 15 to 20)
#    0.000    1.556    2.222    3.333    0.000    5.778 
#    0.000    1.111    0.000    4.000    0.000    0.000 
#    0.000    0.000    0.000    0.000    0.000    0.000 
#
# Total GULP energy -100245.246442 kJ/mol
# GULP energy per Si atom -5569.180358 kJ/mol
# Density = 1.937586 g / cm^3
# Si number density = 19.420062 Si / 1000 Ang^3
#
#
#
# Elastic Constant Matrix: (Units=GPa)
#
#
# Indices 1 2 3 4 5 6 
#
# 1 82.6683 22.2085 19.9212 0.0000 0.0000 0.0000
# 2 22.2085 144.6759 42.7326 0.0000 0.0000 0.0000
# 3 19.9212 42.7326 152.8025 0.0000 0.0000 0.0000
# 4 0.0000 0.0000 0.0000 15.0313 0.0000 0.0000
# 5 0.0000 0.0000 0.0000 0.0000 -93.1589 0.0000
# 6 0.0000 0.0000 0.0000 0.0000 0.0000 13.1946
#
#
#
# Elastic Compliance Matrix: (Units=1/GPa)
#
#
# Indices 1 2 3 4 5 6 
#
# 1 0.012823 -0.001607 -0.001222 0.000000 0.000000 0.000000
# 2 -0.001607 0.007736 -0.001954 0.000000 0.000000 0.000000
# 3 -0.001222 -0.001954 0.007250 0.000000 0.000000 0.000000
# 4 0.000000 0.000000 0.000000 0.066528 0.000000 0.000000
# 5 0.000000 0.000000 0.000000 0.000000 -0.010734 0.000000
# 6 0.000000 0.000000 0.000000 0.000000 0.000000 0.075788
#
#
# Mechanical properties :
#
#
# Convention : Reuss Voigt Hill
#
# Bulk Modulus (GPa) = 54.81862 61.09683 57.95773
# Shear Modulus (GPa) = 28.56518 6.69903 17.63211
#
# Velocity S-wave (km/s) = 3.83941 1.85931 3.01646
# Velocity P-wave (km/s) = 6.92415 6.01152 6.48391
#
# Compressibility (1/GPa) = 0.01824198
#
# Stress axis : x y z
#
# Youngs Moduli (GPa) = 77.98563 129.26841 137.92813
#
# Poissons Ratio (x) = 0.20778 0.16858
# Poissons Ratio (y) = 0.12535 0.26949
# Poissons Ratio (z) = 0.09532 0.25257
#
# Static dielectric constant tensor:
#      x y z
#    x 1.902990 0.000000 0.000000 
#    y 0.000000 1.643900 0.000000 
#    z 0.000000 0.000000 1.659910 
# 
# From -- ./inp_files/18049.got.cif
#   From: 2010.05.17/outbox.cif.g08.bks.cpg/sg42_10_cif.got.tgz:18049.got - 2010.06.03 19:03:34.
