data_PCOD9368037
_publ_section_title
;
Structure prediction by ZEFSAII (Michael W. Deem and Ramdas Pophale) SiO2 
 PCOD9368037
Probable space group: A B A 2
;
_chemical_formula_sum "Si O2"
_cell_formula_units_Z 32
_cell_length_a 8.461804
_cell_length_b 9.356991
_cell_length_c 14.976698
_cell_angle_alpha 90.000000
_cell_angle_beta 90.000000
_cell_angle_gamma 90.000000
_cell_volume 1185.810375
_symmetry_space_group_name_H-M "A B A 2"
_symmetry_group_IT_number 41
_symmetry_cell_setting 'orthorhombic'
loop_
_space_group_symop_operation_xyz
x,y,z
-x,-y,z
1/2-x,y,1/2+z
1/2+x,-y,1/2+z
x,1/2+y,1/2+z
-x,1/2-y,1/2+z
1/2-x,1/2+y,z
1/2+x,1/2-y,z
loop_
_atom_site_type_symbol
_atom_site_label
_atom_site_fract_x
_atom_site_fract_y
_atom_site_fract_z
Si Si1 0.850308 0.689131 0.496050
Si Si2 0.859015 0.359839 0.619155
Si Si3 0.341149 0.923988 0.213516
Si Si4 0.177720 0.037004 0.386077
O O1 0.792955 0.788929 0.575450
O O2 0.835549 0.797424 0.412568
O O3 0.733068 0.560101 0.470486
O O4 0.021170 0.646616 0.534595
O O5 0.879893 0.243653 0.699438
O O6 0.811349 0.513504 0.658921
O O7 0.500000 0.000000 0.180830
O O8 0.301951 0.987775 0.311037
O O9 0.000000 0.000000 0.358523
#
# Coordination Sequence:
#
# PCOD9368037 Si02
#       4
#     8   8   8   8
#     4  12  27  50  81 113 155 202 266 329 393 468
#     4  12  27  50  81 113 155 202 266 329 393 468
#     4  12  29  51  77 116 160 208 264 324 400 481
#     4  12  29  51  77 116 160 208 264 324 400 481
#
# _framework density 26.985762999999999
#
# number of rings (size 3 to 8) (size 9 to 14) (size 15 to 20)
#    0.000    0.000    5.000    3.000    7.000    6.000 
#    0.000    0.000    0.000    0.000    0.000    0.000 
#    0.000    0.000    0.000    0.000    0.000    0.000 
#
# Total GULP energy -89410.975590 kJ/mol
# GULP energy per Si atom -5588.185974 kJ/mol
# Density = 2.692434 g / cm^3
# Si number density = 26.985763 Si / 1000 Ang^3
#
#
#
# Elastic Constant Matrix: (Units=GPa)
#
#
# Indices 1 2 3 4 5 6 
#
# 1 111.7181 44.1282 10.5176 0.0000 0.0000 0.0000
# 2 44.1282 213.9208 34.8993 0.0000 0.0000 0.0000
# 3 10.5176 34.8993 107.2402 0.0000 0.0000 0.0000
# 4 0.0000 0.0000 0.0000 38.0359 0.0000 0.0000
# 5 0.0000 0.0000 0.0000 0.0000 65.0410 0.0000
# 6 0.0000 0.0000 0.0000 0.0000 0.0000 32.3562
#
#
#
# Elastic Compliance Matrix: (Units=1/GPa)
#
#
# Indices 1 2 3 4 5 6 
#
# 1 0.009755 -0.001960 -0.000319 0.000000 0.000000 0.000000
# 2 -0.001960 0.005331 -0.001542 0.000000 0.000000 0.000000
# 3 -0.000319 -0.001542 0.009858 0.000000 0.000000 0.000000
# 4 0.000000 0.000000 0.000000 0.026291 0.000000 0.000000
# 5 0.000000 0.000000 0.000000 0.000000 0.015375 0.000000
# 6 0.000000 0.000000 0.000000 0.000000 0.000000 0.030906
#
#
# Mechanical properties :
#
#
# Convention : Reuss Voigt Hill
#
# Bulk Modulus (GPa) = 57.80054 67.99659 62.89856
# Shear Modulus (GPa) = 45.07495 49.97557 47.52526
#
# Velocity S-wave (km/s) = 4.09139 4.30807 4.20113
# Velocity P-wave (km/s) = 6.61700 7.07091 6.84772
#
# Compressibility (1/GPa) = 0.01730088
#
# Stress axis : x y z
#
# Youngs Moduli (GPa) = 102.50674 187.59393 101.43940
#
# Poissons Ratio (x) = 0.36775 0.03234
# Poissons Ratio (y) = 0.20095 0.15647
# Poissons Ratio (z) = 0.03268 0.28936
#
# Static dielectric constant tensor:
#      x y z
#    x 2.044340 0.000000 0.000000 
#    y 0.000000 2.187360 0.000000 
#    z 0.000000 0.000000 2.282210 
# 
# From -- ./inp_files/7067.got.cif
#   From: 2010.05.17/outbox.cif.g08.bks.cpg/sg41_4_cif.got.tgz:7067.got - 2010.06.03 18:54:24.
