data_PCOD9368377
_publ_section_title
;
Structure prediction by ZEFSAII (Michael W. Deem and Ramdas Pophale) SiO2 
 PCOD9368377
Probable space group: F M M 2
;
_chemical_formula_sum "Si O2"
_cell_formula_units_Z 64
_cell_length_a 19.193098
_cell_length_b 9.584104
_cell_length_c 17.885616
_cell_angle_alpha 90.000000
_cell_angle_beta 90.000000
_cell_angle_gamma 90.000000
_cell_volume 3290.034870
_symmetry_space_group_name_H-M "F M M 2"
_symmetry_group_IT_number 42
_symmetry_cell_setting 'orthorhombic'
loop_
_space_group_symop_operation_xyz
x,y,z
-x,-y,z
-x,y,z
x,-y,z
x,1/2+y,1/2+z
-x,1/2-y,1/2+z
-x,1/2+y,1/2+z
x,1/2-y,1/2+z
1/2+x,y,1/2+z
1/2-x,-y,1/2+z
1/2-x,y,1/2+z
1/2+x,-y,1/2+z
1/2+x,1/2+y,z
1/2-x,1/2-y,z
1/2-x,1/2+y,z
1/2+x,1/2-y,z
loop_
_atom_site_type_symbol
_atom_site_label
_atom_site_fract_x
_atom_site_fract_y
_atom_site_fract_z
Si Si1 0.500000 0.000000 0.306731
Si Si2 0.850652 0.000000 0.030032
Si Si3 0.149421 0.795833 0.453306
Si Si4 0.161078 0.000000 0.749310
Si Si5 0.250000 0.750000 0.325100
Si Si6 0.000000 0.000000 0.048256
Si Si7 0.000000 0.744512 0.427182
Si Si8 0.199305 0.500000 0.078502
O O1 0.422220 0.000000 0.268893
O O2 0.500000 0.860255 0.357169
O O3 0.921513 0.000000 0.079543
O O4 0.782763 0.000000 0.080849
O O5 0.848736 0.867865 0.974480
O O6 0.197938 0.826410 0.382997
O O7 0.070510 0.829890 0.432570
O O8 0.175145 0.871004 0.527722
O O9 0.202931 0.137019 0.780389
O O10 0.167671 0.000000 0.660008
O O11 0.000000 0.861444 0.997605
#
# Coordination Sequence:
#
# PCOD9368377 Si02
#       8
#     4   8  16   8   8   4   8   8
#     4  11  20  46  66  96 134 185 216 268 351 414
#     4  10  18  36  63  91 121 163 215 273 319 385
#     4  11  21  38  68  93 123 167 229 273 319 392
#     4  12  29  41  69  98 144 178 220 274 353 407
#     4  12  22  42  66 102 122 182 232 270 324 412
#     4   7  16  28  56  92 116 147 214 256 317 372
#     4   9  18  34  64  96 120 164 222 279 313 386
#     4  12  25  39  61  97 140 164 205 285 342 385
#
# _framework density 19.452680999999998
#
# number of rings (size 3 to 8) (size 9 to 14) (size 15 to 20)
#    0.000    1.250    5.000    2.250    3.500    1.500 
#    0.000    0.000    0.000    2.250    0.000    0.000 
#    0.000    0.000    0.000    0.000    0.000    0.000 
#
# Total GULP energy -89200.849277 kJ/mol
# GULP energy per Si atom -5575.053080 kJ/mol
# Density = 1.940841 g / cm^3
# Si number density = 19.452681 Si / 1000 Ang^3
#
#
#
# Elastic Constant Matrix: (Units=GPa)
#
#
# Indices 1 2 3 4 5 6 
#
# 1 227.4391 33.4930 67.1796 0.0000 0.0000 0.0000
# 2 33.4930 104.3985 38.6943 0.0000 0.0000 0.0000
# 3 67.1796 38.6943 116.8351 0.0000 0.0000 0.0000
# 4 0.0000 0.0000 0.0000 6.2912 0.0000 0.0000
# 5 0.0000 0.0000 0.0000 0.0000 16.7809 0.0000
# 6 0.0000 0.0000 0.0000 0.0000 0.0000 35.3629
#
#
#
# Elastic Compliance Matrix: (Units=1/GPa)
#
#
# Indices 1 2 3 4 5 6 
#
# 1 0.005335 -0.000655 -0.002851 0.000000 0.000000 0.000000
# 2 -0.000655 0.010999 -0.003266 0.000000 0.000000 0.000000
# 3 -0.002851 -0.003266 0.011280 0.000000 0.000000 0.000000
# 4 0.000000 0.000000 0.000000 0.158951 0.000000 0.000000
# 5 0.000000 0.000000 0.000000 0.000000 0.059592 0.000000
# 6 0.000000 0.000000 0.000000 0.000000 0.000000 0.028278
#
#
# Mechanical properties :
#
#
# Convention : Reuss Voigt Hill
#
# Bulk Modulus (GPa) = 71.07041 80.82297 75.94669
# Shear Modulus (GPa) = 17.08408 32.30739 24.69573
#
# Velocity S-wave (km/s) = 2.96672 4.07974 3.56691
# Velocity P-wave (km/s) = 6.95339 7.98943 7.48935
#
# Compressibility (1/GPa) = 0.01407055
#
# Stress axis : x y z
#
# Youngs Moduli (GPa) = 187.43071 90.91383 88.65229
#
# Poissons Ratio (x) = 0.05955 0.25273
# Poissons Ratio (y) = 0.12277 0.28956
# Poissons Ratio (z) = 0.53433 0.29695
#
# Static dielectric constant tensor:
#      x y z
#    x 1.780610 0.000000 0.000000 
#    y 0.000000 1.670810 0.000000 
#    z 0.000000 0.000000 1.633520 
# 
# From -- ./inp_files/17937.got.cif
#   From: 2010.05.17/outbox.cif.g08.bks.cpg/sg42_9_cif.got.tgz:17937.got - 2010.06.03 19:03:34.
