data_PCOD9368676
_publ_section_title
;
Structure prediction by ZEFSAII (Michael W. Deem and Ramdas Pophale) SiO2 
 PCOD9368676
Probable space group: F M M 2
;
_chemical_formula_sum "Si O2"
_cell_formula_units_Z 80
_cell_length_a 19.332614
_cell_length_b 19.529598
_cell_length_c 9.044714
_cell_angle_alpha 90.000000
_cell_angle_beta 90.000000
_cell_angle_gamma 90.000000
_cell_volume 3414.905754
_symmetry_space_group_name_H-M "F M M 2"
_symmetry_group_IT_number 42
_symmetry_cell_setting 'orthorhombic'
loop_
_space_group_symop_operation_xyz
x,y,z
-x,-y,z
-x,y,z
x,-y,z
x,1/2+y,1/2+z
-x,1/2-y,1/2+z
-x,1/2+y,1/2+z
x,1/2-y,1/2+z
1/2+x,y,1/2+z
1/2-x,-y,1/2+z
1/2-x,y,1/2+z
1/2+x,-y,1/2+z
1/2+x,1/2+y,z
1/2-x,1/2-y,z
1/2-x,1/2+y,z
1/2+x,1/2-y,z
loop_
_atom_site_type_symbol
_atom_site_label
_atom_site_fract_x
_atom_site_fract_y
_atom_site_fract_z
Si Si1 0.079912 0.221317 0.593040
Si Si2 0.722844 0.574649 0.682793
Si Si3 0.578907 0.398659 0.812802
Si Si4 0.319538 0.867606 0.888449
Si Si5 0.919974 0.381434 0.649754
O O1 0.080383 0.178842 0.747184
O O2 0.136867 0.189503 0.480368
O O3 0.093338 0.299975 0.630633
O O4 0.000000 0.215463 0.534456
O O5 0.754309 0.500000 0.713412
O O6 0.642720 0.570687 0.726702
O O7 0.721310 0.589532 0.510141
O O8 0.759578 0.639002 0.764165
O O9 0.500000 0.421966 0.784689
O O10 0.593847 0.408712 0.985720
O O11 0.376603 0.905594 0.788865
O O12 0.000000 0.392270 0.679894
#
# Coordination Sequence:
#
# PCOD9368676 Si02
#       5
#    16  16  16  16  16
#     4   9  18  35  61  92 125 158 190 235 301 374
#     4  11  24  42  61  80 113 162 212 267 319 353
#     4   9  19  36  58  86 117 153 201 252 308 373
#     4  11  22  38  60  88 118 158 208 250 299 368
#     4  10  19  35  61  91 124 158 192 239 302 372
#
# _framework density 23.426708999999999
#
# number of rings (size 3 to 8) (size 9 to 14) (size 15 to 20)
#    0.000    2.000    0.000    3.600    0.000    4.400 
#    0.000   18.000    0.000    9.600    0.000    0.000 
#    0.000    0.000    0.000    0.000    0.000    0.000 
#
# Total GULP energy -111472.490995 kJ/mol
# GULP energy per Si atom -5573.624550 kJ/mol
# Density = 2.337339 g / cm^3
# Si number density = 23.426709 Si / 1000 Ang^3
#
#
#
# Elastic Constant Matrix: (Units=GPa)
#
#
# Indices 1 2 3 4 5 6 
#
# 1 65.1033 -3.6955 35.6535 0.0000 0.0000 0.0000
# 2 -3.6955 33.2432 -9.0677 0.0000 0.0000 0.0000
# 3 35.6535 -9.0677 116.6186 0.0000 0.0000 0.0000
# 4 0.0000 0.0000 0.0000 3.3197 0.0000 0.0000
# 5 0.0000 0.0000 0.0000 0.0000 59.5146 0.0000
# 6 0.0000 0.0000 0.0000 0.0000 0.0000 1.9083
#
#
#
# Elastic Compliance Matrix: (Units=1/GPa)
#
#
# Indices 1 2 3 4 5 6 
#
# 1 0.018458 0.000524 -0.005602 0.000000 0.000000 0.000000
# 2 0.000524 0.030748 0.002231 0.000000 0.000000 0.000000
# 3 -0.005602 0.002231 0.010461 0.000000 0.000000 0.000000
# 4 0.000000 0.000000 0.000000 0.301228 0.000000 0.000000
# 5 0.000000 0.000000 0.000000 0.000000 0.016803 0.000000
# 6 0.000000 0.000000 0.000000 0.000000 0.000000 0.524017
#
#
# Mechanical properties :
#
#
# Convention : Reuss Voigt Hill
#
# Bulk Modulus (GPa) = 18.52835 28.97175 23.75005
# Shear Modulus (GPa) = 5.40306 25.75351 15.57829
#
# Velocity S-wave (km/s) = 1.52032 3.31920 2.58152
# Velocity P-wave (km/s) = 3.31784 5.20416 4.36414
#
# Compressibility (1/GPa) = 0.05397134
#
# Stress axis : x y z
#
# Youngs Moduli (GPa) = 54.17685 32.52241 95.59110
#
# Poissons Ratio (x) = -0.01703 0.53554
# Poissons Ratio (y) = -0.02837 -0.21324
# Poissons Ratio (z) = 0.30352 -0.07255
#
# Static dielectric constant tensor:
#      x y z
#    x 1.926720 0.000000 0.000000 
#    y 0.000000 1.972700 0.000000 
#    z 0.000000 0.000000 1.880790 
# 
# From -- ./inp_files/3480.got.cif
#   From: 2010.05.17/outbox.cif.g08.bks.cpg/sg42_2_cif.got.tgz:3480.got - 2010.06.03 19:03:34.
