data_PCOD9368665
_publ_section_title
;
Structure prediction by ZEFSAII (Michael W. Deem and Ramdas Pophale) SiO2 
 PCOD9368665
Probable space group: F M M 2
;
_chemical_formula_sum "Si O2"
_cell_formula_units_Z 80
_cell_length_a 26.548647
_cell_length_b 7.773661
_cell_length_c 18.876083
_cell_angle_alpha 90.000000
_cell_angle_beta 90.000000
_cell_angle_gamma 90.000000
_cell_volume 3895.649441
_symmetry_space_group_name_H-M "F M M 2"
_symmetry_group_IT_number 42
_symmetry_cell_setting 'orthorhombic'
loop_
_space_group_symop_operation_xyz
x,y,z
-x,-y,z
-x,y,z
x,-y,z
x,1/2+y,1/2+z
-x,1/2-y,1/2+z
-x,1/2+y,1/2+z
x,1/2-y,1/2+z
1/2+x,y,1/2+z
1/2-x,-y,1/2+z
1/2-x,y,1/2+z
1/2+x,-y,1/2+z
1/2+x,1/2+y,z
1/2-x,1/2-y,z
1/2-x,1/2+y,z
1/2+x,1/2-y,z
loop_
_atom_site_type_symbol
_atom_site_label
_atom_site_fract_x
_atom_site_fract_y
_atom_site_fract_z
Si Si1 0.000000 0.791912 0.231781
Si Si2 0.193460 0.294954 0.229143
Si Si3 0.193656 0.793360 0.890937
Si Si4 0.598660 0.288447 0.981187
Si Si5 0.500000 0.206036 0.396989
Si Si6 0.904651 0.795976 0.142382
O O1 0.000000 0.744347 0.313976
O O2 0.950019 0.727771 0.191233
O O3 0.000000 0.000000 0.229337
O O4 0.189375 0.500000 0.231343
O O5 0.250000 0.250000 0.205130
O O6 0.187680 0.227996 0.310052
O O7 0.148945 0.229650 0.179713
O O8 0.250000 0.750000 0.915162
O O9 0.149647 0.731178 0.942237
O O10 0.189873 0.000000 0.887811
O O11 0.599150 0.500000 0.981590
O O12 0.550314 0.231535 0.936117
O O13 0.595274 0.228515 0.062213
O O14 0.500000 0.000000 0.404678
O O15 0.913419 0.000000 0.136430
#
# Coordination Sequence:
#
# PCOD9368665 Si02
#       6
#     8  16  16  16   8  16
#     4  10  21  35  53  79 109 140 174 216 266 314
#     4  10  20  35  55  79 106 138 177 219 263 312
#     4   9  18  33  52  74 100 131 170 212 252 300
#     4   9  18  33  54  78 102 132 172 214 257 307
#     4  10  19  35  59  79  99 134 178 220 260 310
#     4  10  20  35  54  77 108 142 175 215 264 317
#
# _framework density 20.535727999999999
#
# number of rings (size 3 to 8) (size 9 to 14) (size 15 to 20)
#    0.000    2.400    0.000    2.400    0.000    6.400 
#    0.000    5.000    0.000    1.200    0.000    0.000 
#    0.000    0.000    0.000    0.000    0.000    0.000 
#
# Total GULP energy -111691.844372 kJ/mol
# GULP energy per Si atom -5584.592219 kJ/mol
# Density = 2.048899 g / cm^3
# Si number density = 20.535728 Si / 1000 Ang^3
#
#
#
# Elastic Constant Matrix: (Units=GPa)
#
#
# Indices 1 2 3 4 5 6 
#
# 1 206.4000 -7.3812 142.7062 0.0000 0.0000 0.0000
# 2 -7.3812 21.6421 -0.8132 0.0000 0.0000 0.0000
# 3 142.7062 -0.8132 181.2001 0.0000 0.0000 0.0000
# 4 0.0000 0.0000 0.0000 16.5223 0.0000 0.0000
# 5 0.0000 0.0000 0.0000 0.0000 40.6237 0.0000
# 6 0.0000 0.0000 0.0000 0.0000 0.0000 20.6095
#
#
#
# Elastic Compliance Matrix: (Units=1/GPa)
#
#
# Indices 1 2 3 4 5 6 
#
# 1 0.010880 0.003389 -0.008554 0.000000 0.000000 0.000000
# 2 0.003389 0.047270 -0.002457 0.000000 0.000000 0.000000
# 3 -0.008554 -0.002457 0.012244 0.000000 0.000000 0.000000
# 4 0.000000 0.000000 0.000000 0.060524 0.000000 0.000000
# 5 0.000000 0.000000 0.000000 0.000000 0.024616 0.000000
# 6 0.000000 0.000000 0.000000 0.000000 0.000000 0.048521
#
#
# Mechanical properties :
#
#
# Convention : Reuss Voigt Hill
#
# Bulk Modulus (GPa) = 18.13188 75.36287 46.74737
# Shear Modulus (GPa) = 21.03645 33.86646 27.45145
#
# Velocity S-wave (km/s) = 3.20407 4.06538 3.66015
# Velocity P-wave (km/s) = 4.74728 7.66906 6.37774
#
# Compressibility (1/GPa) = 0.05515148
#
# Stress axis : x y z
#
# Youngs Moduli (GPa) = 91.91028 21.15509 81.67120
#
# Poissons Ratio (x) = -0.07170 0.69858
# Poissons Ratio (y) = -0.31152 0.20068
# Poissons Ratio (z) = 0.78616 0.05198
#
# Static dielectric constant tensor:
#      x y z
#    x 1.698630 0.000000 0.000000 
#    y 0.000000 1.766060 0.000000 
#    z 0.000000 0.000000 1.707930 
# 
# From -- ./inp_files/16930.got.cif
#   From: 2010.05.17/outbox.cif.g08.bks.cpg/sg42_9_cif.got.tgz:16930.got - 2010.06.03 19:03:34.
