data_PCOD9368978
_publ_section_title
;
Structure prediction by ZEFSAII (Michael W. Deem and Ramdas Pophale) SiO2 
 PCOD9368978
Probable space group: F M M 2
;
_chemical_formula_sum "Si O2"
_cell_formula_units_Z 96
_cell_length_a 8.582830
_cell_length_b 19.058961
_cell_length_c 31.812462
_cell_angle_alpha 90.000000
_cell_angle_beta 90.000000
_cell_angle_gamma 90.000000
_cell_volume 5203.876879
_symmetry_space_group_name_H-M "F M M 2"
_symmetry_group_IT_number 42
_symmetry_cell_setting 'orthorhombic'
loop_
_space_group_symop_operation_xyz
x,y,z
-x,-y,z
-x,y,z
x,-y,z
x,1/2+y,1/2+z
-x,1/2-y,1/2+z
-x,1/2+y,1/2+z
x,1/2-y,1/2+z
1/2+x,y,1/2+z
1/2-x,-y,1/2+z
1/2-x,y,1/2+z
1/2+x,-y,1/2+z
1/2+x,1/2+y,z
1/2-x,1/2-y,z
1/2-x,1/2+y,z
1/2+x,1/2-y,z
loop_
_atom_site_type_symbol
_atom_site_label
_atom_site_fract_x
_atom_site_fract_y
_atom_site_fract_z
Si Si1 0.688059 0.828223 0.055790
Si Si2 0.811942 0.417103 0.228626
Si Si3 0.187264 0.670793 0.961005
Si Si4 0.185208 0.670998 0.806078
Si Si5 0.186998 0.418621 0.384102
Si Si6 0.189829 0.919368 0.634147
O O1 0.500000 0.827607 0.056942
O O2 0.750000 0.750000 0.061010
O O3 0.745113 0.874639 0.094647
O O4 0.732331 0.851448 0.008582
O O5 0.774351 0.500000 0.234467
O O6 0.736050 0.368785 0.263666
O O7 0.764220 0.396273 0.181109
O O8 0.000000 0.411402 0.231747
O O9 0.250000 0.750000 0.954297
O O10 0.253934 0.618636 0.926362
O O11 0.000000 0.672421 0.958117
O O12 0.250000 0.750000 0.807094
O O13 0.250492 0.625875 0.844892
O O14 0.000000 0.673824 0.808962
O O15 0.237514 0.500000 0.381722
O O16 0.000000 0.417074 0.383212
O O17 0.000000 0.918117 0.633865
O O18 0.237492 0.000000 0.629164
#
# Coordination Sequence:
#
# PCOD9368978 Si02
#       6
#    16  16  16  16  16  16
#     4   9  18  32  52  78 108 143 181 222 266 313
#     4   9  18  35  58  82 111 146 182 222 270 322
#     4  10  20  35  56  81 111 146 184 226 270 318
#     4  12  25  40  59  82 110 142 179 223 269 321
#     4  11  24  41  60  82 110 142 176 218 270 326
#     4   8  15  30  53  79 107 142 182 221 263 313
#
# _framework density 18.447785
#
# number of rings (size 3 to 8) (size 9 to 14) (size 15 to 20)
#    0.000    2.167    0.000    4.500    0.000    5.667 
#    0.000    4.167    0.000    1.500    0.000    0.000 
#    0.000    0.000    0.000    0.000    0.000    0.000 
#
# Total GULP energy -133978.942164 kJ/mol
# GULP energy per Si atom -5582.455923 kJ/mol
# Density = 1.840580 g / cm^3
# Si number density = 18.447785 Si / 1000 Ang^3
#
#
#
# Elastic Constant Matrix: (Units=GPa)
#
#
# Indices 1 2 3 4 5 6 
#
# 1 52.0525 46.2188 50.5069 0.0000 0.0000 0.0000
# 2 46.2188 132.6813 127.4192 0.0000 0.0000 0.0000
# 3 50.5069 127.4192 209.5778 0.0000 0.0000 0.0000
# 4 0.0000 0.0000 0.0000 59.3732 0.0000 0.0000
# 5 0.0000 0.0000 0.0000 0.0000 25.0003 0.0000
# 6 0.0000 0.0000 0.0000 0.0000 0.0000 25.4449
#
#
#
# Elastic Compliance Matrix: (Units=1/GPa)
#
#
# Indices 1 2 3 4 5 6 
#
# 1 0.028151 -0.007909 -0.001976 0.000000 0.000000 0.000000
# 2 -0.007909 0.020334 -0.010456 0.000000 0.000000 0.000000
# 3 -0.001976 -0.010456 0.011605 0.000000 0.000000 0.000000
# 4 0.000000 0.000000 0.000000 0.016843 0.000000 0.000000
# 5 0.000000 0.000000 0.000000 0.000000 0.039999 0.000000
# 6 0.000000 0.000000 0.000000 0.000000 0.000000 0.039301
#
#
# Mechanical properties :
#
#
# Convention : Reuss Voigt Hill
#
# Bulk Modulus (GPa) = 51.52675 93.62240 72.57457
# Shear Modulus (GPa) = 24.58411 33.30813 28.94612
#
# Velocity S-wave (km/s) = 3.65448 4.25377 3.96546
# Velocity P-wave (km/s) = 6.76748 8.65946 7.77126
#
# Compressibility (1/GPa) = 0.01940739
#
# Stress axis : x y z
#
# Youngs Moduli (GPa) = 35.52284 49.17969 86.16988
#
# Poissons Ratio (x) = 0.38895 0.17026
# Poissons Ratio (y) = 0.28094 0.90103
# Poissons Ratio (z) = 0.07019 0.51425
#
# Static dielectric constant tensor:
#      x y z
#    x 1.629730 0.000000 0.000000 
#    y 0.000000 1.446970 0.000000 
#    z 0.000000 0.000000 1.643180 
# 
# From -- ./inp_files/31461.got.cif
#   From: 2010.05.17/outbox.cif.g08.bks.cpg/sg42_16_cif.got.tgz:31461.got - 2010.06.03 19:03:34.
