data_PCOD9368328
_publ_section_title
;
Structure prediction by ZEFSAII (Michael W. Deem and Ramdas Pophale) SiO2 
 PCOD9368328
Probable space group: F M M 2
;
_chemical_formula_sum "Si O2"
_cell_formula_units_Z 128
_cell_length_a 28.256866
_cell_length_b 25.614790
_cell_length_c 10.570380
_cell_angle_alpha 90.000000
_cell_angle_beta 90.000000
_cell_angle_gamma 90.000000
_cell_volume 7650.774331
_symmetry_space_group_name_H-M "F M M 2"
_symmetry_group_IT_number 42
_symmetry_cell_setting 'orthorhombic'
loop_
_space_group_symop_operation_xyz
x,y,z
-x,-y,z
-x,y,z
x,-y,z
x,1/2+y,1/2+z
-x,1/2-y,1/2+z
-x,1/2+y,1/2+z
x,1/2-y,1/2+z
1/2+x,y,1/2+z
1/2-x,-y,1/2+z
1/2-x,y,1/2+z
1/2+x,-y,1/2+z
1/2+x,1/2+y,z
1/2-x,1/2-y,z
1/2-x,1/2+y,z
1/2+x,1/2-y,z
loop_
_atom_site_type_symbol
_atom_site_label
_atom_site_fract_x
_atom_site_fract_y
_atom_site_fract_z
Si Si1 0.264036 0.877032 0.731550
Si Si2 0.553839 0.834421 0.723330
Si Si3 0.335395 0.149856 0.311791
Si Si4 0.444942 0.862228 0.013945
Si Si5 0.226341 0.939809 0.492618
Si Si6 0.601590 0.769382 0.167251
Si Si7 0.351249 0.168610 0.598231
Si Si8 0.371934 0.939678 0.135476
O O1 0.216856 0.842637 0.753247
O O2 0.254054 0.912986 0.608856
O O3 0.311787 0.845725 0.701496
O O4 0.268029 0.910394 0.859959
O O5 0.500000 0.842923 0.678669
O O6 0.597090 0.854275 0.636291
O O7 0.559006 0.858174 0.862641
O O8 0.564836 0.771982 0.727715
O O9 0.370520 0.195418 0.267067
O O10 0.334648 0.149592 0.462258
O O11 0.354817 0.095563 0.253593
O O12 0.500000 0.865969 0.047122
O O13 0.423453 0.809263 0.072692
O O14 0.415819 0.910201 0.071776
O O15 0.171671 0.938098 0.536761
O O16 0.240928 0.000000 0.479106
O O17 0.638641 0.730704 0.098437
O O18 0.380970 0.000000 0.167772
#
# Coordination Sequence:
#
# PCOD9368328 Si02
#       8
#    16  16  16  16  16  16  16  16
#     4  11  20  36  54  81 114 148 189 235 282 346
#     4   9  19  33  54  81 110 143 186 232 275 328
#     4  10  20  38  53  79 114 146 188 231 281 338
#     4  10  18  33  56  81 109 142 184 237 282 332
#     4  10  20  35  56  79 109 147 190 240 284 335
#     4   9  20  34  54  78 109 146 185 228 275 340
#     4  10  21  35  54  80 113 152 187 230 283 339
#     4   9  20  36  56  80 109 144 183 235 291 340
#
# _framework density 16.730332000000001
#
# number of rings (size 3 to 8) (size 9 to 14) (size 15 to 20)
#    0.750    1.500    1.250    2.250    0.000    1.250 
#    0.000    3.750    0.000    0.750    0.000    0.000 
#    0.000    0.000    0.000    0.000    0.000    0.000 
#
# Total GULP energy -178185.891333 kJ/mol
# GULP energy per Si atom -5568.309104 kJ/mol
# Density = 1.669225 g / cm^3
# Si number density = 16.730332 Si / 1000 Ang^3
#
#
#
# Elastic Constant Matrix: (Units=GPa)
#
#
# Indices 1 2 3 4 5 6 
#
# 1 91.0998 28.9212 21.3478 0.0000 0.0001 0.0000
# 2 28.9212 65.3302 21.4218 0.0000 0.0000 0.0000
# 3 21.3478 21.4218 78.3384 0.0001 0.0003 0.0000
# 4 0.0000 0.0000 0.0001 14.2123 0.0000 -0.0002
# 5 0.0001 0.0000 0.0003 0.0000 20.2532 0.0000
# 6 0.0000 0.0000 0.0000 -0.0002 0.0000 10.5342
#
#
#
# Elastic Compliance Matrix: (Units=1/GPa)
#
#
# Indices 1 2 3 4 5 6 
#
# 1 0.013102 -0.005086 -0.002180 0.000000 0.000000 0.000000
# 2 -0.005086 0.018788 -0.003752 0.000000 0.000000 0.000000
# 3 -0.002180 -0.003752 0.014385 0.000000 0.000000 0.000000
# 4 0.000000 0.000000 0.000000 0.070362 0.000000 0.000001
# 5 0.000000 0.000000 0.000000 0.000000 0.049375 0.000000
# 6 0.000000 0.000000 0.000000 0.000001 0.000000 0.094929
#
#
# Mechanical properties :
#
#
# Convention : Reuss Voigt Hill
#
# Bulk Modulus (GPa) = 41.25183 42.01666 41.63425
# Shear Modulus (GPa) = 17.17881 19.87179 18.52530
#
# Velocity S-wave (km/s) = 3.20786 3.45014 3.33120
# Velocity P-wave (km/s) = 6.19927 6.40624 6.30360
#
# Compressibility (1/GPa) = 0.02424135
#
# Stress axis : x y z
#
# Youngs Moduli (GPa) = 76.32271 53.22425 69.51638
#
# Poissons Ratio (x) = 0.27067 0.15153
# Poissons Ratio (y) = 0.38814 0.26082
# Poissons Ratio (z) = 0.16637 0.19969
#
# Static dielectric constant tensor:
#      x y z
#    x 1.573110 0.000000 0.000000 
#    y 0.000000 1.553470 0.000000 
#    z 0.000000 0.000000 1.544890 
# 
# From -- ./inp_files/10819.got.cif
#   From: 2010.05.17/outbox.cif.g08.bks.cpg/sg42_6_cif.got.tgz:10819.got - 2010.06.03 19:03:34.
