data_PCOD9368438
_publ_section_title
;
Structure prediction by ZEFSAII (Michael W. Deem and Ramdas Pophale) SiO2 
 PCOD9368438
Probable space group: F M M 2
;
_chemical_formula_sum "Si O2"
_cell_formula_units_Z 88
_cell_length_a 7.489551
_cell_length_b 14.733728
_cell_length_c 31.352783
_cell_angle_alpha 90.000000
_cell_angle_beta 90.000000
_cell_angle_gamma 90.000000
_cell_volume 3459.748479
_symmetry_space_group_name_H-M "F M M 2"
_symmetry_group_IT_number 42
_symmetry_cell_setting 'orthorhombic'
loop_
_space_group_symop_operation_xyz
x,y,z
-x,-y,z
-x,y,z
x,-y,z
x,1/2+y,1/2+z
-x,1/2-y,1/2+z
-x,1/2+y,1/2+z
x,1/2-y,1/2+z
1/2+x,y,1/2+z
1/2-x,-y,1/2+z
1/2-x,y,1/2+z
1/2+x,-y,1/2+z
1/2+x,1/2+y,z
1/2-x,1/2-y,z
1/2-x,1/2+y,z
1/2+x,1/2-y,z
loop_
_atom_site_type_symbol
_atom_site_label
_atom_site_fract_x
_atom_site_fract_y
_atom_site_fract_z
Si Si1 0.788821 0.396392 0.439300
Si Si2 0.500000 0.672578 0.375171
Si Si3 0.194067 0.889457 0.811898
Si Si4 0.298858 0.107696 0.719164
Si Si5 0.212911 0.642474 0.534276
Si Si6 0.213447 0.356529 0.625686
O O1 0.772515 0.500000 0.422794
O O2 0.656657 0.336585 0.411997
O O3 0.731056 0.396048 0.488874
O O4 0.000000 0.371401 0.436879
O O5 0.653695 0.656986 0.338383
O O6 0.202951 0.862206 0.762167
O O7 0.000000 0.865652 0.830266
O O8 0.213834 0.000000 0.814492
O O9 0.500000 0.147555 0.718677
O O10 0.215162 0.119228 0.672403
O O11 0.315005 0.000000 0.724192
O O12 0.250000 0.750000 0.532096
O O13 0.282004 0.607093 0.580101
O O14 0.000000 0.628459 0.535979
O O15 0.250000 0.250000 0.622488
O O16 0.000000 0.376371 0.627416
#
# Coordination Sequence:
#
# PCOD9368438 Si02
#       6
#    16   8  16  16  16  16
#     4  10  21  35  54  84 115 144 183 229 281 329
#     4  12  21  34  56  82 114 148 181 228 281 332
#     4  10  19  31  51  80 112 145 183 225 273 331
#     4   9  17  31  52  80 110 144 184 225 274 325
#     4   9  19  35  55  80 108 146 190 227 271 331
#     4   9  18  33  54  80 108 144 187 223 269 328
#
# _framework density 25.435373999999999
#
# number of rings (size 3 to 8) (size 9 to 14) (size 15 to 20)
#    0.000    2.364    0.909    2.182    1.273    2.909 
#    0.000    3.636    0.000    1.091    4.727    0.000 
#    0.000    0.000    0.000    0.000    0.000    0.000 
#
# Total GULP energy -122487.682319 kJ/mol
# GULP energy per Si atom -5567.621924 kJ/mol
# Density = 2.537748 g / cm^3
# Si number density = 25.435374 Si / 1000 Ang^3
#
#
#
# Elastic Constant Matrix: (Units=GPa)
#
#
# Indices 1 2 3 4 5 6 
#
# 1 146.8748 23.2858 70.6147 0.0000 0.0000 0.0000
# 2 23.2858 69.1407 3.7484 0.0000 0.0000 0.0000
# 3 70.6147 3.7484 242.8441 0.0000 0.0000 0.0000
# 4 0.0000 0.0000 0.0000 629.3030 0.0000 0.0000
# 5 0.0000 0.0000 0.0000 0.0000 21.7402 0.0000
# 6 0.0000 0.0000 0.0000 0.0000 0.0000 8.1163
#
#
#
# Elastic Compliance Matrix: (Units=1/GPa)
#
#
# Indices 1 2 3 4 5 6 
#
# 1 0.008389 -0.002695 -0.002398 0.000000 0.000000 0.000000
# 2 -0.002695 0.015341 0.000547 0.000000 0.000000 0.000000
# 3 -0.002398 0.000547 0.004807 0.000000 0.000000 0.000000
# 4 0.000000 0.000000 0.000000 0.001589 0.000000 0.000000
# 5 0.000000 0.000000 0.000000 0.000000 0.045998 0.000000
# 6 0.000000 0.000000 0.000000 0.000000 0.000000 0.123208
#
#
# Mechanical properties :
#
#
# Convention : Reuss Voigt Hill
#
# Bulk Modulus (GPa) = 51.42795 72.68415 62.05605
# Shear Modulus (GPa) = 23.26610 155.91263 89.58936
#
# Velocity S-wave (km/s) = 3.02771 7.83777 5.94128
# Velocity P-wave (km/s) = 5.69962 10.51406 8.45669
#
# Compressibility (1/GPa) = 0.01944468
#
# Stress axis : x y z
#
# Youngs Moduli (GPa) = 119.21001 65.18342 208.04656
#
# Poissons Ratio (x) = 0.17568 0.49882
# Poissons Ratio (y) = 0.32129 -0.11378
# Poissons Ratio (z) = 0.28582 -0.03565
#
# Static dielectric constant tensor:
#      x y z
#    x 1.786250 0.000000 0.000000 
#    y 0.000000 1.953200 0.000000 
#    z 0.000000 0.000000 2.023530 
# 
# From -- ./inp_files/33684.got.cif
#   From: 2010.05.17/outbox.cif.g08.bks.cpg/sg42_17_cif.got.tgz:33684.got - 2010.06.03 19:03:34.
