data_PCOD9368241
_publ_section_title
;
Structure prediction by ZEFSAII (Michael W. Deem and Ramdas Pophale) SiO2 
 PCOD9368241
Probable space group: F M M 2
;
_chemical_formula_sum "Si O2"
_cell_formula_units_Z 96
_cell_length_a 7.891119
_cell_length_b 29.419869
_cell_length_c 21.176173
_cell_angle_alpha 90.000000
_cell_angle_beta 90.000000
_cell_angle_gamma 90.000000
_cell_volume 4916.168996
_symmetry_space_group_name_H-M "F M M 2"
_symmetry_group_IT_number 42
_symmetry_cell_setting 'orthorhombic'
loop_
_space_group_symop_operation_xyz
x,y,z
-x,-y,z
-x,y,z
x,-y,z
x,1/2+y,1/2+z
-x,1/2-y,1/2+z
-x,1/2+y,1/2+z
x,1/2-y,1/2+z
1/2+x,y,1/2+z
1/2-x,-y,1/2+z
1/2-x,y,1/2+z
1/2+x,-y,1/2+z
1/2+x,1/2+y,z
1/2-x,1/2-y,z
1/2-x,1/2+y,z
1/2+x,1/2-y,z
loop_
_atom_site_type_symbol
_atom_site_label
_atom_site_fract_x
_atom_site_fract_y
_atom_site_fract_z
Si Si1 0.798434 0.892363 0.209490
Si Si2 0.205264 0.447618 0.333768
Si Si3 0.799329 0.800770 0.914144
Si Si4 0.792533 0.604253 0.461040
Si Si5 0.292126 0.052636 0.587692
Si Si6 0.701814 0.699260 0.266953
O O1 0.770460 0.921842 0.272272
O O2 0.731991 0.919268 0.148742
O O3 0.728664 0.842082 0.224901
O O4 0.000000 0.887593 0.199226
O O5 0.259280 0.500000 0.333880
O O6 0.258988 0.422514 0.397849
O O7 0.000000 0.446444 0.332057
O O8 0.750000 0.750000 0.934108
O O9 0.732207 0.843716 0.953452
O O10 0.754276 0.806551 0.840161
O O11 0.000000 0.802868 0.917939
O O12 0.738231 0.578110 0.523835
O O13 0.000000 0.604380 0.462092
O O14 0.500000 0.052140 0.588261
O O15 0.238279 0.000000 0.589381
O O16 0.500000 0.696554 0.266195
O O17 0.750000 0.750000 0.246554
#
# Coordination Sequence:
#
# PCOD9368241 Si02
#       6
#    16  16  16  16  16  16
#     4  10  20  33  51  76 103 132 167 210 257 301
#     4  10  19  31  50  75 101 129 167 213 255 298
#     4  10  18  30  50  75 102 130 163 206 254 301
#     4   9  17  30  49  74 100 130 168 209 249 291
#     4   9  17  31  51  73 100 134 171 208 246 295
#     4  10  19  31  49  74 102 132 166 205 252 304
#
# _framework density 19.527401000000001
#
# number of rings (size 3 to 8) (size 9 to 14) (size 15 to 20)
#    0.000    2.333    1.667    3.000    0.000    3.667 
#    0.000    0.833    0.000    3.000    0.000    0.000 
#    0.000    0.000    0.000    0.000    0.000    0.000 
#
# Total GULP energy -133927.505809 kJ/mol
# GULP energy per Si atom -5580.312742 kJ/mol
# Density = 1.948296 g / cm^3
# Si number density = 19.527401 Si / 1000 Ang^3
#
#
#
# Elastic Constant Matrix: (Units=GPa)
#
#
# Indices 1 2 3 4 5 6 
#
# 1 16.9080 3.8478 -5.6018 0.0000 0.0000 0.0000
# 2 3.8478 218.2454 99.0428 0.0000 0.0000 0.0000
# 3 -5.6018 99.0428 143.3478 0.0000 0.0000 0.0000
# 4 0.0000 0.0000 0.0000 34.9757 0.0000 0.0000
# 5 0.0000 0.0000 0.0000 0.0000 4.2906 0.0000
# 6 0.0000 0.0000 0.0000 0.0000 0.0000 -27.6421
#
#
#
# Elastic Compliance Matrix: (Units=1/GPa)
#
#
# Indices 1 2 3 4 5 6 
#
# 1 0.061382 -0.003162 0.004584 0.000000 0.000000 0.000000
# 2 -0.003162 0.006838 -0.004848 0.000000 0.000000 0.000000
# 3 0.004584 -0.004848 0.010505 0.000000 0.000000 0.000000
# 4 0.000000 0.000000 0.000000 0.028591 0.000000 0.000000
# 5 0.000000 0.000000 0.000000 0.000000 0.233066 0.000000
# 6 0.000000 0.000000 0.000000 0.000000 0.000000 -0.036177
#
#
# Mechanical properties :
#
#
# Convention : Reuss Voigt Hill
#
# Bulk Modulus (GPa) = 13.91379 63.67541 38.79460
# Shear Modulus (GPa) = 14.92469 21.07233 17.99851
#
# Velocity S-wave (km/s) = 2.76759 3.28855 3.03925
# Velocity P-wave (km/s) = 4.16575 6.86283 5.67679
#
# Compressibility (1/GPa) = 0.07187113
#
# Stress axis : x y z
#
# Youngs Moduli (GPa) = 16.29145 146.24465 95.19457
#
# Poissons Ratio (x) = 0.46247 -0.43634
# Poissons Ratio (y) = 0.05152 0.46151
# Poissons Ratio (z) = -0.07467 0.70900
#
# Static dielectric constant tensor:
#      x y z
#    x 1.704720 0.000000 0.000000 
#    y 0.000000 1.718940 0.000000 
#    z 0.000000 0.000000 1.646320 
# 
# From -- ./inp_files/23720.got.cif
#   From: 2010.05.17/outbox.cif.g08.bks.cpg/sg42_12_cif.got.tgz:23720.got - 2010.06.03 19:03:34.
