data_PCOD9368385
_publ_section_title
;
Structure prediction by ZEFSAII (Michael W. Deem and Ramdas Pophale) SiO2 
 PCOD9368385
Probable space group: F M M 2
;
_chemical_formula_sum "Si O2"
_cell_formula_units_Z 96
_cell_length_a 8.469665
_cell_length_b 24.315797
_cell_length_c 26.128709
_cell_angle_alpha 90.000000
_cell_angle_beta 90.000000
_cell_angle_gamma 90.000000
_cell_volume 5381.120213
_symmetry_space_group_name_H-M "F M M 2"
_symmetry_group_IT_number 42
_symmetry_cell_setting 'orthorhombic'
loop_
_space_group_symop_operation_xyz
x,y,z
-x,-y,z
-x,y,z
x,-y,z
x,1/2+y,1/2+z
-x,1/2-y,1/2+z
-x,1/2+y,1/2+z
x,1/2-y,1/2+z
1/2+x,y,1/2+z
1/2-x,-y,1/2+z
1/2-x,y,1/2+z
1/2+x,-y,1/2+z
1/2+x,1/2+y,z
1/2-x,1/2-y,z
1/2-x,1/2+y,z
1/2+x,1/2-y,z
loop_
_atom_site_type_symbol
_atom_site_label
_atom_site_fract_x
_atom_site_fract_y
_atom_site_fract_z
Si Si1 0.807366 0.882223 0.740640
Si Si2 0.310542 0.811124 0.531042
Si Si3 0.691175 0.500000 0.780789
Si Si4 0.809564 0.188070 0.838932
Si Si5 0.808925 0.884784 0.936147
Si Si6 0.312691 0.500000 0.397523
Si Si7 0.810348 0.311208 0.144842
O O1 0.755373 0.944274 0.752707
O O2 0.757219 0.843476 0.787719
O O3 0.756829 0.854975 0.687362
O O4 0.000000 0.882749 0.740401
O O5 0.500000 0.809361 0.531964
O O6 0.250000 0.750000 0.517462
O O7 0.259534 0.855237 0.488643
O O8 0.249597 0.824058 0.587886
O O9 0.500000 0.500000 0.780953
O O10 0.743334 0.500000 0.839893
O O11 0.750000 0.250000 0.840450
O O12 0.758805 0.153585 0.888574
O O13 0.000000 0.188780 0.838784
O O14 0.744189 0.945377 0.926513
O O15 0.000000 0.887524 0.935642
O O16 0.500000 0.500000 0.393800
O O17 0.750000 0.250000 0.158234
O O18 0.000000 0.309764 0.144168
#
# Coordination Sequence:
#
# PCOD9368385 Si02
#       7
#    16  16   8  16  16   8  16
#     4   9  18  32  55  79 102 140 186 220 263 324
#     4  10  20  35  57  83 109 145 184 222 272 324
#     4  10  18  38  61  74 103 147 186 222 266 331
#     4  10  19  32  51  78 106 137 174 219 269 320
#     4  10  21  38  58  76 105 148 186 215 265 332
#     4  12  24  36  55  84 111 139 180 228 276 315
#     4  10  19  33  53  80 110 143 181 223 272 324
#
# _framework density 17.840152
#
# number of rings (size 3 to 8) (size 9 to 14) (size 15 to 20)
#    0.000    2.000    1.667    3.750    0.000    2.000 
#    0.000    3.333    0.000    1.000    0.000    0.000 
#    0.000    0.000    0.000    0.000    0.000    0.000 
#
# Total GULP energy -133993.711610 kJ/mol
# GULP energy per Si atom -5583.071317 kJ/mol
# Density = 1.779955 g / cm^3
# Si number density = 17.840152 Si / 1000 Ang^3
#
#
#
# Elastic Constant Matrix: (Units=GPa)
#
#
# Indices 1 2 3 4 5 6 
#
# 1 27.5803 29.3069 29.6033 0.0000 0.0000 0.0000
# 2 29.3069 196.4382 119.8810 0.0000 0.0000 0.0000
# 3 29.6033 119.8810 146.2628 0.0000 0.0000 0.0000
# 4 0.0000 0.0000 0.0000 43.0660 0.0000 0.0000
# 5 0.0000 0.0000 0.0000 0.0000 2.2040 0.0000
# 6 0.0000 0.0000 0.0000 0.0000 0.0000 25.1037
#
#
#
# Elastic Compliance Matrix: (Units=1/GPa)
#
#
# Indices 1 2 3 4 5 6 
#
# 1 0.046883 -0.002408 -0.007515 0.000000 0.000000 0.000000
# 2 -0.002408 0.010309 -0.007962 0.000000 0.000000 0.000000
# 3 -0.007515 -0.007962 0.014884 0.000000 0.000000 0.000000
# 4 0.000000 0.000000 0.000000 0.023220 0.000000 0.000000
# 5 0.000000 0.000000 0.000000 0.000000 0.453730 0.000000
# 6 0.000000 0.000000 0.000000 0.000000 0.000000 0.039835
#
#
# Mechanical properties :
#
#
# Convention : Reuss Voigt Hill
#
# Bulk Modulus (GPa) = 27.54431 80.87374 54.20902
# Shear Modulus (GPa) = 7.85256 26.84072 17.34664
#
# Velocity S-wave (km/s) = 2.10028 3.88301 3.12162
# Velocity P-wave (km/s) = 4.62110 8.09534 6.59125
#
# Compressibility (1/GPa) = 0.03630514
#
# Stress axis : x y z
#
# Youngs Moduli (GPa) = 21.32958 97.00238 67.18600
#
# Poissons Ratio (x) = 0.23360 0.50492
# Poissons Ratio (y) = 0.05137 0.53494
# Poissons Ratio (z) = 0.16030 0.77235
#
# Static dielectric constant tensor:
#      x y z
#    x 1.614330 0.000000 0.000000 
#    y 0.000000 1.585630 0.000000 
#    z 0.000000 0.000000 1.599690 
# 
# From -- ./inp_files/31646.got.cif
#   From: 2010.05.17/outbox.cif.g08.bks.cpg/sg42_16_cif.got.tgz:31646.got - 2010.06.03 19:03:34.
