data_PCOD9368200
_publ_section_title
;
Structure prediction by ZEFSAII (Michael W. Deem and Ramdas Pophale) SiO2 
 PCOD9368200
Probable space group: F M M 2
;
_chemical_formula_sum "Si O2"
_cell_formula_units_Z 128
_cell_length_a 27.811375
_cell_length_b 15.427058
_cell_length_c 15.103199
_cell_angle_alpha 90.000000
_cell_angle_beta 90.000000
_cell_angle_gamma 90.000000
_cell_volume 6479.992721
_symmetry_space_group_name_H-M "F M M 2"
_symmetry_group_IT_number 42
_symmetry_cell_setting 'orthorhombic'
loop_
_space_group_symop_operation_xyz
x,y,z
-x,-y,z
-x,y,z
x,-y,z
x,1/2+y,1/2+z
-x,1/2-y,1/2+z
-x,1/2+y,1/2+z
x,1/2-y,1/2+z
1/2+x,y,1/2+z
1/2-x,-y,1/2+z
1/2-x,y,1/2+z
1/2+x,-y,1/2+z
1/2+x,1/2+y,z
1/2-x,1/2-y,z
1/2-x,1/2+y,z
1/2+x,1/2-y,z
loop_
_atom_site_type_symbol
_atom_site_label
_atom_site_fract_x
_atom_site_fract_y
_atom_site_fract_z
Si Si1 0.641813 0.280972 0.522610
Si Si2 0.554444 0.400747 0.738273
Si Si3 0.837517 0.095040 0.231348
Si Si4 0.858187 0.280972 0.238296
Si Si5 0.162483 0.595040 0.529558
Si Si6 0.554444 0.099253 0.022633
Si Si7 0.269449 0.097488 0.980275
Si Si8 0.769449 0.902512 0.780630
O O1 0.641529 0.276962 0.630453
O O2 0.642171 0.182467 0.487442
O O3 0.595601 0.335329 0.493193
O O4 0.690252 0.331795 0.497356
O O5 0.500000 0.378158 0.765791
O O6 0.564466 0.500000 0.765459
O O7 0.595601 0.335329 0.767713
O O8 0.554858 0.400170 0.630453
O O9 0.857829 0.182467 0.273464
O O10 0.855638 0.090640 0.130453
O O11 0.779915 0.107834 0.227111
O O12 0.845887 0.000000 0.273555
O O13 0.809748 0.331795 0.263550
O O14 0.154113 0.500000 0.487351
O O15 0.220085 0.607834 0.533795
O O16 0.500000 0.121842 0.995115
O O17 0.564466 0.000000 0.995447
O O18 0.250000 0.101949 0.880453
O O19 0.288605 0.000000 0.997577
O O20 0.788605 0.000000 0.763329
#
# Coordination Sequence:
#
# PCOD9368200 Si02
#       8
#    16  16  16  16  16  16  16  16
#     4  10  18  28  46  68  90 121 155 183 219 268
#     4   8  14  25  42  66  93 115 139 179 227 269
#     4   9  18  31  44  60  86 119 154 190 223 258
#     4  10  18  28  46  68  90 121 155 183 219 268
#     4   9  18  31  44  60  86 119 154 190 223 258
#     4   8  14  25  42  66  93 115 139 179 227 269
#     4  10  20  31  43  64  93 121 149 183 224 269
#     4  10  20  31  43  64  93 121 149 183 224 269
#
# _framework density 19.753108999999998
#
# number of rings (size 3 to 8) (size 9 to 14) (size 15 to 20)
#    0.000    2.750    0.000    3.000    0.000    6.500 
#    0.000    0.000    0.000    0.750    0.000    8.750 
#    0.000    6.000    0.000    0.250    0.000    0.250 
#
# Total GULP energy -178450.601310 kJ/mol
# GULP energy per Si atom -5576.581291 kJ/mol
# Density = 1.970815 g / cm^3
# Si number density = 19.753109 Si / 1000 Ang^3
#
#
#
# Elastic Constant Matrix: (Units=GPa)
#
#
# Indices 1 2 3 4 5 6 
#
# 1 89.3176 97.3881 -2.3712 0.0000 0.0000 0.0000
# 2 97.3881 205.6464 2.3868 0.0000 0.0000 0.0000
# 3 -2.3712 2.3868 27.8585 0.0000 0.0000 0.0000
# 4 0.0000 0.0000 0.0000 10.2135 0.0000 0.0000
# 5 0.0000 0.0000 0.0000 0.0000 1.7402 0.0000
# 6 0.0000 0.0000 0.0000 0.0000 0.0000 23.7660
#
#
#
# Elastic Compliance Matrix: (Units=1/GPa)
#
#
# Indices 1 2 3 4 5 6 
#
# 1 0.023388 -0.011110 0.002943 0.000000 0.000000 0.000000
# 2 -0.011110 0.010145 -0.001815 0.000000 0.000000 0.000000
# 3 0.002943 -0.001815 0.036302 0.000000 0.000000 0.000000
# 4 0.000000 0.000000 0.000000 0.097909 0.000000 0.000000
# 5 0.000000 0.000000 0.000000 0.000000 0.574642 0.000000
# 6 0.000000 0.000000 0.000000 0.000000 0.000000 0.042077
#
#
# Mechanical properties :
#
#
# Convention : Reuss Voigt Hill
#
# Bulk Modulus (GPa) = 20.05205 57.51444 38.78325
# Shear Modulus (GPa) = 6.08975 22.17188 14.13082
#
# Velocity S-wave (km/s) = 1.75773 3.35393 2.67755
# Velocity P-wave (km/s) = 3.78059 6.64668 5.40700
#
# Compressibility (1/GPa) = 0.04987022
#
# Stress axis : x y z
#
# Youngs Moduli (GPa) = 42.75691 98.56906 27.54698
#
# Poissons Ratio (x) = 1.09511 -0.08106
# Poissons Ratio (y) = 0.47503 0.04999
# Poissons Ratio (z) = -0.12582 0.17889
#
# Static dielectric constant tensor:
#      x y z
#    x 1.651530 0.000000 0.000000 
#    y 0.000000 1.742350 0.000000 
#    z 0.000000 0.000000 1.806200 
# 
# From -- ./inp_files/22351.got.cif
#   From: 2010.05.17/outbox.cif.g08.bks.cpg/sg42_12_cif.got.tgz:22351.got - 2010.06.03 19:03:34.
