data_PCOD9368407
_publ_section_title
;
Structure prediction by ZEFSAII (Michael W. Deem and Ramdas Pophale) SiO2 
 PCOD9368407
Probable space group: F M M 2
;
_chemical_formula_sum "Si O2"
_cell_formula_units_Z 116
_cell_length_a 31.375976
_cell_length_b 7.505315
_cell_length_c 25.945629
_cell_angle_alpha 90.000000
_cell_angle_beta 90.000000
_cell_angle_gamma 90.000000
_cell_volume 6109.847525
_symmetry_space_group_name_H-M "F M M 2"
_symmetry_group_IT_number 42
_symmetry_cell_setting 'orthorhombic'
loop_
_space_group_symop_operation_xyz
x,y,z
-x,-y,z
-x,y,z
x,-y,z
x,1/2+y,1/2+z
-x,1/2-y,1/2+z
-x,1/2+y,1/2+z
x,1/2-y,1/2+z
1/2+x,y,1/2+z
1/2-x,-y,1/2+z
1/2-x,y,1/2+z
1/2+x,-y,1/2+z
1/2+x,1/2+y,z
1/2-x,1/2-y,z
1/2-x,1/2+y,z
1/2+x,1/2-y,z
loop_
_atom_site_type_symbol
_atom_site_label
_atom_site_fract_x
_atom_site_fract_y
_atom_site_fract_z
Si Si1 0.934054 0.212576 0.500000
Si Si2 0.837580 0.784693 0.466212
Si Si3 0.299260 0.211614 0.745839
Si Si4 0.797684 0.786414 0.568775
Si Si5 0.799241 0.213353 0.361793
Si Si6 0.637464 0.289659 0.654095
Si Si7 0.452571 0.784675 0.120794
Si Si8 0.500000 0.500000 0.963224
O O1 0.885034 0.248406 0.486283
O O2 0.943714 0.251436 0.560298
O O3 0.963331 0.342640 0.467365
O O4 0.942058 0.000000 0.492377
O O5 0.805838 0.719283 0.510902
O O6 0.827276 0.717077 0.409117
O O7 0.832966 0.000000 0.463537
O O8 0.250000 0.250000 0.730762
O O9 0.306423 0.283798 0.803849
O O10 0.334800 0.272745 0.705634
O O11 0.302669 0.000000 0.747653
O O12 0.750000 0.750000 0.586806
O O13 0.833202 0.715252 0.607997
O O14 0.802498 0.000000 0.567483
O O15 0.750000 0.250000 0.374574
O O16 0.805119 0.000000 0.358836
O O17 0.633019 0.500000 0.643779
O O18 0.589010 0.219476 0.652009
O O19 0.500000 0.716709 0.134161
O O20 0.454555 0.000000 0.126061
#
# Coordination Sequence:
#
# PCOD9368407 Si02
#       8
#    16  16  16  16  16  16  16   4
#     4  10  19  35  54  75 110 145 175 222 275 321
#     4   9  17  33  53  72 100 139 175 208 261 325
#     4  10  20  34  51  74 101 134 176 221 261 311
#     4  10  19  30  45  70 102 138 171 203 251 316
#     4   9  18  33  53  75 100 133 177 220 262 312
#     4  10  19  32  50  73 102 134 172 211 256 316
#     4   9  16  31  54  75  97 136 175 211 260 317
#     4  12  22  32  52  86 108 140 186 224 260 334
#
# _framework density 18.985745000000001
#
# number of rings (size 3 to 8) (size 9 to 14) (size 15 to 20)
#    0.000    2.345    2.069    1.448    0.000    2.207 
#    3.724    0.000    0.000    0.000    1.793    0.000 
#    0.000    0.000    0.000    0.000    0.000    0.000 
#
# Total GULP energy -161465.346336 kJ/mol
# GULP energy per Si atom -5567.770563 kJ/mol
# Density = 1.894253 g / cm^3
# Si number density = 18.985745 Si / 1000 Ang^3
#
#
#
# Elastic Constant Matrix: (Units=GPa)
#
#
# Indices 1 2 3 4 5 6 
#
# 1 161.7394 10.1402 72.4482 0.0002 0.0001 -0.0002
# 2 10.1402 58.3927 1.2079 0.0005 -0.0003 -0.0002
# 3 72.4482 1.2079 84.3937 0.0000 0.0001 0.0000
# 4 0.0002 0.0005 0.0000 -8.2948 0.0000 -0.0001
# 5 0.0001 -0.0003 0.0001 0.0000 56.8442 0.0000
# 6 -0.0002 -0.0002 0.0000 -0.0001 0.0000 25.0069
#
#
#
# Elastic Compliance Matrix: (Units=1/GPa)
#
#
# Indices 1 2 3 4 5 6 
#
# 1 0.010191 -0.001589 -0.008726 0.000000 0.000000 0.000000
# 2 -0.001589 0.017378 0.001116 0.000001 0.000000 0.000000
# 3 -0.008726 0.001116 0.019324 0.000000 0.000000 0.000000
# 4 0.000000 0.000001 0.000000 -0.120558 0.000000 0.000000
# 5 0.000000 0.000000 0.000000 0.000000 0.017592 0.000000
# 6 0.000000 0.000000 0.000000 0.000000 0.000000 0.039989
#
#
# Mechanical properties :
#
#
# Convention : Reuss Voigt Hill
#
# Bulk Modulus (GPa) = 35.09466 52.45761 43.77613
# Shear Modulus (GPa) = 423.25769 29.42656 226.34212
#
# Velocity S-wave (km/s) = 14.94719 3.94118 10.93049
# Velocity P-wave (km/s) = 17.78809 6.95705 13.50586
#
# Compressibility (1/GPa) = 0.02849437
#
# Stress axis : x y z
#
# Youngs Moduli (GPa) = 98.12616 57.54296 51.74929
#
# Poissons Ratio (x) = 0.09145 0.45155
# Poissons Ratio (y) = 0.15594 -0.05773
# Poissons Ratio (z) = 0.85622 -0.06419
#
# Static dielectric constant tensor:
#      x y z
#    x 1.662530 0.000000 0.000000 
#    y 0.000000 1.725800 0.000000 
#    z 0.000000 0.000000 1.676330 
# 
# From -- ./inp_files/31954.got.cif
#   From: 2010.05.17/outbox.cif.g08.bks.cpg/sg42_16_cif.got.tgz:31954.got - 2010.06.03 19:03:34.
