data_PCOD9368876
_publ_section_title
;
Structure prediction by ZEFSAII (Michael W. Deem and Ramdas Pophale) SiO2 
 PCOD9368876
Probable space group: F M M 2
;
_chemical_formula_sum "Si O2"
_cell_formula_units_Z 80
_cell_length_a 9.097376
_cell_length_b 16.749950
_cell_length_c 27.219948
_cell_angle_alpha 90.000000
_cell_angle_beta 90.000000
_cell_angle_gamma 90.000000
_cell_volume 4147.791821
_symmetry_space_group_name_H-M "F M M 2"
_symmetry_group_IT_number 42
_symmetry_cell_setting 'orthorhombic'
loop_
_space_group_symop_operation_xyz
x,y,z
-x,-y,z
-x,y,z
x,-y,z
x,1/2+y,1/2+z
-x,1/2-y,1/2+z
-x,1/2+y,1/2+z
x,1/2-y,1/2+z
1/2+x,y,1/2+z
1/2-x,-y,1/2+z
1/2-x,y,1/2+z
1/2+x,-y,1/2+z
1/2+x,1/2+y,z
1/2-x,1/2-y,z
1/2-x,1/2+y,z
1/2+x,1/2-y,z
loop_
_atom_site_type_symbol
_atom_site_label
_atom_site_fract_x
_atom_site_fract_y
_atom_site_fract_z
Si Si1 0.671296 0.597804 0.248600
Si Si2 0.833450 0.903918 0.846476
Si Si3 0.174545 0.164181 0.440427
Si Si4 0.830111 0.903560 0.034948
Si Si5 0.320947 0.907416 0.641796
O O1 0.500000 0.619189 0.255498
O O2 0.675820 0.500000 0.247150
O O3 0.766376 0.624827 0.294826
O O4 0.723486 0.626847 0.194739
O O5 0.733333 0.880745 0.892270
O O6 0.000000 0.874396 0.853714
O O7 0.838197 0.000000 0.844062
O O8 0.250000 0.250000 0.439653
O O9 0.230214 0.122174 0.490043
O O10 0.000000 0.169644 0.439683
O O11 0.778983 0.872805 0.088724
O O12 0.000000 0.877985 0.026533
O O13 0.832158 0.000000 0.037599
O O14 0.500000 0.908260 0.642039
O O15 0.272108 0.000000 0.641741
#
# Coordination Sequence:
#
# PCOD9368876 Si02
#       5
#    16  16  16  16  16
#     4   8  13  24  45  74 105 135 168 204 243 290
#     4  10  20  34  53  78 107 137 169 207 252 301
#     4  12  25  39  54  72  98 133 173 216 262 308
#     4   9  17  32  55  81 108 137 169 206 249 298
#     4   7  11  22  44  74 105 135 165 199 242 291
#
# _framework density 19.287369999999999
#
# number of rings (size 3 to 8) (size 9 to 14) (size 15 to 20)
#    0.000    2.800    0.000    5.400    0.000    4.000 
#    0.000    1.000    0.000    4.800    0.000    5.600 
#    0.000    0.000    0.000    0.000    0.000    0.000 
#
# Total GULP energy -111457.552185 kJ/mol
# GULP energy per Si atom -5572.877609 kJ/mol
# Density = 1.924347 g / cm^3
# Si number density = 19.287370 Si / 1000 Ang^3
#
#
#
# Elastic Constant Matrix: (Units=GPa)
#
#
# Indices 1 2 3 4 5 6 
#
# 1 121.5336 13.7452 88.5692 0.0000 0.0000 0.0000
# 2 13.7452 8.8195 17.3287 0.0000 0.0000 0.0000
# 3 88.5692 17.3287 208.4362 0.0000 0.0000 0.0000
# 4 0.0000 0.0000 0.0000 -18.8388 0.0000 0.0000
# 5 0.0000 0.0000 0.0000 0.0000 29.9804 0.0000
# 6 0.0000 0.0000 0.0000 0.0000 0.0000 15.4779
#
#
#
# Elastic Compliance Matrix: (Units=1/GPa)
#
#
# Indices 1 2 3 4 5 6 
#
# 1 0.012759 -0.011035 -0.004504 0.000000 0.000000 0.000000
# 2 -0.011035 0.145067 -0.007371 0.000000 0.000000 0.000000
# 3 -0.004504 -0.007371 0.007324 0.000000 0.000000 0.000000
# 4 0.000000 0.000000 0.000000 -0.053082 0.000000 0.000000
# 5 0.000000 0.000000 0.000000 0.000000 0.033355 0.000000
# 6 0.000000 0.000000 0.000000 0.000000 0.000000 0.064608
#
#
# Mechanical properties :
#
#
# Convention : Reuss Voigt Hill
#
# Bulk Modulus (GPa) = 8.38016 64.23061 36.30539
# Shear Modulus (GPa) = 16.91312 19.93362 18.42337
#
# Velocity S-wave (km/s) = 2.96446 3.21831 3.09399
# Velocity P-wave (km/s) = 4.00896 6.86908 5.62387
#
# Compressibility (1/GPa) = 0.11932940
#
# Stress axis : x y z
#
# Youngs Moduli (GPa) = 78.37897 6.89337 136.53153
#
# Poissons Ratio (x) = 0.07607 0.61494
# Poissons Ratio (y) = 0.86489 1.00644
# Poissons Ratio (z) = 0.35302 0.05081
#
# Static dielectric constant tensor:
#      x y z
#    x 1.653010 0.000000 0.000000 
#    y 0.000000 1.695170 0.000000 
#    z 0.000000 0.000000 1.727460 
# 
# From -- ./inp_files/31262.got.cif
#   From: 2010.05.17/outbox.cif.g08.bks.cpg/sg42_16_cif.got.tgz:31262.got - 2010.06.03 19:03:34.
