data_PCOD9368745
_publ_section_title
;
Structure prediction by ZEFSAII (Michael W. Deem and Ramdas Pophale) SiO2 
 PCOD9368745
Probable space group: F M M 2
;
_chemical_formula_sum "Si O2"
_cell_formula_units_Z 112
_cell_length_a 26.827863
_cell_length_b 11.037027
_cell_length_c 19.470078
_cell_angle_alpha 90.000000
_cell_angle_beta 90.000000
_cell_angle_gamma 90.000000
_cell_volume 5765.087142
_symmetry_space_group_name_H-M "F M M 2"
_symmetry_group_IT_number 42
_symmetry_cell_setting 'orthorhombic'
loop_
_space_group_symop_operation_xyz
x,y,z
-x,-y,z
-x,y,z
x,-y,z
x,1/2+y,1/2+z
-x,1/2-y,1/2+z
-x,1/2+y,1/2+z
x,1/2-y,1/2+z
1/2+x,y,1/2+z
1/2-x,-y,1/2+z
1/2-x,y,1/2+z
1/2+x,-y,1/2+z
1/2+x,1/2+y,z
1/2-x,1/2-y,z
1/2-x,1/2+y,z
1/2+x,1/2-y,z
loop_
_atom_site_type_symbol
_atom_site_label
_atom_site_fract_x
_atom_site_fract_y
_atom_site_fract_z
Si Si1 0.095957 0.645430 0.122610
Si Si2 0.712822 0.134112 0.472041
Si Si3 0.055376 0.645714 0.268914
Si Si4 0.944624 0.145713 0.476306
Si Si5 0.635696 0.250000 0.872610
Si Si6 0.712822 0.634112 0.273179
Si Si7 0.806417 0.202031 0.122610
O O1 0.096772 0.500000 0.122610
O O2 0.068238 0.685956 0.191545
O O3 0.152136 0.694009 0.122610
O O4 0.068238 0.685955 0.053675
O O5 0.750000 0.250000 0.467386
O O6 0.671053 0.158828 0.414856
O O7 0.689702 0.136562 0.549024
O O8 0.736011 0.000000 0.462321
O O9 0.054381 0.500000 0.268879
O O10 0.099346 0.686845 0.318327
O O11 0.000000 0.689034 0.288778
O O12 0.900654 0.186846 0.426893
O O13 0.000000 0.189033 0.456442
O O14 0.945618 0.000000 0.476340
O O15 0.671053 0.158829 0.830364
O O16 0.736011 0.500000 0.282899
O O17 0.750000 0.750000 0.277834
O O18 0.689703 0.636562 0.196195
O O19 0.750000 0.250000 0.122610
#
# Coordination Sequence:
#
# PCOD9368745 Si02
#       7
#    16  16  16  16  16  16  16
#     4  10  19  37  64  90 120 159 206 261 309 356
#     4  11  25  42  64  91 125 166 208 255 308 370
#     4  10  21  37  60  90 121 158 208 261 308 359
#     4  10  21  37  60  90 121 158 208 261 308 359
#     4  12  22  38  60  88 128 166 202 248 312 376
#     4  11  25  42  64  91 125 166 208 255 308 370
#     4  10  21  40  60  89 119 156 204 254 305 366
#
# _framework density 19.427285999999999
#
# number of rings (size 3 to 8) (size 9 to 14) (size 15 to 20)
#    0.000    1.429    2.857    2.571    0.000    9.714 
#    0.000    0.000    0.000    0.000    0.000    2.000 
#    0.000    0.000    0.000    0.000    0.000    0.000 
#
# Total GULP energy -156212.376872 kJ/mol
# GULP energy per Si atom -5579.013460 kJ/mol
# Density = 1.938307 g / cm^3
# Si number density = 19.427286 Si / 1000 Ang^3
#
#
#
# Elastic Constant Matrix: (Units=GPa)
#
#
# Indices 1 2 3 4 5 6 
#
# 1 88.1986 39.1375 42.2447 0.0000 0.0000 0.0000
# 2 39.1375 83.5347 37.9169 0.0000 0.0000 0.0000
# 3 42.2447 37.9169 144.5491 0.0000 0.0000 0.0000
# 4 0.0000 0.0000 0.0000 9.6498 0.0000 0.0000
# 5 0.0000 0.0000 0.0000 0.0000 -26.8783 0.0000
# 6 0.0000 0.0000 0.0000 0.0000 0.0000 29.2398
#
#
#
# Elastic Compliance Matrix: (Units=1/GPa)
#
#
# Indices 1 2 3 4 5 6 
#
# 1 0.015348 -0.005851 -0.002951 0.000000 0.000000 0.000000
# 2 -0.005851 0.015820 -0.002440 0.000000 0.000000 0.000000
# 3 -0.002951 -0.002440 0.008420 0.000000 0.000000 0.000000
# 4 0.000000 0.000000 0.000000 0.103629 0.000000 0.000000
# 5 0.000000 0.000000 0.000000 0.000000 -0.037205 0.000000
# 6 0.000000 0.000000 0.000000 0.000000 0.000000 0.034200
#
#
# Mechanical properties :
#
#
# Convention : Reuss Voigt Hill
#
# Bulk Modulus (GPa) = 58.46313 61.65340 60.05827
# Shear Modulus (GPa) = 29.69174 15.53450 22.61312
#
# Velocity S-wave (km/s) = 3.91366 2.83083 3.41543
# Velocity P-wave (km/s) = 7.11203 6.51837 6.82166
#
# Compressibility (1/GPa) = 0.01710480
#
# Stress axis : x y z
#
# Youngs Moduli (GPa) = 65.15587 63.21127 118.76055
#
# Poissons Ratio (x) = 0.36988 0.35040
# Poissons Ratio (y) = 0.38126 0.28973
# Poissons Ratio (z) = 0.19224 0.15421
#
# Static dielectric constant tensor:
#      x y z
#    x 1.659890 0.000000 0.000000 
#    y 0.000000 1.670550 0.000000 
#    z 0.000000 0.000000 1.710570 
# 
# From -- ./inp_files/26862.got.cif
#   From: 2010.05.17/outbox.cif.g08.bks.cpg/sg42_14_cif.got.tgz:26862.got - 2010.06.03 19:03:34.
