data_PCOD9368875
_publ_section_title
;
Structure prediction by ZEFSAII (Michael W. Deem and Ramdas Pophale) SiO2 
 PCOD9368875
Probable space group: F M M 2
;
_chemical_formula_sum "Si O2"
_cell_formula_units_Z 96
_cell_length_a 9.095206
_cell_length_b 15.154185
_cell_length_c 32.254323
_cell_angle_alpha 90.000000
_cell_angle_beta 90.000000
_cell_angle_gamma 90.000000
_cell_volume 4445.627348
_symmetry_space_group_name_H-M "F M M 2"
_symmetry_group_IT_number 42
_symmetry_cell_setting 'orthorhombic'
loop_
_space_group_symop_operation_xyz
x,y,z
-x,-y,z
-x,y,z
x,-y,z
x,1/2+y,1/2+z
-x,1/2-y,1/2+z
-x,1/2+y,1/2+z
x,1/2-y,1/2+z
1/2+x,y,1/2+z
1/2-x,-y,1/2+z
1/2-x,y,1/2+z
1/2+x,-y,1/2+z
1/2+x,1/2+y,z
1/2-x,1/2-y,z
1/2-x,1/2+y,z
1/2+x,1/2-y,z
loop_
_atom_site_type_symbol
_atom_site_label
_atom_site_fract_x
_atom_site_fract_y
_atom_site_fract_z
Si Si1 0.676045 0.846635 0.215620
Si Si2 0.333807 0.608160 0.461684
Si Si3 0.335899 0.104388 0.541489
Si Si4 0.177354 0.153481 0.134375
Si Si5 0.167670 0.391783 0.378915
Si Si6 0.663742 0.104335 0.798092
O O1 0.500000 0.843743 0.212340
O O2 0.750000 0.750000 0.216348
O O3 0.747536 0.890396 0.174574
O O4 0.729662 0.885893 0.258936
O O5 0.500000 0.638144 0.455481
O O6 0.335997 0.500000 0.461712
O O7 0.271031 0.638682 0.505911
O O8 0.233422 0.635051 0.423106
O O9 0.500000 0.143249 0.537382
O O10 0.290390 0.113859 0.589265
O O11 0.347175 0.000000 0.533766
O O12 0.250000 0.250000 0.132180
O O13 0.000000 0.156248 0.139907
O O14 0.168033 0.500000 0.378412
O O15 0.265362 0.360297 0.340312
O O16 0.000000 0.363096 0.374067
O O17 0.500000 0.141445 0.789652
O O18 0.647960 0.000000 0.804617
#
# Coordination Sequence:
#
# PCOD9368875 Si02
#       6
#    16  16  16  16  16  16
#     4  11  22  37  56  76 101 134 173 212 254 307
#     4   9  16  26  43  69 100 132 165 202 246 295
#     4   9  18  32  50  73 100 130 165 205 249 296
#     4  10  20  35  54  74  98 131 169 207 251 303
#     4   9  16  27  45  70 101 135 169 204 245 296
#     4  10  20  34  53  78 107 136 169 211 257 302
#
# _framework density 21.594252000000001
#
# number of rings (size 3 to 8) (size 9 to 14) (size 15 to 20)
#    0.000    2.333    0.000    4.500    0.000    7.000 
#    0.000    1.667    0.000    1.000    0.000    4.667 
#    0.000    0.000    0.000    0.000    0.000    0.000 
#
# Total GULP energy -133947.041608 kJ/mol
# GULP energy per Si atom -5581.126734 kJ/mol
# Density = 2.154510 g / cm^3
# Si number density = 21.594252 Si / 1000 Ang^3
#
#
#
# Elastic Constant Matrix: (Units=GPa)
#
#
# Indices 1 2 3 4 5 6 
#
# 1 164.3900 8.9419 93.7150 0.0000 0.0000 0.0000
# 2 8.9419 24.6715 -0.6091 0.0000 0.0000 0.0000
# 3 93.7150 -0.6091 167.7531 0.0000 0.0000 0.0000
# 4 0.0000 0.0000 0.0000 42.6351 0.0000 0.0000
# 5 0.0000 0.0000 0.0000 0.0000 24.0697 0.0000
# 6 0.0000 0.0000 0.0000 0.0000 0.0000 13.5516
#
#
#
# Elastic Compliance Matrix: (Units=1/GPa)
#
#
# Indices 1 2 3 4 5 6 
#
# 1 0.009213 -0.003466 -0.005159 0.000000 0.000000 0.000000
# 2 -0.003466 0.041841 0.002088 0.000000 0.000000 0.000000
# 3 -0.005159 0.002088 0.008851 0.000000 0.000000 0.000000
# 4 0.000000 0.000000 0.000000 0.023455 0.000000 0.000000
# 5 0.000000 0.000000 0.000000 0.000000 0.041546 0.000000
# 6 0.000000 0.000000 0.000000 0.000000 0.000000 0.073792
#
#
# Mechanical properties :
#
#
# Convention : Reuss Voigt Hill
#
# Bulk Modulus (GPa) = 21.35399 62.32336 41.83867
# Shear Modulus (GPa) = 21.98942 33.03572 27.51257
#
# Velocity S-wave (km/s) = 3.19454 3.91556 3.57328
# Velocity P-wave (km/s) = 4.84943 7.02609 6.03667
#
# Compressibility (1/GPa) = 0.04682965
#
# Stress axis : x y z
#
# Youngs Moduli (GPa) = 108.54369 23.90029 112.98177
#
# Poissons Ratio (x) = 0.08285 0.58291
# Poissons Ratio (y) = 0.37627 -0.23596
# Poissons Ratio (z) = 0.56001 -0.04992
#
# Static dielectric constant tensor:
#      x y z
#    x 1.760640 0.000000 0.000000 
#    y 0.000000 1.844090 0.000000 
#    z 0.000000 0.000000 1.806050 
# 
# From -- ./inp_files/28050.got.cif
#   From: 2010.05.17/outbox.cif.g08.bks.cpg/sg42_15_cif.got.tgz:28050.got - 2010.06.03 19:03:34.
