data_PCOD9368703
_publ_section_title
;
Structure prediction by ZEFSAII (Michael W. Deem and Ramdas Pophale) SiO2 
 PCOD9368703
Probable space group: F M M 2
;
_chemical_formula_sum "Si O2"
_cell_formula_units_Z 116
_cell_length_a 29.991523
_cell_length_b 9.116670
_cell_length_c 20.475105
_cell_angle_alpha 90.000000
_cell_angle_beta 90.000000
_cell_angle_gamma 90.000000
_cell_volume 5598.360908
_symmetry_space_group_name_H-M "F M M 2"
_symmetry_group_IT_number 42
_symmetry_cell_setting 'orthorhombic'
loop_
_space_group_symop_operation_xyz
x,y,z
-x,-y,z
-x,y,z
x,-y,z
x,1/2+y,1/2+z
-x,1/2-y,1/2+z
-x,1/2+y,1/2+z
x,1/2-y,1/2+z
1/2+x,y,1/2+z
1/2-x,-y,1/2+z
1/2-x,y,1/2+z
1/2+x,-y,1/2+z
1/2+x,1/2+y,z
1/2-x,1/2-y,z
1/2-x,1/2+y,z
1/2+x,1/2-y,z
loop_
_atom_site_type_symbol
_atom_site_label
_atom_site_fract_x
_atom_site_fract_y
_atom_site_fract_z
Si Si1 0.315782 0.834138 0.734390
Si Si2 0.500000 0.500000 0.219685
Si Si3 0.446943 0.341750 0.837553
Si Si4 0.081873 0.725610 0.709614
Si Si5 0.204761 0.174243 0.385481
Si Si6 0.391689 0.174351 0.939058
Si Si7 0.204591 0.824988 0.604817
Si Si8 0.112065 0.322305 0.570311
O O1 0.369462 0.836793 0.728883
O O2 0.301954 0.798151 0.807970
O O3 0.299353 0.716000 0.681879
O O4 0.299845 0.000000 0.717532
O O5 0.539506 0.623187 0.218363
O O6 0.500000 0.320228 0.836989
O O7 0.437381 0.500000 0.869099
O O8 0.427834 0.345246 0.764397
O O9 0.422621 0.215413 0.877949
O O10 0.087024 0.750055 0.632235
O O11 0.250000 0.250000 0.408124
O O12 0.158999 0.218668 0.420678
O O13 0.209161 0.000000 0.393896
O O14 0.392530 0.000000 0.951307
O O15 0.406862 0.265451 0.002059
O O16 0.250000 0.750000 0.580800
O O17 0.162197 0.741724 0.574342
O O18 0.203209 0.000000 0.594201
O O19 0.111098 0.500000 0.576784
#
# Coordination Sequence:
#
# PCOD9368703 Si02
#       8
#    16   4  16  16  16  16  16  16
#     4  10  19  36  58  90 129 166 209 266 326 382
#     4  12  20  36  70 108 124 172 218 258 340 400
#     4  11  25  43  66 100 133 169 215 274 330 392
#     4  11  21  38  69  96 130 166 215 262 326 395
#     4  10  22  38  60  90 127 167 215 265 322 390
#     4  11  25  45  68  92 130 175 225 274 329 398
#     4  11  22  37  60  91 124 168 220 272 327 390
#     4  11  24  44  64  93 132 174 214 273 335 392
#
# _framework density 20.720351000000001
#
# number of rings (size 3 to 8) (size 9 to 14) (size 15 to 20)
#    0.000    1.241    3.448    3.310    0.966    6.345 
#    1.241    1.379    0.000    0.000    0.000    0.000 
#    0.000    0.000    0.000    0.000    0.000    0.000 
#
# Total GULP energy -161639.379973 kJ/mol
# GULP energy per Si atom -5573.771723 kJ/mol
# Density = 2.067319 g / cm^3
# Si number density = 20.720351 Si / 1000 Ang^3
#
#
#
# Elastic Constant Matrix: (Units=GPa)
#
#
# Indices 1 2 3 4 5 6 
#
# 1 88.4832 29.7102 8.5476 0.0000 0.0000 0.0000
# 2 29.7102 54.2303 39.8272 0.0000 0.0000 0.0000
# 3 8.5476 39.8272 99.4455 0.0000 0.0000 0.0000
# 4 0.0000 0.0000 0.0000 53.1035 0.0000 0.0000
# 5 0.0000 0.0000 0.0000 0.0000 -2.6352 0.0000
# 6 0.0000 0.0000 0.0000 0.0000 0.0000 46.9911
#
#
#
# Elastic Compliance Matrix: (Units=1/GPa)
#
#
# Indices 1 2 3 4 5 6 
#
# 1 0.014348 -0.009853 0.002713 0.000000 0.000000 0.000000
# 2 -0.009853 0.032889 -0.012325 0.000000 0.000000 0.000000
# 3 0.002713 -0.012325 0.014759 0.000000 0.000000 0.000000
# 4 0.000000 0.000000 0.000000 0.018831 0.000000 0.000000
# 5 0.000000 0.000000 0.000000 0.000000 -0.379480 0.000000
# 6 0.000000 0.000000 0.000000 0.000000 0.000000 0.021281
#
#
# Mechanical properties :
#
#
# Convention : Reuss Voigt Hill
#
# Bulk Modulus (GPa) = 43.35445 44.25879 43.80662
# Shear Modulus (GPa) = -21.66816 30.43014 4.38099
#
# Velocity S-wave (km/s) = -3.23730 3.83640 1.45565
# Velocity P-wave (km/s) = 2.64491 6.40550 4.90030
#
# Compressibility (1/GPa) = 0.02306568
#
# Stress axis : x y z
#
# Youngs Moduli (GPa) = 69.69715 30.40495 67.75659
#
# Poissons Ratio (x) = 0.29957 -0.18380
# Poissons Ratio (y) = 0.68671 0.83511
# Poissons Ratio (z) = -0.18907 0.37474
#
# Static dielectric constant tensor:
#      x y z
#    x 1.718940 0.000000 0.000000 
#    y 0.000000 1.628330 0.000000 
#    z 0.000000 0.000000 1.792600 
# 
# From -- ./inp_files/30880.got.cif
#   From: 2010.05.17/outbox.cif.g08.bks.cpg/sg42_16_cif.got.tgz:30880.got - 2010.06.03 19:03:34.
