data_PCOD9368505
_publ_section_title
;
Structure prediction by ZEFSAII (Michael W. Deem and Ramdas Pophale) SiO2 
 PCOD9368505
Probable space group: F M M 2
;
_chemical_formula_sum "Si O2"
_cell_formula_units_Z 80
_cell_length_a 14.898100
_cell_length_b 7.995679
_cell_length_c 30.347875
_cell_angle_alpha 90.000000
_cell_angle_beta 90.000000
_cell_angle_gamma 90.000000
_cell_volume 3615.051777
_symmetry_space_group_name_H-M "F M M 2"
_symmetry_group_IT_number 42
_symmetry_cell_setting 'orthorhombic'
loop_
_space_group_symop_operation_xyz
x,y,z
-x,-y,z
-x,y,z
x,-y,z
x,1/2+y,1/2+z
-x,1/2-y,1/2+z
-x,1/2+y,1/2+z
x,1/2-y,1/2+z
1/2+x,y,1/2+z
1/2-x,-y,1/2+z
1/2-x,y,1/2+z
1/2+x,-y,1/2+z
1/2+x,1/2+y,z
1/2-x,1/2-y,z
1/2-x,1/2+y,z
1/2+x,1/2-y,z
loop_
_atom_site_type_symbol
_atom_site_label
_atom_site_fract_x
_atom_site_fract_y
_atom_site_fract_z
Si Si1 0.145843 0.299353 0.967220
Si Si2 0.889540 0.500000 0.210842
Si Si3 0.854880 0.798803 0.562632
Si Si4 0.395269 0.310366 0.369232
Si Si5 0.889630 0.500000 0.312953
Si Si6 0.395619 0.819357 0.658487
O O1 0.136638 0.500000 0.968234
O O2 0.250000 0.250000 0.966395
O O3 0.108373 0.247903 0.919962
O O4 0.109264 0.241081 0.014702
O O5 0.864533 0.500000 0.261872
O O6 0.856973 0.664188 0.185180
O O7 0.000000 0.500000 0.208680
O O8 0.750000 0.750000 0.562913
O O9 0.893789 0.718619 0.606459
O O10 0.864983 0.000000 0.565739
O O11 0.500000 0.325758 0.357704
O O12 0.356641 0.500000 0.366709
O O13 0.357102 0.166984 0.337889
O O14 0.000000 0.500000 0.315194
O O15 0.500000 0.828978 0.671527
O O16 0.353201 0.000000 0.666836
#
# Coordination Sequence:
#
# PCOD9368505 Si02
#       6
#    16   8  16  16   8  16
#     4   9  19  32  50  75 103 140 175 208 252 303
#     4   9  18  34  54  77 104 132 169 216 264 312
#     4  10  19  33  52  76 107 142 179 214 254 309
#     4   9  18  33  51  76 106 133 169 213 257 303
#     4   9  18  32  54  79 100 132 171 212 262 306
#     4  10  20  34  53  79 107 136 173 216 263 309
#
# _framework density 22.129695999999999
#
# number of rings (size 3 to 8) (size 9 to 14) (size 15 to 20)
#    0.000    2.600    1.000    0.600    1.400    2.400 
#    0.000    6.000    0.000    1.200    0.000    0.000 
#    0.000    0.000    0.000    0.000    0.000    0.000 
#
# Total GULP energy -111575.134437 kJ/mol
# GULP energy per Si atom -5578.756722 kJ/mol
# Density = 2.207933 g / cm^3
# Si number density = 22.129696 Si / 1000 Ang^3
#
#
#
# Elastic Constant Matrix: (Units=GPa)
#
#
# Indices 1 2 3 4 5 6 
#
# 1 37.4839 9.0744 -2.2124 0.0000 0.0000 0.0000
# 2 9.0744 155.2494 110.0133 0.0000 0.0000 0.0000
# 3 -2.2124 110.0133 176.0333 0.0000 0.0000 0.0000
# 4 0.0000 0.0000 0.0000 11.8898 0.0000 0.0000
# 5 0.0000 0.0000 0.0000 0.0000 40.5170 0.0000
# 6 0.0000 0.0000 0.0000 0.0000 0.0000 11.3741
#
#
#
# Elastic Compliance Matrix: (Units=1/GPa)
#
#
# Indices 1 2 3 4 5 6 
#
# 1 0.027631 -0.003340 0.002435 0.000000 0.000000 0.000000
# 2 -0.003340 0.011965 -0.007520 0.000000 0.000000 0.000000
# 3 0.002435 -0.007520 0.010411 0.000000 0.000000 0.000000
# 4 0.000000 0.000000 0.000000 0.084106 0.000000 0.000000
# 5 0.000000 0.000000 0.000000 0.000000 0.024681 0.000000
# 6 0.000000 0.000000 0.000000 0.000000 0.000000 0.087919
#
#
# Mechanical properties :
#
#
# Convention : Reuss Voigt Hill
#
# Bulk Modulus (GPa) = 30.16042 66.94633 48.55338
# Shear Modulus (GPa) = 18.20734 29.54894 23.87814
#
# Velocity S-wave (km/s) = 2.87148 3.65809 3.28839
# Velocity P-wave (km/s) = 4.96512 6.93971 6.03374
#
# Compressibility (1/GPa) = 0.03315603
#
# Stress axis : x y z
#
# Youngs Moduli (GPa) = 36.19188 83.57642 96.05405
#
# Poissons Ratio (x) = 0.27918 -0.23388
# Poissons Ratio (y) = 0.12090 0.72229
# Poissons Ratio (z) = -0.08812 0.62847
#
# Static dielectric constant tensor:
#      x y z
#    x 1.759060 0.000000 0.000000 
#    y 0.000000 1.841550 0.000000 
#    z 0.000000 0.000000 1.792370 
# 
# From -- ./inp_files/27805.got.cif
#   From: 2010.05.17/outbox.cif.g08.bks.cpg/sg42_14_cif.got.tgz:27805.got - 2010.06.03 19:03:34.
