data_PCOD9368272
_publ_section_title
;
Structure prediction by ZEFSAII (Michael W. Deem and Ramdas Pophale) SiO2 
 PCOD9368272
Probable space group: F M M 2
;
_chemical_formula_sum "Si O2"
_cell_formula_units_Z 80
_cell_length_a 16.102050
_cell_length_b 7.791334
_cell_length_c 30.987605
_cell_angle_alpha 90.000000
_cell_angle_beta 90.000000
_cell_angle_gamma 90.000000
_cell_volume 3887.594906
_symmetry_space_group_name_H-M "F M M 2"
_symmetry_group_IT_number 42
_symmetry_cell_setting 'orthorhombic'
loop_
_space_group_symop_operation_xyz
x,y,z
-x,-y,z
-x,y,z
x,-y,z
x,1/2+y,1/2+z
-x,1/2-y,1/2+z
-x,1/2+y,1/2+z
x,1/2-y,1/2+z
1/2+x,y,1/2+z
1/2-x,-y,1/2+z
1/2-x,y,1/2+z
1/2+x,-y,1/2+z
1/2+x,1/2+y,z
1/2-x,1/2-y,z
1/2-x,1/2+y,z
1/2+x,1/2-y,z
loop_
_atom_site_type_symbol
_atom_site_label
_atom_site_fract_x
_atom_site_fract_y
_atom_site_fract_z
Si Si1 0.597543 0.500000 0.196651
Si Si2 0.347723 0.205537 0.944947
Si Si3 0.102602 0.500000 0.794228
Si Si4 0.151822 0.705900 0.038179
Si Si5 0.901094 0.184730 0.851463
Si Si6 0.652257 0.706252 0.632490
O O1 0.500000 0.500000 0.202124
O O2 0.633218 0.500000 0.245074
O O3 0.619207 0.329339 0.169710
O O4 0.250000 0.250000 0.943740
O O5 0.386948 0.280686 0.901972
O O6 0.357698 0.000000 0.943224
O O7 0.380970 0.267955 0.991748
O O8 0.131169 0.664706 0.821274
O O9 0.000000 0.500000 0.794468
O O10 0.144906 0.500000 0.037768
O O11 0.250000 0.750000 0.038126
O O12 0.117542 0.758730 0.084931
O O13 0.000000 0.179715 0.844793
O O14 0.864592 0.000000 0.840255
O O15 0.640660 0.500000 0.638770
O O16 0.750000 0.750000 0.630631
#
# Coordination Sequence:
#
# PCOD9368272 Si02
#       6
#     8  16   8  16  16  16
#     4  11  24  40  62  91 117 151 197 246 301 349
#     4  10  18  31  52  80 117 147 183 229 277 323
#     4   9  20  40  60  77 106 145 189 234 280 341
#     4   8  16  28  49  81 109 149 189 225 268 334
#     4  10  20  36  58  80 105 144 190 230 275 335
#     4  10  19  37  63  87 119 155 198 241 289 348
#
# _framework density 20.578277
#
# number of rings (size 3 to 8) (size 9 to 14) (size 15 to 20)
#    0.000    2.400    2.000    0.600    1.400    2.000 
#    0.000    4.000    0.000    3.600    0.000    0.000 
#    0.000    0.000    0.000    0.000    0.000    0.000 
#
# Total GULP energy -111480.802256 kJ/mol
# GULP energy per Si atom -5574.040113 kJ/mol
# Density = 2.053144 g / cm^3
# Si number density = 20.578277 Si / 1000 Ang^3
#
#
#
# Elastic Constant Matrix: (Units=GPa)
#
#
# Indices 1 2 3 4 5 6 
#
# 1 5.4087 5.4474 6.5581 0.0000 0.0000 0.0000
# 2 5.4474 145.4026 98.2929 0.0000 0.0000 0.0000
# 3 6.5581 98.2929 204.7823 0.0000 0.0000 0.0000
# 4 0.0000 0.0000 0.0000 16.7568 0.0000 0.0000
# 5 0.0000 0.0000 0.0000 0.0000 32.2932 0.0000
# 6 0.0000 0.0000 0.0000 0.0000 0.0000 15.1889
#
#
#
# Elastic Compliance Matrix: (Units=1/GPa)
#
#
# Indices 1 2 3 4 5 6 
#
# 1 0.194370 -0.004551 -0.004040 0.000000 0.000000 0.000000
# 2 -0.004551 0.010287 -0.004792 0.000000 0.000000 0.000000
# 3 -0.004040 -0.004792 0.007313 0.000000 0.000000 0.000000
# 4 0.000000 0.000000 0.000000 0.059677 0.000000 0.000000
# 5 0.000000 0.000000 0.000000 0.000000 0.030966 0.000000
# 6 0.000000 0.000000 0.000000 0.000000 0.000000 0.065838
#
#
# Mechanical properties :
#
#
# Convention : Reuss Voigt Hill
#
# Bulk Modulus (GPa) = 5.39947 64.02117 34.71032
# Shear Modulus (GPa) = 10.94207 29.20077 20.07142
#
# Velocity S-wave (km/s) = 2.30843 3.77106 3.12648
# Velocity P-wave (km/s) = 3.12004 7.08095 5.47149
#
# Compressibility (1/GPa) = 0.18520342
#
# Stress axis : x y z
#
# Youngs Moduli (GPa) = 5.14484 97.20610 136.74698
#
# Poissons Ratio (x) = 0.44234 0.55252
# Poissons Ratio (y) = 0.02341 0.65530
# Poissons Ratio (z) = 0.02079 0.46582
#
# Static dielectric constant tensor:
#      x y z
#    x 1.711220 0.000000 0.000000 
#    y 0.000000 1.700240 0.000000 
#    z 0.000000 0.000000 1.772710 
# 
# From -- ./inp_files/27825.got.cif
#   From: 2010.05.17/outbox.cif.g08.bks.cpg/sg42_14_cif.got.tgz:27825.got - 2010.06.03 19:03:34.
