data_PCOD9368933
_publ_section_title
;
Structure prediction by ZEFSAII (Michael W. Deem and Ramdas Pophale) SiO2 
 PCOD9368933
Probable space group: F M M 2
;
_chemical_formula_sum "Si O2"
_cell_formula_units_Z 80
_cell_length_a 18.506479
_cell_length_b 14.542129
_cell_length_c 15.501930
_cell_angle_alpha 90.000000
_cell_angle_beta 90.000000
_cell_angle_gamma 90.000000
_cell_volume 4171.935285
_symmetry_space_group_name_H-M "F M M 2"
_symmetry_group_IT_number 42
_symmetry_cell_setting 'orthorhombic'
loop_
_space_group_symop_operation_xyz
x,y,z
-x,-y,z
-x,y,z
x,-y,z
x,1/2+y,1/2+z
-x,1/2-y,1/2+z
-x,1/2+y,1/2+z
x,1/2-y,1/2+z
1/2+x,y,1/2+z
1/2-x,-y,1/2+z
1/2-x,y,1/2+z
1/2+x,-y,1/2+z
1/2+x,1/2+y,z
1/2-x,1/2-y,z
1/2-x,1/2+y,z
1/2+x,1/2-y,z
loop_
_atom_site_type_symbol
_atom_site_label
_atom_site_fract_x
_atom_site_fract_y
_atom_site_fract_z
Si Si1 0.236113 0.606235 0.076600
Si Si2 0.182537 0.105383 0.245064
Si Si3 0.582809 0.275864 0.792137
Si Si4 0.289414 0.347610 0.894111
Si Si5 0.920635 0.388670 0.113681
O O1 0.228136 0.500000 0.101245
O O2 0.279996 0.644658 0.157967
O O3 0.153330 0.639919 0.065120
O O4 0.279504 0.611012 0.988164
O O5 0.121894 0.178459 0.273203
O O6 0.244310 0.102997 0.318629
O O7 0.156085 0.000000 0.232752
O O8 0.500000 0.262239 0.817139
O O9 0.629793 0.329608 0.862899
O O10 0.584518 0.338251 0.705747
O O11 0.250000 0.250000 0.900449
O O12 0.920838 0.500000 0.123040
O O13 0.000000 0.364432 0.075675
#
# Coordination Sequence:
#
# PCOD9368933 Si02
#       5
#    16  16  16  16  16
#     4  10  20  34  58  86 116 155 198 244 298 355
#     4  10  21  38  59  85 118 158 203 246 292 354
#     4  10  21  38  59  86 119 157 196 243 301 352
#     4  10  21  34  57  85 116 154 198 245 291 350
#     4   9  18  33  56  87 119 151 191 243 301 355
#
# _framework density 19.175753
#
# number of rings (size 3 to 8) (size 9 to 14) (size 15 to 20)
#    0.000    2.200    2.000    0.600    2.800    1.200 
#    0.000    5.000    0.000    6.000    0.000    0.000 
#    0.000    0.000    0.000    0.000    0.000    0.000 
#
# Total GULP energy -111441.796720 kJ/mol
# GULP energy per Si atom -5572.089836 kJ/mol
# Density = 1.913211 g / cm^3
# Si number density = 19.175753 Si / 1000 Ang^3
#
#
#
# Elastic Constant Matrix: (Units=GPa)
#
#
# Indices 1 2 3 4 5 6 
#
# 1 175.3522 18.6653 50.8802 0.0000 0.0000 0.0000
# 2 18.6653 40.5119 -7.7737 0.0000 0.0000 0.0000
# 3 50.8802 -7.7737 85.7711 0.0000 0.0000 0.0000
# 4 0.0000 0.0000 0.0000 18.0922 0.0000 0.0000
# 5 0.0000 0.0000 0.0000 0.0000 24.8538 0.0000
# 6 0.0000 0.0000 0.0000 0.0000 0.0000 14.7213
#
#
#
# Elastic Compliance Matrix: (Units=1/GPa)
#
#
# Indices 1 2 3 4 5 6 
#
# 1 0.007601 -0.004445 -0.004912 0.000000 0.000000 0.000000
# 2 -0.004445 0.027720 0.005149 0.000000 0.000000 0.000000
# 3 -0.004912 0.005149 0.015039 0.000000 0.000000 0.000000
# 4 0.000000 0.000000 0.000000 0.055273 0.000000 0.000000
# 5 0.000000 0.000000 0.000000 0.000000 0.040235 0.000000
# 6 0.000000 0.000000 0.000000 0.000000 0.000000 0.067929
#
#
# Mechanical properties :
#
#
# Convention : Reuss Voigt Hill
#
# Bulk Modulus (GPa) = 23.84058 47.24209 35.54133
# Shear Modulus (GPa) = 21.16903 27.52434 24.34668
#
# Velocity S-wave (km/s) = 3.32618 3.79274 3.56709
# Velocity P-wave (km/s) = 5.21641 6.62342 5.96157
#
# Compressibility (1/GPa) = 0.04194529
#
# Stress axis : x y z
#
# Youngs Moduli (GPa) = 131.55883 36.07509 66.49201
#
# Poissons Ratio (x) = 0.16034 0.32660
# Poissons Ratio (y) = 0.58473 -0.34236
# Poissons Ratio (z) = 0.64621 -0.18575
#
# Static dielectric constant tensor:
#      x y z
#    x 1.690730 0.000000 0.000000 
#    y 0.000000 1.687850 0.000000 
#    z 0.000000 0.000000 1.680690 
# 
# From -- ./inp_files/13813.got.cif
#   From: 2010.05.17/outbox.cif.g08.bks.cpg/sg42_7_cif.got.tgz:13813.got - 2010.06.03 19:03:34.
