data_PCOD9368398
_publ_section_title
;
Structure prediction by ZEFSAII (Michael W. Deem and Ramdas Pophale) SiO2 
 PCOD9368398
Probable space group: F M M 2
;
_chemical_formula_sum "Si O2"
_cell_formula_units_Z 96
_cell_length_a 27.486296
_cell_length_b 8.734674
_cell_length_c 23.534175
_cell_angle_alpha 90.000000
_cell_angle_beta 90.000000
_cell_angle_gamma 90.000000
_cell_volume 5650.174988
_symmetry_space_group_name_H-M "F M M 2"
_symmetry_group_IT_number 42
_symmetry_cell_setting 'orthorhombic'
loop_
_space_group_symop_operation_xyz
x,y,z
-x,-y,z
-x,y,z
x,-y,z
x,1/2+y,1/2+z
-x,1/2-y,1/2+z
-x,1/2+y,1/2+z
x,1/2-y,1/2+z
1/2+x,y,1/2+z
1/2-x,-y,1/2+z
1/2-x,y,1/2+z
1/2+x,-y,1/2+z
1/2+x,1/2+y,z
1/2-x,1/2-y,z
1/2-x,1/2+y,z
1/2+x,1/2-y,z
loop_
_atom_site_type_symbol
_atom_site_label
_atom_site_fract_x
_atom_site_fract_y
_atom_site_fract_z
Si Si1 0.302170 0.317283 0.810900
Si Si2 0.697793 0.684934 0.184219
Si Si3 0.132525 0.680237 0.582622
Si Si4 0.876230 0.673237 0.896739
Si Si5 0.556083 0.685177 0.495173
Si Si6 0.201963 0.828380 0.496676
O O1 0.298030 0.500000 0.809423
O O2 0.250000 0.250000 0.832126
O O3 0.308216 0.249875 0.747574
O O4 0.348751 0.267705 0.848245
O O5 0.700760 0.500000 0.185197
O O6 0.750000 0.750000 0.162989
O O7 0.651879 0.729404 0.144612
O O8 0.122900 0.500000 0.583951
O O9 0.088236 0.759290 0.548754
O O10 0.178959 0.719728 0.543821
O O11 0.887502 0.500000 0.876270
O O12 0.921294 0.737071 0.934217
O O13 0.835988 0.660984 0.946026
O O14 0.500000 0.730626 0.500724
O O15 0.559254 0.500000 0.494125
O O16 0.250000 0.750000 0.474725
O O17 0.210252 0.000000 0.519066
#
# Coordination Sequence:
#
# PCOD9368398 Si02
#       6
#    16  16  16  16  16  16
#     4  11  21  32  49  72 100 135 171 204 241 285
#     4  10  20  33  49  71 101 136 171 203 239 285
#     4  10  20  32  49  73  99 129 164 203 246 293
#     4   9  18  32  49  70  97 127 161 200 242 292
#     4   9  19  36  57  78  99 127 162 203 255 306
#     4  10  19  29  44  67  97 131 162 197 241 291
#
# _framework density 16.990622999999999
#
# number of rings (size 3 to 8) (size 9 to 14) (size 15 to 20)
#    0.000    2.167    0.000    6.000    0.000    9.000 
#    0.000    0.000    0.000    1.000    0.000    2.333 
#    0.000    0.000    0.000    0.000    0.000    0.000 
#
# Total GULP energy -133673.843841 kJ/mol
# GULP energy per Si atom -5569.743493 kJ/mol
# Density = 1.695195 g / cm^3
# Si number density = 16.990623 Si / 1000 Ang^3
#
#
#
# Elastic Constant Matrix: (Units=GPa)
#
#
# Indices 1 2 3 4 5 6 
#
# 1 99.7889 35.7323 51.7800 0.0000 0.0000 0.0000
# 2 35.7323 45.3239 23.7942 0.0000 0.0000 0.0001
# 3 51.7800 23.7942 82.3224 0.0000 0.0000 0.0000
# 4 0.0000 0.0000 0.0000 23.5692 0.0000 0.0000
# 5 0.0000 0.0000 0.0000 0.0000 22.4483 0.0000
# 6 0.0000 0.0001 0.0000 0.0000 0.0000 18.2724
#
#
#
# Elastic Compliance Matrix: (Units=1/GPa)
#
#
# Indices 1 2 3 4 5 6 
#
# 1 0.017856 -0.009645 -0.008444 0.000000 0.000000 0.000000
# 2 -0.009645 0.031219 -0.002957 0.000000 0.000000 0.000000
# 3 -0.008444 -0.002957 0.018313 0.000000 0.000000 0.000000
# 4 0.000000 0.000000 0.000000 0.042428 0.000000 0.000000
# 5 0.000000 0.000000 0.000000 0.000000 0.044547 0.000000
# 6 0.000000 0.000000 0.000000 0.000000 0.000000 0.054727
#
#
# Mechanical properties :
#
#
# Convention : Reuss Voigt Hill
#
# Bulk Modulus (GPa) = 39.52928 50.00536 44.76732
# Shear Modulus (GPa) = 19.25933 20.59989 19.92961
#
# Velocity S-wave (km/s) = 3.37044 3.48577 3.42859
# Velocity P-wave (km/s) = 6.20180 6.75987 6.48684
#
# Compressibility (1/GPa) = 0.02529770
#
# Stress axis : x y z
#
# Youngs Moduli (GPa) = 56.00349 32.03131 54.60574
#
# Poissons Ratio (x) = 0.30893 0.46107
# Poissons Ratio (y) = 0.54013 0.16148
# Poissons Ratio (z) = 0.47287 0.09472
#
# Static dielectric constant tensor:
#      x y z
#    x 1.638320 0.000000 0.000000 
#    y 0.000000 1.593230 0.000000 
#    z 0.000000 0.000000 1.593750 
# 
# From -- ./inp_files/23740.got.cif
#   From: 2010.05.17/outbox.cif.g08.bks.cpg/sg42_12_cif.got.tgz:23740.got - 2010.06.03 19:03:34.
