data_PCOD9368137
_publ_section_title
;
Structure prediction by ZEFSAII (Michael W. Deem and Ramdas Pophale) SiO2 
 PCOD9368137
Probable space group: F M M 2
;
_chemical_formula_sum "Si O2"
_cell_formula_units_Z 96
_cell_length_a 32.680523
_cell_length_b 8.496513
_cell_length_c 19.642154
_cell_angle_alpha 90.000000
_cell_angle_beta 90.000000
_cell_angle_gamma 90.000000
_cell_volume 5454.046497
_symmetry_space_group_name_H-M "F M M 2"
_symmetry_group_IT_number 42
_symmetry_cell_setting 'orthorhombic'
loop_
_space_group_symop_operation_xyz
x,y,z
-x,-y,z
-x,y,z
x,-y,z
x,1/2+y,1/2+z
-x,1/2-y,1/2+z
-x,1/2+y,1/2+z
x,1/2-y,1/2+z
1/2+x,y,1/2+z
1/2-x,-y,1/2+z
1/2-x,y,1/2+z
1/2+x,-y,1/2+z
1/2+x,1/2+y,z
1/2-x,1/2-y,z
1/2-x,1/2+y,z
1/2+x,1/2-y,z
loop_
_atom_site_type_symbol
_atom_site_label
_atom_site_fract_x
_atom_site_fract_y
_atom_site_fract_z
Si Si1 0.954251 0.691862 0.087910
Si Si2 0.046497 0.309902 0.245986
Si Si3 0.618753 0.808085 0.992550
Si Si4 0.207917 0.812321 0.492076
Si Si5 0.121319 0.811923 0.334479
Si Si6 0.707721 0.187081 0.336575
O O1 0.953960 0.500000 0.086010
O O2 0.947776 0.735307 0.166738
O O3 0.000000 0.742226 0.067320
O O4 0.918535 0.748913 0.038524
O O5 0.048696 0.500000 0.249755
O O6 0.082019 0.238286 0.291638
O O7 0.000000 0.263867 0.265921
O O8 0.663699 0.760698 0.019864
O O9 0.615500 0.760125 0.913423
O O10 0.617841 0.000000 0.993083
O O11 0.250000 0.750000 0.523599
O O12 0.207277 0.757154 0.413305
O O13 0.209537 0.000000 0.492778
O O14 0.163997 0.740021 0.307069
O O15 0.125608 0.000000 0.334495
O O16 0.750000 0.250000 0.304195
O O17 0.709677 0.000000 0.340076
#
# Coordination Sequence:
#
# PCOD9368137 Si02
#       6
#    16  16  16  16  16  16
#     4   8  14  27  47  67  87 115 153 192 229 275
#     4   9  18  32  49  68  90 120 158 196 236 283
#     4   8  15  26  42  67  93 115 147 192 232 266
#     4   9  15  24  39  62  92 122 152 186 225 272
#     4  10  19  30  46  71  99 124 154 192 234 279
#     4  10  17  27  44  66  94 125 156 190 229 274
#
# _framework density 17.601610000000001
#
# number of rings (size 3 to 8) (size 9 to 14) (size 15 to 20)
#    0.000    3.000    0.000    5.500    0.000    1.000 
#    0.000    1.667    0.000    7.000    0.000    2.333 
#    0.000    0.000    0.000    0.000    0.000    0.000 
#
# Total GULP energy -133616.622359 kJ/mol
# GULP energy per Si atom -5567.359265 kJ/mol
# Density = 1.756155 g / cm^3
# Si number density = 17.601610 Si / 1000 Ang^3
#
#
#
# Elastic Constant Matrix: (Units=GPa)
#
#
# Indices 1 2 3 4 5 6 
#
# 1 216.5188 36.9820 72.0603 0.0000 0.0000 -0.0001
# 2 36.9820 37.8463 12.1460 0.0001 -0.0001 -0.0001
# 3 72.0603 12.1460 39.8618 0.0000 0.0000 0.0000
# 4 0.0000 0.0001 0.0000 7.8370 0.0000 0.0000
# 5 0.0000 -0.0001 0.0000 0.0000 -9.2256 0.0000
# 6 -0.0001 -0.0001 0.0000 0.0000 0.0000 46.3116
#
#
#
# Elastic Compliance Matrix: (Units=1/GPa)
#
#
# Indices 1 2 3 4 5 6 
#
# 1 0.012556 -0.005525 -0.021015 0.000000 0.000000 0.000000
# 2 -0.005525 0.031718 0.000324 0.000000 0.000000 0.000000
# 3 -0.021015 0.000324 0.062979 0.000000 0.000000 0.000000
# 4 0.000000 0.000000 0.000000 0.127601 -0.000001 0.000000
# 5 0.000000 0.000000 0.000000 -0.000001 -0.108394 0.000000
# 6 0.000000 0.000000 0.000000 0.000000 0.000000 0.021593
#
#
# Mechanical properties :
#
#
# Convention : Reuss Voigt Hill
#
# Bulk Modulus (GPa) = 18.24179 59.62262 38.93221
# Shear Modulus (GPa) = 22.85611 20.52048 21.68829
#
# Velocity S-wave (km/s) = 3.60741 3.41813 3.51405
# Velocity P-wave (km/s) = 5.26663 7.03741 6.21540
#
# Compressibility (1/GPa) = 0.05481917
#
# Stress axis : x y z
#
# Youngs Moduli (GPa) = 79.64018 31.52799 15.87838
#
# Poissons Ratio (x) = 0.17420 0.33369
# Poissons Ratio (y) = 0.44003 -0.00514
# Poissons Ratio (z) = 1.67367 -0.01021
#
# Static dielectric constant tensor:
#      x y z
#    x 1.653620 0.000000 0.000000 
#    y 0.000000 1.599810 0.000000 
#    z 0.000000 0.000000 1.574880 
# 
# From -- ./inp_files/28180.got.cif
#   From: 2010.05.17/outbox.cif.g08.bks.cpg/sg42_15_cif.got.tgz:28180.got - 2010.06.03 19:03:34.
