data_PCOD9368635
_publ_section_title
;
Structure prediction by ZEFSAII (Michael W. Deem and Ramdas Pophale) SiO2 
 PCOD9368635
Probable space group: F M M 2
;
_chemical_formula_sum "Si O2"
_cell_formula_units_Z 80
_cell_length_a 27.579216
_cell_length_b 14.485445
_cell_length_c 8.844247
_cell_angle_alpha 90.000000
_cell_angle_beta 90.000000
_cell_angle_gamma 90.000000
_cell_volume 3533.252059
_symmetry_space_group_name_H-M "F M M 2"
_symmetry_group_IT_number 42
_symmetry_cell_setting 'orthorhombic'
loop_
_space_group_symop_operation_xyz
x,y,z
-x,-y,z
-x,y,z
x,-y,z
x,1/2+y,1/2+z
-x,1/2-y,1/2+z
-x,1/2+y,1/2+z
x,1/2-y,1/2+z
1/2+x,y,1/2+z
1/2-x,-y,1/2+z
1/2-x,y,1/2+z
1/2+x,-y,1/2+z
1/2+x,1/2+y,z
1/2-x,1/2-y,z
1/2-x,1/2+y,z
1/2+x,1/2-y,z
loop_
_atom_site_type_symbol
_atom_site_label
_atom_site_fract_x
_atom_site_fract_y
_atom_site_fract_z
Si Si1 0.887223 0.330472 0.851880
Si Si2 0.945738 0.719626 0.581371
Si Si3 0.705490 0.386878 0.178698
Si Si4 0.905354 0.399567 0.162532
Si Si5 0.693417 0.888405 0.330385
O O1 0.921970 0.345420 0.707302
O O2 0.833431 0.336813 0.786081
O O3 0.908604 0.241983 0.945492
O O4 0.892074 0.404231 0.984933
O O5 0.945573 0.820568 0.662275
O O6 0.000000 0.694225 0.536885
O O7 0.699606 0.500000 0.189782
O O8 0.759246 0.362625 0.234772
O O9 0.697105 0.358151 0.004669
O O10 0.919519 0.500000 0.221238
O O11 0.856056 0.366378 0.242931
O O12 0.694016 0.000000 0.336935
#
# Coordination Sequence:
#
# PCOD9368635 Si02
#       5
#    16  16  16  16  16
#     4  10  22  36  63  84 121 159 207 249 304 372
#     4  10  23  41  61  84 116 161 203 254 317 366
#     4  10  19  34  61  93 125 165 206 248 298 363
#     4   9  20  38  63  92 121 157 206 254 296 358
#     4   9  18  33  58  91 129 164 199 245 305 365
#
# _framework density 22.642029000000001
#
# number of rings (size 3 to 8) (size 9 to 14) (size 15 to 20)
#    1.200    1.200    0.000    2.400    2.800    3.600 
#    0.000    1.000    4.400    0.000    0.000    0.000 
#    0.000    0.000    0.000    0.000    0.000    0.000 
#
# Total GULP energy -111422.164010 kJ/mol
# GULP energy per Si atom -5571.108200 kJ/mol
# Density = 2.259049 g / cm^3
# Si number density = 22.642029 Si / 1000 Ang^3
#
#
#
# Elastic Constant Matrix: (Units=GPa)
#
#
# Indices 1 2 3 4 5 6 
#
# 1 132.5268 17.1084 48.9557 0.0000 0.0000 0.0000
# 2 17.1084 40.6794 18.9191 0.0000 0.0000 0.0000
# 3 48.9557 18.9191 130.3106 0.0000 0.0000 0.0000
# 4 0.0000 0.0000 0.0000 22.1197 0.0000 0.0000
# 5 0.0000 0.0000 0.0000 0.0000 30.3241 0.0000
# 6 0.0000 0.0000 0.0000 0.0000 0.0000 20.3883
#
#
#
# Elastic Compliance Matrix: (Units=1/GPa)
#
#
# Indices 1 2 3 4 5 6 
#
# 1 0.008969 -0.002365 -0.003026 0.000000 0.000000 0.000000
# 2 -0.002365 0.026986 -0.003030 0.000000 0.000000 0.000000
# 3 -0.003026 -0.003030 0.009251 0.000000 0.000000 0.000000
# 4 0.000000 0.000000 0.000000 0.045209 0.000000 0.000000
# 5 0.000000 0.000000 0.000000 0.000000 0.032977 0.000000
# 6 0.000000 0.000000 0.000000 0.000000 0.000000 0.049048
#
#
# Mechanical properties :
#
#
# Convention : Reuss Voigt Hill
#
# Bulk Modulus (GPa) = 35.25503 52.60925 43.93214
# Shear Modulus (GPa) = 25.15921 29.13532 27.14727
#
# Velocity S-wave (km/s) = 3.33704 3.59106 3.46638
# Velocity P-wave (km/s) = 5.51835 6.36239 5.95534
#
# Compressibility (1/GPa) = 0.02836475
#
# Stress axis : x y z
#
# Youngs Moduli (GPa) = 111.49820 37.05634 108.09995
#
# Poissons Ratio (x) = 0.08762 0.32712
# Poissons Ratio (y) = 0.26365 0.32750
# Poissons Ratio (z) = 0.33741 0.11227
#
# Static dielectric constant tensor:
#      x y z
#    x 1.780440 0.000000 0.000000 
#    y 0.000000 1.968320 0.000000 
#    z 0.000000 0.000000 1.844600 
# 
# From -- ./inp_files/5100.got.cif
#   From: 2010.05.17/outbox.cif.g08.bks.cpg/sg42_3_cif.got.tgz:5100.got - 2010.06.03 19:03:34.
