data_PCOD9368050
_publ_section_title
;
Structure prediction by ZEFSAII (Michael W. Deem and Ramdas Pophale) SiO2 
 PCOD9368050
Probable space group: A B A 2
;
_chemical_formula_sum "Si O2"
_cell_formula_units_Z 24
_cell_length_a 15.000000
_cell_length_b 9.000000
_cell_length_c 18.000000
_cell_angle_alpha 90.000000
_cell_angle_beta 90.000000
_cell_angle_gamma 90.000000
_cell_volume 2430.000000
_symmetry_space_group_name_H-M "A B A 2"
_symmetry_group_IT_number 41
_symmetry_cell_setting 'orthorhombic'
loop_
_space_group_symop_operation_xyz
x,y,z
-x,-y,z
1/2-x,y,1/2+z
1/2+x,-y,1/2+z
x,1/2+y,1/2+z
-x,1/2-y,1/2+z
1/2-x,1/2+y,z
1/2+x,1/2-y,z
loop_
_atom_site_type_symbol
_atom_site_label
_atom_site_fract_x
_atom_site_fract_y
_atom_site_fract_z
Si Si1 0.948491 0.839130 0.445680
Si Si2 0.310038 0.115814 0.227103
Si Si3 0.385896 0.227929 0.532250
Si Si4 0.499621 0.819646 0.175322
Si Si5 0.790062 0.956376 0.552751
Si Si6 0.353890 0.800618 0.298654
O O1 0.873002 0.866361 0.511708
O O2 0.891470 0.763651 0.377816
O O3 0.035231 0.739815 0.470151
O O4 0.000000 0.000000 0.430804
O O5 0.399795 0.208269 0.204937
O O6 0.285550 0.059243 0.143122
O O7 0.232020 0.210911 0.266458
O O8 0.331388 0.976746 0.282879
O O9 0.449592 0.240360 0.606037
O O10 0.309929 0.097818 0.527467
O O11 0.321782 0.375104 0.534725
O O12 0.436347 0.780426 0.243370
O O13 0.500000 0.000000 0.159553
#
# Coordination Sequence:
#
# PCOD9368050 Si02
#       6
#     8   8   8   8   8   8
#     4  10  24  43  66  97 142 186 225 284 358 414
#     4  11  21  40  67  97 130 179 232 277 342 410
#     4  11  20  40  70  97 130 175 236 280 347 408
#     4  10  18  37  65  91 128 177 223 274 337 409
#     4  11  20  39  71  96 127 183 228 284 336 414
#     4  11  24  39  65 100 136 176 222 289 351 407
#
# _framework density 9.8765429999999999
#
# number of rings (size 3 to 8) (size 9 to 14) (size 15 to 20)
#    0.000    1.333    6.667    0.500    0.000    5.333 
#    0.000    4.167    0.000    0.000    0.000    0.000 
#    0.000    0.000    0.000    0.000    0.000    0.000 
#
# Total GULP energy -133648.838227 kJ/mol
# GULP energy per Si atom -5568.701593 kJ/mol
# Density = 0.985406 g / cm^3
# Si number density = 9.876543 Si / 1000 Ang^3
#
#
#
# Elastic Constant Matrix: (Units=GPa)
#
#
# Indices 1 2 3 4 5 6 
#
# 1 170.8618 34.3702 49.0344 0.0000 0.0000 0.0000
# 2 34.3702 42.4387 26.6189 0.0000 0.0000 0.0000
# 3 49.0344 26.6189 97.2521 0.0000 0.0000 0.0000
# 4 0.0000 0.0000 0.0000 27.8644 0.0000 0.0000
# 5 0.0000 0.0000 0.0000 0.0000 54.6089 0.0000
# 6 0.0000 0.0000 0.0000 0.0000 0.0000 48.7535
#
#
#
# Elastic Compliance Matrix: (Units=1/GPa)
#
#
# Indices 1 2 3 4 5 6 
#
# 1 0.007482 -0.004459 -0.002552 0.000000 0.000000 0.000000
# 2 -0.004459 0.031104 -0.006265 0.000000 0.000000 0.000000
# 3 -0.002552 -0.006265 0.013284 0.000000 0.000000 0.000000
# 4 0.000000 0.000000 0.000000 0.035888 0.000000 0.000000
# 5 0.000000 0.000000 0.000000 0.000000 0.018312 0.000000
# 6 0.000000 0.000000 0.000000 0.000000 0.000000 0.020511
#
#
# Mechanical properties :
#
#
# Convention : Reuss Voigt Hill
#
# Bulk Modulus (GPa) = 39.49755 58.95551 49.22653
# Shear Modulus (GPa) = 30.94559 39.61397 35.27978
#
# Velocity S-wave (km/s) = 3.96235 4.48309 4.23074
# Velocity P-wave (km/s) = 6.40099 7.53050 6.98860
#
# Compressibility (1/GPa) = 0.02531803
#
# Stress axis : x y z
#
# Youngs Moduli (GPa) = 133.65433 32.14978 75.27743
#
# Poissons Ratio (x) = 0.14335 0.19211
# Poissons Ratio (y) = 0.59594 0.47165
# Poissons Ratio (z) = 0.34108 0.20143
#
# Static dielectric constant tensor:
#      x y z
#    x 1.709440 0.000000 0.000000 
#    y 0.000000 1.743560 0.000000 
#    z 0.000000 0.000000 1.734570 
# 
# From -- ./inp_files/10313.got.cif
#   From: 2010.05.17/outbox.ucp.g08.bks.cvg/sg41_6_cif.got.tgz:10313.got - 2010.06.11 16:28:22.
