data_PCOD9368115
_publ_section_title
;
Structure prediction by ZEFSAII (Michael W. Deem and Ramdas Pophale) SiO2 
 PCOD9368115
Probable space group: F M M 2
;
_chemical_formula_sum "Si O2"
_cell_formula_units_Z 64
_cell_length_a 14.309092
_cell_length_b 5.399760
_cell_length_c 38.034867
_cell_angle_alpha 90.000000
_cell_angle_beta 90.000000
_cell_angle_gamma 90.000000
_cell_volume 2938.789201
_symmetry_space_group_name_H-M "F M M 2"
_symmetry_group_IT_number 42
_symmetry_cell_setting 'orthorhombic'
loop_
_space_group_symop_operation_xyz
x,y,z
-x,-y,z
-x,y,z
x,-y,z
x,1/2+y,1/2+z
-x,1/2-y,1/2+z
-x,1/2+y,1/2+z
x,1/2-y,1/2+z
1/2+x,y,1/2+z
1/2-x,-y,1/2+z
1/2-x,y,1/2+z
1/2+x,-y,1/2+z
1/2+x,1/2+y,z
1/2-x,1/2-y,z
1/2-x,1/2+y,z
1/2+x,1/2-y,z
loop_
_atom_site_type_symbol
_atom_site_label
_atom_site_fract_x
_atom_site_fract_y
_atom_site_fract_z
Si Si1 0.885381 0.500000 0.563038
Si Si2 0.389585 0.000000 0.024778
Si Si3 0.613446 0.000000 0.643544
Si Si4 0.188310 0.000000 0.448144
Si Si5 0.187157 0.000000 0.370838
Si Si6 0.848414 0.500000 0.264820
Si Si7 0.863444 0.000000 0.294259
Si Si8 0.886281 0.000000 0.684967
O O1 0.855077 0.747674 0.542792
O O2 0.852969 0.500000 0.603358
O O3 0.000000 0.500000 0.563453
O O4 0.371941 0.000000 0.983247
O O5 0.500000 0.000000 0.030758
O O6 0.638929 0.251505 0.663784
O O7 0.500000 0.000000 0.642101
O O8 0.250000 0.250000 0.449326
O O9 0.141105 0.000000 0.409504
O O10 0.250000 0.250000 0.368740
O O11 0.124944 0.000000 0.336030
O O12 0.897879 0.749457 0.276897
O O13 0.747917 0.500000 0.284458
O O14 0.838944 0.500000 0.223031
O O15 0.000000 0.000000 0.689908
#
# Coordination Sequence:
#
# PCOD9368115 Si02
#       8
#     8   8   8   8   8   8   8   8
#     4   9  17  30  52  77 100 129 170 217 254 295
#     4  10  19  33  53  81 108 133 170 221 264 301
#     4   9  17  30  47  71  97 125 168 207 240 287
#     4  10  21  33  53  81 105 139 172 214 253 316
#     4  10  16  30  49  74  96 116 163 211 248 272
#     4  10  18  28  47  70  92 120 154 202 252 274
#     4  10  17  30  48  72  87 119 162 210 231 273
#     4  10  19  30  45  70 102 129 156 200 254 302
#
# _framework density 21.777674000000001
#
# number of rings (size 3 to 8) (size 9 to 14) (size 15 to 20)
#    0.000    2.250    2.500    2.250    0.000    3.000 
#    0.000    0.000    0.000    1.500   65.000    0.000 
#    0.000    0.000    0.000    0.000    0.000    0.000 
#
# Total GULP energy -89367.713444 kJ/mol
# GULP energy per Si atom -5585.482090 kJ/mol
# Density = 2.172811 g / cm^3
# Si number density = 21.777674 Si / 1000 Ang^3
#
#
#
# Elastic Constant Matrix: (Units=GPa)
#
#
# Indices 1 2 3 4 5 6 
#
# 1 68.7328 7.7697 5.7663 0.0000 0.0000 0.0000
# 2 7.7697 240.0056 96.2780 0.0000 0.0000 0.0000
# 3 5.7663 96.2780 219.0238 0.0000 0.0000 0.0000
# 4 0.0000 0.0000 0.0000 44.3066 0.0000 0.0000
# 5 0.0000 0.0000 0.0000 0.0000 603.9651 0.0000
# 6 0.0000 0.0000 0.0000 0.0000 0.0000 -22.2807
#
#
#
# Elastic Compliance Matrix: (Units=1/GPa)
#
#
# Indices 1 2 3 4 5 6 
#
# 1 0.014611 -0.000387 -0.000215 0.000000 0.000000 0.000000
# 2 -0.000387 0.005069 -0.002218 0.000000 0.000000 0.000000
# 3 -0.000215 -0.002218 0.005546 0.000000 0.000000 0.000000
# 4 0.000000 0.000000 0.000000 0.022570 0.000000 0.000000
# 5 0.000000 0.000000 0.000000 0.000000 0.001656 0.000000
# 6 0.000000 0.000000 0.000000 0.000000 0.000000 -0.044882
#
#
# Mechanical properties :
#
#
# Convention : Reuss Voigt Hill
#
# Bulk Modulus (GPa) = 51.05406 83.04334 67.04870
# Shear Modulus (GPa) = 298.72632 153.06141 225.89387
#
# Velocity S-wave (km/s) = 11.72470 8.39263 10.19571
# Velocity P-wave (km/s) = 14.38005 11.49478 13.01760
#
# Compressibility (1/GPa) = 0.01958708
#
# Stress axis : x y z
#
# Youngs Moduli (GPa) = 68.44233 197.28431 180.29945
#
# Poissons Ratio (x) = 0.07633 0.03869
# Poissons Ratio (y) = 0.02648 0.39990
# Poissons Ratio (z) = 0.01469 0.43757
#
# Static dielectric constant tensor:
#      x y z
#    x 1.547870 0.000000 0.000000 
#    y 0.000000 1.770950 0.000000 
#    z 0.000000 0.000000 1.751290 
# 
# From -- ./inp_files/34406.got.cif
#   From: 2010.05.17/outbox.cif.g08.bks.cpg/sg42_18_cif.got.tgz:34406.got - 2010.06.03 19:03:34.
