data_PCOD9368596
_publ_section_title
;
Structure prediction by ZEFSAII (Michael W. Deem and Ramdas Pophale) SiO2 
 PCOD9368596
Probable space group: F M M 2
;
_chemical_formula_sum "Si O2"
_cell_formula_units_Z 96
_cell_length_a 24.230649
_cell_length_b 8.536053
_cell_length_c 25.958088
_cell_angle_alpha 90.000000
_cell_angle_beta 90.000000
_cell_angle_gamma 90.000000
_cell_volume 5369.017875
_symmetry_space_group_name_H-M "F M M 2"
_symmetry_group_IT_number 42
_symmetry_cell_setting 'orthorhombic'
loop_
_space_group_symop_operation_xyz
x,y,z
-x,-y,z
-x,y,z
x,-y,z
x,1/2+y,1/2+z
-x,1/2-y,1/2+z
-x,1/2+y,1/2+z
x,1/2-y,1/2+z
1/2+x,y,1/2+z
1/2-x,-y,1/2+z
1/2-x,y,1/2+z
1/2+x,-y,1/2+z
1/2+x,1/2+y,z
1/2-x,1/2-y,z
1/2-x,1/2+y,z
1/2+x,1/2-y,z
loop_
_atom_site_type_symbol
_atom_site_label
_atom_site_fract_x
_atom_site_fract_y
_atom_site_fract_z
Si Si1 0.311156 0.686965 0.468440
Si Si2 0.500000 0.808792 0.719460
Si Si3 0.381780 0.309358 0.179775
Si Si4 0.500000 0.311644 0.340036
Si Si5 0.687875 0.188501 0.780181
Si Si6 0.310974 0.188764 0.582917
Si Si7 0.616768 0.313196 0.875915
O O1 0.309517 0.500000 0.468108
O O2 0.250000 0.750000 0.454585
O O3 0.323386 0.747131 0.526059
O O4 0.355279 0.748354 0.427625
O O5 0.443901 0.756000 0.691784
O O6 0.500000 0.762778 0.779634
O O7 0.500000 0.000000 0.719010
O O8 0.382846 0.500000 0.179198
O O9 0.342715 0.263634 0.227429
O O10 0.354788 0.259748 0.126001
O O11 0.500000 0.500000 0.341116
O O12 0.444836 0.249298 0.366722
O O13 0.750000 0.250000 0.781084
O O14 0.653665 0.254190 0.828157
O O15 0.687711 0.000000 0.783011
O O16 0.250000 0.250000 0.597265
O O17 0.309476 0.000000 0.581010
O O18 0.616654 0.500000 0.877175
#
# Coordination Sequence:
#
# PCOD9368596 Si02
#       7
#    16   8  16   8  16  16  16
#     4  11  22  39  61  85 114 152 194 240 296 350
#     4   9  16  33  58  83 110 149 192 232 277 335
#     4   9  18  32  55  83 113 149 192 234 283 345
#     4  11  21  39  64  85 114 155 196 236 285 343
#     4  11  21  35  54  83 116 152 190 235 291 347
#     4  10  19  34  56  84 115 149 190 236 288 345
#     4  12  24  39  58  85 117 150 193 240 286 343
#
# _framework density 17.880365000000001
#
# number of rings (size 3 to 8) (size 9 to 14) (size 15 to 20)
#    0.000    1.500    1.667    6.250    0.000    0.000 
#    0.000    3.333    0.000    2.000    0.000    0.000 
#    0.000    0.000    0.000    0.000    0.000    0.000 
#
# Total GULP energy -134115.456402 kJ/mol
# GULP energy per Si atom -5588.144017 kJ/mol
# Density = 1.783967 g / cm^3
# Si number density = 17.880365 Si / 1000 Ang^3
#
#
#
# Elastic Constant Matrix: (Units=GPa)
#
#
# Indices 1 2 3 4 5 6 
#
# 1 198.6727 53.8228 118.1914 0.0000 0.0000 0.0000
# 2 53.8228 101.7916 47.4377 0.0000 -0.0001 0.0000
# 3 118.1914 47.4377 136.6207 0.0000 0.0000 0.0000
# 4 0.0000 0.0000 0.0000 17.7375 0.0000 0.0000
# 5 0.0000 -0.0001 0.0000 0.0000 1.3907 0.0001
# 6 0.0000 0.0000 0.0000 0.0000 0.0001 24.2141
#
#
#
# Elastic Compliance Matrix: (Units=1/GPa)
#
#
# Indices 1 2 3 4 5 6 
#
# 1 0.010581 -0.001585 -0.008603 0.000000 0.000000 0.000000
# 2 -0.001585 0.011958 -0.002781 0.000000 0.000001 0.000000
# 3 -0.008603 -0.002781 0.015728 0.000000 0.000000 0.000000
# 4 0.000000 0.000000 0.000000 0.056378 0.000000 0.000000
# 5 0.000000 0.000001 0.000000 0.000000 0.719037 -0.000002
# 6 0.000000 0.000000 0.000000 0.000000 -0.000002 0.041298
#
#
# Mechanical properties :
#
#
# Convention : Reuss Voigt Hill
#
# Bulk Modulus (GPa) = 81.11323 97.33207 89.22265
# Shear Modulus (GPa) = 5.64954 23.17735 14.41344
#
# Velocity S-wave (km/s) = 1.77946 3.60425 2.84228
# Velocity P-wave (km/s) = 7.04875 8.47786 7.79612
#
# Compressibility (1/GPa) = 0.01232845
#
# Stress axis : x y z
#
# Youngs Moduli (GPa) = 94.50903 83.62521 63.58222
#
# Poissons Ratio (x) = 0.13258 0.54701
# Poissons Ratio (y) = 0.14984 0.17679
# Poissons Ratio (z) = 0.81308 0.23252
#
# Static dielectric constant tensor:
#      x y z
#    x 1.588240 0.000000 0.000000 
#    y 0.000000 1.604320 0.000000 
#    z 0.000000 0.000000 1.593370 
# 
# From -- ./inp_files/30441.got.cif
#   From: 2010.05.17/outbox.cif.g08.bks.cpg/sg42_16_cif.got.tgz:30441.got - 2010.06.03 19:03:34.
