data_PCOD9368585
_publ_section_title
;
Structure prediction by ZEFSAII (Michael W. Deem and Ramdas Pophale) SiO2 
 PCOD9368585
Probable space group: F M M 2
;
_chemical_formula_sum "Si O2"
_cell_formula_units_Z 112
_cell_length_a 13.897030
_cell_length_b 15.636133
_cell_length_c 23.196929
_cell_angle_alpha 90.000000
_cell_angle_beta 90.000000
_cell_angle_gamma 90.000000
_cell_volume 5040.595462
_symmetry_space_group_name_H-M "F M M 2"
_symmetry_group_IT_number 42
_symmetry_cell_setting 'orthorhombic'
loop_
_space_group_symop_operation_xyz
x,y,z
-x,-y,z
-x,y,z
x,-y,z
x,1/2+y,1/2+z
-x,1/2-y,1/2+z
-x,1/2+y,1/2+z
x,1/2-y,1/2+z
1/2+x,y,1/2+z
1/2-x,-y,1/2+z
1/2-x,y,1/2+z
1/2+x,-y,1/2+z
1/2+x,1/2+y,z
1/2-x,1/2-y,z
1/2-x,1/2+y,z
1/2+x,1/2-y,z
loop_
_atom_site_type_symbol
_atom_site_label
_atom_site_fract_x
_atom_site_fract_y
_atom_site_fract_z
Si Si1 0.882580 0.405708 0.156640
Si Si2 0.111340 0.822329 0.329283
Si Si3 0.616959 0.406079 0.213341
Si Si4 0.382896 0.223366 0.615485
Si Si5 0.612711 0.370786 0.788170
Si Si6 0.761868 0.405445 0.397820
Si Si7 0.885371 0.599351 0.511544
O O1 0.853463 0.500000 0.135517
O O2 0.851680 0.321850 0.121171
O O3 0.853781 0.394887 0.223993
O O4 0.000000 0.404207 0.156951
O O5 0.140924 0.889179 0.279708
O O6 0.120783 0.730999 0.298472
O O7 0.180076 0.836953 0.383033
O O8 0.000000 0.833995 0.344669
O O9 0.500000 0.404715 0.211480
O O10 0.648150 0.500000 0.194238
O O11 0.648720 0.330736 0.171383
O O12 0.500000 0.224513 0.616729
O O13 0.357225 0.168275 0.559624
O O14 0.500000 0.393662 0.791642
O O15 0.669034 0.407779 0.842162
O O16 0.717847 0.500000 0.405239
O O17 0.825543 0.386749 0.453539
O O18 0.870842 0.500000 0.530618
O O19 0.000000 0.608122 0.500280
#
# Coordination Sequence:
#
# PCOD9368585 Si02
#       7
#    16  16  16  16  16  16  16
#     4   9  16  27  48  83 125 162 200 248 302 367
#     4  10  20  35  54  82 121 163 209 257 306 365
#     4   9  15  25  46  77 114 156 197 240 298 365
#     4   9  15  27  48  79 121 161 199 246 303 362
#     4  10  19  34  55  83 122 164 203 247 301 365
#     4  11  22  34  52  84 125 165 207 254 307 367
#     4   9  18  32  51  81 124 169 209 252 305 367
#
# _framework density 22.219597
#
# number of rings (size 3 to 8) (size 9 to 14) (size 15 to 20)
#    0.000    2.429    1.429    2.143    0.000    4.000 
#    0.000    0.000    0.000    0.000    7.429    6.000 
#    0.000   17.143    0.000    5.571    0.000    0.429 
#
# Total GULP energy -156542.749112 kJ/mol
# GULP energy per Si atom -5590.812468 kJ/mol
# Density = 2.216902 g / cm^3
# Si number density = 22.219597 Si / 1000 Ang^3
#
#
#
# Elastic Constant Matrix: (Units=GPa)
#
#
# Indices 1 2 3 4 5 6 
#
# 1 77.0265 38.2331 37.9204 0.0000 0.0000 0.0000
# 2 38.2331 167.8827 75.7413 0.0000 0.0000 0.0000
# 3 37.9204 75.7413 105.5818 0.0000 0.0000 0.0000
# 4 0.0000 0.0000 0.0000 29.4243 0.0000 0.0000
# 5 0.0000 0.0000 0.0000 0.0000 29.2484 0.0000
# 6 0.0000 0.0000 0.0000 0.0000 0.0000 3.2932
#
#
#
# Elastic Compliance Matrix: (Units=1/GPa)
#
#
# Indices 1 2 3 4 5 6 
#
# 1 0.016042 -0.001558 -0.004644 0.000000 0.000000 0.000000
# 2 -0.001558 0.008958 -0.005867 0.000000 0.000000 0.000000
# 3 -0.004644 -0.005867 0.015348 0.000000 0.000000 0.000000
# 4 0.000000 0.000000 0.000000 0.033986 0.000000 0.000000
# 5 0.000000 0.000000 0.000000 0.000000 0.034190 0.000000
# 6 0.000000 0.000000 0.000000 0.000000 0.000000 0.303659
#
#
# Mechanical properties :
#
#
# Convention : Reuss Voigt Hill
#
# Bulk Modulus (GPa) = 61.68799 72.69786 67.19293
# Shear Modulus (GPa) = 11.31931 25.63292 18.47611
#
# Velocity S-wave (km/s) = 2.25950 3.40018 2.88674
# Velocity P-wave (km/s) = 5.88475 6.94290 6.43561
#
# Compressibility (1/GPa) = 0.01621061
#
# Stress axis : x y z
#
# Youngs Moduli (GPa) = 62.33561 111.62932 65.15616
#
# Poissons Ratio (x) = 0.17396 0.30257
# Poissons Ratio (y) = 0.09714 0.38225
# Poissons Ratio (z) = 0.28947 0.65489
#
# Static dielectric constant tensor:
#      x y z
#    x 1.846520 0.000000 0.000000 
#    y 0.000000 1.633820 0.000000 
#    z 0.000000 0.000000 1.748820 
# 
# From -- ./inp_files/29466.got.cif
#   From: 2010.05.17/outbox.cif.g08.bks.cpg/sg42_15_cif.got.tgz:29466.got - 2010.06.03 19:03:34.
