data_PCOD9368549
_publ_section_title
;
Structure prediction by ZEFSAII (Michael W. Deem and Ramdas Pophale) SiO2 
 PCOD9368549
Probable space group: F M M 2
;
_chemical_formula_sum "Si O2"
_cell_formula_units_Z 112
_cell_length_a 15.208277
_cell_length_b 28.638351
_cell_length_c 11.410371
_cell_angle_alpha 90.000000
_cell_angle_beta 90.000000
_cell_angle_gamma 90.000000
_cell_volume 4969.672698
_symmetry_space_group_name_H-M "F M M 2"
_symmetry_group_IT_number 42
_symmetry_cell_setting 'orthorhombic'
loop_
_space_group_symop_operation_xyz
x,y,z
-x,-y,z
-x,y,z
x,-y,z
x,1/2+y,1/2+z
-x,1/2-y,1/2+z
-x,1/2+y,1/2+z
x,1/2-y,1/2+z
1/2+x,y,1/2+z
1/2-x,-y,1/2+z
1/2-x,y,1/2+z
1/2+x,-y,1/2+z
1/2+x,1/2+y,z
1/2-x,1/2-y,z
1/2-x,1/2+y,z
1/2+x,1/2-y,z
loop_
_atom_site_type_symbol
_atom_site_label
_atom_site_fract_x
_atom_site_fract_y
_atom_site_fract_z
Si Si1 0.676081 0.051223 0.179070
Si Si2 0.901487 0.628497 0.576083
Si Si3 0.627092 0.947080 0.769181
Si Si4 0.601495 0.886845 0.991246
Si Si5 0.606746 0.282887 0.425263
Si Si6 0.897839 0.949625 0.922987
Si Si7 0.892203 0.728479 0.661311
O O1 0.769007 0.053057 0.244278
O O2 0.606659 0.052369 0.284113
O O3 0.669179 0.000000 0.119949
O O4 0.660653 0.094788 0.096374
O O5 0.908732 0.591106 0.679723
O O6 0.856002 0.596980 0.476608
O O7 0.863006 0.676125 0.625220
O O8 0.000000 0.641697 0.533263
O O9 0.605404 0.927760 0.895963
O O10 0.596918 0.000000 0.750545
O O11 0.500000 0.881290 0.030706
O O12 0.628862 0.837830 0.934037
O O13 0.500000 0.279227 0.423969
O O14 0.636015 0.262837 0.297369
O O15 0.635372 0.259837 0.549251
O O16 0.000000 0.950094 0.959272
O O17 0.858632 0.000000 0.960772
O O18 0.000000 0.729920 0.665106
#
# Coordination Sequence:
#
# PCOD9368549 Si02
#       7
#    16  16  16  16  16  16  16
#     4  10  23  38  55  83 121 161 200 241 297 367
#     4  10  19  33  55  83 113 148 194 243 297 356
#     4  11  23  36  56  85 121 159 197 240 297 364
#     4  11  22  39  63  91 119 155 208 260 307 360
#     4   9  18  33  56  87 120 151 197 261 318 368
#     4   9  18  33  53  79 113 151 194 243 291 350
#     4   9  17  32  54  84 119 150 191 255 315 366
#
# _framework density 22.536695999999999
#
# number of rings (size 3 to 8) (size 9 to 14) (size 15 to 20)
#    0.000    2.143    1.429    1.714    2.000    4.286 
#    0.000    4.286    0.000    0.857    0.000    0.000 
#    0.000    0.000    0.000    0.000    0.000    0.000 
#
# Total GULP energy -156156.359683 kJ/mol
# GULP energy per Si atom -5577.012846 kJ/mol
# Density = 2.248540 g / cm^3
# Si number density = 22.536696 Si / 1000 Ang^3
#
#
#
# Elastic Constant Matrix: (Units=GPa)
#
#
# Indices 1 2 3 4 5 6 
#
# 1 45.3211 8.8069 10.7442 0.0000 0.0000 0.0000
# 2 8.8069 90.2819 48.2230 0.0000 0.0000 0.0000
# 3 10.7442 48.2230 114.9082 0.0000 0.0000 0.0000
# 4 0.0000 0.0000 0.0000 -16.9023 0.0000 0.0000
# 5 0.0000 0.0000 0.0000 0.0000 22.5339 0.0000
# 6 0.0000 0.0000 0.0000 0.0000 0.0000 7.6663
#
#
#
# Elastic Compliance Matrix: (Units=1/GPa)
#
#
# Indices 1 2 3 4 5 6 
#
# 1 0.022700 -0.001393 -0.001538 0.000000 0.000000 0.000000
# 2 -0.001393 0.014362 -0.005897 0.000000 0.000000 0.000000
# 3 -0.001538 -0.005897 0.011321 0.000000 0.000000 0.000000
# 4 0.000000 0.000000 0.000000 -0.059163 0.000000 0.000000
# 5 0.000000 0.000000 0.000000 0.000000 0.044378 0.000000
# 6 0.000000 0.000000 0.000000 0.000000 0.000000 0.130441
#
#
# Mechanical properties :
#
#
# Convention : Reuss Voigt Hill
#
# Bulk Modulus (GPa) = 32.54406 42.89549 37.71977
# Shear Modulus (GPa) = 26.05027 14.84205 20.44616
#
# Velocity S-wave (km/s) = 3.40355 2.56905 3.01531
# Velocity P-wave (km/s) = 5.46967 5.27968 5.37551
#
# Compressibility (1/GPa) = 0.03072757
#
# Stress axis : x y z
#
# Youngs Moduli (GPa) = 44.05280 69.62751 88.32984
#
# Poissons Ratio (x) = 0.09698 0.13585
# Poissons Ratio (y) = 0.06136 0.52089
# Poissons Ratio (z) = 0.06775 0.41060
#
# Static dielectric constant tensor:
#      x y z
#    x 1.874880 0.000000 0.000000 
#    y 0.000000 1.834090 0.000000 
#    z 0.000000 0.000000 1.866630 
# 
# From -- ./inp_files/8127.got.cif
#   From: 2010.05.17/outbox.cif.g08.bks.cpg/sg42_5_cif.got.tgz:8127.got - 2010.06.03 19:03:34.
