data_PCOD9368344
_publ_section_title
;
Structure prediction by ZEFSAII (Michael W. Deem and Ramdas Pophale) SiO2 
 PCOD9368344
Probable space group: F M M 2
;
_chemical_formula_sum "Si O2"
_cell_formula_units_Z 112
_cell_length_a 14.806803
_cell_length_b 23.059844
_cell_length_c 14.987514
_cell_angle_alpha 90.000000
_cell_angle_beta 90.000000
_cell_angle_gamma 90.000000
_cell_volume 5117.375258
_symmetry_space_group_name_H-M "F M M 2"
_symmetry_group_IT_number 42
_symmetry_cell_setting 'orthorhombic'
loop_
_space_group_symop_operation_xyz
x,y,z
-x,-y,z
-x,y,z
x,-y,z
x,1/2+y,1/2+z
-x,1/2-y,1/2+z
-x,1/2+y,1/2+z
x,1/2-y,1/2+z
1/2+x,y,1/2+z
1/2-x,-y,1/2+z
1/2-x,y,1/2+z
1/2+x,-y,1/2+z
1/2+x,1/2+y,z
1/2-x,1/2-y,z
1/2-x,1/2+y,z
1/2+x,1/2-y,z
loop_
_atom_site_type_symbol
_atom_site_label
_atom_site_fract_x
_atom_site_fract_y
_atom_site_fract_z
Si Si1 0.394032 0.215530 0.153100
Si Si2 0.098430 0.892362 0.784791
Si Si3 0.245874 0.563693 0.171932
Si Si4 0.344790 0.312842 0.456038
Si Si5 0.103119 0.434454 0.008515
Si Si6 0.134359 0.687110 0.441529
Si Si7 0.395739 0.340102 0.149761
O O1 0.500000 0.220248 0.127569
O O2 0.387289 0.163926 0.222074
O O3 0.368133 0.277997 0.191552
O O4 0.342379 0.200027 0.062858
O O5 0.181984 0.931880 0.758607
O O6 0.097476 0.864404 0.881742
O O7 0.000000 0.918537 0.765556
O O8 0.286831 0.500000 0.164990
O O9 0.176890 0.570298 0.087653
O O10 0.323409 0.611395 0.172569
O O11 0.385200 0.377358 0.446927
O O12 0.241783 0.314624 0.426415
O O13 0.392122 0.254099 0.420119
O O14 0.113020 0.500000 0.969862
O O15 0.000000 0.430791 0.044061
O O16 0.110584 0.673175 0.543708
O O17 0.500000 0.353907 0.172483
#
# Coordination Sequence:
#
# PCOD9368344 Si02
#       7
#    16  16  16  16  16  16  16
#     4   9  18  33  59  87 114 154 199 249 299 345
#     4  11  22  38  59  88 124 157 193 247 311 363
#     4  11  23  39  61  86 113 154 207 251 290 352
#     4  10  18  34  56  85 122 161 200 243 286 347
#     4  10  19  33  58  87 113 147 195 247 289 331
#     4  10  21  34  56  90 125 161 193 239 310 371
#     4  10  20  37  60  87 119 153 197 249 304 362
#
# _framework density 21.886220000000002
#
# number of rings (size 3 to 8) (size 9 to 14) (size 15 to 20)
#    0.000    1.857    2.857    1.286    0.000    5.714 
#    0.000    1.429    0.000    3.429    0.000    0.000 
#    0.000    0.000    0.000    0.000    0.000    0.000 
#
# Total GULP energy -156304.560970 kJ/mol
# GULP energy per Si atom -5582.305749 kJ/mol
# Density = 2.183641 g / cm^3
# Si number density = 21.886220 Si / 1000 Ang^3
#
#
#
# Elastic Constant Matrix: (Units=GPa)
#
#
# Indices 1 2 3 4 5 6 
#
# 1 104.2181 47.8945 -13.4606 0.0000 0.0000 0.0000
# 2 47.8945 150.0611 -5.2117 0.0000 0.0000 0.0000
# 3 -13.4606 -5.2117 17.9760 0.0000 0.0000 0.0000
# 4 0.0000 0.0000 0.0000 18.8678 0.0000 0.0000
# 5 0.0000 0.0000 0.0000 0.0000 8.7253 0.0000
# 6 0.0000 0.0000 0.0000 0.0000 0.0000 17.8024
#
#
#
# Elastic Compliance Matrix: (Units=1/GPa)
#
#
# Indices 1 2 3 4 5 6 
#
# 1 0.012329 -0.003651 0.008173 0.000000 0.000000 0.000000
# 2 -0.003651 0.007813 -0.000469 0.000000 0.000000 0.000000
# 3 0.008173 -0.000469 0.061614 0.000000 0.000000 0.000000
# 4 0.000000 0.000000 0.000000 0.053000 0.000000 0.000000
# 5 0.000000 0.000000 0.000000 0.000000 0.114609 0.000000
# 6 0.000000 0.000000 0.000000 0.000000 0.000000 0.056172
#
#
# Mechanical properties :
#
#
# Convention : Reuss Voigt Hill
#
# Bulk Modulus (GPa) = 11.12802 36.74439 23.93620
# Shear Modulus (GPa) = 15.27255 25.28131 20.27693
#
# Velocity S-wave (km/s) = 2.64449 3.40240 3.04710
# Velocity P-wave (km/s) = 3.79736 5.67982 4.83116
#
# Compressibility (1/GPa) = 0.08986328
#
# Stress axis : x y z
#
# Youngs Moduli (GPa) = 81.11069 127.99216 16.22999
#
# Poissons Ratio (x) = 0.46731 -0.13266
# Poissons Ratio (y) = 0.29614 0.00761
# Poissons Ratio (z) = -0.66295 0.06000
#
# Static dielectric constant tensor:
#      x y z
#    x 1.799020 0.000000 0.000000 
#    y 0.000000 1.850630 0.000000 
#    z 0.000000 0.000000 1.811830 
# 
# From -- ./inp_files/14271.got.cif
#   From: 2010.05.17/outbox.cif.g08.bks.cpg/sg42_8_cif.got.tgz:14271.got - 2010.06.03 19:03:34.
