data_PCOD9368000
_publ_section_title
;
Structure prediction by ZEFSAII (Michael W. Deem and Ramdas Pophale) SiO2 
 PCOD9368000
Probable space group: A B A 2
;
_chemical_formula_sum "Si O2"
_cell_formula_units_Z 28
_cell_length_a 4.856301
_cell_length_b 12.418749
_cell_length_c 18.344538
_cell_angle_alpha 90.000000
_cell_angle_beta 90.000000
_cell_angle_gamma 90.000000
_cell_volume 1106.344103
_symmetry_space_group_name_H-M "A B A 2"
_symmetry_group_IT_number 41
_symmetry_cell_setting 'orthorhombic'
loop_
_space_group_symop_operation_xyz
x,y,z
-x,-y,z
1/2-x,y,1/2+z
1/2+x,-y,1/2+z
x,1/2+y,1/2+z
-x,1/2-y,1/2+z
1/2-x,1/2+y,z
1/2+x,1/2-y,z
loop_
_atom_site_type_symbol
_atom_site_label
_atom_site_fract_x
_atom_site_fract_y
_atom_site_fract_z
Si Si1 0.768663 0.427915 0.086830
Si Si2 0.500000 0.500000 0.327199
Si Si3 0.731515 0.820706 0.232938
Si Si4 0.472157 0.676965 0.439973
O O1 0.500000 0.500000 0.067215
O O2 0.696717 0.341304 0.147980
O O3 0.000000 0.500000 0.125767
O O4 0.937817 0.376258 0.019750
O O5 0.696057 0.429429 0.275846
O O6 0.595076 0.590573 0.384547
O O7 0.429434 0.779589 0.251472
O O8 0.662201 0.781049 0.430583
#
# Coordination Sequence:
#
# PCOD9368000 Si02
#       4
#     8   4   8   8
#     4  12  24  48  78 112 150 202 252 316 382 448
#     4  12  28  50  76 108 158 194 254 312 378 462
#     4  12  27  48  76 110 149 199 250 310 378 450
#     4  12  27  48  76 110 149 199 250 310 378 450
#
# _framework density 25.308579999999999
#
# number of rings (size 3 to 8) (size 9 to 14) (size 15 to 20)
#    0.000    0.000    2.857    6.857    0.000    2.286 
#    0.000    0.000    0.000    0.000    0.000    0.000 
#    0.000    0.000    0.000    0.000    0.000    0.000 
#
# Total GULP energy -78286.598642 kJ/mol
# GULP energy per Si atom -5591.899903 kJ/mol
# Density = 2.525098 g / cm^3
# Si number density = 25.308580 Si / 1000 Ang^3
#
#
#
# Elastic Constant Matrix: (Units=GPa)
#
#
# Indices 1 2 3 4 5 6 
#
# 1 86.3850 18.2056 9.3154 0.0000 0.0000 0.0000
# 2 18.2056 101.1407 56.0327 0.0000 0.0000 0.0000
# 3 9.3154 56.0327 133.4109 0.0000 0.0000 0.0000
# 4 0.0000 0.0000 0.0000 42.3104 0.0000 0.0000
# 5 0.0000 0.0000 0.0000 0.0000 16.6302 0.0000
# 6 0.0000 0.0000 0.0000 0.0000 0.0000 30.8691
#
#
#
# Elastic Compliance Matrix: (Units=1/GPa)
#
#
# Indices 1 2 3 4 5 6 
#
# 1 0.012033 -0.002216 0.000091 0.000000 0.000000 0.000000
# 2 -0.002216 0.013294 -0.005429 0.000000 0.000000 0.000000
# 3 0.000091 -0.005429 0.009769 0.000000 0.000000 0.000000
# 4 0.000000 0.000000 0.000000 0.023635 0.000000 0.000000
# 5 0.000000 0.000000 0.000000 0.000000 0.060132 0.000000
# 6 0.000000 0.000000 0.000000 0.000000 0.000000 0.032395
#
#
# Mechanical properties :
#
#
# Convention : Reuss Voigt Hill
#
# Bulk Modulus (GPa) = 50.03031 54.22710 52.12870
# Shear Modulus (GPa) = 28.89695 33.78746 31.34220
#
# Velocity S-wave (km/s) = 3.38270 3.65776 3.52291
# Velocity P-wave (km/s) = 5.92181 6.26991 6.09835
#
# Compressibility (1/GPa) = 0.01998789
#
# Stress axis : x y z
#
# Youngs Moduli (GPa) = 83.10213 75.22408 102.36121
#
# Poissons Ratio (x) = 0.16671 -0.00927
# Poissons Ratio (y) = 0.18417 0.55568
# Poissons Ratio (z) = -0.00753 0.40836
#
# Static dielectric constant tensor:
#      x y z
#    x 1.930990 0.000000 0.000000 
#    y 0.000000 1.992540 0.000000 
#    z 0.000000 0.000000 2.029800 
# 
# From -- ./inp_files/9329.got.cif
#   From: 2010.05.17/outbox.cif.g08.bks.cpg/sg41_5_cif.got.tgz:9329.got - 2010.06.03 18:54:24.
