data_PCOD9368662
_publ_section_title
;
Structure prediction by ZEFSAII (Michael W. Deem and Ramdas Pophale) SiO2 
 PCOD9368662
Probable space group: F M M 2
;
_chemical_formula_sum "Si O2"
_cell_formula_units_Z 96
_cell_length_a 28.888686
_cell_length_b 8.616867
_cell_length_c 21.113744
_cell_angle_alpha 90.000000
_cell_angle_beta 90.000000
_cell_angle_gamma 90.000000
_cell_volume 5255.843556
_symmetry_space_group_name_H-M "F M M 2"
_symmetry_group_IT_number 42
_symmetry_cell_setting 'orthorhombic'
loop_
_space_group_symop_operation_xyz
x,y,z
-x,-y,z
-x,y,z
x,-y,z
x,1/2+y,1/2+z
-x,1/2-y,1/2+z
-x,1/2+y,1/2+z
x,1/2-y,1/2+z
1/2+x,y,1/2+z
1/2-x,-y,1/2+z
1/2-x,y,1/2+z
1/2+x,-y,1/2+z
1/2+x,1/2+y,z
1/2-x,1/2-y,z
1/2-x,1/2+y,z
1/2+x,1/2-y,z
loop_
_atom_site_type_symbol
_atom_site_label
_atom_site_fract_x
_atom_site_fract_y
_atom_site_fract_z
Si Si1 0.891529 0.685240 0.821680
Si Si2 0.607911 0.187432 0.570396
Si Si3 0.699868 0.184872 0.017372
Si Si4 0.800023 0.315280 0.375728
Si Si5 0.946623 0.810646 0.196355
Si Si6 0.445584 0.186211 0.441687
O O1 0.885984 0.500000 0.819035
O O2 0.841420 0.761486 0.830779
O O3 0.918928 0.737490 0.759069
O O4 0.921340 0.730411 0.883158
O O5 0.658546 0.259278 0.562151
O O6 0.580538 0.237075 0.633123
O O7 0.578635 0.228973 0.507759
O O8 0.612077 0.000000 0.571713
O O9 0.750000 0.250000 0.036641
O O10 0.701661 0.000000 0.014050
O O11 0.690503 0.250172 0.946530
O O12 0.798195 0.500000 0.379591
O O13 0.750000 0.250000 0.356287
O O14 0.000000 0.758125 0.196846
O O15 0.947686 0.000000 0.196279
O O16 0.500000 0.220717 0.443874
O O17 0.439986 0.000000 0.433663
#
# Coordination Sequence:
#
# PCOD9368662 Si02
#       6
#    16  16  16  16  16  16
#     4  11  21  35  56  84 116 151 191 236 285 338
#     4  10  19  35  58  83 113 150 193 235 280 336
#     4  11  21  35  57  86 117 148 185 231 286 342
#     4  11  21  36  58  85 115 148 187 233 287 344
#     4   9  19  36  58  83 114 155 196 234 280 335
#     4  10  20  33  53  81 111 145 189 239 287 337
#
# _framework density 18.265384000000001
#
# number of rings (size 3 to 8) (size 9 to 14) (size 15 to 20)
#    0.000    1.667    1.667    5.500    0.000    3.000 
#    0.000    2.500    0.000    3.500    0.000    0.000 
#    0.000    0.000    0.000    0.000    0.000    0.000 
#
# Total GULP energy -134091.472153 kJ/mol
# GULP energy per Si atom -5587.144673 kJ/mol
# Density = 1.822381 g / cm^3
# Si number density = 18.265384 Si / 1000 Ang^3
#
#
#
# Elastic Constant Matrix: (Units=GPa)
#
#
# Indices 1 2 3 4 5 6 
#
# 1 181.7862 58.0015 94.4785 0.0000 0.0000 0.0000
# 2 58.0015 73.0710 45.8549 0.0000 0.0000 0.0000
# 3 94.4785 45.8549 141.2296 0.0000 0.0000 0.0000
# 4 0.0000 0.0000 0.0000 12.9159 0.0000 0.0000
# 5 0.0000 0.0000 0.0000 0.0000 32.5018 0.0000
# 6 0.0000 0.0000 0.0000 0.0000 0.0000 19.1464
#
#
#
# Elastic Compliance Matrix: (Units=1/GPa)
#
#
# Indices 1 2 3 4 5 6 
#
# 1 0.009456 -0.004441 -0.004884 0.000000 0.000000 0.000000
# 2 -0.004441 0.019273 -0.003287 0.000000 0.000000 0.000000
# 3 -0.004884 -0.003287 0.011415 0.000000 0.000000 0.000000
# 4 0.000000 0.000000 0.000000 0.077424 0.000000 0.000000
# 5 0.000000 0.000000 0.000000 0.000000 0.030767 0.000000
# 6 0.000000 0.000000 0.000000 0.000000 0.000000 0.052229
#
#
# Mechanical properties :
#
#
# Convention : Reuss Voigt Hill
#
# Bulk Modulus (GPa) = 67.02064 88.08408 77.55236
# Shear Modulus (GPa) = 21.66729 26.09628 23.88179
#
# Velocity S-wave (km/s) = 3.44793 3.78395 3.61984
# Velocity P-wave (km/s) = 7.25420 8.21099 7.74738
#
# Compressibility (1/GPa) = 0.01492078
#
# Stress axis : x y z
#
# Youngs Moduli (GPa) = 105.74899 51.88574 87.60370
#
# Poissons Ratio (x) = 0.23044 0.42786
# Poissons Ratio (y) = 0.46966 0.28792
# Poissons Ratio (z) = 0.51648 0.17053
#
# Static dielectric constant tensor:
#      x y z
#    x 1.622650 0.000000 0.000000 
#    y 0.000000 1.619240 0.000000 
#    z 0.000000 0.000000 1.602970 
# 
# From -- ./inp_files/23723.got.cif
#   From: 2010.05.17/outbox.cif.g08.bks.cpg/sg42_12_cif.got.tgz:23723.got - 2010.06.03 19:03:34.
