data_PCOD9368394
_publ_section_title
;
Structure prediction by ZEFSAII (Michael W. Deem and Ramdas Pophale) SiO2 
 PCOD9368394
Probable space group: F M M 2
;
_chemical_formula_sum "Si O2"
_cell_formula_units_Z 112
_cell_length_a 16.092668
_cell_length_b 26.569853
_cell_length_c 14.375860
_cell_angle_alpha 90.000000
_cell_angle_beta 90.000000
_cell_angle_gamma 90.000000
_cell_volume 6146.827676
_symmetry_space_group_name_H-M "F M M 2"
_symmetry_group_IT_number 42
_symmetry_cell_setting 'orthorhombic'
loop_
_space_group_symop_operation_xyz
x,y,z
-x,-y,z
-x,y,z
x,-y,z
x,1/2+y,1/2+z
-x,1/2-y,1/2+z
-x,1/2+y,1/2+z
x,1/2-y,1/2+z
1/2+x,y,1/2+z
1/2-x,-y,1/2+z
1/2-x,y,1/2+z
1/2+x,-y,1/2+z
1/2+x,1/2+y,z
1/2-x,1/2-y,z
1/2-x,1/2+y,z
1/2+x,1/2-y,z
loop_
_atom_site_type_symbol
_atom_site_label
_atom_site_fract_x
_atom_site_fract_y
_atom_site_fract_z
Si Si1 0.403314 0.060260 0.810900
Si Si2 0.874993 0.233381 0.310900
Si Si3 0.907217 0.800499 0.109234
Si Si4 0.907217 0.300499 0.012565
Si Si5 0.790139 0.391760 0.650344
Si Si6 0.209861 0.608240 0.971456
Si Si7 0.791751 0.834204 0.810900
O O1 0.500000 0.078052 0.810900
O O2 0.353108 0.079482 0.719978
O O3 0.353108 0.079482 0.901821
O O4 0.403856 0.000000 0.810900
O O5 0.914762 0.214346 0.216854
O O6 0.914762 0.214346 0.404945
O O7 0.865560 0.293824 0.310900
O O8 0.787716 0.203067 0.310900
O O9 0.873855 0.750000 0.060900
O O10 0.843778 0.846287 0.105782
O O11 0.000000 0.811699 0.072178
O O12 0.000000 0.311699 0.049622
O O13 0.843778 0.346287 0.016018
O O14 0.750000 0.419092 0.560900
O O15 0.720443 0.368318 0.719571
O O16 0.279557 0.631682 0.902229
#
# Coordination Sequence:
#
# PCOD9368394 Si02
#       7
#    16  16  16  16  16  16  16
#     4  10  22  40  60  81 105 135 175 224 277 330
#     4   9  15  26  40  57  91 135 177 213 245 284
#     4  10  19  28  42  67 100 139 179 215 253 305
#     4  10  19  28  42  67 100 139 179 215 253 305
#     4  10  19  32  52  76 104 136 174 222 272 317
#     4  10  19  32  52  76 104 136 174 222 272 317
#     4   8  16  26  41  66  94 131 172 210 252 302
#
# _framework density 18.220782
#
# number of rings (size 3 to 8) (size 9 to 14) (size 15 to 20)
#    0.000    2.429    0.000    3.857    0.000    3.429 
#    0.000    0.000    0.000    0.000    0.000    9.000 
#    0.000   13.714    0.000    0.000    0.000    0.000 
#
# Total GULP energy -155958.512380 kJ/mol
# GULP energy per Si atom -5569.946871 kJ/mol
# Density = 1.817931 g / cm^3
# Si number density = 18.220782 Si / 1000 Ang^3
#
#
#
# Elastic Constant Matrix: (Units=GPa)
#
#
# Indices 1 2 3 4 5 6 
#
# 1 52.4963 13.1992 27.7535 0.0000 0.0000 0.0000
# 2 13.1992 39.9899 21.3524 0.0000 0.0000 0.0000
# 3 27.7535 21.3524 116.3796 0.0000 0.0000 0.0000
# 4 0.0000 0.0000 0.0000 10.1282 0.0000 0.0000
# 5 0.0000 0.0000 0.0000 0.0000 15.2634 0.0000
# 6 0.0000 0.0000 0.0000 0.0000 0.0000 -2.7244
#
#
#
# Elastic Compliance Matrix: (Units=1/GPa)
#
#
# Indices 1 2 3 4 5 6 
#
# 1 0.022699 -0.005101 -0.004477 0.000000 0.000000 0.000000
# 2 -0.005101 0.028869 -0.004080 0.000000 0.000000 0.000000
# 3 -0.004477 -0.004080 0.010409 0.000000 0.000000 0.000000
# 4 0.000000 0.000000 0.000000 0.098735 0.000000 0.000000
# 5 0.000000 0.000000 0.000000 0.000000 0.065516 0.000000
# 6 0.000000 0.000000 0.000000 0.000000 0.000000 -0.367049
#
#
# Mechanical properties :
#
#
# Convention : Reuss Voigt Hill
#
# Bulk Modulus (GPa) = 28.85260 37.05288 32.95274
# Shear Modulus (GPa) = -49.04254 14.30414 -17.36920
#
# Velocity S-wave (km/s) = -5.19366 2.80491 -3.09085
# Velocity P-wave (km/s) = 4.48287 5.55605 2.32094
#
# Compressibility (1/GPa) = 0.03465892
#
# Stress axis : x y z
#
# Youngs Moduli (GPa) = 44.05577 34.63964 96.07264
#
# Poissons Ratio (x) = 0.17671 0.43012
# Poissons Ratio (y) = 0.22475 0.39198
# Poissons Ratio (z) = 0.19724 0.14133
#
# Static dielectric constant tensor:
#      x y z
#    x 1.694250 0.000000 0.000000 
#    y 0.000000 1.620310 0.000000 
#    z 0.000000 0.000000 1.676160 
# 
# From -- ./inp_files/9776.got.cif
#   From: 2010.05.17/outbox.cif.g08.bks.cpg/sg42_5_cif.got.tgz:9776.got - 2010.06.03 19:03:34.
