data_PCOD9368209
_publ_section_title
;
Structure prediction by ZEFSAII (Michael W. Deem and Ramdas Pophale) SiO2 
 PCOD9368209
Probable space group: F M M 2
;
_chemical_formula_sum "Si O2"
_cell_formula_units_Z 96
_cell_length_a 8.537106
_cell_length_b 27.557463
_cell_length_c 23.597843
_cell_angle_alpha 90.000000
_cell_angle_beta 90.000000
_cell_angle_gamma 90.000000
_cell_volume 5551.651734
_symmetry_space_group_name_H-M "F M M 2"
_symmetry_group_IT_number 42
_symmetry_cell_setting 'orthorhombic'
loop_
_space_group_symop_operation_xyz
x,y,z
-x,-y,z
-x,y,z
x,-y,z
x,1/2+y,1/2+z
-x,1/2-y,1/2+z
-x,1/2+y,1/2+z
x,1/2-y,1/2+z
1/2+x,y,1/2+z
1/2-x,-y,1/2+z
1/2-x,y,1/2+z
1/2+x,-y,1/2+z
1/2+x,1/2+y,z
1/2-x,1/2-y,z
1/2-x,1/2+y,z
1/2+x,1/2-y,z
loop_
_atom_site_type_symbol
_atom_site_label
_atom_site_fract_x
_atom_site_fract_y
_atom_site_fract_z
Si Si1 0.689978 0.443735 0.382640
Si Si2 0.323876 0.299181 0.384254
Si Si3 0.682166 0.633800 0.794354
Si Si4 0.811293 0.196937 0.570967
Si Si5 0.177097 0.621106 0.982114
Si Si6 0.813725 0.302075 0.698453
O O1 0.500000 0.439101 0.383439
O O2 0.731201 0.500000 0.376948
O O3 0.749833 0.411769 0.329709
O O4 0.748026 0.421851 0.443290
O O5 0.500000 0.292945 0.360913
O O6 0.250000 0.250000 0.405235
O O7 0.211626 0.321751 0.337359
O O8 0.334266 0.336643 0.435274
O O9 0.500000 0.626226 0.783158
O O10 0.767137 0.652666 0.737938
O O11 0.750000 0.250000 0.551436
O O12 0.751373 0.150316 0.535090
O O13 0.760610 0.192138 0.636196
O O14 0.000000 0.197594 0.566168
O O15 0.000000 0.605675 0.998718
O O16 0.750000 0.250000 0.721156
O O17 0.000000 0.298458 0.693739
#
# Coordination Sequence:
#
# PCOD9368209 Si02
#       6
#    16  16  16  16  16  16
#     4   9  18  35  57  78 100 128 162 203 254 305
#     4  10  18  29  44  67  98 130 162 196 240 291
#     4  11  21  33  49  71  98 128 164 205 248 294
#     4  10  18  30  47  70 101 135 170 204 240 285
#     4   8  16  29  47  71  98 128 162 199 240 292
#     4  11  21  34  50  71 100 135 173 207 246 293
#
# _framework density 17.292149999999999
#
# number of rings (size 3 to 8) (size 9 to 14) (size 15 to 20)
#    0.000    2.167    0.000    7.000    0.000    0.333 
#    0.000    7.500    0.000    1.000    0.000    2.333 
#    0.000    0.000    0.000    0.000    0.000    0.000 
#
# Total GULP energy -133671.359846 kJ/mol
# GULP energy per Si atom -5569.639994 kJ/mol
# Density = 1.725279 g / cm^3
# Si number density = 17.292150 Si / 1000 Ang^3
#
#
#
# Elastic Constant Matrix: (Units=GPa)
#
#
# Indices 1 2 3 4 5 6 
#
# 1 58.1085 25.3756 10.3410 0.0000 0.0000 0.0000
# 2 25.3756 99.4288 44.8689 0.0000 0.0000 0.0000
# 3 10.3410 44.8689 76.5437 0.0000 0.0000 0.0000
# 4 0.0000 0.0000 0.0000 23.5469 0.0000 0.0000
# 5 0.0000 0.0000 0.0000 0.0000 6.7858 0.0000
# 6 0.0000 0.0000 0.0000 0.0000 0.0000 17.6921
#
#
#
# Elastic Compliance Matrix: (Units=1/GPa)
#
#
# Indices 1 2 3 4 5 6 
#
# 1 0.019376 -0.005117 0.000382 0.000000 0.000000 0.000000
# 2 -0.005117 0.015026 -0.008117 0.000000 0.000000 0.000000
# 3 0.000382 -0.008117 0.017771 0.000000 0.000000 0.000000
# 4 0.000000 0.000000 0.000000 0.042468 0.000000 0.000000
# 5 0.000000 0.000000 0.000000 0.000000 0.147367 0.000000
# 6 0.000000 0.000000 0.000000 0.000000 0.000000 0.056523
#
#
# Mechanical properties :
#
#
# Convention : Reuss Voigt Hill
#
# Bulk Modulus (GPa) = 37.78054 43.91691 40.84872
# Shear Modulus (GPa) = 15.01235 19.83797 17.42516
#
# Velocity S-wave (km/s) = 2.94965 3.39074 3.17786
# Velocity P-wave (km/s) = 5.78761 6.38605 6.09418
#
# Compressibility (1/GPa) = 0.02646866
#
# Stress axis : x y z
#
# Youngs Moduli (GPa) = 51.61043 66.54965 56.27195
#
# Poissons Ratio (x) = 0.34056 -0.02150
# Poissons Ratio (y) = 0.26411 0.45675
# Poissons Ratio (z) = -0.01972 0.54018
#
# Static dielectric constant tensor:
#      x y z
#    x 1.604070 0.000000 0.000000 
#    y 0.000000 1.614300 0.000000 
#    z 0.000000 0.000000 1.612340 
# 
# From -- ./inp_files/28177.got.cif
#   From: 2010.05.17/outbox.cif.g08.bks.cpg/sg42_15_cif.got.tgz:28177.got - 2010.06.03 19:03:34.
