data_PCOD9368009
_publ_section_title
;
Structure prediction by ZEFSAII (Michael W. Deem and Ramdas Pophale) SiO2 
 PCOD9368009
Probable space group: A B A 2
;
_chemical_formula_sum "Si O2"
_cell_formula_units_Z 48
_cell_length_a 17.704123
_cell_length_b 14.824882
_cell_length_c 8.397961
_cell_angle_alpha 90.000000
_cell_angle_beta 90.000000
_cell_angle_gamma 90.000000
_cell_volume 2204.141730
_symmetry_space_group_name_H-M "A B A 2"
_symmetry_group_IT_number 41
_symmetry_cell_setting 'orthorhombic'
loop_
_space_group_symop_operation_xyz
x,y,z
-x,-y,z
1/2-x,y,1/2+z
1/2+x,-y,1/2+z
x,1/2+y,1/2+z
-x,1/2-y,1/2+z
1/2-x,1/2+y,z
1/2+x,1/2-y,z
loop_
_atom_site_type_symbol
_atom_site_label
_atom_site_fract_x
_atom_site_fract_y
_atom_site_fract_z
Si Si1 0.709009 0.983649 0.948860
Si Si2 0.329063 0.834448 0.130043
Si Si3 0.320251 0.204355 0.127822
Si Si4 0.421991 0.838965 0.449603
Si Si5 0.408338 0.187396 0.442033
Si Si6 0.863508 0.988163 0.098930
O O1 0.675148 0.993497 0.772246
O O2 0.692842 0.885314 0.024007
O O3 0.798431 0.994629 0.965272
O O4 0.680821 0.067069 0.055613
O O5 0.252317 0.772428 0.130137
O O6 0.363026 0.841748 0.304968
O O7 0.389170 0.781794 0.022103
O O8 0.346389 0.176355 0.303607
O O9 0.390880 0.259098 0.058800
O O10 0.505775 0.821167 0.386026
O O11 0.418168 0.929765 0.555364
O O12 0.398378 0.109929 0.574524
#
# Coordination Sequence:
#
# PCOD9368009 Si02
#       6
#     8   8   8   8   8   8
#     4  12  26  45  74 108 138 182 246 298 345 421
#     4  12  25  45  75 105 140 191 236 295 349 420
#     4  12  25  45  75 105 140 191 236 295 349 420
#     4  12  26  46  71 107 147 187 234 291 357 421
#     4  12  26  46  71 107 147 187 234 291 357 421
#     4  12  25  45  72 104 143 186 234 296 356 411
#
# _framework density 21.777184999999999
#
# number of rings (size 3 to 8) (size 9 to 14) (size 15 to 20)
#    0.000    0.000    3.333    7.500    0.000    0.000 
#    0.000    7.500    0.000    0.000    0.000    0.000 
#    0.000    0.000    0.000    0.000    0.000    0.000 
#
# Total GULP energy -134277.210113 kJ/mol
# GULP energy per Si atom -5594.883755 kJ/mol
# Density = 2.172762 g / cm^3
# Si number density = 21.777185 Si / 1000 Ang^3
#
#
#
# Elastic Constant Matrix: (Units=GPa)
#
#
# Indices 1 2 3 4 5 6 
#
# 1 65.8737 1.6890 16.3799 0.0000 0.0000 0.0000
# 2 1.6890 73.5683 19.9277 0.0000 0.0000 0.0000
# 3 16.3799 19.9277 113.0547 0.0000 0.0000 0.0000
# 4 0.0000 0.0000 0.0000 42.0788 0.0000 0.0000
# 5 0.0000 0.0000 0.0000 0.0000 24.3761 0.0000
# 6 0.0000 0.0000 0.0000 0.0000 0.0000 15.3982
#
#
#
# Elastic Compliance Matrix: (Units=1/GPa)
#
#
# Indices 1 2 3 4 5 6 
#
# 1 0.015753 0.000269 -0.002330 0.000000 0.000000 0.000000
# 2 0.000269 0.014279 -0.002556 0.000000 0.000000 0.000000
# 3 -0.002330 -0.002556 0.009633 0.000000 0.000000 0.000000
# 4 0.000000 0.000000 0.000000 0.023765 0.000000 0.000000
# 5 0.000000 0.000000 0.000000 0.000000 0.041024 0.000000
# 6 0.000000 0.000000 0.000000 0.000000 0.000000 0.064943
#
#
# Mechanical properties :
#
#
# Convention : Reuss Voigt Hill
#
# Bulk Modulus (GPa) = 32.85950 36.49889 34.67919
# Shear Modulus (GPa) = 26.48672 30.67062 28.57867
#
# Velocity S-wave (km/s) = 3.49128 3.75691 3.62653
# Velocity P-wave (km/s) = 5.60123 5.96789 5.78746
#
# Compressibility (1/GPa) = 0.03043260
#
# Stress axis : x y z
#
# Youngs Moduli (GPa) = 63.48003 70.03309 103.80590
#
# Poissons Ratio (x) = -0.01887 0.24185
# Poissons Ratio (y) = -0.01710 0.26532
# Poissons Ratio (z) = 0.14790 0.17900
#
# Static dielectric constant tensor:
#      x y z
#    x 1.788480 0.000000 0.000000 
#    y 0.000000 1.822220 0.000000 
#    z 0.000000 0.000000 1.799800 
# 
# From -- ./inp_files/2546.got.cif
#   From: 2010.05.17/outbox.cif.g08.bks.cpg/sg41_2_cif.got.tgz:2546.got - 2010.06.03 18:54:24.
