data_PCOD9368994
_publ_section_title
;
Structure prediction by ZEFSAII (Michael W. Deem and Ramdas Pophale) SiO2 
 PCOD9368994
Probable space group: F M M 2
;
_chemical_formula_sum "Si O2"
_cell_formula_units_Z 116
_cell_length_a 14.860780
_cell_length_b 17.960330
_cell_length_c 24.514086
_cell_angle_alpha 90.000000
_cell_angle_beta 90.000000
_cell_angle_gamma 90.000000
_cell_volume 6542.920182
_symmetry_space_group_name_H-M "F M M 2"
_symmetry_group_IT_number 42
_symmetry_cell_setting 'orthorhombic'
loop_
_space_group_symop_operation_xyz
x,y,z
-x,-y,z
-x,y,z
x,-y,z
x,1/2+y,1/2+z
-x,1/2-y,1/2+z
-x,1/2+y,1/2+z
x,1/2-y,1/2+z
1/2+x,y,1/2+z
1/2-x,-y,1/2+z
1/2-x,y,1/2+z
1/2+x,-y,1/2+z
1/2+x,1/2+y,z
1/2-x,1/2-y,z
1/2-x,1/2+y,z
1/2+x,1/2-y,z
loop_
_atom_site_type_symbol
_atom_site_label
_atom_site_fract_x
_atom_site_fract_y
_atom_site_fract_z
Si Si1 0.106200 0.325042 0.578770
Si Si2 0.000000 0.000000 0.287604
Si Si3 0.392677 0.411872 0.967706
Si Si4 0.106165 0.913905 0.478041
Si Si5 0.241349 0.338717 0.675620
Si Si6 0.242954 0.338293 0.897299
Si Si7 0.687790 0.918029 0.787017
Si Si8 0.105657 0.349804 0.093327
O O1 0.131006 0.368471 0.523711
O O2 0.163877 0.350668 0.630333
O O3 0.121310 0.236021 0.574309
O O4 0.000000 0.336933 0.588177
O O5 0.081016 0.063766 0.287685
O O6 0.500000 0.403015 0.959223
O O7 0.373454 0.500000 0.973001
O O8 0.333987 0.376057 0.919884
O O9 0.165973 0.863280 0.439711
O O10 0.128410 0.900454 0.541414
O O11 0.000000 0.897273 0.471698
O O12 0.120729 0.000000 0.463011
O O13 0.250000 0.250000 0.685704
O O14 0.217171 0.380531 0.730701
O O15 0.332702 0.363809 0.645494
O O16 0.250000 0.250000 0.896684
O O17 0.216464 0.369257 0.838339
O O18 0.731532 0.000000 0.791984
O O19 0.000000 0.357934 0.105585
#
# Coordination Sequence:
#
# PCOD9368994 Si02
#       8
#    16   4  16  16  16  16  16  16
#     4   9  18  31  54  82 115 156 195 236 286 338
#     4   8  24  44  64  88 110 148 186 256 296 338
#     4  10  21  38  56  84 120 155 192 236 285 345
#     4  10  21  35  59  88 118 152 194 242 292 338
#     4  10  20  35  57  82 118 154 194 236 286 343
#     4  12  24  38  60  84 114 150 193 237 292 349
#     4  10  23  41  61  85 113 142 189 239 294 341
#     4   9  18  34  52  83 121 155 194 236 281 340
#
# _framework density 17.729087
#
# number of rings (size 3 to 8) (size 9 to 14) (size 15 to 20)
#    0.414    1.655    0.000    3.310    1.931    3.862 
#    0.000    0.690    0.000    0.828    0.000    0.000 
#    0.000    0.000    0.000    0.000    0.000    0.000 
#
# Total GULP energy -161585.952562 kJ/mol
# GULP energy per Si atom -5571.929399 kJ/mol
# Density = 1.768873 g / cm^3
# Si number density = 17.729087 Si / 1000 Ang^3
#
#
#
# Elastic Constant Matrix: (Units=GPa)
#
#
# Indices 1 2 3 4 5 6 
#
# 1 84.7227 58.9149 70.3862 0.0000 0.0000 0.0000
# 2 58.9149 90.5388 62.4261 0.0000 0.0000 0.0000
# 3 70.3862 62.4261 120.1937 0.0000 0.0000 0.0000
# 4 0.0000 0.0000 0.0000 40.8290 0.0000 0.0000
# 5 0.0000 0.0000 0.0000 0.0000 -8.0406 0.0000
# 6 0.0000 0.0000 0.0000 0.0000 0.0000 24.1507
#
#
#
# Elastic Compliance Matrix: (Units=1/GPa)
#
#
# Indices 1 2 3 4 5 6 
#
# 1 0.028651 -0.011022 -0.011053 0.000000 0.000000 0.000000
# 2 -0.011022 0.021447 -0.004685 0.000000 0.000000 0.000000
# 3 -0.011053 -0.004685 0.017226 0.000000 0.000000 0.000000
# 4 0.000000 0.000000 0.000000 0.024492 0.000000 0.000000
# 5 0.000000 0.000000 0.000000 0.000000 -0.124369 0.000000
# 6 0.000000 0.000000 0.000000 0.000000 0.000000 0.041407
#
#
# Mechanical properties :
#
#
# Convention : Reuss Voigt Hill
#
# Bulk Modulus (GPa) = 72.44473 75.43439 73.93956
# Shear Modulus (GPa) = 74.65355 18.30303 46.47829
#
# Velocity S-wave (km/s) = 6.49610 3.21654 5.12570
# Velocity P-wave (km/s) = 9.85985 7.51236 8.76505
#
# Compressibility (1/GPa) = 0.01380363
#
# Stress axis : x y z
#
# Youngs Moduli (GPa) = 34.90292 46.62587 58.05205
#
# Poissons Ratio (x) = 0.51392 0.64167
# Poissons Ratio (y) = 0.38471 0.27195
# Poissons Ratio (z) = 0.38580 0.21842
#
# Static dielectric constant tensor:
#      x y z
#    x 1.612500 0.000000 0.000000 
#    y 0.000000 1.602680 0.000000 
#    z 0.000000 0.000000 1.575780 
# 
# From -- ./inp_files/29629.got.cif
#   From: 2010.05.17/outbox.cif.g08.bks.cpg/sg42_15_cif.got.tgz:29629.got - 2010.06.03 19:03:34.
