data_PCOD9368867
_publ_section_title
;
Structure prediction by ZEFSAII (Michael W. Deem and Ramdas Pophale) SiO2 
 PCOD9368867
Probable space group: F M M 2
;
_chemical_formula_sum "Si O2"
_cell_formula_units_Z 80
_cell_length_a 17.982281
_cell_length_b 9.110023
_cell_length_c 26.880761
_cell_angle_alpha 90.000000
_cell_angle_beta 90.000000
_cell_angle_gamma 90.000000
_cell_volume 4403.579212
_symmetry_space_group_name_H-M "F M M 2"
_symmetry_group_IT_number 42
_symmetry_cell_setting 'orthorhombic'
loop_
_space_group_symop_operation_xyz
x,y,z
-x,-y,z
-x,y,z
x,-y,z
x,1/2+y,1/2+z
-x,1/2-y,1/2+z
-x,1/2+y,1/2+z
x,1/2-y,1/2+z
1/2+x,y,1/2+z
1/2-x,-y,1/2+z
1/2-x,y,1/2+z
1/2+x,-y,1/2+z
1/2+x,1/2+y,z
1/2-x,1/2-y,z
1/2-x,1/2+y,z
1/2+x,1/2-y,z
loop_
_atom_site_type_symbol
_atom_site_label
_atom_site_fract_x
_atom_site_fract_y
_atom_site_fract_z
Si Si1 0.410253 0.669275 0.378880
Si Si2 0.090726 0.668373 0.278450
Si Si3 0.670048 0.676479 0.969291
Si Si4 0.085594 0.321428 0.569395
Si Si5 0.090746 0.329818 0.678739
O O1 0.500000 0.672810 0.379924
O O2 0.386433 0.500000 0.383701
O O3 0.385987 0.736031 0.325894
O O4 0.379520 0.765325 0.423932
O O5 0.114140 0.500000 0.283943
O O6 0.115443 0.736179 0.225955
O O7 0.000000 0.670623 0.277827
O O8 0.674632 0.500000 0.967867
O O9 0.750000 0.750000 0.964792
O O10 0.633586 0.721648 0.021992
O O11 0.084381 0.500000 0.571112
O O12 0.113756 0.274599 0.623980
O O13 0.000000 0.272960 0.562905
O O14 0.112756 0.500000 0.685059
O O15 0.000000 0.328153 0.677710
#
# Coordination Sequence:
#
# PCOD9368867 Si02
#       5
#    16  16  16  16  16
#     4  10  20  34  53  77 103 132 169 212 256 302
#     4   9  16  26  43  71 104 133 161 198 248 301
#     4  11  22  36  53  73 101 136 173 212 256 304
#     4   8  15  29  51  76  99 128 167 207 248 297
#     4   8  13  24  44  70  98 126 159 201 247 295
#
# _framework density 18.167038999999999
#
# number of rings (size 3 to 8) (size 9 to 14) (size 15 to 20)
#    0.000    2.800    0.000    3.600    0.000    4.400 
#    0.000    2.000    0.000    6.000    0.000    5.600 
#    0.000    0.000    0.000    0.000    0.000    0.000 
#
# Total GULP energy -111492.434018 kJ/mol
# GULP energy per Si atom -5574.621701 kJ/mol
# Density = 1.812569 g / cm^3
# Si number density = 18.167039 Si / 1000 Ang^3
#
#
#
# Elastic Constant Matrix: (Units=GPa)
#
#
# Indices 1 2 3 4 5 6 
#
# 1 15.5156 17.6995 24.1147 0.0000 0.0000 0.0000
# 2 17.6995 85.4522 57.1688 0.0000 0.0000 0.0000
# 3 24.1147 57.1688 160.6715 0.0000 0.0000 0.0000
# 4 0.0000 0.0000 0.0000 30.6394 0.0000 0.0000
# 5 0.0000 0.0000 0.0000 0.0000 -7.3467 0.0000
# 6 0.0000 0.0000 0.0000 0.0000 0.0000 14.3011
#
#
#
# Elastic Compliance Matrix: (Units=1/GPa)
#
#
# Indices 1 2 3 4 5 6 
#
# 1 0.094170 -0.013189 -0.009441 0.000000 0.000000 0.000000
# 2 -0.013189 0.017206 -0.004142 0.000000 0.000000 0.000000
# 3 -0.009441 -0.004142 0.009115 0.000000 0.000000 0.000000
# 4 0.000000 0.000000 0.000000 0.032638 0.000000 0.000000
# 5 0.000000 0.000000 0.000000 0.000000 -0.136116 0.000000
# 6 0.000000 0.000000 0.000000 0.000000 0.000000 0.069924
#
#
# Mechanical properties :
#
#
# Convention : Reuss Voigt Hill
#
# Bulk Modulus (GPa) = 14.93752 51.06727 33.00240
# Shear Modulus (GPa) = 30.71312 18.36252 24.53782
#
# Velocity S-wave (km/s) = 4.11615 3.18269 3.67914
# Velocity P-wave (km/s) = 5.55251 6.45577 6.02110
#
# Compressibility (1/GPa) = 0.06694550
#
# Stress axis : x y z
#
# Youngs Moduli (GPa) = 10.61910 58.12051 109.71213
#
# Poissons Ratio (x) = 0.76656 1.03578
# Poissons Ratio (y) = 0.14006 0.45448
# Poissons Ratio (z) = 0.10025 0.24076
#
# Static dielectric constant tensor:
#      x y z
#    x 1.609880 0.000000 0.000000 
#    y 0.000000 1.609300 0.000000 
#    z 0.000000 0.000000 1.627900 
# 
# From -- ./inp_files/31252.got.cif
#   From: 2010.05.17/outbox.cif.g08.bks.cpg/sg42_16_cif.got.tgz:31252.got - 2010.06.03 19:03:34.
