data_PCOD9368013
_publ_section_title
;
Structure prediction by ZEFSAII (Michael W. Deem and Ramdas Pophale) SiO2 
 PCOD9368013
Probable space group: A B A 2
;
_chemical_formula_sum "Si O2"
_cell_formula_units_Z 28
_cell_length_a 25.127605
_cell_length_b 8.911543
_cell_length_c 4.803441
_cell_angle_alpha 90.000000
_cell_angle_beta 90.000000
_cell_angle_gamma 90.000000
_cell_volume 1075.614044
_symmetry_space_group_name_H-M "A B A 2"
_symmetry_group_IT_number 41
_symmetry_cell_setting 'orthorhombic'
loop_
_space_group_symop_operation_xyz
x,y,z
-x,-y,z
1/2-x,y,1/2+z
1/2+x,-y,1/2+z
x,1/2+y,1/2+z
-x,1/2-y,1/2+z
1/2-x,1/2+y,z
1/2+x,1/2-y,z
loop_
_atom_site_type_symbol
_atom_site_label
_atom_site_fract_x
_atom_site_fract_y
_atom_site_fract_z
Si Si1 0.146251 0.296881 0.882020
Si Si2 0.000000 0.000000 0.196060
Si Si3 0.714443 0.465368 0.060703
Si Si4 0.573644 0.238952 0.404578
O O1 0.169281 0.436418 0.707690
O O2 0.116735 0.208008 0.633392
O O3 0.192877 0.203230 0.031997
O O4 0.102477 0.312113 0.121587
O O5 0.032894 0.125427 0.360655
O O6 0.957936 0.095979 0.019869
O O7 0.766435 0.493267 0.247739
#
# Coordination Sequence:
#
# PCOD9368013 Si02
#       4
#     8   4   8   8
#     4  12  27  47  76 110 150 198 252 313 377 452
#     4  12  30  52  80 114 156 204 256 318 382 456
#     4  12  25  46  74 109 150 197 250 310 377 450
#     4  12  29  51  78 114 154 202 256 315 383 454
#
# _framework density 26.031642000000002
#
# number of rings (size 3 to 8) (size 9 to 14) (size 15 to 20)
#    0.000    0.000    0.000    8.571    0.000   19.429 
#    0.000    0.000    0.000    0.000    0.000    0.000 
#    0.000    0.000    0.000    0.000    0.000    0.000 
#
# Total GULP energy -78511.437881 kJ/mol
# GULP energy per Si atom -5607.959849 kJ/mol
# Density = 2.597239 g / cm^3
# Si number density = 26.031642 Si / 1000 Ang^3
#
#
#
# Elastic Constant Matrix: (Units=GPa)
#
#
# Indices 1 2 3 4 5 6 
#
# 1 76.9916 30.0438 35.4951 0.0000 0.0000 0.0000
# 2 30.0438 119.7300 25.4195 0.0000 0.0000 0.0000
# 3 35.4951 25.4195 137.7615 0.0000 0.0000 0.0000
# 4 0.0000 0.0000 0.0000 34.6764 0.0000 0.0000
# 5 0.0000 0.0000 0.0000 0.0000 31.2164 0.0000
# 6 0.0000 0.0000 0.0000 0.0000 0.0000 36.8150
#
#
#
# Elastic Compliance Matrix: (Units=1/GPa)
#
#
# Indices 1 2 3 4 5 6 
#
# 1 0.015861 -0.003239 -0.003489 0.000000 0.000000 0.000000
# 2 -0.003239 0.009354 -0.000891 0.000000 0.000000 0.000000
# 3 -0.003489 -0.000891 0.008322 0.000000 0.000000 0.000000
# 4 0.000000 0.000000 0.000000 0.028838 0.000000 0.000000
# 5 0.000000 0.000000 0.000000 0.000000 0.032034 0.000000
# 6 0.000000 0.000000 0.000000 0.000000 0.000000 0.027163
#
#
# Mechanical properties :
#
#
# Convention : Reuss Voigt Hill
#
# Bulk Modulus (GPa) = 54.64999 57.37775 56.01387
# Shear Modulus (GPa) = 34.98666 36.77653 35.88160
#
# Velocity S-wave (km/s) = 3.67004 3.76275 3.71669
# Velocity P-wave (km/s) = 6.24486 6.40056 6.32319
#
# Compressibility (1/GPa) = 0.01829826
#
# Stress axis : x y z
#
# Youngs Moduli (GPa) = 63.04786 106.90389 120.15831
#
# Poissons Ratio (x) = 0.34629 0.41923
# Poissons Ratio (y) = 0.20423 0.10711
# Poissons Ratio (z) = 0.21997 0.09529
#
# Static dielectric constant tensor:
#      x y z
#    x 2.067870 0.000000 0.000000 
#    y 0.000000 2.010950 0.000000 
#    z 0.000000 0.000000 1.988810 
# 
# From -- ./inp_files/1066.got.cif
#   From: 2010.05.17/outbox.cif.g08.bks.cpg/sg41_1_cif.got.tgz:1066.got - 2010.06.03 18:54:24.
