data_PCOD9368800
_publ_section_title
;
Structure prediction by ZEFSAII (Michael W. Deem and Ramdas Pophale) SiO2 
 PCOD9368800
Probable space group: F M M 2
;
_chemical_formula_sum "Si O2"
_cell_formula_units_Z 80
_cell_length_a 7.741959
_cell_length_b 20.229779
_cell_length_c 26.972589
_cell_angle_alpha 90.000000
_cell_angle_beta 90.000000
_cell_angle_gamma 90.000000
_cell_volume 4224.396170
_symmetry_space_group_name_H-M "F M M 2"
_symmetry_group_IT_number 42
_symmetry_cell_setting 'orthorhombic'
loop_
_space_group_symop_operation_xyz
x,y,z
-x,-y,z
-x,y,z
x,-y,z
x,1/2+y,1/2+z
-x,1/2-y,1/2+z
-x,1/2+y,1/2+z
x,1/2-y,1/2+z
1/2+x,y,1/2+z
1/2-x,-y,1/2+z
1/2-x,y,1/2+z
1/2+x,-y,1/2+z
1/2+x,1/2+y,z
1/2-x,1/2-y,z
1/2-x,1/2+y,z
1/2+x,1/2-y,z
loop_
_atom_site_type_symbol
_atom_site_label
_atom_site_fract_x
_atom_site_fract_y
_atom_site_fract_z
Si Si1 0.206920 0.574851 0.512950
Si Si2 0.787860 0.423468 0.297463
Si Si3 0.199733 0.919552 0.905851
Si Si4 0.205053 0.325634 0.100057
Si Si5 0.707951 0.673984 0.711426
O O1 0.270974 0.500000 0.522593
O O2 0.276516 0.599161 0.459287
O O3 0.238775 0.623633 0.558078
O O4 0.000000 0.570306 0.506830
O O5 0.738545 0.500000 0.289512
O O6 0.725777 0.401226 0.352222
O O7 0.728857 0.376202 0.253336
O O8 0.000000 0.422521 0.298795
O O9 0.000000 0.896964 0.905260
O O10 0.198443 0.000000 0.906185
O O11 0.250000 0.250000 0.087462
O O12 0.274768 0.339576 0.155599
O O13 0.000000 0.330110 0.103120
O O14 0.500000 0.667804 0.710251
O O15 0.750000 0.750000 0.723278
#
# Coordination Sequence:
#
# PCOD9368800 Si02
#       5
#    16  16  16  16  16
#     4   9  17  30  49  72  96 122 153 188 226 271
#     4   8  13  24  45  70  91 113 146 185 220 258
#     4   7  11  22  42  67  92 117 145 178 218 264
#     4  10  20  33  48  66  91 124 159 193 231 274
#     4   9  18  31  47  66  89 118 149 184 226 270
#
# _framework density 18.937616999999999
#
# number of rings (size 3 to 8) (size 9 to 14) (size 15 to 20)
#    0.000    3.400    0.000    3.000    0.000    2.000 
#    0.000    3.000    0.000    4.200    0.000    2.800 
#    0.000    0.000    0.000    0.000    0.000    0.000 
#
# Total GULP energy -111347.955357 kJ/mol
# GULP energy per Si atom -5567.397768 kJ/mol
# Density = 1.889451 g / cm^3
# Si number density = 18.937617 Si / 1000 Ang^3
#
#
#
# Elastic Constant Matrix: (Units=GPa)
#
#
# Indices 1 2 3 4 5 6 
#
# 1 28.7710 2.8965 9.8792 0.0000 0.0000 0.0000
# 2 2.8965 95.9105 125.2759 0.0000 0.0000 0.0000
# 3 9.8792 125.2759 215.8650 0.0000 0.0000 0.0000
# 4 0.0000 0.0000 0.0000 -28.6511 0.0000 0.0000
# 5 0.0000 0.0000 0.0000 0.0000 1.3693 0.0000
# 6 0.0000 0.0000 0.0000 0.0000 0.0000 11.4931
#
#
#
# Elastic Compliance Matrix: (Units=1/GPa)
#
#
# Indices 1 2 3 4 5 6 
#
# 1 0.035750 0.004370 -0.004172 0.000000 0.000000 0.000000
# 2 0.004370 0.043624 -0.025517 0.000000 0.000000 0.000000
# 3 -0.004172 -0.025517 0.019632 0.000000 0.000000 0.000000
# 4 0.000000 0.000000 0.000000 -0.034903 0.000000 0.000000
# 5 0.000000 0.000000 0.000000 0.000000 0.730326 0.000000
# 6 0.000000 0.000000 0.000000 0.000000 0.000000 0.087009
#
#
# Mechanical properties :
#
#
# Convention : Reuss Voigt Hill
#
# Bulk Modulus (GPa) = 20.67497 68.51662 44.59580
# Shear Modulus (GPa) = 5.27316 10.34190 7.80753
#
# Velocity S-wave (km/s) = 1.67049 2.33942 2.03266
# Velocity P-wave (km/s) = 3.82908 6.59969 5.39526
#
# Compressibility (1/GPa) = 0.04836765
#
# Stress axis : x y z
#
# Youngs Moduli (GPa) = 27.97214 22.92319 50.93718
#
# Poissons Ratio (x) = -0.10017 0.21252
# Poissons Ratio (y) = -0.12224 1.29976
# Poissons Ratio (z) = 0.11671 0.58493
#
# Static dielectric constant tensor:
#      x y z
#    x 1.710930 0.000000 0.000000 
#    y 0.000000 1.599390 0.000000 
#    z 0.000000 0.000000 1.719530 
# 
# From -- ./inp_files/31253.got.cif
#   From: 2010.05.17/outbox.cif.g08.bks.cpg/sg42_16_cif.got.tgz:31253.got - 2010.06.03 19:03:34.
