data_PCOD9368946
_publ_section_title
;
Structure prediction by ZEFSAII (Michael W. Deem and Ramdas Pophale) SiO2 
 PCOD9368946
Probable space group: F M M 2
;
_chemical_formula_sum "Si O2"
_cell_formula_units_Z 116
_cell_length_a 31.017947
_cell_length_b 7.845510
_cell_length_c 25.890164
_cell_angle_alpha 90.000000
_cell_angle_beta 90.000000
_cell_angle_gamma 90.000000
_cell_volume 6300.413180
_symmetry_space_group_name_H-M "F M M 2"
_symmetry_group_IT_number 42
_symmetry_cell_setting 'orthorhombic'
loop_
_space_group_symop_operation_xyz
x,y,z
-x,-y,z
-x,y,z
x,-y,z
x,1/2+y,1/2+z
-x,1/2-y,1/2+z
-x,1/2+y,1/2+z
x,1/2-y,1/2+z
1/2+x,y,1/2+z
1/2-x,-y,1/2+z
1/2-x,y,1/2+z
1/2+x,-y,1/2+z
1/2+x,1/2+y,z
1/2-x,1/2-y,z
1/2-x,1/2+y,z
1/2+x,1/2-y,z
loop_
_atom_site_type_symbol
_atom_site_label
_atom_site_fract_x
_atom_site_fract_y
_atom_site_fract_z
Si Si1 0.700586 0.204882 0.922270
Si Si2 0.298353 0.702917 0.214084
Si Si3 0.500000 0.500000 0.315215
Si Si4 0.437073 0.309880 0.788454
Si Si5 0.700394 0.205947 0.038783
Si Si6 0.048016 0.699233 0.673265
Si Si7 0.658370 0.292791 0.317759
Si Si8 0.635879 0.199157 0.126191
O O1 0.750000 0.250000 0.911101
O O2 0.672060 0.266650 0.874616
O O3 0.696737 0.000000 0.923762
O O4 0.691310 0.267768 0.980369
O O5 0.303201 0.500000 0.210442
O O6 0.250000 0.750000 0.198222
O O7 0.307439 0.754979 0.273222
O O8 0.334628 0.780489 0.177070
O O9 0.463106 0.652458 0.312333
O O10 0.449712 0.500000 0.805620
O O11 0.444267 0.297873 0.726619
O O12 0.387127 0.280866 0.800663
O O13 0.750000 0.250000 0.052068
O O14 0.665307 0.270647 0.079706
O O15 0.698230 0.000000 0.039096
O O16 0.046969 0.500000 0.688164
O O17 0.088732 0.724218 0.636152
O O18 0.000000 0.742623 0.652876
O O19 0.655823 0.500000 0.318175
O O20 0.628896 0.000000 0.116472
#
# Coordination Sequence:
#
# PCOD9368946 Si02
#       8
#    16  16   4  16  16  16  16  16
#     4   9  18  34  56  78 108 147 188 239 287 329
#     4  11  22  33  48  71 108 148 181 219 272 338
#     4  12  22  40  56  82 120 148 194 240 284 342
#     4  12  22  35  58  83 114 153 190 235 287 342
#     4   9  19  35  54  79 108 143 191 237 282 339
#     4  11  21  37  55  79 111 144 185 235 286 341
#     4  10  20  35  52  78 113 148 187 233 284 341
#     4  11  22  34  52  79 110 143 188 232 280 344
#
# _framework density 18.411491000000002
#
# number of rings (size 3 to 8) (size 9 to 14) (size 15 to 20)
#    0.000    1.517    3.448    2.276    0.000    4.138 
#    0.000    0.000    0.000    0.000    1.793    0.000 
#    0.000    0.000    0.000    0.000    0.000    0.138 
#
# Total GULP energy -161608.466579 kJ/mol
# GULP energy per Si atom -5572.705744 kJ/mol
# Density = 1.836959 g / cm^3
# Si number density = 18.411491 Si / 1000 Ang^3
#
#
#
# Elastic Constant Matrix: (Units=GPa)
#
#
# Indices 1 2 3 4 5 6 
#
# 1 144.1783 15.9930 60.0317 0.0000 -0.0002 0.0000
# 2 15.9930 68.0531 11.1220 -0.0004 -0.0009 0.0000
# 3 60.0317 11.1220 82.9587 -0.0001 -0.0002 0.0001
# 4 0.0000 -0.0004 -0.0001 9.0954 -0.0004 0.0000
# 5 -0.0002 -0.0009 -0.0002 -0.0004 10.7847 0.0007
# 6 0.0000 0.0000 0.0001 0.0000 0.0007 18.4757
#
#
#
# Elastic Compliance Matrix: (Units=1/GPa)
#
#
# Indices 1 2 3 4 5 6 
#
# 1 0.010021 -0.001196 -0.007091 0.000000 0.000000 0.000000
# 2 -0.001196 0.015166 -0.001168 0.000001 0.000001 0.000000
# 3 -0.007091 -0.001168 0.017342 0.000000 0.000000 0.000000
# 4 0.000000 0.000001 0.000000 0.109946 0.000004 0.000000
# 5 0.000000 0.000001 0.000000 0.000004 0.092724 -0.000003
# 6 0.000000 0.000000 0.000000 0.000000 -0.000003 0.054125
#
#
# Mechanical properties :
#
#
# Convention : Reuss Voigt Hill
#
# Bulk Modulus (GPa) = 42.33798 52.16482 47.25140
# Shear Modulus (GPa) = 15.33235 21.54073 18.43654
#
# Velocity S-wave (km/s) = 2.88889 3.42418 3.16786
# Velocity P-wave (km/s) = 5.84576 6.63533 6.25302
#
# Compressibility (1/GPa) = 0.02361946
#
# Stress axis : x y z
#
# Youngs Moduli (GPa) = 99.78912 65.93542 57.66269
#
# Poissons Ratio (x) = 0.07887 0.40890
# Poissons Ratio (y) = 0.11936 0.06734
# Poissons Ratio (z) = 0.70763 0.07700
#
# Static dielectric constant tensor:
#      x y z
#    x 1.620790 0.000000 0.000000 
#    y 0.000000 1.670640 0.000000 
#    z 0.000000 0.000000 1.647090 
# 
# From -- ./inp_files/30871.got.cif
#   From: 2010.05.17/outbox.cif.g08.bks.cpg/sg42_16_cif.got.tgz:30871.got - 2010.06.03 19:03:34.
