data_PCOD9368984
_publ_section_title
;
Structure prediction by ZEFSAII (Michael W. Deem and Ramdas Pophale) SiO2 
 PCOD9368984
Probable space group: F M M 2
;
_chemical_formula_sum "Si O2"
_cell_formula_units_Z 116
_cell_length_a 15.365495
_cell_length_b 26.672598
_cell_length_c 13.429901
_cell_angle_alpha 90.000000
_cell_angle_beta 90.000000
_cell_angle_gamma 90.000000
_cell_volume 5504.079350
_symmetry_space_group_name_H-M "F M M 2"
_symmetry_group_IT_number 42
_symmetry_cell_setting 'orthorhombic'
loop_
_space_group_symop_operation_xyz
x,y,z
-x,-y,z
-x,y,z
x,-y,z
x,1/2+y,1/2+z
-x,1/2-y,1/2+z
-x,1/2+y,1/2+z
x,1/2-y,1/2+z
1/2+x,y,1/2+z
1/2-x,-y,1/2+z
1/2-x,y,1/2+z
1/2+x,-y,1/2+z
1/2+x,1/2+y,z
1/2-x,1/2-y,z
1/2-x,1/2+y,z
1/2+x,1/2-y,z
loop_
_atom_site_type_symbol
_atom_site_label
_atom_site_fract_x
_atom_site_fract_y
_atom_site_fract_z
Si Si1 0.868913 0.090828 0.057200
Si Si2 0.634792 0.944628 0.906270
Si Si3 0.000000 0.500000 0.605229
Si Si4 0.160888 0.444336 0.348338
Si Si5 0.606432 0.694683 0.565484
Si Si6 0.397035 0.800653 0.646167
Si Si7 0.669486 0.909871 0.123955
Si Si8 0.399674 0.835590 0.850825
O O1 0.890984 0.147210 0.088452
O O2 0.770599 0.082936 0.096650
O O3 0.925242 0.045171 0.100274
O O4 0.877339 0.088847 0.936981
O O5 0.736258 0.944968 0.874875
O O6 0.599417 0.895992 0.849844
O O7 0.600053 0.000000 0.882170
O O8 0.623858 0.933806 0.025176
O O9 0.125160 0.500000 0.365579
O O10 0.149056 0.431467 0.232745
O O11 0.500000 0.691342 0.567679
O O12 0.636006 0.749691 0.597562
O O13 0.644103 0.648634 0.628174
O O14 0.639356 0.682436 0.454257
O O15 0.500000 0.791411 0.658530
O O16 0.356773 0.812251 0.754050
O O17 0.500000 0.819367 0.853346
#
# Coordination Sequence:
#
# PCOD9368984 Si02
#       8
#    16  16   4  16  16  16  16  16
#     4  11  23  40  61  89 130 163 205 256 310 373
#     4   9  18  33  52  77 113 153 197 251 307 360
#     4  12  24  44  60  92 134 170 196 264 306 372
#     4  10  20  35  56  83 116 159 199 251 303 363
#     4   9  20  39  60  83 122 161 206 266 313 358
#     4  10  20  37  59  87 117 162 206 254 314 373
#     4  10  21  37  60  88 117 165 212 252 310 373
#     4   9  18  34  53  81 113 151 204 257 304 360
#
# _framework density 21.075277
#
# number of rings (size 3 to 8) (size 9 to 14) (size 15 to 20)
#    0.000    2.207    1.379    1.241    1.931    1.931 
#    2.483    1.379    0.000    5.793    0.000    0.000 
#    0.000    0.000    0.000    0.000    0.000    0.000 
#
# Total GULP energy -161452.631776 kJ/mol
# GULP energy per Si atom -5567.332130 kJ/mol
# Density = 2.102731 g / cm^3
# Si number density = 21.075277 Si / 1000 Ang^3
#
#
#
# Elastic Constant Matrix: (Units=GPa)
#
#
# Indices 1 2 3 4 5 6 
#
# 1 39.1777 14.7668 -11.9424 0.0000 0.0000 0.0000
# 2 14.7668 149.7174 47.9128 0.0000 0.0000 0.0000
# 3 -11.9424 47.9128 95.3828 0.0000 0.0000 0.0000
# 4 0.0000 0.0000 0.0000 21.2564 0.0000 0.0000
# 5 0.0000 0.0000 0.0000 0.0000 8.3075 0.0000
# 6 0.0000 0.0000 0.0000 0.0000 0.0000 47.7092
#
#
#
# Elastic Compliance Matrix: (Units=1/GPa)
#
#
# Indices 1 2 3 4 5 6 
#
# 1 0.029197 -0.004825 0.006079 0.000000 0.000000 0.000000
# 2 -0.004825 0.008756 -0.005002 0.000000 0.000000 0.000000
# 3 0.006079 -0.005002 0.013758 0.000000 0.000000 0.000000
# 4 0.000000 0.000000 0.000000 0.047045 0.000000 0.000000
# 5 0.000000 0.000000 0.000000 0.000000 0.120373 0.000000
# 6 0.000000 0.000000 0.000000 0.000000 0.000000 0.020960
#
#
# Mechanical properties :
#
#
# Convention : Reuss Voigt Hill
#
# Bulk Modulus (GPa) = 22.61724 42.86136 32.73930
# Shear Modulus (GPa) = 19.06042 31.02401 25.04221
#
# Velocity S-wave (km/s) = 3.01058 3.84090 3.45081
# Velocity P-wave (km/s) = 4.77910 6.32862 5.60764
#
# Compressibility (1/GPa) = 0.04421406
#
# Stress axis : x y z
#
# Youngs Moduli (GPa) = 34.25058 114.20652 72.68453
#
# Poissons Ratio (x) = 0.55107 -0.44188
# Poissons Ratio (y) = 0.16527 0.36360
# Poissons Ratio (z) = -0.20822 0.57132
#
# Static dielectric constant tensor:
#      x y z
#    x 1.808380 0.000000 0.000000 
#    y 0.000000 1.741760 0.000000 
#    z 0.000000 0.000000 1.803510 
# 
# From -- ./inp_files/15397.got.cif
#   From: 2010.05.17/outbox.cif.g08.bks.cpg/sg42_8_cif.got.tgz:15397.got - 2010.06.03 19:03:34.
