data_PCOD9368883
_publ_section_title
;
Structure prediction by ZEFSAII (Michael W. Deem and Ramdas Pophale) SiO2 
 PCOD9368883
Probable space group: F M M 2
;
_chemical_formula_sum "Si O2"
_cell_formula_units_Z 80
_cell_length_a 7.924950
_cell_length_b 31.677040
_cell_length_c 14.827031
_cell_angle_alpha 90.000000
_cell_angle_beta 90.000000
_cell_angle_gamma 90.000000
_cell_volume 3722.162415
_symmetry_space_group_name_H-M "F M M 2"
_symmetry_group_IT_number 42
_symmetry_cell_setting 'orthorhombic'
loop_
_space_group_symop_operation_xyz
x,y,z
-x,-y,z
-x,y,z
x,-y,z
x,1/2+y,1/2+z
-x,1/2-y,1/2+z
-x,1/2+y,1/2+z
x,1/2-y,1/2+z
1/2+x,y,1/2+z
1/2-x,-y,1/2+z
1/2-x,y,1/2+z
1/2+x,-y,1/2+z
1/2+x,1/2+y,z
1/2-x,1/2-y,z
1/2-x,1/2+y,z
1/2+x,1/2-y,z
loop_
_atom_site_type_symbol
_atom_site_label
_atom_site_fract_x
_atom_site_fract_y
_atom_site_fract_z
Si Si1 0.297783 0.544929 0.108160
Si Si2 0.799793 0.454408 0.826229
Si Si3 0.301348 0.637269 0.815066
Si Si4 0.299551 0.135761 0.608845
Si Si5 0.203571 0.201270 0.965752
O O1 0.500000 0.544494 0.091168
O O2 0.227197 0.500000 0.075030
O O3 0.278105 0.545161 0.217136
O O4 0.227488 0.590135 0.078153
O O5 0.732266 0.500000 0.859071
O O6 0.724610 0.409764 0.855734
O O7 0.000000 0.453318 0.843330
O O8 0.500000 0.643182 0.803430
O O9 0.223165 0.639626 0.715815
O O10 0.235451 0.673621 0.880833
O O11 0.500000 0.133481 0.591983
O O12 0.234170 0.175684 0.553636
O O13 0.250000 0.250000 0.963739
O O14 0.000000 0.199656 0.964838
#
# Coordination Sequence:
#
# PCOD9368883 Si02
#       5
#    16  16  16  16  16
#     4   7  10  20  43  72  97 124 161 200 236 284
#     4   8  14  27  49  76 106 143 181 210 246 306
#     4  10  20  34  53  81 112 138 170 218 271 316
#     4   9  18  35  56  77 103 138 178 214 253 313
#     4  10  23  40  56  76 104 137 177 225 274 323
#
# _framework density 21.492882999999999
#
# number of rings (size 3 to 8) (size 9 to 14) (size 15 to 20)
#    0.000    3.200    0.000    3.000    0.000    3.600 
#    0.000    5.000    0.000    3.600    0.000    0.000 
#    0.000    0.000    0.000    0.000    0.000    0.000 
#
# Total GULP energy -111475.581249 kJ/mol
# GULP energy per Si atom -5573.779062 kJ/mol
# Density = 2.144396 g / cm^3
# Si number density = 21.492883 Si / 1000 Ang^3
#
#
#
# Elastic Constant Matrix: (Units=GPa)
#
#
# Indices 1 2 3 4 5 6 
#
# 1 14.4260 10.7851 -3.9394 0.0000 0.0000 0.0000
# 2 10.7851 256.4100 75.9305 0.0000 0.0000 0.0000
# 3 -3.9394 75.9305 77.9823 0.0000 0.0000 0.0000
# 4 0.0000 0.0000 0.0000 43.7791 0.0000 0.0000
# 5 0.0000 0.0000 0.0000 0.0000 9.9338 0.0000
# 6 0.0000 0.0000 0.0000 0.0000 0.0000 12.0092
#
#
#
# Elastic Compliance Matrix: (Units=1/GPa)
#
#
# Indices 1 2 3 4 5 6 
#
# 1 0.076596 -0.006137 0.009845 0.000000 0.000000 0.000000
# 2 -0.006137 0.005972 -0.006125 0.000000 0.000000 0.000000
# 3 0.009845 -0.006125 0.019284 0.000000 0.000000 0.000000
# 4 0.000000 0.000000 0.000000 0.022842 0.000000 0.000000
# 5 0.000000 0.000000 0.000000 0.000000 0.100666 0.000000
# 6 0.000000 0.000000 0.000000 0.000000 0.000000 0.083269
#
#
# Mechanical properties :
#
#
# Convention : Reuss Voigt Hill
#
# Bulk Modulus (GPa) = 10.30729 57.15231 33.72980
# Shear Modulus (GPa) = 14.45908 30.88056 22.66982
#
# Velocity S-wave (km/s) = 2.59653 3.79460 3.25123
# Velocity P-wave (km/s) = 3.71422 6.77109 5.46091
#
# Compressibility (1/GPa) = 0.09701867
#
# Stress axis : x y z
#
# Youngs Moduli (GPa) = 13.05548 167.45172 51.85544
#
# Poissons Ratio (x) = 1.02768 -0.51052
# Poissons Ratio (y) = 0.08012 0.31760
# Poissons Ratio (z) = -0.12853 1.02560
#
# Static dielectric constant tensor:
#      x y z
#    x 1.766570 0.000000 0.000000 
#    y 0.000000 1.823590 0.000000 
#    z 0.000000 0.000000 1.811650 
# 
# From -- ./inp_files/18212.got.cif
#   From: 2010.05.17/outbox.cif.g08.bks.cpg/sg42_10_cif.got.tgz:18212.got - 2010.06.03 19:03:34.
