data_PCOD9368619
_publ_section_title
;
Structure prediction by ZEFSAII (Michael W. Deem and Ramdas Pophale) SiO2 
 PCOD9368619
Probable space group: F M M 2
;
_chemical_formula_sum "Si O2"
_cell_formula_units_Z 80
_cell_length_a 13.428013
_cell_length_b 18.835078
_cell_length_c 17.935213
_cell_angle_alpha 90.000000
_cell_angle_beta 90.000000
_cell_angle_gamma 90.000000
_cell_volume 4536.132323
_symmetry_space_group_name_H-M "F M M 2"
_symmetry_group_IT_number 42
_symmetry_cell_setting 'orthorhombic'
loop_
_space_group_symop_operation_xyz
x,y,z
-x,-y,z
-x,y,z
x,-y,z
x,1/2+y,1/2+z
-x,1/2-y,1/2+z
-x,1/2+y,1/2+z
x,1/2-y,1/2+z
1/2+x,y,1/2+z
1/2-x,-y,1/2+z
1/2-x,y,1/2+z
1/2+x,-y,1/2+z
1/2+x,1/2+y,z
1/2-x,1/2-y,z
1/2-x,1/2+y,z
1/2+x,1/2-y,z
loop_
_atom_site_type_symbol
_atom_site_label
_atom_site_fract_x
_atom_site_fract_y
_atom_site_fract_z
Si Si1 0.618936 0.082410 0.001770
Si Si2 0.188623 0.858174 0.345199
Si Si3 0.383549 0.296484 0.790210
Si Si4 0.212092 0.176558 0.629356
Si Si5 0.114587 0.918374 0.197716
O O1 0.500000 0.083849 0.994701
O O2 0.651164 0.128195 0.072950
O O3 0.650270 0.000000 0.008996
O O4 0.664254 0.117423 0.927736
O O5 0.306768 0.848737 0.331940
O O6 0.140693 0.781973 0.322209
O O7 0.142528 0.911769 0.284893
O O8 0.500000 0.311914 0.798343
O O9 0.350308 0.301962 0.703464
O O10 0.250000 0.250000 0.593953
O O11 0.307885 0.131994 0.656145
O O12 0.000000 0.896059 0.187262
O O13 0.124947 0.000000 0.173856
#
# Coordination Sequence:
#
# PCOD9368619 Si02
#       5
#    16  16  16  16  16
#     4  11  24  40  59  84 118 159 198 240 291 348
#     4  10  20  35  57  87 113 148 193 242 284 344
#     4  10  19  36  59  87 117 147 189 243 295 343
#     4  11  22  37  57  87 119 152 194 237 289 349
#     4  10  19  34  58  84 112 149 194 243 288 334
#
# _framework density 17.636168999999999
#
# number of rings (size 3 to 8) (size 9 to 14) (size 15 to 20)
#    0.000    1.600    4.000    3.600    2.800    2.400 
#    0.000    1.000    0.000   13.200    0.000    0.000 
#    0.000    0.000    0.000    0.000    0.000    0.000 
#
# Total GULP energy -111635.830870 kJ/mol
# GULP energy per Si atom -5581.791544 kJ/mol
# Density = 1.759603 g / cm^3
# Si number density = 17.636169 Si / 1000 Ang^3
#
#
#
# Elastic Constant Matrix: (Units=GPa)
#
#
# Indices 1 2 3 4 5 6 
#
# 1 133.8407 41.2924 29.0513 0.0000 0.0000 0.0000
# 2 41.2924 95.4954 52.1597 0.0000 0.0000 0.0000
# 3 29.0513 52.1597 87.2482 0.0000 0.0000 0.0000
# 4 0.0000 0.0000 0.0000 17.1517 0.0000 0.0000
# 5 0.0000 0.0000 0.0000 0.0000 14.4041 0.0000
# 6 0.0000 0.0000 0.0000 0.0000 0.0000 20.5307
#
#
#
# Elastic Compliance Matrix: (Units=1/GPa)
#
#
# Indices 1 2 3 4 5 6 
#
# 1 0.008675 -0.003227 -0.000959 0.000000 0.000000 0.000000
# 2 -0.003227 0.016750 -0.008939 0.000000 0.000000 0.000000
# 3 -0.000959 -0.008939 0.017125 0.000000 0.000000 0.000000
# 4 0.000000 0.000000 0.000000 0.058303 0.000000 0.000000
# 5 0.000000 0.000000 0.000000 0.000000 0.069425 0.000000
# 6 0.000000 0.000000 0.000000 0.000000 0.000000 0.048707
#
#
# Mechanical properties :
#
#
# Convention : Reuss Voigt Hill
#
# Bulk Modulus (GPa) = 61.35322 62.39902 61.87612
# Shear Modulus (GPa) = 19.94658 23.35602 21.65130
#
# Velocity S-wave (km/s) = 3.36669 3.64308 3.50761
# Velocity P-wave (km/s) = 7.06941 7.29069 7.18090
#
# Compressibility (1/GPa) = 0.01629906
#
# Stress axis : x y z
#
# Youngs Moduli (GPa) = 115.26735 59.70282 58.39449
#
# Poissons Ratio (x) = 0.19268 0.05602
# Poissons Ratio (y) = 0.37201 0.52198
# Poissons Ratio (z) = 0.11058 0.53367
#
# Static dielectric constant tensor:
#      x y z
#    x 1.593750 0.000000 0.000000 
#    y 0.000000 1.615460 0.000000 
#    z 0.000000 0.000000 1.584950 
# 
# From -- ./inp_files/19830.got.cif
#   From: 2010.05.17/outbox.cif.g08.bks.cpg/sg42_10_cif.got.tgz:19830.got - 2010.06.03 19:03:34.
