data_PCOD9368277
_publ_section_title
;
Structure prediction by ZEFSAII (Michael W. Deem and Ramdas Pophale) SiO2 
 PCOD9368277
Probable space group: F M M 2
;
_chemical_formula_sum "Si O2"
_cell_formula_units_Z 112
_cell_length_a 16.581422
_cell_length_b 15.319770
_cell_length_c 23.752873
_cell_angle_alpha 90.000000
_cell_angle_beta 90.000000
_cell_angle_gamma 90.000000
_cell_volume 6033.789628
_symmetry_space_group_name_H-M "F M M 2"
_symmetry_group_IT_number 42
_symmetry_cell_setting 'orthorhombic'
loop_
_space_group_symop_operation_xyz
x,y,z
-x,-y,z
-x,y,z
x,-y,z
x,1/2+y,1/2+z
-x,1/2-y,1/2+z
-x,1/2+y,1/2+z
x,1/2-y,1/2+z
1/2+x,y,1/2+z
1/2-x,-y,1/2+z
1/2-x,y,1/2+z
1/2+x,-y,1/2+z
1/2+x,1/2+y,z
1/2-x,1/2-y,z
1/2-x,1/2+y,z
1/2+x,1/2-y,z
loop_
_atom_site_type_symbol
_atom_site_label
_atom_site_fract_x
_atom_site_fract_y
_atom_site_fract_z
Si Si1 0.087822 0.601140 0.674170
Si Si2 0.305522 0.397845 0.982055
Si Si3 0.911454 0.282080 0.562717
Si Si4 0.241640 0.851451 0.670844
Si Si5 0.590853 0.894492 0.376793
Si Si6 0.909523 0.894361 0.747603
Si Si7 0.837229 0.904170 0.559393
O O1 0.088260 0.500000 0.655201
O O2 0.088903 0.667877 0.622116
O O3 0.175837 0.617263 0.701007
O O4 0.000000 0.613913 0.703575
O O5 0.329799 0.500000 0.991545
O O6 0.348813 0.331185 0.023572
O O7 0.212454 0.394421 0.001113
O O8 0.337848 0.372944 0.920199
O O9 0.892058 0.180076 0.568211
O O10 0.000000 0.293192 0.537768
O O11 0.250000 0.750000 0.656891
O O12 0.162693 0.863231 0.708687
O O13 0.225500 0.900591 0.611950
O O14 0.500000 0.866790 0.395027
O O15 0.602773 0.865456 0.312354
O O16 0.588858 0.000000 0.374622
O O17 0.000000 0.866560 0.729559
O O18 0.908655 0.000000 0.746339
O O19 0.876303 0.000000 0.560696
#
# Coordination Sequence:
#
# PCOD9368277 Si02
#       7
#    16  16  16  16  16  16  16
#     4  10  20  34  52  75 105 140 179 222 267 318
#     4  10  18  31  54  80 107 139 173 217 274 325
#     4  11  21  33  49  75 106 137 176 220 265 322
#     4  12  21  35  54  74 111 147 182 226 276 323
#     4   8  15  30  52  80 110 137 174 224 273 322
#     4   9  19  35  56  82 109 141 184 229 274 328
#     4  11  22  36  51  72 105 144 183 222 268 328
#
# _framework density 18.562131999999998
#
# number of rings (size 3 to 8) (size 9 to 14) (size 15 to 20)
#    0.000    1.857    2.857    3.429    0.000    2.857 
#    0.000    1.429    0.000    0.000    0.000    1.000 
#    0.000    3.429    0.000    0.000    0.000    0.000 
#
# Total GULP energy -155957.818651 kJ/mol
# GULP energy per Si atom -5569.922095 kJ/mol
# Density = 1.851988 g / cm^3
# Si number density = 18.562132 Si / 1000 Ang^3
#
#
#
# Elastic Constant Matrix: (Units=GPa)
#
#
# Indices 1 2 3 4 5 6 
#
# 1 73.9132 11.0016 31.0596 0.0000 0.0000 0.0000
# 2 11.0016 90.7785 -0.5473 0.0000 0.0000 0.0000
# 3 31.0596 -0.5473 59.3513 0.0000 0.0000 0.0000
# 4 0.0000 0.0000 0.0000 0.5939 0.0000 0.0000
# 5 0.0000 0.0000 0.0000 0.0000 26.7345 0.0000
# 6 0.0000 0.0000 0.0000 0.0000 0.0000 22.8027
#
#
#
# Elastic Compliance Matrix: (Units=1/GPa)
#
#
# Indices 1 2 3 4 5 6 
#
# 1 0.017776 -0.002211 -0.009323 0.000000 0.000000 0.000000
# 2 -0.002211 0.011291 0.001261 0.000000 0.000000 0.000000
# 3 -0.009323 0.001261 0.021739 0.000000 0.000000 0.000000
# 4 0.000000 0.000000 0.000000 1.683922 0.000000 0.000000
# 5 0.000000 0.000000 0.000000 0.000000 0.037405 0.000000
# 6 0.000000 0.000000 0.000000 0.000000 0.000000 0.043855
#
#
# Mechanical properties :
#
#
# Convention : Reuss Voigt Hill
#
# Bulk Modulus (GPa) = 33.04509 34.11896 33.58203
# Shear Modulus (GPa) = 2.70765 22.19481 12.45123
#
# Velocity S-wave (km/s) = 1.20907 3.46165 2.59276
# Velocity P-wave (km/s) = 4.44862 5.86500 5.20521
#
# Compressibility (1/GPa) = 0.03026168
#
# Stress axis : x y z
#
# Youngs Moduli (GPa) = 56.25540 88.56357 45.99959
#
# Poissons Ratio (x) = 0.19577 0.42885
# Poissons Ratio (y) = 0.12435 -0.05800
# Poissons Ratio (z) = 0.52447 -0.11167
#
# Static dielectric constant tensor:
#      x y z
#    x 1.710850 0.000000 0.000000 
#    y 0.000000 1.639280 0.000000 
#    z 0.000000 0.000000 1.638620 
# 
# From -- ./inp_files/29467.got.cif
#   From: 2010.05.17/outbox.cif.g08.bks.cpg/sg42_15_cif.got.tgz:29467.got - 2010.06.03 19:03:34.
