data_PCOD9368710
_publ_section_title
;
Structure prediction by ZEFSAII (Michael W. Deem and Ramdas Pophale) SiO2 
 PCOD9368710
Probable space group: F M M 2
;
_chemical_formula_sum "Si O2"
_cell_formula_units_Z 100
_cell_length_a 7.474539
_cell_length_b 30.732425
_cell_length_c 20.608898
_cell_angle_alpha 90.000000
_cell_angle_beta 90.000000
_cell_angle_gamma 90.000000
_cell_volume 4734.084576
_symmetry_space_group_name_H-M "F M M 2"
_symmetry_group_IT_number 42
_symmetry_cell_setting 'orthorhombic'
loop_
_space_group_symop_operation_xyz
x,y,z
-x,-y,z
-x,y,z
x,-y,z
x,1/2+y,1/2+z
-x,1/2-y,1/2+z
-x,1/2+y,1/2+z
x,1/2-y,1/2+z
1/2+x,y,1/2+z
1/2-x,-y,1/2+z
1/2-x,y,1/2+z
1/2+x,-y,1/2+z
1/2+x,1/2+y,z
1/2-x,1/2-y,z
1/2-x,1/2+y,z
1/2+x,1/2-y,z
loop_
_atom_site_type_symbol
_atom_site_label
_atom_site_fract_x
_atom_site_fract_y
_atom_site_fract_z
Si Si1 0.500000 0.500000 0.852066
Si Si2 0.295802 0.569432 0.316882
Si Si3 0.781690 0.550648 0.551072
Si Si4 0.217178 0.116179 0.937570
Si Si5 0.786542 0.703008 0.506644
Si Si6 0.282206 0.105384 0.678456
Si Si7 0.214161 0.297734 0.654435
O O1 0.656536 0.537002 0.848654
O O2 0.500000 0.553333 0.313107
O O3 0.290451 0.609958 0.365694
O O4 0.233564 0.580868 0.244409
O O5 0.724104 0.500000 0.552450
O O6 0.728883 0.576961 0.486382
O O7 0.725332 0.578698 0.614267
O O8 0.000000 0.549928 0.551332
O O9 0.279691 0.161327 0.968560
O O10 0.000000 0.116556 0.935664
O O11 0.750000 0.750000 0.476503
O O12 0.715750 0.703582 0.580304
O O13 0.000000 0.698080 0.511750
O O14 0.500000 0.105834 0.676217
O O15 0.221757 0.155731 0.681331
O O16 0.250000 0.250000 0.684358
O O17 0.000000 0.300958 0.652777
#
# Coordination Sequence:
#
# PCOD9368710 Si02
#       7
#     4  16  16  16  16  16  16
#     4  12  26  48  64  90 124 168 210 254 300 370
#     4  11  25  42  67  91 122 165 209 251 308 369
#     4   9  17  29  55  85 113 152 199 245 310 370
#     4  10  19  36  59  88 123 162 202 257 312 368
#     4   9  17  30  54  85 120 159 202 249 308 366
#     4   9  18  36  58  87 119 157 202 251 303 369
#     4   9  16  31  54  84 119 155 201 248 304 367
#
# _framework density 21.123408000000001
#
# number of rings (size 3 to 8) (size 9 to 14) (size 15 to 20)
#    0.000    2.400    2.400    0.240    2.240    0.640 
#    1.440    0.800    1.760    3.840    0.000    0.000 
#    0.000    0.000    0.000    0.000    0.000    0.000 
#
# Total GULP energy -139206.942438 kJ/mol
# GULP energy per Si atom -5568.277698 kJ/mol
# Density = 2.107533 g / cm^3
# Si number density = 21.123408 Si / 1000 Ang^3
#
#
#
# Elastic Constant Matrix: (Units=GPa)
#
#
# Indices 1 2 3 4 5 6 
#
# 1 76.1951 6.4613 -1.7176 0.0000 0.0000 0.0000
# 2 6.4613 114.8330 4.6959 0.0000 0.0000 0.0000
# 3 -1.7176 4.6959 68.2228 0.0000 0.0000 0.0000
# 4 0.0000 0.0000 0.0000 -224.9424 0.0000 0.0000
# 5 0.0000 0.0000 0.0000 0.0000 -9.3590 0.0000
# 6 0.0000 0.0000 0.0000 0.0000 0.0000 34.7602
#
#
#
# Elastic Compliance Matrix: (Units=1/GPa)
#
#
# Indices 1 2 3 4 5 6 
#
# 1 0.013197 -0.000758 0.000384 0.000000 0.000000 0.000000
# 2 -0.000758 0.008776 -0.000623 0.000000 0.000000 0.000000
# 3 0.000384 -0.000623 0.014710 0.000000 0.000000 0.000000
# 4 0.000000 0.000000 0.000000 -0.004446 0.000000 0.000000
# 5 0.000000 0.000000 0.000000 0.000000 -0.106849 0.000000
# 6 0.000000 0.000000 0.000000 0.000000 0.000000 0.028769
#
#
# Mechanical properties :
#
#
# Convention : Reuss Voigt Hill
#
# Bulk Modulus (GPa) = 28.82677 30.90337 29.86507
# Shear Modulus (GPa) = -154.87231 -23.25417 -89.06324
#
# Velocity S-wave (km/s) = -8.57187 -3.32154 -6.50037
# Velocity P-wave (km/s) = 9.18112 0.22019 6.49390
#
# Compressibility (1/GPa) = 0.03468998
#
# Stress axis : x y z
#
# Youngs Moduli (GPa) = 75.77377 113.94127 67.97900
#
# Poissons Ratio (x) = 0.08640 -0.02613
# Poissons Ratio (y) = 0.05746 0.04236
# Poissons Ratio (z) = -0.02913 0.07101
#
# Static dielectric constant tensor:
#      x y z
#    x 1.817240 0.000000 0.000000 
#    y 0.000000 1.968700 0.000000 
#    z 0.000000 0.000000 1.731310 
# 
# From -- ./inp_files/23961.got.cif
#   From: 2010.05.17/outbox.cif.g08.bks.cpg/sg42_12_cif.got.tgz:23961.got - 2010.06.03 19:03:34.
