data_PCOD9368482
_publ_section_title
;
Structure prediction by ZEFSAII (Michael W. Deem and Ramdas Pophale) SiO2 
 PCOD9368482
Probable space group: F M M 2
;
_chemical_formula_sum "Si O2"
_cell_formula_units_Z 112
_cell_length_a 13.556448
_cell_length_b 30.372848
_cell_length_c 12.890530
_cell_angle_alpha 90.000000
_cell_angle_beta 90.000000
_cell_angle_gamma 90.000000
_cell_volume 5307.649102
_symmetry_space_group_name_H-M "F M M 2"
_symmetry_group_IT_number 42
_symmetry_cell_setting 'orthorhombic'
loop_
_space_group_symop_operation_xyz
x,y,z
-x,-y,z
-x,y,z
x,-y,z
x,1/2+y,1/2+z
-x,1/2-y,1/2+z
-x,1/2+y,1/2+z
x,1/2-y,1/2+z
1/2+x,y,1/2+z
1/2-x,-y,1/2+z
1/2-x,y,1/2+z
1/2+x,-y,1/2+z
1/2+x,1/2+y,z
1/2-x,1/2-y,z
1/2-x,1/2+y,z
1/2+x,1/2-y,z
loop_
_atom_site_type_symbol
_atom_site_label
_atom_site_fract_x
_atom_site_fract_y
_atom_site_fract_z
Si Si1 0.611159 0.669857 0.429980
Si Si2 0.668012 0.047319 0.383861
Si Si3 0.109529 0.570159 0.843487
Si Si4 0.720355 0.798097 0.745712
Si Si5 0.178042 0.450401 0.616721
Si Si6 0.216698 0.144491 0.065858
Si Si7 0.386511 0.858558 0.344246
O O1 0.500000 0.678527 0.459518
O O2 0.616752 0.622094 0.371478
O O3 0.652254 0.704433 0.347189
O O4 0.682488 0.666473 0.527535
O O5 0.788397 0.050511 0.388993
O O6 0.628445 0.048549 0.502424
O O7 0.632184 0.089672 0.321746
O O8 0.641636 0.000000 0.338675
O O9 0.116100 0.559035 0.720795
O O10 0.000000 0.555718 0.880087
O O11 0.750000 0.750000 0.709889
O O12 0.670069 0.826680 0.656182
O O13 0.814746 0.827077 0.780295
O O14 0.220984 0.500000 0.628548
O O15 0.239004 0.405095 0.604301
O O16 0.148241 0.144440 0.964310
O O17 0.500000 0.847560 0.330959
#
# Coordination Sequence:
#
# PCOD9368482 Si02
#       7
#    16  16  16  16  16  16  16
#     4  10  21  39  63  89 120 154 196 247 302 360
#     4  10  20  37  58  88 127 163 202 251 301 352
#     4  11  20  35  60  89 117 157 203 246 296 351
#     4  11  23  41  64  89 119 155 198 252 310 366
#     4  10  19  32  53  84 122 159 198 241 287 342
#     4  10  20  40  60  89 119 160 200 245 299 357
#     4  10  22  41  61  87 122 161 201 247 301 362
#
# _framework density 21.10162
#
# number of rings (size 3 to 8) (size 9 to 14) (size 15 to 20)
#    0.000    1.714    5.714    0.429    0.000    7.714 
#    0.000    2.857    0.000    0.429    0.000    2.000 
#    0.000    0.000    0.000    0.000    0.000    0.000 
#
# Total GULP energy -156062.691342 kJ/mol
# GULP energy per Si atom -5573.667548 kJ/mol
# Density = 2.105359 g / cm^3
# Si number density = 21.101620 Si / 1000 Ang^3
#
#
#
# Elastic Constant Matrix: (Units=GPa)
#
#
# Indices 1 2 3 4 5 6 
#
# 1 49.6616 -31.3157 -16.3063 0.0000 0.0000 0.0000
# 2 -31.3157 77.1417 6.1170 0.0000 0.0000 0.0000
# 3 -16.3063 6.1170 53.0480 0.0000 0.0000 0.0000
# 4 0.0000 0.0000 0.0000 12.0670 0.0000 0.0000
# 5 0.0000 0.0000 0.0000 0.0000 -3.0968 0.0000
# 6 0.0000 0.0000 0.0000 0.0000 0.0000 3.9824
#
#
#
# Elastic Compliance Matrix: (Units=1/GPa)
#
#
# Indices 1 2 3 4 5 6 
#
# 1 0.030018 0.011560 0.007894 0.000000 0.000000 0.000000
# 2 0.011560 0.017534 0.001531 0.000000 0.000000 0.000000
# 3 0.007894 0.001531 0.021101 0.000000 0.000000 0.000000
# 4 0.000000 0.000000 0.000000 0.082871 0.000000 0.000000
# 5 0.000000 0.000000 0.000000 0.000000 -0.322915 0.000000
# 6 0.000000 0.000000 0.000000 0.000000 0.000000 0.251107
#
#
# Mechanical properties :
#
#
# Convention : Reuss Voigt Hill
#
# Bulk Modulus (GPa) = 9.03968 10.76014 9.89991
# Shear Modulus (GPa) = 67.00597 17.34759 42.17678
#
# Velocity S-wave (km/s) = 5.64118 2.87034 4.47558
# Velocity P-wave (km/s) = 6.83547 4.01190 5.60442
#
# Compressibility (1/GPa) = 0.11062341
#
# Stress axis : x y z
#
# Youngs Moduli (GPa) = 33.31370 57.03071 47.39152
#
# Poissons Ratio (x) = -0.65926 -0.37411
# Poissons Ratio (y) = -0.38510 -0.07258
# Poissons Ratio (z) = -0.26298 -0.08734
#
# Static dielectric constant tensor:
#      x y z
#    x 1.764250 0.000000 0.000000 
#    y 0.000000 1.776370 0.000000 
#    z 0.000000 0.000000 1.755560 
# 
# From -- ./inp_files/14504.got.cif
#   From: 2010.05.17/outbox.cif.g08.bks.cpg/sg42_8_cif.got.tgz:14504.got - 2010.06.03 19:03:34.
