data_PCOD9368739
_publ_section_title
;
Structure prediction by ZEFSAII (Michael W. Deem and Ramdas Pophale) SiO2 
 PCOD9368739
Probable space group: F M M 2
;
_chemical_formula_sum "Si O2"
_cell_formula_units_Z 116
_cell_length_a 31.697599
_cell_length_b 17.751626
_cell_length_c 9.681554
_cell_angle_alpha 90.000000
_cell_angle_beta 90.000000
_cell_angle_gamma 90.000000
_cell_volume 5447.654781
_symmetry_space_group_name_H-M "F M M 2"
_symmetry_group_IT_number 42
_symmetry_cell_setting 'orthorhombic'
loop_
_space_group_symop_operation_xyz
x,y,z
-x,-y,z
-x,y,z
x,-y,z
x,1/2+y,1/2+z
-x,1/2-y,1/2+z
-x,1/2+y,1/2+z
x,1/2-y,1/2+z
1/2+x,y,1/2+z
1/2-x,-y,1/2+z
1/2-x,y,1/2+z
1/2+x,-y,1/2+z
1/2+x,1/2+y,z
1/2-x,1/2-y,z
1/2-x,1/2+y,z
1/2+x,1/2-y,z
loop_
_atom_site_type_symbol
_atom_site_label
_atom_site_fract_x
_atom_site_fract_y
_atom_site_fract_z
Si Si1 0.000000 0.500000 0.308321
Si Si2 0.867005 0.785366 0.018460
Si Si3 0.304667 0.589516 0.124755
Si Si4 0.431958 0.884008 0.208042
Si Si5 0.260966 0.089453 0.339974
Si Si6 0.550898 0.083405 0.886614
Si Si7 0.049256 0.788526 0.166680
Si Si8 0.155877 0.164195 0.733687
O O1 0.036801 0.564919 0.294071
O O2 0.843484 0.857894 0.083499
O O3 0.916856 0.794377 0.043869
O O4 0.850732 0.711516 0.096382
O O5 0.853689 0.780443 0.860854
O O6 0.314829 0.500000 0.124900
O O7 0.283096 0.611757 0.269735
O O8 0.270157 0.602520 0.001708
O O9 0.436623 0.903224 0.045075
O O10 0.444903 0.796505 0.220671
O O11 0.382912 0.894078 0.244572
O O12 0.298990 0.128624 0.257895
O O13 0.264207 0.000000 0.317961
O O14 0.500000 0.081931 0.887529
O O15 0.565880 0.000000 0.842390
O O16 0.562092 0.150416 0.782752
O O17 0.000000 0.799881 0.129030
#
# Coordination Sequence:
#
# PCOD9368739 Si02
#       8
#     4  16  16  16  16  16  16  16
#     4  12  20  40  60  96 120 168 216 276 310 384
#     4  10  23  42  59  89 127 168 204 255 312 379
#     4   9  19  39  65  87 122 159 203 252 316 379
#     4  11  21  37  61  90 123 164 214 268 315 375
#     4   9  19  38  62  91 118 159 201 256 314 377
#     4  10  19  37  61  86 120 160 212 264 316 373
#     4  10  22  37  60  90 123 169 213 262 321 375
#     4  10  24  39  62  89 129 162 208 257 319 373
#
# _framework density 21.293566999999999
#
# number of rings (size 3 to 8) (size 9 to 14) (size 15 to 20)
#    0.000    2.069    2.069    0.000    8.690    2.207 
#    1.241    2.759    0.000    0.000    0.000    0.000 
#    0.000    0.000    0.000    0.000    0.000    0.000 
#
# Total GULP energy -161672.280028 kJ/mol
# GULP energy per Si atom -5574.906208 kJ/mol
# Density = 2.124510 g / cm^3
# Si number density = 21.293567 Si / 1000 Ang^3
#
#
#
# Elastic Constant Matrix: (Units=GPa)
#
#
# Indices 1 2 3 4 5 6 
#
# 1 47.0802 12.9188 0.8399 0.0000 0.0000 0.0000
# 2 12.9188 86.6791 7.4662 0.0000 0.0000 0.0000
# 3 0.8399 7.4662 30.1813 0.0000 0.0000 0.0000
# 4 0.0000 0.0000 0.0000 15.6875 0.0000 0.0000
# 5 0.0000 0.0000 0.0000 0.0000 22.5874 0.0000
# 6 0.0000 0.0000 0.0000 0.0000 0.0000 28.5127
#
#
#
# Elastic Compliance Matrix: (Units=1/GPa)
#
#
# Indices 1 2 3 4 5 6 
#
# 1 0.022147 -0.003318 0.000205 0.000000 0.000000 0.000000
# 2 -0.003318 0.012285 -0.002947 0.000000 0.000000 0.000000
# 3 0.000205 -0.002947 0.033856 0.000000 0.000000 0.000000
# 4 0.000000 0.000000 0.000000 0.063745 0.000000 0.000000
# 5 0.000000 0.000000 0.000000 0.000000 0.044272 0.000000
# 6 0.000000 0.000000 0.000000 0.000000 0.000000 0.035072
#
#
# Mechanical properties :
#
#
# Convention : Reuss Voigt Hill
#
# Bulk Modulus (GPa) = 17.80386 22.93227 20.36806
# Shear Modulus (GPa) = 20.64218 22.87189 21.75703
#
# Velocity S-wave (km/s) = 3.11691 3.28094 3.19997
# Velocity P-wave (km/s) = 4.61875 5.01455 4.82071
#
# Compressibility (1/GPa) = 0.05616759
#
# Stress axis : x y z
#
# Youngs Moduli (GPa) = 45.15222 81.39863 29.53651
#
# Poissons Ratio (x) = 0.27012 -0.00604
# Poissons Ratio (y) = 0.14984 0.08704
# Poissons Ratio (z) = -0.00924 0.23986
#
# Static dielectric constant tensor:
#      x y z
#    x 1.772370 0.000000 0.000000 
#    y 0.000000 1.769710 0.000000 
#    z 0.000000 0.000000 1.791880 
# 
# From -- ./inp_files/11192.got.cif
#   From: 2010.05.17/outbox.cif.g08.bks.cpg/sg42_6_cif.got.tgz:11192.got - 2010.06.03 19:03:34.
