data_PCOD9368881
_publ_section_title
;
Structure prediction by ZEFSAII (Michael W. Deem and Ramdas Pophale) SiO2 
 PCOD9368881
Probable space group: F M M 2
;
_chemical_formula_sum "Si O2"
_cell_formula_units_Z 100
_cell_length_a 9.369920
_cell_length_b 25.459210
_cell_length_c 19.692943
_cell_angle_alpha 90.000000
_cell_angle_beta 90.000000
_cell_angle_gamma 90.000000
_cell_volume 4697.766538
_symmetry_space_group_name_H-M "F M M 2"
_symmetry_group_IT_number 42
_symmetry_cell_setting 'orthorhombic'
loop_
_space_group_symop_operation_xyz
x,y,z
-x,-y,z
-x,y,z
x,-y,z
x,1/2+y,1/2+z
-x,1/2-y,1/2+z
-x,1/2+y,1/2+z
x,1/2-y,1/2+z
1/2+x,y,1/2+z
1/2-x,-y,1/2+z
1/2-x,y,1/2+z
1/2+x,-y,1/2+z
1/2+x,1/2+y,z
1/2-x,1/2-y,z
1/2-x,1/2+y,z
1/2+x,1/2-y,z
loop_
_atom_site_type_symbol
_atom_site_label
_atom_site_fract_x
_atom_site_fract_y
_atom_site_fract_z
Si Si1 0.843431 0.414765 0.863130
Si Si2 0.166926 0.939832 0.589256
Si Si3 0.668795 0.299779 0.422889
Si Si4 0.165067 0.697450 0.705685
Si Si5 0.833688 0.093396 0.742748
Si Si6 0.664451 0.161831 0.550085
Si Si7 0.000000 0.000000 0.437551
O O1 0.809227 0.356048 0.887083
O O2 0.729873 0.434341 0.808832
O O3 0.876901 0.453621 0.925340
O O4 0.000000 0.414292 0.827432
O O5 0.182774 0.936356 0.671164
O O6 0.271799 0.896612 0.559151
O O7 0.000000 0.926880 0.573947
O O8 0.187758 0.000000 0.567930
O O9 0.500000 0.289884 0.426005
O O10 0.750000 0.250000 0.391157
O O11 0.736299 0.308295 0.497128
O O12 0.250000 0.750000 0.722074
O O13 0.244830 0.647102 0.735632
O O14 0.168311 0.688449 0.624160
O O15 0.000000 0.700214 0.727460
O O16 0.000000 0.104683 0.751397
O O17 0.500000 0.160812 0.526889
#
# Coordination Sequence:
#
# PCOD9368881 Si02
#       7
#    16  16  16  16  16  16   4
#     4   9  21  40  61  86 112 157 202 245 300 355
#     4   9  19  35  55  82 116 155 194 240 296 356
#     4  11  23  40  62  88 117 155 199 247 301 362
#     4  10  20  34  53  79 114 156 193 237 293 355
#     4  10  20  34  56  86 118 147 192 243 295 354
#     4  10  21  37  56  84 115 150 197 244 296 354
#     4   8  20  44  66  80 116 152 214 246 292 366
#
# _framework density 21.286709999999999
#
# number of rings (size 3 to 8) (size 9 to 14) (size 15 to 20)
#    0.480    1.760    0.000    2.400    1.120    6.080 
#    1.440    1.600    0.000    0.000    0.000    0.000 
#    0.000    0.000    0.000    0.000    0.000    0.000 
#
# Total GULP energy -139365.241518 kJ/mol
# GULP energy per Si atom -5574.609661 kJ/mol
# Density = 2.123826 g / cm^3
# Si number density = 21.286710 Si / 1000 Ang^3
#
#
#
# Elastic Constant Matrix: (Units=GPa)
#
#
# Indices 1 2 3 4 5 6 
#
# 1 96.0522 47.5473 38.1126 0.0000 0.0000 0.0000
# 2 47.5473 109.3113 9.3470 0.0000 0.0000 0.0000
# 3 38.1126 9.3470 63.6495 0.0000 0.0000 0.0000
# 4 0.0000 0.0000 0.0000 -7.0996 0.0000 0.0000
# 5 0.0000 0.0000 0.0000 0.0000 18.3528 0.0000
# 6 0.0000 0.0000 0.0000 0.0000 0.0000 33.4066
#
#
#
# Elastic Compliance Matrix: (Units=1/GPa)
#
#
# Indices 1 2 3 4 5 6 
#
# 1 0.017566 -0.006827 -0.009516 0.000000 0.000000 0.000000
# 2 -0.006827 0.011918 0.002338 0.000000 0.000000 0.000000
# 3 -0.009516 0.002338 0.021066 0.000000 0.000000 0.000000
# 4 0.000000 0.000000 0.000000 -0.140854 0.000000 0.000000
# 5 0.000000 0.000000 0.000000 0.000000 0.054488 0.000000
# 6 0.000000 0.000000 0.000000 0.000000 0.000000 0.029934
#
#
# Mechanical properties :
#
#
# Convention : Reuss Voigt Hill
#
# Bulk Modulus (GPa) = 44.36649 51.00297 47.68473
# Shear Modulus (GPa) = 168.67787 20.53236 94.60511
#
# Velocity S-wave (km/s) = 8.91139 3.10911 6.67381
# Velocity P-wave (km/s) = 11.25929 6.07460 9.04633
#
# Compressibility (1/GPa) = 0.02253953
#
# Stress axis : x y z
#
# Youngs Moduli (GPa) = 56.92674 83.90724 47.47030
#
# Poissons Ratio (x) = 0.57285 0.45173
# Poissons Ratio (y) = 0.38865 -0.11098
# Poissons Ratio (z) = 0.54172 -0.19617
#
# Static dielectric constant tensor:
#      x y z
#    x 1.720230 0.000000 0.000000 
#    y 0.000000 1.786390 0.000000 
#    z 0.000000 0.000000 1.852010 
# 
# From -- ./inp_files/23781.got.cif
#   From: 2010.05.17/outbox.cif.g08.bks.cpg/sg42_12_cif.got.tgz:23781.got - 2010.06.03 19:03:34.
