data_PCOD9368174
_publ_section_title
;
Structure prediction by ZEFSAII (Michael W. Deem and Ramdas Pophale) SiO2 
 PCOD9368174
Probable space group: F M M 2
;
_chemical_formula_sum "Si O2"
_cell_formula_units_Z 80
_cell_length_a 12.703492
_cell_length_b 18.423382
_cell_length_c 20.765805
_cell_angle_alpha 90.000000
_cell_angle_beta 90.000000
_cell_angle_gamma 90.000000
_cell_volume 4860.055704
_symmetry_space_group_name_H-M "F M M 2"
_symmetry_group_IT_number 42
_symmetry_cell_setting 'orthorhombic'
loop_
_space_group_symop_operation_xyz
x,y,z
-x,-y,z
-x,y,z
x,-y,z
x,1/2+y,1/2+z
-x,1/2-y,1/2+z
-x,1/2+y,1/2+z
x,1/2-y,1/2+z
1/2+x,y,1/2+z
1/2-x,-y,1/2+z
1/2-x,y,1/2+z
1/2+x,-y,1/2+z
1/2+x,1/2+y,z
1/2-x,1/2-y,z
1/2-x,1/2+y,z
1/2+x,1/2-y,z
loop_
_atom_site_type_symbol
_atom_site_label
_atom_site_fract_x
_atom_site_fract_y
_atom_site_fract_z
Si Si1 0.000000 0.911717 0.069520
Si Si2 0.194086 0.175802 0.005870
Si Si3 0.886163 0.414910 0.957852
Si Si4 0.000000 0.084789 0.223148
Si Si5 0.836231 0.644607 0.819629
Si Si6 0.119012 0.690444 0.358398
O O1 0.000000 0.906641 0.146731
O O2 0.897817 0.867375 0.043270
O O3 0.000000 0.000000 0.052800
O O4 0.250000 0.250000 0.031362
O O5 0.291273 0.122270 0.994259
O O6 0.148121 0.192637 0.934257
O O7 0.885114 0.500000 0.969856
O O8 0.872528 0.400998 0.881677
O O9 0.000000 0.383831 0.976855
O O10 0.103220 0.118430 0.256850
O O11 0.000000 0.000000 0.238506
O O12 0.870650 0.727315 0.833667
O O13 0.709343 0.645095 0.821888
O O14 0.000000 0.664096 0.350264
#
# Coordination Sequence:
#
# PCOD9368174 Si02
#       6
#     8  16  16   8  16  16
#     4  11  26  43  56  78 119 164 196 233 283 340
#     4  11  21  35  58  82 114 148 192 228 283 347
#     4  10  18  29  52  84 111 135 172 233 291 334
#     4  11  22  39  58  74 108 156 196 229 268 334
#     4  10  18  30  53  83 109 140 181 227 277 340
#     4  10  17  31  55  84 116 140 169 236 303 333
#
# _framework density 16.460715
#
# number of rings (size 3 to 8) (size 9 to 14) (size 15 to 20)
#    0.000    1.600    7.000    1.200    1.400    0.000 
#    3.600    0.000    0.000    1.200    0.000    2.800 
#    0.000    0.000    0.000    0.000    0.000    0.000 
#
# Total GULP energy -111430.265407 kJ/mol
# GULP energy per Si atom -5571.513270 kJ/mol
# Density = 1.642325 g / cm^3
# Si number density = 16.460715 Si / 1000 Ang^3
#
#
#
# Elastic Constant Matrix: (Units=GPa)
#
#
# Indices 1 2 3 4 5 6 
#
# 1 181.2716 55.5723 47.0924 0.0000 0.0000 0.0000
# 2 55.5723 88.3864 42.0810 0.0000 0.0000 0.0000
# 3 47.0924 42.0810 65.1389 0.0000 0.0000 0.0000
# 4 0.0000 0.0000 0.0000 19.1622 0.0000 0.0000
# 5 0.0000 0.0000 0.0000 0.0000 -111.2334 0.0000
# 6 0.0000 0.0000 0.0000 0.0000 0.0000 23.1791
#
#
#
# Elastic Compliance Matrix: (Units=1/GPa)
#
#
# Indices 1 2 3 4 5 6 
#
# 1 0.007305 -0.003002 -0.003342 0.000000 0.000000 0.000000
# 2 -0.003002 0.017573 -0.009182 0.000000 0.000000 0.000000
# 3 -0.003342 -0.009182 0.023700 0.000000 0.000000 0.000000
# 4 0.000000 0.000000 0.000000 0.052186 0.000000 0.000000
# 5 0.000000 0.000000 0.000000 0.000000 -0.008990 0.000000
# 6 0.000000 0.000000 0.000000 0.000000 0.000000 0.043142
#
#
# Mechanical properties :
#
#
# Convention : Reuss Voigt Hill
#
# Bulk Modulus (GPa) = 57.05919 69.36537 63.21228
# Shear Modulus (GPa) = 29.10180 -1.10835 13.99672
#
# Velocity S-wave (km/s) = 4.20927 -0.82146 2.91917
# Velocity P-wave (km/s) = 7.63957 6.42897 7.06027
#
# Compressibility (1/GPa) = 0.01752566
#
# Stress axis : x y z
#
# Youngs Moduli (GPa) = 136.89112 56.90509 42.19438
#
# Poissons Ratio (x) = 0.17082 0.14101
# Poissons Ratio (y) = 0.41093 0.38744
# Poissons Ratio (z) = 0.45748 0.52252
#
# Static dielectric constant tensor:
#      x y z
#    x 1.631410 0.000000 0.000000 
#    y 0.000000 1.583580 0.000000 
#    z 0.000000 0.000000 1.522250 
# 
# From -- ./inp_files/18955.got.cif
#   From: 2010.05.17/outbox.cif.g08.bks.cpg/sg42_10_cif.got.tgz:18955.got - 2010.06.03 19:03:34.
