data_PCOD9368656
_publ_section_title
;
Structure prediction by ZEFSAII (Michael W. Deem and Ramdas Pophale) SiO2 
 PCOD9368656
Probable space group: F M M 2
;
_chemical_formula_sum "Si O2"
_cell_formula_units_Z 80
_cell_length_a 14.166701
_cell_length_b 28.168437
_cell_length_c 9.029731
_cell_angle_alpha 90.000000
_cell_angle_beta 90.000000
_cell_angle_gamma 90.000000
_cell_volume 3603.348691
_symmetry_space_group_name_H-M "F M M 2"
_symmetry_group_IT_number 42
_symmetry_cell_setting 'orthorhombic'
loop_
_space_group_symop_operation_xyz
x,y,z
-x,-y,z
-x,y,z
x,-y,z
x,1/2+y,1/2+z
-x,1/2-y,1/2+z
-x,1/2+y,1/2+z
x,1/2-y,1/2+z
1/2+x,y,1/2+z
1/2-x,-y,1/2+z
1/2-x,y,1/2+z
1/2+x,-y,1/2+z
1/2+x,1/2+y,z
1/2-x,1/2-y,z
1/2-x,1/2+y,z
1/2+x,1/2-y,z
loop_
_atom_site_type_symbol
_atom_site_label
_atom_site_fract_x
_atom_site_fract_y
_atom_site_fract_z
Si Si1 0.144748 0.052579 0.301080
Si Si2 0.288280 0.408027 0.595953
Si Si3 0.613954 0.187316 0.148187
Si Si4 0.614335 0.275466 0.326365
Si Si5 0.103954 0.860766 0.104604
O O1 0.246112 0.057606 0.219955
O O2 0.156169 0.063499 0.472633
O O3 0.094118 0.097397 0.227016
O O4 0.107421 0.000000 0.273331
O O5 0.348494 0.365521 0.663267
O O6 0.196019 0.381261 0.522174
O O7 0.500000 0.187058 0.148478
O O8 0.647570 0.223760 0.274420
O O9 0.645866 0.207010 0.987013
O O10 0.500000 0.272982 0.336260
O O11 0.631253 0.313518 0.195271
O O12 0.000000 0.854058 0.033070
#
# Coordination Sequence:
#
# PCOD9368656 Si02
#       5
#    16  16  16  16  16
#     4  10  21  38  61  86 115 152 197 251 302 346
#     4  10  21  37  60  87 117 156 192 250 299 347
#     4  10  19  35  57  86 120 157 196 238 294 352
#     4   9  18  34  56  81 118 157 195 240 282 343
#     4   9  20  38  59  85 116 155 200 239 289 355
#
# _framework density 22.201568999999999
#
# number of rings (size 3 to 8) (size 9 to 14) (size 15 to 20)
#    1.200    1.200    2.000    0.600    0.000    2.800 
#    0.000    5.000    0.000    3.000    0.000    0.000 
#    0.000    0.000    0.000    0.000    0.000    0.000 
#
# Total GULP energy -111493.808913 kJ/mol
# GULP energy per Si atom -5574.690446 kJ/mol
# Density = 2.215104 g / cm^3
# Si number density = 22.201569 Si / 1000 Ang^3
#
#
#
# Elastic Constant Matrix: (Units=GPa)
#
#
# Indices 1 2 3 4 5 6 
#
# 1 48.1236 13.5418 -5.2751 0.0000 0.0000 0.0000
# 2 13.5418 123.0530 17.0183 0.0000 0.0000 0.0000
# 3 -5.2751 17.0183 36.9273 0.0000 0.0000 0.0000
# 4 0.0000 0.0000 0.0000 30.8862 0.0000 0.0000
# 5 0.0000 0.0000 0.0000 0.0000 13.7745 0.0000
# 6 0.0000 0.0000 0.0000 0.0000 0.0000 273.2930
#
#
#
# Elastic Compliance Matrix: (Units=1/GPa)
#
#
# Indices 1 2 3 4 5 6 
#
# 1 0.022146 -0.003070 0.004579 0.000000 0.000000 0.000000
# 2 -0.003070 0.009105 -0.004635 0.000000 0.000000 0.000000
# 3 0.004579 -0.004635 0.029870 0.000000 0.000000 0.000000
# 4 0.000000 0.000000 0.000000 0.032377 0.000000 0.000000
# 5 0.000000 0.000000 0.000000 0.000000 0.072598 0.000000
# 6 0.000000 0.000000 0.000000 0.000000 0.000000 0.003659
#
#
# Mechanical properties :
#
#
# Convention : Reuss Voigt Hill
#
# Bulk Modulus (GPa) = 18.22555 28.74155 23.48355
# Shear Modulus (GPa) = 25.73360 75.77865 50.75613
#
# Velocity S-wave (km/s) = 3.40823 5.84861 4.78656
# Velocity P-wave (km/s) = 4.86981 7.65390 6.41472
#
# Compressibility (1/GPa) = 0.05486803
#
# Stress axis : x y z
#
# Youngs Moduli (GPa) = 45.15552 109.82398 33.47801
#
# Poissons Ratio (x) = 0.33719 -0.15328
# Poissons Ratio (y) = 0.13864 0.15517
# Poissons Ratio (z) = -0.20675 0.50903
#
# Static dielectric constant tensor:
#      x y z
#    x 1.896800 0.000000 0.000000 
#    y 0.000000 1.764350 0.000000 
#    z 0.000000 0.000000 1.786820 
# 
# From -- ./inp_files/3583.got.cif
#   From: 2010.05.17/outbox.cif.g08.bks.cpg/sg42_2_cif.got.tgz:3583.got - 2010.06.03 19:03:34.
