data_PCOD9368682
_publ_section_title
;
Structure prediction by ZEFSAII (Michael W. Deem and Ramdas Pophale) SiO2 
 PCOD9368682
Probable space group: F M M 2
;
_chemical_formula_sum "Si O2"
_cell_formula_units_Z 104
_cell_length_a 15.885498
_cell_length_b 15.003523
_cell_length_c 21.762560
_cell_angle_alpha 90.000000
_cell_angle_beta 90.000000
_cell_angle_gamma 90.000000
_cell_volume 5186.854483
_symmetry_space_group_name_H-M "F M M 2"
_symmetry_group_IT_number 42
_symmetry_cell_setting 'orthorhombic'
loop_
_space_group_symop_operation_xyz
x,y,z
-x,-y,z
-x,y,z
x,-y,z
x,1/2+y,1/2+z
-x,1/2-y,1/2+z
-x,1/2+y,1/2+z
x,1/2-y,1/2+z
1/2+x,y,1/2+z
1/2-x,-y,1/2+z
1/2-x,y,1/2+z
1/2+x,-y,1/2+z
1/2+x,1/2+y,z
1/2-x,1/2-y,z
1/2-x,1/2+y,z
1/2+x,1/2-y,z
loop_
_atom_site_type_symbol
_atom_site_label
_atom_site_fract_x
_atom_site_fract_y
_atom_site_fract_z
Si Si1 0.095419 0.286923 0.849820
Si Si2 0.102225 0.101413 0.234107
Si Si3 0.401294 0.400048 0.709717
Si Si4 0.899997 0.730031 0.622795
Si Si5 0.250000 0.250000 0.027732
Si Si6 0.666421 0.597323 0.843129
Si Si7 0.815854 0.900602 0.437524
O O1 0.132568 0.334230 0.788925
O O2 0.131267 0.191021 0.866594
O O3 0.104374 0.352598 0.907338
O O4 0.000000 0.270315 0.833609
O O5 0.118979 0.148825 0.169478
O O6 0.000000 0.096513 0.239494
O O7 0.134384 0.000000 0.239154
O O8 0.500000 0.392596 0.730080
O O9 0.390739 0.500000 0.683793
O O10 0.387563 0.321316 0.661654
O O11 0.341964 0.392947 0.769457
O O12 0.832462 0.729738 0.568624
O O13 0.000000 0.725795 0.605646
O O14 0.226630 0.335183 0.986208
O O15 0.624475 0.500000 0.856020
O O16 0.753938 0.592515 0.878757
O O17 0.831733 0.000000 0.461032
#
# Coordination Sequence:
#
# PCOD9368682 Si02
#       7
#    16  16  16  16   8  16  16
#     4  11  20  36  64  94 124 156 193 245 313 378
#     4   9  18  34  58  90 124 155 192 242 305 375
#     4   9  17  33  60  95 126 149 183 237 305 377
#     4  10  22  40  61  87 120 159 201 251 304 359
#     4  12  26  44  62  84 114 164 220 262 298 350
#     4  10  19  35  62  92 124 157 188 239 310 372
#     4  11  25  44  60  83 121 160 208 259 302 360
#
# _framework density 20.050687
#
# number of rings (size 3 to 8) (size 9 to 14) (size 15 to 20)
#    0.000    1.846    3.077    0.923    0.000    4.923 
#    0.000    1.538    0.000    0.000    0.000    0.000 
#    0.000    0.000    0.000    0.000    0.000    0.000 
#
# Total GULP energy -144933.652773 kJ/mol
# GULP energy per Si atom -5574.371260 kJ/mol
# Density = 2.000505 g / cm^3
# Si number density = 20.050687 Si / 1000 Ang^3
#
#
#
# Elastic Constant Matrix: (Units=GPa)
#
#
# Indices 1 2 3 4 5 6 
#
# 1 32.8144 14.7797 22.3347 0.0000 0.0000 0.0000
# 2 14.7797 149.8806 18.6926 0.0000 0.0000 0.0000
# 3 22.3347 18.6926 57.3225 0.0000 0.0000 0.0000
# 4 0.0000 0.0000 0.0000 9.2588 0.0000 0.0000
# 5 0.0000 0.0000 0.0000 0.0000 31.6130 0.0000
# 6 0.0000 0.0000 0.0000 0.0000 0.0000 15.3076
#
#
#
# Elastic Compliance Matrix: (Units=1/GPa)
#
#
# Indices 1 2 3 4 5 6 
#
# 1 0.042156 -0.002198 -0.015709 0.000000 0.000000 0.000000
# 2 -0.002198 0.007069 -0.001449 0.000000 0.000000 0.000000
# 3 -0.015709 -0.001449 0.024038 0.000000 0.000000 0.000000
# 4 0.000000 0.000000 0.000000 0.108005 0.000000 0.000000
# 5 0.000000 0.000000 0.000000 0.000000 0.031633 0.000000
# 6 0.000000 0.000000 0.000000 0.000000 0.000000 0.065327
#
#
# Mechanical properties :
#
#
# Convention : Reuss Voigt Hill
#
# Bulk Modulus (GPa) = 28.94117 39.07015 34.00566
# Shear Modulus (GPa) = 15.22267 23.51660 19.36963
#
# Velocity S-wave (km/s) = 2.75836 3.42842 3.11148
# Velocity P-wave (km/s) = 4.96086 5.93296 5.46855
#
# Compressibility (1/GPa) = 0.03455286
#
# Stress axis : x y z
#
# Youngs Moduli (GPa) = 23.72127 141.45440 41.60026
#
# Poissons Ratio (x) = 0.31090 0.65349
# Poissons Ratio (y) = 0.05214 0.06028
# Poissons Ratio (z) = 0.37263 0.20496
#
# Static dielectric constant tensor:
#      x y z
#    x 1.745490 0.000000 0.000000 
#    y 0.000000 1.761380 0.000000 
#    z 0.000000 0.000000 1.684600 
# 
# From -- ./inp_files/25937.got.cif
#   From: 2010.05.17/outbox.cif.g08.bks.cpg/sg42_13_cif.got.tgz:25937.got - 2010.06.03 19:03:34.
