data_PCOD9368799
_publ_section_title
;
Structure prediction by ZEFSAII (Michael W. Deem and Ramdas Pophale) SiO2 
 PCOD9368799
Probable space group: F M M 2
;
_chemical_formula_sum "Si O2"
_cell_formula_units_Z 112
_cell_length_a 15.342741
_cell_length_b 14.057269
_cell_length_c 29.680167
_cell_angle_alpha 90.000000
_cell_angle_beta 90.000000
_cell_angle_gamma 90.000000
_cell_volume 6401.330489
_symmetry_space_group_name_H-M "F M M 2"
_symmetry_group_IT_number 42
_symmetry_cell_setting 'orthorhombic'
loop_
_space_group_symop_operation_xyz
x,y,z
-x,-y,z
-x,y,z
x,-y,z
x,1/2+y,1/2+z
-x,1/2-y,1/2+z
-x,1/2+y,1/2+z
x,1/2-y,1/2+z
1/2+x,y,1/2+z
1/2-x,-y,1/2+z
1/2-x,y,1/2+z
1/2+x,-y,1/2+z
1/2+x,1/2+y,z
1/2-x,1/2-y,z
1/2-x,1/2+y,z
1/2+x,1/2-y,z
loop_
_atom_site_type_symbol
_atom_site_label
_atom_site_fract_x
_atom_site_fract_y
_atom_site_fract_z
Si Si1 0.650495 0.220551 0.905070
Si Si2 0.401858 0.884992 0.995875
Si Si3 0.894425 0.611324 0.716899
Si Si4 0.601482 0.116581 0.618009
Si Si5 0.278109 0.384458 0.035864
Si Si6 0.894672 0.388609 0.815182
Si Si7 0.097091 0.891662 0.953623
O O1 0.750000 0.250000 0.910818
O O2 0.618846 0.152894 0.945755
O O3 0.637612 0.170791 0.857450
O O4 0.600218 0.319364 0.912493
O O5 0.500000 0.853879 0.008683
O O6 0.401275 0.000000 0.994933
O O7 0.321640 0.853783 0.027805
O O8 0.869520 0.500000 0.717391
O O9 0.869577 0.650526 0.667912
O O10 0.866083 0.649240 0.765750
O O11 0.000000 0.613985 0.716533
O O12 0.500000 0.143865 0.609518
O O13 0.668706 0.147532 0.579615
O O14 0.601235 0.000000 0.618876
O O15 0.277140 0.500000 0.037808
O O16 0.334379 0.360761 0.991487
O O17 0.869270 0.500000 0.819472
O O18 0.000000 0.386552 0.816028
O O19 0.000000 0.890256 0.973772
O O20 0.116866 0.000000 0.940297
#
# Coordination Sequence:
#
# PCOD9368799 Si02
#       7
#    16  16  16  16  16  16  16
#     4  12  22  32  47  67  94 131 168 204 246 289
#     4  10  20  34  50  68  96 133 170 207 243 284
#     4   7  11  21  39  67 100 127 153 191 239 290
#     4   8  12  20  39  68 101 133 160 190 236 292
#     4   9  16  27  43  67  97 129 162 195 235 286
#     4   9  17  30  49  73 100 128 160 199 244 296
#     4  10  20  33  47  65  95 132 166 201 239 284
#
# _framework density 17.496362999999999
#
# number of rings (size 3 to 8) (size 9 to 14) (size 15 to 20)
#    0.000    2.714    1.429    3.857    0.000    3.429 
#    0.000    0.000    0.000    0.000    3.714    0.000 
#    0.000    2.286    0.000   12.429    0.000    7.143 
#
# Total GULP energy -155929.760841 kJ/mol
# GULP energy per Si atom -5568.920030 kJ/mol
# Density = 1.745654 g / cm^3
# Si number density = 17.496363 Si / 1000 Ang^3
#
#
#
# Elastic Constant Matrix: (Units=GPa)
#
#
# Indices 1 2 3 4 5 6 
#
# 1 105.1914 17.9715 61.4039 0.0000 0.0000 0.0000
# 2 17.9715 49.0851 36.5015 0.0000 0.0000 0.0000
# 3 61.4039 36.5015 147.0402 0.0000 0.0000 0.0000
# 4 0.0000 0.0000 0.0000 11.3227 0.0000 0.0000
# 5 0.0000 0.0000 0.0000 0.0000 7.7341 0.0000
# 6 0.0000 0.0000 0.0000 0.0000 0.0000 12.0109
#
#
#
# Elastic Compliance Matrix: (Units=1/GPa)
#
#
# Indices 1 2 3 4 5 6 
#
# 1 0.012600 -0.000859 -0.005049 0.000000 0.000000 0.000000
# 2 -0.000859 0.025044 -0.005858 0.000000 0.000000 0.000000
# 3 -0.005049 -0.005858 0.010363 0.000000 0.000000 0.000000
# 4 0.000000 0.000000 0.000000 0.088318 0.000000 0.000000
# 5 0.000000 0.000000 0.000000 0.000000 0.129298 0.000000
# 6 0.000000 0.000000 0.000000 0.000000 0.000000 0.083258
#
#
# Mechanical properties :
#
#
# Convention : Reuss Voigt Hill
#
# Bulk Modulus (GPa) = 40.85674 59.23006 50.04340
# Shear Modulus (GPa) = 13.13816 18.57620 15.85718
#
# Velocity S-wave (km/s) = 2.74324 3.26194 3.01377
# Velocity P-wave (km/s) = 5.78240 6.93637 6.38550
#
# Compressibility (1/GPa) = 0.02447577
#
# Stress axis : x y z
#
# Youngs Moduli (GPa) = 79.36319 39.93034 96.49331
#
# Poissons Ratio (x) = 0.03430 0.48716
# Poissons Ratio (y) = 0.06817 0.56527
# Poissons Ratio (z) = 0.40068 0.23392
#
# Static dielectric constant tensor:
#      x y z
#    x 1.691040 0.000000 0.000000 
#    y 0.000000 1.609980 0.000000 
#    z 0.000000 0.000000 1.618100 
# 
# From -- ./inp_files/32587.got.cif
#   From: 2010.05.17/outbox.cif.g08.bks.cpg/sg42_17_cif.got.tgz:32587.got - 2010.06.03 19:03:34.
