data_PCOD9368040
_publ_section_title
;
Structure prediction by ZEFSAII (Michael W. Deem and Ramdas Pophale) SiO2 
 PCOD9368040
Probable space group: A B A 2
;
_chemical_formula_sum "Si O2"
_cell_formula_units_Z 24
_cell_length_a 21.857579
_cell_length_b 8.650609
_cell_length_c 4.875750
_cell_angle_alpha 90.000000
_cell_angle_beta 90.000000
_cell_angle_gamma 90.000000
_cell_volume 921.913488
_symmetry_space_group_name_H-M "A B A 2"
_symmetry_group_IT_number 41
_symmetry_cell_setting 'orthorhombic'
loop_
_space_group_symop_operation_xyz
x,y,z
-x,-y,z
1/2-x,y,1/2+z
1/2+x,-y,1/2+z
x,1/2+y,1/2+z
-x,1/2-y,1/2+z
1/2-x,1/2+y,z
1/2+x,1/2-y,z
loop_
_atom_site_type_symbol
_atom_site_label
_atom_site_fract_x
_atom_site_fract_y
_atom_site_fract_z
Si Si1 0.792486 0.259151 0.183160
Si Si2 0.958065 0.229655 0.772847
Si Si3 0.626982 0.480798 0.035066
O O1 0.732589 0.263266 0.375181
O O2 0.833610 0.396831 0.300113
O O3 0.831194 0.101473 0.201025
O O4 0.072607 0.922729 0.894602
O O5 0.992710 0.206210 0.487684
O O6 0.904164 0.351516 0.721644
#
# Coordination Sequence:
#
# PCOD9368040 Si02
#       3
#     8   8   8
#     4  12  28  50  78 114 154 202 256 316 382 456
#     4  12  30  52  80 116 156 204 258 318 384 458
#     4  12  29  52  80 114 156 204 257 318 384 458
#
# _framework density 26.032813000000001
#
# number of rings (size 3 to 8) (size 9 to 14) (size 15 to 20)
#    0.000    0.000    0.000    7.000    0.000   29.333 
#    0.000    0.000    0.000    0.000    0.000    0.000 
#    0.000    0.000    0.000    0.000    0.000    0.000 
#
# Total GULP energy -67515.465116 kJ/mol
# GULP energy per Si atom -5626.288760 kJ/mol
# Density = 2.597356 g / cm^3
# Si number density = 26.032813 Si / 1000 Ang^3
#
#
#
# Elastic Constant Matrix: (Units=GPa)
#
#
# Indices 1 2 3 4 5 6 
#
# 1 124.8465 42.9247 17.8746 0.0000 0.0000 0.0000
# 2 42.9247 97.1761 34.6627 0.0000 0.0000 0.0000
# 3 17.8746 34.6627 84.2135 0.0000 0.0000 0.0000
# 4 0.0000 0.0000 0.0000 40.1711 0.0000 0.0000
# 5 0.0000 0.0000 0.0000 0.0000 32.2538 0.0000
# 6 0.0000 0.0000 0.0000 0.0000 0.0000 47.2057
#
#
#
# Elastic Compliance Matrix: (Units=1/GPa)
#
#
# Indices 1 2 3 4 5 6 
#
# 1 0.009452 -0.004055 -0.000337 0.000000 0.000000 0.000000
# 2 -0.004055 0.013801 -0.004820 0.000000 0.000000 0.000000
# 3 -0.000337 -0.004820 0.013930 0.000000 0.000000 0.000000
# 4 0.000000 0.000000 0.000000 0.024894 0.000000 0.000000
# 5 0.000000 0.000000 0.000000 0.000000 0.031004 0.000000
# 6 0.000000 0.000000 0.000000 0.000000 0.000000 0.021184
#
#
# Mechanical properties :
#
#
# Convention : Reuss Voigt Hill
#
# Bulk Modulus (GPa) = 53.30726 55.24000 54.27363
# Shear Modulus (GPa) = 35.98621 37.97773 36.98197
#
# Velocity S-wave (km/s) = 3.72202 3.82362 3.77316
# Velocity P-wave (km/s) = 6.24441 6.38427 6.31472
#
# Compressibility (1/GPa) = 0.01875917
#
# Stress axis : x y z
#
# Youngs Moduli (GPa) = 105.79433 72.45843 71.78723
#
# Poissons Ratio (x) = 0.29382 0.02421
# Poissons Ratio (y) = 0.42899 0.34601
# Poissons Ratio (z) = 0.03568 0.34924
#
# Static dielectric constant tensor:
#      x y z
#    x 2.002850 0.000000 0.000000 
#    y 0.000000 1.974820 0.000000 
#    z 0.000000 0.000000 1.967700 
# 
# From -- ./inp_files/368.got.cif
#   From: 2010.05.17/outbox.cif.g08.bks.cpg/sg41_1_cif.got.tgz:368.got - 2010.06.03 18:54:24.
