data_PCOD9368404
_publ_section_title
;
Structure prediction by ZEFSAII (Michael W. Deem and Ramdas Pophale) SiO2 
 PCOD9368404
Probable space group: F M M 2
;
_chemical_formula_sum "Si O2"
_cell_formula_units_Z 96
_cell_length_a 8.998038
_cell_length_b 27.107483
_cell_length_c 23.244761
_cell_angle_alpha 90.000000
_cell_angle_beta 90.000000
_cell_angle_gamma 90.000000
_cell_volume 5669.726403
_symmetry_space_group_name_H-M "F M M 2"
_symmetry_group_IT_number 42
_symmetry_cell_setting 'orthorhombic'
loop_
_space_group_symop_operation_xyz
x,y,z
-x,-y,z
-x,y,z
x,-y,z
x,1/2+y,1/2+z
-x,1/2-y,1/2+z
-x,1/2+y,1/2+z
x,1/2-y,1/2+z
1/2+x,y,1/2+z
1/2-x,-y,1/2+z
1/2-x,y,1/2+z
1/2+x,-y,1/2+z
1/2+x,1/2+y,z
1/2-x,1/2-y,z
1/2-x,1/2+y,z
1/2+x,1/2-y,z
loop_
_atom_site_type_symbol
_atom_site_label
_atom_site_fract_x
_atom_site_fract_y
_atom_site_fract_z
Si Si1 0.679602 0.557662 0.425200
Si Si2 0.166588 0.203875 0.430600
Si Si3 0.677003 0.637394 0.841114
Si Si4 0.673820 0.197392 0.608895
Si Si5 0.167156 0.621389 0.028379
Si Si6 0.824738 0.302815 0.746431
O O1 0.500000 0.565387 0.422252
O O2 0.710316 0.500000 0.417773
O O3 0.755096 0.590490 0.375303
O O4 0.726431 0.575971 0.489492
O O5 0.250000 0.250000 0.456504
O O6 0.268928 0.183207 0.380142
O O7 0.156153 0.162505 0.478639
O O8 0.000000 0.215236 0.410336
O O9 0.500000 0.633708 0.838268
O O10 0.747327 0.652080 0.779938
O O11 0.500000 0.201417 0.594685
O O12 0.750000 0.250000 0.593981
O O13 0.740694 0.149476 0.577143
O O14 0.690888 0.191380 0.677674
O O15 0.000000 0.609788 0.049273
O O16 0.750000 0.250000 0.761465
O O17 0.000000 0.301314 0.760371
#
# Coordination Sequence:
#
# PCOD9368404 Si02
#       6
#    16  16  16  16  16  16
#     4   9  19  37  58  77  98 127 162 203 255 307
#     4  10  19  30  44  66  97 131 163 197 241 292
#     4  11  21  32  49  73  99 128 163 204 248 294
#     4  10  20  32  49  72 101 137 172 205 241 285
#     4   9  18  31  49  72  97 126 161 200 243 294
#     4  10  20  34  50  71 101 137 174 207 244 291
#
# _framework density 16.932033000000001
#
# number of rings (size 3 to 8) (size 9 to 14) (size 15 to 20)
#    0.000    2.167    0.000    5.000    0.000    7.000 
#    0.000    0.000    0.000    1.000    0.000    4.667 
#    0.000    0.000    0.000    0.000    0.000    0.000 
#
# Total GULP energy -133728.263678 kJ/mol
# GULP energy per Si atom -5572.010987 kJ/mol
# Density = 1.689349 g / cm^3
# Si number density = 16.932033 Si / 1000 Ang^3
#
#
#
# Elastic Constant Matrix: (Units=GPa)
#
#
# Indices 1 2 3 4 5 6 
#
# 1 110.7786 56.1247 52.0621 0.0000 0.0000 0.0000
# 2 56.1247 90.6141 38.3773 0.0000 0.0000 0.0000
# 3 52.0621 38.3773 69.8707 0.0000 0.0000 0.0000
# 4 0.0000 0.0000 0.0000 25.0511 0.0000 0.0000
# 5 0.0000 0.0000 0.0000 0.0000 18.1187 0.0000
# 6 0.0000 0.0000 0.0000 0.0000 0.0000 20.1483
#
#
#
# Elastic Compliance Matrix: (Units=1/GPa)
#
#
# Indices 1 2 3 4 5 6 
#
# 1 0.016370 -0.006481 -0.008638 0.000000 0.000000 0.000000
# 2 -0.006481 0.016947 -0.004479 0.000000 0.000000 0.000000
# 3 -0.008638 -0.004479 0.023209 0.000000 0.000000 0.000000
# 4 0.000000 0.000000 0.000000 0.039918 0.000000 0.000000
# 5 0.000000 0.000000 0.000000 0.000000 0.055192 0.000000
# 6 0.000000 0.000000 0.000000 0.000000 0.000000 0.049632
#
#
# Mechanical properties :
#
#
# Convention : Reuss Voigt Hill
#
# Bulk Modulus (GPa) = 57.70489 62.71017 60.20753
# Shear Modulus (GPa) = 20.30536 20.97693 20.64114
#
# Velocity S-wave (km/s) = 3.46674 3.52361 3.49529
# Velocity P-wave (km/s) = 7.08369 7.32606 7.20590
#
# Compressibility (1/GPa) = 0.01732955
#
# Stress axis : x y z
#
# Youngs Moduli (GPa) = 61.08738 59.00723 43.08718
#
# Poissons Ratio (x) = 0.38242 0.37218
# Poissons Ratio (y) = 0.39590 0.19300
# Poissons Ratio (z) = 0.52767 0.26431
#
# Static dielectric constant tensor:
#      x y z
#    x 1.588960 0.000000 0.000000 
#    y 0.000000 1.629970 0.000000 
#    z 0.000000 0.000000 1.600550 
# 
# From -- ./inp_files/23737.got.cif
#   From: 2010.05.17/outbox.cif.g08.bks.cpg/sg42_12_cif.got.tgz:23737.got - 2010.06.03 19:03:34.
