data_PCOD9368727
_publ_section_title
;
Structure prediction by ZEFSAII (Michael W. Deem and Ramdas Pophale) SiO2 
 PCOD9368727
Probable space group: F M M 2
;
_chemical_formula_sum "Si O2"
_cell_formula_units_Z 104
_cell_length_a 15.370855
_cell_length_b 20.052868
_cell_length_c 16.570504
_cell_angle_alpha 90.000000
_cell_angle_beta 90.000000
_cell_angle_gamma 90.000000
_cell_volume 5107.521914
_symmetry_space_group_name_H-M "F M M 2"
_symmetry_group_IT_number 42
_symmetry_cell_setting 'orthorhombic'
loop_
_space_group_symop_operation_xyz
x,y,z
-x,-y,z
-x,y,z
x,-y,z
x,1/2+y,1/2+z
-x,1/2-y,1/2+z
-x,1/2+y,1/2+z
x,1/2-y,1/2+z
1/2+x,y,1/2+z
1/2-x,-y,1/2+z
1/2-x,y,1/2+z
1/2+x,-y,1/2+z
1/2+x,1/2+y,z
1/2-x,1/2-y,z
1/2-x,1/2+y,z
1/2+x,1/2-y,z
loop_
_atom_site_type_symbol
_atom_site_label
_atom_site_fract_x
_atom_site_fract_y
_atom_site_fract_z
Si Si1 0.899440 0.397743 0.557060
Si Si2 0.647684 0.753964 0.030859
Si Si3 0.104699 0.924546 0.235945
Si Si4 0.000000 0.575793 0.961606
Si Si5 0.000000 0.844416 0.613121
Si Si6 0.155968 0.155513 0.380832
Si Si7 0.171085 0.426072 0.387711
Si Si8 0.500000 0.920228 0.280890
O O1 0.891402 0.318888 0.542536
O O2 0.862942 0.416504 0.644390
O O3 0.853870 0.429694 0.481106
O O4 0.000000 0.417637 0.556211
O O5 0.750000 0.750000 0.054025
O O6 0.585811 0.802607 0.084460
O O7 0.645989 0.778818 0.936662
O O8 0.132907 0.859863 0.287720
O O9 0.000000 0.922892 0.235418
O O10 0.128778 0.000000 0.264450
O O11 0.086038 0.607899 0.924367
O O12 0.000000 0.500000 0.940790
O O13 0.000000 0.590768 0.056007
O O14 0.000000 0.870779 0.704330
O O15 0.253365 0.128143 0.384893
O O16 0.200456 0.500000 0.361268
O O17 0.085982 0.408743 0.335296
O O18 0.500000 0.000000 0.259338
#
# Coordination Sequence:
#
# PCOD9368727 Si02
#       8
#    16  16  16   8   8  16  16   8
#     4  11  22  41  64  89 122 169 215 267 321 386
#     4  11  23  43  64  90 130 170 220 260 314 391
#     4  10  21  38  63  95 127 158 209 275 331 378
#     4  10  19  36  63  92 127 166 210 267 326 385
#     4  10  23  41  66  93 126 176 217 264 322 382
#     4  11  22  39  65  95 128 169 210 266 328 384
#     4  11  22  39  65  93 126 167 211 261 326 392
#     4  10  23  43  65  97 134 164 213 273 328 391
#
# _framework density 20.362124999999999
#
# number of rings (size 3 to 8) (size 9 to 14) (size 15 to 20)
#    0.000    1.385    3.846    2.077    0.000    1.846 
#    2.769    0.769    0.000    0.000    0.000    0.000 
#    0.000    0.000    0.000    0.000    0.000    0.000 
#
# Total GULP energy -144941.860489 kJ/mol
# GULP energy per Si atom -5574.686942 kJ/mol
# Density = 2.031578 g / cm^3
# Si number density = 20.362125 Si / 1000 Ang^3
#
#
#
# Elastic Constant Matrix: (Units=GPa)
#
#
# Indices 1 2 3 4 5 6 
#
# 1 96.3493 19.5952 39.7427 0.0000 0.0000 0.0000
# 2 19.5952 76.5093 24.5746 0.0000 0.0000 0.0000
# 3 39.7427 24.5746 135.9675 0.0000 0.0000 0.0000
# 4 0.0000 0.0000 0.0000 24.6847 0.0000 0.0000
# 5 0.0000 0.0000 0.0000 0.0000 16.9730 0.0000
# 6 0.0000 0.0000 0.0000 0.0000 0.0000 -28.8760
#
#
#
# Elastic Compliance Matrix: (Units=1/GPa)
#
#
# Indices 1 2 3 4 5 6 
#
# 1 0.012107 -0.002085 -0.003162 0.000000 0.000000 0.000000
# 2 -0.002085 0.014235 -0.001963 0.000000 0.000000 0.000000
# 3 -0.003162 -0.001963 0.008634 0.000000 0.000000 0.000000
# 4 0.000000 0.000000 0.000000 0.040511 0.000000 0.000000
# 5 0.000000 0.000000 0.000000 0.000000 0.058917 0.000000
# 6 0.000000 0.000000 0.000000 0.000000 0.000000 -0.034631
#
#
# Mechanical properties :
#
#
# Convention : Reuss Voigt Hill
#
# Bulk Modulus (GPa) = 48.65012 52.96121 50.80567
# Shear Modulus (GPa) = 41.30667 17.55060 29.42863
#
# Velocity S-wave (km/s) = 4.50889 2.93904 3.80579
# Velocity P-wave (km/s) = 7.14500 6.13053 6.65712
#
# Compressibility (1/GPa) = 0.02055493
#
# Stress axis : x y z
#
# Youngs Moduli (GPa) = 82.59492 70.24953 115.82400
#
# Poissons Ratio (x) = 0.14649 0.36624
# Poissons Ratio (y) = 0.17223 0.22740
# Poissons Ratio (z) = 0.26117 0.13792
#
# Static dielectric constant tensor:
#      x y z
#    x 1.712670 0.000000 0.000000 
#    y 0.000000 1.758830 0.000000 
#    z 0.000000 0.000000 1.764660 
# 
# From -- ./inp_files/15261.got.cif
#   From: 2010.05.17/outbox.cif.g08.bks.cpg/sg42_8_cif.got.tgz:15261.got - 2010.06.03 19:03:34.
