data_PCOD9368777
_publ_section_title
;
Structure prediction by ZEFSAII (Michael W. Deem and Ramdas Pophale) SiO2 
 PCOD9368777
Probable space group: F M M 2
;
_chemical_formula_sum "Si O2"
_cell_formula_units_Z 116
_cell_length_a 30.920943
_cell_length_b 7.914697
_cell_length_c 26.083124
_cell_angle_alpha 90.000000
_cell_angle_beta 90.000000
_cell_angle_gamma 90.000000
_cell_volume 6383.320193
_symmetry_space_group_name_H-M "F M M 2"
_symmetry_group_IT_number 42
_symmetry_cell_setting 'orthorhombic'
loop_
_space_group_symop_operation_xyz
x,y,z
-x,-y,z
-x,y,z
x,-y,z
x,1/2+y,1/2+z
-x,1/2-y,1/2+z
-x,1/2+y,1/2+z
x,1/2-y,1/2+z
1/2+x,y,1/2+z
1/2-x,-y,1/2+z
1/2-x,y,1/2+z
1/2+x,-y,1/2+z
1/2+x,1/2+y,z
1/2-x,1/2-y,z
1/2-x,1/2+y,z
1/2+x,1/2-y,z
loop_
_atom_site_type_symbol
_atom_site_label
_atom_site_fract_x
_atom_site_fract_y
_atom_site_fract_z
Si Si1 0.137738 0.704672 0.274290
Si Si2 0.000000 0.500000 0.589447
Si Si3 0.048611 0.200259 0.231381
Si Si4 0.837537 0.198279 0.582330
Si Si5 0.799352 0.704209 0.364169
Si Si6 0.701731 0.301755 0.978935
Si Si7 0.563657 0.806745 0.116030
Si Si8 0.798060 0.296228 0.184901
O O1 0.137269 0.500000 0.274244
O O2 0.088327 0.762736 0.268992
O O3 0.164781 0.763541 0.323756
O O4 0.165224 0.761911 0.224562
O O5 0.036909 0.652103 0.592560
O O6 0.057395 0.292198 0.177450
O O7 0.000000 0.245470 0.249406
O O8 0.048241 0.000000 0.219989
O O9 0.829938 0.264474 0.525509
O O10 0.886343 0.216586 0.601646
O O11 0.807497 0.271046 0.627679
O O12 0.827547 0.000000 0.578953
O O13 0.801613 0.500000 0.363815
O O14 0.750000 0.750000 0.349684
O O15 0.807046 0.771162 0.422110
O O16 0.702169 0.500000 0.971482
O O17 0.750000 0.250000 0.994862
O O18 0.551624 0.000000 0.100845
O O19 0.801093 0.500000 0.183610
O O20 0.750000 0.250000 0.202052
#
# Coordination Sequence:
#
# PCOD9368777 Si02
#       8
#    16   4  16  16  16  16  16  16
#     4  10  20  35  53  75 108 143 181 225 279 339
#     4  12  22  36  56  86 112 148 198 232 280 350
#     4  11  21  35  53  81 110 141 187 231 277 341
#     4  10  21  35  52  78 109 145 186 223 277 339
#     4   9  19  35  55  79 107 142 188 232 279 335
#     4  10  20  34  54  78 107 144 187 237 280 327
#     4  11  21  36  56  80 116 151 185 237 287 336
#     4  10  20  32  46  71 105 143 177 211 262 329
#
# _framework density 18.172362
#
# number of rings (size 3 to 8) (size 9 to 14) (size 15 to 20)
#    0.000    1.793    2.759    1.862    0.966    4.138 
#    0.000    0.000    0.000    0.000    1.793    0.000 
#    0.000    0.000    0.000    0.000    0.000    0.000 
#
# Total GULP energy -161492.384131 kJ/mol
# GULP energy per Si atom -5568.702901 kJ/mol
# Density = 1.813100 g / cm^3
# Si number density = 18.172362 Si / 1000 Ang^3
#
#
#
# Elastic Constant Matrix: (Units=GPa)
#
#
# Indices 1 2 3 4 5 6 
#
# 1 129.2457 18.8224 61.1954 0.0000 0.0000 0.0001
# 2 18.8224 60.2991 13.3270 0.0000 0.0000 0.0000
# 3 61.1954 13.3270 80.1904 -0.0001 0.0000 0.0000
# 4 0.0000 0.0000 -0.0001 31.7634 0.0000 0.0000
# 5 0.0000 0.0000 0.0000 0.0000 27.5312 0.0000
# 6 0.0001 0.0000 0.0000 0.0000 0.0000 31.7359
#
#
#
# Elastic Compliance Matrix: (Units=1/GPa)
#
#
# Indices 1 2 3 4 5 6 
#
# 1 0.012307 -0.001833 -0.009087 0.000000 0.000000 0.000000
# 2 -0.001833 0.017489 -0.001508 0.000000 0.000000 0.000000
# 3 -0.009087 -0.001508 0.019655 0.000000 0.000000 0.000000
# 4 0.000000 0.000000 0.000000 0.031483 0.000000 0.000000
# 5 0.000000 0.000000 0.000000 0.000000 0.036322 0.000000
# 6 0.000000 0.000000 0.000000 0.000000 0.000000 0.031510
#
#
# Mechanical properties :
#
#
# Convention : Reuss Voigt Hill
#
# Bulk Modulus (GPa) = 40.65704 50.71387 45.68546
# Shear Modulus (GPa) = 27.49961 29.96545 28.73253
#
# Velocity S-wave (km/s) = 3.89429 4.06514 3.98063
# Velocity P-wave (km/s) = 6.53010 7.07118 6.80602
#
# Compressibility (1/GPa) = 0.02459598
#
# Stress axis : x y z
#
# Youngs Moduli (GPa) = 81.25697 57.17731 50.87685
#
# Poissons Ratio (x) = 0.10482 0.46231
# Poissons Ratio (y) = 0.14896 0.07670
# Poissons Ratio (z) = 0.73837 0.08620
#
# Static dielectric constant tensor:
#      x y z
#    x 1.619140 0.000000 0.000000 
#    y 0.000000 1.644960 0.000000 
#    z 0.000000 0.000000 1.657100 
# 
# From -- ./inp_files/30887.got.cif
#   From: 2010.05.17/outbox.cif.g08.bks.cpg/sg42_16_cif.got.tgz:30887.got - 2010.06.03 19:03:34.
