data_PCOD9368253
_publ_section_title
;
Structure prediction by ZEFSAII (Michael W. Deem and Ramdas Pophale) SiO2 
 PCOD9368253
Probable space group: F M M 2
;
_chemical_formula_sum "Si O2"
_cell_formula_units_Z 96
_cell_length_a 20.421926
_cell_length_b 31.036197
_cell_length_c 8.381004
_cell_angle_alpha 90.000000
_cell_angle_beta 90.000000
_cell_angle_gamma 90.000000
_cell_volume 5312.038891
_symmetry_space_group_name_H-M "F M M 2"
_symmetry_group_IT_number 42
_symmetry_cell_setting 'orthorhombic'
loop_
_space_group_symop_operation_xyz
x,y,z
-x,-y,z
-x,y,z
x,-y,z
x,1/2+y,1/2+z
-x,1/2-y,1/2+z
-x,1/2+y,1/2+z
x,1/2-y,1/2+z
1/2+x,y,1/2+z
1/2-x,-y,1/2+z
1/2-x,y,1/2+z
1/2+x,-y,1/2+z
1/2+x,1/2+y,z
1/2-x,1/2-y,z
1/2-x,1/2+y,z
1/2+x,1/2-y,z
loop_
_atom_site_type_symbol
_atom_site_label
_atom_site_fract_x
_atom_site_fract_y
_atom_site_fract_z
Si Si1 0.079470 0.284666 0.978190
Si Si2 0.422758 0.390556 0.041628
Si Si3 0.838827 0.355524 0.812927
Si Si4 0.672249 0.050747 0.401601
Si Si5 0.078685 0.692199 0.342323
Si Si6 0.228261 0.604544 0.115735
O O1 0.123103 0.311565 0.853266
O O2 0.093339 0.234353 0.947654
O O3 0.000000 0.291074 0.954977
O O4 0.097278 0.299259 0.158263
O O5 0.500000 0.387683 0.052526
O O6 0.390469 0.383848 0.213770
O O7 0.398493 0.434627 0.963910
O O8 0.397003 0.351056 0.928892
O O9 0.772710 0.359283 0.705551
O O10 0.817366 0.375307 0.981250
O O11 0.722337 0.071434 0.529171
O O12 0.688099 0.076490 0.240980
O O13 0.679941 0.000000 0.385735
O O14 0.000000 0.688522 0.338299
#
# Coordination Sequence:
#
# PCOD9368253 Si02
#       6
#    16  16  16  16  16  16
#     4  10  18  30  53  81 106 135 173 214 259 308
#     4  10  20  34  54  80 108 137 170 214 270 316
#     4  10  19  34  55  75 106 139 174 220 257 304
#     4  10  19  34  57  78 102 134 172 218 259 312
#     4   9  18  31  50  79 109 137 172 212 254 312
#     4   9  20  35  53  79 103 136 181 216 256 303
#
# _framework density 18.072156
#
# number of rings (size 3 to 8) (size 9 to 14) (size 15 to 20)
#    0.000    2.333    0.000    3.000    0.000    3.000 
#    0.000    1.667    0.000   34.000    0.000    0.000 
#    0.000    0.000    0.000    0.000    0.000    0.000 
#
# Total GULP energy -133757.248936 kJ/mol
# GULP energy per Si atom -5573.218706 kJ/mol
# Density = 1.803102 g / cm^3
# Si number density = 18.072156 Si / 1000 Ang^3
#
#
#
# Elastic Constant Matrix: (Units=GPa)
#
#
# Indices 1 2 3 4 5 6 
#
# 1 52.8654 33.9923 34.4798 0.0001 -0.0002 0.0000
# 2 33.9923 68.9537 23.3778 0.0000 -0.0001 0.0000
# 3 34.4798 23.3778 97.8129 0.0002 -0.0007 0.0001
# 4 0.0001 0.0000 0.0002 13.3223 -0.0002 0.0000
# 5 -0.0002 -0.0001 -0.0007 -0.0002 27.8047 0.0000
# 6 0.0000 0.0000 0.0001 0.0000 0.0000 22.7380
#
#
#
# Elastic Compliance Matrix: (Units=1/GPa)
#
#
# Indices 1 2 3 4 5 6 
#
# 1 0.033062 -0.013436 -0.008443 0.000000 0.000000 0.000000
# 2 -0.013436 0.021242 -0.000341 0.000000 0.000000 0.000000
# 3 -0.008443 -0.000341 0.013281 0.000000 0.000000 0.000000
# 4 0.000000 0.000000 0.000000 0.075062 0.000000 0.000000
# 5 0.000000 0.000000 0.000000 0.000000 0.035965 0.000000
# 6 0.000000 0.000000 0.000000 0.000000 0.000000 0.043979
#
#
# Mechanical properties :
#
#
# Convention : Reuss Voigt Hill
#
# Bulk Modulus (GPa) = 43.20571 44.81464 44.01017
# Shear Modulus (GPa) = 18.19857 21.29181 19.74519
#
# Velocity S-wave (km/s) = 3.17676 3.43615 3.30900
# Velocity P-wave (km/s) = 6.11678 6.37136 6.24537
#
# Compressibility (1/GPa) = 0.02314509
#
# Stress axis : x y z
#
# Youngs Moduli (GPa) = 30.24597 47.07746 75.29367
#
# Poissons Ratio (x) = 0.63254 0.63573
# Poissons Ratio (y) = 0.40639 0.02564
# Poissons Ratio (z) = 0.25538 0.01603
#
# Static dielectric constant tensor:
#      x y z
#    x 1.630840 0.000000 0.000000 
#    y 0.000000 1.590650 0.000000 
#    z 0.000000 0.000000 1.641260 
# 
# From -- ./inp_files/4162.got.cif
#   From: 2010.05.17/outbox.cif.g08.bks.cpg/sg42_3_cif.got.tgz:4162.got - 2010.06.03 19:03:34.
