data_PCOD9368608
_publ_section_title
;
Structure prediction by ZEFSAII (Michael W. Deem and Ramdas Pophale) SiO2 
 PCOD9368608
Probable space group: F M M 2
;
_chemical_formula_sum "Si O2"
_cell_formula_units_Z 112
_cell_length_a 13.821410
_cell_length_b 28.694920
_cell_length_c 14.758883
_cell_angle_alpha 90.000000
_cell_angle_beta 90.000000
_cell_angle_gamma 90.000000
_cell_volume 5853.435786
_symmetry_space_group_name_H-M "F M M 2"
_symmetry_group_IT_number 42
_symmetry_cell_setting 'orthorhombic'
loop_
_space_group_symop_operation_xyz
x,y,z
-x,-y,z
-x,y,z
x,-y,z
x,1/2+y,1/2+z
-x,1/2-y,1/2+z
-x,1/2+y,1/2+z
x,1/2-y,1/2+z
1/2+x,y,1/2+z
1/2-x,-y,1/2+z
1/2-x,y,1/2+z
1/2+x,-y,1/2+z
1/2+x,1/2+y,z
1/2-x,1/2-y,z
1/2-x,1/2+y,z
1/2+x,1/2-y,z
loop_
_atom_site_type_symbol
_atom_site_label
_atom_site_fract_x
_atom_site_fract_y
_atom_site_fract_z
Si Si1 0.884263 0.643409 0.850250
Si Si2 0.108683 0.389280 0.442838
Si Si3 0.755539 0.694351 0.488945
Si Si4 0.892624 0.627272 0.237751
Si Si5 0.114876 0.550005 0.109699
Si Si6 0.235031 0.196207 0.206618
Si Si7 0.290903 0.553687 0.421089
O O1 0.834570 0.670220 0.936099
O O2 0.853571 0.672102 0.759990
O O3 0.831578 0.592563 0.851692
O O4 0.000000 0.639775 0.858707
O O5 0.152529 0.337499 0.458979
O O6 0.101162 0.396640 0.334742
O O7 0.191706 0.426622 0.466451
O O8 0.000000 0.394057 0.480999
O O9 0.750000 0.750000 0.468624
O O10 0.758925 0.689939 0.598150
O O11 0.844814 0.592791 0.165763
O O12 0.828026 0.671709 0.248258
O O13 0.000000 0.640365 0.206976
O O14 0.154690 0.500000 0.139632
O O15 0.000000 0.550032 0.127554
O O16 0.133097 0.554277 0.003701
O O17 0.250000 0.250000 0.226149
O O18 0.280398 0.500000 0.389771
#
# Coordination Sequence:
#
# PCOD9368608 Si02
#       7
#    16  16  16  16  16  16  16
#     4  11  23  40  62  90 122 160 206 257 308 364
#     4  10  21  36  57  85 119 156 195 244 299 356
#     4  10  22  41  63  89 123 163 202 247 304 366
#     4  10  19  34  57  83 113 149 192 242 295 352
#     4   9  18  33  57  89 118 147 192 249 303 358
#     4  11  23  40  60  87 123 159 203 251 305 369
#     4  10  20  37  59  84 118 159 200 249 307 367
#
# _framework density 19.134060999999999
#
# number of rings (size 3 to 8) (size 9 to 14) (size 15 to 20)
#    0.000    1.857    2.857    2.571    0.000    5.143 
#    0.000    4.286    0.000    0.000    0.000    4.000 
#    0.000    0.000    0.000    0.000    0.000    0.000 
#
# Total GULP energy -155884.071123 kJ/mol
# GULP energy per Si atom -5567.288254 kJ/mol
# Density = 1.909051 g / cm^3
# Si number density = 19.134061 Si / 1000 Ang^3
#
#
#
# Elastic Constant Matrix: (Units=GPa)
#
#
# Indices 1 2 3 4 5 6 
#
# 1 104.9322 34.4606 3.6103 0.0000 0.0000 0.0000
# 2 34.4606 120.4160 19.9453 0.0000 0.0000 0.0000
# 3 3.6103 19.9453 59.3885 0.0000 0.0000 0.0000
# 4 0.0000 0.0000 0.0000 -64.9005 0.0000 0.0000
# 5 0.0000 0.0000 0.0000 0.0000 20.3655 0.0000
# 6 0.0000 0.0000 0.0000 0.0000 0.0000 8.9040
#
#
#
# Elastic Compliance Matrix: (Units=1/GPa)
#
#
# Indices 1 2 3 4 5 6 
#
# 1 0.010527 -0.003078 0.000394 0.000000 0.000000 0.000000
# 2 -0.003078 0.009694 -0.003068 0.000000 0.000000 0.000000
# 3 0.000394 -0.003068 0.017845 0.000000 0.000000 0.000000
# 4 0.000000 0.000000 0.000000 -0.015408 0.000000 0.000000
# 5 0.000000 0.000000 0.000000 0.000000 0.049103 0.000000
# 6 0.000000 0.000000 0.000000 0.000000 0.000000 0.112309
#
#
# Mechanical properties :
#
#
# Convention : Reuss Voigt Hill
#
# Bulk Modulus (GPa) = 37.64992 44.52991 41.08991
# Shear Modulus (GPa) = 24.45848 7.98851 16.22349
#
# Velocity S-wave (km/s) = 3.57917 2.04550 2.91501
# Velocity P-wave (km/s) = 6.06632 5.37605 5.73158
#
# Compressibility (1/GPa) = 0.02656048
#
# Stress axis : x y z
#
# Youngs Moduli (GPa) = 94.99186 103.16068 56.03858
#
# Poissons Ratio (x) = 0.31752 -0.02206
# Poissons Ratio (y) = 0.29237 0.17195
# Poissons Ratio (z) = -0.03740 0.31654
#
# Static dielectric constant tensor:
#      x y z
#    x 1.713850 0.000000 0.000000 
#    y 0.000000 1.784920 0.000000 
#    z 0.000000 0.000000 1.702630 
# 
# From -- ./inp_files/14371.got.cif
#   From: 2010.05.17/outbox.cif.g08.bks.cpg/sg42_8_cif.got.tgz:14371.got - 2010.06.03 19:03:34.
