data_PCOD9368033
_publ_section_title
;
Structure prediction by ZEFSAII (Michael W. Deem and Ramdas Pophale) SiO2 
 PCOD9368033
Probable space group: A B A 2
;
_chemical_formula_sum "Si O2"
_cell_formula_units_Z 28
_cell_length_a 20.779052
_cell_length_b 7.131511
_cell_length_c 7.479654
_cell_angle_alpha 90.000000
_cell_angle_beta 90.000000
_cell_angle_gamma 90.000000
_cell_volume 1108.380291
_symmetry_space_group_name_H-M "A B A 2"
_symmetry_group_IT_number 41
_symmetry_cell_setting 'orthorhombic'
loop_
_space_group_symop_operation_xyz
x,y,z
-x,-y,z
1/2-x,y,1/2+z
1/2+x,-y,1/2+z
x,1/2+y,1/2+z
-x,1/2-y,1/2+z
1/2-x,1/2+y,z
1/2+x,1/2-y,z
loop_
_atom_site_type_symbol
_atom_site_label
_atom_site_fract_x
_atom_site_fract_y
_atom_site_fract_z
Si Si1 0.312628 0.452080 0.293290
Si Si2 0.500000 0.000000 0.879375
Si Si3 0.666746 0.624138 0.709286
Si Si4 0.914319 0.300353 0.170670
O O1 0.331016 0.390937 0.493309
O O2 0.235842 0.448677 0.276517
O O3 0.346354 0.310036 0.154058
O O4 0.337716 0.659505 0.256515
O O5 0.459323 0.849909 0.767588
O O6 0.546983 0.878278 0.003703
O O7 0.608835 0.489974 0.772737
#
# Coordination Sequence:
#
# PCOD9368033 Si02
#       4
#     8   4   8   8
#     4  12  27  48  82 120 159 201 260 334 402 462
#     4  12  32  52  80 108 166 218 260 320 380 482
#     4  12  27  48  82 120 159 201 260 334 402 462
#     4  12  30  56  78 118 158 212 270 318 394 472
#
# _framework density 25.262090000000001
#
# number of rings (size 3 to 8) (size 9 to 14) (size 15 to 20)
#    0.000    0.000    5.714    1.714    4.000    5.714 
#    0.000    0.000    0.000    0.000    0.000    0.000 
#    0.000    0.000    0.000    0.000    0.000    0.000 
#
# Total GULP energy -78539.316267 kJ/mol
# GULP energy per Si atom -5609.951162 kJ/mol
# Density = 2.520459 g / cm^3
# Si number density = 25.262090 Si / 1000 Ang^3
#
#
#
# Elastic Constant Matrix: (Units=GPa)
#
#
# Indices 1 2 3 4 5 6 
#
# 1 113.9154 36.0326 37.5033 0.0000 0.0000 0.0000
# 2 36.0326 193.1101 65.6088 0.0000 0.0000 0.0000
# 3 37.5033 65.6088 114.7206 0.0000 0.0000 0.0000
# 4 0.0000 0.0000 0.0000 58.0421 0.0000 0.0000
# 5 0.0000 0.0000 0.0000 0.0000 41.4908 0.0000
# 6 0.0000 0.0000 0.0000 0.0000 0.0000 66.8235
#
#
#
# Elastic Compliance Matrix: (Units=1/GPa)
#
#
# Indices 1 2 3 4 5 6 
#
# 1 0.009971 -0.000935 -0.002725 0.000000 0.000000 0.000000
# 2 -0.000935 0.006515 -0.003420 0.000000 0.000000 0.000000
# 3 -0.002725 -0.003420 0.011564 0.000000 0.000000 0.000000
# 4 0.000000 0.000000 0.000000 0.017229 0.000000 0.000000
# 5 0.000000 0.000000 0.000000 0.000000 0.024102 0.000000
# 6 0.000000 0.000000 0.000000 0.000000 0.000000 0.014965
#
#
# Mechanical properties :
#
#
# Convention : Reuss Voigt Hill
#
# Bulk Modulus (GPa) = 71.99616 77.78172 74.88894
# Shear Modulus (GPa) = 48.47995 52.11137 50.29566
#
# Velocity S-wave (km/s) = 4.38548 4.54676 4.46685
# Velocity P-wave (km/s) = 7.36239 7.64335 7.50419
#
# Compressibility (1/GPa) = 0.01388963
#
# Stress axis : x y z
#
# Youngs Moduli (GPa) = 100.28813 153.49600 86.47699
#
# Poissons Ratio (x) = 0.14347 0.23566
# Poissons Ratio (y) = 0.09374 0.29578
# Poissons Ratio (z) = 0.27330 0.52500
#
# Static dielectric constant tensor:
#      x y z
#    x 2.000490 0.000000 0.000000 
#    y 0.000000 1.953230 0.000000 
#    z 0.000000 0.000000 2.025100 
# 
# From -- ./inp_files/3750.got.cif
#   From: 2010.05.17/outbox.cif.g08.bks.cpg/sg41_2_cif.got.tgz:3750.got - 2010.06.03 18:54:24.
