data_PCOD9368364
_publ_section_title
;
Structure prediction by ZEFSAII (Michael W. Deem and Ramdas Pophale) SiO2 
 PCOD9368364
Probable space group: F M M 2
;
_chemical_formula_sum "Si O2"
_cell_formula_units_Z 112
_cell_length_a 19.802061
_cell_length_b 18.100750
_cell_length_c 17.230747
_cell_angle_alpha 90.000000
_cell_angle_beta 90.000000
_cell_angle_gamma 90.000000
_cell_volume 6176.053791
_symmetry_space_group_name_H-M "F M M 2"
_symmetry_group_IT_number 42
_symmetry_cell_setting 'orthorhombic'
loop_
_space_group_symop_operation_xyz
x,y,z
-x,-y,z
-x,y,z
x,-y,z
x,1/2+y,1/2+z
-x,1/2-y,1/2+z
-x,1/2+y,1/2+z
x,1/2-y,1/2+z
1/2+x,y,1/2+z
1/2-x,-y,1/2+z
1/2-x,y,1/2+z
1/2+x,-y,1/2+z
1/2+x,1/2+y,z
1/2-x,1/2-y,z
1/2-x,1/2+y,z
1/2+x,1/2-y,z
loop_
_atom_site_type_symbol
_atom_site_label
_atom_site_fract_x
_atom_site_fract_y
_atom_site_fract_z
Si Si1 0.576650 0.189633 0.141760
Si Si2 0.124025 0.584722 0.011269
Si Si3 0.420170 0.414434 0.789961
Si Si4 0.720060 0.914297 0.568002
Si Si5 0.668798 0.671246 0.371416
Si Si6 0.176109 0.660631 0.413518
Si Si7 0.815419 0.198353 0.197290
O O1 0.500000 0.216984 0.150072
O O2 0.591785 0.134631 0.213690
O O3 0.631055 0.254401 0.147887
O O4 0.583128 0.141217 0.064354
O O5 0.101117 0.500000 0.017403
O O6 0.128134 0.612966 0.922904
O O7 0.200968 0.589005 0.044164
O O8 0.500000 0.409985 0.807890
O O9 0.403287 0.500000 0.774847
O O10 0.376037 0.382688 0.859785
O O11 0.680279 0.872039 0.499638
O O12 0.707942 0.871868 0.647988
O O13 0.700587 0.000000 0.571624
O O14 0.748386 0.652153 0.378628
O O15 0.660345 0.752228 0.409929
O O16 0.653439 0.677732 0.280590
O O17 0.750000 0.250000 0.211716
#
# Coordination Sequence:
#
# PCOD9368364 Si02
#       7
#    16  16  16  16  16  16  16
#     4  11  22  38  59  88 118 152 194 239 288 346
#     4  10  21  37  56  85 119 154 191 236 288 343
#     4  10  20  34  56  85 119 154 186 232 293 353
#     4  10  22  35  57  87 117 150 191 242 290 338
#     4  10  20  34  57  84 107 153 195 239 287 337
#     4  10  18  35  54  81 116 147 193 234 291 337
#     4  12  20  38  62  85 117 154 196 241 291 343
#
# _framework density 18.134557000000001
#
# number of rings (size 3 to 8) (size 9 to 14) (size 15 to 20)
#    0.000    1.571    4.286    1.714    2.000    2.000 
#    0.000    3.571    0.000    1.286    0.000    0.000 
#    0.000    0.000    0.000    0.000    0.000    0.000 
#
# Total GULP energy -156367.932797 kJ/mol
# GULP energy per Si atom -5584.569028 kJ/mol
# Density = 1.809328 g / cm^3
# Si number density = 18.134557 Si / 1000 Ang^3
#
#
#
# Elastic Constant Matrix: (Units=GPa)
#
#
# Indices 1 2 3 4 5 6 
#
# 1 28.3274 13.9709 4.7166 0.0000 0.0000 0.0000
# 2 13.9709 70.4110 33.8653 0.0000 0.0000 0.0000
# 3 4.7166 33.8653 88.2749 0.0000 0.0000 0.0000
# 4 0.0000 0.0000 0.0000 26.3860 0.0000 0.0000
# 5 0.0000 0.0000 0.0000 0.0000 21.5014 0.0000
# 6 0.0000 0.0000 0.0000 0.0000 0.0000 20.1802
#
#
#
# Elastic Compliance Matrix: (Units=1/GPa)
#
#
# Indices 1 2 3 4 5 6 
#
# 1 0.039216 -0.008306 0.001091 0.000000 0.000000 0.000000
# 2 -0.008306 0.019175 -0.006912 0.000000 0.000000 0.000000
# 3 0.001091 -0.006912 0.013922 0.000000 0.000000 0.000000
# 4 0.000000 0.000000 0.000000 0.037899 0.000000 0.000000
# 5 0.000000 0.000000 0.000000 0.000000 0.046509 0.000000
# 6 0.000000 0.000000 0.000000 0.000000 0.000000 0.049553
#
#
# Mechanical properties :
#
#
# Convention : Reuss Voigt Hill
#
# Bulk Modulus (GPa) = 22.69713 32.45766 27.57739
# Shear Modulus (GPa) = 20.06299 22.57755 21.32027
#
# Velocity S-wave (km/s) = 3.32978 3.53229 3.43253
# Velocity P-wave (km/s) = 5.22746 5.87989 5.56325
#
# Compressibility (1/GPa) = 0.04405844
#
# Stress axis : x y z
#
# Youngs Moduli (GPa) = 25.49958 52.15111 71.82994
#
# Poissons Ratio (x) = 0.43317 -0.07838
# Poissons Ratio (y) = 0.21180 0.49652
# Poissons Ratio (z) = -0.02782 0.36049
#
# Static dielectric constant tensor:
#      x y z
#    x 1.608040 0.000000 0.000000 
#    y 0.000000 1.613920 0.000000 
#    z 0.000000 0.000000 1.615090 
# 
# From -- ./inp_files/21807.got.cif
#   From: 2010.05.17/outbox.cif.g08.bks.cpg/sg42_11_cif.got.tgz:21807.got - 2010.06.03 19:03:34.
