data_PCOD9368957
_publ_section_title
;
Structure prediction by ZEFSAII (Michael W. Deem and Ramdas Pophale) SiO2 
 PCOD9368957
Probable space group: F M M 2
;
_chemical_formula_sum "Si O2"
_cell_formula_units_Z 100
_cell_length_a 17.952428
_cell_length_b 18.120706
_cell_length_c 14.240193
_cell_angle_alpha 90.000000
_cell_angle_beta 90.000000
_cell_angle_gamma 90.000000
_cell_volume 4632.486723
_symmetry_space_group_name_H-M "F M M 2"
_symmetry_group_IT_number 42
_symmetry_cell_setting 'orthorhombic'
loop_
_space_group_symop_operation_xyz
x,y,z
-x,-y,z
-x,y,z
x,-y,z
x,1/2+y,1/2+z
-x,1/2-y,1/2+z
-x,1/2+y,1/2+z
x,1/2-y,1/2+z
1/2+x,y,1/2+z
1/2-x,-y,1/2+z
1/2-x,y,1/2+z
1/2+x,-y,1/2+z
1/2+x,1/2+y,z
1/2-x,1/2-y,z
1/2-x,1/2+y,z
1/2+x,1/2-y,z
loop_
_atom_site_type_symbol
_atom_site_label
_atom_site_fract_x
_atom_site_fract_y
_atom_site_fract_z
Si Si1 0.318851 0.308434 0.013730
Si Si2 0.288374 0.082055 0.660086
Si Si3 0.193389 0.087316 0.839583
Si Si4 0.589277 0.801142 0.235352
Si Si5 0.000000 0.000000 0.596700
Si Si6 0.366863 0.384467 0.566461
Si Si7 0.411872 0.700812 0.399457
O O1 0.250000 0.250000 0.021373
O O2 0.332953 0.353242 0.109049
O O3 0.295476 0.369503 0.935825
O O4 0.389228 0.269573 0.965503
O O5 0.261584 0.096547 0.766259
O O6 0.210681 0.082810 0.601147
O O7 0.321763 0.000000 0.654372
O O8 0.123571 0.127758 0.789162
O O9 0.181156 0.000000 0.852001
O O10 0.500000 0.802788 0.233974
O O11 0.621530 0.811211 0.131249
O O12 0.612127 0.729564 0.296800
O O13 0.065204 0.936568 0.592998
O O14 0.374320 0.366051 0.456248
O O15 0.500000 0.687714 0.398423
#
# Coordination Sequence:
#
# PCOD9368957 Si02
#       7
#    16  16  16  16   4  16  16
#     4  11  21  35  54  79 106 142 180 217 268 323
#     4  10  20  35  54  77 108 142 180 220 270 315
#     4   9  20  34  51  76 105 138 179 223 265 315
#     4   9  18  30  51  78 106 141 171 216 272 315
#     4  12  20  28  56  88 108 138 168 224 284 320
#     4  11  19  32  53  82 111 137 174 220 270 326
#     4  10  20  36  52  76 114 140 177 217 266 322
#
# _framework density 21.586679
#
# number of rings (size 3 to 8) (size 9 to 14) (size 15 to 20)
#    0.000    1.920    4.000    0.480    1.120    0.960 
#    2.880    0.000    0.000    1.440    0.000    0.000 
#    2.400    1.280    0.000    0.000    0.000    0.000 
#
# Total GULP energy -139194.695315 kJ/mol
# GULP energy per Si atom -5567.787813 kJ/mol
# Density = 2.153755 g / cm^3
# Si number density = 21.586679 Si / 1000 Ang^3
#
#
#
# Elastic Constant Matrix: (Units=GPa)
#
#
# Indices 1 2 3 4 5 6 
#
# 1 28.0360 -11.2838 -10.9216 0.0000 0.0000 0.0000
# 2 -11.2838 62.8008 34.7824 0.0000 0.0000 0.0000
# 3 -10.9216 34.7824 106.4549 0.0000 0.0000 0.0000
# 4 0.0000 0.0000 0.0000 9.2393 0.0000 0.0000
# 5 0.0000 0.0000 0.0000 0.0000 20.7964 0.0000
# 6 0.0000 0.0000 0.0000 0.0000 0.0000 30.7791
#
#
#
# Elastic Compliance Matrix: (Units=1/GPa)
#
#
# Indices 1 2 3 4 5 6 
#
# 1 0.038823 0.005823 0.002080 0.000000 0.000000 0.000000
# 2 0.005823 0.020315 -0.006040 0.000000 0.000000 0.000000
# 3 0.002080 -0.006040 0.011581 0.000000 0.000000 0.000000
# 4 0.000000 0.000000 0.000000 0.108233 0.000000 0.000000
# 5 0.000000 0.000000 0.000000 0.000000 0.048085 0.000000
# 6 0.000000 0.000000 0.000000 0.000000 0.000000 0.032490
#
#
# Mechanical properties :
#
#
# Convention : Reuss Voigt Hill
#
# Bulk Modulus (GPa) = 13.43272 24.71618 19.07445
# Shear Modulus (GPa) = 17.81805 24.47728 21.14766
#
# Velocity S-wave (km/s) = 2.87613 3.37101 3.13335
# Velocity P-wave (km/s) = 4.15520 5.16006 4.68465
#
# Compressibility (1/GPa) = 0.07444509
#
# Stress axis : x y z
#
# Youngs Moduli (GPa) = 25.75820 49.22461 86.35125
#
# Poissons Ratio (x) = -0.28665 -0.17964
# Poissons Ratio (y) = -0.15000 0.52158
# Poissons Ratio (z) = -0.05358 0.29733
#
# Static dielectric constant tensor:
#      x y z
#    x 1.745810 0.000000 0.000000 
#    y 0.000000 1.853340 0.000000 
#    z 0.000000 0.000000 1.832920 
# 
# From -- ./inp_files/15213.got.cif
#   From: 2010.05.17/outbox.cif.g08.bks.cpg/sg42_8_cif.got.tgz:15213.got - 2010.06.03 19:03:34.
