data_PCOD9368181
_publ_section_title
;
Structure prediction by ZEFSAII (Michael W. Deem and Ramdas Pophale) SiO2 
 PCOD9368181
Probable space group: F M M 2
;
_chemical_formula_sum "Si O2"
_cell_formula_units_Z 96
_cell_length_a 25.971573
_cell_length_b 20.695066
_cell_length_c 8.391279
_cell_angle_alpha 90.000000
_cell_angle_beta 90.000000
_cell_angle_gamma 90.000000
_cell_volume 4510.173313
_symmetry_space_group_name_H-M "F M M 2"
_symmetry_group_IT_number 42
_symmetry_cell_setting 'orthorhombic'
loop_
_space_group_symop_operation_xyz
x,y,z
-x,-y,z
-x,y,z
x,-y,z
x,1/2+y,1/2+z
-x,1/2-y,1/2+z
-x,1/2+y,1/2+z
x,1/2-y,1/2+z
1/2+x,y,1/2+z
1/2-x,-y,1/2+z
1/2-x,y,1/2+z
1/2+x,-y,1/2+z
1/2+x,1/2+y,z
1/2-x,1/2-y,z
1/2-x,1/2+y,z
1/2+x,1/2-y,z
loop_
_atom_site_type_symbol
_atom_site_label
_atom_site_fract_x
_atom_site_fract_y
_atom_site_fract_z
Si Si1 0.893601 0.077236 0.448690
Si Si2 0.790552 0.808168 0.755053
Si Si3 0.000000 0.076488 0.306505
Si Si4 0.500000 0.578884 0.925667
Si Si5 0.169970 0.500000 0.466297
Si Si6 0.292165 0.124573 0.940473
Si Si7 0.235440 0.000000 0.646142
Si Si8 0.611563 0.117212 0.320577
O O1 0.847049 0.113695 0.360434
O O2 0.887559 0.092267 0.636989
O O3 0.947983 0.102064 0.384920
O O4 0.890457 0.000000 0.425347
O O5 0.750000 0.750000 0.781641
O O6 0.755605 0.865499 0.826664
O O7 0.795456 0.816893 0.565776
O O8 0.848396 0.821471 0.823391
O O9 0.000000 0.000000 0.343941
O O10 0.000000 0.082287 0.116962
O O11 0.500000 0.500000 0.882528
O O12 0.551196 0.615502 0.864015
O O13 0.210063 0.500000 0.318265
O O14 0.202796 0.500000 0.628035
O O15 0.135720 0.563133 0.437592
O O16 0.283403 0.061594 0.047037
#
# Coordination Sequence:
#
# PCOD9368181 Si02
#       8
#    16  16   8   8   8  16   8  16
#     4  10  17  33  53  79 114 154 195 238 301 378
#     4  11  24  39  56  83 120 164 208 247 296 364
#     4   9  21  33  47  84 127 158 191 240 303 382
#     4  11  21  35  55  90 129 162 205 257 325 384
#     4  12  20  35  54  89 131 158 197 249 311 388
#     4  11  20  35  58  83 117 153 198 255 309 369
#     4  12  18  36  54  89 123 151 201 249 321 374
#     4  11  20  36  59  82 121 169 203 249 306 380
#
# _framework density 21.285214
#
# number of rings (size 3 to 8) (size 9 to 14) (size 15 to 20)
#    0.000    1.167    7.500    1.000    0.000    2.000 
#    3.000    0.000    0.000    1.000    0.000    3.500 
#    0.000    0.000    0.000    0.000    0.000    0.000 
#
# Total GULP energy -133829.848966 kJ/mol
# GULP energy per Si atom -5576.243707 kJ/mol
# Density = 2.123677 g / cm^3
# Si number density = 21.285214 Si / 1000 Ang^3
#
#
#
# Elastic Constant Matrix: (Units=GPa)
#
#
# Indices 1 2 3 4 5 6 
#
# 1 216.2656 41.3576 44.1317 -0.0001 0.0000 0.0000
# 2 41.3576 67.3357 3.5175 -0.0001 0.0000 0.0000
# 3 44.1317 3.5175 29.4186 -0.0003 0.0001 0.0000
# 4 -0.0001 -0.0001 -0.0003 14.3638 0.0001 0.0000
# 5 0.0000 0.0000 0.0001 0.0001 38.4420 0.0000
# 6 0.0000 0.0000 0.0000 0.0000 0.0000 28.0213
#
#
#
# Elastic Compliance Matrix: (Units=1/GPa)
#
#
# Indices 1 2 3 4 5 6 
#
# 1 0.007657 -0.004128 -0.010992 0.000000 0.000000 0.000000
# 2 -0.004128 0.017170 0.004140 0.000000 0.000000 0.000000
# 3 -0.010992 0.004140 0.049987 0.000001 0.000000 0.000000
# 4 0.000000 0.000000 0.000001 0.069620 0.000000 0.000000
# 5 0.000000 0.000000 0.000000 0.000000 0.026013 0.000000
# 6 0.000000 0.000000 0.000000 0.000000 0.000000 0.035687
#
#
# Mechanical properties :
#
#
# Convention : Reuss Voigt Hill
#
# Bulk Modulus (GPa) = 18.92044 54.55928 36.73986
# Shear Modulus (GPa) = 20.34901 31.09962 25.72431
#
# Velocity S-wave (km/s) = 3.09531 3.82657 3.48020
# Velocity P-wave (km/s) = 4.65649 6.72396 5.78336
#
# Compressibility (1/GPa) = 0.05285289
#
# Stress axis : x y z
#
# Youngs Moduli (GPa) = 130.60716 58.23983 20.00525
#
# Poissons Ratio (x) = 0.24044 0.21990
# Poissons Ratio (y) = 0.53920 -0.08283
# Poissons Ratio (z) = 1.43566 -0.24112
#
# Static dielectric constant tensor:
#      x y z
#    x 1.864300 0.000000 0.000000 
#    y 0.000000 1.883460 0.000000 
#    z 0.000000 0.000000 1.773710 
# 
# From -- ./inp_files/4771.got.cif
#   From: 2010.05.17/outbox.cif.g08.bks.cpg/sg42_3_cif.got.tgz:4771.got - 2010.06.03 19:03:34.
