data_PCOD9368138
_publ_section_title
;
Structure prediction by ZEFSAII (Michael W. Deem and Ramdas Pophale) SiO2 
 PCOD9368138
Probable space group: F M M 2
;
_chemical_formula_sum "Si O2"
_cell_formula_units_Z 96
_cell_length_a 18.721456
_cell_length_b 8.667726
_cell_length_c 32.422488
_cell_angle_alpha 90.000000
_cell_angle_beta 90.000000
_cell_angle_gamma 90.000000
_cell_volume 5261.276593
_symmetry_space_group_name_H-M "F M M 2"
_symmetry_group_IT_number 42
_symmetry_cell_setting 'orthorhombic'
loop_
_space_group_symop_operation_xyz
x,y,z
-x,-y,z
-x,y,z
x,-y,z
x,1/2+y,1/2+z
-x,1/2-y,1/2+z
-x,1/2+y,1/2+z
x,1/2-y,1/2+z
1/2+x,y,1/2+z
1/2-x,-y,1/2+z
1/2-x,y,1/2+z
1/2+x,-y,1/2+z
1/2+x,1/2+y,z
1/2-x,1/2-y,z
1/2-x,1/2+y,z
1/2+x,1/2-y,z
loop_
_atom_site_type_symbol
_atom_site_label
_atom_site_fract_x
_atom_site_fract_y
_atom_site_fract_z
Si Si1 0.169801 0.814503 0.185520
Si Si2 0.329809 0.317220 0.940391
Si Si3 0.414699 0.181659 0.016089
Si Si4 0.583747 0.315149 0.103606
Si Si5 0.168679 0.684364 0.270830
Si Si6 0.668798 0.815793 0.855360
O O1 0.250000 0.750000 0.181371
O O2 0.126315 0.771759 0.144641
O O3 0.137436 0.745141 0.227737
O O4 0.172038 0.000000 0.189233
O O5 0.325061 0.500000 0.934591
O O6 0.250000 0.250000 0.945932
O O7 0.362240 0.241864 0.898765
O O8 0.375365 0.274181 0.980304
O O9 0.500000 0.208655 0.013796
O O10 0.391047 0.234128 0.061698
O O11 0.401283 0.000000 0.010576
O O12 0.500000 0.278740 0.109146
O O13 0.590152 0.500000 0.098178
O O14 0.170728 0.500000 0.271714
O O15 0.250000 0.750000 0.270338
O O16 0.135681 0.748951 0.313238
O O17 0.750000 0.750000 0.856272
O O18 0.670721 0.000000 0.853648
#
# Coordination Sequence:
#
# PCOD9368138 Si02
#       6
#    16  16  16  16  16  16
#     4  10  19  31  49  74 102 130 163 206 252 297
#     4  11  21  34  53  78 107 136 170 212 257 302
#     4  10  21  37  56  77 102 134 172 211 254 307
#     4   9  19  36  55  73  96 131 172 209 249 300
#     4  10  17  27  44  68  99 132 166 202 244 296
#     4  10  17  28  46  70 101 133 167 205 248 298
#
# _framework density 18.246521999999999
#
# number of rings (size 3 to 8) (size 9 to 14) (size 15 to 20)
#    0.000    2.000    0.000    8.500    0.000    3.000 
#    0.000    1.667    0.000    1.000    0.000    2.333 
#    0.000    0.000    0.000    0.000    0.000    0.000 
#
# Total GULP energy -133902.430682 kJ/mol
# GULP energy per Si atom -5579.267945 kJ/mol
# Density = 1.820499 g / cm^3
# Si number density = 18.246522 Si / 1000 Ang^3
#
#
#
# Elastic Constant Matrix: (Units=GPa)
#
#
# Indices 1 2 3 4 5 6 
#
# 1 14.6117 23.4773 31.7161 0.0000 0.0000 0.0000
# 2 23.4773 137.6947 77.4375 0.0000 0.0000 0.0000
# 3 31.7161 77.4375 174.3802 0.0000 0.0000 0.0000
# 4 0.0000 0.0000 0.0000 40.0206 0.0000 0.0000
# 5 0.0000 0.0000 0.0000 0.0000 -29.5533 0.0000
# 6 0.0000 0.0000 0.0000 0.0000 0.0000 17.0574
#
#
#
# Elastic Compliance Matrix: (Units=1/GPa)
#
#
# Indices 1 2 3 4 5 6 
#
# 1 0.125170 -0.011381 -0.017712 0.000000 0.000000 0.000000
# 2 -0.011381 0.010715 -0.002688 0.000000 0.000000 0.000000
# 3 -0.017712 -0.002688 0.010150 0.000000 0.000000 0.000000
# 4 0.000000 0.000000 0.000000 0.024987 0.000000 0.000000
# 5 0.000000 0.000000 0.000000 0.000000 -0.033837 0.000000
# 6 0.000000 0.000000 0.000000 0.000000 0.000000 0.058626
#
#
# Mechanical properties :
#
#
# Convention : Reuss Voigt Hill
#
# Bulk Modulus (GPa) = 12.12523 65.77201 38.94862
# Shear Modulus (GPa) = 17.42995 18.44199 17.93597
#
# Velocity S-wave (km/s) = 3.09406 3.18262 3.13865
# Velocity P-wave (km/s) = 4.40726 7.04486 5.87597
#
# Compressibility (1/GPa) = 0.08247263
#
# Stress axis : x y z
#
# Youngs Moduli (GPa) = 7.98914 93.32976 98.52474
#
# Poissons Ratio (x) = 1.06218 1.74505
# Poissons Ratio (y) = 0.09092 0.26485
# Poissons Ratio (z) = 0.14150 0.25088
#
# Static dielectric constant tensor:
#      x y z
#    x 1.606130 0.000000 0.000000 
#    y 0.000000 1.610980 0.000000 
#    z 0.000000 0.000000 1.677480 
# 
# From -- ./inp_files/31622.got.cif
#   From: 2010.05.17/outbox.cif.g08.bks.cpg/sg42_16_cif.got.tgz:31622.got - 2010.06.03 19:03:34.
