data_PCOD9368150
_publ_section_title
;
Structure prediction by ZEFSAII (Michael W. Deem and Ramdas Pophale) SiO2 
 PCOD9368150
Probable space group: F M M 2
;
_chemical_formula_sum "Si O2"
_cell_formula_units_Z 112
_cell_length_a 22.779287
_cell_length_b 15.785860
_cell_length_c 18.333216
_cell_angle_alpha 90.000000
_cell_angle_beta 90.000000
_cell_angle_gamma 90.000000
_cell_volume 6592.452792
_symmetry_space_group_name_H-M "F M M 2"
_symmetry_group_IT_number 42
_symmetry_cell_setting 'orthorhombic'
loop_
_space_group_symop_operation_xyz
x,y,z
-x,-y,z
-x,y,z
x,-y,z
x,1/2+y,1/2+z
-x,1/2-y,1/2+z
-x,1/2+y,1/2+z
x,1/2-y,1/2+z
1/2+x,y,1/2+z
1/2-x,-y,1/2+z
1/2-x,y,1/2+z
1/2+x,-y,1/2+z
1/2+x,1/2+y,z
1/2-x,1/2-y,z
1/2-x,1/2+y,z
1/2+x,1/2-y,z
loop_
_atom_site_type_symbol
_atom_site_label
_atom_site_fract_x
_atom_site_fract_y
_atom_site_fract_z
Si Si1 0.289602 0.334439 0.947030
Si Si2 0.276531 0.156388 0.139563
Si Si3 0.853038 0.602960 0.840646
Si Si4 0.826944 0.904175 0.496025
Si Si5 0.932707 0.396619 0.708124
Si Si6 0.219135 0.101454 0.797902
Si Si7 0.155750 0.097389 0.082098
O O1 0.250000 0.250000 0.951667
O O2 0.311455 0.352326 0.865998
O O3 0.240421 0.405309 0.966323
O O4 0.336571 0.344744 0.010723
O O5 0.250000 0.250000 0.138907
O O6 0.321534 0.143366 0.072851
O O7 0.300060 0.132805 0.218750
O O8 0.219039 0.099285 0.122638
O O9 0.854720 0.500000 0.844590
O O10 0.901419 0.631405 0.782947
O O11 0.788441 0.624187 0.809098
O O12 0.859526 0.632897 0.924599
O O13 0.846795 0.000000 0.509642
O O14 0.931660 0.500000 0.708977
O O15 0.892700 0.371751 0.639393
O O16 0.000000 0.369518 0.702775
O O17 0.213268 0.000000 0.802811
O O18 0.142868 0.000000 0.061496
#
# Coordination Sequence:
#
# PCOD9368150 Si02
#       7
#    16  16  16  16  16  16  16
#     4  10  18  27  39  61  89 119 150 181 211 264
#     4  11  19  26  39  63  92 116 150 181 217 265
#     4   8  14  25  40  58  81 110 140 175 218 257
#     4   9  16  26  40  56  80 120 153 173 208 266
#     4   9  16  26  43  67  89 111 148 196 236 265
#     4  10  17  28  43  60  87 121 151 178 216 270
#     4  10  17  28  43  59  88 125 150 182 225 267
#
# _framework density 16.989124
#
# number of rings (size 3 to 8) (size 9 to 14) (size 15 to 20)
#    0.000    2.429    1.429    6.429    0.000    0.000 
#    0.000    0.000    0.000    0.000    0.000    9.000 
#    0.000    1.143    0.000    8.857    0.000    3.571 
#
# Total GULP energy -155939.896510 kJ/mol
# GULP energy per Si atom -5569.282018 kJ/mol
# Density = 1.695046 g / cm^3
# Si number density = 16.989124 Si / 1000 Ang^3
#
#
#
# Elastic Constant Matrix: (Units=GPa)
#
#
# Indices 1 2 3 4 5 6 
#
# 1 50.9032 4.4697 45.8327 0.0000 0.0000 0.0000
# 2 4.4697 62.0355 38.9588 0.0000 0.0000 0.0000
# 3 45.8327 38.9588 202.6623 0.0000 0.0000 0.0000
# 4 0.0000 0.0000 0.0000 19.3651 0.0000 0.0000
# 5 0.0000 0.0000 0.0000 0.0000 14.7939 0.0000
# 6 0.0000 0.0000 0.0000 0.0000 0.0000 2.6382
#
#
#
# Elastic Compliance Matrix: (Units=1/GPa)
#
#
# Indices 1 2 3 4 5 6 
#
# 1 0.024880 0.001980 -0.006007 0.000000 0.000000 0.000000
# 2 0.001980 0.018491 -0.004002 0.000000 0.000000 0.000000
# 3 -0.006007 -0.004002 0.007062 0.000000 0.000000 0.000000
# 4 0.000000 0.000000 0.000000 0.051639 0.000000 0.000000
# 5 0.000000 0.000000 0.000000 0.000000 0.067595 0.000000
# 6 0.000000 0.000000 0.000000 0.000000 0.000000 0.379045
#
#
# Mechanical properties :
#
#
# Convention : Reuss Voigt Hill
#
# Bulk Modulus (GPa) = 29.09188 54.90260 41.99724
# Shear Modulus (GPa) = 8.67708 22.44877 15.56293
#
# Velocity S-wave (km/s) = 2.26242 3.63900 3.02992
# Velocity P-wave (km/s) = 4.89752 7.07410 6.08394
#
# Compressibility (1/GPa) = 0.03437385
#
# Stress axis : x y z
#
# Youngs Moduli (GPa) = 40.19252 54.08139 141.59690
#
# Poissons Ratio (x) = -0.10708 0.85063
# Poissons Ratio (y) = -0.07958 0.56672
# Poissons Ratio (z) = 0.24145 0.21645
#
# Static dielectric constant tensor:
#      x y z
#    x 1.542480 0.000000 0.000000 
#    y 0.000000 1.653970 0.000000 
#    z 0.000000 0.000000 1.656810 
# 
# From -- ./inp_files/22307.got.cif
#   From: 2010.05.17/outbox.cif.g08.bks.cpg/sg42_12_cif.got.tgz:22307.got - 2010.06.03 19:03:34.
