data_PCOD9368733
_publ_section_title
;
Structure prediction by ZEFSAII (Michael W. Deem and Ramdas Pophale) SiO2 
 PCOD9368733
Probable space group: F M M 2
;
_chemical_formula_sum "Si O2"
_cell_formula_units_Z 96
_cell_length_a 14.246959
_cell_length_b 14.474841
_cell_length_c 24.145437
_cell_angle_alpha 90.000000
_cell_angle_beta 90.000000
_cell_angle_gamma 90.000000
_cell_volume 4979.331567
_symmetry_space_group_name_H-M "F M M 2"
_symmetry_group_IT_number 42
_symmetry_cell_setting 'orthorhombic'
loop_
_space_group_symop_operation_xyz
x,y,z
-x,-y,z
-x,y,z
x,-y,z
x,1/2+y,1/2+z
-x,1/2-y,1/2+z
-x,1/2+y,1/2+z
x,1/2-y,1/2+z
1/2+x,y,1/2+z
1/2-x,-y,1/2+z
1/2-x,y,1/2+z
1/2+x,-y,1/2+z
1/2+x,1/2+y,z
1/2-x,1/2-y,z
1/2-x,1/2+y,z
1/2+x,1/2-y,z
loop_
_atom_site_type_symbol
_atom_site_label
_atom_site_fract_x
_atom_site_fract_y
_atom_site_fract_z
Si Si1 0.888987 0.602360 0.586950
Si Si2 0.764086 0.140925 0.982823
Si Si3 0.398558 0.000000 0.858907
Si Si4 0.104101 0.500000 0.991221
Si Si5 0.738949 0.359411 0.856560
Si Si6 0.887960 0.712693 0.695279
Si Si7 0.207418 0.892623 0.737206
O O1 0.862377 0.500000 0.608795
O O2 0.840235 0.616386 0.528376
O O3 0.867781 0.680002 0.632383
O O4 0.000000 0.603337 0.579016
O O5 0.750000 0.250000 0.982315
O O6 0.789541 0.113278 0.919330
O O7 0.668968 0.088948 0.001620
O O8 0.337534 0.910522 0.846471
O O9 0.500000 0.000000 0.832107
O O10 0.407901 0.000000 0.925052
O O11 0.000000 0.500000 0.016492
O O12 0.750000 0.250000 0.855766
O O13 0.680613 0.387379 0.802558
O O14 0.858617 0.818958 0.705749
O O15 0.812996 0.650042 0.729546
O O16 0.000000 0.698070 0.706280
O O17 0.203715 0.000000 0.719935
#
# Coordination Sequence:
#
# PCOD9368733 Si02
#       7
#    16  16   8   8  16  16  16
#     4  10  21  40  65  91 117 155 212 265 305 365
#     4  10  21  35  63  89 125 167 197 248 313 365
#     4   9  18  32  58  86 117 159 207 248 285 349
#     4   9  18  36  57  88 125 159 200 244 294 365
#     4  10  19  37  55  90 126 161 198 245 305 370
#     4  10  23  42  63  88 122 161 207 256 306 362
#     4  11  22  39  65  91 122 159 203 256 306 364
#
# _framework density 19.279696000000001
#
# number of rings (size 3 to 8) (size 9 to 14) (size 15 to 20)
#    0.000    2.000    3.333    0.500    2.333    2.667 
#    0.000    3.333    0.000    0.000    0.000    0.000 
#    0.000    0.000    0.000    0.000    0.000    0.000 
#
# Total GULP energy -133671.388370 kJ/mol
# GULP energy per Si atom -5569.641182 kJ/mol
# Density = 1.923581 g / cm^3
# Si number density = 19.279696 Si / 1000 Ang^3
#
#
#
# Elastic Constant Matrix: (Units=GPa)
#
#
# Indices 1 2 3 4 5 6 
#
# 1 57.4752 47.0895 48.2044 0.0000 0.0000 0.0000
# 2 47.0895 162.9005 42.3800 0.0000 0.0000 0.0000
# 3 48.2044 42.3800 117.6702 0.0000 0.0000 0.0000
# 4 0.0000 0.0000 0.0000 50.1699 0.0000 0.0000
# 5 0.0000 0.0000 0.0000 0.0000 20.9051 0.0000
# 6 0.0000 0.0000 0.0000 0.0000 0.0000 25.6401
#
#
#
# Elastic Compliance Matrix: (Units=1/GPa)
#
#
# Indices 1 2 3 4 5 6 
#
# 1 0.031504 -0.006344 -0.010621 0.000000 0.000000 0.000000
# 2 -0.006344 0.008051 -0.000301 0.000000 0.000000 0.000000
# 3 -0.010621 -0.000301 0.012958 0.000000 0.000000 0.000000
# 4 0.000000 0.000000 0.000000 0.019932 0.000000 0.000000
# 5 0.000000 0.000000 0.000000 0.000000 0.047835 0.000000
# 6 0.000000 0.000000 0.000000 0.000000 0.000000 0.039001
#
#
# Mechanical properties :
#
#
# Convention : Reuss Voigt Hill
#
# Bulk Modulus (GPa) = 55.61337 68.15486 61.88412
# Shear Modulus (GPa) = 25.02418 32.70114 28.86266
#
# Velocity S-wave (km/s) = 3.60662 4.12289 3.87337
# Velocity P-wave (km/s) = 6.80087 7.62179 7.22300
#
# Compressibility (1/GPa) = 0.01798129
#
# Stress axis : x y z
#
# Youngs Moduli (GPa) = 31.74179 124.21220 77.17409
#
# Poissons Ratio (x) = 0.78796 0.81968
# Poissons Ratio (y) = 0.20136 0.02321
# Poissons Ratio (z) = 0.33714 0.03736
#
# Static dielectric constant tensor:
#      x y z
#    x 1.682930 0.000000 0.000000 
#    y 0.000000 1.692210 0.000000 
#    z 0.000000 0.000000 1.700830 
# 
# From -- ./inp_files/29421.got.cif
#   From: 2010.05.17/outbox.cif.g08.bks.cpg/sg42_15_cif.got.tgz:29421.got - 2010.06.03 19:03:34.
