data_PCOD9368494
_publ_section_title
;
Structure prediction by ZEFSAII (Michael W. Deem and Ramdas Pophale) SiO2 
 PCOD9368494
Probable space group: F M M 2
;
_chemical_formula_sum "Si O2"
_cell_formula_units_Z 128
_cell_length_a 15.195377
_cell_length_b 26.416500
_cell_length_c 18.361019
_cell_angle_alpha 90.000000
_cell_angle_beta 90.000000
_cell_angle_gamma 90.000000
_cell_volume 7370.272336
_symmetry_space_group_name_H-M "F M M 2"
_symmetry_group_IT_number 42
_symmetry_cell_setting 'orthorhombic'
loop_
_space_group_symop_operation_xyz
x,y,z
-x,-y,z
-x,y,z
x,-y,z
x,1/2+y,1/2+z
-x,1/2-y,1/2+z
-x,1/2+y,1/2+z
x,1/2-y,1/2+z
1/2+x,y,1/2+z
1/2-x,-y,1/2+z
1/2-x,y,1/2+z
1/2+x,-y,1/2+z
1/2+x,1/2+y,z
1/2-x,1/2-y,z
1/2-x,1/2+y,z
1/2+x,1/2-y,z
loop_
_atom_site_type_symbol
_atom_site_label
_atom_site_fract_x
_atom_site_fract_y
_atom_site_fract_z
Si Si1 0.099702 0.217628 0.767970
Si Si2 0.103207 0.060158 0.033089
Si Si3 0.727665 0.859196 0.609270
Si Si4 0.101912 0.828407 0.339041
Si Si5 0.824523 0.792267 0.491228
Si Si6 0.097315 0.766881 0.118716
Si Si7 0.271994 0.628869 0.772056
Si Si8 0.900052 0.439442 0.361841
O O1 0.108035 0.273614 0.800291
O O2 0.109286 0.225263 0.681329
O O3 0.174754 0.179937 0.793594
O O4 0.000000 0.199652 0.783919
O O5 0.166811 0.095804 0.079117
O O6 0.000000 0.068770 0.050756
O O7 0.120534 0.000000 0.042489
O O8 0.114306 0.072733 0.947238
O O9 0.786341 0.836126 0.543989
O O10 0.667444 0.810745 0.629182
O O11 0.773188 0.875608 0.684520
O O12 0.131739 0.817326 0.421459
O O13 0.172467 0.864909 0.300553
O O14 0.000000 0.845008 0.334806
O O15 0.750000 0.750000 0.471271
O O16 0.890367 0.759629 0.541276
O O17 0.000000 0.788485 0.126807
O O18 0.326445 0.585320 0.811834
O O19 0.897490 0.500000 0.355885
O O20 0.000000 0.423053 0.342629
#
# Coordination Sequence:
#
# PCOD9368494 Si02
#       8
#    16  16  16  16  16  16  16  16
#     4  10  20  34  52  77 108 148 185 221 269 316
#     4   9  19  37  58  78 103 134 175 229 280 324
#     4  11  21  31  53  81 108 143 178 219 272 323
#     4  11  23  35  51  76 111 152 189 226 266 316
#     4  10  20  34  50  75 103 144 189 229 270 312
#     4  10  19  33  50  72 109 147 183 220 264 318
#     4  12  21  34  57  82 112 142 182 223 273 331
#     4   9  20  40  63  85 107 134 175 232 289 331
#
# _framework density 17.367065
#
# number of rings (size 3 to 8) (size 9 to 14) (size 15 to 20)
#    0.000    1.750    2.500    3.750    0.000    2.000 
#    0.000    2.500    0.000    0.375    0.000    0.000 
#    0.000    0.000    0.000    0.000    0.000    0.000 
#
# Total GULP energy -178554.124048 kJ/mol
# GULP energy per Si atom -5579.816377 kJ/mol
# Density = 1.732754 g / cm^3
# Si number density = 17.367065 Si / 1000 Ang^3
#
#
#
# Elastic Constant Matrix: (Units=GPa)
#
#
# Indices 1 2 3 4 5 6 
#
# 1 98.4735 31.9259 37.8774 0.0000 0.0000 0.0000
# 2 31.9259 45.5200 24.4451 0.0000 0.0000 0.0000
# 3 37.8774 24.4451 72.9155 0.0000 0.0000 0.0000
# 4 0.0000 0.0000 0.0000 20.1018 0.0000 0.0000
# 5 0.0000 0.0000 0.0000 0.0000 25.1488 0.0000
# 6 0.0000 0.0000 0.0000 0.0000 0.0000 26.7961
#
#
#
# Elastic Compliance Matrix: (Units=1/GPa)
#
#
# Indices 1 2 3 4 5 6 
#
# 1 0.014515 -0.007477 -0.005033 0.000000 0.000000 0.000000
# 2 -0.007477 0.030644 -0.006389 0.000000 0.000000 0.000000
# 3 -0.005033 -0.006389 0.018471 0.000000 0.000000 0.000000
# 4 0.000000 0.000000 0.000000 0.049747 0.000000 0.000000
# 5 0.000000 0.000000 0.000000 0.000000 0.039763 0.000000
# 6 0.000000 0.000000 0.000000 0.000000 0.000000 0.037319
#
#
# Mechanical properties :
#
#
# Convention : Reuss Voigt Hill
#
# Bulk Modulus (GPa) = 38.71415 45.04510 41.87962
# Shear Modulus (GPa) = 21.10868 22.58672 21.84770
#
# Velocity S-wave (km/s) = 3.49010 3.61023 3.55067
# Velocity P-wave (km/s) = 6.21138 6.58572 6.40128
#
# Compressibility (1/GPa) = 0.02583035
#
# Stress axis : x y z
#
# Youngs Moduli (GPa) = 68.89252 32.63305 54.13830
#
# Poissons Ratio (x) = 0.24401 0.27250
# Poissons Ratio (y) = 0.51514 0.34590
# Poissons Ratio (z) = 0.34677 0.20850
#
# Static dielectric constant tensor:
#      x y z
#    x 1.612430 0.000000 0.000000 
#    y 0.000000 1.565620 0.000000 
#    z 0.000000 0.000000 1.610150 
# 
# From -- ./inp_files/21228.got.cif
#   From: 2010.05.17/outbox.cif.g08.bks.cpg/sg42_11_cif.got.tgz:21228.got - 2010.06.03 19:03:34.
