data_PCOD9368177
_publ_section_title
;
Structure prediction by ZEFSAII (Michael W. Deem and Ramdas Pophale) SiO2 
 PCOD9368177
Probable space group: F M M 2
;
_chemical_formula_sum "Si O2"
_cell_formula_units_Z 128
_cell_length_a 17.055456
_cell_length_b 18.413106
_cell_length_c 22.613203
_cell_angle_alpha 90.000000
_cell_angle_beta 90.000000
_cell_angle_gamma 90.000000
_cell_volume 7101.538896
_symmetry_space_group_name_H-M "F M M 2"
_symmetry_group_IT_number 42
_symmetry_cell_setting 'orthorhombic'
loop_
_space_group_symop_operation_xyz
x,y,z
-x,-y,z
-x,y,z
x,-y,z
x,1/2+y,1/2+z
-x,1/2-y,1/2+z
-x,1/2+y,1/2+z
x,1/2-y,1/2+z
1/2+x,y,1/2+z
1/2-x,-y,1/2+z
1/2-x,y,1/2+z
1/2+x,-y,1/2+z
1/2+x,1/2+y,z
1/2-x,1/2-y,z
1/2-x,1/2+y,z
1/2+x,1/2-y,z
loop_
_atom_site_type_symbol
_atom_site_label
_atom_site_fract_x
_atom_site_fract_y
_atom_site_fract_z
Si Si1 0.908869 0.920216 0.550780
Si Si2 0.591224 0.331313 0.432961
Si Si3 0.755512 0.586290 0.260536
Si Si4 0.319993 0.343031 0.648117
Si Si5 0.259348 0.413758 0.395277
Si Si6 0.914346 0.586255 0.709300
Si Si7 0.673802 0.800960 0.477003
Si Si8 0.858016 0.312515 0.609985
O O1 0.897300 0.860721 0.500192
O O2 0.859061 0.904374 0.608350
O O3 0.000000 0.918721 0.566788
O O4 0.890416 0.000000 0.525845
O O5 0.500000 0.340631 0.417312
O O6 0.653412 0.379193 0.397084
O O7 0.618550 0.247889 0.435159
O O8 0.765684 0.500000 0.248421
O O9 0.807665 0.632990 0.215475
O O10 0.772449 0.599231 0.329147
O O11 0.663632 0.603756 0.246987
O O12 0.232937 0.331469 0.622427
O O13 0.367291 0.268907 0.635708
O O14 0.262165 0.500000 0.405690
O O15 0.207477 0.371222 0.443604
O O16 0.910886 0.500000 0.697621
O O17 0.906831 0.631171 0.648691
O O18 0.000000 0.601673 0.736786
O O19 0.750000 0.750000 0.489530
O O20 0.632031 0.815442 0.539543
#
# Coordination Sequence:
#
# PCOD9368177 Si02
#       8
#    16  16  16  16  16  16  16  16
#     4  10  19  30  50  80 108 136 168 209 272 334
#     4  10  20  34  52  78 113 145 173 216 275 328
#     4   9  19  35  55  76 100 139 178 216 262 301
#     4  10  17  32  50  75 108 133 169 218 258 311
#     4  10  21  36  56  81 106 141 188 227 264 310
#     4   9  19  34  50  74 107 137 170 213 262 319
#     4  10  18  35  53  77 108 142 176 224 268 315
#     4  10  18  30  51  76 103 134 175 209 264 313
#
# _framework density 18.024262
#
# number of rings (size 3 to 8) (size 9 to 14) (size 15 to 20)
#    0.000    2.250    2.500    1.500    0.000    3.250 
#   13.500    1.250    0.000    1.125    0.000    1.750 
#    0.000    0.000    0.000    0.000    0.000    0.000 
#
# Total GULP energy -178367.979985 kJ/mol
# GULP energy per Si atom -5573.999375 kJ/mol
# Density = 1.798324 g / cm^3
# Si number density = 18.024262 Si / 1000 Ang^3
#
#
#
# Elastic Constant Matrix: (Units=GPa)
#
#
# Indices 1 2 3 4 5 6 
#
# 1 32.5929 20.3729 12.0385 0.0000 0.0000 0.0000
# 2 20.3729 66.0503 31.2570 0.0000 0.0000 0.0000
# 3 12.0385 31.2570 76.6735 0.0000 0.0000 0.0000
# 4 0.0000 0.0000 0.0000 25.5003 0.0000 0.0000
# 5 0.0000 0.0000 0.0000 0.0000 15.8291 0.0000
# 6 0.0000 0.0000 0.0000 0.0000 0.0000 17.8336
#
#
#
# Elastic Compliance Matrix: (Units=1/GPa)
#
#
# Indices 1 2 3 4 5 6 
#
# 1 0.038145 -0.011066 -0.001478 0.000000 0.000000 0.000000
# 2 -0.011066 0.021969 -0.007219 0.000000 0.000000 0.000000
# 3 -0.001478 -0.007219 0.016217 0.000000 0.000000 0.000000
# 4 0.000000 0.000000 0.000000 0.039215 0.000000 0.000000
# 5 0.000000 0.000000 0.000000 0.000000 0.063175 0.000000
# 6 0.000000 0.000000 0.000000 0.000000 0.000000 0.056074
#
#
# Mechanical properties :
#
#
# Convention : Reuss Voigt Hill
#
# Bulk Modulus (GPa) = 27.16957 33.62815 30.39886
# Shear Modulus (GPa) = 17.44660 19.27581 18.36121
#
# Velocity S-wave (km/s) = 3.11457 3.27377 3.19516
# Velocity P-wave (km/s) = 5.29534 5.74350 5.52397
#
# Compressibility (1/GPa) = 0.03680588
#
# Stress axis : x y z
#
# Youngs Moduli (GPa) = 26.21608 45.51792 61.66320
#
# Poissons Ratio (x) = 0.50371 0.09112
# Poissons Ratio (y) = 0.29011 0.44512
# Poissons Ratio (z) = 0.03874 0.32858
#
# Static dielectric constant tensor:
#      x y z
#    x 1.621100 0.000000 0.000000 
#    y 0.000000 1.656100 0.000000 
#    z 0.000000 0.000000 1.605680 
# 
# From -- ./inp_files/26230.got.cif
#   From: 2010.05.17/outbox.cif.g08.bks.cpg/sg42_14_cif.got.tgz:26230.got - 2010.06.03 19:03:34.
