data_PCOD9368616
_publ_section_title
;
Structure prediction by ZEFSAII (Michael W. Deem and Ramdas Pophale) SiO2 
 PCOD9368616
Probable space group: F M M 2
;
_chemical_formula_sum "Si O2"
_cell_formula_units_Z 112
_cell_length_a 27.709346
_cell_length_b 14.553907
_cell_length_c 12.554872
_cell_angle_alpha 90.000000
_cell_angle_beta 90.000000
_cell_angle_gamma 90.000000
_cell_volume 5063.119298
_symmetry_space_group_name_H-M "F M M 2"
_symmetry_group_IT_number 42
_symmetry_cell_setting 'orthorhombic'
loop_
_space_group_symop_operation_xyz
x,y,z
-x,-y,z
-x,y,z
x,-y,z
x,1/2+y,1/2+z
-x,1/2-y,1/2+z
-x,1/2+y,1/2+z
x,1/2-y,1/2+z
1/2+x,y,1/2+z
1/2-x,-y,1/2+z
1/2-x,y,1/2+z
1/2+x,-y,1/2+z
1/2+x,1/2+y,z
1/2-x,1/2-y,z
1/2-x,1/2+y,z
1/2+x,1/2-y,z
loop_
_atom_site_type_symbol
_atom_site_label
_atom_site_fract_x
_atom_site_fract_y
_atom_site_fract_z
Si Si1 0.053060 0.607127 0.069850
Si Si2 0.157540 0.395539 0.969693
Si Si3 0.384441 0.391239 0.968440
Si Si4 0.298154 0.187958 0.176307
Si Si5 0.057228 0.603087 0.682915
Si Si6 0.199501 0.288125 0.407582
Si Si7 0.403392 0.276841 0.754659
O O1 0.052775 0.500000 0.102190
O O2 0.101321 0.616446 0.000099
O O3 0.062070 0.669254 0.172843
O O4 0.000000 0.627609 0.022187
O O5 0.165444 0.500000 0.931566
O O6 0.189807 0.379430 0.078133
O O7 0.171404 0.309528 0.895427
O O8 0.383277 0.500000 0.948846
O O9 0.330919 0.350317 0.987444
O O10 0.399427 0.336515 0.861850
O O11 0.418671 0.374214 0.068773
O O12 0.250000 0.250000 0.162654
O O13 0.291880 0.154345 0.299203
O O14 0.351512 0.232096 0.195015
O O15 0.072245 0.500000 0.712422
O O16 0.074461 0.676935 0.767258
O O17 0.000000 0.605333 0.671438
O O18 0.250000 0.250000 0.444558
#
# Coordination Sequence:
#
# PCOD9368616 Si02
#       7
#    16  16  16  16  16  16  16
#     4   9  17  29  49  79 110 139 176 226 282 333
#     4  10  20  35  57  83 111 146 188 231 277 335
#     4  10  21  38  61  88 116 150 196 246 291 341
#     4   9  19  36  55  78 111 147 182 229 284 337
#     4  10  22  39  58  84 119 156 194 238 292 352
#     4  10  21  37  57  84 118 150 187 236 289 343
#     4  10  19  34  58  83 111 148 191 238 285 339
#
# _framework density 22.120750999999998
#
# number of rings (size 3 to 8) (size 9 to 14) (size 15 to 20)
#    0.000    2.286    0.000    3.000    0.000    5.143 
#    0.000    8.571    0.000    6.857    0.000   18.000 
#    0.000    0.000    0.000    0.000    0.000    0.000 
#
# Total GULP energy -156050.853058 kJ/mol
# GULP energy per Si atom -5573.244752 kJ/mol
# Density = 2.207040 g / cm^3
# Si number density = 22.120751 Si / 1000 Ang^3
#
#
#
# Elastic Constant Matrix: (Units=GPa)
#
#
# Indices 1 2 3 4 5 6 
#
# 1 128.0148 45.4463 4.8539 0.0000 0.0000 0.0000
# 2 45.4463 114.8699 44.2506 0.0000 0.0000 0.0000
# 3 4.8539 44.2506 62.0400 0.0000 0.0000 0.0000
# 4 0.0000 0.0000 0.0000 28.0006 0.0000 0.0000
# 5 0.0000 0.0000 0.0000 0.0000 11.9898 0.0000
# 6 0.0000 0.0000 0.0000 0.0000 0.0000 31.4445
#
#
#
# Elastic Compliance Matrix: (Units=1/GPa)
#
#
# Indices 1 2 3 4 5 6 
#
# 1 0.009392 -0.004733 0.002641 0.000000 0.000000 0.000000
# 2 -0.004733 0.014389 -0.009893 0.000000 0.000000 0.000000
# 3 0.002641 -0.009893 0.022968 0.000000 0.000000 0.000000
# 4 0.000000 0.000000 0.000000 0.035714 0.000000 0.000000
# 5 0.000000 0.000000 0.000000 0.000000 0.083405 0.000000
# 6 0.000000 0.000000 0.000000 0.000000 0.000000 0.031802
#
#
# Mechanical properties :
#
#
# Convention : Reuss Voigt Hill
#
# Bulk Modulus (GPa) = 43.89942 54.89182 49.39562
# Shear Modulus (GPa) = 21.81201 28.31191 25.06196
#
# Velocity S-wave (km/s) = 3.14354 3.58142 3.36960
# Velocity P-wave (km/s) = 5.75015 6.47847 6.12515
#
# Compressibility (1/GPa) = 0.02277935
#
# Stress axis : x y z
#
# Youngs Moduli (GPa) = 106.47652 69.49758 43.53869
#
# Poissons Ratio (x) = 0.32894 -0.11499
# Poissons Ratio (y) = 0.50396 0.43072
# Poissons Ratio (z) = -0.28122 0.68752
#
# Static dielectric constant tensor:
#      x y z
#    x 1.887000 0.000000 0.000000 
#    y 0.000000 1.801540 0.000000 
#    z 0.000000 0.000000 1.837350 
# 
# From -- ./inp_files/17066.got.cif
#   From: 2010.05.17/outbox.cif.g08.bks.cpg/sg42_9_cif.got.tgz:17066.got - 2010.06.03 19:03:34.
