data_PCOD9368952
_publ_section_title
;
Structure prediction by ZEFSAII (Michael W. Deem and Ramdas Pophale) SiO2 
 PCOD9368952
Probable space group: F M M 2
;
_chemical_formula_sum "Si O2"
_cell_formula_units_Z 80
_cell_length_a 23.730222
_cell_length_b 21.584236
_cell_length_c 8.834135
_cell_angle_alpha 90.000000
_cell_angle_beta 90.000000
_cell_angle_gamma 90.000000
_cell_volume 4524.832568
_symmetry_space_group_name_H-M "F M M 2"
_symmetry_group_IT_number 42
_symmetry_cell_setting 'orthorhombic'
loop_
_space_group_symop_operation_xyz
x,y,z
-x,-y,z
-x,y,z
x,-y,z
x,1/2+y,1/2+z
-x,1/2-y,1/2+z
-x,1/2+y,1/2+z
x,1/2-y,1/2+z
1/2+x,y,1/2+z
1/2-x,-y,1/2+z
1/2-x,y,1/2+z
1/2+x,-y,1/2+z
1/2+x,1/2+y,z
1/2-x,1/2-y,z
1/2-x,1/2+y,z
1/2+x,1/2-y,z
loop_
_atom_site_type_symbol
_atom_site_label
_atom_site_fract_x
_atom_site_fract_y
_atom_site_fract_z
Si Si1 0.749903 0.363310 0.474420
Si Si2 0.894792 0.685201 0.240123
Si Si3 0.823414 0.701441 0.722663
Si Si4 0.175425 0.072478 0.720974
Si Si5 0.563078 0.796894 0.580064
O O1 0.784970 0.316863 0.581054
O O2 0.705694 0.326694 0.369395
O O3 0.792467 0.401994 0.369554
O O4 0.716010 0.410084 0.581871
O O5 0.836129 0.725410 0.240712
O O6 0.879779 0.615223 0.204585
O O7 0.930941 0.723512 0.118488
O O8 0.922087 0.692030 0.405253
O O9 0.886354 0.676141 0.683623
O O10 0.164565 0.000000 0.729960
O O11 0.500000 0.817691 0.614650
#
# Coordination Sequence:
#
# PCOD9368952 Si02
#       5
#    16  16  16  16  16
#     4  10  20  36  53  80 119 146 186 221 286 333
#     4  10  20  35  53  85 107 144 179 228 284 323
#     4   9  21  34  55  85 107 148 171 238 282 336
#     4  11  21  34  51  78 116 155 187 220 263 335
#     4  10  20  37  58  85 109 137 182 232 289 330
#
# _framework density 17.680211
#
# number of rings (size 3 to 8) (size 9 to 14) (size 15 to 20)
#    1.200    0.800    2.000    2.400    0.000    4.800 
#    0.000    0.000    0.000    2.400    0.000    0.000 
#    0.000    0.000    0.000    0.000    0.000    0.000 
#
# Total GULP energy -111508.615286 kJ/mol
# GULP energy per Si atom -5575.430764 kJ/mol
# Density = 1.763997 g / cm^3
# Si number density = 17.680211 Si / 1000 Ang^3
#
#
#
# Elastic Constant Matrix: (Units=GPa)
#
#
# Indices 1 2 3 4 5 6 
#
# 1 103.0831 26.7657 30.8306 0.0002 0.0000 0.0000
# 2 26.7657 90.5721 19.9425 -0.0005 0.0001 0.0001
# 3 30.8306 19.9425 68.9054 -0.0010 0.0001 0.0001
# 4 0.0002 -0.0005 -0.0010 11.1683 0.0000 0.0002
# 5 0.0000 0.0001 0.0001 0.0000 17.1521 0.0000
# 6 0.0000 0.0001 0.0001 0.0002 0.0000 13.1922
#
#
#
# Elastic Compliance Matrix: (Units=1/GPa)
#
#
# Indices 1 2 3 4 5 6 
#
# 1 0.011691 -0.002460 -0.004519 -0.000001 0.000000 0.000000
# 2 -0.002460 0.012310 -0.002462 0.000000 0.000000 0.000000
# 3 -0.004519 -0.002462 0.017247 0.000001 0.000000 0.000000
# 4 -0.000001 0.000000 0.000001 0.089539 0.000000 -0.000001
# 5 0.000000 0.000000 0.000000 0.000000 0.058302 0.000000
# 6 0.000000 0.000000 0.000000 -0.000001 0.000000 0.075802
#
#
# Mechanical properties :
#
#
# Convention : Reuss Voigt Hill
#
# Bulk Modulus (GPa) = 44.71030 46.40423 45.55726
# Shear Modulus (GPa) = 17.16861 20.63732 18.90296
#
# Velocity S-wave (km/s) = 3.11957 3.42022 3.27335
# Velocity P-wave (km/s) = 6.19022 6.47307 6.33322
#
# Compressibility (1/GPa) = 0.02236621
#
# Stress axis : x y z
#
# Youngs Moduli (GPa) = 85.53423 81.23480 57.98043
#
# Poissons Ratio (x) = 0.19983 0.26202
# Poissons Ratio (y) = 0.21041 0.14275
# Poissons Ratio (z) = 0.38654 0.20001
#
# Static dielectric constant tensor:
#      x y z
#    x 1.641940 0.000000 0.000000 
#    y 0.000000 1.591200 0.000000 
#    z 0.000000 0.000000 1.616940 
# 
# From -- ./inp_files/5514.got.cif
#   From: 2010.05.17/outbox.cif.g08.bks.cpg/sg42_3_cif.got.tgz:5514.got - 2010.06.03 19:03:34.
