data_PCOD9368592
_publ_section_title
;
Structure prediction by ZEFSAII (Michael W. Deem and Ramdas Pophale) SiO2 
 PCOD9368592
Probable space group: F M M 2
;
_chemical_formula_sum "Si O2"
_cell_formula_units_Z 80
_cell_length_a 23.945707
_cell_length_b 12.515145
_cell_length_c 10.868424
_cell_angle_alpha 90.000000
_cell_angle_beta 90.000000
_cell_angle_gamma 90.000000
_cell_volume 3257.092726
_symmetry_space_group_name_H-M "F M M 2"
_symmetry_group_IT_number 42
_symmetry_cell_setting 'orthorhombic'
loop_
_space_group_symop_operation_xyz
x,y,z
-x,-y,z
-x,y,z
x,-y,z
x,1/2+y,1/2+z
-x,1/2-y,1/2+z
-x,1/2+y,1/2+z
x,1/2-y,1/2+z
1/2+x,y,1/2+z
1/2-x,-y,1/2+z
1/2-x,y,1/2+z
1/2+x,-y,1/2+z
1/2+x,1/2+y,z
1/2-x,1/2-y,z
1/2-x,1/2+y,z
1/2+x,1/2-y,z
loop_
_atom_site_type_symbol
_atom_site_label
_atom_site_fract_x
_atom_site_fract_y
_atom_site_fract_z
Si Si1 0.437492 0.384152 0.125000
Si Si2 0.265277 0.879307 0.224726
Si Si3 0.354029 0.614285 0.500548
Si Si4 0.562490 0.345986 0.705163
Si Si5 0.352318 0.655818 0.911458
O O1 0.500000 0.376177 0.061709
O O2 0.436175 0.500000 0.184778
O O3 0.436288 0.282776 0.212041
O O4 0.383199 0.374660 0.037657
O O5 0.250000 0.750000 0.216226
O O6 0.309665 0.882324 0.112205
O O7 0.293715 0.884898 0.360455
O O8 0.236315 0.000000 0.211207
O O9 0.350229 0.500000 0.437979
O O10 0.412970 0.625488 0.572041
O O11 0.346174 0.716223 0.416213
O O12 0.500000 0.382519 0.721046
O O13 0.603675 0.382570 0.810115
#
# Coordination Sequence:
#
# PCOD9368592 Si02
#       5
#    16  16  16  16  16
#     4   9  17  30  49  75 108 144 178 212 256 314
#     4  10  22  41  61  83 111 144 185 234 289 346
#     4   9  20  37  55  79 112 147 185 230 281 337
#     4   9  18  32  50  76 111 147 182 221 267 321
#     4  10  19  34  56  81 108 139 180 229 275 326
#
# _framework density 24.561782000000001
#
# number of rings (size 3 to 8) (size 9 to 14) (size 15 to 20)
#    0.000    2.600    0.000    1.200    0.000    4.400 
#    0.000   11.000    0.000    0.000    0.000    0.000 
#    0.000    0.000    0.000    0.000    0.000    0.000 
#
# Total GULP energy -111358.638283 kJ/mol
# GULP energy per Si atom -5567.931914 kJ/mol
# Density = 2.450588 g / cm^3
# Si number density = 24.561782 Si / 1000 Ang^3
#
#
#
# Elastic Constant Matrix: (Units=GPa)
#
#
# Indices 1 2 3 4 5 6 
#
# 1 40.8844 31.7629 10.0546 0.0000 0.0000 0.0000
# 2 31.7629 264.0854 8.9998 0.0000 0.0000 0.0000
# 3 10.0546 8.9998 28.9720 0.0000 0.0000 0.0000
# 4 0.0000 0.0000 0.0000 -12.9134 0.0000 0.0000
# 5 0.0000 0.0000 0.0000 0.0000 25.7662 0.0000
# 6 0.0000 0.0000 0.0000 0.0000 0.0000 -4.1095
#
#
#
# Elastic Compliance Matrix: (Units=1/GPa)
#
#
# Indices 1 2 3 4 5 6 
#
# 1 0.029192 -0.003200 -0.009137 0.000000 0.000000 0.000000
# 2 -0.003200 0.004178 -0.000187 0.000000 0.000000 0.000000
# 3 -0.009137 -0.000187 0.037745 0.000000 0.000000 0.000000
# 4 0.000000 0.000000 0.000000 -0.077439 0.000000 0.000000
# 5 0.000000 0.000000 0.000000 0.000000 0.038811 0.000000
# 6 0.000000 0.000000 0.000000 0.000000 0.000000 -0.243338
#
#
# Mechanical properties :
#
#
# Convention : Reuss Voigt Hill
#
# Bulk Modulus (GPa) = 21.70751 48.39738 35.05244
# Shear Modulus (GPa) = -29.33461 20.62363 -4.35549
#
# Velocity S-wave (km/s) = -3.45964 2.90084 -1.33309
# Velocity P-wave (km/s) = 2.66490 5.56479 3.45436
#
# Compressibility (1/GPa) = 0.04606700
#
# Stress axis : x y z
#
# Youngs Moduli (GPa) = 34.25589 239.35575 26.49340
#
# Poissons Ratio (x) = 0.76586 0.24207
# Poissons Ratio (y) = 0.10961 0.00496
# Poissons Ratio (z) = 0.31300 0.04485
#
# Static dielectric constant tensor:
#      x y z
#    x 2.009530 0.000000 0.000000 
#    y 0.000000 2.023550 0.000000 
#    z 0.000000 0.000000 1.878960 
# 
# From -- ./inp_files/6948.got.cif
#   From: 2010.05.17/outbox.cif.g08.bks.cpg/sg42_4_cif.got.tgz:6948.got - 2010.06.03 19:03:34.
