data_PCOD9368850
_publ_section_title
;
Structure prediction by ZEFSAII (Michael W. Deem and Ramdas Pophale) SiO2 
 PCOD9368850
Probable space group: F M M 2
;
_chemical_formula_sum "Si O2"
_cell_formula_units_Z 112
_cell_length_a 7.332407
_cell_length_b 32.343497
_cell_length_c 20.824278
_cell_angle_alpha 90.000000
_cell_angle_beta 90.000000
_cell_angle_gamma 90.000000
_cell_volume 4938.595889
_symmetry_space_group_name_H-M "F M M 2"
_symmetry_group_IT_number 42
_symmetry_cell_setting 'orthorhombic'
loop_
_space_group_symop_operation_xyz
x,y,z
-x,-y,z
-x,y,z
x,-y,z
x,1/2+y,1/2+z
-x,1/2-y,1/2+z
-x,1/2+y,1/2+z
x,1/2-y,1/2+z
1/2+x,y,1/2+z
1/2-x,-y,1/2+z
1/2-x,y,1/2+z
1/2+x,-y,1/2+z
1/2+x,1/2+y,z
1/2-x,1/2-y,z
1/2-x,1/2+y,z
1/2+x,1/2-y,z
loop_
_atom_site_type_symbol
_atom_site_label
_atom_site_fract_x
_atom_site_fract_y
_atom_site_fract_z
Si Si1 0.780341 0.365478 0.361410
Si Si2 0.720408 0.067973 0.183292
Si Si3 0.221299 0.160210 0.723770
Si Si4 0.277576 0.044983 0.040578
Si Si5 0.721966 0.456008 0.824495
Si Si6 0.782208 0.703315 0.101338
Si Si7 0.213197 0.365322 0.003335
O O1 0.716420 0.341562 0.297590
O O2 0.716230 0.413252 0.355800
O O3 0.727934 0.349317 0.430861
O O4 0.000000 0.366177 0.358927
O O5 0.500000 0.066088 0.182605
O O6 0.769495 0.116082 0.191622
O O7 0.777543 0.049559 0.115547
O O8 0.776446 0.046533 0.249461
O O9 0.284504 0.194773 0.673949
O O10 0.000000 0.161578 0.726715
O O11 0.500000 0.044377 0.037704
O O12 0.215810 0.000000 0.016067
O O13 0.213263 0.087696 0.008075
O O14 0.500000 0.455414 0.826259
O O15 0.782653 0.500000 0.852045
O O16 0.750000 0.750000 0.080220
O O17 0.000000 0.698292 0.103168
O O18 0.710576 0.668025 0.053301
O O19 0.000000 0.369552 0.019533
#
# Coordination Sequence:
#
# PCOD9368850 Si02
#       7
#    16  16  16  16  16  16  16
#     4   9  18  31  50  72  99 137 172 203 246 299
#     4   8  11  19  38  65  95 124 157 204 253 288
#     4   8  14  29  51  73  97 125 159 204 255 295
#     4   9  15  23  40  68 100 134 170 205 244 291
#     4   8  13  21  37  65  97 127 166 213 251 284
#     4  10  20  36  58  80 101 128 164 209 259 305
#     4  10  20  34  50  73 108 140 165 204 253 298
#
# _framework density 22.678511
#
# number of rings (size 3 to 8) (size 9 to 14) (size 15 to 20)
#    0.000    3.143    1.429    2.143    0.000    2.857 
#    0.000    1.429    0.000    3.429    0.000    0.000 
#    0.000    2.571    0.000    0.000    0.000    0.000 
#
# Total GULP energy -156215.576033 kJ/mol
# GULP energy per Si atom -5579.127715 kJ/mol
# Density = 2.262689 g / cm^3
# Si number density = 22.678511 Si / 1000 Ang^3
#
#
#
# Elastic Constant Matrix: (Units=GPa)
#
#
# Indices 1 2 3 4 5 6 
#
# 1 87.1567 5.2875 -4.2356 0.0000 0.0000 0.0000
# 2 5.2875 105.8553 62.7913 0.0000 0.0000 0.0000
# 3 -4.2356 62.7913 129.6141 0.0000 0.0000 0.0000
# 4 0.0000 0.0000 0.0000 -2.1105 0.0000 0.0000
# 5 0.0000 0.0000 0.0000 0.0000 6.2425 0.0000
# 6 0.0000 0.0000 0.0000 0.0000 0.0000 -7.5149
#
#
#
# Elastic Compliance Matrix: (Units=1/GPa)
#
#
# Indices 1 2 3 4 5 6 
#
# 1 0.011587 -0.001127 0.000925 0.000000 0.000000 0.000000
# 2 -0.001127 0.013366 -0.006512 0.000000 0.000000 0.000000
# 3 0.000925 -0.006512 0.010900 0.000000 0.000000 0.000000
# 4 0.000000 0.000000 0.000000 -0.473831 0.000000 0.000000
# 5 0.000000 0.000000 0.000000 0.000000 0.160191 0.000000
# 6 0.000000 0.000000 0.000000 0.000000 0.000000 -0.133069
#
#
# Mechanical properties :
#
#
# Convention : Reuss Voigt Hill
#
# Bulk Modulus (GPa) = 44.59507 50.03470 47.31489
# Shear Modulus (GPa) = -12.82207 16.57563 1.87678
#
# Velocity S-wave (km/s) = -2.38036 2.70644 0.91069
# Velocity P-wave (km/s) = 3.48596 5.64597 4.69195
#
# Compressibility (1/GPa) = 0.02242400
#
# Stress axis : x y z
#
# Youngs Moduli (GPa) = 86.30418 74.81714 91.74206
#
# Poissons Ratio (x) = 0.08434 -0.08484
# Poissons Ratio (y) = 0.09729 0.59742
# Poissons Ratio (z) = -0.07981 0.48720
#
# Static dielectric constant tensor:
#      x y z
#    x 1.955930 0.000000 0.000000 
#    y 0.000000 1.832210 0.000000 
#    z 0.000000 0.000000 1.828900 
# 
# From -- ./inp_files/24654.got.cif
#   From: 2010.05.17/outbox.cif.g08.bks.cpg/sg42_13_cif.got.tgz:24654.got - 2010.06.03 19:03:34.
