data_PCOD9368781
_publ_section_title
;
Structure prediction by ZEFSAII (Michael W. Deem and Ramdas Pophale) SiO2 
 PCOD9368781
Probable space group: F M M 2
;
_chemical_formula_sum "Si O2"
_cell_formula_units_Z 96
_cell_length_a 24.069755
_cell_length_b 8.938904
_cell_length_c 26.781198
_cell_angle_alpha 90.000000
_cell_angle_beta 90.000000
_cell_angle_gamma 90.000000
_cell_volume 5762.168358
_symmetry_space_group_name_H-M "F M M 2"
_symmetry_group_IT_number 42
_symmetry_cell_setting 'orthorhombic'
loop_
_space_group_symop_operation_xyz
x,y,z
-x,-y,z
-x,y,z
x,-y,z
x,1/2+y,1/2+z
-x,1/2-y,1/2+z
-x,1/2+y,1/2+z
x,1/2-y,1/2+z
1/2+x,y,1/2+z
1/2-x,-y,1/2+z
1/2-x,y,1/2+z
1/2+x,-y,1/2+z
1/2+x,1/2+y,z
1/2-x,1/2-y,z
1/2-x,1/2+y,z
1/2+x,1/2-y,z
loop_
_atom_site_type_symbol
_atom_site_label
_atom_site_fract_x
_atom_site_fract_y
_atom_site_fract_z
Si Si1 0.596732 0.329707 0.353850
Si Si2 0.311002 0.820374 0.174247
Si Si3 0.000000 0.828557 0.681964
Si Si4 0.500000 0.160014 0.773474
Si Si5 0.500000 0.318552 0.426966
Si Si6 0.811069 0.321128 0.288518
Si Si7 0.000000 0.320278 0.535783
Si Si8 0.408266 0.678804 0.117613
O O1 0.614535 0.500000 0.366429
O O2 0.553390 0.339415 0.308334
O O3 0.556763 0.269999 0.398320
O O4 0.648050 0.237937 0.331658
O O5 0.250000 0.750000 0.169941
O O6 0.330667 0.783034 0.231401
O O7 0.349833 0.753928 0.130781
O O8 0.309330 0.000000 0.170564
O O9 0.000000 0.806560 0.740527
O O10 0.947170 0.742100 0.661234
O O11 0.000000 0.000000 0.666133
O O12 0.500000 0.000000 0.744856
O O13 0.500000 0.500000 0.424062
O O14 0.500000 0.261343 0.483151
O O15 0.807166 0.500000 0.290993
O O16 0.750000 0.250000 0.294090
O O17 0.055297 0.282449 0.568322
O O18 0.000000 0.500000 0.529321
O O19 0.403383 0.500000 0.119348
#
# Coordination Sequence:
#
# PCOD9368781 Si02
#       8
#    16  16   8   8   8  16   8  16
#     4   9  18  32  49  71  98 128 163 200 242 295
#     4  10  20  33  50  75 105 138 174 206 241 288
#     4  11  20  28  42  68  99 128 162 202 243 292
#     4   9  17  29  45  65  95 132 160 190 239 293
#     4   9  19  35  55  77  99 126 160 202 255 307
#     4  10  20  32  48  72 102 137 172 204 239 283
#     4   9  20  36  54  76  99 126 162 206 257 306
#     4  10  20  34  50  70  98 131 166 204 249 298
#
# _framework density 16.660395999999999
#
# number of rings (size 3 to 8) (size 9 to 14) (size 15 to 20)
#    0.000    2.333    0.000    4.750    0.000    8.000 
#    0.000    1.667    0.000    1.000    0.000    7.000 
#    0.000    0.000    0.000    0.000    0.000    0.000 
#
# Total GULP energy -133659.583964 kJ/mol
# GULP energy per Si atom -5569.149332 kJ/mol
# Density = 1.662248 g / cm^3
# Si number density = 16.660396 Si / 1000 Ang^3
#
#
#
# Elastic Constant Matrix: (Units=GPa)
#
#
# Indices 1 2 3 4 5 6 
#
# 1 95.5031 40.3400 53.4398 0.0000 0.0001 0.0000
# 2 40.3400 60.1314 41.3093 0.0000 0.0002 0.0000
# 3 53.4398 41.3093 97.1158 0.0000 0.0000 0.0000
# 4 0.0000 0.0000 0.0000 27.2561 0.0000 0.0000
# 5 0.0001 0.0002 0.0000 0.0000 -103.0423 0.0000
# 6 0.0000 0.0000 0.0000 0.0000 0.0000 -75.3432
#
#
#
# Elastic Compliance Matrix: (Units=1/GPa)
#
#
# Indices 1 2 3 4 5 6 
#
# 1 0.017004 -0.007035 -0.006364 0.000000 0.000000 0.000000
# 2 -0.007035 0.026407 -0.007361 0.000000 0.000000 0.000000
# 3 -0.006364 -0.007361 0.016930 0.000000 0.000000 0.000000
# 4 0.000000 0.000000 0.000000 0.036689 0.000000 0.000000
# 5 0.000000 0.000000 0.000000 0.000000 -0.009705 0.000000
# 6 0.000000 0.000000 0.000000 0.000000 0.000000 -0.013273
#
#
# Mechanical properties :
#
#
# Convention : Reuss Voigt Hill
#
# Bulk Modulus (GPa) = 53.13574 58.10318 55.61946
# Shear Modulus (GPa) = 41.03532 -22.38181 9.32675
#
# Velocity S-wave (km/s) = 4.96829 -3.66924 2.36861
# Velocity P-wave (km/s) = 8.05448 4.12307 6.39821
#
# Compressibility (1/GPa) = 0.01881972
#
# Stress axis : x y z
#
# Youngs Moduli (GPa) = 58.81134 37.86895 59.06623
#
# Poissons Ratio (x) = 0.26641 0.37590
# Poissons Ratio (y) = 0.41374 0.43480
# Poissons Ratio (z) = 0.37428 0.27876
#
# Static dielectric constant tensor:
#      x y z
#    x 1.861290 0.000000 0.000000 
#    y 0.000000 1.575070 0.000000 
#    z 0.000000 0.000000 1.560130 
# 
# From -- ./inp_files/30486.got.cif
#   From: 2010.05.17/outbox.cif.g08.bks.cpg/sg42_16_cif.got.tgz:30486.got - 2010.06.03 19:03:34.
