data_PCOD9368750
_publ_section_title
;
Structure prediction by ZEFSAII (Michael W. Deem and Ramdas Pophale) SiO2 
 PCOD9368750
Probable space group: F M M 2
;
_chemical_formula_sum "Si O2"
_cell_formula_units_Z 116
_cell_length_a 22.120226
_cell_length_b 27.531694
_cell_length_c 9.506105
_cell_angle_alpha 90.000000
_cell_angle_beta 90.000000
_cell_angle_gamma 90.000000
_cell_volume 5789.287277
_symmetry_space_group_name_H-M "F M M 2"
_symmetry_group_IT_number 42
_symmetry_cell_setting 'orthorhombic'
loop_
_space_group_symop_operation_xyz
x,y,z
-x,-y,z
-x,y,z
x,-y,z
x,1/2+y,1/2+z
-x,1/2-y,1/2+z
-x,1/2+y,1/2+z
x,1/2-y,1/2+z
1/2+x,y,1/2+z
1/2-x,-y,1/2+z
1/2-x,y,1/2+z
1/2+x,-y,1/2+z
1/2+x,1/2+y,z
1/2-x,1/2-y,z
1/2-x,1/2+y,z
1/2+x,1/2-y,z
loop_
_atom_site_type_symbol
_atom_site_label
_atom_site_fract_x
_atom_site_fract_y
_atom_site_fract_z
Si Si1 0.890940 0.693455 0.673410
Si Si2 0.179269 0.556250 0.455777
Si Si3 0.064793 0.593674 0.595351
Si Si4 0.000000 0.500000 0.693170
Si Si5 0.739220 0.193504 0.793976
Si Si6 0.799554 0.555897 0.129306
Si Si7 0.929591 0.269755 0.964345
Si Si8 0.671583 0.843662 0.063956
O O1 0.919617 0.640266 0.688441
O O2 0.819181 0.690790 0.692213
O O3 0.909341 0.718412 0.528434
O O4 0.916519 0.726580 0.798815
O O5 0.160986 0.500000 0.470770
O O6 0.120729 0.587436 0.491179
O O7 0.202150 0.561469 0.297076
O O8 0.233517 0.565102 0.563993
O O9 0.000000 0.602583 0.521389
O O10 0.051866 0.543779 0.679330
O O11 0.750000 0.250000 0.828068
O O12 0.795531 0.172176 0.708410
O O13 0.718316 0.166791 0.935788
O O14 0.816679 0.500000 0.095905
O O15 0.841061 0.598915 0.070092
O O16 0.886246 0.310459 0.033372
O O17 0.000000 0.277748 0.992306
#
# Coordination Sequence:
#
# PCOD9368750 Si02
#       8
#    16  16  16   4  16  16  16  16
#     4  11  24  40  66  92 128 162 211 260 317 382
#     4  10  19  38  60  92 126 162 207 260 318 381
#     4  10  19  38  64  95 126 166 210 266 317 374
#     4   8  20  36  68  92 136 158 220 264 316 378
#     4  11  22  39  63  93 122 161 205 264 314 378
#     4  10  22  37  61  90 128 166 210 263 323 388
#     4  11  24  42  61  87 125 165 208 256 311 377
#     4  11  23  39  62  89 123 161 206 256 320 372
#
# _framework density 20.037009000000001
#
# number of rings (size 3 to 8) (size 9 to 14) (size 15 to 20)
#    0.414    1.103    2.069    3.310    1.931    2.207 
#    0.000    2.069    6.069    1.241    0.000    0.966 
#    0.000    7.724    0.000    0.000    0.000    0.000 
#
# Total GULP energy -161625.214705 kJ/mol
# GULP energy per Si atom -5573.283266 kJ/mol
# Density = 1.999140 g / cm^3
# Si number density = 20.037009 Si / 1000 Ang^3
#
#
#
# Elastic Constant Matrix: (Units=GPa)
#
#
# Indices 1 2 3 4 5 6 
#
# 1 22.9652 0.9458 -7.7838 0.0001 0.0000 0.0000
# 2 0.9458 95.5997 17.6095 0.0000 0.0001 0.0000
# 3 -7.7838 17.6095 42.1934 0.0001 0.0002 0.0000
# 4 0.0001 0.0000 0.0001 19.1592 -0.0001 0.0000
# 5 0.0000 0.0001 0.0002 -0.0001 10.8490 0.0000
# 6 0.0000 0.0000 0.0000 0.0000 0.0000 27.3432
#
#
#
# Elastic Compliance Matrix: (Units=1/GPa)
#
#
# Indices 1 2 3 4 5 6 
#
# 1 0.046883 -0.002228 0.009579 0.000000 0.000000 0.000000
# 2 -0.002228 0.011437 -0.005184 0.000000 0.000000 0.000000
# 3 0.009579 -0.005184 0.027631 0.000000 0.000000 0.000000
# 4 0.000000 0.000000 0.000000 0.052194 0.000000 0.000000
# 5 0.000000 0.000000 0.000000 0.000000 0.092174 0.000000
# 6 0.000000 0.000000 0.000000 0.000000 0.000000 0.036572
#
#
# Mechanical properties :
#
#
# Convention : Reuss Voigt Hill
#
# Bulk Modulus (GPa) = 11.07622 20.25568 15.66595
# Shear Modulus (GPa) = 17.08502 21.46940 19.27721
#
# Velocity S-wave (km/s) = 2.92322 3.27691 3.10511
# Velocity P-wave (km/s) = 4.11504 4.94455 4.54874
#
# Compressibility (1/GPa) = 0.09028354
#
# Stress axis : x y z
#
# Youngs Moduli (GPa) = 21.32984 87.43313 36.19090
#
# Poissons Ratio (x) = 0.19482 -0.34667
# Poissons Ratio (y) = 0.04753 0.18763
# Poissons Ratio (z) = -0.20432 0.45329
#
# Static dielectric constant tensor:
#      x y z
#    x 1.704280 0.000000 0.000000 
#    y 0.000000 1.744160 0.000000 
#    z 0.000000 0.000000 1.707910 
# 
# From -- ./inp_files/4887.got.cif
#   From: 2010.05.17/outbox.cif.g08.bks.cpg/sg42_3_cif.got.tgz:4887.got - 2010.06.03 19:03:34.
