data_PCOD9368542
_publ_section_title
;
Structure prediction by ZEFSAII (Michael W. Deem and Ramdas Pophale) SiO2 
 PCOD9368542
Probable space group: F M M 2
;
_chemical_formula_sum "Si O2"
_cell_formula_units_Z 96
_cell_length_a 8.554680
_cell_length_b 19.484880
_cell_length_c 31.244004
_cell_angle_alpha 90.000000
_cell_angle_beta 90.000000
_cell_angle_gamma 90.000000
_cell_volume 5207.966584
_symmetry_space_group_name_H-M "F M M 2"
_symmetry_group_IT_number 42
_symmetry_cell_setting 'orthorhombic'
loop_
_space_group_symop_operation_xyz
x,y,z
-x,-y,z
-x,y,z
x,-y,z
x,1/2+y,1/2+z
-x,1/2-y,1/2+z
-x,1/2+y,1/2+z
x,1/2-y,1/2+z
1/2+x,y,1/2+z
1/2-x,-y,1/2+z
1/2-x,y,1/2+z
1/2+x,-y,1/2+z
1/2+x,1/2+y,z
1/2-x,1/2-y,z
1/2-x,1/2+y,z
1/2+x,1/2-y,z
loop_
_atom_site_type_symbol
_atom_site_label
_atom_site_fract_x
_atom_site_fract_y
_atom_site_fract_z
Si Si1 0.812186 0.826259 0.050190
Si Si2 0.687981 0.325839 0.206943
Si Si3 0.187624 0.673818 0.956097
Si Si4 0.313768 0.674065 0.801545
Si Si5 0.310923 0.420624 0.376722
Si Si6 0.309323 0.078499 0.628650
O O1 0.750000 0.750000 0.060146
O O2 0.760818 0.879486 0.086560
O O3 0.000000 0.823968 0.049310
O O4 0.751344 0.844748 0.002995
O O5 0.500000 0.323689 0.208376
O O6 0.750000 0.250000 0.195804
O O7 0.750542 0.342746 0.254167
O O8 0.738185 0.380082 0.171051
O O9 0.250000 0.750000 0.945681
O O10 0.235525 0.620200 0.919639
O O11 0.000000 0.676574 0.957918
O O12 0.500000 0.676971 0.800472
O O13 0.250000 0.750000 0.812694
O O14 0.256343 0.619537 0.836154
O O15 0.500000 0.418613 0.374300
O O16 0.262137 0.500000 0.377779
O O17 0.500000 0.077666 0.628549
O O18 0.255370 0.000000 0.628504
#
# Coordination Sequence:
#
# PCOD9368542 Si02
#       6
#    16  16  16  16  16  16
#     4  10  19  33  55  79 105 137 175 220 264 310
#     4  10  19  34  57  80 105 139 178 221 266 314
#     4  10  20  35  56  80 106 138 178 221 264 314
#     4  11  22  37  58  83 110 140 180 226 270 319
#     4  10  22  39  57  79 110 146 180 218 269 325
#     4   9  19  34  52  77 107 140 177 215 260 315
#
# _framework density 18.433299000000002
#
# number of rings (size 3 to 8) (size 9 to 14) (size 15 to 20)
#    0.000    2.000    0.000    6.000    0.000    4.333 
#    0.000    4.167    0.000    7.000    0.000    0.000 
#    0.000    0.000    0.000    0.000    0.000    0.000 
#
# Total GULP energy -134060.802424 kJ/mol
# GULP energy per Si atom -5585.866768 kJ/mol
# Density = 1.839134 g / cm^3
# Si number density = 18.433299 Si / 1000 Ang^3
#
#
#
# Elastic Constant Matrix: (Units=GPa)
#
#
# Indices 1 2 3 4 5 6 
#
# 1 54.6269 46.1744 44.2002 0.0000 0.0000 0.0000
# 2 46.1744 177.3098 153.0004 0.0000 0.0000 0.0000
# 3 44.2002 153.0004 162.3440 0.0000 0.0000 0.0000
# 4 0.0000 0.0000 0.0000 105.7594 0.0000 0.0000
# 5 0.0000 0.0000 0.0000 0.0000 23.7241 0.0000
# 6 0.0000 0.0000 0.0000 0.0000 0.0000 20.0738
#
#
#
# Elastic Compliance Matrix: (Units=1/GPa)
#
#
# Indices 1 2 3 4 5 6 
#
# 1 0.023823 -0.003250 -0.003423 0.000000 0.000000 0.000000
# 2 -0.003250 0.030641 -0.027993 0.000000 0.000000 0.000000
# 3 -0.003423 -0.027993 0.033473 0.000000 0.000000 0.000000
# 4 0.000000 0.000000 0.000000 0.009455 0.000000 0.000000
# 5 0.000000 0.000000 0.000000 0.000000 0.042151 0.000000
# 6 0.000000 0.000000 0.000000 0.000000 0.000000 0.049816
#
#
# Mechanical properties :
#
#
# Convention : Reuss Voigt Hill
#
# Bulk Modulus (GPa) = 53.74717 97.89228 75.81972
# Shear Modulus (GPa) = 18.87551 39.97184 29.42368
#
# Velocity S-wave (km/s) = 3.20346 4.66172 3.99961
# Velocity P-wave (km/s) = 6.55010 9.06626 7.90888
#
# Compressibility (1/GPa) = 0.01860563
#
# Stress axis : x y z
#
# Youngs Moduli (GPa) = 41.97645 32.63591 29.87463
#
# Poissons Ratio (x) = 0.10608 0.10226
# Poissons Ratio (y) = 0.13644 0.83627
# Poissons Ratio (z) = 0.14368 0.91357
#
# Static dielectric constant tensor:
#      x y z
#    x 1.631740 0.000000 0.000000 
#    y 0.000000 1.608290 0.000000 
#    z 0.000000 0.000000 1.619250 
# 
# From -- ./inp_files/31460.got.cif
#   From: 2010.05.17/outbox.cif.g08.bks.cpg/sg42_16_cif.got.tgz:31460.got - 2010.06.03 19:03:34.
