data_PCOD9368416
_publ_section_title
;
Structure prediction by ZEFSAII (Michael W. Deem and Ramdas Pophale) SiO2 
 PCOD9368416
Probable space group: F M M 2
;
_chemical_formula_sum "Si O2"
_cell_formula_units_Z 112
_cell_length_a 7.468074
_cell_length_b 18.381614
_cell_length_c 38.694442
_cell_angle_alpha 90.000000
_cell_angle_beta 90.000000
_cell_angle_gamma 90.000000
_cell_volume 5311.789338
_symmetry_space_group_name_H-M "F M M 2"
_symmetry_group_IT_number 42
_symmetry_cell_setting 'orthorhombic'
loop_
_space_group_symop_operation_xyz
x,y,z
-x,-y,z
-x,y,z
x,-y,z
x,1/2+y,1/2+z
-x,1/2-y,1/2+z
-x,1/2+y,1/2+z
x,1/2-y,1/2+z
1/2+x,y,1/2+z
1/2-x,-y,1/2+z
1/2-x,y,1/2+z
1/2+x,-y,1/2+z
1/2+x,1/2+y,z
1/2-x,1/2-y,z
1/2-x,1/2+y,z
1/2+x,1/2-y,z
loop_
_atom_site_type_symbol
_atom_site_label
_atom_site_fract_x
_atom_site_fract_y
_atom_site_fract_z
Si Si1 0.785723 0.664679 0.218740
Si Si2 0.286200 0.083601 0.500632
Si Si3 0.214277 0.664679 0.356944
Si Si4 0.281858 0.914599 0.425578
Si Si5 0.280855 0.915900 0.287842
Si Si6 0.713800 0.416399 0.575051
Si Si7 0.718142 0.085401 0.150106
O O1 0.750000 0.750000 0.220373
O O2 0.719240 0.624460 0.253144
O O3 0.716496 0.629840 0.183109
O O4 0.000000 0.654353 0.218482
O O5 0.500000 0.079642 0.498266
O O6 0.223136 0.113314 0.463567
O O7 0.250000 0.119110 0.537842
O O8 0.216982 0.000000 0.502335
O O9 0.250000 0.750000 0.355311
O O10 0.283504 0.629839 0.392575
O O11 0.280760 0.624460 0.322540
O O12 0.000000 0.654353 0.357202
O O13 0.500000 0.911886 0.425075
O O14 0.234043 0.000000 0.422678
O O15 0.500000 0.914089 0.287842
O O16 0.227894 0.000000 0.287842
O O17 0.500000 0.420358 0.577418
O O18 0.783019 0.500000 0.573349
O O19 0.776864 0.386686 0.612116
O O20 0.500000 0.088114 0.150609
O O21 0.765958 0.000000 0.153006
#
# Coordination Sequence:
#
# PCOD9368416 Si02
#       7
#    16  16  16  16  16  16  16
#     4  10  19  31  48  69  94 121 149 183 222 265
#     4   8  13  22  38  61  86 110 140 181 226 265
#     4  10  19  31  48  69  94 121 149 183 222 265
#     4   8  14  26  45  66  87 116 154 189 219 258
#     4   9  17  30  51  75  92 113 152 192 218 251
#     4   8  13  22  38  61  86 110 140 181 226 265
#     4   8  14  26  45  66  87 116 154 189 219 258
#
# _framework density 21.085175
#
# number of rings (size 3 to 8) (size 9 to 14) (size 15 to 20)
#    0.000    3.286    0.000    3.000    0.000    3.429 
#    0.000    1.429    0.000    6.857    0.000    6.000 
#    0.000    0.000    0.000    0.000    0.000    0.000 
#
# Total GULP energy -156051.298550 kJ/mol
# GULP energy per Si atom -5573.260663 kJ/mol
# Density = 2.103718 g / cm^3
# Si number density = 21.085175 Si / 1000 Ang^3
#
#
#
# Elastic Constant Matrix: (Units=GPa)
#
#
# Indices 1 2 3 4 5 6 
#
# 1 59.7088 -3.9041 11.9504 0.0000 0.0000 0.0000
# 2 -3.9041 98.6653 111.0926 0.0000 0.0000 0.0000
# 3 11.9504 111.0926 300.0999 0.0000 0.0000 0.0000
# 4 0.0000 0.0000 0.0000 -6.9584 0.0000 0.0000
# 5 0.0000 0.0000 0.0000 0.0000 7.1835 0.0000
# 6 0.0000 0.0000 0.0000 0.0000 0.0000 14.0406
#
#
#
# Elastic Compliance Matrix: (Units=1/GPa)
#
#
# Indices 1 2 3 4 5 6 
#
# 1 0.017233 0.002494 -0.001610 0.000000 0.000000 0.000000
# 2 0.002494 0.017740 -0.006666 0.000000 0.000000 0.000000
# 3 -0.001610 -0.006666 0.005864 0.000000 0.000000 0.000000
# 4 0.000000 0.000000 0.000000 -0.143711 0.000000 0.000000
# 5 0.000000 0.000000 0.000000 0.000000 0.139207 0.000000
# 6 0.000000 0.000000 0.000000 0.000000 0.000000 0.071222
#
#
# Mechanical properties :
#
#
# Convention : Reuss Voigt Hill
#
# Bulk Modulus (GPa) = 34.16022 77.41686 55.78854
# Shear Modulus (GPa) = 38.79657 25.47548 32.13602
#
# Velocity S-wave (km/s) = 4.29417 3.47971 3.90821
# Velocity P-wave (km/s) = 6.38927 7.27602 6.84702
#
# Compressibility (1/GPa) = 0.02927381
#
# Stress axis : x y z
#
# Youngs Moduli (GPa) = 58.02755 56.36952 170.52799
#
# Poissons Ratio (x) = -0.14060 0.27448
# Poissons Ratio (y) = -0.14473 1.13682
# Poissons Ratio (z) = 0.09340 0.37578
#
# Static dielectric constant tensor:
#      x y z
#    x 1.878100 0.000000 0.000000 
#    y 0.000000 1.686200 0.000000 
#    z 0.000000 0.000000 1.814390 
# 
# From -- ./inp_files/34168.got.cif
#   From: 2010.05.17/outbox.cif.g08.bks.cpg/sg42_18_cif.got.tgz:34168.got - 2010.06.03 19:03:34.
