data_PCOD9368698
_publ_section_title
;
Structure prediction by ZEFSAII (Michael W. Deem and Ramdas Pophale) SiO2 
 PCOD9368698
Probable space group: F M M 2
;
_chemical_formula_sum "Si O2"
_cell_formula_units_Z 116
_cell_length_a 7.717349
_cell_length_b 30.294943
_cell_length_c 26.017513
_cell_angle_alpha 90.000000
_cell_angle_beta 90.000000
_cell_angle_gamma 90.000000
_cell_volume 6082.807330
_symmetry_space_group_name_H-M "F M M 2"
_symmetry_group_IT_number 42
_symmetry_cell_setting 'orthorhombic'
loop_
_space_group_symop_operation_xyz
x,y,z
-x,-y,z
-x,y,z
x,-y,z
x,1/2+y,1/2+z
-x,1/2-y,1/2+z
-x,1/2+y,1/2+z
x,1/2-y,1/2+z
1/2+x,y,1/2+z
1/2-x,-y,1/2+z
1/2-x,y,1/2+z
1/2+x,-y,1/2+z
1/2+x,1/2+y,z
1/2-x,1/2-y,z
1/2-x,1/2+y,z
1/2+x,1/2-y,z
loop_
_atom_site_type_symbol
_atom_site_label
_atom_site_fract_x
_atom_site_fract_y
_atom_site_fract_z
Si Si1 0.790479 0.103523 0.888360
Si Si2 0.000000 0.000000 0.151086
Si Si3 0.209163 0.050521 0.789606
Si Si4 0.198108 0.568995 0.175884
Si Si5 0.796257 0.117671 0.082918
Si Si6 0.208214 0.201775 0.905864
Si Si7 0.707815 0.297513 0.023170
Si Si8 0.793413 0.449035 0.993280
O O1 0.724991 0.074804 0.840315
O O2 0.730594 0.154486 0.884407
O O3 0.747239 0.079417 0.942139
O O4 0.000000 0.104304 0.886123
O O5 0.846262 0.037482 0.153944
O O6 0.243448 0.075031 0.735920
O O7 0.000000 0.048245 0.794582
O O8 0.273414 0.000000 0.784959
O O9 0.205265 0.609551 0.137004
O O10 0.000000 0.551363 0.174829
O O11 0.725738 0.160717 0.054041
O O12 0.000000 0.123993 0.092065
O O13 0.775427 0.076804 0.043160
O O14 0.250000 0.250000 0.882668
O O15 0.000000 0.199564 0.906709
O O16 0.275258 0.202254 0.964698
O O17 0.500000 0.301903 0.019735
O O18 0.750000 0.250000 0.046335
O O19 0.728969 0.500000 0.989644
O O20 0.000000 0.450933 0.998365
#
# Coordination Sequence:
#
# PCOD9368698 Si02
#       8
#    16   4  16  16  16  16  16  16
#     4  10  19  36  57  79 106 146 188 228 279 339
#     4  12  22  40  60  86 112 156 194 248 292 324
#     4   9  18  34  57  80 107 142 188 235 277 332
#     4  11  23  39  59  86 115 151 199 243 288 340
#     4  11  22  38  57  82 113 148 191 236 288 346
#     4   9  17  31  52  78 107 139 180 228 277 336
#     4   9  18  33  54  80 109 141 184 232 282 344
#     4  11  24  36  47  75 114 151 183 225 280 341
#
# _framework density 19.070143000000002
#
# number of rings (size 3 to 8) (size 9 to 14) (size 15 to 20)
#    0.000    1.931    2.759    1.448    0.966    3.310 
#    1.241    0.000    0.000    0.828    0.000    3.862 
#    0.000    0.000    0.000    0.000    0.000    0.000 
#
# Total GULP energy -161452.018813 kJ/mol
# GULP energy per Si atom -5567.310994 kJ/mol
# Density = 1.902674 g / cm^3
# Si number density = 19.070143 Si / 1000 Ang^3
#
#
#
# Elastic Constant Matrix: (Units=GPa)
#
#
# Indices 1 2 3 4 5 6 
#
# 1 61.7377 1.8835 1.8994 0.0000 0.0000 0.0000
# 2 1.8835 110.0189 49.0820 0.0000 0.0000 0.0000
# 3 1.8994 49.0820 112.8574 0.0000 0.0000 0.0000
# 4 0.0000 0.0000 0.0000 36.4296 0.0000 0.0000
# 5 0.0000 0.0000 0.0000 0.0000 6.7618 0.0000
# 6 0.0000 0.0000 0.0000 0.0000 0.0000 27.8136
#
#
#
# Elastic Compliance Matrix: (Units=1/GPa)
#
#
# Indices 1 2 3 4 5 6 
#
# 1 0.016209 -0.000193 -0.000189 0.000000 0.000000 0.000000
# 2 -0.000193 0.011280 -0.004902 0.000000 0.000000 0.000000
# 3 -0.000189 -0.004902 0.010996 0.000000 0.000000 0.000000
# 4 0.000000 0.000000 0.000000 0.027450 0.000000 0.000000
# 5 0.000000 0.000000 0.000000 0.000000 0.147890 0.000000
# 6 0.000000 0.000000 0.000000 0.000000 0.000000 0.035954
#
#
# Mechanical properties :
#
#
# Convention : Reuss Voigt Hill
#
# Bulk Modulus (GPa) = 35.82151 43.37155 39.59653
# Shear Modulus (GPa) = 18.54234 29.65093 24.09664
#
# Velocity S-wave (km/s) = 3.12159 3.94742 3.55854
# Velocity P-wave (km/s) = 5.64068 6.60066 6.13946
#
# Compressibility (1/GPa) = 0.02791619
#
# Stress axis : x y z
#
# Youngs Moduli (GPa) = 61.69313 88.65479 90.94254
#
# Poissons Ratio (x) = 0.01714 0.01716
# Poissons Ratio (y) = 0.01193 0.44583
# Poissons Ratio (z) = 0.01164 0.43461
#
# Static dielectric constant tensor:
#      x y z
#    x 1.695710 0.000000 0.000000 
#    y 0.000000 1.685470 0.000000 
#    z 0.000000 0.000000 1.662030 
# 
# From -- ./inp_files/31996.got.cif
#   From: 2010.05.17/outbox.cif.g08.bks.cpg/sg42_16_cif.got.tgz:31996.got - 2010.06.03 19:03:34.
