data_PCOD9368052
_publ_section_title
;
Structure prediction by ZEFSAII (Michael W. Deem and Ramdas Pophale) SiO2 
 PCOD9368052
Probable space group: A B A 2
;
_chemical_formula_sum "Si O2"
_cell_formula_units_Z 24
_cell_length_a 15.000000
_cell_length_b 18.000000
_cell_length_c 9.000000
_cell_angle_alpha 90.000000
_cell_angle_beta 90.000000
_cell_angle_gamma 90.000000
_cell_volume 2430.000000
_symmetry_space_group_name_H-M "A B A 2"
_symmetry_group_IT_number 41
_symmetry_cell_setting 'orthorhombic'
loop_
_space_group_symop_operation_xyz
x,y,z
-x,-y,z
1/2-x,y,1/2+z
1/2+x,-y,1/2+z
x,1/2+y,1/2+z
-x,1/2-y,1/2+z
1/2-x,1/2+y,z
1/2+x,1/2-y,z
loop_
_atom_site_type_symbol
_atom_site_label
_atom_site_fract_x
_atom_site_fract_y
_atom_site_fract_z
Si Si1 0.686814 0.944082 0.439890
Si Si2 0.942128 0.835518 0.762547
Si Si3 0.664388 0.517056 0.254662
Si Si4 0.124529 0.617563 0.946784
Si Si5 0.827291 0.188619 0.201675
Si Si6 0.137570 0.782245 0.852272
O O1 0.609442 0.893571 0.369852
O O2 0.658362 0.989815 0.584634
O O3 0.735488 0.998071 0.318718
O O4 0.770188 0.891465 0.488733
O O5 0.888575 0.756323 0.764317
O O6 0.068972 0.631278 0.096032
O O7 0.045392 0.821795 0.803495
O O8 0.607166 0.458713 0.355387
O O9 0.646868 0.605372 0.258132
O O10 0.119038 0.693142 0.851811
O O11 0.724442 0.201355 0.251560
O O12 0.838656 0.194665 0.022607
#
# Coordination Sequence:
#
# PCOD9368052 Si02
#       6
#     8   8   8   8   8   8
#     4  10  18  39  68  92 130 177 218 255 338 395
#     4  11  23  43  69  96 131 176 232 269 321 404
#     4  10  20  37  72  93 132 183 208 270 347 385
#     4   9  20  41  66  94 124 181 214 261 341 381
#     4  11  24  45  66 101 133 168 222 284 328 393
#     4  11  25  41  71  98 130 177 224 275 327 392
#
# _framework density 9.8765429999999999
#
# number of rings (size 3 to 8) (size 9 to 14) (size 15 to 20)
#    1.000    0.667    3.333    1.000    2.333    5.333 
#    0.000    5.833    3.667    0.000    0.000    0.000 
#    0.000    0.000    0.000    0.000    0.000    0.000 
#
# Total GULP energy -133967.571635 kJ/mol
# GULP energy per Si atom -5581.982151 kJ/mol
# Density = 0.985406 g / cm^3
# Si number density = 9.876543 Si / 1000 Ang^3
#
#
#
# Elastic Constant Matrix: (Units=GPa)
#
#
# Indices 1 2 3 4 5 6 
#
# 1 93.2843 16.6301 46.2412 0.0000 0.0000 0.0000
# 2 16.6301 138.8121 55.7534 0.0000 0.0000 0.0000
# 3 46.2412 55.7534 111.2571 0.0000 0.0000 0.0000
# 4 0.0000 0.0000 0.0000 33.4483 0.0000 0.0000
# 5 0.0000 0.0000 0.0000 0.0000 26.8560 0.0000
# 6 0.0000 0.0000 0.0000 0.0000 0.0000 13.8606
#
#
#
# Elastic Compliance Matrix: (Units=1/GPa)
#
#
# Indices 1 2 3 4 5 6 
#
# 1 0.013572 0.000801 -0.006042 0.000000 0.000000 0.000000
# 2 0.000801 0.009067 -0.004876 0.000000 0.000000 0.000000
# 3 -0.006042 -0.004876 0.013943 0.000000 0.000000 0.000000
# 4 0.000000 0.000000 0.000000 0.029897 0.000000 0.000000
# 5 0.000000 0.000000 0.000000 0.000000 0.037236 0.000000
# 6 0.000000 0.000000 0.000000 0.000000 0.000000 0.072147
#
#
# Mechanical properties :
#
#
# Convention : Reuss Voigt Hill
#
# Bulk Modulus (GPa) = 61.17510 64.51143 62.84327
# Shear Modulus (GPa) = 24.80826 29.81492 27.31159
#
# Velocity S-wave (km/s) = 3.54774 3.88929 3.72243
# Velocity P-wave (km/s) = 6.91513 7.27314 7.09639
#
# Compressibility (1/GPa) = 0.01634652
#
# Stress axis : x y z
#
# Youngs Moduli (GPa) = 73.67926 110.29497 71.71969
#
# Poissons Ratio (x) = -0.08833 0.43335
# Poissons Ratio (y) = -0.05901 0.34973
# Poissons Ratio (z) = 0.44520 0.53784
#
# Static dielectric constant tensor:
#      x y z
#    x 1.682820 0.000000 0.000000 
#    y 0.000000 1.702130 0.000000 
#    z 0.000000 0.000000 1.697810 
# 
# From -- ./inp_files/2545.got.cif
#   From: 2010.05.17/outbox.ucp.g08.bks.cvg/sg41_2_cif.got.tgz:2545.got - 2010.06.11 16:28:22.
