data_PCOD9368704
_publ_section_title
;
Structure prediction by ZEFSAII (Michael W. Deem and Ramdas Pophale) SiO2 
 PCOD9368704
Probable space group: F M M 2
;
_chemical_formula_sum "Si O2"
_cell_formula_units_Z 96
_cell_length_a 26.175760
_cell_length_b 8.514586
_cell_length_c 24.221527
_cell_angle_alpha 90.000000
_cell_angle_beta 90.000000
_cell_angle_gamma 90.000000
_cell_volume 5398.391230
_symmetry_space_group_name_H-M "F M M 2"
_symmetry_group_IT_number 42
_symmetry_cell_setting 'orthorhombic'
loop_
_space_group_symop_operation_xyz
x,y,z
-x,-y,z
-x,y,z
x,-y,z
x,1/2+y,1/2+z
-x,1/2-y,1/2+z
-x,1/2+y,1/2+z
x,1/2-y,1/2+z
1/2+x,y,1/2+z
1/2-x,-y,1/2+z
1/2-x,y,1/2+z
1/2+x,-y,1/2+z
1/2+x,1/2+y,z
1/2-x,1/2-y,z
1/2-x,1/2+y,z
1/2+x,1/2-y,z
loop_
_atom_site_type_symbol
_atom_site_label
_atom_site_fract_x
_atom_site_fract_y
_atom_site_fract_z
Si Si1 0.403310 0.811303 0.262980
Si Si2 0.096562 0.190450 0.524233
Si Si3 0.059402 0.308690 0.143389
Si Si4 0.000000 0.187431 0.331416
Si Si5 0.306489 0.688422 0.327930
Si Si6 0.806115 0.689306 0.955246
Si Si7 0.500000 0.187254 0.455821
O O1 0.413372 0.759251 0.199891
O O2 0.449944 0.747539 0.299612
O O3 0.350235 0.753203 0.288301
O O4 0.404663 0.000000 0.264380
O O5 0.087173 0.242009 0.587249
O O6 0.149453 0.242973 0.496404
O O7 0.049651 0.249674 0.487568
O O8 0.095793 0.000000 0.523484
O O9 0.058863 0.500000 0.143223
O O10 0.000000 0.258131 0.143083
O O11 0.000000 0.251245 0.393464
O O12 0.000000 0.000000 0.332521
O O13 0.306688 0.500000 0.326083
O O14 0.250000 0.750000 0.313808
O O15 0.317078 0.737739 0.391719
O O16 0.805183 0.500000 0.955932
O O17 0.750000 0.750000 0.970044
O O18 0.500000 0.000000 0.456049
#
# Coordination Sequence:
#
# PCOD9368704 Si02
#       7
#    16  16  16   8  16  16   8
#     4  11  21  36  57  83 113 146 188 236 284 335
#     4  10  19  36  59  81 109 149 189 222 267 335
#     4   9  17  33  57  81 109 151 191 222 268 334
#     4  12  24  37  54  79 111 148 186 230 283 344
#     4  10  20  36  56  82 112 147 189 233 287 343
#     4   9  19  34  56  81 107 140 180 224 272 328
#     4  12  24  35  52  83 115 142 176 230 289 334
#
# _framework density 17.783076000000001
#
# number of rings (size 3 to 8) (size 9 to 14) (size 15 to 20)
#    0.000    1.833    1.667    3.500    0.000    2.667 
#    0.000    3.333    0.000    2.000    0.000    0.000 
#    0.000    0.000    0.000    0.000    0.000    0.000 
#
# Total GULP energy -134034.779006 kJ/mol
# GULP energy per Si atom -5584.782459 kJ/mol
# Density = 1.774260 g / cm^3
# Si number density = 17.783076 Si / 1000 Ang^3
#
#
#
# Elastic Constant Matrix: (Units=GPa)
#
#
# Indices 1 2 3 4 5 6 
#
# 1 156.2056 7.6951 112.3174 0.0000 0.0000 0.0000
# 2 7.6951 8.7212 19.4941 0.0000 0.0000 0.0000
# 3 112.3174 19.4941 180.2793 0.0000 0.0000 0.0000
# 4 0.0000 0.0000 0.0000 15.7400 0.0000 0.0000
# 5 0.0000 0.0000 0.0000 0.0000 39.8112 0.0000
# 6 0.0000 0.0000 0.0000 0.0000 0.0000 32.5458
#
#
#
# Elastic Compliance Matrix: (Units=1/GPa)
#
#
# Indices 1 2 3 4 5 6 
#
# 1 0.012014 0.008084 -0.008359 0.000000 0.000000 0.000000
# 2 0.008084 0.156651 -0.021976 0.000000 0.000000 0.000000
# 3 -0.008359 -0.021976 0.013131 0.000000 0.000000 0.000000
# 4 0.000000 0.000000 0.000000 0.063533 0.000000 0.000000
# 5 0.000000 0.000000 0.000000 0.000000 0.025119 0.000000
# 6 0.000000 0.000000 0.000000 0.000000 0.000000 0.030726
#
#
# Mechanical properties :
#
#
# Convention : Reuss Voigt Hill
#
# Bulk Modulus (GPa) = 7.28360 69.35769 38.32064
# Shear Modulus (GPa) = 12.77338 31.33270 22.05304
#
# Velocity S-wave (km/s) = 2.68300 4.20210 3.52535
# Velocity P-wave (km/s) = 3.70171 7.91393 6.17790
#
# Compressibility (1/GPa) = 0.13729482
#
# Stress axis : x y z
#
# Youngs Moduli (GPa) = 83.23519 6.38363 76.15447
#
# Poissons Ratio (x) = -0.05161 0.63659
# Poissons Ratio (y) = -0.67291 1.67355
# Poissons Ratio (z) = 0.69578 0.14029
#
# Static dielectric constant tensor:
#      x y z
#    x 1.572320 0.000000 0.000000 
#    y 0.000000 1.604350 0.000000 
#    z 0.000000 0.000000 1.601960 
# 
# From -- ./inp_files/28087.got.cif
#   From: 2010.05.17/outbox.cif.g08.bks.cpg/sg42_15_cif.got.tgz:28087.got - 2010.06.03 19:03:34.
