data_PCOD9368613
_publ_section_title
;
Structure prediction by ZEFSAII (Michael W. Deem and Ramdas Pophale) SiO2 
 PCOD9368613
Probable space group: F M M 2
;
_chemical_formula_sum "Si O2"
_cell_formula_units_Z 112
_cell_length_a 14.844475
_cell_length_b 19.509039
_cell_length_c 16.978629
_cell_angle_alpha 90.000000
_cell_angle_beta 90.000000
_cell_angle_gamma 90.000000
_cell_volume 4917.035437
_symmetry_space_group_name_H-M "F M M 2"
_symmetry_group_IT_number 42
_symmetry_cell_setting 'orthorhombic'
loop_
_space_group_symop_operation_xyz
x,y,z
-x,-y,z
-x,y,z
x,-y,z
x,1/2+y,1/2+z
-x,1/2-y,1/2+z
-x,1/2+y,1/2+z
x,1/2-y,1/2+z
1/2+x,y,1/2+z
1/2-x,-y,1/2+z
1/2-x,y,1/2+z
1/2+x,-y,1/2+z
1/2+x,1/2+y,z
1/2-x,1/2-y,z
1/2-x,1/2+y,z
1/2+x,1/2-y,z
loop_
_atom_site_type_symbol
_atom_site_label
_atom_site_fract_x
_atom_site_fract_y
_atom_site_fract_z
Si Si1 0.398142 0.323746 0.566420
Si Si2 0.607884 0.369880 0.725543
Si Si3 0.160813 0.423969 0.389581
Si Si4 0.870241 0.073688 0.429383
Si Si5 0.891166 0.216788 0.282852
Si Si6 0.392471 0.724496 0.946834
Si Si7 0.101959 0.575264 0.744944
O O1 0.500000 0.307235 0.594502
O O2 0.360134 0.372242 0.635300
O O3 0.402071 0.369380 0.488444
O O4 0.357498 0.253730 0.530216
O O5 0.500000 0.385120 0.733313
O O6 0.654593 0.412017 0.795185
O O7 0.623722 0.289331 0.742342
O O8 0.122555 0.500000 0.407242
O O9 0.263212 0.423601 0.418072
O O10 0.119907 0.355726 0.428610
O O11 0.905070 0.076824 0.340256
O O12 0.895493 0.000000 0.462724
O O13 0.856518 0.231262 0.371854
O O14 0.854723 0.150788 0.235248
O O15 0.000000 0.208037 0.286843
O O16 0.500000 0.735044 0.947714
O O17 0.142073 0.500000 0.724583
O O18 0.000000 0.575905 0.711687
#
# Coordination Sequence:
#
# PCOD9368613 Si02
#       7
#    16  16  16  16  16  16  16
#     4  10  19  34  57  86 114 140 175 227 289 337
#     4   9  19  34  56  84 111 138 176 232 290 331
#     4  10  21  36  54  77 110 150 190 228 268 323
#     4  10  20  32  50  77 112 148 179 219 267 325
#     4   8  13  26  46  72 102 131 170 217 264 317
#     4   9  17  31  54  77 102 141 182 225 268 316
#     4   9  15  25  46  73 100 134 178 223 263 309
#
# _framework density 22.777951999999999
#
# number of rings (size 3 to 8) (size 9 to 14) (size 15 to 20)
#    0.000    2.714    1.429    1.714    0.000    3.143 
#    0.000    1.429    6.286    0.857    0.000    4.000 
#    0.000    0.000    0.000    0.286    0.000    0.000 
#
# Total GULP energy -155912.290093 kJ/mol
# GULP energy per Si atom -5568.296075 kJ/mol
# Density = 2.272611 g / cm^3
# Si number density = 22.777952 Si / 1000 Ang^3
#
#
#
# Elastic Constant Matrix: (Units=GPa)
#
#
# Indices 1 2 3 4 5 6 
#
# 1 49.7989 11.6004 9.9537 0.0000 0.0000 0.0000
# 2 11.6004 130.4179 -0.3905 0.0000 0.0000 0.0000
# 3 9.9537 -0.3905 48.7414 0.0000 0.0000 0.0000
# 4 0.0000 0.0000 0.0000 14.8397 0.0000 0.0000
# 5 0.0000 0.0000 0.0000 0.0000 -24.8530 0.0000
# 6 0.0000 0.0000 0.0000 0.0000 0.0000 21.1874
#
#
#
# Elastic Compliance Matrix: (Units=1/GPa)
#
#
# Indices 1 2 3 4 5 6 
#
# 1 0.021404 -0.001917 -0.004386 0.000000 0.000000 0.000000
# 2 -0.001917 0.007840 0.000454 0.000000 0.000000 0.000000
# 3 -0.004386 0.000454 0.021416 0.000000 0.000000 0.000000
# 4 0.000000 0.000000 0.000000 0.067387 0.000000 0.000000
# 5 0.000000 0.000000 0.000000 0.000000 -0.040237 0.000000
# 6 0.000000 0.000000 0.000000 0.000000 0.000000 0.047198
#
#
# Mechanical properties :
#
#
# Convention : Reuss Voigt Hill
#
# Bulk Modulus (GPa) = 25.66650 30.14282 27.90466
# Shear Modulus (GPa) = 33.40172 16.08779 24.74475
#
# Velocity S-wave (km/s) = 3.83352 2.66049 3.29955
# Velocity P-wave (km/s) = 5.55762 4.76442 5.17623
#
# Compressibility (1/GPa) = 0.03896130
#
# Stress axis : x y z
#
# Youngs Moduli (GPa) = 46.72015 127.55871 46.69437
#
# Poissons Ratio (x) = 0.24453 0.20482
# Poissons Ratio (y) = 0.08956 -0.02121
# Poissons Ratio (z) = 0.20493 -0.05795
#
# Static dielectric constant tensor:
#      x y z
#    x 1.883250 0.000000 0.000000 
#    y 0.000000 1.963460 0.000000 
#    z 0.000000 0.000000 1.892710 
# 
# From -- ./inp_files/21086.got.cif
#   From: 2010.05.17/outbox.cif.g08.bks.cpg/sg42_11_cif.got.tgz:21086.got - 2010.06.03 19:03:34.
