data_PCOD9368919
_publ_section_title
;
Structure prediction by ZEFSAII (Michael W. Deem and Ramdas Pophale) SiO2 
 PCOD9368919
Probable space group: F M M 2
;
_chemical_formula_sum "Si O2"
_cell_formula_units_Z 72
_cell_length_a 14.830300
_cell_length_b 10.994136
_cell_length_c 22.914863
_cell_angle_alpha 90.000000
_cell_angle_beta 90.000000
_cell_angle_gamma 90.000000
_cell_volume 3736.184432
_symmetry_space_group_name_H-M "F M M 2"
_symmetry_group_IT_number 42
_symmetry_cell_setting 'orthorhombic'
loop_
_space_group_symop_operation_xyz
x,y,z
-x,-y,z
-x,y,z
x,-y,z
x,1/2+y,1/2+z
-x,1/2-y,1/2+z
-x,1/2+y,1/2+z
x,1/2-y,1/2+z
1/2+x,y,1/2+z
1/2-x,-y,1/2+z
1/2-x,y,1/2+z
1/2+x,-y,1/2+z
1/2+x,1/2+y,z
1/2-x,1/2-y,z
1/2-x,1/2+y,z
1/2+x,1/2-y,z
loop_
_atom_site_type_symbol
_atom_site_label
_atom_site_fract_x
_atom_site_fract_y
_atom_site_fract_z
Si Si1 0.650490 0.299226 0.784460
Si Si2 0.674579 0.141085 0.412752
Si Si3 0.314241 0.869122 0.156194
Si Si4 0.500000 0.856492 0.492093
Si Si5 0.000000 0.141302 0.234190
Si Si6 0.000000 0.214157 0.612509
O O1 0.750000 0.250000 0.790148
O O2 0.633637 0.358861 0.846775
O O3 0.652287 0.371432 0.723652
O O4 0.584490 0.188993 0.770608
O O5 0.750000 0.250000 0.417815
O O6 0.591151 0.168674 0.455574
O O7 0.707110 0.000000 0.423328
O O8 0.250000 0.750000 0.149056
O O9 0.405397 0.856496 0.118783
O O10 0.268760 0.000000 0.143967
O O11 0.500000 0.784968 0.552294
O O12 0.500000 0.000000 0.504373
O O13 0.000000 0.199677 0.169918
O O14 0.000000 0.000000 0.228057
#
# Coordination Sequence:
#
# PCOD9368919 Si02
#       6
#    16  16  16   8   8   8
#     4   9  19  33  55  86 118 147 179 227 285 341
#     4  10  21  39  61  86 115 150 190 234 284 339
#     4  10  21  37  59  88 118 150 186 230 285 344
#     4  10  22  40  60  82 113 153 196 238 283 332
#     4  10  20  34  56  86 117 151 192 234 281 338
#     4  10  22  38  56  80 115 154 193 236 283 334
#
# _framework density 19.270997000000001
#
# number of rings (size 3 to 8) (size 9 to 14) (size 15 to 20)
#    0.000    2.222    0.000    2.000    0.000   13.333 
#    0.000    8.333    0.000    0.000    0.000    0.000 
#    0.000    0.000    0.000    0.000    0.000    0.000 
#
# Total GULP energy -100232.951746 kJ/mol
# GULP energy per Si atom -5568.497319 kJ/mol
# Density = 1.922714 g / cm^3
# Si number density = 19.270997 Si / 1000 Ang^3
#
#
#
# Elastic Constant Matrix: (Units=GPa)
#
#
# Indices 1 2 3 4 5 6 
#
# 1 80.9466 59.3197 48.0146 0.0000 0.0000 0.0000
# 2 59.3197 157.0180 33.3874 0.0000 0.0000 0.0000
# 3 48.0146 33.3874 114.8003 0.0000 0.0000 0.0000
# 4 0.0000 0.0000 0.0000 2.2530 0.0000 0.0000
# 5 0.0000 0.0000 0.0000 0.0000 23.3090 0.0000
# 6 0.0000 0.0000 0.0000 0.0000 0.0000 23.1918
#
#
#
# Elastic Compliance Matrix: (Units=1/GPa)
#
#
# Indices 1 2 3 4 5 6 
#
# 1 0.021322 -0.006565 -0.007009 0.000000 0.000000 0.000000
# 2 -0.006565 0.008810 0.000184 0.000000 0.000000 0.000000
# 3 -0.007009 0.000184 0.011589 0.000000 0.000000 0.000000
# 4 0.000000 0.000000 0.000000 0.443845 0.000000 0.000000
# 5 0.000000 0.000000 0.000000 0.000000 0.042902 0.000000
# 6 0.000000 0.000000 0.000000 0.000000 0.000000 0.043119
#
#
# Mechanical properties :
#
#
# Convention : Reuss Voigt Hill
#
# Bulk Modulus (GPa) = 66.93124 70.46759 68.69942
# Shear Modulus (GPa) = 8.28711 23.88698 16.08705
#
# Velocity S-wave (km/s) = 2.07597 3.52452 2.89239
# Velocity P-wave (km/s) = 6.36814 7.29445 6.84698
#
# Compressibility (1/GPa) = 0.01494071
#
# Stress axis : x y z
#
# Youngs Moduli (GPa) = 46.89985 113.50950 86.29119
#
# Poissons Ratio (x) = 0.74519 0.60478
# Poissons Ratio (y) = 0.30790 -0.01584
# Poissons Ratio (z) = 0.32870 -0.02084
#
# Static dielectric constant tensor:
#      x y z
#    x 1.670690 0.000000 0.000000 
#    y 0.000000 1.672010 0.000000 
#    z 0.000000 0.000000 1.683890 
# 
# From -- ./inp_files/28590.got.cif
#   From: 2010.05.17/outbox.cif.g08.bks.cpg/sg42_15_cif.got.tgz:28590.got - 2010.06.03 19:03:34.
