data_PCOD9368460
_publ_section_title
;
Structure prediction by ZEFSAII (Michael W. Deem and Ramdas Pophale) SiO2 
 PCOD9368460
Probable space group: F M M 2
;
_chemical_formula_sum "Si O2"
_cell_formula_units_Z 112
_cell_length_a 35.364556
_cell_length_b 13.537169
_cell_length_c 13.934750
_cell_angle_alpha 90.000000
_cell_angle_beta 90.000000
_cell_angle_gamma 90.000000
_cell_volume 6671.066074
_symmetry_space_group_name_H-M "F M M 2"
_symmetry_group_IT_number 42
_symmetry_cell_setting 'orthorhombic'
loop_
_space_group_symop_operation_xyz
x,y,z
-x,-y,z
-x,y,z
x,-y,z
x,1/2+y,1/2+z
-x,1/2-y,1/2+z
-x,1/2+y,1/2+z
x,1/2-y,1/2+z
1/2+x,y,1/2+z
1/2-x,-y,1/2+z
1/2-x,y,1/2+z
1/2+x,-y,1/2+z
1/2+x,1/2+y,z
1/2-x,1/2-y,z
1/2-x,1/2+y,z
1/2+x,1/2-y,z
loop_
_atom_site_type_symbol
_atom_site_label
_atom_site_fract_x
_atom_site_fract_y
_atom_site_fract_z
Si Si1 0.045060 0.112935 0.992340
Si Si2 0.093058 0.750000 0.628277
Si Si3 0.294247 0.768141 0.488355
Si Si4 0.663470 0.116478 0.658782
Si Si5 0.454940 0.612935 0.764214
Si Si6 0.836530 0.383522 0.097772
Si Si7 0.794247 0.768141 0.768199
O O1 0.051600 0.121623 0.878277
O O2 0.000000 0.122005 0.008732
O O3 0.056079 0.000000 0.020360
O O4 0.067427 0.196880 0.048876
O O5 0.121946 0.664714 0.662414
O O6 0.067427 0.803120 0.707679
O O7 0.121946 0.835286 0.594140
O O8 0.250000 0.750000 0.507850
O O9 0.314451 0.841703 0.563999
O O10 0.314142 0.663470 0.508798
O O11 0.298925 0.800104 0.378277
O O12 0.685858 0.163470 0.747756
O O13 0.662631 0.000000 0.657672
O O14 0.500000 0.622005 0.747822
O O15 0.443921 0.500000 0.736194
O O16 0.837370 0.500000 0.098882
O O17 0.814451 0.341703 0.192555
O O18 0.750000 0.750000 0.748704
#
# Coordination Sequence:
#
# PCOD9368460 Si02
#       7
#    16  16  16  16  16  16  16
#     4   9  18  33  54  78 100 126 164 205 243 288
#     4  10  19  32  51  74 102 134 162 198 245 292
#     4   9  19  35  53  73  97 127 165 208 252 294
#     4  10  21  34  49  73 102 131 165 203 243 292
#     4   9  18  33  54  78 100 126 164 205 243 288
#     4  10  21  34  49  73 102 131 165 203 243 292
#     4   9  19  35  53  73  97 127 165 208 252 294
#
# _framework density 16.788920999999998
#
# number of rings (size 3 to 8) (size 9 to 14) (size 15 to 20)
#    0.000    2.857    0.000    3.857    0.000    8.000 
#    0.000    2.857    0.000    2.571    0.000   10.000 
#    0.000    0.000    0.000    0.000    0.000    0.000 
#
# Total GULP energy -155945.986237 kJ/mol
# GULP energy per Si atom -5569.499508 kJ/mol
# Density = 1.675071 g / cm^3
# Si number density = 16.788921 Si / 1000 Ang^3
#
#
#
# Elastic Constant Matrix: (Units=GPa)
#
#
# Indices 1 2 3 4 5 6 
#
# 1 90.0390 52.8463 36.6502 0.0000 0.0000 0.0000
# 2 52.8463 131.1760 10.2430 0.0000 0.0000 0.0000
# 3 36.6502 10.2430 39.9988 0.0000 0.0000 0.0000
# 4 0.0000 0.0000 0.0000 18.8568 0.0000 0.0000
# 5 0.0000 0.0000 0.0000 0.0000 -7.6164 0.0000
# 6 0.0000 0.0000 0.0000 0.0000 0.0000 7.9333
#
#
#
# Elastic Compliance Matrix: (Units=1/GPa)
#
#
# Indices 1 2 3 4 5 6 
#
# 1 0.023944 -0.008095 -0.019867 0.000000 0.000000 0.000000
# 2 -0.008095 0.010516 0.004724 0.000000 0.000000 0.000000
# 3 -0.019867 0.004724 0.041994 0.000000 0.000000 0.000000
# 4 0.000000 0.000000 0.000000 0.053031 0.000000 0.000000
# 5 0.000000 0.000000 0.000000 0.000000 -0.131296 0.000000
# 6 0.000000 0.000000 0.000000 0.000000 0.000000 0.126050
#
#
# Mechanical properties :
#
#
# Convention : Reuss Voigt Hill
#
# Bulk Modulus (GPa) = 33.35584 51.18808 42.27196
# Shear Modulus (GPa) = 27.66907 14.59971 21.13439
#
# Velocity S-wave (km/s) = 4.06403 2.95210 3.55185
# Velocity P-wave (km/s) = 6.47554 6.49425 6.48490
#
# Compressibility (1/GPa) = 0.02997976
#
# Stress axis : x y z
#
# Youngs Moduli (GPa) = 41.76387 95.09669 23.81272
#
# Poissons Ratio (x) = 0.76980 0.47308
# Poissons Ratio (y) = 0.33808 -0.11250
# Poissons Ratio (z) = 0.82971 -0.44928
#
# Static dielectric constant tensor:
#      x y z
#    x 1.582030 0.000000 0.000000 
#    y 0.000000 1.555170 0.000000 
#    z 0.000000 0.000000 1.563610 
# 
# From -- ./inp_files/17401.got.cif
#   From: 2010.05.17/outbox.cif.g08.bks.cpg/sg42_9_cif.got.tgz:17401.got - 2010.06.03 19:03:34.
