data_PCOD9368473
_publ_section_title
;
Structure prediction by ZEFSAII (Michael W. Deem and Ramdas Pophale) SiO2 
 PCOD9368473
Probable space group: F M M 2
;
_chemical_formula_sum "Si O2"
_cell_formula_units_Z 96
_cell_length_a 8.936583
_cell_length_b 32.958311
_cell_length_c 15.409603
_cell_angle_alpha 90.000000
_cell_angle_beta 90.000000
_cell_angle_gamma 90.000000
_cell_volume 4538.662516
_symmetry_space_group_name_H-M "F M M 2"
_symmetry_group_IT_number 42
_symmetry_cell_setting 'orthorhombic'
loop_
_space_group_symop_operation_xyz
x,y,z
-x,-y,z
-x,y,z
x,-y,z
x,1/2+y,1/2+z
-x,1/2-y,1/2+z
-x,1/2+y,1/2+z
x,1/2-y,1/2+z
1/2+x,y,1/2+z
1/2-x,-y,1/2+z
1/2-x,y,1/2+z
1/2+x,-y,1/2+z
1/2+x,1/2+y,z
1/2-x,1/2-y,z
1/2-x,1/2+y,z
1/2+x,1/2-y,z
loop_
_atom_site_type_symbol
_atom_site_label
_atom_site_fract_x
_atom_site_fract_y
_atom_site_fract_z
Si Si1 0.319609 0.629394 0.902430
Si Si2 0.176831 0.955202 0.097963
Si Si3 0.832802 0.210185 0.143816
Si Si4 0.321779 0.872478 0.093641
Si Si5 0.832914 0.289351 0.849270
Si Si6 0.177337 0.043124 0.886659
O O1 0.500000 0.628624 0.909561
O O2 0.264229 0.670409 0.859657
O O3 0.268457 0.587272 0.856825
O O4 0.244543 0.629201 0.996690
O O5 0.262797 0.915521 0.130747
O O6 0.000000 0.951134 0.116214
O O7 0.227915 0.000000 0.128295
O O8 0.190707 0.955982 0.992205
O O9 0.750000 0.250000 0.107298
O O10 0.741683 0.168606 0.134886
O O11 0.848548 0.217362 0.246523
O O12 0.000000 0.205472 0.106160
O O13 0.500000 0.872335 0.094603
O O14 0.750000 0.250000 0.886660
O O15 0.000000 0.294666 0.886418
O O16 0.000000 0.041899 0.867643
O O17 0.244292 0.000000 0.856871
#
# Coordination Sequence:
#
# PCOD9368473 Si02
#       6
#    16  16  16  16  16  16
#     4  10  19  32  52  77 105 135 169 208 251 298
#     4   8  14  27  47  70  99 135 171 206 249 299
#     4  10  21  38  57  75  98 130 169 210 256 310
#     4  11  21  32  50  78 109 136 169 212 254 297
#     4  10  21  37  56  76  99 129 167 209 254 307
#     4   7  11  22  42  68  96 127 162 197 235 283
#
# _framework density 21.151606999999998
#
# number of rings (size 3 to 8) (size 9 to 14) (size 15 to 20)
#    0.000    2.667    0.000    5.000    0.000    3.000 
#    0.000    3.333    0.000    2.500    0.000    4.667 
#    0.000    0.000    0.000    0.000    0.000    0.000 
#
# Total GULP energy -133768.572255 kJ/mol
# GULP energy per Si atom -5573.690511 kJ/mol
# Density = 2.110346 g / cm^3
# Si number density = 21.151607 Si / 1000 Ang^3
#
#
#
# Elastic Constant Matrix: (Units=GPa)
#
#
# Indices 1 2 3 4 5 6 
#
# 1 135.3962 92.2268 6.1830 0.0000 0.0000 0.0000
# 2 92.2268 234.6827 6.4161 0.0000 0.0000 0.0000
# 3 6.1830 6.4161 19.3222 0.0000 0.0000 0.0000
# 4 0.0000 0.0000 0.0000 8.9621 0.0000 0.0000
# 5 0.0000 0.0000 0.0000 0.0000 13.1320 0.0000
# 6 0.0000 0.0000 0.0000 0.0000 0.0000 25.0324
#
#
#
# Elastic Compliance Matrix: (Units=1/GPa)
#
#
# Indices 1 2 3 4 5 6 
#
# 1 0.010157 -0.003939 -0.001942 0.000000 0.000000 0.000000
# 2 -0.003939 0.005827 -0.000675 0.000000 0.000000 0.000000
# 3 -0.001942 -0.000675 0.052600 0.000000 0.000000 0.000000
# 4 0.000000 0.000000 0.000000 0.111581 0.000000 0.000000
# 5 0.000000 0.000000 0.000000 0.000000 0.076150 0.000000
# 6 0.000000 0.000000 0.000000 0.000000 0.000000 0.039948
#
#
# Mechanical properties :
#
#
# Convention : Reuss Voigt Hill
#
# Bulk Modulus (GPa) = 18.02684 66.56142 42.29413
# Shear Modulus (GPa) = 15.25013 28.39697 21.82355
#
# Velocity S-wave (km/s) = 2.68804 3.66805 3.21560
# Velocity P-wave (km/s) = 4.26325 7.03395 5.81600
#
# Compressibility (1/GPa) = 0.05547285
#
# Stress axis : x y z
#
# Youngs Moduli (GPa) = 98.45225 171.60607 19.01154
#
# Poissons Ratio (x) = 0.67587 0.03693
# Poissons Ratio (y) = 0.38776 0.01283
# Poissons Ratio (z) = 0.19124 0.11578
#
# Static dielectric constant tensor:
#      x y z
#    x 1.743730 0.000000 0.000000 
#    y 0.000000 1.821750 0.000000 
#    z 0.000000 0.000000 1.781390 
# 
# From -- ./inp_files/23687.got.cif
#   From: 2010.05.17/outbox.cif.g08.bks.cpg/sg42_12_cif.got.tgz:23687.got - 2010.06.03 19:03:34.
