data_PCOD9368001
_publ_section_title
;
Structure prediction by ZEFSAII (Michael W. Deem and Ramdas Pophale) SiO2 
 PCOD9368001
Probable space group: A B A 2
;
_chemical_formula_sum "Si O2"
_cell_formula_units_Z 36
_cell_length_a 14.551848
_cell_length_b 11.507358
_cell_length_c 8.768278
_cell_angle_alpha 90.000000
_cell_angle_beta 90.000000
_cell_angle_gamma 90.000000
_cell_volume 1468.277301
_symmetry_space_group_name_H-M "A B A 2"
_symmetry_group_IT_number 41
_symmetry_cell_setting 'orthorhombic'
loop_
_space_group_symop_operation_xyz
x,y,z
-x,-y,z
1/2-x,y,1/2+z
1/2+x,-y,1/2+z
x,1/2+y,1/2+z
-x,1/2-y,1/2+z
1/2-x,1/2+y,z
1/2+x,1/2-y,z
loop_
_atom_site_type_symbol
_atom_site_label
_atom_site_fract_x
_atom_site_fract_y
_atom_site_fract_z
Si Si1 0.143052 0.426894 0.362050
Si Si2 0.000000 0.000000 0.105807
Si Si3 0.961472 0.243797 0.657970
Si Si4 0.651152 0.369221 0.627750
Si Si5 0.790851 0.748842 0.929043
O O1 0.087813 0.491647 0.494100
O O2 0.078126 0.321535 0.305407
O O3 0.155715 0.509062 0.215884
O O4 0.235196 0.370888 0.425679
O O5 0.991711 0.876749 0.190079
O O6 0.879534 0.245494 0.535265
O O7 0.046573 0.167383 0.597814
O O8 0.720355 0.347650 0.489745
O O9 0.683578 0.277832 0.756791
#
# Coordination Sequence:
#
# PCOD9368001 Si02
#       5
#     8   4   8   8   8
#     4  12  25  49  74 115 159 200 260 325 387 468
#     4  12  24  48  80 110 162 204 254 336 384 464
#     4  12  25  47  76 113 150 209 257 320 399 457
#     4  12  27  47  79 113 157 205 260 329 390 468
#     4  12  27  47  78 116 154 207 264 319 397 471
#
# _framework density 24.518528
#
# number of rings (size 3 to 8) (size 9 to 14) (size 15 to 20)
#    0.000    0.000    8.889    0.000    3.111    1.778 
#    0.000    2.222    0.000    0.000    0.000    0.000 
#    0.000    0.000    0.000    0.000    0.000    0.000 
#
# Total GULP energy -100944.018989 kJ/mol
# GULP energy per Si atom -5608.001055 kJ/mol
# Density = 2.446272 g / cm^3
# Si number density = 24.518528 Si / 1000 Ang^3
#
#
#
# Elastic Constant Matrix: (Units=GPa)
#
#
# Indices 1 2 3 4 5 6 
#
# 1 145.9576 42.7087 17.4369 0.0000 0.0000 0.0000
# 2 42.7087 155.5259 19.6061 0.0000 0.0000 0.0000
# 3 17.4369 19.6061 34.2292 0.0000 0.0000 0.0000
# 4 0.0000 0.0000 0.0000 52.4587 0.0000 0.0000
# 5 0.0000 0.0000 0.0000 0.0000 26.5449 0.0000
# 6 0.0000 0.0000 0.0000 0.0000 0.0000 41.0467
#
#
#
# Elastic Compliance Matrix: (Units=1/GPa)
#
#
# Indices 1 2 3 4 5 6 
#
# 1 0.007713 -0.001749 -0.002927 0.000000 0.000000 0.000000
# 2 -0.001749 0.007327 -0.003306 0.000000 0.000000 0.000000
# 3 -0.002927 -0.003306 0.032600 0.000000 0.000000 0.000000
# 4 0.000000 0.000000 0.000000 0.019063 0.000000 0.000000
# 5 0.000000 0.000000 0.000000 0.000000 0.037672 0.000000
# 6 0.000000 0.000000 0.000000 0.000000 0.000000 0.024363
#
#
# Mechanical properties :
#
#
# Convention : Reuss Voigt Hill
#
# Bulk Modulus (GPa) = 31.57044 55.02402 43.29723
# Shear Modulus (GPa) = 32.20433 41.07411 36.63922
#
# Velocity S-wave (km/s) = 3.62811 4.09739 3.86987
# Velocity P-wave (km/s) = 5.51861 6.69891 6.13720
#
# Compressibility (1/GPa) = 0.03167520
#
# Stress axis : x y z
#
# Youngs Moduli (GPa) = 129.65502 136.48491 30.67527
#
# Poissons Ratio (x) = 0.23871 0.08979
# Poissons Ratio (y) = 0.22676 0.10141
# Poissons Ratio (z) = 0.37953 0.45119
#
# Static dielectric constant tensor:
#      x y z
#    x 1.969620 0.000000 0.000000 
#    y 0.000000 1.954000 0.000000 
#    z 0.000000 0.000000 1.907560 
# 
# From -- ./inp_files/5358.got.cif
#   From: 2010.05.17/outbox.cif.g08.bks.cpg/sg41_3_cif.got.tgz:5358.got - 2010.06.03 18:54:24.
