data_PCOD9368866
_publ_section_title
;
Structure prediction by ZEFSAII (Michael W. Deem and Ramdas Pophale) SiO2 
 PCOD9368866
Probable space group: F M M 2
;
_chemical_formula_sum "Si O2"
_cell_formula_units_Z 96
_cell_length_a 19.753066
_cell_length_b 7.714878
_cell_length_c 31.189985
_cell_angle_alpha 90.000000
_cell_angle_beta 90.000000
_cell_angle_gamma 90.000000
_cell_volume 4753.119612
_symmetry_space_group_name_H-M "F M M 2"
_symmetry_group_IT_number 42
_symmetry_cell_setting 'orthorhombic'
loop_
_space_group_symop_operation_xyz
x,y,z
-x,-y,z
-x,y,z
x,-y,z
x,1/2+y,1/2+z
-x,1/2-y,1/2+z
-x,1/2+y,1/2+z
x,1/2-y,1/2+z
1/2+x,y,1/2+z
1/2-x,-y,1/2+z
1/2-x,y,1/2+z
1/2+x,-y,1/2+z
1/2+x,1/2+y,z
1/2-x,1/2-y,z
1/2-x,1/2+y,z
1/2+x,1/2-y,z
loop_
_atom_site_type_symbol
_atom_site_label
_atom_site_fract_x
_atom_site_fract_y
_atom_site_fract_z
Si Si1 0.827155 0.708800 0.767810
Si Si2 0.923782 0.206409 0.342561
Si Si3 0.827197 0.708303 0.670609
Si Si4 0.326797 0.706270 0.919865
Si Si5 0.326897 0.208363 0.516975
Si Si6 0.922069 0.287361 0.593672
O O1 0.832708 0.500000 0.766550
O O2 0.750000 0.750000 0.780358
O O3 0.880057 0.776657 0.802675
O O4 0.838019 0.773928 0.719182
O O5 0.881428 0.231551 0.385871
O O6 0.000000 0.276796 0.345053
O O7 0.928889 0.000000 0.335984
O O8 0.832840 0.500000 0.672030
O O9 0.750000 0.750000 0.657994
O O10 0.880725 0.770775 0.635621
O O11 0.331992 0.500000 0.921672
O O12 0.250000 0.750000 0.906405
O O13 0.336575 0.775265 0.968386
O O14 0.250000 0.250000 0.530287
O O15 0.381077 0.270643 0.551567
O O16 0.332481 0.000000 0.515396
O O17 0.921585 0.500000 0.593678
O O18 0.000000 0.232631 0.593777
#
# Coordination Sequence:
#
# PCOD9368866 Si02
#       6
#    16  16  16  16  16  16
#     4   9  18  32  50  72  96 124 160 200 241 284
#     4  10  21  35  50  71 101 133 163 200 246 293
#     4   9  17  30  50  73  95 123 159 198 237 280
#     4  10  20  34  53  75  98 127 165 206 246 290
#     4   9  18  32  51  73  96 124 158 198 239 280
#     4   9  17  29  47  72  99 126 157 193 234 281
#
# _framework density 20.197261000000001
#
# number of rings (size 3 to 8) (size 9 to 14) (size 15 to 20)
#    0.000    2.667    0.000    1.500    0.000    4.333 
#    0.000    5.000    0.000    2.000    0.000    4.667 
#    0.000    0.000    0.000    0.000    0.000    0.000 
#
# Total GULP energy -133956.177651 kJ/mol
# GULP energy per Si atom -5581.507402 kJ/mol
# Density = 2.015129 g / cm^3
# Si number density = 20.197261 Si / 1000 Ang^3
#
#
#
# Elastic Constant Matrix: (Units=GPa)
#
#
# Indices 1 2 3 4 5 6 
#
# 1 216.0238 1.6562 143.5941 0.0000 0.0000 0.0000
# 2 1.6562 32.7205 4.1758 0.0000 0.0000 0.0000
# 3 143.5941 4.1758 140.7398 0.0000 0.0000 0.0000
# 4 0.0000 0.0000 0.0000 8.9832 0.0000 0.0000
# 5 0.0000 0.0000 0.0000 0.0000 -8.6351 0.0000
# 6 0.0000 0.0000 0.0000 0.0000 0.0000 21.2071
#
#
#
# Elastic Compliance Matrix: (Units=1/GPa)
#
#
# Indices 1 2 3 4 5 6 
#
# 1 0.014428 0.001153 -0.014755 0.000000 0.000000 0.000000
# 2 0.001153 0.030770 -0.002089 0.000000 0.000000 0.000000
# 3 -0.014755 -0.002089 0.022221 0.000000 0.000000 0.000000
# 4 0.000000 0.000000 0.000000 0.111318 0.000000 0.000000
# 5 0.000000 0.000000 0.000000 0.000000 -0.115806 0.000000
# 6 0.000000 0.000000 0.000000 0.000000 0.000000 0.047154
#
#
# Mechanical properties :
#
#
# Convention : Reuss Voigt Hill
#
# Bulk Modulus (GPa) = 27.74911 76.48180 52.11546
# Shear Modulus (GPa) = 32.57733 20.31490 26.44611
#
# Velocity S-wave (km/s) = 4.02052 3.17491 3.62248
# Velocity P-wave (km/s) = 5.94320 7.16866 6.58450
#
# Compressibility (1/GPa) = 0.03603719
#
# Stress axis : x y z
#
# Youngs Moduli (GPa) = 69.30932 32.49904 45.00159
#
# Poissons Ratio (x) = -0.03746 0.66399
# Poissons Ratio (y) = -0.07990 0.09401
# Poissons Ratio (z) = 1.02265 0.06789
#
# Static dielectric constant tensor:
#      x y z
#    x 1.668660 0.000000 0.000000 
#    y 0.000000 1.761700 0.000000 
#    z 0.000000 0.000000 1.727980 
# 
# From -- ./inp_files/31435.got.cif
#   From: 2010.05.17/outbox.cif.g08.bks.cpg/sg42_16_cif.got.tgz:31435.got - 2010.06.03 19:03:34.
