data_PCOD9368701
_publ_section_title
;
Structure prediction by ZEFSAII (Michael W. Deem and Ramdas Pophale) SiO2 
 PCOD9368701
Probable space group: F M M 2
;
_chemical_formula_sum "Si O2"
_cell_formula_units_Z 56
_cell_length_a 20.809279
_cell_length_b 10.159935
_cell_length_c 9.833312
_cell_angle_alpha 90.000000
_cell_angle_beta 90.000000
_cell_angle_gamma 90.000000
_cell_volume 2078.967890
_symmetry_space_group_name_H-M "F M M 2"
_symmetry_group_IT_number 42
_symmetry_cell_setting 'orthorhombic'
loop_
_space_group_symop_operation_xyz
x,y,z
-x,-y,z
-x,y,z
x,-y,z
x,1/2+y,1/2+z
-x,1/2-y,1/2+z
-x,1/2+y,1/2+z
x,1/2-y,1/2+z
1/2+x,y,1/2+z
1/2-x,-y,1/2+z
1/2-x,y,1/2+z
1/2+x,-y,1/2+z
1/2+x,1/2+y,z
1/2-x,1/2-y,z
1/2-x,1/2+y,z
1/2+x,1/2-y,z
loop_
_atom_site_type_symbol
_atom_site_label
_atom_site_fract_x
_atom_site_fract_y
_atom_site_fract_z
Si Si1 0.500000 0.790886 0.085650
Si Si2 0.860553 0.000000 0.350006
Si Si3 0.000000 0.500000 0.468655
Si Si4 0.855837 0.500000 0.505173
Si Si5 0.740891 0.500000 0.653325
Si Si6 0.500000 0.500000 0.345570
Si Si7 0.362700 0.699036 0.595262
O O1 0.500000 0.637896 0.049921
O O2 0.566653 0.826143 0.157338
O O3 0.500000 0.874331 0.946127
O O4 0.799727 0.000000 0.255318
O O5 0.930397 0.000000 0.276835
O O6 0.860706 0.125292 0.449728
O O7 0.076364 0.500000 0.418135
O O8 0.775738 0.500000 0.503695
O O9 0.858706 0.352712 0.569428
O O10 0.694806 0.373525 0.672560
#
# Coordination Sequence:
#
# PCOD9368701 Si02
#       7
#     8   8   4   8   8   4  16
#     4   8  14  30  58  86 111 146 193 246 296 340
#     4   9  19  36  59  88 118 157 198 244 298 348
#     4   8  16  29  54  84 110 147 188 239 298 346
#     4  10  19  36  58  84 117 152 197 244 293 350
#     4  11  21  34  54  85 124 159 193 233 291 358
#     4   8  14  29  56  86 114 145 198 247 286 346
#     4   9  19  37  60  87 119 154 197 246 296 350
#
# _framework density 26.936440999999999
#
# number of rings (size 3 to 8) (size 9 to 14) (size 15 to 20)
#    0.000    2.857    0.000    1.714    0.000    0.571 
#    0.000   12.857    0.000    0.000    0.000   24.000 
#    0.000   34.286    0.000    0.000    0.000    3.429 
#
# Total GULP energy -77990.429976 kJ/mol
# GULP energy per Si atom -5570.744998 kJ/mol
# Density = 2.687513 g / cm^3
# Si number density = 26.936441 Si / 1000 Ang^3
#
#
#
# Elastic Constant Matrix: (Units=GPa)
#
#
# Indices 1 2 3 4 5 6 
#
# 1 281.2629 95.0029 48.1006 0.0000 0.0000 0.0000
# 2 95.0029 232.3570 66.4703 0.0000 0.0000 0.0000
# 3 48.1006 66.4703 68.8520 0.0000 0.0000 0.0000
# 4 0.0000 0.0000 0.0000 13.9142 0.0000 0.0000
# 5 0.0000 0.0000 0.0000 0.0000 31.2366 0.0000
# 6 0.0000 0.0000 0.0000 0.0000 0.0000 37.3338
#
#
#
# Elastic Compliance Matrix: (Units=1/GPa)
#
#
# Indices 1 2 3 4 5 6 
#
# 1 0.004280 -0.001236 -0.001797 0.000000 0.000000 0.000000
# 2 -0.001236 0.006303 -0.005221 0.000000 0.000000 0.000000
# 3 -0.001797 -0.005221 0.020820 0.000000 0.000000 0.000000
# 4 0.000000 0.000000 0.000000 0.071869 0.000000 0.000000
# 5 0.000000 0.000000 0.000000 0.000000 0.032014 0.000000
# 6 0.000000 0.000000 0.000000 0.000000 0.000000 0.026785
#
#
# Mechanical properties :
#
#
# Convention : Reuss Voigt Hill
#
# Bulk Modulus (GPa) = 67.13901 111.29106 89.21503
# Shear Modulus (GPa) = 27.24140 41.35678 34.29909
#
# Velocity S-wave (km/s) = 3.18358 3.92260 3.57225
# Velocity P-wave (km/s) = 6.20424 7.86903 7.08570
#
# Compressibility (1/GPa) = 0.01489447
#
# Stress axis : x y z
#
# Youngs Moduli (GPa) = 233.63526 158.66215 48.03099
#
# Poissons Ratio (x) = 0.19610 0.08631
# Poissons Ratio (y) = 0.28876 0.25078
# Poissons Ratio (z) = 0.41983 0.82841
#
# Static dielectric constant tensor:
#      x y z
#    x 2.195430 0.000000 0.000000 
#    y 0.000000 1.973990 0.000000 
#    z 0.000000 0.000000 2.283080 
# 
# From -- ./inp_files/6651.got.cif
#   From: 2010.05.17/outbox.cif.g08.bks.cpg/sg42_4_cif.got.tgz:6651.got - 2010.06.03 19:03:34.
