data_PCOD9368827
_publ_section_title
;
Structure prediction by ZEFSAII (Michael W. Deem and Ramdas Pophale) SiO2 
 PCOD9368827
Probable space group: F M M 2
;
_chemical_formula_sum "Si O2"
_cell_formula_units_Z 96
_cell_length_a 23.500750
_cell_length_b 9.682190
_cell_length_c 20.306660
_cell_angle_alpha 90.000000
_cell_angle_beta 90.000000
_cell_angle_gamma 90.000000
_cell_volume 4620.551559
_symmetry_space_group_name_H-M "F M M 2"
_symmetry_group_IT_number 42
_symmetry_cell_setting 'orthorhombic'
loop_
_space_group_symop_operation_xyz
x,y,z
-x,-y,z
-x,y,z
x,-y,z
x,1/2+y,1/2+z
-x,1/2-y,1/2+z
-x,1/2+y,1/2+z
x,1/2-y,1/2+z
1/2+x,y,1/2+z
1/2-x,-y,1/2+z
1/2-x,y,1/2+z
1/2+x,-y,1/2+z
1/2+x,1/2+y,z
1/2-x,1/2-y,z
1/2-x,1/2+y,z
1/2+x,1/2-y,z
loop_
_atom_site_type_symbol
_atom_site_label
_atom_site_fract_x
_atom_site_fract_y
_atom_site_fract_z
Si Si1 0.794576 0.348537 0.933630
Si Si2 0.078633 0.660343 0.970667
Si Si3 0.341678 0.159062 0.790553
Si Si4 0.436569 0.665394 0.100210
Si Si5 0.305318 0.660135 0.144683
Si Si6 0.436061 0.159350 0.338990
O O1 0.769712 0.500000 0.931220
O O2 0.750000 0.250000 0.965415
O O3 0.853228 0.345661 0.971423
O O4 0.808772 0.308780 0.858161
O O5 0.060159 0.500000 0.967218
O O6 0.064366 0.747902 0.905284
O O7 0.060087 0.744321 0.034125
O O8 0.305876 0.163961 0.724537
O O9 0.393130 0.266567 0.789604
O O10 0.363004 0.000000 0.798154
O O11 0.500000 0.688232 0.133986
O O12 0.434778 0.500000 0.087679
O O13 0.372341 0.697842 0.128385
O O14 0.297616 0.500000 0.123510
O O15 0.250000 0.750000 0.123295
O O16 0.500000 0.159389 0.312933
O O17 0.419858 0.000000 0.353250
#
# Coordination Sequence:
#
# PCOD9368827 Si02
#       6
#    16  16  16  16  16  16
#     4   9  18  31  49  76 107 138 176 222 272 330
#     4  10  21  36  54  79 110 145 187 233 284 342
#     4   9  19  35  54  79 110 146 188 229 275 335
#     4  10  22  40  60  83 113 151 196 243 290 341
#     4  10  22  40  62  87 116 153 195 240 290 342
#     4  10  20  33  52  81 114 146 182 228 283 341
#
# _framework density 20.776741000000001
#
# number of rings (size 3 to 8) (size 9 to 14) (size 15 to 20)
#    0.000    2.333    0.000    3.000    0.000    9.667 
#    0.000    5.000    0.000    0.000    0.000    0.000 
#    0.000    0.000    0.000    0.000    0.000    0.000 
#
# Total GULP energy -133627.711771 kJ/mol
# GULP energy per Si atom -5567.821324 kJ/mol
# Density = 2.072945 g / cm^3
# Si number density = 20.776741 Si / 1000 Ang^3
#
#
#
# Elastic Constant Matrix: (Units=GPa)
#
#
# Indices 1 2 3 4 5 6 
#
# 1 158.9074 80.2630 17.8198 0.0000 0.0000 0.0000
# 2 80.2630 71.3520 14.9298 0.0000 0.0000 0.0000
# 3 17.8198 14.9298 45.0505 0.0000 0.0000 0.0000
# 4 0.0000 0.0000 0.0000 20.6265 0.0000 0.0000
# 5 0.0000 0.0000 0.0000 0.0000 2.1241 0.0000
# 6 0.0000 0.0000 0.0000 0.0000 0.0000 26.1888
#
#
#
# Elastic Compliance Matrix: (Units=1/GPa)
#
#
# Indices 1 2 3 4 5 6 
#
# 1 0.014578 -0.016324 -0.000357 0.000000 0.000000 0.000000
# 2 -0.016324 0.033339 -0.004591 0.000000 0.000000 0.000000
# 3 -0.000357 -0.004591 0.023860 0.000000 0.000000 0.000000
# 4 0.000000 0.000000 0.000000 0.048481 0.000000 0.000000
# 5 0.000000 0.000000 0.000000 0.000000 0.470781 0.000000
# 6 0.000000 0.000000 0.000000 0.000000 0.000000 0.038184
#
#
# Mechanical properties :
#
#
# Convention : Reuss Voigt Hill
#
# Bulk Modulus (GPa) = 34.20857 55.70391 44.95624
# Shear Modulus (GPa) = 7.33662 20.60769 13.97215
#
# Velocity S-wave (km/s) = 1.88118 3.15280 2.59605
# Velocity P-wave (km/s) = 4.60641 6.33423 5.53812
#
# Compressibility (1/GPa) = 0.02923244
#
# Stress axis : x y z
#
# Youngs Moduli (GPa) = 68.59537 29.99512 41.91121
#
# Poissons Ratio (x) = 0.48965 0.01494
# Poissons Ratio (y) = 1.11977 0.19243
# Poissons Ratio (z) = 0.02446 0.13772
#
# Static dielectric constant tensor:
#      x y z
#    x 1.823300 0.000000 0.000000 
#    y 0.000000 1.729890 0.000000 
#    z 0.000000 0.000000 1.732470 
# 
# From -- ./inp_files/30429.got.cif
#   From: 2010.05.17/outbox.cif.g08.bks.cpg/sg42_16_cif.got.tgz:30429.got - 2010.06.03 19:03:34.
