data_PCOD9368539
_publ_section_title
;
Structure prediction by ZEFSAII (Michael W. Deem and Ramdas Pophale) SiO2 
 PCOD9368539
Probable space group: F M M 2
;
_chemical_formula_sum "Si O2"
_cell_formula_units_Z 96
_cell_length_a 7.598775
_cell_length_b 27.878059
_cell_length_c 25.553816
_cell_angle_alpha 90.000000
_cell_angle_beta 90.000000
_cell_angle_gamma 90.000000
_cell_volume 5413.297326
_symmetry_space_group_name_H-M "F M M 2"
_symmetry_group_IT_number 42
_symmetry_cell_setting 'orthorhombic'
loop_
_space_group_symop_operation_xyz
x,y,z
-x,-y,z
-x,y,z
x,-y,z
x,1/2+y,1/2+z
-x,1/2-y,1/2+z
-x,1/2+y,1/2+z
x,1/2-y,1/2+z
1/2+x,y,1/2+z
1/2-x,-y,1/2+z
1/2-x,y,1/2+z
1/2+x,-y,1/2+z
1/2+x,1/2+y,z
1/2-x,1/2-y,z
1/2-x,1/2+y,z
1/2+x,1/2-y,z
loop_
_atom_site_type_symbol
_atom_site_label
_atom_site_fract_x
_atom_site_fract_y
_atom_site_fract_z
Si Si1 0.703604 0.372101 0.902150
Si Si2 0.709257 0.805801 0.307591
Si Si3 0.500000 0.556783 0.246271
Si Si4 0.285865 0.870646 0.209370
Si Si5 0.210218 0.195518 0.495593
Si Si6 0.500000 0.443337 0.372360
Si Si7 0.210387 0.304106 0.114778
O O1 0.500000 0.384538 0.891337
O O2 0.772677 0.334349 0.858473
O O3 0.714253 0.344041 0.956822
O O4 0.829817 0.417548 0.897014
O O5 0.500000 0.809551 0.309146
O O6 0.750000 0.750000 0.307902
O O7 0.764406 0.833013 0.255129
O O8 0.500000 0.500000 0.236691
O O9 0.327689 0.582394 0.221926
O O10 0.500000 0.564289 0.309310
O O11 0.500000 0.877998 0.210295
O O12 0.233325 0.844907 0.155161
O O13 0.250000 0.250000 0.477766
O O14 0.277957 0.191250 0.555344
O O15 0.000000 0.189817 0.495755
O O16 0.500000 0.500000 0.381745
O O17 0.250000 0.250000 0.133660
O O18 0.000000 0.307531 0.112145
#
# Coordination Sequence:
#
# PCOD9368539 Si02
#       7
#    16  16   8  16  16   8  16
#     4  11  22  38  57  84 116 149 190 235 288 339
#     4  10  21  31  50  80 114 152 180 215 272 334
#     4  11  24  40  64  87 106 146 194 238 295 343
#     4  10  21  38  55  83 118 148 188 234 284 335
#     4  10  19  33  54  85 122 160 197 231 276 342
#     4  11  24  42  64  85 110 146 192 244 295 345
#     4   9  19  33  53  84 120 160 194 228 277 335
#
# _framework density 17.734109
#
# number of rings (size 3 to 8) (size 9 to 14) (size 15 to 20)
#    0.000    1.833    2.500    1.500    3.500    2.667 
#    0.000    1.667    0.000    1.000    0.000    0.000 
#    0.000    0.000    0.000    0.000    0.000    0.000 
#
# Total GULP energy -133947.412077 kJ/mol
# GULP energy per Si atom -5581.142170 kJ/mol
# Density = 1.769375 g / cm^3
# Si number density = 17.734109 Si / 1000 Ang^3
#
#
#
# Elastic Constant Matrix: (Units=GPa)
#
#
# Indices 1 2 3 4 5 6 
#
# 1 85.3023 50.6289 26.5476 0.0000 0.0000 0.0000
# 2 50.6289 147.5818 61.8402 0.0000 0.0000 0.0000
# 3 26.5476 61.8402 81.3305 0.0000 0.0000 0.0000
# 4 0.0000 0.0000 0.0000 23.9943 0.0000 0.0000
# 5 0.0000 0.0000 0.0000 0.0000 18.9330 0.0000
# 6 0.0000 0.0000 0.0000 0.0000 0.0000 29.9456
#
#
#
# Elastic Compliance Matrix: (Units=1/GPa)
#
#
# Indices 1 2 3 4 5 6 
#
# 1 0.014832 -0.004490 -0.001427 0.000000 0.000000 0.000000
# 2 -0.004490 0.011304 -0.007129 0.000000 0.000000 0.000000
# 3 -0.001427 -0.007129 0.018182 0.000000 0.000000 0.000000
# 4 0.000000 0.000000 0.000000 0.041677 0.000000 0.000000
# 5 0.000000 0.000000 0.000000 0.000000 0.052818 0.000000
# 6 0.000000 0.000000 0.000000 0.000000 0.000000 0.033394
#
#
# Mechanical properties :
#
#
# Convention : Reuss Voigt Hill
#
# Bulk Modulus (GPa) = 54.87070 65.80532 60.33801
# Shear Modulus (GPa) = 24.46493 26.25443 25.35968
#
# Velocity S-wave (km/s) = 3.71825 3.85183 3.78563
# Velocity P-wave (km/s) = 7.03148 7.54781 7.29421
#
# Compressibility (1/GPa) = 0.01822466
#
# Stress axis : x y z
#
# Youngs Moduli (GPa) = 67.42054 88.46793 54.99937
#
# Poissons Ratio (x) = 0.39724 0.07850
# Poissons Ratio (y) = 0.30273 0.39209
# Poissons Ratio (z) = 0.09623 0.63069
#
# Static dielectric constant tensor:
#      x y z
#    x 1.648160 0.000000 0.000000 
#    y 0.000000 1.582670 0.000000 
#    z 0.000000 0.000000 1.636500 
# 
# From -- ./inp_files/28205.got.cif
#   From: 2010.05.17/outbox.cif.g08.bks.cpg/sg42_15_cif.got.tgz:28205.got - 2010.06.03 19:03:34.
