data_PCOD9368254
_publ_section_title
;
Structure prediction by ZEFSAII (Michael W. Deem and Ramdas Pophale) SiO2 
 PCOD9368254
Probable space group: F M M 2
;
_chemical_formula_sum "Si O2"
_cell_formula_units_Z 96
_cell_length_a 19.144343
_cell_length_b 19.405444
_cell_length_c 15.021581
_cell_angle_alpha 90.000000
_cell_angle_beta 90.000000
_cell_angle_gamma 90.000000
_cell_volume 5580.584578
_symmetry_space_group_name_H-M "F M M 2"
_symmetry_group_IT_number 42
_symmetry_cell_setting 'orthorhombic'
loop_
_space_group_symop_operation_xyz
x,y,z
-x,-y,z
-x,y,z
x,-y,z
x,1/2+y,1/2+z
-x,1/2-y,1/2+z
-x,1/2+y,1/2+z
x,1/2-y,1/2+z
1/2+x,y,1/2+z
1/2-x,-y,1/2+z
1/2-x,y,1/2+z
1/2+x,-y,1/2+z
1/2+x,1/2+y,z
1/2-x,1/2-y,z
1/2-x,1/2+y,z
1/2+x,1/2-y,z
loop_
_atom_site_type_symbol
_atom_site_label
_atom_site_fract_x
_atom_site_fract_y
_atom_site_fract_z
Si Si1 0.417212 0.208542 0.426300
Si Si2 0.721047 0.576991 0.232608
Si Si3 0.783622 0.077980 0.538509
Si Si4 0.829456 0.421979 0.383305
Si Si5 0.670304 0.724185 0.577619
Si Si6 0.827595 0.275639 0.776394
O O1 0.500000 0.211907 0.428370
O O2 0.388500 0.132952 0.402527
O O3 0.382793 0.232316 0.518767
O O4 0.383435 0.256284 0.350008
O O5 0.694284 0.500000 0.254808
O O6 0.736538 0.580162 0.127839
O O7 0.793879 0.584925 0.286488
O O8 0.675900 0.642622 0.259673
O O9 0.734179 0.088242 0.453136
O O10 0.833214 0.143878 0.550078
O O11 0.813654 0.000000 0.533524
O O12 0.854593 0.500000 0.394131
O O13 0.750000 0.750000 0.559267
O O14 0.659236 0.737747 0.682263
O O15 0.750000 0.250000 0.806286
#
# Coordination Sequence:
#
# PCOD9368254 Si02
#       6
#    16  16  16  16  16  16
#     4  12  24  35  52  77 110 147 177 212 259 315
#     4  10  18  30  53  83 106 128 167 220 271 308
#     4  10  18  30  53  83 106 128 167 220 271 308
#     4  10  19  32  50  75 106 138 171 213 263 312
#     4  11  19  35  58  80 104 137 175 225 263 302
#     4  11  19  35  58  80 104 137 175 225 263 302
#
# _framework density 17.202499
#
# number of rings (size 3 to 8) (size 9 to 14) (size 15 to 20)
#    0.000    1.333    6.667    1.500    0.000    1.000 
#    0.000    0.000    0.000    2.000    0.000    0.000 
#    0.000    0.000    0.000    0.000    0.000    0.000 
#
# Total GULP energy -133925.932394 kJ/mol
# GULP energy per Si atom -5580.247183 kJ/mol
# Density = 1.716335 g / cm^3
# Si number density = 17.202499 Si / 1000 Ang^3
#
#
#
# Elastic Constant Matrix: (Units=GPa)
#
#
# Indices 1 2 3 4 5 6 
#
# 1 41.5769 3.3752 19.6300 0.0000 0.0000 0.0000
# 2 3.3752 97.7410 -6.6866 0.0000 0.0000 0.0000
# 3 19.6300 -6.6866 51.2738 0.0000 0.0000 0.0000
# 4 0.0000 0.0000 0.0000 26.6168 0.0000 0.0000
# 5 0.0000 0.0000 0.0000 0.0000 7.0385 0.0000
# 6 0.0000 0.0000 0.0000 0.0000 0.0000 13.1535
#
#
#
# Elastic Compliance Matrix: (Units=1/GPa)
#
#
# Indices 1 2 3 4 5 6 
#
# 1 0.029675 -0.001818 -0.011598 0.000000 0.000000 0.000000
# 2 -0.001818 0.010435 0.002057 0.000000 0.000000 0.000000
# 3 -0.011598 0.002057 0.024212 0.000000 0.000000 0.000000
# 4 0.000000 0.000000 0.000000 0.037570 0.000000 0.000000
# 5 0.000000 0.000000 0.000000 0.000000 0.142076 0.000000
# 6 0.000000 0.000000 0.000000 0.000000 0.000000 0.076025
#
#
# Mechanical properties :
#
#
# Convention : Reuss Voigt Hill
#
# Bulk Modulus (GPa) = 24.03698 24.80322 24.42010
# Shear Modulus (GPa) = 14.02210 20.97996 17.50103
#
# Velocity S-wave (km/s) = 2.85813 3.49605 3.19306
# Velocity P-wave (km/s) = 4.98950 5.54492 5.27453
#
# Compressibility (1/GPa) = 0.04160257
#
# Stress axis : x y z
#
# Youngs Moduli (GPa) = 33.69796 95.83483 41.30232
#
# Poissons Ratio (x) = 0.17425 0.47903
# Poissons Ratio (y) = 0.06127 -0.08495
# Poissons Ratio (z) = 0.39084 -0.19712
#
# Static dielectric constant tensor:
#      x y z
#    x 1.526580 0.000000 0.000000 
#    y 0.000000 1.645570 0.000000 
#    z 0.000000 0.000000 1.597280 
# 
# From -- ./inp_files/14003.got.cif
#   From: 2010.05.17/outbox.cif.g08.bks.cpg/sg42_8_cif.got.tgz:14003.got - 2010.06.03 19:03:34.
