data_PCOD9368125
_publ_section_title
;
Structure prediction by ZEFSAII (Michael W. Deem and Ramdas Pophale) SiO2 
 PCOD9368125
Probable space group: F M M 2
;
_chemical_formula_sum "Si O2"
_cell_formula_units_Z 72
_cell_length_a 23.459948
_cell_length_b 14.579692
_cell_length_c 8.817397
_cell_angle_alpha 90.000000
_cell_angle_beta 90.000000
_cell_angle_gamma 90.000000
_cell_volume 3015.892032
_symmetry_space_group_name_H-M "F M M 2"
_symmetry_group_IT_number 42
_symmetry_cell_setting 'orthorhombic'
loop_
_space_group_symop_operation_xyz
x,y,z
-x,-y,z
-x,y,z
x,-y,z
x,1/2+y,1/2+z
-x,1/2-y,1/2+z
-x,1/2+y,1/2+z
x,1/2-y,1/2+z
1/2+x,y,1/2+z
1/2-x,-y,1/2+z
1/2-x,y,1/2+z
1/2+x,-y,1/2+z
1/2+x,1/2+y,z
1/2-x,1/2-y,z
1/2-x,1/2+y,z
1/2+x,1/2-y,z
loop_
_atom_site_type_symbol
_atom_site_label
_atom_site_fract_x
_atom_site_fract_y
_atom_site_fract_z
Si Si1 0.000000 0.000000 0.284540
Si Si2 0.335136 0.500000 0.466200
Si Si3 0.377320 0.690749 0.572519
Si Si4 0.757295 0.500000 0.257457
Si Si5 0.332644 0.656051 0.900801
Si Si6 0.405815 0.500000 0.031146
Si Si7 0.000000 0.838360 0.526017
Si Si8 0.000000 0.000000 0.771983
O O1 0.000000 0.907522 0.383918
O O2 0.055084 0.000000 0.177253
O O3 0.371052 0.589153 0.504634
O O4 0.308762 0.500000 0.299182
O O5 0.282332 0.500000 0.588020
O O6 0.367683 0.684659 0.751261
O O7 0.327603 0.751840 0.497574
O O8 0.441880 0.720029 0.533964
O O9 0.782362 0.592698 0.334811
O O10 0.367451 0.589281 0.010840
O O11 0.445641 0.500000 0.880966
O O12 0.000000 0.909255 0.668202
#
# Coordination Sequence:
#
# PCOD9368125 Si02
#       8
#     4   8  16   8  16   8   8   4
#     4  10  24  32  60  90 120 166 226 256 300 370
#     4  10  22  45  67  94 122 168 207 268 320 382
#     4  11  24  41  66  93 133 167 217 254 317 374
#     4   9  22  44  69  91 123 165 210 261 335 367
#     4  10  23  42  63  93 126 168 211 264 313 378
#     4  10  20  40  58  83 125 165 212 257 310 357
#     4  11  22  38  60  94 129 175 211 252 311 372
#     4  10  16  36  64  76 114 178 206 248 300 364
#
# _framework density 23.873535
#
# number of rings (size 3 to 8) (size 9 to 14) (size 15 to 20)
#    0.000    1.778    2.222    2.000    3.111    5.333 
#    4.000    4.444    0.000    0.000    0.000    0.000 
#    0.000    0.000    0.000    0.000    0.000    0.000 
#
# Total GULP energy -100720.269404 kJ/mol
# GULP energy per Si atom -5595.570522 kJ/mol
# Density = 2.381920 g / cm^3
# Si number density = 23.873535 Si / 1000 Ang^3
#
#
#
# Elastic Constant Matrix: (Units=GPa)
#
#
# Indices 1 2 3 4 5 6 
#
# 1 44.5614 -15.2191 30.6400 0.0000 0.0000 0.0000
# 2 -15.2191 84.4059 18.4787 0.0000 0.0000 0.0000
# 3 30.6400 18.4787 106.6571 0.0000 0.0000 0.0000
# 4 0.0000 0.0000 0.0000 18.1965 0.0000 0.0000
# 5 0.0000 0.0000 0.0000 0.0000 20.2642 0.0000
# 6 0.0000 0.0000 0.0000 0.0000 0.0000 7.9913
#
#
#
# Elastic Compliance Matrix: (Units=1/GPa)
#
#
# Indices 1 2 3 4 5 6 
#
# 1 0.032712 0.008269 -0.010830 0.000000 0.000000 0.000000
# 2 0.008269 0.014405 -0.004871 0.000000 0.000000 0.000000
# 3 -0.010830 -0.004871 0.013331 0.000000 0.000000 0.000000
# 4 0.000000 0.000000 0.000000 0.054956 0.000000 0.000000
# 5 0.000000 0.000000 0.000000 0.000000 0.049348 0.000000
# 6 0.000000 0.000000 0.000000 0.000000 0.000000 0.125136
#
#
# Mechanical properties :
#
#
# Convention : Reuss Voigt Hill
#
# Bulk Modulus (GPa) = 21.93773 33.71375 27.82574
# Shear Modulus (GPa) = 15.62766 22.73872 19.18319
#
# Velocity S-wave (km/s) = 2.56129 3.08955 2.83774
# Velocity P-wave (km/s) = 4.23746 5.18455 4.73475
#
# Compressibility (1/GPa) = 0.04558357
#
# Stress axis : x y z
#
# Youngs Moduli (GPa) = 30.57010 69.42058 75.01323
#
# Poissons Ratio (x) = -0.57405 0.81239
# Poissons Ratio (y) = -0.25279 0.36541
# Poissons Ratio (z) = 0.33107 0.33816
#
# Static dielectric constant tensor:
#      x y z
#    x 1.920970 0.000000 0.000000 
#    y 0.000000 1.911820 0.000000 
#    z 0.000000 0.000000 1.865390 
# 
# From -- ./inp_files/2901.got.cif
#   From: 2010.05.17/outbox.cif.g08.bks.cpg/sg42_2_cif.got.tgz:2901.got - 2010.06.03 19:03:34.
