data_PCOD9368331
_publ_section_title
;
Structure prediction by ZEFSAII (Michael W. Deem and Ramdas Pophale) SiO2 
 PCOD9368331
Probable space group: F M M 2
;
_chemical_formula_sum "Si O2"
_cell_formula_units_Z 128
_cell_length_a 14.968607
_cell_length_b 21.279337
_cell_length_c 20.214881
_cell_angle_alpha 90.000000
_cell_angle_beta 90.000000
_cell_angle_gamma 90.000000
_cell_volume 6438.884988
_symmetry_space_group_name_H-M "F M M 2"
_symmetry_group_IT_number 42
_symmetry_cell_setting 'orthorhombic'
loop_
_space_group_symop_operation_xyz
x,y,z
-x,-y,z
-x,y,z
x,-y,z
x,1/2+y,1/2+z
-x,1/2-y,1/2+z
-x,1/2+y,1/2+z
x,1/2-y,1/2+z
1/2+x,y,1/2+z
1/2-x,-y,1/2+z
1/2-x,y,1/2+z
1/2+x,-y,1/2+z
1/2+x,1/2+y,z
1/2-x,1/2-y,z
1/2-x,1/2+y,z
1/2+x,1/2-y,z
loop_
_atom_site_type_symbol
_atom_site_label
_atom_site_fract_x
_atom_site_fract_y
_atom_site_fract_z
Si Si1 0.204997 0.928027 0.593360
Si Si2 0.605657 0.808327 0.445626
Si Si3 0.822680 0.305683 0.590184
Si Si4 0.892034 0.616310 0.224125
Si Si5 0.109150 0.430553 0.369472
Si Si6 0.607642 0.571141 0.453727
Si Si7 0.606244 0.761109 0.727584
Si Si8 0.890482 0.813374 0.364903
O O1 0.279011 0.874195 0.593567
O O2 0.146945 0.916636 0.659364
O O3 0.147700 0.917980 0.526545
O O4 0.237730 0.000000 0.592670
O O5 0.500000 0.809217 0.432600
O O6 0.621376 0.802590 0.523146
O O7 0.641385 0.873465 0.415359
O O8 0.639384 0.746800 0.407612
O O9 0.750000 0.250000 0.585355
O O10 0.874331 0.292376 0.657721
O O11 0.867244 0.583746 0.293285
O O12 0.860490 0.689062 0.226712
O O13 0.000000 0.615724 0.219739
O O14 0.139915 0.500000 0.389698
O O15 0.000000 0.430999 0.372093
O O16 0.500000 0.575364 0.459088
O O17 0.630073 0.500000 0.433150
O O18 0.638331 0.623175 0.401280
O O19 0.500000 0.756019 0.736588
O O20 0.640375 0.800835 0.790090
O O21 0.000000 0.814993 0.364746
#
# Coordination Sequence:
#
# PCOD9368331 Si02
#       8
#    16  16  16  16  16  16  16  16
#     4  11  23  38  54  80 119 155 186 228 277 329
#     4  10  20  36  58  81 106 142 187 229 274 324
#     4  12  24  39  55  79 113 151 191 228 273 325
#     4  10  18  33  58  88 116 145 181 227 284 338
#     4   9  17  31  55  86 113 137 175 229 281 328
#     4   9  18  34  58  86 113 144 182 226 280 335
#     4  10  20  37  61  86 112 142 185 234 277 324
#     4   9  17  33  58  86 111 135 175 235 283 324
#
# _framework density 19.879218000000002
#
# number of rings (size 3 to 8) (size 9 to 14) (size 15 to 20)
#    0.000    2.000    2.500    1.875    0.000    1.750 
#    0.000    5.000    0.000    3.375    0.000    0.000 
#    0.000    0.000    0.000    0.000    0.000    0.000 
#
# Total GULP energy -178749.419734 kJ/mol
# GULP energy per Si atom -5585.919367 kJ/mol
# Density = 1.983397 g / cm^3
# Si number density = 19.879218 Si / 1000 Ang^3
#
#
#
# Elastic Constant Matrix: (Units=GPa)
#
#
# Indices 1 2 3 4 5 6 
#
# 1 16.6788 3.3293 -8.7734 0.0000 0.0000 0.0000
# 2 3.3293 138.3350 60.6793 0.0000 0.0000 0.0000
# 3 -8.7734 60.6793 118.9354 0.0000 0.0000 0.0000
# 4 0.0000 0.0000 0.0000 29.1472 0.0000 0.0000
# 5 0.0000 0.0000 0.0000 0.0000 -33.0068 0.0000
# 6 0.0000 0.0000 0.0000 0.0000 0.0000 14.7034
#
#
#
# Elastic Compliance Matrix: (Units=1/GPa)
#
#
# Indices 1 2 3 4 5 6 
#
# 1 0.064665 -0.004701 0.007168 0.000000 0.000000 0.000000
# 2 -0.004701 0.009655 -0.005272 0.000000 0.000000 0.000000
# 3 0.007168 -0.005272 0.011627 0.000000 0.000000 0.000000
# 4 0.000000 0.000000 0.000000 0.034309 0.000000 0.000000
# 5 0.000000 0.000000 0.000000 0.000000 -0.030297 0.000000
# 6 0.000000 0.000000 0.000000 0.000000 0.000000 0.068011
#
#
# Mechanical properties :
#
#
# Convention : Reuss Voigt Hill
#
# Bulk Modulus (GPa) = 12.44753 42.71330 27.58041
# Shear Modulus (GPa) = 26.26625 16.74970 21.50798
#
# Velocity S-wave (km/s) = 3.63890 2.90586 3.29284
# Velocity P-wave (km/s) = 4.89190 5.72641 5.32552
#
# Compressibility (1/GPa) = 0.08033721
#
# Stress axis : x y z
#
# Youngs Moduli (GPa) = 15.46422 103.57697 86.00947
#
# Poissons Ratio (x) = 0.48688 -0.61654
# Poissons Ratio (y) = 0.07269 0.45348
# Poissons Ratio (z) = -0.11085 0.54610
#
# Static dielectric constant tensor:
#      x y z
#    x 1.710230 0.000000 0.000000 
#    y 0.000000 1.712240 0.000000 
#    z 0.000000 0.000000 1.675780 
# 
# From -- ./inp_files/21956.got.cif
#   From: 2010.05.17/outbox.cif.g08.bks.cpg/sg42_11_cif.got.tgz:21956.got - 2010.06.03 19:03:34.
