data_PCOD9368255
_publ_section_title
;
Structure prediction by ZEFSAII (Michael W. Deem and Ramdas Pophale) SiO2 
 PCOD9368255
Probable space group: F M M 2
;
_chemical_formula_sum "Si O2"
_cell_formula_units_Z 104
_cell_length_a 18.950434
_cell_length_b 22.197600
_cell_length_c 15.401943
_cell_angle_alpha 90.000000
_cell_angle_beta 90.000000
_cell_angle_gamma 90.000000
_cell_volume 6478.891299
_symmetry_space_group_name_H-M "F M M 2"
_symmetry_group_IT_number 42
_symmetry_cell_setting 'orthorhombic'
loop_
_space_group_symop_operation_xyz
x,y,z
-x,-y,z
-x,y,z
x,-y,z
x,1/2+y,1/2+z
-x,1/2-y,1/2+z
-x,1/2+y,1/2+z
x,1/2-y,1/2+z
1/2+x,y,1/2+z
1/2-x,-y,1/2+z
1/2-x,y,1/2+z
1/2+x,-y,1/2+z
1/2+x,1/2+y,z
1/2-x,1/2-y,z
1/2-x,1/2+y,z
1/2+x,1/2-y,z
loop_
_atom_site_type_symbol
_atom_site_label
_atom_site_fract_x
_atom_site_fract_y
_atom_site_fract_z
Si Si1 0.750000 0.750000 0.993371
Si Si2 0.846770 0.735610 0.157820
Si Si3 0.780208 0.348245 0.717620
Si Si4 0.076965 0.379022 0.139271
Si Si5 0.220397 0.930122 0.571342
Si Si6 0.580333 0.428249 0.834342
Si Si7 0.725761 0.875833 0.398489
O O1 0.736133 0.691506 0.935807
O O2 0.815095 0.742072 0.060603
O O3 0.844126 0.801478 0.201232
O O4 0.789192 0.694568 0.208641
O O5 0.913968 0.692722 0.154891
O O6 0.770988 0.394691 0.638666
O O7 0.771529 0.379413 0.810260
O O8 0.142787 0.401465 0.083176
O O9 0.083035 0.411889 0.232246
O O10 0.000000 0.392405 0.102226
O O11 0.246976 0.919030 0.474404
O O12 0.217945 0.000000 0.593374
O O13 0.500000 0.413604 0.864016
O O14 0.590967 0.500000 0.845183
O O15 0.644562 0.392385 0.878089
#
# Coordination Sequence:
#
# PCOD9368255 Si02
#       7
#     8  16  16  16  16  16  16
#     4  10  18  30  54  74 104 136 172 220 262 302
#     4   9  15  35  49  74 104 136 171 219 262 311
#     4   9  18  31  51  73 103 135 171 218 260 305
#     4  10  19  34  54  77 108 141 174 218 269 317
#     4  11  21  33  51  81 109 138 181 217 262 321
#     4  10  21  35  52  78 110 141 175 219 273 323
#     4  12  19  32  56  79 104 143 176 222 265 317
#
# _framework density 16.052128
#
# number of rings (size 3 to 8) (size 9 to 14) (size 15 to 20)
#    0.000    2.000    7.692    1.846    0.000    1.538 
#    0.000    0.769    0.000    0.923    0.000    0.000 
#    0.000    0.000    0.000    0.000    0.000    0.000 
#
# Total GULP energy -144756.180357 kJ/mol
# GULP energy per Si atom -5567.545398 kJ/mol
# Density = 1.601559 g / cm^3
# Si number density = 16.052128 Si / 1000 Ang^3
#
#
#
# Elastic Constant Matrix: (Units=GPa)
#
#
# Indices 1 2 3 4 5 6 
#
# 1 55.3360 22.7158 16.2477 0.0000 0.0000 0.0000
# 2 22.7158 81.2880 15.7493 0.0000 0.0000 0.0000
# 3 16.2477 15.7493 80.8179 0.0000 0.0000 0.0000
# 4 0.0000 0.0000 0.0000 14.1160 0.0000 0.0000
# 5 0.0000 0.0000 0.0000 0.0000 16.8668 0.0000
# 6 0.0000 0.0000 0.0000 0.0000 0.0000 17.5349
#
#
#
# Elastic Compliance Matrix: (Units=1/GPa)
#
#
# Indices 1 2 3 4 5 6 
#
# 1 0.021194 -0.005297 -0.003229 0.000000 0.000000 0.000000
# 2 -0.005297 0.014109 -0.001684 0.000000 0.000000 0.000000
# 3 -0.003229 -0.001684 0.013351 0.000000 0.000000 0.000000
# 4 0.000000 0.000000 0.000000 0.070842 0.000000 0.000000
# 5 0.000000 0.000000 0.000000 0.000000 0.059288 0.000000
# 6 0.000000 0.000000 0.000000 0.000000 0.000000 0.057029
#
#
# Mechanical properties :
#
#
# Convention : Reuss Voigt Hill
#
# Bulk Modulus (GPa) = 35.41951 36.31863 35.86907
# Shear Modulus (GPa) = 18.82224 20.55216 19.68720
#
# Velocity S-wave (km/s) = 3.42800 3.58206 3.50588
# Velocity P-wave (km/s) = 6.14666 6.30736 6.22753
#
# Compressibility (1/GPa) = 0.02823303
#
# Stress axis : x y z
#
# Youngs Moduli (GPa) = 47.18346 70.87899 74.90176
#
# Poissons Ratio (x) = 0.37545 0.24183
# Poissons Ratio (y) = 0.24993 0.12617
# Poissons Ratio (z) = 0.15234 0.11939
#
# Static dielectric constant tensor:
#      x y z
#    x 1.541240 0.000000 0.000000 
#    y 0.000000 1.571890 0.000000 
#    z 0.000000 0.000000 1.544460 
# 
# From -- ./inp_files/15341.got.cif
#   From: 2010.05.17/outbox.cif.g08.bks.cpg/sg42_8_cif.got.tgz:15341.got - 2010.06.03 19:03:34.
