data_PCOD9368424
_publ_section_title
;
Structure prediction by ZEFSAII (Michael W. Deem and Ramdas Pophale) SiO2 
 PCOD9368424
Probable space group: F M M 2
;
_chemical_formula_sum "Si O2"
_cell_formula_units_Z 96
_cell_length_a 8.825135
_cell_length_b 19.171494
_cell_length_c 32.613107
_cell_angle_alpha 90.000000
_cell_angle_beta 90.000000
_cell_angle_gamma 90.000000
_cell_volume 5517.844927
_symmetry_space_group_name_H-M "F M M 2"
_symmetry_group_IT_number 42
_symmetry_cell_setting 'orthorhombic'
loop_
_space_group_symop_operation_xyz
x,y,z
-x,-y,z
-x,y,z
x,-y,z
x,1/2+y,1/2+z
-x,1/2-y,1/2+z
-x,1/2+y,1/2+z
x,1/2-y,1/2+z
1/2+x,y,1/2+z
1/2-x,-y,1/2+z
1/2-x,y,1/2+z
1/2+x,-y,1/2+z
1/2+x,1/2+y,z
1/2-x,1/2-y,z
1/2-x,1/2+y,z
1/2+x,1/2-y,z
loop_
_atom_site_type_symbol
_atom_site_label
_atom_site_fract_x
_atom_site_fract_y
_atom_site_fract_z
Si Si1 0.682468 0.327857 0.141750
Si Si2 0.175925 0.084770 0.804386
Si Si3 0.316682 0.581680 0.894804
Si Si4 0.681266 0.827614 0.967509
Si Si5 0.318465 0.671920 0.558370
Si Si6 0.182020 0.080352 0.219478
O O1 0.500000 0.324040 0.139945
O O2 0.750000 0.250000 0.145515
O O3 0.744589 0.359884 0.099093
O O4 0.729770 0.373031 0.181045
O O5 0.232888 0.106973 0.849333
O O6 0.261841 0.107335 0.763556
O O7 0.000000 0.104550 0.800663
O O8 0.182438 0.000000 0.805399
O O9 0.500000 0.586021 0.895591
O O10 0.276273 0.500000 0.899045
O O11 0.247338 0.625748 0.931383
O O12 0.500000 0.822820 0.964291
O O13 0.750000 0.750000 0.964835
O O14 0.716313 0.857566 0.013165
O O15 0.500000 0.675076 0.563180
O O16 0.250000 0.750000 0.557077
O O17 0.000000 0.079624 0.219964
O O18 0.234527 0.000000 0.214685
#
# Coordination Sequence:
#
# PCOD9368424 Si02
#       6
#    16  16  16  16  16  16
#     4  10  19  31  49  71  95 123 156 194 234 280
#     4   8  15  29  49  71  94 123 158 193 232 281
#     4   9  18  33  52  74 100 129 162 200 242 289
#     4  10  20  33  51  74  99 128 163 202 243 289
#     4   9  17  30  48  69  93 123 159 195 232 280
#     4   9  18  32  49  70  95 123 157 195 233 276
#
# _framework density 17.398097
#
# number of rings (size 3 to 8) (size 9 to 14) (size 15 to 20)
#    0.000    2.833    0.000    3.500    0.000    4.333 
#    0.000    3.333    0.000    5.000    0.000    0.000 
#    0.000    0.000    0.000    0.000    0.000    0.000 
#
# Total GULP energy -133663.315851 kJ/mol
# GULP energy per Si atom -5569.304827 kJ/mol
# Density = 1.735850 g / cm^3
# Si number density = 17.398097 Si / 1000 Ang^3
#
#
#
# Elastic Constant Matrix: (Units=GPa)
#
#
# Indices 1 2 3 4 5 6 
#
# 1 39.5006 21.4849 54.2207 0.0000 0.0000 0.0000
# 2 21.4849 39.9819 65.0155 0.0000 0.0000 0.0000
# 3 54.2207 65.0155 220.2209 0.0000 0.0000 0.0000
# 4 0.0000 0.0000 0.0000 33.6061 0.0000 0.0000
# 5 0.0000 0.0000 0.0000 0.0000 34.6542 0.0000
# 6 0.0000 0.0000 0.0000 0.0000 0.0000 20.2195
#
#
#
# Elastic Compliance Matrix: (Units=1/GPa)
#
#
# Indices 1 2 3 4 5 6 
#
# 1 0.040473 -0.010665 -0.006816 0.000000 0.000000 0.000000
# 2 -0.010665 0.050916 -0.012406 0.000000 0.000000 0.000000
# 3 -0.006816 -0.012406 0.009882 0.000000 0.000000 0.000000
# 4 0.000000 0.000000 0.000000 0.029756 0.000000 0.000000
# 5 0.000000 0.000000 0.000000 0.000000 0.028857 0.000000
# 6 0.000000 0.000000 0.000000 0.000000 0.000000 0.049457
#
#
# Mechanical properties :
#
#
# Convention : Reuss Voigt Hill
#
# Bulk Modulus (GPa) = 24.09828 64.57175 44.33501
# Shear Modulus (GPa) = 17.67110 28.29480 22.98295
#
# Velocity S-wave (km/s) = 3.19045 4.03714 3.63850
# Velocity P-wave (km/s) = 5.23957 7.67633 6.57188
#
# Compressibility (1/GPa) = 0.04149674
#
# Stress axis : x y z
#
# Youngs Moduli (GPa) = 24.70761 19.64022 101.19606
#
# Poissons Ratio (x) = 0.20946 0.68980
# Poissons Ratio (y) = 0.26350 1.25545
# Poissons Ratio (z) = 0.16842 0.24366
#
# Static dielectric constant tensor:
#      x y z
#    x 1.587970 0.000000 0.000000 
#    y 0.000000 1.573130 0.000000 
#    z 0.000000 0.000000 1.631910 
# 
# From -- ./inp_files/28038.got.cif
#   From: 2010.05.17/outbox.cif.g08.bks.cpg/sg42_15_cif.got.tgz:28038.got - 2010.06.03 19:03:34.
