data_PCOD9368877
_publ_section_title
;
Structure prediction by ZEFSAII (Michael W. Deem and Ramdas Pophale) SiO2 
 PCOD9368877
Probable space group: F M M 2
;
_chemical_formula_sum "Si O2"
_cell_formula_units_Z 112
_cell_length_a 29.328454
_cell_length_b 11.976392
_cell_length_c 16.974319
_cell_angle_alpha 90.000000
_cell_angle_beta 90.000000
_cell_angle_gamma 90.000000
_cell_volume 5962.213624
_symmetry_space_group_name_H-M "F M M 2"
_symmetry_group_IT_number 42
_symmetry_cell_setting 'orthorhombic'
loop_
_space_group_symop_operation_xyz
x,y,z
-x,-y,z
-x,y,z
x,-y,z
x,1/2+y,1/2+z
-x,1/2-y,1/2+z
-x,1/2+y,1/2+z
x,1/2-y,1/2+z
1/2+x,y,1/2+z
1/2-x,-y,1/2+z
1/2-x,y,1/2+z
1/2+x,-y,1/2+z
1/2+x,1/2+y,z
1/2-x,1/2-y,z
1/2-x,1/2+y,z
1/2+x,1/2-y,z
loop_
_atom_site_type_symbol
_atom_site_label
_atom_site_fract_x
_atom_site_fract_y
_atom_site_fract_z
Si Si1 0.450654 0.130619 0.856180
Si Si2 0.630100 0.867777 0.575304
Si Si3 0.225306 0.870983 0.470444
Si Si4 0.370202 0.376534 0.758269
Si Si5 0.296228 0.203799 0.145206
Si Si6 0.362436 0.761896 0.914443
Si Si7 0.446152 0.771557 0.684710
O O1 0.500000 0.180855 0.874859
O O2 0.411744 0.183391 0.908190
O O3 0.443329 0.150718 0.762806
O O4 0.451348 0.000000 0.870190
O O5 0.670855 0.807509 0.622883
O O6 0.637185 0.824408 0.486576
O O7 0.582397 0.826056 0.613422
O O8 0.633078 0.000000 0.580142
O O9 0.250000 0.750000 0.448924
O O10 0.218360 0.857897 0.564587
O O11 0.176190 0.853746 0.430214
O O12 0.242541 0.000000 0.454606
O O13 0.378448 0.500000 0.788529
O O14 0.327810 0.371844 0.699028
O O15 0.356968 0.297951 0.830863
O O16 0.415522 0.333569 0.713067
O O17 0.250000 0.250000 0.183348
O O18 0.500000 0.751443 0.668779
#
# Coordination Sequence:
#
# PCOD9368877 Si02
#       7
#    16  16  16  16  16  16  16
#     4   9  17  32  54  75  98 132 172 216 264 314
#     4  10  20  34  53  78 107 140 180 225 276 334
#     4  10  21  37  58  82 110 148 191 235 283 334
#     4  10  20  35  55  79 109 145 182 223 276 335
#     4   9  20  36  56  79 104 139 183 232 279 329
#     4  10  21  34  51  79 114 144 174 217 273 336
#     4   9  19  35  54  77 102 134 182 230 273 324
#
# _framework density 18.784969
#
# number of rings (size 3 to 8) (size 9 to 14) (size 15 to 20)
#    0.000    2.429    0.000    1.714    0.000    8.571 
#    0.000    1.429    0.000    2.571    0.000    0.000 
#    0.000    0.000    0.000    0.000    0.000    0.000 
#
# Total GULP energy -155944.477792 kJ/mol
# GULP energy per Si atom -5569.445635 kJ/mol
# Density = 1.874221 g / cm^3
# Si number density = 18.784969 Si / 1000 Ang^3
#
#
#
# Elastic Constant Matrix: (Units=GPa)
#
#
# Indices 1 2 3 4 5 6 
#
# 1 105.9194 26.3026 18.7008 0.0000 0.0000 0.0000
# 2 26.3026 92.7471 10.9425 0.0000 0.0000 0.0000
# 3 18.7008 10.9425 24.9705 0.0000 0.0000 0.0000
# 4 0.0000 0.0000 0.0000 6.9143 0.0000 0.0000
# 5 0.0000 0.0000 0.0000 0.0000 27.8055 0.0000
# 6 0.0000 0.0000 0.0000 0.0000 0.0000 11.3749
#
#
#
# Elastic Compliance Matrix: (Units=1/GPa)
#
#
# Indices 1 2 3 4 5 6 
#
# 1 0.011340 -0.002335 -0.007469 0.000000 0.000000 0.000000
# 2 -0.002335 0.011851 -0.003445 0.000000 0.000000 0.000000
# 3 -0.007469 -0.003445 0.047151 0.000000 0.000000 0.000000
# 4 0.000000 0.000000 0.000000 0.144629 0.000000 0.000000
# 5 0.000000 0.000000 0.000000 0.000000 0.035964 0.000000
# 6 0.000000 0.000000 0.000000 0.000000 0.000000 0.087913
#
#
# Mechanical properties :
#
#
# Convention : Reuss Voigt Hill
#
# Bulk Modulus (GPa) = 22.80840 37.28097 30.04469
# Shear Modulus (GPa) = 13.15935 20.39834 16.77884
#
# Velocity S-wave (km/s) = 2.64962 3.29885 2.99190
# Velocity P-wave (km/s) = 4.63991 5.86508 5.28810
#
# Compressibility (1/GPa) = 0.04384350
#
# Stress axis : x y z
#
# Youngs Moduli (GPa) = 88.18614 84.38455 21.20863
#
# Poissons Ratio (x) = 0.19701 0.15841
# Poissons Ratio (y) = 0.20588 0.07306
# Poissons Ratio (z) = 0.65869 0.29068
#
# Static dielectric constant tensor:
#      x y z
#    x 1.688000 0.000000 0.000000 
#    y 0.000000 1.665300 0.000000 
#    z 0.000000 0.000000 1.638040 
# 
# From -- ./inp_files/13228.got.cif
#   From: 2010.05.17/outbox.cif.g08.bks.cpg/sg42_7_cif.got.tgz:13228.got - 2010.06.03 19:03:34.
