data_PCOD9368311
_publ_section_title
;
Structure prediction by ZEFSAII (Michael W. Deem and Ramdas Pophale) SiO2 
 PCOD9368311
Probable space group: F M M 2
;
_chemical_formula_sum "Si O2"
_cell_formula_units_Z 112
_cell_length_a 19.875086
_cell_length_b 14.509943
_cell_length_c 18.813727
_cell_angle_alpha 90.000000
_cell_angle_beta 90.000000
_cell_angle_gamma 90.000000
_cell_volume 5425.622341
_symmetry_space_group_name_H-M "F M M 2"
_symmetry_group_IT_number 42
_symmetry_cell_setting 'orthorhombic'
loop_
_space_group_symop_operation_xyz
x,y,z
-x,-y,z
-x,y,z
x,-y,z
x,1/2+y,1/2+z
-x,1/2-y,1/2+z
-x,1/2+y,1/2+z
x,1/2-y,1/2+z
1/2+x,y,1/2+z
1/2-x,-y,1/2+z
1/2-x,y,1/2+z
1/2+x,-y,1/2+z
1/2+x,1/2+y,z
1/2-x,1/2-y,z
1/2-x,1/2+y,z
1/2+x,1/2-y,z
loop_
_atom_site_type_symbol
_atom_site_label
_atom_site_fract_x
_atom_site_fract_y
_atom_site_fract_z
Si Si1 0.775081 0.395013 0.223090
Si Si2 0.273755 0.641778 0.562320
Si Si3 0.575131 0.652005 0.101733
Si Si4 0.075980 0.244868 0.390564
Si Si5 0.926605 0.645056 0.032567
Si Si6 0.144707 0.208368 0.246424
Si Si7 0.157606 0.098169 0.966017
O O1 0.792748 0.500000 0.243756
O O2 0.754670 0.395627 0.139705
O O3 0.830866 0.313773 0.229971
O O4 0.710432 0.353124 0.263341
O O5 0.250000 0.750000 0.565786
O O6 0.352209 0.614569 0.555029
O O7 0.233550 0.607934 0.493525
O O8 0.500000 0.614409 0.108634
O O9 0.570433 0.754945 0.069682
O O10 0.610080 0.664119 0.177436
O O11 0.617014 0.601527 0.040718
O O12 0.076961 0.163438 0.448334
O O13 0.095223 0.212596 0.312720
O O14 0.129909 0.319704 0.417999
O O15 0.000000 0.284284 0.393091
O O16 0.000000 0.601454 0.048855
O O17 0.146857 0.000000 0.930355
#
# Coordination Sequence:
#
# PCOD9368311 Si02
#       7
#    16  16  16  16  16  16  16
#     4  11  22  37  59  90 123 156 205 272 325 364
#     4  12  17  35  62  92 120 159 206 265 319 373
#     4  10  18  32  56  84 115 158 206 247 304 373
#     4  10  22  38  58  86 123 166 204 248 314 388
#     4   9  18  34  58  85 113 152 204 251 296 363
#     4  11  21  38  59  87 122 166 208 256 312 382
#     4  11  22  36  60  94 126 157 204 270 327 374
#
# _framework density 20.642793000000001
#
# number of rings (size 3 to 8) (size 9 to 14) (size 15 to 20)
#    0.000    1.429    7.143    2.143    0.000    4.000 
#    0.000    0.000    0.000    6.857    0.000    4.000 
#    0.000    0.000    0.000    0.000    0.000    0.000 
#
# Total GULP energy -156059.794762 kJ/mol
# GULP energy per Si atom -5573.564099 kJ/mol
# Density = 2.059581 g / cm^3
# Si number density = 20.642793 Si / 1000 Ang^3
#
#
#
# Elastic Constant Matrix: (Units=GPa)
#
#
# Indices 1 2 3 4 5 6 
#
# 1 121.2331 2.7787 6.6817 0.0000 0.0000 0.0000
# 2 2.7787 72.1544 -10.0790 0.0000 0.0000 0.0000
# 3 6.6817 -10.0790 68.5392 0.0000 0.0000 0.0000
# 4 0.0000 0.0000 0.0000 3.8434 0.0000 0.0000
# 5 0.0000 0.0000 0.0000 0.0000 26.2363 0.0000
# 6 0.0000 0.0000 0.0000 0.0000 0.0000 -27.8560
#
#
#
# Elastic Compliance Matrix: (Units=1/GPa)
#
#
# Indices 1 2 3 4 5 6 
#
# 1 0.008307 -0.000442 -0.000875 0.000000 0.000000 0.000000
# 2 -0.000442 0.014173 0.002127 0.000000 0.000000 0.000000
# 3 -0.000875 0.002127 0.014988 0.000000 0.000000 0.000000
# 4 0.000000 0.000000 0.000000 0.260185 0.000000 0.000000
# 5 0.000000 0.000000 0.000000 0.000000 0.038115 0.000000
# 6 0.000000 0.000000 0.000000 0.000000 0.000000 -0.035899
#
#
# Mechanical properties :
#
#
# Convention : Reuss Voigt Hill
#
# Bulk Modulus (GPa) = 25.58240 28.96553 27.27397
# Shear Modulus (GPa) = 16.06280 17.94778 17.00529
#
# Velocity S-wave (km/s) = 2.79253 2.95183 2.87328
# Velocity P-wave (km/s) = 4.77676 5.06755 4.92430
#
# Compressibility (1/GPa) = 0.03908937
#
# Stress axis : x y z
#
# Youngs Moduli (GPa) = 120.38158 70.55495 66.71871
#
# Poissons Ratio (x) = 0.03119 0.05837
# Poissons Ratio (y) = 0.05322 -0.14193
# Poissons Ratio (z) = 0.10531 -0.15009
#
# Static dielectric constant tensor:
#      x y z
#    x 1.810770 0.000000 0.000000 
#    y 0.000000 1.796720 0.000000 
#    z 0.000000 0.000000 1.702220 
# 
# From -- ./inp_files/26578.got.cif
#   From: 2010.05.17/outbox.cif.g08.bks.cpg/sg42_14_cif.got.tgz:26578.got - 2010.06.03 19:03:34.
