data_PCOD9368279
_publ_section_title
;
Structure prediction by ZEFSAII (Michael W. Deem and Ramdas Pophale) SiO2 
 PCOD9368279
Probable space group: F M M 2
;
_chemical_formula_sum "Si O2"
_cell_formula_units_Z 96
_cell_length_a 20.777081
_cell_length_b 11.195328
_cell_length_c 19.225173
_cell_angle_alpha 90.000000
_cell_angle_beta 90.000000
_cell_angle_gamma 90.000000
_cell_volume 4471.895141
_symmetry_space_group_name_H-M "F M M 2"
_symmetry_group_IT_number 42
_symmetry_cell_setting 'orthorhombic'
loop_
_space_group_symop_operation_xyz
x,y,z
-x,-y,z
-x,y,z
x,-y,z
x,1/2+y,1/2+z
-x,1/2-y,1/2+z
-x,1/2+y,1/2+z
x,1/2-y,1/2+z
1/2+x,y,1/2+z
1/2-x,-y,1/2+z
1/2-x,y,1/2+z
1/2+x,-y,1/2+z
1/2+x,1/2+y,z
1/2-x,1/2-y,z
1/2-x,1/2+y,z
1/2+x,1/2-y,z
loop_
_atom_site_type_symbol
_atom_site_label
_atom_site_fract_x
_atom_site_fract_y
_atom_site_fract_z
Si Si1 0.290343 0.131794 0.386500
Si Si2 0.425420 0.632854 0.674000
Si Si3 0.423864 0.868482 0.746538
Si Si4 0.906335 0.631681 0.011373
Si Si5 0.070717 0.278540 0.379047
Si Si6 0.756560 0.873646 0.541484
O O1 0.250000 0.250000 0.363925
O O2 0.365337 0.144697 0.367279
O O3 0.285627 0.131977 0.471153
O O4 0.265831 0.000000 0.364247
O O5 0.500000 0.627201 0.697114
O O6 0.396841 0.500000 0.687357
O O7 0.395899 0.751037 0.708515
O O8 0.425655 0.650917 0.591047
O O9 0.500000 0.873423 0.727143
O O10 0.421986 0.835022 0.827851
O O11 0.396418 0.000000 0.732287
O O12 0.929182 0.500000 0.989999
O O13 0.829220 0.626043 0.013403
O O14 0.927780 0.730530 0.957512
O O15 0.000000 0.332540 0.364806
O O16 0.750000 0.750000 0.582309
O O17 0.744195 0.000000 0.577740
#
# Coordination Sequence:
#
# PCOD9368279 Si02
#       6
#    16  16  16  16  16  16
#     4  10  20  36  56  81 115 158 197 232 286 354
#     4   9  18  33  53  77 110 152 191 233 292 356
#     4   9  19  35  54  78 113 158 199 235 285 350
#     4  10  18  31  54  85 114 143 190 246 292 340
#     4  11  21  33  55  90 125 151 188 246 299 345
#     4   9  16  30  51  75 104 142 184 227 276 339
#
# _framework density 21.467410000000001
#
# number of rings (size 3 to 8) (size 9 to 14) (size 15 to 20)
#    0.000    2.333    3.333    1.000    0.000    3.333 
#    0.000    3.333    0.000    3.000    0.000    2.333 
#    0.000    0.000    0.000    0.000    0.000    0.000 
#
# Total GULP energy -133638.545832 kJ/mol
# GULP energy per Si atom -5568.272743 kJ/mol
# Density = 2.141855 g / cm^3
# Si number density = 21.467410 Si / 1000 Ang^3
#
#
#
# Elastic Constant Matrix: (Units=GPa)
#
#
# Indices 1 2 3 4 5 6 
#
# 1 76.7123 31.9453 1.7548 0.0000 0.0000 0.0000
# 2 31.9453 210.1219 32.6266 0.0000 0.0000 0.0000
# 3 1.7548 32.6266 48.3050 0.0000 0.0000 0.0000
# 4 0.0000 0.0000 0.0000 6.9111 0.0000 0.0000
# 5 0.0000 0.0000 0.0000 0.0000 4.9529 0.0000
# 6 0.0000 0.0000 0.0000 0.0000 0.0000 7.8856
#
#
#
# Elastic Compliance Matrix: (Units=1/GPa)
#
#
# Indices 1 2 3 4 5 6 
#
# 1 0.013963 -0.002284 0.001035 0.000000 0.000000 0.000000
# 2 -0.002284 0.005690 -0.003760 0.000000 0.000000 0.000000
# 3 0.001035 -0.003760 0.023204 0.000000 0.000000 0.000000
# 4 0.000000 0.000000 0.000000 0.144696 0.000000 0.000000
# 5 0.000000 0.000000 0.000000 0.000000 0.201904 0.000000
# 6 0.000000 0.000000 0.000000 0.000000 0.000000 0.126814
#
#
# Mechanical properties :
#
#
# Convention : Reuss Voigt Hill
#
# Bulk Modulus (GPa) = 30.45097 51.97694 41.21396
# Shear Modulus (GPa) = 9.30692 21.87073 15.58882
#
# Velocity S-wave (km/s) = 2.08441 3.19531 2.69766
# Velocity P-wave (km/s) = 4.47310 6.15450 5.37989
#
# Compressibility (1/GPa) = 0.03283967
#
# Stress axis : x y z
#
# Youngs Moduli (GPa) = 71.61792 175.74054 43.09593
#
# Poissons Ratio (x) = 0.40131 -0.04461
# Poissons Ratio (y) = 0.16354 0.16206
# Poissons Ratio (z) = -0.07413 0.66085
#
# Static dielectric constant tensor:
#      x y z
#    x 1.803560 0.000000 0.000000 
#    y 0.000000 1.876210 0.000000 
#    z 0.000000 0.000000 1.742970 
# 
# From -- ./inp_files/26425.got.cif
#   From: 2010.05.17/outbox.cif.g08.bks.cpg/sg42_14_cif.got.tgz:26425.got - 2010.06.03 19:03:34.
