data_PCOD9368152
_publ_section_title
;
Structure prediction by ZEFSAII (Michael W. Deem and Ramdas Pophale) SiO2 
 PCOD9368152
Probable space group: F M M 2
;
_chemical_formula_sum "Si O2"
_cell_formula_units_Z 128
_cell_length_a 15.774784
_cell_length_b 24.189153
_cell_length_c 19.848216
_cell_angle_alpha 90.000000
_cell_angle_beta 90.000000
_cell_angle_gamma 90.000000
_cell_volume 7573.655738
_symmetry_space_group_name_H-M "F M M 2"
_symmetry_group_IT_number 42
_symmetry_cell_setting 'orthorhombic'
loop_
_space_group_symop_operation_xyz
x,y,z
-x,-y,z
-x,y,z
x,-y,z
x,1/2+y,1/2+z
-x,1/2-y,1/2+z
-x,1/2+y,1/2+z
x,1/2-y,1/2+z
1/2+x,y,1/2+z
1/2-x,-y,1/2+z
1/2-x,y,1/2+z
1/2+x,-y,1/2+z
1/2+x,1/2+y,z
1/2-x,1/2-y,z
1/2-x,1/2+y,z
1/2+x,1/2-y,z
loop_
_atom_site_type_symbol
_atom_site_label
_atom_site_fract_x
_atom_site_fract_y
_atom_site_fract_z
Si Si1 0.102724 0.833186 0.193380
Si Si2 0.103842 0.563622 0.058732
Si Si3 0.599447 0.156628 0.157067
Si Si4 0.149849 0.762548 0.071747
Si Si5 0.850653 0.245926 0.422642
Si Si6 0.103596 0.562928 0.777197
Si Si7 0.398432 0.725974 0.776906
Si Si8 0.101923 0.382896 0.917734
O O1 0.133473 0.814417 0.120096
O O2 0.130329 0.892363 0.221441
O O3 0.130864 0.784656 0.245345
O O4 0.000000 0.832543 0.192538
O O5 0.128948 0.500000 0.066034
O O6 0.135172 0.603735 0.118273
O O7 0.000000 0.565245 0.058712
O O8 0.131584 0.588623 0.986827
O O9 0.500000 0.145060 0.167760
O O10 0.607044 0.209478 0.107449
O O11 0.636362 0.177799 0.228120
O O12 0.250000 0.750000 0.070638
O O13 0.118365 0.767757 0.995150
O O14 0.750000 0.250000 0.423293
O O15 0.880088 0.276843 0.355514
O O16 0.875543 0.181593 0.416740
O O17 0.131358 0.500000 0.766250
O O18 0.131040 0.585740 0.850420
O O19 0.000000 0.562817 0.777552
O O20 0.500000 0.725964 0.769219
O O21 0.000000 0.386293 0.917569
#
# Coordination Sequence:
#
# PCOD9368152 Si02
#       8
#    16  16  16  16  16  16  16  16
#     4   9  17  30  47  69  93 121 151 184 229 278
#     4   9  16  26  45  72  95 119 152 187 231 282
#     4   9  17  30  47  68  94 121 149 186 229 276
#     4  10  20  31  44  65  92 124 158 190 229 270
#     4  11  21  30  43  68  92 126 158 189 229 273
#     4   9  16  27  45  70  96 120 151 190 231 278
#     4   9  17  29  45  65  92 123 153 184 227 275
#     4  10  17  28  45  68  99 126 150 187 232 282
#
# _framework density 16.900689
#
# number of rings (size 3 to 8) (size 9 to 14) (size 15 to 20)
#    0.000    2.500    2.500    1.875    0.000    5.000 
#    0.000    0.000    0.000    0.750    0.000    0.875 
#    0.000    4.000    0.000    0.000    0.000    0.500 
#
# Total GULP energy -178292.894005 kJ/mol
# GULP energy per Si atom -5571.652938 kJ/mol
# Density = 1.686222 g / cm^3
# Si number density = 16.900689 Si / 1000 Ang^3
#
#
#
# Elastic Constant Matrix: (Units=GPa)
#
#
# Indices 1 2 3 4 5 6 
#
# 1 3.9103 4.8292 2.4365 0.0000 0.0000 0.0000
# 2 4.8292 116.0466 89.7514 0.0000 0.0000 0.0000
# 3 2.4365 89.7514 164.9211 0.0000 0.0000 0.0000
# 4 0.0000 0.0000 0.0000 22.9097 0.0000 0.0000
# 5 0.0000 0.0000 0.0000 0.0000 14.0372 0.0000
# 6 0.0000 0.0000 0.0000 0.0000 0.0000 2.4688
#
#
#
# Elastic Compliance Matrix: (Units=1/GPa)
#
#
# Indices 1 2 3 4 5 6 
#
# 1 0.270878 -0.014121 0.003683 0.000000 0.000000 0.000000
# 2 -0.014121 0.015616 -0.008290 0.000000 0.000000 0.000000
# 3 0.003683 -0.008290 0.010521 0.000000 0.000000 0.000000
# 4 0.000000 0.000000 0.000000 0.043650 0.000000 0.000000
# 5 0.000000 0.000000 0.000000 0.000000 0.071239 0.000000
# 6 0.000000 0.000000 0.000000 0.000000 0.000000 0.405063
#
#
# Mechanical properties :
#
#
# Convention : Reuss Voigt Hill
#
# Bulk Modulus (GPa) = 3.85268 53.21249 28.53259
# Shear Modulus (GPa) = 5.31382 20.40718 12.86050
#
# Velocity S-wave (km/s) = 1.77510 3.47865 2.76152
# Velocity P-wave (km/s) = 2.54673 6.90568 5.20453
#
# Compressibility (1/GPa) = 0.25955935
#
# Stress axis : x y z
#
# Youngs Moduli (GPa) = 3.69169 64.03544 95.05210
#
# Poissons Ratio (x) = 0.90423 -0.35005
# Poissons Ratio (y) = 0.05213 0.78798
# Poissons Ratio (z) = -0.01360 0.53085
#
# Static dielectric constant tensor:
#      x y z
#    x 1.570910 0.000000 0.000000 
#    y 0.000000 1.548400 0.000000 
#    z 0.000000 0.000000 1.610760 
# 
# From -- ./inp_files/21221.got.cif
#   From: 2010.05.17/outbox.cif.g08.bks.cpg/sg42_11_cif.got.tgz:21221.got - 2010.06.03 19:03:34.
