data_PCOD9368031
_publ_section_title
;
Structure prediction by ZEFSAII (Michael W. Deem and Ramdas Pophale) SiO2 
 PCOD9368031
Probable space group: A B A 2
;
_chemical_formula_sum "Si O2"
_cell_formula_units_Z 28
_cell_length_a 12.018725
_cell_length_b 7.668283
_cell_length_c 12.048820
_cell_angle_alpha 90.000000
_cell_angle_beta 90.000000
_cell_angle_gamma 90.000000
_cell_volume 1110.455212
_symmetry_space_group_name_H-M "A B A 2"
_symmetry_group_IT_number 41
_symmetry_cell_setting 'orthorhombic'
loop_
_space_group_symop_operation_xyz
x,y,z
-x,-y,z
1/2-x,y,1/2+z
1/2+x,-y,1/2+z
x,1/2+y,1/2+z
-x,1/2-y,1/2+z
1/2-x,1/2+y,z
1/2+x,1/2-y,z
loop_
_atom_site_type_symbol
_atom_site_label
_atom_site_fract_x
_atom_site_fract_y
_atom_site_fract_z
Si Si1 0.000000 0.000000 0.189021
Si Si2 0.231479 0.126197 0.243763
Si Si3 0.619246 0.080074 0.353988
Si Si4 0.577271 0.829756 0.060449
O O1 0.119398 0.009277 0.247125
O O2 0.994415 0.179218 0.121304
O O3 0.179517 0.318328 0.254892
O O4 0.314912 0.128113 0.137724
O O5 0.301385 0.087127 0.356409
O O6 0.610283 0.219082 0.451425
O O7 0.500000 0.000000 0.327949
O O8 0.500000 0.000000 0.040407
#
# Coordination Sequence:
#
# PCOD9368031 Si02
#       4
#     4   8   8   8
#     4  12  26  52  80 114 164 214 270 336 416 488
#     4  12  27  52  82 118 166 216 275 343 414 498
#     4  12  29  50  84 123 162 220 281 341 418 500
#     4  12  29  54  84 118 168 217 274 346 419 493
#
# _framework density 25.214884999999999
#
# number of rings (size 3 to 8) (size 9 to 14) (size 15 to 20)
#    0.000    0.000    4.286    4.286    6.000    0.000 
#    0.000    0.000    0.000    0.000    0.000    0.000 
#    0.000    0.000    0.000    0.000    0.000    0.000 
#
# Total GULP energy -78137.871962 kJ/mol
# GULP energy per Si atom -5581.276569 kJ/mol
# Density = 2.515750 g / cm^3
# Si number density = 25.214885 Si / 1000 Ang^3
#
#
#
# Elastic Constant Matrix: (Units=GPa)
#
#
# Indices 1 2 3 4 5 6 
#
# 1 241.1631 83.5804 91.4425 0.0000 0.0000 0.0000
# 2 83.5804 138.5386 47.8643 0.0000 0.0000 0.0000
# 3 91.4425 47.8643 81.2124 0.0000 0.0000 0.0000
# 4 0.0000 0.0000 0.0000 23.2800 0.0000 0.0000
# 5 0.0000 0.0000 0.0000 0.0000 17.8768 0.0000
# 6 0.0000 0.0000 0.0000 0.0000 0.0000 74.5418
#
#
#
# Elastic Compliance Matrix: (Units=1/GPa)
#
#
# Indices 1 2 3 4 5 6 
#
# 1 0.007680 -0.002066 -0.007429 0.000000 0.000000 0.000000
# 2 -0.002066 0.009620 -0.003343 0.000000 0.000000 0.000000
# 3 -0.007429 -0.003343 0.022649 0.000000 0.000000 0.000000
# 4 0.000000 0.000000 0.000000 0.042955 0.000000 0.000000
# 5 0.000000 0.000000 0.000000 0.000000 0.055938 0.000000
# 6 0.000000 0.000000 0.000000 0.000000 0.000000 0.013415
#
#
# Mechanical properties :
#
#
# Convention : Reuss Voigt Hill
#
# Bulk Modulus (GPa) = 70.07180 100.74315 85.40748
# Shear Modulus (GPa) = 27.36859 39.00819 33.18839
#
# Velocity S-wave (km/s) = 3.29814 3.93750 3.63191
# Velocity P-wave (km/s) = 6.50798 7.79182 7.17866
#
# Compressibility (1/GPa) = 0.01427108
#
# Stress axis : x y z
#
# Youngs Moduli (GPa) = 130.21392 103.95175 44.15274
#
# Poissons Ratio (x) = 0.21481 0.32802
# Poissons Ratio (y) = 0.26908 0.14760
# Poissons Ratio (z) = 0.96738 0.34751
#
# Static dielectric constant tensor:
#      x y z
#    x 2.184590 0.000000 0.000000 
#    y 0.000000 2.423810 0.000000 
#    z 0.000000 0.000000 2.084400 
# 
# From -- ./inp_files/7647.got.cif
#   From: 2010.05.17/outbox.cif.g08.bks.cpg/sg41_4_cif.got.tgz:7647.got - 2010.06.03 18:54:24.
