data_PCOD9368914
_publ_section_title
;
Structure prediction by ZEFSAII (Michael W. Deem and Ramdas Pophale) SiO2 
 PCOD9368914
Probable space group: F M M 2
;
_chemical_formula_sum "Si O2"
_cell_formula_units_Z 112
_cell_length_a 17.419989
_cell_length_b 23.955459
_cell_length_c 13.703819
_cell_angle_alpha 90.000000
_cell_angle_beta 90.000000
_cell_angle_gamma 90.000000
_cell_volume 5718.656185
_symmetry_space_group_name_H-M "F M M 2"
_symmetry_group_IT_number 42
_symmetry_cell_setting 'orthorhombic'
loop_
_space_group_symop_operation_xyz
x,y,z
-x,-y,z
-x,y,z
x,-y,z
x,1/2+y,1/2+z
-x,1/2-y,1/2+z
-x,1/2+y,1/2+z
x,1/2-y,1/2+z
1/2+x,y,1/2+z
1/2-x,-y,1/2+z
1/2-x,y,1/2+z
1/2+x,-y,1/2+z
1/2+x,1/2+y,z
1/2-x,1/2-y,z
1/2-x,1/2+y,z
1/2+x,1/2-y,z
loop_
_atom_site_type_symbol
_atom_site_label
_atom_site_fract_x
_atom_site_fract_y
_atom_site_fract_z
Si Si1 0.171536 0.167814 0.463180
Si Si2 0.412347 0.762397 0.355391
Si Si3 0.591936 0.837871 0.167295
Si Si4 0.349087 0.639855 0.972688
Si Si5 0.911244 0.563160 0.632301
Si Si6 0.654677 0.436707 0.336902
Si Si7 0.332242 0.934910 0.286812
O O1 0.145047 0.213622 0.385087
O O2 0.130953 0.179090 0.566042
O O3 0.263139 0.164192 0.472334
O O4 0.145736 0.107933 0.421418
O O5 0.500000 0.741939 0.352770
O O6 0.394021 0.792431 0.252842
O O7 0.403888 0.810572 0.437368
O O8 0.500000 0.843741 0.157041
O O9 0.629737 0.895468 0.205751
O O10 0.356287 0.591321 0.890923
O O11 0.367432 0.610819 0.074246
O O12 0.881552 0.500000 0.611827
O O13 0.903293 0.571374 0.747874
O O14 0.000000 0.565107 0.602982
O O15 0.649165 0.500000 0.373757
O O16 0.739613 0.430220 0.289012
O O17 0.352528 0.000000 0.277660
#
# Coordination Sequence:
#
# PCOD9368914 Si02
#       7
#    16  16  16  16  16  16  16
#     4  11  22  38  61  84 112 151 190 233 286 340
#     4  10  22  40  58  79 111 146 186 238 289 339
#     4  10  22  38  57  85 117 148 189 238 285 340
#     4  10  20  36  58  87 113 145 190 236 282 334
#     4  10  20  34  55  85 120 155 190 231 280 333
#     4   9  20  37  56  82 115 152 194 235 276 330
#     4   9  18  35  58  82 113 150 187 233 284 333
#
# _framework density 19.585021000000001
#
# number of rings (size 3 to 8) (size 9 to 14) (size 15 to 20)
#    0.000    2.143    0.000    2.571    0.000    4.286 
#    0.000    5.714    0.000    0.000    0.000    0.000 
#    0.000    0.000    0.000    0.000    0.000    0.000 
#
# Total GULP energy -156346.318230 kJ/mol
# GULP energy per Si atom -5583.797080 kJ/mol
# Density = 1.954044 g / cm^3
# Si number density = 19.585021 Si / 1000 Ang^3
#
#
#
# Elastic Constant Matrix: (Units=GPa)
#
#
# Indices 1 2 3 4 5 6 
#
# 1 56.4977 40.2302 24.4001 0.0000 0.0000 0.0000
# 2 40.2302 61.3867 23.7959 0.0000 0.0000 0.0000
# 3 24.4001 23.7959 56.9846 0.0000 0.0000 0.0000
# 4 0.0000 0.0000 0.0000 24.7627 0.0000 0.0000
# 5 0.0000 0.0000 0.0000 0.0000 21.9031 0.0000
# 6 0.0000 0.0000 0.0000 0.0000 0.0000 26.5591
#
#
#
# Elastic Compliance Matrix: (Units=1/GPa)
#
#
# Indices 1 2 3 4 5 6 
#
# 1 0.035076 -0.020481 -0.006467 0.000000 0.000000 0.000000
# 2 -0.020481 0.031395 -0.004340 0.000000 0.000000 0.000000
# 3 -0.006467 -0.004340 0.022130 0.000000 0.000000 0.000000
# 4 0.000000 0.000000 0.000000 0.040383 0.000000 0.000000
# 5 0.000000 0.000000 0.000000 0.000000 0.045656 0.000000
# 6 0.000000 0.000000 0.000000 0.000000 0.000000 0.037652
#
#
# Mechanical properties :
#
#
# Convention : Reuss Voigt Hill
#
# Bulk Modulus (GPa) = 38.42403 39.08017 38.75210
# Shear Modulus (GPa) = 17.63398 20.40784 19.02091
#
# Velocity S-wave (km/s) = 3.00389 3.23152 3.11978
# Velocity P-wave (km/s) = 5.62964 5.82418 5.72774
#
# Compressibility (1/GPa) = 0.02602538
#
# Stress axis : x y z
#
# Youngs Moduli (GPa) = 28.50917 31.85231 45.18727
#
# Poissons Ratio (x) = 0.65236 0.29222
# Poissons Ratio (y) = 0.58389 0.19613
# Poissons Ratio (z) = 0.18436 0.13825
#
# Static dielectric constant tensor:
#      x y z
#    x 1.687940 0.000000 0.000000 
#    y 0.000000 1.683020 0.000000 
#    z 0.000000 0.000000 1.665510 
# 
# From -- ./inp_files/14269.got.cif
#   From: 2010.05.17/outbox.cif.g08.bks.cpg/sg42_8_cif.got.tgz:14269.got - 2010.06.03 19:03:34.
