data_PCOD9368889
_publ_section_title
;
Structure prediction by ZEFSAII (Michael W. Deem and Ramdas Pophale) SiO2 
 PCOD9368889
Probable space group: F M M 2
;
_chemical_formula_sum "Si O2"
_cell_formula_units_Z 80
_cell_length_a 27.198219
_cell_length_b 8.829600
_cell_length_c 18.577497
_cell_angle_alpha 90.000000
_cell_angle_beta 90.000000
_cell_angle_gamma 90.000000
_cell_volume 4461.374656
_symmetry_space_group_name_H-M "F M M 2"
_symmetry_group_IT_number 42
_symmetry_cell_setting 'orthorhombic'
loop_
_space_group_symop_operation_xyz
x,y,z
-x,-y,z
-x,y,z
x,-y,z
x,1/2+y,1/2+z
-x,1/2-y,1/2+z
-x,1/2+y,1/2+z
x,1/2-y,1/2+z
1/2+x,y,1/2+z
1/2-x,-y,1/2+z
1/2-x,y,1/2+z
1/2+x,-y,1/2+z
1/2+x,1/2+y,z
1/2-x,1/2-y,z
1/2-x,1/2+y,z
1/2+x,1/2-y,z
loop_
_atom_site_type_symbol
_atom_site_label
_atom_site_fract_x
_atom_site_fract_y
_atom_site_fract_z
Si Si1 0.701263 0.680515 0.755370
Si Si2 0.500000 0.179978 0.007407
Si Si3 0.908676 0.318987 0.592193
Si Si4 0.592930 0.318241 0.751757
Si Si5 0.500000 0.182496 0.349577
Si Si6 0.799199 0.181304 0.094089
O O1 0.707048 0.500000 0.751172
O O2 0.750000 0.750000 0.791038
O O3 0.646871 0.714931 0.784988
O O4 0.699512 0.749376 0.674705
O O5 0.451686 0.243118 0.047109
O O6 0.500000 0.000000 0.010985
O O7 0.500000 0.237655 0.925918
O O8 0.914212 0.500000 0.590561
O O9 0.911832 0.262601 0.674745
O O10 0.853396 0.282744 0.563864
O O11 0.590993 0.500000 0.739065
O O12 0.548333 0.277342 0.803688
O O13 0.500000 0.000000 0.359794
O O14 0.750000 0.250000 0.058887
O O15 0.794394 0.000000 0.098388
#
# Coordination Sequence:
#
# PCOD9368889 Si02
#       6
#    16   8  16  16   8  16
#     4   9  15  24  41  69 102 132 162 197 241 291
#     4  12  25  38  53  73  99 133 173 216 261 306
#     4  10  20  34  54  79 106 136 170 209 252 300
#     4   9  18  32  53  79 104 132 167 208 252 299
#     4  10  21  38  55  71  97 131 167 210 261 308
#     4   9  16  26  44  72 103 133 163 199 245 293
#
# _framework density 17.931692999999999
#
# number of rings (size 3 to 8) (size 9 to 14) (size 15 to 20)
#    0.000    2.400    0.000    4.500    0.000    4.800 
#    0.000    0.000    0.000    1.200    0.000    2.800 
#    0.000    0.000    0.000    0.000    0.000    0.000 
#
# Total GULP energy -111461.612029 kJ/mol
# GULP energy per Si atom -5573.080601 kJ/mol
# Density = 1.789088 g / cm^3
# Si number density = 17.931693 Si / 1000 Ang^3
#
#
#
# Elastic Constant Matrix: (Units=GPa)
#
#
# Indices 1 2 3 4 5 6 
#
# 1 234.4532 82.3665 69.5831 0.0000 0.0000 0.0000
# 2 82.3665 72.8103 35.3708 0.0000 0.0000 0.0000
# 3 69.5831 35.3708 53.4378 0.0000 0.0000 0.0000
# 4 0.0000 0.0000 0.0000 20.4236 0.0000 0.0000
# 5 0.0000 0.0000 0.0000 0.0000 -5.4567 0.0000
# 6 0.0000 0.0000 0.0000 0.0000 0.0000 34.5843
#
#
#
# Elastic Compliance Matrix: (Units=1/GPa)
#
#
# Indices 1 2 3 4 5 6 
#
# 1 0.008535 -0.006274 -0.006962 0.000000 0.000000 0.000000
# 2 -0.006274 0.024855 -0.008282 0.000000 0.000000 0.000000
# 3 -0.006962 -0.008282 0.033260 0.000000 0.000000 0.000000
# 4 0.000000 0.000000 0.000000 0.048963 0.000000 0.000000
# 5 0.000000 0.000000 0.000000 0.000000 -0.183259 0.000000
# 6 0.000000 0.000000 0.000000 0.000000 0.000000 0.028915
#
#
# Mechanical properties :
#
#
# Convention : Reuss Voigt Hill
#
# Bulk Modulus (GPa) = 42.34540 81.70468 62.02504
# Shear Modulus (GPa) = 410.61088 21.46896 216.03992
#
# Velocity S-wave (km/s) = 15.14870 3.46390 10.98822
# Velocity P-wave (km/s) = 18.15609 7.85248 13.98759
#
# Compressibility (1/GPa) = 0.02361532
#
# Stress axis : x y z
#
# Youngs Moduli (GPa) = 117.15881 40.23321 30.06570
#
# Poissons Ratio (x) = 0.25241 0.20931
# Poissons Ratio (y) = 0.73503 0.24902
# Poissons Ratio (z) = 0.81561 0.33323
#
# Static dielectric constant tensor:
#      x y z
#    x 1.689260 0.000000 0.000000 
#    y 0.000000 1.599980 0.000000 
#    z 0.000000 0.000000 1.557300 
# 
# From -- ./inp_files/18237.got.cif
#   From: 2010.05.17/outbox.cif.g08.bks.cpg/sg42_10_cif.got.tgz:18237.got - 2010.06.03 19:03:34.
