data_PCOD9368135
_publ_section_title
;
Structure prediction by ZEFSAII (Michael W. Deem and Ramdas Pophale) SiO2 
 PCOD9368135
Probable space group: F M M 2
;
_chemical_formula_sum "Si O2"
_cell_formula_units_Z 96
_cell_length_a 24.335882
_cell_length_b 18.147777
_cell_length_c 8.693958
_cell_angle_alpha 90.000000
_cell_angle_beta 90.000000
_cell_angle_gamma 90.000000
_cell_volume 3839.618387
_symmetry_space_group_name_H-M "F M M 2"
_symmetry_group_IT_number 42
_symmetry_cell_setting 'orthorhombic'
loop_
_space_group_symop_operation_xyz
x,y,z
-x,-y,z
-x,y,z
x,-y,z
x,1/2+y,1/2+z
-x,1/2-y,1/2+z
-x,1/2+y,1/2+z
x,1/2-y,1/2+z
1/2+x,y,1/2+z
1/2-x,-y,1/2+z
1/2-x,y,1/2+z
1/2+x,-y,1/2+z
1/2+x,1/2+y,z
1/2-x,1/2-y,z
1/2-x,1/2+y,z
1/2+x,1/2-y,z
loop_
_atom_site_type_symbol
_atom_site_label
_atom_site_fract_x
_atom_site_fract_y
_atom_site_fract_z
Si Si1 0.231571 0.869922 0.329290
Si Si2 0.177627 0.608718 0.539042
Si Si3 0.436582 0.578011 0.382535
Si Si4 0.940559 0.885569 0.022515
Si Si5 0.819720 0.715448 0.113367
Si Si6 0.062150 0.714232 0.093864
O O1 0.191988 0.913295 0.213683
O O2 0.273080 0.916103 0.432456
O O3 0.195170 0.824618 0.452030
O O4 0.275295 0.819332 0.231263
O O5 0.118990 0.589351 0.466642
O O6 0.181402 0.698118 0.566702
O O7 0.500000 0.570618 0.428903
O O8 0.408816 0.500000 0.424794
O O9 0.437372 0.588963 0.200147
O O10 0.423657 0.654754 0.462892
O O11 0.940621 0.796762 0.028251
O O12 0.000000 0.910097 0.959036
O O13 0.880887 0.707707 0.187266
O O14 0.000000 0.700843 0.158596
#
# Coordination Sequence:
#
# PCOD9368135 Si02
#       6
#    16  16  16  16  16  16
#     4  10  18  27  41  65  96 132 173 216 261 308
#     4  10  17  27  43  65  97 133 170 215 264 313
#     4   9  17  31  51  75 105 143 185 221 258 319
#     4   9  18  30  46  73 105 133 165 214 272 320
#     4  10  17  27  43  65  97 133 170 215 264 313
#     4   9  18  30  46  73 105 133 165 214 272 320
#
# _framework density 25.002485
#
# number of rings (size 3 to 8) (size 9 to 14) (size 15 to 20)
#    0.000    2.500    0.000    5.000    0.000    4.000 
#    0.000    2.500    0.000    0.000    0.000   23.333 
#    0.000   25.333    0.000    0.000    0.000    0.000 
#
# Total GULP energy -133669.455541 kJ/mol
# GULP energy per Si atom -5569.560648 kJ/mol
# Density = 2.494558 g / cm^3
# Si number density = 25.002485 Si / 1000 Ang^3
#
#
#
# Elastic Constant Matrix: (Units=GPa)
#
#
# Indices 1 2 3 4 5 6 
#
# 1 238.9384 9.8584 20.5046 0.0000 0.0000 0.0000
# 2 9.8584 126.7252 19.6804 -0.0004 0.0000 0.0000
# 3 20.5046 19.6804 68.1380 -0.0008 0.0000 0.0001
# 4 0.0000 -0.0004 -0.0008 -72.6691 0.0000 0.0002
# 5 0.0000 0.0000 0.0000 0.0000 17.4478 0.0000
# 6 0.0000 0.0000 0.0001 0.0002 0.0000 -15.1499
#
#
#
# Elastic Compliance Matrix: (Units=1/GPa)
#
#
# Indices 1 2 3 4 5 6 
#
# 1 0.004298 -0.000140 -0.001253 0.000000 0.000000 0.000000
# 2 -0.000140 0.008266 -0.002345 0.000000 0.000000 0.000000
# 3 -0.001253 -0.002345 0.015731 0.000000 0.000000 0.000000
# 4 0.000000 0.000000 0.000000 -0.013761 0.000000 0.000000
# 5 0.000000 0.000000 0.000000 0.000000 0.057314 0.000000
# 6 0.000000 0.000000 0.000000 0.000000 0.000000 -0.066007
#
#
# Mechanical properties :
#
#
# Convention : Reuss Voigt Hill
#
# Bulk Modulus (GPa) = 48.03418 59.32096 53.67757
# Shear Modulus (GPa) = 246.82078 11.50963 129.16520
#
# Velocity S-wave (km/s) = 9.94650 2.14788 7.19535
# Velocity P-wave (km/s) = 12.29487 5.47071 9.51558
#
# Compressibility (1/GPa) = 0.02081851
#
# Stress axis : x y z
#
# Youngs Moduli (GPa) = 232.64003 120.97433 63.57013
#
# Poissons Ratio (x) = 0.01691 0.07966
# Poissons Ratio (y) = 0.03252 0.14910
# Poissons Ratio (z) = 0.29154 0.28374
#
# Static dielectric constant tensor:
#      x y z
#    x 2.112260 0.000000 0.000000 
#    y 0.000000 2.029700 0.000000 
#    z 0.000000 0.000000 2.033110 
# 
# From -- ./inp_files/4188.got.cif
#   From: 2010.05.17/outbox.cif.g08.bks.cpg/sg42_3_cif.got.tgz:4188.got - 2010.06.03 19:03:34.
