data_PCOD9368422
_publ_section_title
;
Structure prediction by ZEFSAII (Michael W. Deem and Ramdas Pophale) SiO2 
 PCOD9368422
Probable space group: F M M 2
;
_chemical_formula_sum "Si O2"
_cell_formula_units_Z 116
_cell_length_a 25.930418
_cell_length_b 7.627042
_cell_length_c 27.978177
_cell_angle_alpha 90.000000
_cell_angle_beta 90.000000
_cell_angle_gamma 90.000000
_cell_volume 5533.310854
_symmetry_space_group_name_H-M "F M M 2"
_symmetry_group_IT_number 42
_symmetry_cell_setting 'orthorhombic'
loop_
_space_group_symop_operation_xyz
x,y,z
-x,-y,z
-x,y,z
x,-y,z
x,1/2+y,1/2+z
-x,1/2-y,1/2+z
-x,1/2+y,1/2+z
x,1/2-y,1/2+z
1/2+x,y,1/2+z
1/2-x,-y,1/2+z
1/2-x,y,1/2+z
1/2+x,-y,1/2+z
1/2+x,1/2+y,z
1/2-x,1/2-y,z
1/2-x,1/2+y,z
1/2+x,1/2-y,z
loop_
_atom_site_type_symbol
_atom_site_label
_atom_site_fract_x
_atom_site_fract_y
_atom_site_fract_z
Si Si1 0.000000 0.500000 0.310385
Si Si2 0.556169 0.787903 0.076240
Si Si3 0.189891 0.709696 0.432269
Si Si4 0.692984 0.709408 0.137674
Si Si5 0.913781 0.702299 0.180828
Si Si6 0.338078 0.700335 0.034575
Si Si7 0.189248 0.709653 0.325449
Si Si8 0.080648 0.693102 0.785945
O O1 0.045655 0.345619 0.308184
O O2 0.500000 0.744673 0.057554
O O3 0.561116 0.733448 0.131610
O O4 0.601964 0.703464 0.047245
O O5 0.562817 0.000000 0.075622
O O6 0.180141 0.500000 0.431326
O O7 0.250000 0.750000 0.435856
O O8 0.168141 0.781436 0.482245
O O9 0.175875 0.775433 0.379416
O O10 0.684884 0.500000 0.136502
O O11 0.750000 0.750000 0.155477
O O12 0.647274 0.787662 0.169290
O O13 0.687668 0.777951 0.082666
O O14 0.929129 0.500000 0.187940
O O15 0.928152 0.798860 0.228879
O O16 0.318421 0.500000 0.031362
O O17 0.186208 0.500000 0.324876
O O18 0.250000 0.750000 0.314950
O O19 0.142375 0.777507 0.293147
O O20 0.067505 0.500000 0.804297
#
# Coordination Sequence:
#
# PCOD9368422 Si02
#       8
#     4  16  16  16  16  16  16  16
#     4  12  26  48  68  94 132 168 206 270 312 374
#     4   9  19  33  53  75 104 144 188 237 293 344
#     4   9  18  32  56  85 115 151 189 237 297 357
#     4  10  19  31  48  75 113 154 197 242 298 367
#     4  10  20  36  57  81 113 149 195 250 304 359
#     4   9  18  32  49  76 110 146 190 238 286 352
#     4  10  20  39  64  94 128 162 206 263 323 385
#     4  12  25  43  68  97 127 166 215 260 321 383
#
# _framework density 20.963940999999998
#
# number of rings (size 3 to 8) (size 9 to 14) (size 15 to 20)
#    0.000    2.069    1.379    1.862    0.966    3.034 
#    0.000    2.759    1.517    0.000    0.000    0.000 
#    0.000    0.000    0.000    0.000    0.000    0.000 
#
# Total GULP energy -161514.396744 kJ/mol
# GULP energy per Si atom -5569.461957 kJ/mol
# Density = 2.091623 g / cm^3
# Si number density = 20.963941 Si / 1000 Ang^3
#
#
#
# Elastic Constant Matrix: (Units=GPa)
#
#
# Indices 1 2 3 4 5 6 
#
# 1 69.3200 9.0776 -5.2150 -0.0002 0.0000 -0.0004
# 2 9.0776 98.9555 6.4773 -0.0004 -0.0001 -0.0005
# 3 -5.2150 6.4773 47.8861 0.0000 0.0000 0.0001
# 4 -0.0002 -0.0004 0.0000 11.5593 -0.0001 0.0002
# 5 0.0000 -0.0001 0.0000 -0.0001 -12.3000 0.0000
# 6 -0.0004 -0.0005 0.0001 0.0002 0.0000 29.3802
#
#
#
# Elastic Compliance Matrix: (Units=1/GPa)
#
#
# Indices 1 2 3 4 5 6 
#
# 1 0.014754 -0.001472 0.001806 0.000000 0.000000 0.000000
# 2 -0.001472 0.010343 -0.001559 0.000000 0.000000 0.000000
# 3 0.001806 -0.001559 0.021290 0.000000 0.000000 0.000000
# 4 0.000000 0.000000 0.000000 0.086510 -0.000001 0.000000
# 5 0.000000 0.000000 0.000000 -0.000001 -0.081301 0.000000
# 6 0.000000 0.000000 0.000000 0.000000 0.000000 0.034037
#
#
# Mechanical properties :
#
#
# Convention : Reuss Voigt Hill
#
# Bulk Modulus (GPa) = 22.75966 26.31573 24.53769
# Shear Modulus (GPa) = 48.67160 19.44935 34.06048
#
# Velocity S-wave (km/s) = 4.82361 3.04921 4.03515
# Velocity P-wave (km/s) = 6.47326 4.99770 5.78274
#
# Compressibility (1/GPa) = 0.04393739
#
# Stress axis : x y z
#
# Youngs Moduli (GPa) = 67.77628 96.68729 46.96933
#
# Poissons Ratio (x) = 0.14229 -0.08482
# Poissons Ratio (y) = 0.09975 0.07324
# Poissons Ratio (z) = -0.12240 0.15076
#
# Static dielectric constant tensor:
#      x y z
#    x 1.753820 0.000000 0.000000 
#    y 0.000000 1.716740 0.000000 
#    z 0.000000 0.000000 1.780890 
# 
# From -- ./inp_files/34849.got.cif
#   From: 2010.05.17/outbox.cif.g08.bks.cpg/sg42_18_cif.got.tgz:34849.got - 2010.06.03 19:03:34.
