data_PCOD9368444
_publ_section_title
;
Structure prediction by ZEFSAII (Michael W. Deem and Ramdas Pophale) SiO2 
 PCOD9368444
Probable space group: F M M 2
;
_chemical_formula_sum "Si O2"
_cell_formula_units_Z 96
_cell_length_a 25.720166
_cell_length_b 22.998449
_cell_length_c 7.974956
_cell_angle_alpha 90.000000
_cell_angle_beta 90.000000
_cell_angle_gamma 90.000000
_cell_volume 4717.377283
_symmetry_space_group_name_H-M "F M M 2"
_symmetry_group_IT_number 42
_symmetry_cell_setting 'orthorhombic'
loop_
_space_group_symop_operation_xyz
x,y,z
-x,-y,z
-x,y,z
x,-y,z
x,1/2+y,1/2+z
-x,1/2-y,1/2+z
-x,1/2+y,1/2+z
x,1/2-y,1/2+z
1/2+x,y,1/2+z
1/2-x,-y,1/2+z
1/2-x,y,1/2+z
1/2+x,-y,1/2+z
1/2+x,1/2+y,z
1/2-x,1/2-y,z
1/2-x,1/2+y,z
1/2+x,1/2-y,z
loop_
_atom_site_type_symbol
_atom_site_label
_atom_site_fract_x
_atom_site_fract_y
_atom_site_fract_z
Si Si1 0.500000 0.929149 0.464620
Si Si2 0.608072 0.431859 0.417639
Si Si3 0.324362 0.066217 0.257954
Si Si4 0.722079 0.177802 0.172068
Si Si5 0.388913 0.378675 0.067952
Si Si6 0.675380 0.225683 0.512457
Si Si7 0.500000 0.929534 0.065847
O O1 0.447870 0.900706 0.540236
O O2 0.500000 0.916949 0.264160
O O3 0.500000 0.000000 0.488396
O O4 0.603906 0.500000 0.369587
O O5 0.640345 0.430492 0.590454
O O6 0.627624 0.398705 0.253622
O O7 0.551397 0.408983 0.471799
O O8 0.278462 0.110012 0.211044
O O9 0.355430 0.090303 0.419742
O O10 0.308932 0.000000 0.287121
O O11 0.695881 0.206994 0.332528
O O12 0.683090 0.205089 0.031850
O O13 0.779488 0.197896 0.128822
O O14 0.377194 0.309536 0.048641
O O15 0.500000 0.000000 0.056981
#
# Coordination Sequence:
#
# PCOD9368444 Si02
#       7
#     8  16  16  16  16  16   8
#     4  11  19  35  57  81 127 168 202 250 299 366
#     4  10  19  31  53  80 114 156 197 240 295 353
#     4  10  21  37  56  87 123 155 190 247 312 362
#     4  10  21  39  62  87 116 157 200 255 303 364
#     4  11  22  35  60  89 122 159 203 252 293 358
#     4  10  22  38  65  90 115 157 211 253 301 363
#     4   9  17  31  53  79 111 162 209 244 291 350
#
# _framework density 20.350290999999999
#
# number of rings (size 3 to 8) (size 9 to 14) (size 15 to 20)
#    0.000    1.833    1.667    4.000    4.667    0.667 
#    0.000    5.000    0.000    5.000    0.000    0.000 
#    0.000    0.000    0.000    0.000    0.000    0.000 
#
# Total GULP energy -133772.950002 kJ/mol
# GULP energy per Si atom -5573.872917 kJ/mol
# Density = 2.030397 g / cm^3
# Si number density = 20.350291 Si / 1000 Ang^3
#
#
#
# Elastic Constant Matrix: (Units=GPa)
#
#
# Indices 1 2 3 4 5 6 
#
# 1 41.0926 10.4455 -4.7898 0.0056 -0.0048 -0.0020
# 2 10.4455 72.3883 0.7836 0.0133 -0.0105 -0.0056
# 3 -4.7898 0.7836 99.3304 0.0178 -0.0176 -0.0069
# 4 0.0056 0.0133 0.0178 9.6079 -0.0114 -0.0053
# 5 -0.0048 -0.0105 -0.0176 -0.0114 6.5336 0.0046
# 6 -0.0020 -0.0056 -0.0069 -0.0053 0.0046 30.1196
#
#
#
# Elastic Compliance Matrix: (Units=1/GPa)
#
#
# Indices 1 2 3 4 5 6 
#
# 1 0.025417 -0.003681 0.001255 -0.000012 0.000016 0.000001
# 2 -0.003681 0.014349 -0.000291 -0.000017 0.000020 0.000002
# 3 0.001255 -0.000291 0.010130 -0.000019 0.000028 0.000002
# 4 -0.000012 -0.000017 -0.000019 0.104081 0.000181 0.000018
# 5 0.000016 0.000020 0.000028 0.000181 0.153055 -0.000023
# 6 0.000001 0.000002 0.000002 0.000018 -0.000023 0.033201
#
#
# Mechanical properties :
#
#
# Convention : Reuss Voigt Hill
#
# Bulk Modulus (GPa) = 22.49125 25.07665 23.78395
# Shear Modulus (GPa) = 13.87007 23.01035 18.44021
#
# Velocity S-wave (km/s) = 2.61351 3.36626 3.01348
# Velocity P-wave (km/s) = 4.49259 5.24005 4.88065
#
# Compressibility (1/GPa) = 0.04446173
#
# Stress axis : x y z
#
# Youngs Moduli (GPa) = 39.34328 69.69250 98.71457
#
# Poissons Ratio (x) = 0.25656 -0.12386
# Poissons Ratio (y) = 0.14483 0.02870
# Poissons Ratio (z) = -0.04936 0.02026
#
# Static dielectric constant tensor:
#      x y z
#    x 1.735400 0.000000 0.000000 
#    y 0.000000 1.788680 0.000000 
#    z 0.000000 0.000000 1.798130 
# 
# From -- ./inp_files/5264.got.cif
#   From: 2010.05.17/outbox.cif.g08.bks.cpg/sg42_3_cif.got.tgz:5264.got - 2010.06.03 19:03:34.
