data_PCOD9368830
_publ_section_title
;
Structure prediction by ZEFSAII (Michael W. Deem and Ramdas Pophale) SiO2 
 PCOD9368830
Probable space group: F M M 2
;
_chemical_formula_sum "Si O2"
_cell_formula_units_Z 80
_cell_length_a 19.434687
_cell_length_b 8.818351
_cell_length_c 26.713651
_cell_angle_alpha 90.000000
_cell_angle_beta 90.000000
_cell_angle_gamma 90.000000
_cell_volume 4578.236038
_symmetry_space_group_name_H-M "F M M 2"
_symmetry_group_IT_number 42
_symmetry_cell_setting 'orthorhombic'
loop_
_space_group_symop_operation_xyz
x,y,z
-x,-y,z
-x,y,z
x,-y,z
x,1/2+y,1/2+z
-x,1/2-y,1/2+z
-x,1/2+y,1/2+z
x,1/2-y,1/2+z
1/2+x,y,1/2+z
1/2-x,-y,1/2+z
1/2-x,y,1/2+z
1/2+x,-y,1/2+z
1/2+x,1/2+y,z
1/2-x,1/2-y,z
1/2-x,1/2+y,z
1/2+x,1/2-y,z
loop_
_atom_site_type_symbol
_atom_site_label
_atom_site_fract_x
_atom_site_fract_y
_atom_site_fract_z
Si Si1 0.581548 0.318386 0.640480
Si Si2 0.172995 0.181788 0.829191
Si Si3 0.826767 0.180539 0.227180
Si Si4 0.080124 0.682464 0.026141
Si Si5 0.173567 0.681088 0.439890
O O1 0.500000 0.289453 0.647139
O O2 0.591837 0.500000 0.645773
O O3 0.626901 0.232301 0.680888
O O4 0.599639 0.276027 0.583195
O O5 0.250000 0.250000 0.830730
O O6 0.142024 0.254555 0.779236
O O7 0.143901 0.217981 0.884296
O O8 0.175643 0.000000 0.823557
O O9 0.750000 0.250000 0.221655
O O10 0.821399 0.000000 0.230203
O O11 0.085171 0.500000 0.022655
O O12 0.000000 0.723453 0.019086
O O13 0.126911 0.756827 0.984223
O O14 0.179028 0.500000 0.442860
O O15 0.250000 0.750000 0.443621
#
# Coordination Sequence:
#
# PCOD9368830 Si02
#       5
#    16  16  16  16  16
#     4   9  19  37  57  75 100 135 171 209 257 307
#     4   9  17  31  50  73 102 135 169 206 253 302
#     4  11  21  33  53  79 105 134 170 211 254 300
#     4   9  19  36  56  76 101 135 171 209 256 305
#     4  10  20  33  53  79 105 135 170 210 253 299
#
# _framework density 17.473980000000001
#
# number of rings (size 3 to 8) (size 9 to 14) (size 15 to 20)
#    0.000    2.400    0.000    5.400    0.000    4.800 
#    0.000    3.000    0.000    1.200    0.000    0.000 
#    0.000    0.000    0.000    0.000    0.000    0.000 
#
# Total GULP energy -111519.345063 kJ/mol
# GULP energy per Si atom -5575.967253 kJ/mol
# Density = 1.743421 g / cm^3
# Si number density = 17.473980 Si / 1000 Ang^3
#
#
#
# Elastic Constant Matrix: (Units=GPa)
#
#
# Indices 1 2 3 4 5 6 
#
# 1 50.0553 41.4797 81.1823 0.0000 0.0000 0.0000
# 2 41.4797 86.3718 83.8656 0.0000 0.0000 0.0000
# 3 81.1823 83.8656 201.9423 0.0000 0.0000 0.0000
# 4 0.0000 0.0000 0.0000 26.2462 0.0000 0.0000
# 5 0.0000 0.0000 0.0000 0.0000 -137.7225 0.0000
# 6 0.0000 0.0000 0.0000 0.0000 0.0000 24.2640
#
#
#
# Elastic Compliance Matrix: (Units=1/GPa)
#
#
# Indices 1 2 3 4 5 6 
#
# 1 0.061540 -0.009271 -0.020889 0.000000 0.000000 0.000000
# 2 -0.009271 0.020798 -0.004910 0.000000 0.000000 0.000000
# 3 -0.020889 -0.004910 0.015389 0.000000 0.000000 0.000000
# 4 0.000000 0.000000 0.000000 0.038101 0.000000 0.000000
# 5 0.000000 0.000000 0.000000 0.000000 -0.007261 0.000000
# 6 0.000000 0.000000 0.000000 0.000000 0.000000 0.041213
#
#
# Mechanical properties :
#
#
# Convention : Reuss Voigt Hill
#
# Bulk Modulus (GPa) = 36.25105 83.49162 59.87134
# Shear Modulus (GPa) = 20.07092 -8.65301 5.70896
#
# Velocity S-wave (km/s) = 3.39280 -2.22771 1.80948
# Velocity P-wave (km/s) = 6.01157 6.42397 6.22118
#
# Compressibility (1/GPa) = 0.02758541
#
# Stress axis : x y z
#
# Youngs Moduli (GPa) = 16.24958 48.08136 64.98264
#
# Poissons Ratio (x) = 0.44577 1.35744
# Poissons Ratio (y) = 0.15065 0.31908
# Poissons Ratio (z) = 0.33944 0.23609
#
# Static dielectric constant tensor:
#      x y z
#    x 1.568540 0.000000 0.000000 
#    y 0.000000 1.581550 0.000000 
#    z 0.000000 0.000000 1.623900 
# 
# From -- ./inp_files/31247.got.cif
#   From: 2010.05.17/outbox.cif.g08.bks.cpg/sg42_16_cif.got.tgz:31247.got - 2010.06.03 19:03:34.
