data_PCOD9368954
_publ_section_title
;
Structure prediction by ZEFSAII (Michael W. Deem and Ramdas Pophale) SiO2 
 PCOD9368954
Probable space group: F M M 2
;
_chemical_formula_sum "Si O2"
_cell_formula_units_Z 96
_cell_length_a 26.404865
_cell_length_b 7.815133
_cell_length_c 24.197859
_cell_angle_alpha 90.000000
_cell_angle_beta 90.000000
_cell_angle_gamma 90.000000
_cell_volume 4993.410459
_symmetry_space_group_name_H-M "F M M 2"
_symmetry_group_IT_number 42
_symmetry_cell_setting 'orthorhombic'
loop_
_space_group_symop_operation_xyz
x,y,z
-x,-y,z
-x,y,z
x,-y,z
x,1/2+y,1/2+z
-x,1/2-y,1/2+z
-x,1/2+y,1/2+z
x,1/2-y,1/2+z
1/2+x,y,1/2+z
1/2-x,-y,1/2+z
1/2-x,y,1/2+z
1/2+x,-y,1/2+z
1/2+x,1/2+y,z
1/2-x,1/2-y,z
1/2-x,1/2+y,z
1/2+x,1/2-y,z
loop_
_atom_site_type_symbol
_atom_site_label
_atom_site_fract_x
_atom_site_fract_y
_atom_site_fract_z
Si Si1 0.000000 0.700966 0.284580
Si Si2 0.306919 0.705871 0.416704
Si Si3 0.692824 0.293633 0.290364
Si Si4 0.000000 0.792445 0.412859
Si Si5 0.400224 0.702491 0.218632
Si Si6 0.941951 0.705729 0.603367
Si Si7 0.903203 0.206486 0.483723
O O1 0.000000 0.733093 0.349911
O O2 0.050308 0.776965 0.256801
O O3 0.000000 0.500000 0.273457
O O4 0.310568 0.500000 0.414842
O O5 0.250000 0.750000 0.434182
O O6 0.314244 0.769177 0.353582
O O7 0.350790 0.769324 0.457217
O O8 0.688774 0.500000 0.292268
O O9 0.750000 0.250000 0.273062
O O10 0.649026 0.226711 0.250016
O O11 0.049716 0.734576 0.446037
O O12 0.000000 0.000000 0.412183
O O13 0.390974 0.500000 0.211553
O O14 0.414097 0.773190 0.158198
O O15 0.944991 0.500000 0.608651
O O16 0.913379 0.744605 0.546721
O O17 0.000000 0.770482 0.600603
O O18 0.903010 0.000000 0.481377
#
# Coordination Sequence:
#
# PCOD9368954 Si02
#       7
#     8  16  16   8  16  16  16
#     4  12  24  33  50  83 113 136 172 230 277 310
#     4   9  18  33  53  79 105 136 176 217 265 318
#     4   9  18  34  58  81 106 139 178 221 266 321
#     4  10  20  35  54  75 105 142 174 212 269 338
#     4  10  20  38  58  76 106 150 185 212 264 336
#     4  10  20  35  55  78 106 144 184 220 263 317
#     4  10  20  35  56  79 104 139 182 221 265 320
#
# _framework density 19.225338000000001
#
# number of rings (size 3 to 8) (size 9 to 14) (size 15 to 20)
#    0.000    2.167    1.667    1.750    0.000    5.333 
#    0.000    4.167    0.000    4.000    0.000    0.000 
#    0.000    0.000    0.000    0.000    0.000    0.000 
#
# Total GULP energy -133982.458685 kJ/mol
# GULP energy per Si atom -5582.602445 kJ/mol
# Density = 1.918158 g / cm^3
# Si number density = 19.225338 Si / 1000 Ang^3
#
#
#
# Elastic Constant Matrix: (Units=GPa)
#
#
# Indices 1 2 3 4 5 6 
#
# 1 191.8311 -0.3607 118.1388 0.0000 0.0000 0.0000
# 2 -0.3607 19.3316 -4.0790 -0.0001 0.0000 0.0000
# 3 118.1388 -4.0790 169.3954 0.0000 0.0000 0.0000
# 4 0.0000 -0.0001 0.0000 17.2358 0.0000 0.0000
# 5 0.0000 0.0000 0.0000 0.0000 9.2569 0.0000
# 6 0.0000 0.0000 0.0000 0.0000 0.0000 10.2008
#
#
#
# Elastic Compliance Matrix: (Units=1/GPa)
#
#
# Indices 1 2 3 4 5 6 
#
# 1 0.009164 -0.001184 -0.006420 0.000000 0.000000 0.000000
# 2 -0.001184 0.052146 0.002081 0.000000 0.000000 0.000000
# 3 -0.006420 0.002081 0.010431 0.000000 0.000000 0.000000
# 4 0.000000 0.000000 0.000000 0.058019 0.000000 0.000000
# 5 0.000000 0.000000 0.000000 0.000000 0.108028 0.000000
# 6 0.000000 0.000000 0.000000 0.000000 0.000000 0.098031
#
#
# Mechanical properties :
#
#
# Convention : Reuss Voigt Hill
#
# Bulk Modulus (GPa) = 16.47547 67.55069 42.01308
# Shear Modulus (GPa) = 13.62044 25.12931 19.37488
#
# Velocity S-wave (km/s) = 2.66458 3.61930 3.17800
# Velocity P-wave (km/s) = 4.24911 7.25798 5.94698
#
# Compressibility (1/GPa) = 0.06069630
#
# Stress axis : x y z
#
# Youngs Moduli (GPa) = 109.11866 19.17698 95.87042
#
# Poissons Ratio (x) = 0.02270 0.61547
# Poissons Ratio (y) = 0.12915 -0.19952
# Poissons Ratio (z) = 0.70052 -0.03991
#
# Static dielectric constant tensor:
#      x y z
#    x 1.658840 0.000000 0.000000 
#    y 0.000000 1.713630 0.000000 
#    z 0.000000 0.000000 1.652150 
# 
# From -- ./inp_files/28085.got.cif
#   From: 2010.05.17/outbox.cif.g08.bks.cpg/sg42_15_cif.got.tgz:28085.got - 2010.06.03 19:03:34.
