data_PCOD9368843
_publ_section_title
;
Structure prediction by ZEFSAII (Michael W. Deem and Ramdas Pophale) SiO2 
 PCOD9368843
Probable space group: F M M 2
;
_chemical_formula_sum "Si O2"
_cell_formula_units_Z 88
_cell_length_a 24.112709
_cell_length_b 15.247966
_cell_length_c 13.686629
_cell_angle_alpha 90.000000
_cell_angle_beta 90.000000
_cell_angle_gamma 90.000000
_cell_volume 5032.159695
_symmetry_space_group_name_H-M "F M M 2"
_symmetry_group_IT_number 42
_symmetry_cell_setting 'orthorhombic'
loop_
_space_group_symop_operation_xyz
x,y,z
-x,-y,z
-x,y,z
x,-y,z
x,1/2+y,1/2+z
-x,1/2-y,1/2+z
-x,1/2+y,1/2+z
x,1/2-y,1/2+z
1/2+x,y,1/2+z
1/2-x,-y,1/2+z
1/2-x,y,1/2+z
1/2+x,-y,1/2+z
1/2+x,1/2+y,z
1/2-x,1/2-y,z
1/2-x,1/2+y,z
1/2+x,1/2-y,z
loop_
_atom_site_type_symbol
_atom_site_label
_atom_site_fract_x
_atom_site_fract_y
_atom_site_fract_z
Si Si1 0.000000 0.285464 0.152120
Si Si2 0.121169 0.104400 0.365849
Si Si3 0.315714 0.756129 0.992009
Si Si4 0.000000 0.105056 0.847207
Si Si5 0.386829 0.599159 0.953086
Si Si6 0.000000 0.896227 0.453582
Si Si7 0.886533 0.821659 0.153159
O O1 0.055061 0.227452 0.160205
O O2 0.000000 0.352650 0.241637
O O3 0.000000 0.337019 0.049884
O O4 0.159538 0.157659 0.441326
O O5 0.056511 0.120863 0.393962
O O6 0.130767 0.140776 0.257019
O O7 0.130548 0.000000 0.370332
O O8 0.250000 0.750000 0.994457
O O9 0.340484 0.672171 0.932870
O O10 0.342327 0.742618 0.099924
O O11 0.055539 0.129572 0.905471
O O12 0.000000 0.000000 0.840359
O O13 0.374104 0.500000 0.921905
O O14 0.393299 0.603504 0.070450
O O15 0.000000 0.000000 0.479270
#
# Coordination Sequence:
#
# PCOD9368843 Si02
#       7
#     8  16  16   8  16   8  16
#     4  12  19  34  57  86 127 162 189 237 311 359
#     4  11  22  40  62  91 123 158 196 245 303 362
#     4  10  23  40  60  88 119 158 209 250 296 345
#     4  10  20  33  57  91 123 154 193 240 302 370
#     4   9  19  37  59  85 119 152 194 246 296 349
#     4  10  20  35  57  89 126 156 192 239 301 371
#     4  10  22  34  61  85 118 153 199 242 298 350
#
# _framework density 17.487521000000001
#
# number of rings (size 3 to 8) (size 9 to 14) (size 15 to 20)
#    1.091    0.727    1.818    3.000    0.000    3.636 
#    0.000    3.636    0.000    0.000    0.000    0.000 
#    0.000    0.000    0.000    0.000    0.000    0.000 
#
# Total GULP energy -122612.477277 kJ/mol
# GULP energy per Si atom -5573.294422 kJ/mol
# Density = 1.744772 g / cm^3
# Si number density = 17.487521 Si / 1000 Ang^3
#
#
#
# Elastic Constant Matrix: (Units=GPa)
#
#
# Indices 1 2 3 4 5 6 
#
# 1 152.4488 63.9287 40.5030 0.0000 0.0000 0.0000
# 2 63.9287 79.8721 56.5586 0.0000 0.0000 0.0000
# 3 40.5030 56.5586 104.9197 0.0000 0.0000 0.0000
# 4 0.0000 0.0000 0.0000 33.3456 0.0000 0.0000
# 5 0.0000 0.0000 0.0000 0.0000 6290.8552 0.0000
# 6 0.0000 0.0000 0.0000 0.0000 0.0000 10.2854
#
#
#
# Elastic Compliance Matrix: (Units=1/GPa)
#
#
# Indices 1 2 3 4 5 6 
#
# 1 0.009908 -0.008446 0.000728 0.000000 0.000000 0.000000
# 2 -0.008446 0.027449 -0.011536 0.000000 0.000000 0.000000
# 3 0.000728 -0.011536 0.015469 0.000000 0.000000 0.000000
# 4 0.000000 0.000000 0.000000 0.029989 0.000000 0.000000
# 5 0.000000 0.000000 0.000000 0.000000 0.000159 0.000000
# 6 0.000000 0.000000 0.000000 0.000000 0.000000 0.097225
#
#
# Mechanical properties :
#
#
# Convention : Reuss Voigt Hill
#
# Bulk Modulus (GPa) = 69.84449 73.24681 71.54565
# Shear Modulus (GPa) = 22.37349 1278.64726 650.51037
#
# Velocity S-wave (km/s) = 3.58075 27.06962 19.30785
# Velocity P-wave (km/s) = 7.55791 31.92170 23.19609
#
# Compressibility (1/GPa) = 0.01431752
#
# Stress axis : x y z
#
# Youngs Moduli (GPa) = 100.93084 36.43146 64.64543
#
# Poissons Ratio (x) = 0.30768 -0.04706
# Poissons Ratio (y) = 0.85241 0.74578
# Poissons Ratio (z) = -0.07347 0.42029
#
# Static dielectric constant tensor:
#      x y z
#    x -0.514770 0.000000 0.000000 
#    y 0.000000 1.602070 0.000000 
#    z 0.000000 0.000000 1.587340 
# 
# From -- ./inp_files/15952.got.cif
#   From: 2010.05.17/outbox.cif.g08.bks.cpg/sg42_8_cif.got.tgz:15952.got - 2010.06.03 19:03:34.
