data_PCOD9368936
_publ_section_title
;
Structure prediction by ZEFSAII (Michael W. Deem and Ramdas Pophale) SiO2 
 PCOD9368936
Probable space group: F M M 2
;
_chemical_formula_sum "Si O2"
_cell_formula_units_Z 112
_cell_length_a 15.224276
_cell_length_b 28.151866
_cell_length_c 12.575862
_cell_angle_alpha 90.000000
_cell_angle_beta 90.000000
_cell_angle_gamma 90.000000
_cell_volume 5389.911053
_symmetry_space_group_name_H-M "F M M 2"
_symmetry_group_IT_number 42
_symmetry_cell_setting 'orthorhombic'
loop_
_space_group_symop_operation_xyz
x,y,z
-x,-y,z
-x,y,z
x,-y,z
x,1/2+y,1/2+z
-x,1/2-y,1/2+z
-x,1/2+y,1/2+z
x,1/2-y,1/2+z
1/2+x,y,1/2+z
1/2-x,-y,1/2+z
1/2-x,y,1/2+z
1/2+x,-y,1/2+z
1/2+x,1/2+y,z
1/2-x,1/2-y,z
1/2-x,1/2+y,z
1/2+x,1/2-y,z
loop_
_atom_site_type_symbol
_atom_site_label
_atom_site_fract_x
_atom_site_fract_y
_atom_site_fract_z
Si Si1 0.897717 0.709889 0.141480
Si Si2 0.157226 0.110555 0.589514
Si Si3 0.098793 0.810864 0.040294
Si Si4 0.707586 0.556487 0.378508
Si Si5 0.903021 0.556980 0.295289
Si Si6 0.720747 0.697239 0.850518
Si Si7 0.666182 0.371569 0.219311
O O1 0.881723 0.663020 0.070735
O O2 0.873292 0.759155 0.085198
O O3 0.842234 0.702517 0.248128
O O4 0.000000 0.713151 0.168259
O O5 0.171114 0.079214 0.486013
O O6 0.103722 0.083712 0.682391
O O7 0.251573 0.118739 0.642683
O O8 0.099484 0.846367 0.140310
O O9 0.000000 0.806899 0.997031
O O10 0.166311 0.824323 0.947840
O O11 0.700694 0.500000 0.380476
O O12 0.812032 0.568396 0.358019
O O13 0.652237 0.579752 0.282069
O O14 0.900744 0.500000 0.279289
O O15 0.000000 0.568653 0.343084
O O16 0.750000 0.750000 0.879786
O O17 0.801102 0.665377 0.809682
#
# Coordination Sequence:
#
# PCOD9368936 Si02
#       7
#    16  16  16  16  16  16  16
#     4  10  22  38  57  89 126 161 203 254 308 365
#     4  10  20  34  59  87 122 161 207 253 312 370
#     4  11  24  40  60  88 122 163 207 250 307 369
#     4  10  21  38  62  94 124 161 213 265 317 373
#     4   9  18  35  59  87 120 156 200 258 315 369
#     4  11  22  36  64  87 122 161 206 248 301 375
#     4  10  22  40  59  89 118 166 204 256 306 370
#
# _framework density 20.779563
#
# number of rings (size 3 to 8) (size 9 to 14) (size 15 to 20)
#    0.000    1.857    1.429    2.143    6.000    0.571 
#    0.000    7.143    0.000    2.143    0.000    0.000 
#    0.000    0.000    0.000    0.000    0.000    0.000 
#
# Total GULP energy -156346.371739 kJ/mol
# GULP energy per Si atom -5583.798991 kJ/mol
# Density = 2.073227 g / cm^3
# Si number density = 20.779563 Si / 1000 Ang^3
#
#
#
# Elastic Constant Matrix: (Units=GPa)
#
#
# Indices 1 2 3 4 5 6 
#
# 1 44.4481 16.9346 27.2486 0.0000 0.0000 0.0000
# 2 16.9346 93.4499 23.9270 0.0000 0.0000 0.0000
# 3 27.2486 23.9270 67.6288 0.0000 0.0000 0.0000
# 4 0.0000 0.0000 0.0000 25.5969 0.0000 0.0000
# 5 0.0000 0.0000 0.0000 0.0000 21.3233 0.0000
# 6 0.0000 0.0000 0.0000 0.0000 0.0000 17.1290
#
#
#
# Elastic Compliance Matrix: (Units=1/GPa)
#
#
# Indices 1 2 3 4 5 6 
#
# 1 0.030448 -0.002613 -0.011343 0.000000 0.000000 0.000000
# 2 -0.002613 0.011991 -0.003190 0.000000 0.000000 0.000000
# 3 -0.011343 -0.003190 0.020485 0.000000 0.000000 0.000000
# 4 0.000000 0.000000 0.000000 0.039067 0.000000 0.000000
# 5 0.000000 0.000000 0.000000 0.000000 0.046897 0.000000
# 6 0.000000 0.000000 0.000000 0.000000 0.000000 0.058381
#
#
# Mechanical properties :
#
#
# Convention : Reuss Voigt Hill
#
# Bulk Modulus (GPa) = 34.92575 37.97192 36.44883
# Shear Modulus (GPa) = 19.91197 21.97095 20.94146
#
# Velocity S-wave (km/s) = 3.09892 3.25520 3.17802
# Velocity P-wave (km/s) = 5.44505 5.69577 5.57182
#
# Compressibility (1/GPa) = 0.02863217
#
# Stress axis : x y z
#
# Youngs Moduli (GPa) = 32.84322 83.39498 48.81525
#
# Poissons Ratio (x) = 0.21793 0.55372
# Poissons Ratio (y) = 0.08583 0.15570
# Poissons Ratio (z) = 0.37255 0.26599
#
# Static dielectric constant tensor:
#      x y z
#    x 1.870490 0.000000 0.000000 
#    y 0.000000 1.776080 0.000000 
#    z 0.000000 0.000000 1.737570 
# 
# From -- ./inp_files/8091.got.cif
#   From: 2010.05.17/outbox.cif.g08.bks.cpg/sg42_5_cif.got.tgz:8091.got - 2010.06.03 19:03:34.
