data_PCOD9368599
_publ_section_title
;
Structure prediction by ZEFSAII (Michael W. Deem and Ramdas Pophale) SiO2 
 PCOD9368599
Probable space group: F M M 2
;
_chemical_formula_sum "Si O2"
_cell_formula_units_Z 112
_cell_length_a 23.890555
_cell_length_b 12.857820
_cell_length_c 14.641873
_cell_angle_alpha 90.000000
_cell_angle_beta 90.000000
_cell_angle_gamma 90.000000
_cell_volume 4497.697223
_symmetry_space_group_name_H-M "F M M 2"
_symmetry_group_IT_number 42
_symmetry_cell_setting 'orthorhombic'
loop_
_space_group_symop_operation_xyz
x,y,z
-x,-y,z
-x,y,z
x,-y,z
x,1/2+y,1/2+z
-x,1/2-y,1/2+z
-x,1/2+y,1/2+z
x,1/2-y,1/2+z
1/2+x,y,1/2+z
1/2-x,-y,1/2+z
1/2-x,y,1/2+z
1/2+x,-y,1/2+z
1/2+x,1/2+y,z
1/2-x,1/2-y,z
1/2-x,1/2+y,z
1/2+x,1/2-y,z
loop_
_atom_site_type_symbol
_atom_site_label
_atom_site_fract_x
_atom_site_fract_y
_atom_site_fract_z
Si Si1 0.826665 0.840173 0.213910
Si Si2 0.595147 0.891815 0.567572
Si Si3 0.859881 0.779982 0.389524
Si Si4 0.284698 0.614974 0.961023
Si Si5 0.709389 0.116255 0.133289
Si Si6 0.438791 0.332029 0.550377
Si Si7 0.066536 0.880986 0.766672
O O1 0.882967 0.883730 0.169647
O O2 0.836295 0.860984 0.318829
O O3 0.768297 0.888321 0.185511
O O4 0.820209 0.719319 0.174925
O O5 0.656091 0.886700 0.518590
O O6 0.558731 0.792847 0.550225
O O7 0.568276 0.000000 0.543277
O O8 0.804917 0.706729 0.398047
O O9 0.889144 0.838225 0.475150
O O10 0.902723 0.703749 0.331812
O O11 0.278516 0.500000 0.920786
O O12 0.232925 0.633632 0.029810
O O13 0.683435 0.000000 0.138403
O O14 0.500000 0.374336 0.523775
O O15 0.427555 0.366534 0.655445
O O16 0.000000 0.872082 0.783127
O O17 0.084315 0.000000 0.789675
#
# Coordination Sequence:
#
# PCOD9368599 Si02
#       7
#    16  16  16  16  16  16  16
#     4  10  19  34  56  86 115 152 196 246 301 359
#     4   9  17  34  57  83 112 148 189 239 302 359
#     4  11  20  34  61  92 117 157 210 258 294 363
#     4   8  16  31  53  80 112 147 186 240 299 350
#     4   9  19  37  58  81 115 155 192 241 306 367
#     4  10  21  38  59  87 126 163 202 253 310 368
#     4  10  21  38  60  89 129 169 203 251 314 371
#
# _framework density 24.901631999999999
#
# number of rings (size 3 to 8) (size 9 to 14) (size 15 to 20)
#    0.000    2.429    1.429    2.143    0.000    2.000 
#    0.000   10.000    0.000    0.000    0.000    0.000 
#    0.000    0.000    0.000    0.000    0.000    0.000 
#
# Total GULP energy -156012.385026 kJ/mol
# GULP energy per Si atom -5571.870894 kJ/mol
# Density = 2.484496 g / cm^3
# Si number density = 24.901632 Si / 1000 Ang^3
#
#
#
# Elastic Constant Matrix: (Units=GPa)
#
#
# Indices 1 2 3 4 5 6 
#
# 1 128.0820 12.9864 25.0103 0.0000 0.0000 0.0000
# 2 12.9864 98.4072 -6.9438 0.0000 0.0000 0.0000
# 3 25.0103 -6.9438 64.0323 0.0000 0.0000 0.0000
# 4 0.0000 0.0000 0.0000 -2.8310 0.0000 0.0000
# 5 0.0000 0.0000 0.0000 0.0000 27.9091 0.0000
# 6 0.0000 0.0000 0.0000 0.0000 0.0000 9.4292
#
#
#
# Elastic Compliance Matrix: (Units=1/GPa)
#
#
# Indices 1 2 3 4 5 6 
#
# 1 0.008636 -0.001388 -0.003524 0.000000 0.000000 0.000000
# 2 -0.001388 0.010463 0.001677 0.000000 0.000000 0.000000
# 3 -0.003524 0.001677 0.017175 0.000000 0.000000 0.000000
# 4 0.000000 0.000000 0.000000 -0.353227 0.000000 0.000000
# 5 0.000000 0.000000 0.000000 0.000000 0.035831 0.000000
# 6 0.000000 0.000000 0.000000 0.000000 0.000000 0.106053
#
#
# Mechanical properties :
#
#
# Convention : Reuss Voigt Hill
#
# Bulk Modulus (GPa) = 33.55181 39.18082 36.36632
# Shear Modulus (GPa) = -31.51335 24.19936 -3.65700
#
# Velocity S-wave (km/s) = -3.56127 3.12075 -1.21316
# Velocity P-wave (km/s) = 1.84585 5.36226 3.55996
#
# Compressibility (1/GPa) = 0.02980465
#
# Stress axis : x y z
#
# Youngs Moduli (GPa) = 115.78958 95.57117 58.22301
#
# Poissons Ratio (x) = 0.13269 0.20517
# Poissons Ratio (y) = 0.16076 -0.09764
# Poissons Ratio (z) = 0.40802 -0.16027
#
# Static dielectric constant tensor:
#      x y z
#    x 2.076780 0.000000 0.000000 
#    y 0.000000 2.090900 0.000000 
#    z 0.000000 0.000000 2.128380 
# 
# From -- ./inp_files/17062.got.cif
#   From: 2010.05.17/outbox.cif.g08.bks.cpg/sg42_9_cif.got.tgz:17062.got - 2010.06.03 19:03:34.
