data_PCOD9368206
_publ_section_title
;
Structure prediction by ZEFSAII (Michael W. Deem and Ramdas Pophale) SiO2 
 PCOD9368206
Probable space group: F M M 2
;
_chemical_formula_sum "Si O2"
_cell_formula_units_Z 92
_cell_length_a 8.391978
_cell_length_b 20.371737
_cell_length_c 27.895215
_cell_angle_alpha 90.000000
_cell_angle_beta 90.000000
_cell_angle_gamma 90.000000
_cell_volume 4768.942768
_symmetry_space_group_name_H-M "F M M 2"
_symmetry_group_IT_number 42
_symmetry_cell_setting 'orthorhombic'
loop_
_space_group_symop_operation_xyz
x,y,z
-x,-y,z
-x,y,z
x,-y,z
x,1/2+y,1/2+z
-x,1/2-y,1/2+z
-x,1/2+y,1/2+z
x,1/2-y,1/2+z
1/2+x,y,1/2+z
1/2-x,-y,1/2+z
1/2-x,y,1/2+z
1/2+x,-y,1/2+z
1/2+x,1/2+y,z
1/2-x,1/2-y,z
1/2-x,1/2+y,z
1/2+x,1/2-y,z
loop_
_atom_site_type_symbol
_atom_site_label
_atom_site_fract_x
_atom_site_fract_y
_atom_site_fract_z
Si Si1 0.683736 0.079913 0.234530
Si Si2 0.811735 0.679451 0.551499
Si Si3 0.680416 0.854501 0.442073
Si Si4 0.809622 0.426695 0.125041
Si Si5 0.500000 0.124004 0.900221
Si Si6 0.166863 0.000000 0.978171
Si Si7 0.500000 0.500000 0.473764
Si Si8 0.000000 0.421093 0.791161
O O1 0.500000 0.101248 0.246168
O O2 0.722792 0.097167 0.179321
O O3 0.833169 0.101993 0.266983
O O4 0.679049 0.000000 0.236416
O O5 0.750000 0.750000 0.567128
O O6 0.773236 0.668279 0.495580
O O7 0.747339 0.622180 0.584571
O O8 0.000000 0.678513 0.554408
O O9 0.500000 0.831046 0.430252
O O10 0.832797 0.838836 0.409526
O O11 0.666944 0.934107 0.446470
O O12 0.741468 0.500000 0.119981
O O13 0.000000 0.430864 0.122002
O O14 0.500000 0.096479 0.846917
O O15 0.500000 0.063883 0.939245
O O16 0.337529 0.000000 0.003867
O O17 0.000000 0.000000 0.006395
O O18 0.000000 0.500000 0.786244
#
# Coordination Sequence:
#
# PCOD9368206 Si02
#       8
#    16  16  16  16   8   8   4   8
#     4   8  16  31  49  73 112 150 183 225 280 343
#     4  11  24  38  56  82 116 151 199 240 288 346
#     4   9  20  34  49  73 107 147 182 228 277 332
#     4   9  19  36  57  84 115 153 192 235 290 348
#     4  10  18  30  50  71 107 144 183 226 276 333
#     4   8  14  28  46  64  95 133 173 215 262 312
#     4   8  14  26  38  66  94 130 172 210 262 316
#     4  10  18  28  48  79 110 147 186 229 286 344
#
# _framework density 19.291488999999999
#
# number of rings (size 3 to 8) (size 9 to 14) (size 15 to 20)
#    0.000    2.783    0.435    1.565    4.870    1.043 
#    0.000    0.000    0.000    0.000    0.000    1.217 
#    0.000    0.000    0.000    0.000    0.000    0.000 
#
# Total GULP energy -128131.585763 kJ/mol
# GULP energy per Si atom -5570.938511 kJ/mol
# Density = 1.924758 g / cm^3
# Si number density = 19.291489 Si / 1000 Ang^3
#
#
#
# Elastic Constant Matrix: (Units=GPa)
#
#
# Indices 1 2 3 4 5 6 
#
# 1 128.6202 14.8579 58.3231 0.0000 0.0000 0.0000
# 2 14.8579 39.0672 27.1440 0.0000 0.0000 0.0000
# 3 58.3231 27.1440 66.8194 0.0000 0.0000 0.0000
# 4 0.0000 0.0000 0.0000 -14.2458 0.0000 0.0000
# 5 0.0000 0.0000 0.0000 0.0000 31.1633 0.0000
# 6 0.0000 0.0000 0.0000 0.0000 0.0000 13.3356
#
#
#
# Elastic Compliance Matrix: (Units=1/GPa)
#
#
# Indices 1 2 3 4 5 6 
#
# 1 0.013346 0.004205 -0.013357 0.000000 0.000000 0.000000
# 2 0.004205 0.036988 -0.018696 0.000000 0.000000 0.000000
# 3 -0.013357 -0.018696 0.034219 0.000000 0.000000 0.000000
# 4 0.000000 0.000000 0.000000 -0.070196 0.000000 0.000000
# 5 0.000000 0.000000 0.000000 0.000000 0.032089 0.000000
# 6 0.000000 0.000000 0.000000 0.000000 0.000000 0.074987
#
#
# Mechanical properties :
#
#
# Convention : Reuss Voigt Hill
#
# Bulk Modulus (GPa) = 34.65378 48.35076 41.50227
# Shear Modulus (GPa) = 26.77411 14.99606 20.88509
#
# Velocity S-wave (km/s) = 3.72946 2.79111 3.29387
# Velocity P-wave (km/s) = 6.04544 5.95858 6.00217
#
# Compressibility (1/GPa) = 0.02885688
#
# Stress axis : x y z
#
# Youngs Moduli (GPa) = 74.92961 27.03607 29.22343
#
# Poissons Ratio (x) = -0.11368 0.39034
# Poissons Ratio (y) = -0.31507 0.54635
# Poissons Ratio (z) = 1.00084 0.50546
#
# Static dielectric constant tensor:
#      x y z
#    x 1.748310 0.000000 0.000000 
#    y 0.000000 1.665020 0.000000 
#    z 0.000000 0.000000 1.661170 
# 
# From -- ./inp_files/31492.got.cif
#   From: 2010.05.17/outbox.cif.g08.bks.cpg/sg42_16_cif.got.tgz:31492.got - 2010.06.03 19:03:34.
