data_PCOD9368598
_publ_section_title
;
Structure prediction by ZEFSAII (Michael W. Deem and Ramdas Pophale) SiO2 
 PCOD9368598
Probable space group: F M M 2
;
_chemical_formula_sum "Si O2"
_cell_formula_units_Z 112
_cell_length_a 11.352686
_cell_length_b 27.404326
_cell_length_c 19.402275
_cell_angle_alpha 90.000000
_cell_angle_beta 90.000000
_cell_angle_gamma 90.000000
_cell_volume 6036.294319
_symmetry_space_group_name_H-M "F M M 2"
_symmetry_group_IT_number 42
_symmetry_cell_setting 'orthorhombic'
loop_
_space_group_symop_operation_xyz
x,y,z
-x,-y,z
-x,y,z
x,-y,z
x,1/2+y,1/2+z
-x,1/2-y,1/2+z
-x,1/2+y,1/2+z
x,1/2-y,1/2+z
1/2+x,y,1/2+z
1/2-x,-y,1/2+z
1/2-x,y,1/2+z
1/2+x,-y,1/2+z
1/2+x,1/2+y,z
1/2-x,1/2-y,z
1/2-x,1/2+y,z
1/2+x,1/2-y,z
loop_
_atom_site_type_symbol
_atom_site_label
_atom_site_fract_x
_atom_site_fract_y
_atom_site_fract_z
Si Si1 0.000000 0.942283 0.328458
Si Si2 0.627929 0.263434 0.660536
Si Si3 0.637433 0.557285 0.940513
Si Si4 0.633371 0.277670 0.317030
Si Si5 0.633352 0.621167 0.690172
Si Si6 0.230668 0.557865 0.074425
Si Si7 0.000000 0.558644 0.986558
Si Si8 0.223283 0.886866 0.324529
O O1 0.000000 0.923567 0.408209
O O2 0.879777 0.922218 0.297691
O O3 0.000000 0.000000 0.327773
O O4 0.500000 0.252028 0.628470
O O5 0.750000 0.250000 0.623571
O O6 0.630356 0.235791 0.734991
O O7 0.632866 0.321411 0.673189
O O8 0.500000 0.564106 0.924755
O O9 0.668869 0.500000 0.927537
O O10 0.719548 0.590980 0.893400
O O11 0.662620 0.565696 0.021418
O O12 0.500000 0.265538 0.342220
O O13 0.750000 0.250000 0.344749
O O14 0.662084 0.334178 0.329824
O O15 0.500000 0.602355 0.680845
O O16 0.721029 0.591252 0.641210
O O17 0.674191 0.616385 0.768393
O O18 0.224534 0.500000 0.091291
O O19 0.115871 0.571694 0.028817
O O20 0.000000 0.500000 0.981641
#
# Coordination Sequence:
#
# PCOD9368598 Si02
#       8
#     8  16  16  16  16  16   8  16
#     4  11  22  36  56  85 120 155 199 244 292 359
#     4   9  17  33  53  77 111 148 187 236 291 353
#     4  10  22  40  60  84 120 165 204 241 298 369
#     4  10  19  34  56  85 117 155 200 248 304 369
#     4  11  22  35  57  90 117 148 195 249 303 354
#     4  10  20  37  59  82 113 152 196 242 292 360
#     4   9  16  34  60  77 100 149 197 238 281 345
#     4  12  21  35  59  90 120 154 199 247 304 359
#
# _framework density 18.55443
#
# number of rings (size 3 to 8) (size 9 to 14) (size 15 to 20)
#    0.000    1.714    5.714    0.857    0.000    1.714 
#    1.286    0.000    0.000    0.857    0.000    0.000 
#    0.000    0.000    0.000    0.000    0.000    0.000 
#
# Total GULP energy -156008.713615 kJ/mol
# GULP energy per Si atom -5571.739772 kJ/mol
# Density = 1.851220 g / cm^3
# Si number density = 18.554430 Si / 1000 Ang^3
#
#
#
# Elastic Constant Matrix: (Units=GPa)
#
#
# Indices 1 2 3 4 5 6 
#
# 1 121.3399 35.5882 12.4109 0.0000 0.0000 0.0000
# 2 35.5882 77.7681 10.3819 0.0000 0.0000 0.0000
# 3 12.4109 10.3819 27.1051 0.0000 0.0000 0.0000
# 4 0.0000 0.0000 0.0000 -18.7375 0.0000 0.0000
# 5 0.0000 0.0000 0.0000 0.0000 9.5336 0.0000
# 6 0.0000 0.0000 0.0000 0.0000 0.0000 27.9872
#
#
#
# Elastic Compliance Matrix: (Units=1/GPa)
#
#
# Indices 1 2 3 4 5 6 
#
# 1 0.009730 -0.004066 -0.002898 0.000000 0.000000 0.000000
# 2 -0.004066 0.015251 -0.003980 0.000000 0.000000 0.000000
# 3 -0.002898 -0.003980 0.039745 0.000000 0.000000 0.000000
# 4 0.000000 0.000000 0.000000 -0.053369 0.000000 0.000000
# 5 0.000000 0.000000 0.000000 0.000000 0.104893 0.000000
# 6 0.000000 0.000000 0.000000 0.000000 0.000000 0.035731
#
#
# Mechanical properties :
#
#
# Convention : Reuss Voigt Hill
#
# Bulk Modulus (GPa) = 23.34346 38.10834 30.72590
# Shear Modulus (GPa) = 26.57503 14.94545 20.76024
#
# Velocity S-wave (km/s) = 3.78865 2.84120 3.34860
# Velocity P-wave (km/s) = 5.63443 5.59879 5.61664
#
# Compressibility (1/GPa) = 0.04283855
#
# Stress axis : x y z
#
# Youngs Moduli (GPa) = 102.77264 65.57105 25.16060
#
# Poissons Ratio (x) = 0.26660 0.07291
# Poissons Ratio (y) = 0.41786 0.10013
# Poissons Ratio (z) = 0.29783 0.26095
#
# Static dielectric constant tensor:
#      x y z
#    x 1.695550 0.000000 0.000000 
#    y 0.000000 1.630670 0.000000 
#    z 0.000000 0.000000 1.623900 
# 
# From -- ./inp_files/29004.got.cif
#   From: 2010.05.17/outbox.cif.g08.bks.cpg/sg42_15_cif.got.tgz:29004.got - 2010.06.03 19:03:34.
