data_PCOD9368215
_publ_section_title
;
Structure prediction by ZEFSAII (Michael W. Deem and Ramdas Pophale) SiO2 
 PCOD9368215
Probable space group: F M M 2
;
_chemical_formula_sum "Si O2"
_cell_formula_units_Z 96
_cell_length_a 19.204582
_cell_length_b 8.813701
_cell_length_c 32.564529
_cell_angle_alpha 90.000000
_cell_angle_beta 90.000000
_cell_angle_gamma 90.000000
_cell_volume 5511.984317
_symmetry_space_group_name_H-M "F M M 2"
_symmetry_group_IT_number 42
_symmetry_cell_setting 'orthorhombic'
loop_
_space_group_symop_operation_xyz
x,y,z
-x,-y,z
-x,y,z
x,-y,z
x,1/2+y,1/2+z
-x,1/2-y,1/2+z
-x,1/2+y,1/2+z
x,1/2-y,1/2+z
1/2+x,y,1/2+z
1/2-x,-y,1/2+z
1/2-x,y,1/2+z
1/2+x,-y,1/2+z
1/2+x,1/2+y,z
1/2-x,1/2-y,z
1/2-x,1/2+y,z
1/2+x,1/2-y,z
loop_
_atom_site_type_symbol
_atom_site_label
_atom_site_fract_x
_atom_site_fract_y
_atom_site_fract_z
Si Si1 0.915319 0.675635 0.433580
Si Si2 0.828033 0.318135 0.682205
Si Si3 0.581665 0.819528 0.018975
Si Si4 0.827438 0.181237 0.091324
Si Si5 0.419828 0.684961 0.843532
Si Si6 0.672285 0.682588 0.765772
O O1 0.894110 0.500000 0.438328
O O2 0.893873 0.766973 0.473799
O O3 0.893269 0.734051 0.388617
O O4 0.000000 0.677997 0.431997
O O5 0.825122 0.500000 0.686823
O O6 0.750000 0.250000 0.680985
O O7 0.857291 0.282038 0.636961
O O8 0.859772 0.244832 0.723082
O O9 0.500000 0.776839 0.022596
O O10 0.625279 0.743373 0.054993
O O11 0.587106 0.000000 0.022099
O O12 0.750000 0.250000 0.088207
O O13 0.822057 0.000000 0.088732
O O14 0.500000 0.734150 0.838072
O O15 0.420580 0.500000 0.844994
O O16 0.372617 0.729341 0.805252
O O17 0.675997 0.500000 0.763907
O O18 0.750000 0.750000 0.769477
#
# Coordination Sequence:
#
# PCOD9368215 Si02
#       6
#    16  16  16  16  16  16
#     4   8  14  28  50  70  90 122 163 200 235 281
#     4   9  17  30  48  69  93 123 159 194 230 280
#     4  10  20  33  50  74 102 129 161 201 242 287
#     4  10  20  34  53  74  97 127 163 202 244 291
#     4   8  15  29  49  71  92 120 161 201 234 274
#     4  10  18  29  48  71  96 124 155 193 234 280
#
# _framework density 17.416595999999998
#
# number of rings (size 3 to 8) (size 9 to 14) (size 15 to 20)
#    0.000    2.833    0.000    4.000    0.000    3.000 
#    0.000    3.333    0.000    9.000    0.000    0.000 
#    0.000    0.000    0.000    0.000    0.000    0.000 
#
# Total GULP energy -133673.141245 kJ/mol
# GULP energy per Si atom -5569.714219 kJ/mol
# Density = 1.737696 g / cm^3
# Si number density = 17.416596 Si / 1000 Ang^3
#
#
#
# Elastic Constant Matrix: (Units=GPa)
#
#
# Indices 1 2 3 4 5 6 
#
# 1 40.0513 24.6464 64.4766 0.0000 0.0000 0.0000
# 2 24.6464 50.9426 59.4598 0.0000 0.0000 0.0000
# 3 64.4766 59.4598 217.4139 0.0000 0.0000 0.0000
# 4 0.0000 0.0000 0.0000 20.3826 0.0000 0.0000
# 5 0.0000 0.0000 0.0000 0.0000 31.2386 0.0000
# 6 0.0000 0.0000 0.0000 0.0000 0.0000 17.0019
#
#
#
# Elastic Compliance Matrix: (Units=1/GPa)
#
#
# Indices 1 2 3 4 5 6 
#
# 1 0.051251 -0.010363 -0.012365 0.000000 0.000000 0.000000
# 2 -0.010363 0.030930 -0.005385 0.000000 0.000000 0.000000
# 3 -0.012365 -0.005385 0.009739 0.000000 0.000000 0.000000
# 4 0.000000 0.000000 0.000000 0.049061 0.000000 0.000000
# 5 0.000000 0.000000 0.000000 0.000000 0.032012 0.000000
# 6 0.000000 0.000000 0.000000 0.000000 0.000000 0.058817
#
#
# Mechanical properties :
#
#
# Convention : Reuss Voigt Hill
#
# Bulk Modulus (GPa) = 28.01714 67.28591 47.65152
# Shear Modulus (GPa) = 16.67031 24.37962 20.52497
#
# Velocity S-wave (km/s) = 3.09714 3.74544 3.43661
# Velocity P-wave (km/s) = 5.37690 7.57770 6.57011
#
# Compressibility (1/GPa) = 0.03569244
#
# Stress axis : x y z
#
# Youngs Moduli (GPa) = 19.51195 32.33143 102.67707
#
# Poissons Ratio (x) = 0.33506 1.26957
# Poissons Ratio (y) = 0.20221 0.55296
# Poissons Ratio (z) = 0.24126 0.17412
#
# Static dielectric constant tensor:
#      x y z
#    x 1.570640 0.000000 0.000000 
#    y 0.000000 1.585550 0.000000 
#    z 0.000000 0.000000 1.637070 
# 
# From -- ./inp_files/30432.got.cif
#   From: 2010.05.17/outbox.cif.g08.bks.cpg/sg42_16_cif.got.tgz:30432.got - 2010.06.03 19:03:34.
