data_PCOD9368059
_publ_section_title
;
Structure prediction by ZEFSAII (Michael W. Deem and Ramdas Pophale) SiO2 
 PCOD9368059
Probable space group: A B A 2
;
_chemical_formula_sum "Si O2"
_cell_formula_units_Z 28
_cell_length_a 15.000000
_cell_length_b 21.000000
_cell_length_c 9.000000
_cell_angle_alpha 90.000000
_cell_angle_beta 90.000000
_cell_angle_gamma 90.000000
_cell_volume 2835.000000
_symmetry_space_group_name_H-M "A B A 2"
_symmetry_group_IT_number 41
_symmetry_cell_setting 'orthorhombic'
loop_
_space_group_symop_operation_xyz
x,y,z
-x,-y,z
1/2-x,y,1/2+z
1/2+x,-y,1/2+z
x,1/2+y,1/2+z
-x,1/2-y,1/2+z
1/2-x,1/2+y,z
1/2+x,1/2-y,z
loop_
_atom_site_type_symbol
_atom_site_label
_atom_site_fract_x
_atom_site_fract_y
_atom_site_fract_z
Si Si1 0.013925 0.595209 0.770800
Si Si2 0.061018 0.805476 0.871849
Si Si3 0.500000 0.000000 0.024189
Si Si4 0.694065 0.625100 0.318644
Si Si5 0.373665 0.444743 0.777454
Si Si6 0.737589 0.213470 0.555318
Si Si7 0.500000 0.500000 0.004076
Si Si8 0.411075 0.713129 0.116776
O O1 0.908961 0.608948 0.797901
O O2 0.014809 0.557392 0.616713
O O3 0.074056 0.655979 0.734170
O O4 0.041133 0.552608 0.911945
O O5 0.084490 0.878119 0.834129
O O6 0.052973 0.772400 0.712704
O O7 0.146986 0.777143 0.961266
O O8 0.974661 0.798047 0.975190
O O9 0.422761 0.968549 0.127160
O O10 0.767326 0.570354 0.279212
O O11 0.711628 0.687023 0.216172
O O12 0.713730 0.652152 0.481447
O O13 0.412496 0.492693 0.901716
O O14 0.810140 0.269452 0.569111
#
# Coordination Sequence:
#
# PCOD9368059 Si02
#       8
#     8   8   4   8   8   8   4   8
#     4  11  22  39  65  94 127 172 213 267 325 392
#     4  11  24  39  65 100 127 173 216 272 332 396
#     4  10  24  38  66  94 122 162 222 280 310 394
#     4  11  20  39  67  93 125 165 228 271 309 395
#     4  10  20  41  65  93 120 162 219 284 313 374
#     4  11  21  38  59 100 129 163 218 272 325 391
#     4  10  20  40  60  84 128 162 216 256 330 386
#     4  12  23  39  68  96 135 172 209 274 341 388
#
# _framework density 9.8765429999999999
#
# number of rings (size 3 to 8) (size 9 to 14) (size 15 to 20)
#    0.000    1.143    5.714    2.571    2.000    0.000 
#    0.000    0.000   12.571    0.000    0.000    0.000 
#    0.000    0.000    0.000    0.000    0.000    0.000 
#
# Total GULP energy -156204.939885 kJ/mol
# GULP energy per Si atom -5578.747853 kJ/mol
# Density = 0.985406 g / cm^3
# Si number density = 9.876543 Si / 1000 Ang^3
#
#
#
# Elastic Constant Matrix: (Units=GPa)
#
#
# Indices 1 2 3 4 5 6 
#
# 1 90.7407 39.5152 19.4618 0.0000 0.0000 0.0000
# 2 39.5152 47.8795 15.3126 0.0000 0.0000 0.0000
# 3 19.4618 15.3126 83.3490 0.0000 0.0000 0.0000
# 4 0.0000 0.0000 0.0000 24.4560 0.0000 0.0000
# 5 0.0000 0.0000 0.0000 0.0000 27.8240 0.0000
# 6 0.0000 0.0000 0.0000 0.0000 0.0000 33.1678
#
#
#
# Elastic Compliance Matrix: (Units=1/GPa)
#
#
# Indices 1 2 3 4 5 6 
#
# 1 0.017381 -0.013861 -0.001512 0.000000 0.000000 0.000000
# 2 -0.013861 0.033243 -0.002871 0.000000 0.000000 0.000000
# 3 -0.001512 -0.002871 0.012878 0.000000 0.000000 0.000000
# 4 0.000000 0.000000 0.000000 0.040890 0.000000 0.000000
# 5 0.000000 0.000000 0.000000 0.000000 0.035940 0.000000
# 6 0.000000 0.000000 0.000000 0.000000 0.000000 0.030150
#
#
# Mechanical properties :
#
#
# Convention : Reuss Voigt Hill
#
# Bulk Modulus (GPa) = 37.01647 41.17204 39.09425
# Shear Modulus (GPa) = 23.15091 26.93486 25.04289
#
# Velocity S-wave (km/s) = 3.42718 3.69667 3.56448
# Velocity P-wave (km/s) = 5.86865 6.25373 6.06425
#
# Compressibility (1/GPa) = 0.02701500
#
# Stress axis : x y z
#
# Youngs Moduli (GPa) = 57.53502 30.08121 77.65061
#
# Poissons Ratio (x) = 0.41695 0.11740
# Poissons Ratio (y) = 0.79748 0.22293
# Poissons Ratio (z) = 0.08699 0.08636
#
# Static dielectric constant tensor:
#      x y z
#    x 1.717340 0.000000 0.000000 
#    y 0.000000 1.853760 0.000000 
#    z 0.000000 0.000000 1.715220 
# 
# From -- ./inp_files/2712.got.cif
#   From: 2010.05.17/outbox.ucp.g08.bks.cvg/sg41_2_cif.got.tgz:2712.got - 2010.06.11 16:28:22.
