data_PCOD9368759
_publ_section_title
;
Structure prediction by ZEFSAII (Michael W. Deem and Ramdas Pophale) SiO2 
 PCOD9368759
Probable space group: F M M 2
;
_chemical_formula_sum "Si O2"
_cell_formula_units_Z 56
_cell_length_a 7.828574
_cell_length_b 19.424390
_cell_length_c 15.427282
_cell_angle_alpha 90.000000
_cell_angle_beta 90.000000
_cell_angle_gamma 90.000000
_cell_volume 2345.953872
_symmetry_space_group_name_H-M "F M M 2"
_symmetry_group_IT_number 42
_symmetry_cell_setting 'orthorhombic'
loop_
_space_group_symop_operation_xyz
x,y,z
-x,-y,z
-x,y,z
x,-y,z
x,1/2+y,1/2+z
-x,1/2-y,1/2+z
-x,1/2+y,1/2+z
x,1/2-y,1/2+z
1/2+x,y,1/2+z
1/2-x,-y,1/2+z
1/2-x,y,1/2+z
1/2+x,-y,1/2+z
1/2+x,1/2+y,z
1/2-x,1/2-y,z
1/2-x,1/2+y,z
1/2+x,1/2-y,z
loop_
_atom_site_type_symbol
_atom_site_label
_atom_site_fract_x
_atom_site_fract_y
_atom_site_fract_z
Si Si1 0.301165 0.922858 0.246250
Si Si2 0.690665 0.393641 0.437221
Si Si3 0.000000 0.648729 0.519415
Si Si4 0.000000 0.236787 0.381563
Si Si5 0.000000 0.318126 0.700826
O O1 0.500000 0.906968 0.229170
O O2 0.268463 0.924954 0.350117
O O3 0.166119 0.866284 0.214493
O O4 0.263991 0.000000 0.212903
O O5 0.500000 0.420854 0.456218
O O6 0.827771 0.395632 0.513494
O O7 0.652434 0.313720 0.412123
O O8 0.000000 0.692458 0.431118
O O9 0.000000 0.700702 0.600149
O O10 0.000000 0.238066 0.277087
#
# Coordination Sequence:
#
# PCOD9368759 Si02
#       5
#    16  16   8   8   8
#     4  10  19  38  66  91 119 164 210 258 316 374
#     4   9  20  35  61  88 117 159 208 255 306 375
#     4  12  20  39  61  86 132 165 209 266 306 367
#     4   8  20  41  57  86 124 165 207 256 310 364
#     4  10  23  38  62  96 128 166 209 264 312 367
#
# _framework density 23.870887
#
# number of rings (size 3 to 8) (size 9 to 14) (size 15 to 20)
#    0.857    1.429    2.857    1.286    0.000    1.143 
#    0.000   14.286    0.000    0.000    0.000    0.000 
#    0.000    0.000    0.000    0.000    0.000    0.000 
#
# Total GULP energy -78102.534530 kJ/mol
# GULP energy per Si atom -5578.752466 kJ/mol
# Density = 2.381656 g / cm^3
# Si number density = 23.870887 Si / 1000 Ang^3
#
#
#
# Elastic Constant Matrix: (Units=GPa)
#
#
# Indices 1 2 3 4 5 6 
#
# 1 159.4353 10.8405 23.2224 0.0000 0.0000 0.0000
# 2 10.8405 75.7973 -3.3557 0.0000 0.0000 0.0000
# 3 23.2224 -3.3557 104.3266 0.0000 0.0000 0.0000
# 4 0.0000 0.0000 0.0000 8.0958 0.0000 0.0000
# 5 0.0000 0.0000 0.0000 0.0000 9.6486 0.0000
# 6 0.0000 0.0000 0.0000 0.0000 0.0000 8.6754
#
#
#
# Elastic Compliance Matrix: (Units=1/GPa)
#
#
# Indices 1 2 3 4 5 6 
#
# 1 0.006558 -0.001004 -0.001492 0.000000 0.000000 0.000000
# 2 -0.001004 0.013366 0.000653 0.000000 0.000000 0.000000
# 3 -0.001492 0.000653 0.009938 0.000000 0.000000 0.000000
# 4 0.000000 0.000000 0.000000 0.123521 0.000000 0.000000
# 5 0.000000 0.000000 0.000000 0.000000 0.103642 0.000000
# 6 0.000000 0.000000 0.000000 0.000000 0.000000 0.115268
#
#
# Mechanical properties :
#
#
# Convention : Reuss Voigt Hill
#
# Bulk Modulus (GPa) = 38.20206 44.55263 41.37734
# Shear Modulus (GPa) = 12.99702 25.87409 19.43556
#
# Velocity S-wave (km/s) = 2.33592 3.29586 2.85651
# Velocity P-wave (km/s) = 4.82843 5.76091 5.31516
#
# Compressibility (1/GPa) = 0.02617660
#
# Stress axis : x y z
#
# Youngs Moduli (GPa) = 152.49222 74.81903 100.61970
#
# Poissons Ratio (x) = 0.07511 0.15012
# Poissons Ratio (y) = 0.15309 -0.06574
# Poissons Ratio (z) = 0.22752 -0.04889
#
# Static dielectric constant tensor:
#      x y z
#    x 2.003350 0.000000 0.000000 
#    y 0.000000 1.902190 0.000000 
#    z 0.000000 0.000000 1.884380 
# 
# From -- ./inp_files/11762.got.cif
#   From: 2010.05.17/outbox.cif.g08.bks.cpg/sg42_6_cif.got.tgz:11762.got - 2010.06.03 19:03:34.
