data_PCOD9368907
_publ_section_title
;
Structure prediction by ZEFSAII (Michael W. Deem and Ramdas Pophale) SiO2 
 PCOD9368907
Probable space group: F M M 2
;
_chemical_formula_sum "Si O2"
_cell_formula_units_Z 128
_cell_length_a 18.571143
_cell_length_b 15.853317
_cell_length_c 23.593839
_cell_angle_alpha 90.000000
_cell_angle_beta 90.000000
_cell_angle_gamma 90.000000
_cell_volume 6946.361636
_symmetry_space_group_name_H-M "F M M 2"
_symmetry_group_IT_number 42
_symmetry_cell_setting 'orthorhombic'
loop_
_space_group_symop_operation_xyz
x,y,z
-x,-y,z
-x,y,z
x,-y,z
x,1/2+y,1/2+z
-x,1/2-y,1/2+z
-x,1/2+y,1/2+z
x,1/2-y,1/2+z
1/2+x,y,1/2+z
1/2-x,-y,1/2+z
1/2-x,y,1/2+z
1/2+x,-y,1/2+z
1/2+x,1/2+y,z
1/2-x,1/2-y,z
1/2-x,1/2+y,z
1/2+x,1/2-y,z
loop_
_atom_site_type_symbol
_atom_site_label
_atom_site_fract_x
_atom_site_fract_y
_atom_site_fract_z
Si Si1 0.814465 0.098453 0.427680
Si Si2 0.685315 0.692378 0.099167
Si Si3 0.085411 0.759213 0.915863
Si Si4 0.333835 0.902119 0.487906
Si Si5 0.082082 0.812578 0.666074
Si Si6 0.919071 0.278412 0.787505
Si Si7 0.711648 0.900415 0.800918
Si Si8 0.719113 0.096925 0.189665
O O1 0.875067 0.170669 0.432344
O O2 0.751075 0.105188 0.473057
O O3 0.775616 0.115752 0.366992
O O4 0.840474 0.000000 0.427164
O O5 0.750000 0.750000 0.073542
O O6 0.619246 0.746851 0.123052
O O7 0.725367 0.650203 0.152542
O O8 0.658985 0.626309 0.052862
O O9 0.122335 0.836134 0.949243
O O10 0.093831 0.768857 0.847457
O O11 0.000000 0.755280 0.927948
O O12 0.354406 0.000000 0.478581
O O13 0.082992 0.774736 0.729873
O O14 0.138650 0.888449 0.668191
O O15 0.000000 0.832176 0.651117
O O16 0.859530 0.350295 0.784206
O O17 0.000000 0.314339 0.792189
O O18 0.772386 0.876938 0.755493
O O19 0.699604 0.000000 0.796047
O O20 0.738530 0.000000 0.183993
#
# Coordination Sequence:
#
# PCOD9368907 Si02
#       8
#    16  16  16  16  16  16  16  16
#     4   9  19  35  57  86 114 148 191 243 293 340
#     4  10  20  37  60  82 108 146 193 242 291 333
#     4  10  21  36  56  83 115 155 195 237 290 346
#     4  11  23  39  59  84 118 156 197 241 287 344
#     4  10  21  36  54  80 111 147 190 232 280 340
#     4   9  18  33  52  78 114 150 187 232 284 337
#     4   9  17  30  52  82 114 144 186 234 282 338
#     4  10  20  34  55  82 111 145 185 232 283 340
#
# _framework density 18.426912000000002
#
# number of rings (size 3 to 8) (size 9 to 14) (size 15 to 20)
#    0.000    2.250    1.250    1.500    1.750    1.500 
#    0.000    2.500    0.000    3.375    0.000    3.500 
#    0.000    0.000    0.000    0.000    0.000    0.000 
#
# Total GULP energy -178345.727700 kJ/mol
# GULP energy per Si atom -5573.303991 kJ/mol
# Density = 1.838497 g / cm^3
# Si number density = 18.426912 Si / 1000 Ang^3
#
#
#
# Elastic Constant Matrix: (Units=GPa)
#
#
# Indices 1 2 3 4 5 6 
#
# 1 71.6366 37.7897 10.3643 0.0000 0.0000 0.0000
# 2 37.7897 73.5038 36.4524 0.0000 0.0000 0.0000
# 3 10.3643 36.4524 50.8933 0.0000 0.0000 0.0000
# 4 0.0000 0.0000 0.0000 26.2840 0.0000 0.0000
# 5 0.0000 0.0000 0.0000 0.0000 14.1986 0.0000
# 6 0.0000 0.0000 0.0000 0.0000 0.0000 13.6730
#
#
#
# Elastic Compliance Matrix: (Units=1/GPa)
#
#
# Indices 1 2 3 4 5 6 
#
# 1 0.019972 -0.012796 0.005098 0.000000 0.000000 0.000000
# 2 -0.012796 0.029298 -0.018379 0.000000 0.000000 0.000000
# 3 0.005098 -0.018379 0.031775 0.000000 0.000000 0.000000
# 4 0.000000 0.000000 0.000000 0.038046 0.000000 0.000000
# 5 0.000000 0.000000 0.000000 0.000000 0.070429 0.000000
# 6 0.000000 0.000000 0.000000 0.000000 0.000000 0.073137
#
#
# Mechanical properties :
#
#
# Convention : Reuss Voigt Hill
#
# Bulk Modulus (GPa) = 34.61327 40.58295 37.59811
# Shear Modulus (GPa) = 15.41110 18.25961 16.83535
#
# Velocity S-wave (km/s) = 2.89509 3.15130 3.02591
# Velocity P-wave (km/s) = 5.47725 5.94243 5.71457
#
# Compressibility (1/GPa) = 0.02889066
#
# Stress axis : x y z
#
# Youngs Moduli (GPa) = 50.06992 34.13187 31.47165
#
# Poissons Ratio (x) = 0.43676 -0.16045
# Poissons Ratio (y) = 0.64071 0.57841
# Poissons Ratio (z) = -0.25526 0.62731
#
# Static dielectric constant tensor:
#      x y z
#    x 1.611940 0.000000 0.000000 
#    y 0.000000 1.620330 0.000000 
#    z 0.000000 0.000000 1.671270 
# 
# From -- ./inp_files/30020.got.cif
#   From: 2010.05.17/outbox.cif.g08.bks.cpg/sg42_16_cif.got.tgz:30020.got - 2010.06.03 19:03:34.
