data_PCOD9368909
_publ_section_title
;
Structure prediction by ZEFSAII (Michael W. Deem and Ramdas Pophale) SiO2 
 PCOD9368909
Probable space group: F M M 2
;
_chemical_formula_sum "Si O2"
_cell_formula_units_Z 80
_cell_length_a 18.217207
_cell_length_b 29.537848
_cell_length_c 9.117822
_cell_angle_alpha 90.000000
_cell_angle_beta 90.000000
_cell_angle_gamma 90.000000
_cell_volume 4906.273498
_symmetry_space_group_name_H-M "F M M 2"
_symmetry_group_IT_number 42
_symmetry_cell_setting 'orthorhombic'
loop_
_space_group_symop_operation_xyz
x,y,z
-x,-y,z
-x,y,z
x,-y,z
x,1/2+y,1/2+z
-x,1/2-y,1/2+z
-x,1/2+y,1/2+z
x,1/2-y,1/2+z
1/2+x,y,1/2+z
1/2-x,-y,1/2+z
1/2-x,y,1/2+z
1/2+x,-y,1/2+z
1/2+x,1/2+y,z
1/2-x,1/2-y,z
1/2-x,1/2+y,z
1/2+x,1/2-y,z
loop_
_atom_site_type_symbol
_atom_site_label
_atom_site_fract_x
_atom_site_fract_y
_atom_site_fract_z
Si Si1 0.175319 0.623175 0.510480
Si Si2 0.175316 0.876824 0.677530
Si Si3 0.087456 0.202448 0.517899
Si Si4 0.587456 0.202445 0.670109
Si Si5 0.412720 0.446698 0.844005
O O1 0.192106 0.639471 0.344005
O O2 0.250002 0.612152 0.594004
O O3 0.131696 0.661757 0.596547
O O4 0.124433 0.579267 0.481323
O O5 0.131695 0.838239 0.591466
O O6 0.124426 0.920730 0.706685
O O7 0.100993 0.204713 0.344003
O O8 0.107124 0.250002 0.594001
O O9 0.000000 0.195513 0.540656
O O10 0.500000 0.195510 0.647352
O O11 0.500000 0.439570 0.844016
O O12 0.397744 0.500000 0.843998
#
# Coordination Sequence:
#
# PCOD9368909 Si02
#       5
#    16  16  16  16  16
#     4  10  21  35  56  82 116 148 189 234 288 337
#     4  10  21  35  56  82 116 148 189 234 288 337
#     4  10  20  34  55  82 115 156 197 235 280 338
#     4  10  20  34  55  82 115 156 197 235 280 338
#     4   9  20  38  62  85 109 149 195 238 287 344
#
# _framework density 16.305655000000002
#
# number of rings (size 3 to 8) (size 9 to 14) (size 15 to 20)
#    1.200    1.000    0.000    3.600    0.000    3.200 
#    0.000    4.000    0.000    0.000    0.000    8.400 
#    0.000    0.000    0.000    0.000    0.000    0.000 
#
# Total GULP energy -111402.278019 kJ/mol
# GULP energy per Si atom -5570.113901 kJ/mol
# Density = 1.626854 g / cm^3
# Si number density = 16.305655 Si / 1000 Ang^3
#
#
#
# Elastic Constant Matrix: (Units=GPa)
#
#
# Indices 1 2 3 4 5 6 
#
# 1 108.7606 99.0106 67.2546 0.0000 0.0000 0.0000
# 2 99.0106 154.8628 64.4522 0.0000 0.0000 0.0000
# 3 67.2546 64.4522 103.5688 0.0000 0.0000 0.0000
# 4 0.0000 0.0000 0.0000 22.0877 0.0000 0.0000
# 5 0.0000 0.0000 0.0000 0.0000 36.0768 0.0000
# 6 0.0000 0.0000 0.0000 0.0000 0.0000 -7.3947
#
#
#
# Elastic Compliance Matrix: (Units=1/GPa)
#
#
# Indices 1 2 3 4 5 6 
#
# 1 0.027309 -0.013602 -0.009269 0.000000 0.000000 0.000000
# 2 -0.013602 0.015489 -0.000806 0.000000 0.000000 0.000000
# 3 -0.009269 -0.000806 0.016176 0.000000 0.000000 0.000000
# 4 0.000000 0.000000 0.000000 0.045274 0.000000 0.000000
# 5 0.000000 0.000000 0.000000 0.000000 0.027719 0.000000
# 6 0.000000 0.000000 0.000000 0.000000 0.000000 -0.135231
#
#
# Mechanical properties :
#
#
# Convention : Reuss Voigt Hill
#
# Bulk Modulus (GPa) = 86.06083 92.06968 89.06525
# Shear Modulus (GPa) = 104.24550 19.25228 61.74889
#
# Velocity S-wave (km/s) = 8.00443 3.43988 6.16051
# Velocity P-wave (km/s) = 11.76105 8.50673 10.26369
#
# Compressibility (1/GPa) = 0.01161969
#
# Stress axis : x y z
#
# Youngs Moduli (GPa) = 36.61809 64.56013 61.81945
#
# Poissons Ratio (x) = 0.87816 0.57299
# Poissons Ratio (y) = 0.49809 0.04985
# Poissons Ratio (z) = 0.33941 0.05206
#
# Static dielectric constant tensor:
#      x y z
#    x 1.540030 0.000000 0.000000 
#    y 0.000000 1.514730 0.000000 
#    z 0.000000 0.000000 1.537510 
# 
# From -- ./inp_files/3577.got.cif
#   From: 2010.05.17/outbox.cif.g08.bks.cpg/sg42_2_cif.got.tgz:3577.got - 2010.06.03 19:03:34.
