data_PCOD9368950
_publ_section_title
;
Structure prediction by ZEFSAII (Michael W. Deem and Ramdas Pophale) SiO2 
 PCOD9368950
Probable space group: F M M 2
;
_chemical_formula_sum "Si O2"
_cell_formula_units_Z 80
_cell_length_a 19.535468
_cell_length_b 8.716696
_cell_length_c 26.804931
_cell_angle_alpha 90.000000
_cell_angle_beta 90.000000
_cell_angle_gamma 90.000000
_cell_volume 4564.470593
_symmetry_space_group_name_H-M "F M M 2"
_symmetry_group_IT_number 42
_symmetry_cell_setting 'orthorhombic'
loop_
_space_group_symop_operation_xyz
x,y,z
-x,-y,z
-x,y,z
x,-y,z
x,1/2+y,1/2+z
-x,1/2-y,1/2+z
-x,1/2+y,1/2+z
x,1/2-y,1/2+z
1/2+x,y,1/2+z
1/2-x,-y,1/2+z
1/2-x,y,1/2+z
1/2+x,-y,1/2+z
1/2+x,1/2+y,z
1/2-x,1/2-y,z
1/2-x,1/2+y,z
1/2+x,1/2-y,z
loop_
_atom_site_type_symbol
_atom_site_label
_atom_site_fract_x
_atom_site_fract_y
_atom_site_fract_z
Si Si1 0.580711 0.314227 0.642460
Si Si2 0.173804 0.185144 0.836349
Si Si3 0.826265 0.183333 0.229791
Si Si4 0.083098 0.678023 0.031955
Si Si5 0.078598 0.684228 0.427893
O O1 0.500000 0.277809 0.647971
O O2 0.586688 0.500000 0.644596
O O3 0.624836 0.238430 0.685569
O O4 0.604337 0.264972 0.586764
O O5 0.250000 0.250000 0.844158
O O6 0.149567 0.249606 0.783043
O O7 0.125306 0.234163 0.881845
O O8 0.176010 0.000000 0.834067
O O9 0.750000 0.250000 0.221747
O O10 0.822980 0.000000 0.232345
O O11 0.102623 0.500000 0.027643
O O12 0.000000 0.684767 0.032938
O O13 0.105233 0.763801 0.982045
O O14 0.077096 0.500000 0.427329
O O15 0.000000 0.739481 0.422258
#
# Coordination Sequence:
#
# PCOD9368950 Si02
#       5
#    16  16  16  16  16
#     4   9  18  34  55  78 105 136 169 207 253 302
#     4  10  20  35  53  72  98 133 169 205 252 304
#     4  11  22  36  54  75 101 134 172 212 257 305
#     4   8  15  29  50  75 102 132 163 198 245 296
#     4   9  18  32  51  75 101 130 165 204 246 293
#
# _framework density 17.526678
#
# number of rings (size 3 to 8) (size 9 to 14) (size 15 to 20)
#    0.000    2.600    0.000    4.800    0.000    3.600 
#    0.000    5.000    0.000    2.400    0.000    0.000 
#    0.000    0.000    0.000    0.000    0.000    0.000 
#
# Total GULP energy -111495.908033 kJ/mol
# GULP energy per Si atom -5574.795402 kJ/mol
# Density = 1.748679 g / cm^3
# Si number density = 17.526678 Si / 1000 Ang^3
#
#
#
# Elastic Constant Matrix: (Units=GPa)
#
#
# Indices 1 2 3 4 5 6 
#
# 1 48.2718 29.4516 82.5109 0.0000 0.0000 0.0000
# 2 29.4516 55.1125 55.8392 0.0000 0.0000 0.0000
# 3 82.5109 55.8392 210.2949 0.0000 0.0000 0.0000
# 4 0.0000 0.0000 0.0000 34.0808 0.0000 0.0000
# 5 0.0000 0.0000 0.0000 0.0000 -77.4270 0.0000
# 6 0.0000 0.0000 0.0000 0.0000 0.0000 22.9886
#
#
#
# Elastic Compliance Matrix: (Units=1/GPa)
#
#
# Indices 1 2 3 4 5 6 
#
# 1 0.069033 -0.012925 -0.023654 0.000000 0.000000 0.000000
# 2 -0.012925 0.027243 -0.002162 0.000000 0.000000 0.000000
# 3 -0.023654 -0.002162 0.014610 0.000000 0.000000 0.000000
# 4 0.000000 0.000000 0.000000 0.029342 0.000000 0.000000
# 5 0.000000 0.000000 0.000000 0.000000 -0.012915 0.000000
# 6 0.000000 0.000000 0.000000 0.000000 0.000000 0.043500
#
#
# Mechanical properties :
#
#
# Convention : Reuss Voigt Hill
#
# Bulk Modulus (GPa) = 29.93686 72.14249 51.03968
# Shear Modulus (GPa) = 19.27302 5.65364 12.46333
#
# Velocity S-wave (km/s) = 3.31968 1.79798 2.66955
# Velocity P-wave (km/s) = 5.64017 6.74990 6.21984
#
# Compressibility (1/GPa) = 0.03340364
#
# Stress axis : x y z
#
# Youngs Moduli (GPa) = 14.48573 36.70715 68.44522
#
# Poissons Ratio (x) = 0.47444 1.61900
# Poissons Ratio (y) = 0.18723 0.14801
# Poissons Ratio (z) = 0.34264 0.07938
#
# Static dielectric constant tensor:
#      x y z
#    x 1.580970 0.000000 0.000000 
#    y 0.000000 1.593480 0.000000 
#    z 0.000000 0.000000 1.605160 
# 
# From -- ./inp_files/31263.got.cif
#   From: 2010.05.17/outbox.cif.g08.bks.cpg/sg42_16_cif.got.tgz:31263.got - 2010.06.03 19:03:34.
