data_PCOD9368485
_publ_section_title
;
Structure prediction by ZEFSAII (Michael W. Deem and Ramdas Pophale) SiO2 
 PCOD9368485
Probable space group: F M M 2
;
_chemical_formula_sum "Si O2"
_cell_formula_units_Z 80
_cell_length_a 16.042005
_cell_length_b 8.464667
_cell_length_c 29.835988
_cell_angle_alpha 90.000000
_cell_angle_beta 90.000000
_cell_angle_gamma 90.000000
_cell_volume 4051.435683
_symmetry_space_group_name_H-M "F M M 2"
_symmetry_group_IT_number 42
_symmetry_cell_setting 'orthorhombic'
loop_
_space_group_symop_operation_xyz
x,y,z
-x,-y,z
-x,y,z
x,-y,z
x,1/2+y,1/2+z
-x,1/2-y,1/2+z
-x,1/2+y,1/2+z
x,1/2-y,1/2+z
1/2+x,y,1/2+z
1/2-x,-y,1/2+z
1/2-x,y,1/2+z
1/2+x,-y,1/2+z
1/2+x,1/2+y,z
1/2-x,1/2-y,z
1/2-x,1/2+y,z
1/2+x,1/2-y,z
loop_
_atom_site_type_symbol
_atom_site_label
_atom_site_fract_x
_atom_site_fract_y
_atom_site_fract_z
Si Si1 0.500000 0.191594 0.101521
Si Si2 0.344311 0.309937 0.942927
Si Si3 0.593878 0.191856 0.346638
Si Si4 0.837670 0.189203 0.754369
Si Si5 0.500000 0.812188 0.702783
Si Si6 0.654824 0.810861 0.039590
O O1 0.500000 0.258644 0.151293
O O2 0.415537 0.239891 0.075158
O O3 0.500000 0.000000 0.103293
O O4 0.347176 0.500000 0.944711
O O5 0.250000 0.250000 0.939558
O O6 0.387332 0.254715 0.897039
O O7 0.375237 0.244623 0.990346
O O8 0.500000 0.235700 0.334350
O O9 0.651784 0.246590 0.306038
O O10 0.598665 0.000000 0.347795
O O11 0.750000 0.250000 0.736049
O O12 0.917370 0.246619 0.726878
O O13 0.837731 0.000000 0.754382
O O14 0.500000 0.000000 0.705935
O O15 0.750000 0.750000 0.046979
O O16 0.659269 0.000000 0.039749
#
# Coordination Sequence:
#
# PCOD9368485 Si02
#       6
#     8  16  16  16   8  16
#     4  10  24  44  65  86 117 157 194 247 313 364
#     4  10  19  32  54  82 118 157 199 242 288 346
#     4   9  18  33  55  85 120 161 202 243 293 349
#     4  11  22  41  67  91 125 165 204 252 306 361
#     4  12  26  44  65  94 123 153 204 255 309 376
#     4  10  21  39  61  87 120 156 198 243 296 356
#
# _framework density 19.746085999999998
#
# number of rings (size 3 to 8) (size 9 to 14) (size 15 to 20)
#    0.000    1.800    1.000    4.500    1.400    2.400 
#    0.000    5.000    0.000    0.000    0.000    0.000 
#    0.000    0.000    0.000    0.000    0.000    0.000 
#
# Total GULP energy -111657.142351 kJ/mol
# GULP energy per Si atom -5582.857118 kJ/mol
# Density = 1.970114 g / cm^3
# Si number density = 19.746086 Si / 1000 Ang^3
#
#
#
# Elastic Constant Matrix: (Units=GPa)
#
#
# Indices 1 2 3 4 5 6 
#
# 1 139.1879 33.5128 85.3130 0.0000 0.0000 0.0000
# 2 33.5128 50.9008 37.9886 0.0000 0.0000 0.0000
# 3 85.3130 37.9886 147.0322 0.0000 0.0000 0.0000
# 4 0.0000 0.0000 0.0000 25.1714 0.0000 0.0000
# 5 0.0000 0.0000 0.0000 0.0000 28.4317 0.0000
# 6 0.0000 0.0000 0.0000 0.0000 0.0000 22.4164
#
#
#
# Elastic Compliance Matrix: (Units=1/GPa)
#
#
# Indices 1 2 3 4 5 6 
#
# 1 0.011563 -0.003228 -0.005875 0.000000 0.000000 0.000000
# 2 -0.003228 0.025241 -0.004648 0.000000 0.000000 0.000000
# 3 -0.005875 -0.004648 0.011411 0.000000 0.000000 0.000000
# 4 0.000000 0.000000 0.000000 0.039728 0.000000 0.000000
# 5 0.000000 0.000000 0.000000 0.000000 0.035172 0.000000
# 6 0.000000 0.000000 0.000000 0.000000 0.000000 0.044610
#
#
# Mechanical properties :
#
#
# Convention : Reuss Voigt Hill
#
# Bulk Modulus (GPa) = 48.28250 72.30554 60.29402
# Shear Modulus (GPa) = 24.73641 27.22435 25.98038
#
# Velocity S-wave (km/s) = 3.54323 3.71714 3.63122
# Velocity P-wave (km/s) = 6.42215 7.42429 6.94133
#
# Compressibility (1/GPa) = 0.02071144
#
# Stress axis : x y z
#
# Youngs Moduli (GPa) = 86.48409 39.61870 87.63383
#
# Poissons Ratio (x) = 0.12790 0.51485
# Poissons Ratio (y) = 0.27919 0.40735
# Poissons Ratio (z) = 0.50810 0.18416
#
# Static dielectric constant tensor:
#      x y z
#    x 1.678800 0.000000 0.000000 
#    y 0.000000 1.671520 0.000000 
#    z 0.000000 0.000000 1.708470 
# 
# From -- ./inp_files/32761.got.cif
#   From: 2010.05.17/outbox.cif.g08.bks.cpg/sg42_17_cif.got.tgz:32761.got - 2010.06.03 19:03:34.
