data_PCOD9368657
_publ_section_title
;
Structure prediction by ZEFSAII (Michael W. Deem and Ramdas Pophale) SiO2 
 PCOD9368657
Probable space group: F M M 2
;
_chemical_formula_sum "Si O2"
_cell_formula_units_Z 80
_cell_length_a 7.763302
_cell_length_b 16.114670
_cell_length_c 30.268118
_cell_angle_alpha 90.000000
_cell_angle_beta 90.000000
_cell_angle_gamma 90.000000
_cell_volume 3786.633875
_symmetry_space_group_name_H-M "F M M 2"
_symmetry_group_IT_number 42
_symmetry_cell_setting 'orthorhombic'
loop_
_space_group_symop_operation_xyz
x,y,z
-x,-y,z
-x,y,z
x,-y,z
x,1/2+y,1/2+z
-x,1/2-y,1/2+z
-x,1/2+y,1/2+z
x,1/2-y,1/2+z
1/2+x,y,1/2+z
1/2-x,-y,1/2+z
1/2-x,y,1/2+z
1/2+x,-y,1/2+z
1/2+x,1/2+y,z
1/2-x,1/2-y,z
1/2-x,1/2+y,z
1/2+x,1/2-y,z
loop_
_atom_site_type_symbol
_atom_site_label
_atom_site_fract_x
_atom_site_fract_y
_atom_site_fract_z
Si Si1 0.706746 0.159586 0.918170
Si Si2 0.204466 0.846448 0.700757
Si Si3 0.296598 0.000000 0.762670
Si Si4 0.711966 0.000000 0.862844
Si Si5 0.291224 0.905417 0.009019
Si Si6 0.207218 0.846743 0.603073
O O1 0.500000 0.152720 0.920156
O O2 0.750000 0.250000 0.900173
O O3 0.767794 0.082782 0.888645
O O4 0.773062 0.150414 0.968625
O O5 0.250000 0.750000 0.710582
O O6 0.251763 0.916423 0.735960
O O7 0.274351 0.870538 0.651765
O O8 0.000000 0.847502 0.697248
O O9 0.500000 0.000000 0.767228
O O10 0.225437 0.000000 0.812418
O O11 0.500000 0.000000 0.863106
O O12 0.500000 0.896056 0.011200
O O13 0.225336 0.888409 0.058348
O O14 0.255788 0.000000 0.996491
O O15 0.250000 0.750000 0.598674
O O16 0.000000 0.859202 0.603589
#
# Coordination Sequence:
#
# PCOD9368657 Si02
#       6
#    16  16   8   8  16  16
#     4  10  19  35  58  82 108 142 180 220 268 324
#     4  10  21  38  59  85 116 150 189 233 280 335
#     4  11  23  39  60  83 111 147 189 239 290 339
#     4   9  20  39  58  79 107 141 183 225 274 335
#     4   9  16  28  51  79 107 143 182 215 256 320
#     4   9  18  31  51  77 108 142 180 220 263 319
#
# _framework density 21.126944999999999
#
# number of rings (size 3 to 8) (size 9 to 14) (size 15 to 20)
#    0.000    2.400    1.000    1.500    1.400    1.600 
#    0.000    4.500    0.000    1.200    0.000    0.000 
#    0.000    0.000    0.000    0.000    0.000    0.000 
#
# Total GULP energy -111567.805020 kJ/mol
# GULP energy per Si atom -5578.390251 kJ/mol
# Density = 2.107886 g / cm^3
# Si number density = 21.126945 Si / 1000 Ang^3
#
#
#
# Elastic Constant Matrix: (Units=GPa)
#
#
# Indices 1 2 3 4 5 6 
#
# 1 33.6095 1.7004 13.2856 0.0000 0.0000 0.0000
# 2 1.7004 143.2486 104.7060 0.0000 0.0000 0.0000
# 3 13.2856 104.7060 168.1629 0.0000 0.0000 0.0000
# 4 0.0000 0.0000 0.0000 16.2789 0.0000 0.0000
# 5 0.0000 0.0000 0.0000 0.0000 9.4467 0.0000
# 6 0.0000 0.0000 0.0000 0.0000 0.0000 26.9526
#
#
#
# Elastic Compliance Matrix: (Units=1/GPa)
#
#
# Indices 1 2 3 4 5 6 
#
# 1 0.031244 0.002631 -0.004106 0.000000 0.000000 0.000000
# 2 0.002631 0.013033 -0.008323 0.000000 0.000000 0.000000
# 3 -0.004106 -0.008323 0.011453 0.000000 0.000000 0.000000
# 4 0.000000 0.000000 0.000000 0.061429 0.000000 0.000000
# 5 0.000000 0.000000 0.000000 0.000000 0.105857 0.000000
# 6 0.000000 0.000000 0.000000 0.000000 0.000000 0.037102
#
#
# Mechanical properties :
#
#
# Convention : Reuss Voigt Hill
#
# Bulk Modulus (GPa) = 27.67567 64.93389 46.30478
# Shear Modulus (GPa) = 17.13739 25.55757 21.34748
#
# Velocity S-wave (km/s) = 2.85118 3.48187 3.18219
# Velocity P-wave (km/s) = 4.89562 6.85320 5.95540
#
# Compressibility (1/GPa) = 0.03613282
#
# Stress axis : x y z
#
# Youngs Moduli (GPa) = 32.00654 76.72732 87.31148
#
# Poissons Ratio (x) = -0.20184 0.35853
# Poissons Ratio (y) = -0.08420 0.72668
# Poissons Ratio (z) = 0.13143 0.63859
#
# Static dielectric constant tensor:
#      x y z
#    x 1.805450 0.000000 0.000000 
#    y 0.000000 1.691930 0.000000 
#    z 0.000000 0.000000 1.812580 
# 
# From -- ./inp_files/28660.got.cif
#   From: 2010.05.17/outbox.cif.g08.bks.cpg/sg42_15_cif.got.tgz:28660.got - 2010.06.03 19:03:34.
