data_PCOD9368431
_publ_section_title
;
Structure prediction by ZEFSAII (Michael W. Deem and Ramdas Pophale) SiO2 
 PCOD9368431
Probable space group: F M M 2
;
_chemical_formula_sum "Si O2"
_cell_formula_units_Z 96
_cell_length_a 26.150935
_cell_length_b 8.697815
_cell_length_c 23.932331
_cell_angle_alpha 90.000000
_cell_angle_beta 90.000000
_cell_angle_gamma 90.000000
_cell_volume 5443.552153
_symmetry_space_group_name_H-M "F M M 2"
_symmetry_group_IT_number 42
_symmetry_cell_setting 'orthorhombic'
loop_
_space_group_symop_operation_xyz
x,y,z
-x,-y,z
-x,y,z
x,-y,z
x,1/2+y,1/2+z
-x,1/2-y,1/2+z
-x,1/2+y,1/2+z
x,1/2-y,1/2+z
1/2+x,y,1/2+z
1/2-x,-y,1/2+z
1/2-x,y,1/2+z
1/2+x,-y,1/2+z
1/2+x,1/2+y,z
1/2-x,1/2-y,z
1/2-x,1/2+y,z
1/2+x,1/2-y,z
loop_
_atom_site_type_symbol
_atom_site_label
_atom_site_fract_x
_atom_site_fract_y
_atom_site_fract_z
Si Si1 0.805190 0.683465 0.800560
Si Si2 0.000000 0.815452 0.435117
Si Si3 0.412630 0.183952 0.847171
Si Si4 0.500000 0.685301 0.058636
Si Si5 0.559565 0.829147 0.231356
Si Si6 0.305270 0.181870 0.176488
Si Si7 0.099510 0.321694 0.626434
O O1 0.801021 0.500000 0.793564
O O2 0.750000 0.750000 0.817376
O O3 0.851521 0.714134 0.843921
O O4 0.817689 0.754410 0.739258
O O5 0.051334 0.776648 0.399649
O O6 0.000000 0.734009 0.494558
O O7 0.000000 0.000000 0.443115
O O8 0.433262 0.277623 0.794485
O O9 0.419150 0.000000 0.838052
O O10 0.500000 0.500000 0.064521
O O11 0.447266 0.739065 0.088374
O O12 0.500000 0.840595 0.219771
O O13 0.579972 0.700832 0.189668
O O14 0.582466 0.000000 0.221154
O O15 0.250000 0.250000 0.162445
O O16 0.347119 0.232247 0.130739
O O17 0.301693 0.000000 0.179935
O O18 0.108442 0.500000 0.613409
#
# Coordination Sequence:
#
# PCOD9368431 Si02
#       7
#    16   8  16   8  16  16  16
#     4  10  19  31  49  76 111 148 181 213 258 318
#     4  10  22  39  58  79 103 138 184 234 279 322
#     4  10  20  34  54  77 107 146 180 215 269 329
#     4  10  24  41  58  79 105 142 184 230 283 328
#     4  11  21  30  47  80 112 140 176 218 267 326
#     4  11  21  33  51  80 114 148 183 218 267 322
#     4  11  21  36  55  77 109 147 182 222 274 331
#
# _framework density 17.635543999999999
#
# number of rings (size 3 to 8) (size 9 to 14) (size 15 to 20)
#    0.000    1.500    3.333    4.000    0.000    3.333 
#    0.000    0.000    0.000    1.000    0.000    4.667 
#    0.000    0.000    0.000    0.000    0.000    0.000 
#
# Total GULP energy -133791.879447 kJ/mol
# GULP energy per Si atom -5574.661644 kJ/mol
# Density = 1.759540 g / cm^3
# Si number density = 17.635544 Si / 1000 Ang^3
#
#
#
# Elastic Constant Matrix: (Units=GPa)
#
#
# Indices 1 2 3 4 5 6 
#
# 1 157.6553 45.0799 49.4507 0.0000 0.0000 0.0000
# 2 45.0799 58.1037 17.8347 0.0000 0.0000 0.0000
# 3 49.4507 17.8347 68.0127 0.0000 0.0000 0.0000
# 4 0.0000 0.0000 0.0000 23.0704 0.0000 0.0000
# 5 0.0000 0.0000 0.0000 0.0000 12.4132 0.0000
# 6 0.0000 0.0000 0.0000 0.0000 0.0000 21.3726
#
#
#
# Elastic Compliance Matrix: (Units=1/GPa)
#
#
# Indices 1 2 3 4 5 6 
#
# 1 0.009766 -0.005870 -0.005561 0.000000 0.000000 0.000000
# 2 -0.005870 0.022245 -0.001566 0.000000 0.000000 0.000000
# 3 -0.005561 -0.001566 0.019157 0.000000 0.000000 0.000000
# 4 0.000000 0.000000 0.000000 0.043346 0.000000 0.000000
# 5 0.000000 0.000000 0.000000 0.000000 0.080560 0.000000
# 6 0.000000 0.000000 0.000000 0.000000 0.000000 0.046789
#
#
# Mechanical properties :
#
#
# Convention : Reuss Voigt Hill
#
# Bulk Modulus (GPa) = 39.72188 56.50024 48.11106
# Shear Modulus (GPa) = 19.51245 22.79833 21.15539
#
# Velocity S-wave (km/s) = 3.32991 3.59938 3.46726
# Velocity P-wave (km/s) = 6.11204 7.02719 6.58553
#
# Compressibility (1/GPa) = 0.02517504
#
# Stress axis : x y z
#
# Youngs Moduli (GPa) = 102.39917 44.95353 52.19990
#
# Poissons Ratio (x) = 0.26387 0.29030
# Poissons Ratio (y) = 0.60106 0.08172
# Poissons Ratio (z) = 0.56947 0.07037
#
# Static dielectric constant tensor:
#      x y z
#    x 1.678200 0.000000 0.000000 
#    y 0.000000 1.622410 0.000000 
#    z 0.000000 0.000000 1.556330 
# 
# From -- ./inp_files/30630.got.cif
#   From: 2010.05.17/outbox.cif.g08.bks.cpg/sg42_16_cif.got.tgz:30630.got - 2010.06.03 19:03:34.
