data_PCOD9368589
_publ_section_title
;
Structure prediction by ZEFSAII (Michael W. Deem and Ramdas Pophale) SiO2 
 PCOD9368589
Probable space group: F M M 2
;
_chemical_formula_sum "Si O2"
_cell_formula_units_Z 80
_cell_length_a 26.768452
_cell_length_b 8.755059
_cell_length_c 19.195327
_cell_angle_alpha 90.000000
_cell_angle_beta 90.000000
_cell_angle_gamma 90.000000
_cell_volume 4498.604869
_symmetry_space_group_name_H-M "F M M 2"
_symmetry_group_IT_number 42
_symmetry_cell_setting 'orthorhombic'
loop_
_space_group_symop_operation_xyz
x,y,z
-x,-y,z
-x,y,z
x,-y,z
x,1/2+y,1/2+z
-x,1/2-y,1/2+z
-x,1/2+y,1/2+z
x,1/2-y,1/2+z
1/2+x,y,1/2+z
1/2-x,-y,1/2+z
1/2-x,y,1/2+z
1/2+x,-y,1/2+z
1/2+x,1/2+y,z
1/2-x,1/2-y,z
1/2-x,1/2+y,z
1/2+x,1/2-y,z
loop_
_atom_site_type_symbol
_atom_site_label
_atom_site_fract_x
_atom_site_fract_y
_atom_site_fract_z
Si Si1 0.696416 0.818550 0.182740
Si Si2 0.892110 0.184619 0.091852
Si Si3 0.696114 0.818298 0.348347
Si Si4 0.000000 0.676430 0.431627
Si Si5 0.894367 0.317679 0.936612
Si Si6 0.500000 0.324071 0.101198
O O1 0.750000 0.750000 0.162173
O O2 0.652548 0.739445 0.140026
O O3 0.690254 0.791472 0.265481
O O4 0.695930 0.000000 0.170667
O O5 0.946120 0.241572 0.120757
O O6 0.893658 0.000000 0.087633
O O7 0.886527 0.250293 0.014137
O O8 0.750000 0.750000 0.369125
O O9 0.650675 0.741179 0.388948
O O10 0.695913 0.000000 0.360646
O O11 0.948463 0.757410 0.410739
O O12 0.000000 0.677220 0.516531
O O13 0.000000 0.500000 0.409429
O O14 0.895046 0.500000 0.939489
O O15 0.500000 0.500000 0.124879
#
# Coordination Sequence:
#
# PCOD9368589 Si02
#       6
#    16  16  16   8  16   8
#     4  10  21  37  56  78 105 139 178 220 268 320
#     4  10  19  34  56  80 108 141 177 217 263 313
#     4  10  21  38  57  77 105 141 179 221 271 322
#     4   9  17  33  54  77 108 143 177 215 265 315
#     4  11  21  34  55  83 111 140 179 221 263 315
#     4   7  14  29  50  75 102 135 169 205 253 305
#
# _framework density 17.783290999999998
#
# number of rings (size 3 to 8) (size 9 to 14) (size 15 to 20)
#    0.000    2.200    0.000    5.100    0.000    3.200 
#    0.000    6.500    0.000    4.800    0.000    0.000 
#    0.000    0.000    0.000    0.000    0.000    0.000 
#
# Total GULP energy -111581.106449 kJ/mol
# GULP energy per Si atom -5579.055322 kJ/mol
# Density = 1.774282 g / cm^3
# Si number density = 17.783291 Si / 1000 Ang^3
#
#
#
# Elastic Constant Matrix: (Units=GPa)
#
#
# Indices 1 2 3 4 5 6 
#
# 1 219.2367 93.6546 71.7581 0.0000 0.0000 0.0000
# 2 93.6546 117.2952 50.3091 0.0000 0.0000 0.0000
# 3 71.7581 50.3091 37.1422 0.0000 0.0000 0.0000
# 4 0.0000 0.0000 0.0000 23.9194 0.0000 0.0000
# 5 0.0000 0.0000 0.0000 0.0000 215.9380 0.0000
# 6 0.0000 0.0000 0.0000 0.0000 0.0000 35.2011
#
#
#
# Elastic Compliance Matrix: (Units=1/GPa)
#
#
# Indices 1 2 3 4 5 6 
#
# 1 0.012446 0.000897 -0.025261 0.000000 0.000000 0.000000
# 2 0.000897 0.020410 -0.029378 0.000000 0.000000 0.000000
# 3 -0.025261 -0.029378 0.115519 0.000000 0.000000 0.000000
# 4 0.000000 0.000000 0.000000 0.041807 0.000000 0.000000
# 5 0.000000 0.000000 0.000000 0.000000 0.004631 0.000000
# 6 0.000000 0.000000 0.000000 0.000000 0.000000 0.028408
#
#
# Mechanical properties :
#
#
# Convention : Reuss Voigt Hill
#
# Bulk Modulus (GPa) = 24.45478 89.45754 56.95616
# Shear Modulus (GPa) = 14.52073 65.54184 40.03128
#
# Velocity S-wave (km/s) = 2.86061 6.07749 4.74968
# Velocity P-wave (km/s) = 4.96913 9.98305 7.88522
#
# Compressibility (1/GPa) = 0.04089180
#
# Stress axis : x y z
#
# Youngs Moduli (GPa) = 80.34586 48.99593 8.65658
#
# Poissons Ratio (x) = -0.04394 0.21867
# Poissons Ratio (y) = -0.07206 0.25431
# Poissons Ratio (z) = 2.02959 1.43940
#
# Static dielectric constant tensor:
#      x y z
#    x 1.613390 0.000000 0.000000 
#    y 0.000000 1.596460 0.000000 
#    z 0.000000 0.000000 1.579480 
# 
# From -- ./inp_files/18239.got.cif
#   From: 2010.05.17/outbox.cif.g08.bks.cpg/sg42_10_cif.got.tgz:18239.got - 2010.06.03 19:03:34.
