data_PCOD9368222
_publ_section_title
;
Structure prediction by ZEFSAII (Michael W. Deem and Ramdas Pophale) SiO2 
 PCOD9368222
Probable space group: F M M 2
;
_chemical_formula_sum "Si O2"
_cell_formula_units_Z 104
_cell_length_a 9.019486
_cell_length_b 26.291885
_cell_length_c 25.284640
_cell_angle_alpha 90.000000
_cell_angle_beta 90.000000
_cell_angle_gamma 90.000000
_cell_volume 5995.981544
_symmetry_space_group_name_H-M "F M M 2"
_symmetry_group_IT_number 42
_symmetry_cell_setting 'orthorhombic'
loop_
_space_group_symop_operation_xyz
x,y,z
-x,-y,z
-x,y,z
x,-y,z
x,1/2+y,1/2+z
-x,1/2-y,1/2+z
-x,1/2+y,1/2+z
x,1/2-y,1/2+z
1/2+x,y,1/2+z
1/2-x,-y,1/2+z
1/2-x,y,1/2+z
1/2+x,-y,1/2+z
1/2+x,1/2+y,z
1/2-x,1/2-y,z
1/2-x,1/2+y,z
1/2+x,1/2-y,z
loop_
_atom_site_type_symbol
_atom_site_label
_atom_site_fract_x
_atom_site_fract_y
_atom_site_fract_z
Si Si1 0.175895 0.195599 0.639870
Si Si2 0.335225 0.500000 0.945622
Si Si3 0.332277 0.000000 0.210247
Si Si4 0.824676 0.196028 0.513925
Si Si5 0.320966 0.891740 0.710087
Si Si6 0.821298 0.112328 0.940178
Si Si7 0.834488 0.887048 0.330257
Si Si8 0.750403 0.000000 0.828594
O O1 0.250000 0.250000 0.652890
O O2 0.194100 0.187594 0.576819
O O3 0.255182 0.150362 0.671208
O O4 0.000000 0.196809 0.651363
O O5 0.500000 0.500000 0.969289
O O6 0.266283 0.555240 0.956406
O O7 0.344741 0.500000 0.881780
O O8 0.246320 0.947597 0.197407
O O9 0.338515 0.000000 0.274171
O O10 0.500000 0.000000 0.188984
O O11 0.750000 0.250000 0.501191
O O12 0.745184 0.152638 0.480400
O O13 0.000000 0.197287 0.502537
O O14 0.500000 0.894244 0.707764
O O15 0.280666 0.875663 0.770725
O O16 0.766952 0.125076 0.880605
O O17 0.000000 0.111617 0.941058
O O18 0.000000 0.866042 0.337866
O O19 0.841394 0.948444 0.329632
#
# Coordination Sequence:
#
# PCOD9368222 Si02
#       8
#    16   8   8  16  16  16  16   8
#     4  10  21  38  60  81 101 131 173 221 269 318
#     4   8  15  27  44  71 105 137 169 204 247 297
#     4  10  18  29  49  76 108 144 180 218 259 307
#     4  10  21  38  59  80 101 130 171 218 265 313
#     4  10  20  34  53  79 111 144 178 217 262 312
#     4  10  19  32  52  78 108 141 176 214 256 305
#     4   9  17  29  47  73 106 141 175 212 255 304
#     4   8  14  24  43  69  99 137 179 214 248 292
#
# _framework density 17.344950000000001
#
# number of rings (size 3 to 8) (size 9 to 14) (size 15 to 20)
#    0.000    2.462    0.000    2.538    0.000    8.000 
#    0.000    2.692    0.000    7.385    0.000    0.000 
#    0.000    0.000    0.000    0.000    0.000    0.000 
#
# Total GULP energy -144808.561741 kJ/mol
# GULP energy per Si atom -5569.560067 kJ/mol
# Density = 1.730547 g / cm^3
# Si number density = 17.344950 Si / 1000 Ang^3
#
#
#
# Elastic Constant Matrix: (Units=GPa)
#
#
# Indices 1 2 3 4 5 6 
#
# 1 100.0781 62.9196 48.0726 0.0000 0.0000 0.0000
# 2 62.9196 141.8315 71.5117 0.0000 0.0000 0.0000
# 3 48.0726 71.5117 57.8409 0.0000 0.0000 0.0000
# 4 0.0000 0.0000 0.0000 37.1233 0.0000 0.0000
# 5 0.0000 0.0000 0.0000 0.0000 16.7850 0.0000
# 6 0.0000 0.0000 0.0000 0.0000 0.0000 13.8019
#
#
#
# Elastic Compliance Matrix: (Units=1/GPa)
#
#
# Indices 1 2 3 4 5 6 
#
# 1 0.016695 -0.001089 -0.012529 0.000000 0.000000 0.000000
# 2 -0.001089 0.018791 -0.022327 0.000000 0.000000 0.000000
# 3 -0.012529 -0.022327 0.055307 0.000000 0.000000 0.000000
# 4 0.000000 0.000000 0.000000 0.026937 0.000000 0.000000
# 5 0.000000 0.000000 0.000000 0.000000 0.059577 0.000000
# 6 0.000000 0.000000 0.000000 0.000000 0.000000 0.072454
#
#
# Mechanical properties :
#
#
# Convention : Reuss Voigt Hill
#
# Bulk Modulus (GPa) = 52.90544 73.86203 63.38373
# Shear Modulus (GPa) = 15.24606 21.35848 18.30227
#
# Velocity S-wave (km/s) = 2.96799 3.51293 3.25190
# Velocity P-wave (km/s) = 6.50488 7.68966 7.12195
#
# Compressibility (1/GPa) = 0.01890165
#
# Stress axis : x y z
#
# Youngs Moduli (GPa) = 59.89678 53.21587 18.08103
#
# Poissons Ratio (x) = 0.05796 0.22654
# Poissons Ratio (y) = 0.06524 0.40370
# Poissons Ratio (z) = 0.75046 1.18818
#
# Static dielectric constant tensor:
#      x y z
#    x 1.610960 0.000000 0.000000 
#    y 0.000000 1.581100 0.000000 
#    z 0.000000 0.000000 1.581720 
# 
# From -- ./inp_files/31714.got.cif
#   From: 2010.05.17/outbox.cif.g08.bks.cpg/sg42_16_cif.got.tgz:31714.got - 2010.06.03 19:03:34.
