data_PCOD9368435
_publ_section_title
;
Structure prediction by ZEFSAII (Michael W. Deem and Ramdas Pophale) SiO2 
 PCOD9368435
Probable space group: F M M 2
;
_chemical_formula_sum "Si O2"
_cell_formula_units_Z 96
_cell_length_a 22.803609
_cell_length_b 20.471843
_cell_length_c 10.634311
_cell_angle_alpha 90.000000
_cell_angle_beta 90.000000
_cell_angle_gamma 90.000000
_cell_volume 4964.435644
_symmetry_space_group_name_H-M "F M M 2"
_symmetry_group_IT_number 42
_symmetry_cell_setting 'orthorhombic'
loop_
_space_group_symop_operation_xyz
x,y,z
-x,-y,z
-x,y,z
x,-y,z
x,1/2+y,1/2+z
-x,1/2-y,1/2+z
-x,1/2+y,1/2+z
x,1/2-y,1/2+z
1/2+x,y,1/2+z
1/2-x,-y,1/2+z
1/2-x,y,1/2+z
1/2+x,-y,1/2+z
1/2+x,1/2+y,z
1/2-x,1/2-y,z
1/2-x,1/2+y,z
1/2+x,1/2-y,z
loop_
_atom_site_type_symbol
_atom_site_label
_atom_site_fract_x
_atom_site_fract_y
_atom_site_fract_z
Si Si1 0.111890 0.242613 0.172280
Si Si2 0.933478 0.924765 0.407468
Si Si3 0.067619 0.101470 0.135870
Si Si4 0.146942 0.426507 0.396409
Si Si5 0.932070 0.116667 0.668431
Si Si6 0.815275 0.277386 0.417488
O O1 0.072476 0.179207 0.150301
O O2 0.072176 0.306269 0.188759
O O3 0.150726 0.244682 0.299332
O O4 0.153008 0.241932 0.048303
O O5 0.906853 0.921628 0.269638
O O6 0.905929 0.892256 0.528603
O O7 0.000000 0.897216 0.393719
O O8 0.938094 0.000000 0.442052
O O9 0.000000 0.080476 0.122380
O O10 0.105290 0.077905 0.018774
O O11 0.174433 0.500000 0.394821
O O12 0.106115 0.419001 0.273244
O O13 0.182808 0.357358 0.401889
O O14 0.000000 0.094913 0.670856
O O15 0.750000 0.250000 0.419012
#
# Coordination Sequence:
#
# PCOD9368435 Si02
#       6
#    16  16  16  16  16  16
#     4  10  20  34  54  80 104 136 184 224 264 320
#     4   9  17  28  43  65  98 143 180 200 232 287
#     4  10  19  31  50  77 113 148 175 211 257 313
#     4  10  21  35  54  82 109 138 180 222 269 330
#     4  10  19  31  50  77 113 148 175 211 257 313
#     4  10  21  38  60  78 101 139 183 237 287 320
#
# _framework density 19.337544000000001
#
# number of rings (size 3 to 8) (size 9 to 14) (size 15 to 20)
#    0.000    2.167    0.000    3.500    0.000    2.667 
#    0.000    5.000    0.000   20.000    0.000    0.000 
#    0.000    0.000    0.000    0.000    0.000    0.000 
#
# Total GULP energy -133680.637723 kJ/mol
# GULP energy per Si atom -5570.026572 kJ/mol
# Density = 1.929353 g / cm^3
# Si number density = 19.337544 Si / 1000 Ang^3
#
#
#
# Elastic Constant Matrix: (Units=GPa)
#
#
# Indices 1 2 3 4 5 6 
#
# 1 56.3981 18.1519 29.4944 0.0000 0.0000 0.0000
# 2 18.1519 95.8457 8.1922 0.0000 0.0000 0.0000
# 3 29.4944 8.1922 120.3846 0.0000 0.0000 0.0000
# 4 0.0000 0.0000 0.0000 32.5203 0.0000 0.0000
# 5 0.0000 0.0000 0.0000 0.0000 11.3364 0.0000
# 6 0.0000 0.0000 0.0000 0.0000 0.0000 10.1988
#
#
#
# Elastic Compliance Matrix: (Units=1/GPa)
#
#
# Indices 1 2 3 4 5 6 
#
# 1 0.021535 -0.003649 -0.005028 0.000000 0.000000 0.000000
# 2 -0.003649 0.011113 0.000138 0.000000 0.000000 0.000000
# 3 -0.005028 0.000138 0.009529 0.000000 0.000000 0.000000
# 4 0.000000 0.000000 0.000000 0.030750 0.000000 0.000000
# 5 0.000000 0.000000 0.000000 0.000000 0.088212 0.000000
# 6 0.000000 0.000000 0.000000 0.000000 0.000000 0.098051
#
#
# Mechanical properties :
#
#
# Convention : Reuss Voigt Hill
#
# Bulk Modulus (GPa) = 39.84198 42.70062 41.27130
# Shear Modulus (GPa) = 17.56647 25.26375 21.41511
#
# Velocity S-wave (km/s) = 3.01726 3.61842 3.33143
# Velocity P-wave (km/s) = 5.72596 6.29182 6.01555
#
# Compressibility (1/GPa) = 0.02509916
#
# Stress axis : x y z
#
# Youngs Moduli (GPa) = 46.43653 89.98734 104.94119
#
# Poissons Ratio (x) = 0.32833 0.52762
# Poissons Ratio (y) = 0.16943 -0.01445
# Poissons Ratio (z) = 0.23347 -0.01239
#
# Static dielectric constant tensor:
#      x y z
#    x 1.656380 0.000000 0.000000 
#    y 0.000000 1.687590 0.000000 
#    z 0.000000 0.000000 1.703110 
# 
# From -- ./inp_files/4155.got.cif
#   From: 2010.05.17/outbox.cif.g08.bks.cpg/sg42_3_cif.got.tgz:4155.got - 2010.06.03 19:03:34.
