data_PCOD9368316
_publ_section_title
;
Structure prediction by ZEFSAII (Michael W. Deem and Ramdas Pophale) SiO2 
 PCOD9368316
Probable space group: F M M 2
;
_chemical_formula_sum "Si O2"
_cell_formula_units_Z 104
_cell_length_a 17.276858
_cell_length_b 14.692067
_cell_length_c 17.868132
_cell_angle_alpha 90.000000
_cell_angle_beta 90.000000
_cell_angle_gamma 90.000000
_cell_volume 4535.517177
_symmetry_space_group_name_H-M "F M M 2"
_symmetry_group_IT_number 42
_symmetry_cell_setting 'orthorhombic'
loop_
_space_group_symop_operation_xyz
x,y,z
-x,-y,z
-x,y,z
x,-y,z
x,1/2+y,1/2+z
-x,1/2-y,1/2+z
-x,1/2+y,1/2+z
x,1/2-y,1/2+z
1/2+x,y,1/2+z
1/2-x,-y,1/2+z
1/2-x,y,1/2+z
1/2+x,-y,1/2+z
1/2+x,1/2+y,z
1/2-x,1/2-y,z
1/2-x,1/2+y,z
1/2+x,1/2-y,z
loop_
_atom_site_type_symbol
_atom_site_label
_atom_site_fract_x
_atom_site_fract_y
_atom_site_fract_z
Si Si1 0.587002 0.389924 0.700690
Si Si2 0.622762 0.102934 0.793228
Si Si3 0.588596 0.888856 0.625286
Si Si4 0.789212 0.846637 0.826972
Si Si5 0.696976 0.889962 0.491397
Si Si6 0.372630 0.611260 0.530640
Si Si7 0.000000 0.667952 0.909283
O O1 0.500000 0.357246 0.717362
O O2 0.585474 0.500000 0.701090
O O3 0.649316 0.362615 0.762280
O O4 0.610690 0.363444 0.616573
O O5 0.620474 0.134793 0.707186
O O6 0.711071 0.094585 0.819891
O O7 0.568489 0.164326 0.844321
O O8 0.589233 0.000000 0.797492
O O9 0.500000 0.859147 0.617793
O O10 0.641006 0.856242 0.556950
O O11 0.589343 0.000000 0.622691
O O12 0.750000 0.750000 0.819561
O O13 0.825812 0.859159 0.908613
O O14 0.785253 0.863744 0.508429
O O15 0.694256 0.000000 0.491971
O O16 0.380432 0.500000 0.524159
O O17 0.432884 0.654545 0.474054
#
# Coordination Sequence:
#
# PCOD9368316 Si02
#       7
#    16  16  16  16  16  16   8
#     4  10  21  40  67  94 122 158 207 260 313 373
#     4  11  20  36  64  94 122 152 198 254 312 367
#     4   9  18  33  58  93 122 148 192 253 311 369
#     4  12  26  42  57  84 123 168 211 253 307 368
#     4  10  20  36  60  86 117 157 200 251 309 365
#     4  10  18  32  58  95 123 143 190 259 318 363
#     4  12  19  30  64 104 124 144 191 262 319 358
#
# _framework density 22.930129999999998
#
# number of rings (size 3 to 8) (size 9 to 14) (size 15 to 20)
#    0.000    1.538    3.077    3.692    0.000    3.077 
#    1.385    4.615    0.000    0.000    0.000    0.000 
#    0.000    0.000    0.000    0.000    0.000    0.000 
#
# Total GULP energy -145047.042504 kJ/mol
# GULP energy per Si atom -5578.732404 kJ/mol
# Density = 2.287794 g / cm^3
# Si number density = 22.930130 Si / 1000 Ang^3
#
#
#
# Elastic Constant Matrix: (Units=GPa)
#
#
# Indices 1 2 3 4 5 6 
#
# 1 76.7727 15.6144 86.3180 0.0000 0.0000 0.0000
# 2 15.6144 45.1897 14.0129 0.0000 0.0000 0.0000
# 3 86.3180 14.0129 230.0018 0.0000 0.0000 0.0000
# 4 0.0000 0.0000 0.0000 9.9601 0.0000 0.0000
# 5 0.0000 0.0000 0.0000 0.0000 71.9646 0.0000
# 6 0.0000 0.0000 0.0000 0.0000 0.0000 8.8670
#
#
#
# Elastic Compliance Matrix: (Units=1/GPa)
#
#
# Indices 1 2 3 4 5 6 
#
# 1 0.023833 -0.005567 -0.008605 0.000000 0.000000 0.000000
# 2 -0.005567 0.023855 0.000636 0.000000 0.000000 0.000000
# 3 -0.008605 0.000636 0.007538 0.000000 0.000000 0.000000
# 4 0.000000 0.000000 0.000000 0.100401 0.000000 0.000000
# 5 0.000000 0.000000 0.000000 0.000000 0.013896 0.000000
# 6 0.000000 0.000000 0.000000 0.000000 0.000000 0.112778
#
#
# Mechanical properties :
#
#
# Convention : Reuss Voigt Hill
#
# Bulk Modulus (GPa) = 35.51833 64.87276 50.19554
# Shear Modulus (GPa) = 15.68594 33.89294 24.78944
#
# Velocity S-wave (km/s) = 2.61832 3.84877 3.29155
# Velocity P-wave (km/s) = 4.96631 6.93568 6.03191
#
# Compressibility (1/GPa) = 0.02815448
#
# Stress axis : x y z
#
# Youngs Moduli (GPa) = 41.95950 41.91957 132.65304
#
# Poissons Ratio (x) = 0.23335 1.14148
# Poissons Ratio (y) = 0.23357 -0.08433
# Poissons Ratio (z) = 0.36106 -0.02665
#
# Static dielectric constant tensor:
#      x y z
#    x 1.818400 0.000000 0.000000 
#    y 0.000000 1.936250 0.000000 
#    z 0.000000 0.000000 1.799730 
# 
# From -- ./inp_files/20902.got.cif
#   From: 2010.05.17/outbox.cif.g08.bks.cpg/sg42_11_cif.got.tgz:20902.got - 2010.06.03 19:03:34.
