data_PCOD9368077
_publ_section_title
;
Structure prediction by ZEFSAII (Michael W. Deem and Ramdas Pophale) SiO2 
 PCOD9368077
Probable space group: A B A 2
;
_chemical_formula_sum "Si O2"
_cell_formula_units_Z 30
_cell_length_a 12.000000
_cell_length_b 27.000000
_cell_length_c 9.000000
_cell_angle_alpha 90.000000
_cell_angle_beta 90.000000
_cell_angle_gamma 90.000000
_cell_volume 2916.000000
_symmetry_space_group_name_H-M "A B A 2"
_symmetry_group_IT_number 41
_symmetry_cell_setting 'orthorhombic'
loop_
_space_group_symop_operation_xyz
x,y,z
-x,-y,z
1/2-x,y,1/2+z
1/2+x,-y,1/2+z
x,1/2+y,1/2+z
-x,1/2-y,1/2+z
1/2-x,1/2+y,z
1/2+x,1/2-y,z
loop_
_atom_site_type_symbol
_atom_site_label
_atom_site_fract_x
_atom_site_fract_y
_atom_site_fract_z
Si Si1 0.744845 0.752166 0.700950
Si Si2 0.375096 0.443545 0.610618
Si Si3 0.622231 0.197263 0.446662
Si Si4 0.124659 0.191148 0.949993
Si Si5 0.622531 0.439436 0.549803
Si Si6 0.650638 0.583075 0.961232
Si Si7 0.500000 0.500000 0.981567
Si Si8 0.827412 0.917441 0.864454
O O1 0.693076 0.708140 0.799291
O O2 0.829567 0.728695 0.582729
O O3 0.796379 0.789062 0.820547
O O4 0.659000 0.783860 0.603957
O O5 0.492890 0.427033 0.542567
O O6 0.369108 0.502745 0.592374
O O7 0.276103 0.421868 0.514661
O O8 0.366062 0.429525 0.785417
O O9 0.496684 0.210998 0.411746
O O10 0.619198 0.139516 0.485919
O O11 0.132488 0.131761 0.947912
O O12 0.702663 0.430318 0.412685
O O13 0.668405 0.408968 0.689420
O O14 0.579466 0.541779 0.052168
O O15 0.589101 0.463430 0.899702
#
# Coordination Sequence:
#
# PCOD9368077 Si02
#       8
#     8   8   8   8   8   8   4   8
#     4  10  24  42  62  92 120 152 210 262 302 364
#     4  11  21  39  57  85 125 168 206 250 292 355
#     4  11  22  41  65  90 121 160 200 255 314 361
#     4  11  22  41  65  90 121 160 200 255 314 361
#     4  11  21  39  57  85 125 168 206 250 292 355
#     4  12  22  40  65  90 126 168 203 246 311 367
#     4  12  20  40  62  94 128 168 196 252 296 374
#     4  12  22  40  65  90 126 168 203 246 311 367
#
# _framework density 10.288066000000001
#
# number of rings (size 3 to 8) (size 9 to 14) (size 15 to 20)
#    0.000    0.800    5.333    2.400    0.000    0.000 
#    2.400    6.667    0.000    0.000    0.000    0.000 
#    0.000    0.000    0.000    0.000    0.000    0.000 
#
# Total GULP energy -167367.909170 kJ/mol
# GULP energy per Si atom -5578.930306 kJ/mol
# Density = 1.026465 g / cm^3
# Si number density = 10.288066 Si / 1000 Ang^3
#
#
#
# Elastic Constant Matrix: (Units=GPa)
#
#
# Indices 1 2 3 4 5 6 
#
# 1 102.8007 -0.0277 23.7145 0.0000 0.0000 0.0000
# 2 -0.0277 83.1273 3.4808 0.0000 0.0000 0.0000
# 3 23.7145 3.4808 24.9564 0.0000 0.0000 0.0000
# 4 0.0000 0.0000 0.0000 11.8774 0.0000 0.0000
# 5 0.0000 0.0000 0.0000 0.0000 -2.5221 0.0000
# 6 0.0000 0.0000 0.0000 0.0000 0.0000 -36.6025
#
#
#
# Elastic Compliance Matrix: (Units=1/GPa)
#
#
# Indices 1 2 3 4 5 6 
#
# 1 0.012479 0.000504 -0.011929 0.000000 0.000000 0.000000
# 2 0.000504 0.012121 -0.002169 0.000000 0.000000 0.000000
# 3 -0.011929 -0.002169 0.051708 0.000000 0.000000 0.000000
# 4 0.000000 0.000000 0.000000 0.084193 0.000000 0.000000
# 5 0.000000 0.000000 0.000000 0.000000 -0.396488 0.000000
# 6 0.000000 0.000000 0.000000 0.000000 0.000000 -0.027321
#
#
# Mechanical properties :
#
#
# Convention : Reuss Voigt Hill
#
# Bulk Modulus (GPa) = 20.35856 29.46886 24.91371
# Shear Modulus (GPa) = -22.75356 6.79834 -7.97761
#
# Velocity S-wave (km/s) = -3.32900 1.81966 -1.97118
# Velocity P-wave (km/s) = 2.20467 4.33219 2.63697
#
# Compressibility (1/GPa) = 0.04911940
#
# Stress axis : x y z
#
# Youngs Moduli (GPa) = 80.13169 82.50323 19.33951
#
# Poissons Ratio (x) = -0.04155 0.23070
# Poissons Ratio (y) = -0.04036 0.04195
# Poissons Ratio (z) = 0.95587 0.17896
#
# Static dielectric constant tensor:
#      x y z
#    x 1.815480 0.000000 0.000000 
#    y 0.000000 1.660900 0.000000 
#    z 0.000000 0.000000 1.710990 
# 
# From -- ./inp_files/2158.got.cif
#   From: 2010.05.17/outbox.ucp.g08.bks.cvg/sg41_2_cif.got.tgz:2158.got - 2010.06.11 16:28:22.
