data_PCOD9368383
_publ_section_title
;
Structure prediction by ZEFSAII (Michael W. Deem and Ramdas Pophale) SiO2 
 PCOD9368383
Probable space group: F M M 2
;
_chemical_formula_sum "Si O2"
_cell_formula_units_Z 80
_cell_length_a 20.966913
_cell_length_b 8.228026
_cell_length_c 26.038647
_cell_angle_alpha 90.000000
_cell_angle_beta 90.000000
_cell_angle_gamma 90.000000
_cell_volume 4492.091176
_symmetry_space_group_name_H-M "F M M 2"
_symmetry_group_IT_number 42
_symmetry_cell_setting 'orthorhombic'
loop_
_space_group_symop_operation_xyz
x,y,z
-x,-y,z
-x,y,z
x,-y,z
x,1/2+y,1/2+z
-x,1/2-y,1/2+z
-x,1/2+y,1/2+z
x,1/2-y,1/2+z
1/2+x,y,1/2+z
1/2-x,-y,1/2+z
1/2-x,y,1/2+z
1/2+x,-y,1/2+z
1/2+x,1/2+y,z
1/2-x,1/2-y,z
1/2-x,1/2+y,z
1/2+x,1/2-y,z
loop_
_atom_site_type_symbol
_atom_site_label
_atom_site_fract_x
_atom_site_fract_y
_atom_site_fract_z
Si Si1 0.575151 0.000000 0.799480
Si Si2 0.319769 0.688943 0.953625
Si Si3 0.250000 0.250000 0.751513
Si Si4 0.425447 0.000000 0.598965
Si Si5 0.073700 0.815323 0.526336
Si Si6 0.342104 0.000000 0.699866
Si Si7 0.854708 0.322460 0.335372
O O1 0.601099 0.000000 0.741405
O O2 0.603100 0.164278 0.824429
O O3 0.500000 0.000000 0.802227
O O4 0.327058 0.500000 0.967867
O O5 0.250000 0.750000 0.969270
O O6 0.325693 0.699024 0.892056
O O7 0.375791 0.788065 0.981029
O O8 0.204449 0.352456 0.714543
O O9 0.200093 0.172367 0.791909
O O10 0.417055 0.165750 0.565887
O O11 0.500000 0.000000 0.616528
O O12 0.374484 0.000000 0.644725
O O13 0.000000 0.802754 0.508267
O O14 0.081611 0.000000 0.547362
O O15 0.887766 0.500000 0.334500
#
# Coordination Sequence:
#
# PCOD9368383 Si02
#       7
#     8  16   8   8  16   8  16
#     4  10  23  38  57  89 118 156 204 249 297 353
#     4  11  22  35  59  91 122 163 203 245 299 359
#     4  10  18  38  60  88 120 154 198 238 306 364
#     4  10  21  44  64  83 115 157 204 254 309 362
#     4  10  22  42  64  86 120 163 205 251 305 364
#     4  10  21  38  65  86 116 155 196 255 304 359
#     4  10  21  36  59  84 123 163 194 240 297 361
#
# _framework density 17.809076000000001
#
# number of rings (size 3 to 8) (size 9 to 14) (size 15 to 20)
#    0.000    1.800    3.000    0.900    2.800    1.200 
#    3.600    2.000    0.000    2.400    0.000    0.000 
#    0.000    0.000    0.000    0.000    0.000    0.000 
#
# Total GULP energy -111413.224628 kJ/mol
# GULP energy per Si atom -5570.661231 kJ/mol
# Density = 1.776854 g / cm^3
# Si number density = 17.809076 Si / 1000 Ang^3
#
#
#
# Elastic Constant Matrix: (Units=GPa)
#
#
# Indices 1 2 3 4 5 6 
#
# 1 122.4991 72.8501 57.7429 0.0002 0.0000 0.0000
# 2 72.8501 152.7907 48.0641 0.0003 0.0000 -0.0001
# 3 57.7429 48.0641 81.9665 0.0000 0.0000 0.0000
# 4 0.0002 0.0003 0.0000 584.3559 0.0000 -0.0002
# 5 0.0000 0.0000 0.0000 0.0000 15.6105 0.0000
# 6 0.0000 -0.0001 0.0000 -0.0002 0.0000 41.0920
#
#
#
# Elastic Compliance Matrix: (Units=1/GPa)
#
#
# Indices 1 2 3 4 5 6 
#
# 1 0.014364 -0.004494 -0.007483 0.000000 0.000000 0.000000
# 2 -0.004494 0.009432 -0.002364 0.000000 0.000000 0.000000
# 3 -0.007483 -0.002364 0.018858 0.000000 0.000000 0.000000
# 4 0.000000 0.000000 0.000000 0.001711 0.000000 0.000000
# 5 0.000000 0.000000 0.000000 0.000000 0.064059 0.000000
# 6 0.000000 0.000000 0.000000 0.000000 0.000000 0.024336
#
#
# Mechanical properties :
#
#
# Convention : Reuss Voigt Hill
#
# Bulk Modulus (GPa) = 71.58530 79.39672 75.49101
# Shear Modulus (GPa) = 30.10229 140.11829 85.11029
#
# Velocity S-wave (km/s) = 4.11576 8.87969 6.92056
# Velocity P-wave (km/s) = 7.92901 12.23972 10.31213
#
# Compressibility (1/GPa) = 0.01396935
#
# Stress axis : x y z
#
# Youngs Moduli (GPa) = 69.62064 106.02638 53.02729
#
# Poissons Ratio (x) = 0.47653 0.39681
# Poissons Ratio (y) = 0.31291 0.12538
# Poissons Ratio (z) = 0.52098 0.25068
#
# Static dielectric constant tensor:
#      x y z
#    x 1.581640 0.000000 0.000000 
#    y 0.000000 1.341830 0.000000 
#    z 0.000000 0.000000 1.575630 
# 
# From -- ./inp_files/27847.got.cif
#   From: 2010.05.17/outbox.cif.g08.bks.cpg/sg42_14_cif.got.tgz:27847.got - 2010.06.03 19:03:34.
