data_PCOD9368532
_publ_section_title
;
Structure prediction by ZEFSAII (Michael W. Deem and Ramdas Pophale) SiO2 
 PCOD9368532
Probable space group: F M M 2
;
_chemical_formula_sum "Si O2"
_cell_formula_units_Z 96
_cell_length_a 14.118078
_cell_length_b 19.302152
_cell_length_c 19.914995
_cell_angle_alpha 90.000000
_cell_angle_beta 90.000000
_cell_angle_gamma 90.000000
_cell_volume 5427.021098
_symmetry_space_group_name_H-M "F M M 2"
_symmetry_group_IT_number 42
_symmetry_cell_setting 'orthorhombic'
loop_
_space_group_symop_operation_xyz
x,y,z
-x,-y,z
-x,y,z
x,-y,z
x,1/2+y,1/2+z
-x,1/2-y,1/2+z
-x,1/2+y,1/2+z
x,1/2-y,1/2+z
1/2+x,y,1/2+z
1/2-x,-y,1/2+z
1/2-x,y,1/2+z
1/2+x,-y,1/2+z
1/2+x,1/2+y,z
1/2-x,1/2-y,z
1/2-x,1/2+y,z
1/2+x,1/2-y,z
loop_
_atom_site_type_symbol
_atom_site_label
_atom_site_fract_x
_atom_site_fract_y
_atom_site_fract_z
Si Si1 0.108681 0.579113 0.412820
Si Si2 0.888002 0.215586 0.619134
Si Si3 0.731018 0.580202 0.643022
Si Si4 0.612558 0.353478 0.053911
Si Si5 0.727216 0.368609 0.794948
Si Si6 0.888522 0.732933 0.768342
O O1 0.107369 0.500000 0.436479
O O2 0.130664 0.624960 0.477599
O O3 0.187875 0.586389 0.355699
O O4 0.000000 0.594559 0.388938
O O5 0.837166 0.141887 0.616734
O O6 0.862299 0.272745 0.564240
O O7 0.867397 0.256965 0.688796
O O8 0.000000 0.203035 0.618063
O O9 0.705794 0.500000 0.629033
O O10 0.829472 0.599334 0.606268
O O11 0.729497 0.592046 0.723603
O O12 0.500000 0.360531 0.066927
O O13 0.828195 0.329859 0.798781
O O14 0.651678 0.305321 0.795206
O O15 0.000000 0.725197 0.777918
#
# Coordination Sequence:
#
# PCOD9368532 Si02
#       6
#    16  16  16  16  16  16
#     4  10  21  37  56  81 114 149 188 237 289 339
#     4   9  18  35  57  80 109 146 190 235 274 326
#     4  11  21  33  54  85 117 148 184 231 288 343
#     4  10  20  37  60  81 110 152 193 236 282 328
#     4  10  19  33  54  81 112 148 189 234 284 335
#     4   9  17  32  54  79 110 146 188 235 276 327
#
# _framework density 17.689261999999999
#
# number of rings (size 3 to 8) (size 9 to 14) (size 15 to 20)
#    0.000    2.167    1.667    2.000    0.000    2.000 
#    6.000    0.000    0.000    1.500    0.000    0.000 
#    0.000    0.000    0.000    0.000    0.000    0.000 
#
# Total GULP energy -133712.463360 kJ/mol
# GULP energy per Si atom -5571.352640 kJ/mol
# Density = 1.764900 g / cm^3
# Si number density = 17.689262 Si / 1000 Ang^3
#
#
#
# Elastic Constant Matrix: (Units=GPa)
#
#
# Indices 1 2 3 4 5 6 
#
# 1 100.1812 43.5321 42.3798 0.0000 0.0000 0.0000
# 2 43.5321 102.1981 40.5475 0.0000 0.0000 0.0000
# 3 42.3798 40.5475 60.2194 0.0000 0.0000 0.0000
# 4 0.0000 0.0000 0.0000 18.7751 0.0000 0.0000
# 5 0.0000 0.0000 0.0000 0.0000 25.6930 0.0000
# 6 0.0000 0.0000 0.0000 0.0000 0.0000 22.8199
#
#
#
# Elastic Compliance Matrix: (Units=1/GPa)
#
#
# Indices 1 2 3 4 5 6 
#
# 1 0.014847 -0.002973 -0.008447 0.000000 0.000000 0.000000
# 2 -0.002973 0.013947 -0.007299 0.000000 0.000000 0.000000
# 3 -0.008447 -0.007299 0.027465 0.000000 0.000000 0.000000
# 4 0.000000 0.000000 0.000000 0.053262 0.000000 0.000000
# 5 0.000000 0.000000 0.000000 0.000000 0.038921 0.000000
# 6 0.000000 0.000000 0.000000 0.000000 0.000000 0.043821
#
#
# Mechanical properties :
#
#
# Convention : Reuss Voigt Hill
#
# Bulk Modulus (GPa) = 53.12962 57.27969 55.20465
# Shear Modulus (GPa) = 21.18870 22.53358 21.86114
#
# Velocity S-wave (km/s) = 3.46472 3.57298 3.51927
# Velocity P-wave (km/s) = 6.79013 7.03370 6.91299
#
# Compressibility (1/GPa) = 0.01882189
#
# Stress axis : x y z
#
# Youngs Moduli (GPa) = 67.35340 71.69982 36.40985
#
# Poissons Ratio (x) = 0.21315 0.30755
# Poissons Ratio (y) = 0.20023 0.26575
# Poissons Ratio (z) = 0.56894 0.52332
#
# Static dielectric constant tensor:
#      x y z
#    x 1.622140 0.000000 0.000000 
#    y 0.000000 1.616390 0.000000 
#    z 0.000000 0.000000 1.627050 
# 
# From -- ./inp_files/14012.got.cif
#   From: 2010.05.17/outbox.cif.g08.bks.cpg/sg42_8_cif.got.tgz:14012.got - 2010.06.03 19:03:34.
