data_PCOD9368133
_publ_section_title
;
Structure prediction by ZEFSAII (Michael W. Deem and Ramdas Pophale) SiO2 
 PCOD9368133
Probable space group: F M M 2
;
_chemical_formula_sum "Si O2"
_cell_formula_units_Z 80
_cell_length_a 8.682185
_cell_length_b 18.639653
_cell_length_c 27.186258
_cell_angle_alpha 90.000000
_cell_angle_beta 90.000000
_cell_angle_gamma 90.000000
_cell_volume 4399.631399
_symmetry_space_group_name_H-M "F M M 2"
_symmetry_group_IT_number 42
_symmetry_cell_setting 'orthorhombic'
loop_
_space_group_symop_operation_xyz
x,y,z
-x,-y,z
-x,y,z
x,-y,z
x,1/2+y,1/2+z
-x,1/2-y,1/2+z
-x,1/2+y,1/2+z
x,1/2-y,1/2+z
1/2+x,y,1/2+z
1/2-x,-y,1/2+z
1/2-x,y,1/2+z
1/2+x,-y,1/2+z
1/2+x,1/2+y,z
1/2-x,1/2-y,z
1/2-x,1/2+y,z
1/2+x,1/2-y,z
loop_
_atom_site_type_symbol
_atom_site_label
_atom_site_fract_x
_atom_site_fract_y
_atom_site_fract_z
Si Si1 0.315464 0.168824 0.465870
Si Si2 0.316207 0.168431 0.865747
Si Si3 0.314182 0.417398 0.666218
Si Si4 0.184198 0.830601 0.074618
Si Si5 0.814798 0.669339 0.263858
O O1 0.500000 0.171201 0.460455
O O2 0.250000 0.250000 0.467654
O O3 0.243333 0.134731 0.416833
O O4 0.276909 0.139101 0.520029
O O5 0.500000 0.170814 0.865242
O O6 0.250000 0.250000 0.865822
O O7 0.251931 0.137543 0.814721
O O8 0.500000 0.415182 0.663509
O O9 0.264934 0.500000 0.667858
O O10 0.247957 0.377977 0.618657
O O11 0.269965 0.376272 0.716170
O O12 0.250000 0.750000 0.078721
O O13 0.000000 0.826277 0.077561
O O14 0.750000 0.750000 0.258187
O O15 0.000000 0.672608 0.267449
#
# Coordination Sequence:
#
# PCOD9368133 Si02
#       5
#    16  16  16  16  16
#     4   9  16  27  44  70 102 131 161 198 244 294
#     4  10  17  26  44  71 101 130 161 199 246 294
#     4  10  22  38  54  73 100 135 172 212 259 306
#     4  10  20  33  53  79 105 135 170 210 253 299
#     4  10  19  32  51  74 101 131 166 206 249 298
#
# _framework density 18.183342
#
# number of rings (size 3 to 8) (size 9 to 14) (size 15 to 20)
#    0.000    2.200    0.000    6.600    0.000    6.000 
#    0.000    0.000    0.000    1.200    0.000    2.800 
#    0.000    0.000    0.000    0.000    0.000    0.000 
#
# Total GULP energy -111521.336354 kJ/mol
# GULP energy per Si atom -5576.066818 kJ/mol
# Density = 1.814196 g / cm^3
# Si number density = 18.183342 Si / 1000 Ang^3
#
#
#
# Elastic Constant Matrix: (Units=GPa)
#
#
# Indices 1 2 3 4 5 6 
#
# 1 78.0141 23.4583 70.1794 0.0000 0.0000 0.0000
# 2 23.4583 56.0196 69.1318 0.0000 0.0000 0.0000
# 3 70.1794 69.1318 237.4646 0.0000 0.0000 0.0000
# 4 0.0000 0.0000 0.0000 -5.2984 0.0000 0.0000
# 5 0.0000 0.0000 0.0000 0.0000 36.9530 0.0000
# 6 0.0000 0.0000 0.0000 0.0000 0.0000 12.8275
#
#
#
# Elastic Compliance Matrix: (Units=1/GPa)
#
#
# Indices 1 2 3 4 5 6 
#
# 1 0.017538 -0.001479 -0.004753 0.000000 0.000000 0.000000
# 2 -0.001479 0.027985 -0.007710 0.000000 0.000000 0.000000
# 3 -0.004753 -0.007710 0.007860 0.000000 0.000000 0.000000
# 4 0.000000 0.000000 0.000000 -0.188736 0.000000 0.000000
# 5 0.000000 0.000000 0.000000 0.000000 0.027061 0.000000
# 6 0.000000 0.000000 0.000000 0.000000 0.000000 0.077958
#
#
# Mechanical properties :
#
#
# Convention : Reuss Voigt Hill
#
# Bulk Modulus (GPa) = 39.21569 77.44859 58.33214
# Shear Modulus (GPa) = 826.43747 22.81166 424.62456
#
# Velocity S-wave (km/s) = 21.34219 3.54579 15.29807
# Velocity P-wave (km/s) = 25.07853 7.71032 18.55238
#
# Compressibility (1/GPa) = 0.02550000
#
# Stress axis : x y z
#
# Youngs Moduli (GPa) = 57.01817 35.73360 127.22234
#
# Poissons Ratio (x) = 0.05286 0.60463
# Poissons Ratio (y) = 0.08434 0.98087
# Poissons Ratio (z) = 0.27098 0.27550
#
# Static dielectric constant tensor:
#      x y z
#    x 1.610080 0.000000 0.000000 
#    y 0.000000 1.582320 0.000000 
#    z 0.000000 0.000000 1.688940 
# 
# From -- ./inp_files/31267.got.cif
#   From: 2010.05.17/outbox.cif.g08.bks.cpg/sg42_16_cif.got.tgz:31267.got - 2010.06.03 19:03:34.
