data_PCOD9368967
_publ_section_title
;
Structure prediction by ZEFSAII (Michael W. Deem and Ramdas Pophale) SiO2 
 PCOD9368967
Probable space group: F M M 2
;
_chemical_formula_sum "Si O2"
_cell_formula_units_Z 80
_cell_length_a 7.843947
_cell_length_b 26.343717
_cell_length_c 18.949216
_cell_angle_alpha 90.000000
_cell_angle_beta 90.000000
_cell_angle_gamma 90.000000
_cell_volume 3915.641738
_symmetry_space_group_name_H-M "F M M 2"
_symmetry_group_IT_number 42
_symmetry_cell_setting 'orthorhombic'
loop_
_space_group_symop_operation_xyz
x,y,z
-x,-y,z
-x,y,z
x,-y,z
x,1/2+y,1/2+z
-x,1/2-y,1/2+z
-x,1/2+y,1/2+z
x,1/2-y,1/2+z
1/2+x,y,1/2+z
1/2-x,-y,1/2+z
1/2-x,y,1/2+z
1/2+x,-y,1/2+z
1/2+x,1/2+y,z
1/2-x,1/2-y,z
1/2-x,1/2+y,z
1/2+x,1/2-y,z
loop_
_atom_site_type_symbol
_atom_site_label
_atom_site_fract_x
_atom_site_fract_y
_atom_site_fract_z
Si Si1 0.796436 0.807089 0.383210
Si Si2 0.202104 0.594772 0.296903
Si Si3 0.704255 0.000000 0.551443
Si Si4 0.205289 0.306955 0.044648
Si Si5 0.290596 0.500000 0.889479
Si Si6 0.704412 0.600075 0.638068
O O1 0.750000 0.750000 0.360674
O O2 0.727499 0.850989 0.333322
O O3 0.731974 0.813767 0.463949
O O4 0.000000 0.811353 0.384131
O O5 0.268129 0.549924 0.347260
O O6 0.273180 0.594480 0.217500
O O7 0.000000 0.585212 0.290922
O O8 0.762481 0.950034 0.592721
O O9 0.500000 0.000000 0.550043
O O10 0.766677 0.000000 0.470582
O O11 0.250000 0.250000 0.067622
O O12 0.270951 0.350684 0.096256
O O13 0.000000 0.310535 0.042124
O O14 0.500000 0.500000 0.891151
O O15 0.500000 0.606516 0.643737
#
# Coordination Sequence:
#
# PCOD9368967 Si02
#       6
#    16  16   8  16   8  16
#     4  10  20  35  55  79 108 141 179 222 264 311
#     4  10  20  36  57  79 107 142 177 216 265 320
#     4  11  22  35  55  81 106 137 180 224 262 309
#     4   9  19  35  55  79 106 140 181 221 264 313
#     4   9  19  35  55  79 106 139 178 218 266 319
#     4  10  21  37  56  79 109 143 176 215 268 322
#
# _framework density 20.430879000000001
#
# number of rings (size 3 to 8) (size 9 to 14) (size 15 to 20)
#    0.000    2.200    0.000    2.700    0.000    4.800 
#    0.000    3.500    0.000    0.000    0.000    0.000 
#    0.000    0.000    0.000    0.000    0.000    0.000 
#
# Total GULP energy -111713.804909 kJ/mol
# GULP energy per Si atom -5585.690245 kJ/mol
# Density = 2.038438 g / cm^3
# Si number density = 20.430879 Si / 1000 Ang^3
#
#
#
# Elastic Constant Matrix: (Units=GPa)
#
#
# Indices 1 2 3 4 5 6 
#
# 1 12.1295 -21.3977 -3.1679 0.0000 0.0000 0.0000
# 2 -21.3977 172.3541 128.3451 0.0000 0.0000 0.0000
# 3 -3.1679 128.3451 182.9704 0.0000 0.0000 0.0000
# 4 0.0000 0.0000 0.0000 97.0275 0.0000 0.0000
# 5 0.0000 0.0000 0.0000 0.0000 9.6370 0.0000
# 6 0.0000 0.0000 0.0000 0.0000 0.0000 25.8725
#
#
#
# Elastic Compliance Matrix: (Units=1/GPa)
#
#
# Indices 1 2 3 4 5 6 
#
# 1 0.131436 0.030614 -0.019199 0.000000 0.000000 0.000000
# 2 0.030614 0.019278 -0.012992 0.000000 0.000000 0.000000
# 3 -0.019199 -0.012992 0.014246 0.000000 0.000000 0.000000
# 4 0.000000 0.000000 0.000000 0.010306 0.000000 0.000000
# 5 0.000000 0.000000 0.000000 0.000000 0.103767 0.000000
# 6 0.000000 0.000000 0.000000 0.000000 0.000000 0.038651
#
#
# Mechanical properties :
#
#
# Convention : Reuss Voigt Hill
#
# Bulk Modulus (GPa) = 6.18021 63.89032 35.03526
# Shear Modulus (GPa) = 13.34137 44.08569 28.71353
#
# Velocity S-wave (km/s) = 2.55816 4.65025 3.75293
# Velocity P-wave (km/s) = 3.42886 7.75709 5.99706
#
# Compressibility (1/GPa) = 0.16180688
#
# Stress axis : x y z
#
# Youngs Moduli (GPa) = 7.60825 51.87361 70.19298
#
# Poissons Ratio (x) = -1.58808 1.34763
# Poissons Ratio (y) = -0.23292 0.91197
# Poissons Ratio (z) = 0.14607 0.67396
#
# Static dielectric constant tensor:
#      x y z
#    x 1.739380 0.000000 0.000000 
#    y 0.000000 1.686230 0.000000 
#    z 0.000000 0.000000 1.726130 
# 
# From -- ./inp_files/18221.got.cif
#   From: 2010.05.17/outbox.cif.g08.bks.cpg/sg42_10_cif.got.tgz:18221.got - 2010.06.03 19:03:34.
