data_PCOD9368036
_publ_section_title
;
Structure prediction by ZEFSAII (Michael W. Deem and Ramdas Pophale) SiO2 
 PCOD9368036
Probable space group: A B A 2
;
_chemical_formula_sum "Si O2"
_cell_formula_units_Z 32
_cell_length_a 9.404003
_cell_length_b 8.719900
_cell_length_c 15.581819
_cell_angle_alpha 90.000000
_cell_angle_beta 90.000000
_cell_angle_gamma 90.000000
_cell_volume 1277.739788
_symmetry_space_group_name_H-M "A B A 2"
_symmetry_group_IT_number 41
_symmetry_cell_setting 'orthorhombic'
loop_
_space_group_symop_operation_xyz
x,y,z
-x,-y,z
1/2-x,y,1/2+z
1/2+x,-y,1/2+z
x,1/2+y,1/2+z
-x,1/2-y,1/2+z
1/2-x,1/2+y,z
1/2+x,1/2-y,z
loop_
_atom_site_type_symbol
_atom_site_label
_atom_site_fract_x
_atom_site_fract_y
_atom_site_fract_z
Si Si1 0.415456 0.342918 0.633720
Si Si2 0.334676 0.143989 0.851416
Si Si3 0.935471 0.334356 0.458076
Si Si4 0.141814 0.849352 0.233773
O O1 0.500000 0.500000 0.645484
O O2 0.430376 0.278191 0.538581
O O3 0.496019 0.216909 0.694493
O O4 0.252143 0.381877 0.656512
O O5 0.463970 0.250849 0.885896
O O6 0.230498 0.222289 0.783441
O O7 0.226261 0.129044 0.930707
O O8 0.364495 0.983756 0.804277
O O9 0.000000 0.500000 0.478474
#
# Coordination Sequence:
#
# PCOD9368036 Si02
#       4
#     8   8   8   8
#     4  12  29  51  77 116 158 202 256 316 388 461
#     4  12  27  50  81 113 153 199 261 319 382 455
#     4  12  29  51  77 116 158 202 256 316 388 461
#     4  12  27  50  81 113 153 199 261 319 382 455
#
# _framework density 25.044224
#
# number of rings (size 3 to 8) (size 9 to 14) (size 15 to 20)
#    0.000    0.000    5.000    3.000    7.000    6.000 
#    0.000    0.000    0.000    0.000    0.000    0.000 
#    0.000    0.000    0.000    0.000    0.000    0.000 
#
# Total GULP energy -89549.025805 kJ/mol
# GULP energy per Si atom -5596.814113 kJ/mol
# Density = 2.498722 g / cm^3
# Si number density = 25.044224 Si / 1000 Ang^3
#
#
#
# Elastic Constant Matrix: (Units=GPa)
#
#
# Indices 1 2 3 4 5 6 
#
# 1 180.6817 29.5437 22.0475 0.0000 0.0000 0.0000
# 2 29.5437 77.6895 -15.2968 0.0000 0.0000 0.0000
# 3 22.0475 -15.2968 73.0911 0.0000 0.0000 0.0000
# 4 0.0000 0.0000 0.0000 58.4321 0.0000 0.0000
# 5 0.0000 0.0000 0.0000 0.0000 14.3828 0.0000
# 6 0.0000 0.0000 0.0000 0.0000 0.0000 37.2493
#
#
#
# Elastic Compliance Matrix: (Units=1/GPa)
#
#
# Indices 1 2 3 4 5 6 
#
# 1 0.006314 -0.002896 -0.002511 0.000000 0.000000 0.000000
# 2 -0.002896 0.014753 0.003961 0.000000 0.000000 0.000000
# 3 -0.002511 0.003961 0.015268 0.000000 0.000000 0.000000
# 4 0.000000 0.000000 0.000000 0.017114 0.000000 0.000000
# 5 0.000000 0.000000 0.000000 0.000000 0.069527 0.000000
# 6 0.000000 0.000000 0.000000 0.000000 0.000000 0.026846
#
#
# Mechanical properties :
#
#
# Convention : Reuss Voigt Hill
#
# Bulk Modulus (GPa) = 29.90041 44.89457 37.39749
# Shear Modulus (GPa) = 30.51360 41.69071 36.10216
#
# Velocity S-wave (km/s) = 3.49433 4.08448 3.80088
# Velocity P-wave (km/s) = 5.31464 6.34106 5.85040
#
# Compressibility (1/GPa) = 0.03344436
#
# Stress axis : x y z
#
# Youngs Moduli (GPa) = 158.36747 67.78382 65.49711
#
# Poissons Ratio (x) = 0.19627 0.16444
# Poissons Ratio (y) = 0.45857 -0.25943
# Poissons Ratio (z) = 0.39761 -0.26849
#
# Static dielectric constant tensor:
#      x y z
#    x 2.093660 0.000000 0.000000 
#    y 0.000000 2.000230 0.000000 
#    z 0.000000 0.000000 2.069950 
# 
# From -- ./inp_files/7678.got.cif
#   From: 2010.05.17/outbox.cif.g08.bks.cpg/sg41_4_cif.got.tgz:7678.got - 2010.06.03 18:54:24.
