data_PCOD9368985
_publ_section_title
;
Structure prediction by ZEFSAII (Michael W. Deem and Ramdas Pophale) SiO2 
 PCOD9368985
Probable space group: F M M 2
;
_chemical_formula_sum "Si O2"
_cell_formula_units_Z 112
_cell_length_a 15.158801
_cell_length_b 14.097952
_cell_length_c 23.479720
_cell_angle_alpha 90.000000
_cell_angle_beta 90.000000
_cell_angle_gamma 90.000000
_cell_volume 5017.805149
_symmetry_space_group_name_H-M "F M M 2"
_symmetry_group_IT_number 42
_symmetry_cell_setting 'orthorhombic'
loop_
_space_group_symop_operation_xyz
x,y,z
-x,-y,z
-x,y,z
x,-y,z
x,1/2+y,1/2+z
-x,1/2-y,1/2+z
-x,1/2+y,1/2+z
x,1/2-y,1/2+z
1/2+x,y,1/2+z
1/2-x,-y,1/2+z
1/2-x,y,1/2+z
1/2+x,-y,1/2+z
1/2+x,1/2+y,z
1/2-x,1/2-y,z
1/2-x,1/2+y,z
1/2+x,1/2-y,z
loop_
_atom_site_type_symbol
_atom_site_label
_atom_site_fract_x
_atom_site_fract_y
_atom_site_fract_z
Si Si1 0.600362 0.311601 0.733960
Si Si2 0.645892 0.776025 0.360479
Si Si3 0.722150 0.642236 0.637804
Si Si4 0.164550 0.110012 0.970613
Si Si5 0.900054 0.899039 0.184132
Si Si6 0.902270 0.714880 0.043254
Si Si7 0.370887 0.892513 0.931963
O O1 0.500000 0.336621 0.719967
O O2 0.617215 0.318456 0.800811
O O3 0.666151 0.373483 0.695257
O O4 0.611689 0.198820 0.718794
O O5 0.750000 0.750000 0.357053
O O6 0.622820 0.846055 0.412872
O O7 0.608317 0.673924 0.378465
O O8 0.750000 0.750000 0.640707
O O9 0.818253 0.595877 0.640232
O O10 0.655926 0.647465 0.584626
O O11 0.267433 0.111420 0.951863
O O12 0.140492 0.000000 0.982713
O O13 0.143246 0.186395 0.020866
O O14 0.000000 0.894733 0.160165
O O15 0.895280 0.000000 0.216781
O O16 0.000000 0.734221 0.067945
O O17 0.912932 0.654775 0.986531
O O18 0.394384 0.000000 0.921861
#
# Coordination Sequence:
#
# PCOD9368985 Si02
#       7
#    16  16  16  16  16  16  16
#     4  10  20  35  56  83 118 158 197 237 287 354
#     4   9  17  32  55  85 116 152 200 252 307 365
#     4  10  20  37  58  80 113 156 191 231 290 352
#     4   9  19  38  62  85 113 154 205 264 322 362
#     4   9  19  36  59  88 117 148 194 249 301 356
#     4  11  22  36  57  86 120 159 204 247 292 358
#     4   9  19  36  57  81 111 151 201 253 303 356
#
# _framework density 22.320516000000001
#
# number of rings (size 3 to 8) (size 9 to 14) (size 15 to 20)
#    0.000    2.429    0.000    3.857    0.000    4.571 
#    0.000    7.857    0.000    5.571    0.000    0.000 
#    0.000    0.000    0.000    0.000    0.000    0.000 
#
# Total GULP energy -155899.567595 kJ/mol
# GULP energy per Si atom -5567.841700 kJ/mol
# Density = 2.226971 g / cm^3
# Si number density = 22.320516 Si / 1000 Ang^3
#
#
#
# Elastic Constant Matrix: (Units=GPa)
#
#
# Indices 1 2 3 4 5 6 
#
# 1 92.8987 17.7101 24.2665 0.0000 0.0000 0.0000
# 2 17.7101 88.1731 11.4996 0.0000 0.0000 0.0000
# 3 24.2665 11.4996 111.0491 0.0000 0.0000 0.0000
# 4 0.0000 0.0000 0.0000 2.3098 0.0000 0.0000
# 5 0.0000 0.0000 0.0000 0.0000 -73.4962 0.0000
# 6 0.0000 0.0000 0.0000 0.0000 0.0000 -0.9112
#
#
#
# Elastic Compliance Matrix: (Units=1/GPa)
#
#
# Indices 1 2 3 4 5 6 
#
# 1 0.011773 -0.002057 -0.002360 0.000000 0.000000 0.000000
# 2 -0.002057 0.011856 -0.000778 0.000000 0.000000 0.000000
# 3 -0.002360 -0.000778 0.009601 0.000000 0.000000 0.000000
# 4 0.000000 0.000000 0.000000 0.432938 0.000000 0.000000
# 5 0.000000 0.000000 0.000000 0.000000 -0.013606 0.000000
# 6 0.000000 0.000000 0.000000 0.000000 0.000000 -1.097485
#
#
# Mechanical properties :
#
#
# Convention : Reuss Voigt Hill
#
# Bulk Modulus (GPa) = 43.78181 44.34148 44.06165
# Shear Modulus (GPa) = -7.97550 1.49012 -3.24269
#
# Velocity S-wave (km/s) = -1.89233 0.81796 -1.20662
# Velocity P-wave (km/s) = 3.85786 4.56081 4.22398
#
# Compressibility (1/GPa) = 0.02284054
#
# Stress axis : x y z
#
# Youngs Moduli (GPa) = 84.94075 84.34562 104.15312
#
# Poissons Ratio (x) = 0.17349 0.24576
# Poissons Ratio (y) = 0.17472 0.08106
# Poissons Ratio (z) = 0.20043 0.06564
#
# Static dielectric constant tensor:
#      x y z
#    x 1.966980 0.000000 0.000000 
#    y 0.000000 1.848400 0.000000 
#    z 0.000000 0.000000 1.846840 
# 
# From -- ./inp_files/29523.got.cif
#   From: 2010.05.17/outbox.cif.g08.bks.cpg/sg42_15_cif.got.tgz:29523.got - 2010.06.03 19:03:34.
