data_PCOD9368060
_publ_section_title
;
Structure prediction by ZEFSAII (Michael W. Deem and Ramdas Pophale) SiO2 
 PCOD9368060
Probable space group: A B A 2
;
_chemical_formula_sum "Si O2"
_cell_formula_units_Z 24
_cell_length_a 9.000000
_cell_length_b 15.000000
_cell_length_c 18.000000
_cell_angle_alpha 90.000000
_cell_angle_beta 90.000000
_cell_angle_gamma 90.000000
_cell_volume 2430.000000
_symmetry_space_group_name_H-M "A B A 2"
_symmetry_group_IT_number 41
_symmetry_cell_setting 'orthorhombic'
loop_
_space_group_symop_operation_xyz
x,y,z
-x,-y,z
1/2-x,y,1/2+z
1/2+x,-y,1/2+z
x,1/2+y,1/2+z
-x,1/2-y,1/2+z
1/2-x,1/2+y,z
1/2+x,1/2-y,z
loop_
_atom_site_type_symbol
_atom_site_label
_atom_site_fract_x
_atom_site_fract_y
_atom_site_fract_z
Si Si1 0.828546 0.345427 0.501500
Si Si2 0.244026 0.476504 0.716269
Si Si3 0.009938 0.690768 0.071923
Si Si4 0.000000 0.500000 0.109222
Si Si5 0.000000 0.000000 0.095286
Si Si6 0.929041 0.201369 0.745487
Si Si7 0.263132 0.141769 0.322582
O O1 0.681752 0.320064 0.549035
O O2 0.782604 0.360003 0.413747
O O3 0.935662 0.260534 0.515582
O O4 0.912326 0.429526 0.541942
O O5 0.367300 0.525126 0.664709
O O6 0.114562 0.457600 0.655855
O O7 0.315239 0.383066 0.742890
O O8 0.218043 0.546010 0.784351
O O9 0.952446 0.588129 0.065345
O O10 0.974432 0.718816 0.158126
O O11 0.851980 0.284496 0.788521
O O12 0.076049 0.170596 0.789718
#
# Coordination Sequence:
#
# PCOD9368060 Si02
#       7
#     8   8   8   4   4   8   8
#     4  12  28  42  71 105 146 177 232 299 362 403
#     4  11  23  44  70  98 132 186 241 275 339 429
#     4  11  23  46  68 104 134 188 235 289 339 431
#     4  10  20  43  69  94 130 180 236 284 330 407
#     4  12  26  43  71 108 130 190 240 278 344 437
#     4  11  24  43  76  92 136 187 231 281 342 430
#     4  12  25  47  66 104 142 180 230 293 359 405
#
# _framework density 9.8765429999999999
#
# number of rings (size 3 to 8) (size 9 to 14) (size 15 to 20)
#    0.000    0.667    5.000    3.000   11.667    0.000 
#    3.000    0.000    0.000    0.000    0.000    0.000 
#    0.000    0.000    0.000    0.000    0.000    0.000 
#
# Total GULP energy -133955.603133 kJ/mol
# GULP energy per Si atom -5581.483464 kJ/mol
# Density = 0.985406 g / cm^3
# Si number density = 9.876543 Si / 1000 Ang^3
#
#
#
# Elastic Constant Matrix: (Units=GPa)
#
#
# Indices 1 2 3 4 5 6 
#
# 1 93.0766 26.5640 43.7224 0.0000 0.0000 0.0000
# 2 26.5640 109.4021 46.0908 0.0000 0.0000 0.0000
# 3 43.7224 46.0908 149.3197 0.0000 0.0000 0.0000
# 4 0.0000 0.0000 0.0000 38.2451 0.0000 0.0000
# 5 0.0000 0.0000 0.0000 0.0000 40.2496 0.0000
# 6 0.0000 0.0000 0.0000 0.0000 0.0000 41.4666
#
#
#
# Elastic Compliance Matrix: (Units=1/GPa)
#
#
# Indices 1 2 3 4 5 6 
#
# 1 0.012742 -0.001750 -0.003191 0.000000 0.000000 0.000000
# 2 -0.001750 0.010747 -0.002805 0.000000 0.000000 0.000000
# 3 -0.003191 -0.002805 0.008497 0.000000 0.000000 0.000000
# 4 0.000000 0.000000 0.000000 0.026147 0.000000 0.000000
# 5 0.000000 0.000000 0.000000 0.000000 0.024845 0.000000
# 6 0.000000 0.000000 0.000000 0.000000 0.000000 0.024116
#
#
# Mechanical properties :
#
#
# Convention : Reuss Voigt Hill
#
# Bulk Modulus (GPa) = 60.62333 64.95031 62.78682
# Shear Modulus (GPa) = 39.03685 39.68700 39.36193
#
# Velocity S-wave (km/s) = 4.45032 4.48722 4.46881
# Velocity P-wave (km/s) = 7.56071 7.73300 7.64734
#
# Compressibility (1/GPa) = 0.01649530
#
# Stress axis : x y z
#
# Youngs Moduli (GPa) = 78.47991 93.04770 117.68532
#
# Poissons Ratio (x) = 0.16279 0.37553
# Poissons Ratio (y) = 0.13731 0.33011
# Poissons Ratio (z) = 0.25043 0.26100
#
# Static dielectric constant tensor:
#      x y z
#    x 1.773280 0.000000 0.000000 
#    y 0.000000 1.732880 0.000000 
#    z 0.000000 0.000000 1.677520 
# 
# From -- ./inp_files/7361.got.cif
#   From: 2010.05.17/outbox.ucp.g08.bks.cvg/sg41_4_cif.got.tgz:7361.got - 2010.06.11 16:28:22.
