data_PCOD9368723
_publ_section_title
;
Structure prediction by ZEFSAII (Michael W. Deem and Ramdas Pophale) SiO2 
 PCOD9368723
Probable space group: F M M 2
;
_chemical_formula_sum "Si O2"
_cell_formula_units_Z 88
_cell_length_a 25.736760
_cell_length_b 12.485051
_cell_length_c 13.563576
_cell_angle_alpha 90.000000
_cell_angle_beta 90.000000
_cell_angle_gamma 90.000000
_cell_volume 4358.312819
_symmetry_space_group_name_H-M "F M M 2"
_symmetry_group_IT_number 42
_symmetry_cell_setting 'orthorhombic'
loop_
_space_group_symop_operation_xyz
x,y,z
-x,-y,z
-x,y,z
x,-y,z
x,1/2+y,1/2+z
-x,1/2-y,1/2+z
-x,1/2+y,1/2+z
x,1/2-y,1/2+z
1/2+x,y,1/2+z
1/2-x,-y,1/2+z
1/2-x,y,1/2+z
1/2+x,-y,1/2+z
1/2+x,1/2+y,z
1/2-x,1/2-y,z
1/2-x,1/2+y,z
1/2+x,1/2-y,z
loop_
_atom_site_type_symbol
_atom_site_label
_atom_site_fract_x
_atom_site_fract_y
_atom_site_fract_z
Si Si1 0.170906 0.625635 0.442440
Si Si2 0.000000 0.876969 0.570511
Si Si3 0.000000 0.873853 0.332249
Si Si4 0.079334 0.270000 0.686325
Si Si5 0.059724 0.122465 0.993256
Si Si6 0.250000 0.750000 0.079841
Si Si7 0.821741 0.623518 0.218208
O O1 0.170069 0.500000 0.473842
O O2 0.110890 0.666795 0.439370
O O3 0.205258 0.697334 0.513539
O O4 0.193452 0.628024 0.332673
O O5 0.000000 0.874141 0.451190
O O6 0.048149 0.818908 0.622761
O O7 0.000000 0.000000 0.599427
O O8 0.048653 0.811731 0.282215
O O9 0.000000 0.000000 0.302732
O O10 0.076139 0.366868 0.607778
O O11 0.133831 0.213752 0.705349
O O12 0.000000 0.162035 0.981799
O O13 0.056923 0.000000 0.961245
O O14 0.224665 0.658390 0.147462
O O15 0.838965 0.500000 0.198525
#
# Coordination Sequence:
#
# PCOD9368723 Si02
#       7
#    16   8   8  16  16   8  16
#     4  10  23  42  65  94 125 160 210 261 311 374
#     4  10  22  38  56  86 126 168 204 248 304 366
#     4  10  22  38  60  88 122 164 218 258 290 358
#     4  11  21  36  60  84 123 162 201 250 311 358
#     4  10  19  36  62  91 125 164 209 257 303 360
#     4  12  22  44  70  90 118 168 206 258 322 374
#     4  11  25  42  61  93 127 157 203 261 314 376
#
# _framework density 20.191299999999998
#
# number of rings (size 3 to 8) (size 9 to 14) (size 15 to 20)
#    0.000    1.455    3.636    2.182    2.545    0.000 
#    1.636    0.000    0.000    4.364    0.000    0.000 
#    0.000    0.000    0.000    0.000    0.000    0.000 
#
# Total GULP energy -122628.605281 kJ/mol
# GULP energy per Si atom -5574.027513 kJ/mol
# Density = 2.014534 g / cm^3
# Si number density = 20.191300 Si / 1000 Ang^3
#
#
#
# Elastic Constant Matrix: (Units=GPa)
#
#
# Indices 1 2 3 4 5 6 
#
# 1 101.4304 44.6880 39.2305 0.0000 0.0000 0.0000
# 2 44.6880 87.4845 35.6367 0.0000 0.0000 0.0000
# 3 39.2305 35.6367 84.5963 0.0000 0.0000 0.0000
# 4 0.0000 0.0000 0.0000 30.4359 0.0000 0.0000
# 5 0.0000 0.0000 0.0000 0.0000 15.6685 0.0000
# 6 0.0000 0.0000 0.0000 0.0000 0.0000 28.9729
#
#
#
# Elastic Compliance Matrix: (Units=1/GPa)
#
#
# Indices 1 2 3 4 5 6 
#
# 1 0.013832 -0.005375 -0.004150 0.000000 0.000000 0.000000
# 2 -0.005375 0.015887 -0.004200 0.000000 0.000000 0.000000
# 3 -0.004150 -0.004200 0.015515 0.000000 0.000000 0.000000
# 4 0.000000 0.000000 0.000000 0.032856 0.000000 0.000000
# 5 0.000000 0.000000 0.000000 0.000000 0.063822 0.000000
# 6 0.000000 0.000000 0.000000 0.000000 0.000000 0.034515
#
#
# Mechanical properties :
#
#
# Convention : Reuss Voigt Hill
#
# Bulk Modulus (GPa) = 56.23162 56.95796 56.59479
# Shear Modulus (GPa) = 23.83155 25.27919 24.55537
#
# Velocity S-wave (km/s) = 3.43926 3.54218 3.49110
# Velocity P-wave (km/s) = 6.60918 6.70819 6.65887
#
# Compressibility (1/GPa) = 0.01778359
#
# Stress axis : x y z
#
# Youngs Moduli (GPa) = 72.29434 62.94424 64.45491
#
# Poissons Ratio (x) = 0.33833 0.26751
# Poissons Ratio (y) = 0.38859 0.27070
# Poissons Ratio (z) = 0.30004 0.26436
#
# Static dielectric constant tensor:
#      x y z
#    x 1.750640 0.000000 0.000000 
#    y 0.000000 1.746580 0.000000 
#    z 0.000000 0.000000 1.725660 
# 
# From -- ./inp_files/16495.got.cif
#   From: 2010.05.17/outbox.cif.g08.bks.cpg/sg42_9_cif.got.tgz:16495.got - 2010.06.03 19:03:34.
