data_PCOD9368852
_publ_section_title
;
Structure prediction by ZEFSAII (Michael W. Deem and Ramdas Pophale) SiO2 
 PCOD9368852
Probable space group: F M M 2
;
_chemical_formula_sum "Si O2"
_cell_formula_units_Z 96
_cell_length_a 32.739784
_cell_length_b 9.442918
_cell_length_c 14.799870
_cell_angle_alpha 90.000000
_cell_angle_beta 90.000000
_cell_angle_gamma 90.000000
_cell_volume 4575.514425
_symmetry_space_group_name_H-M "F M M 2"
_symmetry_group_IT_number 42
_symmetry_cell_setting 'orthorhombic'
loop_
_space_group_symop_operation_xyz
x,y,z
-x,-y,z
-x,y,z
x,-y,z
x,1/2+y,1/2+z
-x,1/2-y,1/2+z
-x,1/2+y,1/2+z
x,1/2-y,1/2+z
1/2+x,y,1/2+z
1/2-x,-y,1/2+z
1/2-x,y,1/2+z
1/2+x,-y,1/2+z
1/2+x,1/2+y,z
1/2-x,1/2-y,z
1/2-x,1/2+y,z
1/2+x,1/2-y,z
loop_
_atom_site_type_symbol
_atom_site_label
_atom_site_fract_x
_atom_site_fract_y
_atom_site_fract_z
Si Si1 0.123073 0.337701 0.777910
Si Si2 0.955671 0.669324 0.986659
Si Si3 0.287753 0.658003 0.022167
Si Si4 0.712509 0.841024 0.737388
Si Si5 0.454759 0.168904 0.295509
Si Si6 0.632159 0.659462 0.495000
O O1 0.119576 0.500000 0.744085
O O2 0.167271 0.278512 0.750164
O O3 0.083941 0.245873 0.751421
O O4 0.124967 0.343832 0.886940
O O5 0.953683 0.500000 0.963569
O O6 0.956334 0.764660 0.896543
O O7 0.912447 0.699418 0.034387
O O8 0.000000 0.690335 0.032282
O O9 0.288336 0.500000 0.983401
O O10 0.250000 0.750000 0.986320
O O11 0.281455 0.646291 0.129999
O O12 0.330896 0.735228 0.010933
O O13 0.750000 0.750000 0.773522
O O14 0.712034 0.000000 0.777077
O O15 0.500000 0.196254 0.255876
O O16 0.448739 0.000000 0.298611
O O17 0.643101 0.500000 0.524941
#
# Coordination Sequence:
#
# PCOD9368852 Si02
#       6
#    16  16  16  16  16  16
#     4   9  18  32  49  70  95 122 154 190 228 272
#     4   8  14  26  44  65  91 124 157 186 221 268
#     4  10  20  34  51  68  90 121 155 190 229 276
#     4   9  19  35  52  69  89 118 156 192 228 274
#     4   9  16  25  40  66  97 124 152 187 226 268
#     4   9  17  29  47  72  98 121 150 189 228 268
#
# _framework density 20.981247
#
# number of rings (size 3 to 8) (size 9 to 14) (size 15 to 20)
#    0.000    3.000    0.000    2.000    0.000    5.667 
#    0.000    1.667    0.000    1.000    0.000    4.667 
#    0.000    0.000    0.000    0.000    0.000    0.000 
#
# Total GULP energy -133719.272818 kJ/mol
# GULP energy per Si atom -5571.636367 kJ/mol
# Density = 2.093349 g / cm^3
# Si number density = 20.981247 Si / 1000 Ang^3
#
#
#
# Elastic Constant Matrix: (Units=GPa)
#
#
# Indices 1 2 3 4 5 6 
#
# 1 246.9027 120.2484 0.7140 0.0000 0.0000 0.0000
# 2 120.2484 106.8235 5.7627 0.0000 0.0000 0.0000
# 3 0.7140 5.7627 33.8284 0.0000 0.0000 0.0000
# 4 0.0000 0.0000 0.0000 5.1491 0.0000 0.0000
# 5 0.0000 0.0000 0.0000 0.0000 32.2618 0.0000
# 6 0.0000 0.0000 0.0000 0.0000 0.0000 37.1420
#
#
#
# Elastic Compliance Matrix: (Units=1/GPa)
#
#
# Indices 1 2 3 4 5 6 
#
# 1 0.009046 -0.010267 0.001558 0.000000 0.000000 0.000000
# 2 -0.010267 0.021100 -0.003378 0.000000 0.000000 0.000000
# 3 0.001558 -0.003378 0.030103 0.000000 0.000000 0.000000
# 4 0.000000 0.000000 0.000000 0.194209 0.000000 0.000000
# 5 0.000000 0.000000 0.000000 0.000000 0.030996 0.000000
# 6 0.000000 0.000000 0.000000 0.000000 0.000000 0.026924
#
#
# Mechanical properties :
#
#
# Convention : Reuss Voigt Hill
#
# Bulk Modulus (GPa) = 27.71869 71.22277 49.47073
# Shear Modulus (GPa) = 14.34400 32.29921 23.32161
#
# Velocity S-wave (km/s) = 2.61752 3.92782 3.33760
# Velocity P-wave (km/s) = 4.73023 7.38850 6.20343
#
# Compressibility (1/GPa) = 0.03607674
#
# Stress axis : x y z
#
# Youngs Moduli (GPa) = 110.54795 47.39239 33.21878
#
# Poissons Ratio (x) = 0.48656 -0.05176
# Poissons Ratio (y) = 1.13497 0.11221
# Poissons Ratio (z) = -0.17224 0.16008
#
# Static dielectric constant tensor:
#      x y z
#    x 1.802900 0.000000 0.000000 
#    y 0.000000 1.744940 0.000000 
#    z 0.000000 0.000000 1.778520 
# 
# From -- ./inp_files/23716.got.cif
#   From: 2010.05.17/outbox.cif.g08.bks.cpg/sg42_12_cif.got.tgz:23716.got - 2010.06.03 19:03:34.
