data_PCOD9368459
_publ_section_title
;
Structure prediction by ZEFSAII (Michael W. Deem and Ramdas Pophale) SiO2 
 PCOD9368459
Probable space group: F M M 2
;
_chemical_formula_sum "Si O2"
_cell_formula_units_Z 96
_cell_length_a 18.621390
_cell_length_b 7.643366
_cell_length_c 32.694813
_cell_angle_alpha 90.000000
_cell_angle_beta 90.000000
_cell_angle_gamma 90.000000
_cell_volume 4653.455978
_symmetry_space_group_name_H-M "F M M 2"
_symmetry_group_IT_number 42
_symmetry_cell_setting 'orthorhombic'
loop_
_space_group_symop_operation_xyz
x,y,z
-x,-y,z
-x,y,z
x,-y,z
x,1/2+y,1/2+z
-x,1/2-y,1/2+z
-x,1/2+y,1/2+z
x,1/2-y,1/2+z
1/2+x,y,1/2+z
1/2-x,-y,1/2+z
1/2-x,y,1/2+z
1/2+x,-y,1/2+z
1/2+x,1/2+y,z
1/2-x,1/2-y,z
1/2-x,1/2+y,z
1/2+x,1/2-y,z
loop_
_atom_site_type_symbol
_atom_site_label
_atom_site_fract_x
_atom_site_fract_y
_atom_site_fract_z
Si Si1 0.835082 0.710030 0.733770
Si Si2 0.665295 0.289454 0.322749
Si Si3 0.580875 0.207955 0.063219
Si Si4 0.165441 0.208275 0.144973
Si Si5 0.082973 0.714343 0.903372
Si Si6 0.334004 0.210310 0.984291
O O1 0.844919 0.500000 0.733778
O O2 0.750000 0.750000 0.733768
O O3 0.860757 0.776093 0.778053
O O4 0.860602 0.777122 0.689503
O O5 0.658589 0.500000 0.322057
O O6 0.750000 0.250000 0.327286
O O7 0.621152 0.225251 0.361706
O O8 0.500000 0.279917 0.064004
O O9 0.620799 0.231027 0.106168
O O10 0.575307 0.000000 0.056657
O O11 0.627493 0.278341 0.025327
O O12 0.250000 0.250000 0.140125
O O13 0.159382 0.000000 0.146256
O O14 0.084372 0.500000 0.903168
O O15 0.126550 0.773641 0.943289
O O16 0.000000 0.766932 0.905340
O O17 0.250000 0.250000 0.984076
O O18 0.340718 0.000000 0.984197
#
# Coordination Sequence:
#
# PCOD9368459 Si02
#       6
#    16  16  16  16  16  16
#     4   8  15  27  44  69  97 124 157 197 239 279
#     4   9  16  28  48  72  96 124 159 197 236 279
#     4  10  21  36  52  71  98 131 164 200 245 295
#     4  10  19  32  51  74 100 130 166 206 246 289
#     4   9  17  30  49  72  97 126 159 193 232 282
#     4  10  20  34  53  75  97 123 158 199 240 284
#
# _framework density 20.629829000000001
#
# number of rings (size 3 to 8) (size 9 to 14) (size 15 to 20)
#    0.000    2.667    0.000    2.000    0.000    5.000 
#    0.000    0.833    0.000    6.000    0.000    0.000 
#    0.000    0.000    0.000    0.000    0.000    0.000 
#
# Total GULP energy -133859.571829 kJ/mol
# GULP energy per Si atom -5577.482160 kJ/mol
# Density = 2.058287 g / cm^3
# Si number density = 20.629829 Si / 1000 Ang^3
#
#
#
# Elastic Constant Matrix: (Units=GPa)
#
#
# Indices 1 2 3 4 5 6 
#
# 1 138.8108 0.1002 125.5106 0.0000 0.0000 0.0000
# 2 0.1002 41.5999 7.8630 0.0000 0.0000 0.0000
# 3 125.5106 7.8630 266.3250 0.0000 0.0000 0.0000
# 4 0.0000 0.0000 0.0000 -0.1709 0.0000 0.0000
# 5 0.0000 0.0000 0.0000 0.0000 -8.8451 0.0000
# 6 0.0000 0.0000 0.0000 0.0000 0.0000 17.2184
#
#
#
# Elastic Compliance Matrix: (Units=1/GPa)
#
#
# Indices 1 2 3 4 5 6 
#
# 1 0.012603 0.001098 -0.005972 0.000000 0.000000 0.000000
# 2 0.001098 0.024269 -0.001234 0.000000 0.000000 0.000000
# 3 -0.005972 -0.001234 0.006606 0.000000 0.000000 0.000000
# 4 0.000000 0.000000 0.000000 -5.849689 0.000000 0.000000
# 5 0.000000 0.000000 0.000000 0.000000 -0.113057 0.000000
# 6 0.000000 0.000000 0.000000 0.000000 0.000000 0.058077
#
#
# Mechanical properties :
#
#
# Convention : Reuss Voigt Hill
#
# Bulk Modulus (GPa) = 31.98724 79.29816 55.64270
# Shear Modulus (GPa) = -0.85638 22.52460 10.83411
#
# Velocity S-wave (km/s) = -0.64499 3.30789 2.29414
# Velocity P-wave (km/s) = 3.87096 7.28777 5.83506
#
# Compressibility (1/GPa) = 0.03126246
#
# Stress axis : x y z
#
# Youngs Moduli (GPa) = 79.34737 41.20461 151.38803
#
# Poissons Ratio (x) = -0.04526 0.90405
# Poissons Ratio (y) = -0.08715 0.18684
# Poissons Ratio (z) = 0.47384 0.05085
#
# Static dielectric constant tensor:
#      x y z
#    x 1.678580 0.000000 0.000000 
#    y 0.000000 1.824770 0.000000 
#    z 0.000000 0.000000 1.776580 
# 
# From -- ./inp_files/32991.got.cif
#   From: 2010.05.17/outbox.cif.g08.bks.cpg/sg42_17_cif.got.tgz:32991.got - 2010.06.03 19:03:34.
