data_PCOD9368648
_publ_section_title
;
Structure prediction by ZEFSAII (Michael W. Deem and Ramdas Pophale) SiO2 
 PCOD9368648
Probable space group: F M M 2
;
_chemical_formula_sum "Si O2"
_cell_formula_units_Z 96
_cell_length_a 23.036296
_cell_length_b 21.500772
_cell_length_c 9.541927
_cell_angle_alpha 90.000000
_cell_angle_beta 90.000000
_cell_angle_gamma 90.000000
_cell_volume 4726.098772
_symmetry_space_group_name_H-M "F M M 2"
_symmetry_group_IT_number 42
_symmetry_cell_setting 'orthorhombic'
loop_
_space_group_symop_operation_xyz
x,y,z
-x,-y,z
-x,y,z
x,-y,z
x,1/2+y,1/2+z
-x,1/2-y,1/2+z
-x,1/2+y,1/2+z
x,1/2-y,1/2+z
1/2+x,y,1/2+z
1/2-x,-y,1/2+z
1/2-x,y,1/2+z
1/2+x,-y,1/2+z
1/2+x,1/2+y,z
1/2-x,1/2-y,z
1/2-x,1/2+y,z
1/2+x,1/2-y,z
loop_
_atom_site_type_symbol
_atom_site_label
_atom_site_fract_x
_atom_site_fract_y
_atom_site_fract_z
Si Si1 0.433366 0.138584 0.394010
Si Si2 0.629497 0.863329 0.123299
Si Si3 0.197828 0.431191 0.895300
Si Si4 0.642569 0.361825 0.157407
Si Si5 0.256924 0.318246 0.770853
Si Si6 0.567449 0.788244 0.877686
O O1 0.500000 0.122721 0.428769
O O2 0.414338 0.113948 0.242330
O O3 0.387485 0.120618 0.513392
O O4 0.429407 0.213865 0.382148
O O5 0.660508 0.916829 0.032866
O O6 0.681085 0.827244 0.202095
O O7 0.598244 0.818208 0.012585
O O8 0.222652 0.500000 0.896619
O O9 0.243844 0.375476 0.875265
O O10 0.156536 0.419803 0.760068
O O11 0.704668 0.326566 0.157370
O O12 0.599389 0.316430 0.242657
O O13 0.250000 0.250000 0.835124
O O14 0.500000 0.805950 0.875665
#
# Coordination Sequence:
#
# PCOD9368648 Si02
#       6
#    16  16  16  16  16  16
#     4  11  21  34  57  91 127 161 204 262 321 367
#     4  11  23  35  60  91 127 158 201 264 313 377
#     4   9  23  44  62  87 121 174 215 244 307 391
#     4   9  21  36  60  87 122 164 207 257 301 379
#     4  10  21  36  62  95 125 153 202 259 318 365
#     4  10  19  35  56  86 128 172 205 242 308 388
#
# _framework density 20.312738
#
# number of rings (size 3 to 8) (size 9 to 14) (size 15 to 20)
#    1.000    1.000    0.000    4.000    2.333    4.000 
#    0.000    0.833    0.000   19.000    0.000    0.000 
#    0.000    0.000    0.000    0.000    0.000    0.000 
#
# Total GULP energy -133937.212455 kJ/mol
# GULP energy per Si atom -5580.717186 kJ/mol
# Density = 2.026650 g / cm^3
# Si number density = 20.312738 Si / 1000 Ang^3
#
#
#
# Elastic Constant Matrix: (Units=GPa)
#
#
# Indices 1 2 3 4 5 6 
#
# 1 106.5825 7.7198 14.0722 -0.0001 0.0000 0.0000
# 2 7.7198 86.7945 9.8006 -0.0002 0.0001 0.0001
# 3 14.0722 9.8006 82.1226 -0.0005 0.0003 0.0003
# 4 -0.0001 -0.0002 -0.0005 -0.5959 0.0002 0.0002
# 5 0.0000 0.0001 0.0003 0.0002 28.2674 -0.0001
# 6 0.0000 0.0001 0.0003 0.0002 -0.0001 14.0991
#
#
#
# Elastic Compliance Matrix: (Units=1/GPa)
#
#
# Indices 1 2 3 4 5 6 
#
# 1 0.009639 -0.000680 -0.001571 0.000000 0.000000 0.000000
# 2 -0.000680 0.011727 -0.001283 -0.000002 0.000000 0.000000
# 3 -0.001571 -0.001283 0.012599 -0.000011 0.000000 0.000000
# 4 0.000000 -0.000002 -0.000011 -1.678016 0.000013 0.000021
# 5 0.000000 0.000000 0.000000 0.000013 0.035376 0.000000
# 6 0.000000 0.000000 0.000000 0.000021 0.000000 0.070927
#
#
# Mechanical properties :
#
#
# Convention : Reuss Voigt Hill
#
# Bulk Modulus (GPa) = 37.17752 37.63163 37.40458
# Shear Modulus (GPa) = -3.28577 24.61459 10.66441
#
# Velocity S-wave (km/s) = -1.27322 3.48484 2.29380
# Velocity P-wave (km/s) = 4.02254 5.89563 5.04675
#
# Compressibility (1/GPa) = 0.02689797
#
# Stress axis : x y z
#
# Youngs Moduli (GPa) = 103.74507 85.27464 79.37048
#
# Poissons Ratio (x) = 0.05799 0.12466
# Poissons Ratio (y) = 0.07054 0.10183
# Poissons Ratio (z) = 0.16294 0.10940
#
# Static dielectric constant tensor:
#      x y z
#    x 1.729380 0.000000 0.000000 
#    y 0.000000 1.706540 0.000000 
#    z 0.000000 0.000000 1.751090 
# 
# From -- ./inp_files/4717.got.cif
#   From: 2010.05.17/outbox.cif.g08.bks.cpg/sg42_3_cif.got.tgz:4717.got - 2010.06.03 19:03:34.
