data_PCOD9368785
_publ_section_title
;
Structure prediction by ZEFSAII (Michael W. Deem and Ramdas Pophale) SiO2 
 PCOD9368785
Probable space group: F M M 2
;
_chemical_formula_sum "Si O2"
_cell_formula_units_Z 112
_cell_length_a 26.897965
_cell_length_b 14.040076
_cell_length_c 14.772865
_cell_angle_alpha 90.000000
_cell_angle_beta 90.000000
_cell_angle_gamma 90.000000
_cell_volume 5578.964680
_symmetry_space_group_name_H-M "F M M 2"
_symmetry_group_IT_number 42
_symmetry_cell_setting 'orthorhombic'
loop_
_space_group_symop_operation_xyz
x,y,z
-x,-y,z
-x,y,z
x,-y,z
x,1/2+y,1/2+z
-x,1/2-y,1/2+z
-x,1/2+y,1/2+z
x,1/2-y,1/2+z
1/2+x,y,1/2+z
1/2-x,-y,1/2+z
1/2-x,y,1/2+z
1/2+x,-y,1/2+z
1/2+x,1/2+y,z
1/2-x,1/2-y,z
1/2-x,1/2+y,z
1/2+x,1/2-y,z
loop_
_atom_site_type_symbol
_atom_site_label
_atom_site_fract_x
_atom_site_fract_y
_atom_site_fract_z
Si Si1 0.290337 0.888364 0.557760
Si Si2 0.242886 0.104303 0.384035
Si Si3 0.613200 0.766117 0.547427
Si Si4 0.370096 0.883854 0.890636
Si Si5 0.714060 0.161160 0.207606
Si Si6 0.397707 0.265855 0.741273
Si Si7 0.441172 0.609913 0.896575
O O1 0.277497 0.849359 0.458105
O O2 0.335927 0.818840 0.582385
O O3 0.239278 0.877645 0.615585
O O4 0.305992 0.000000 0.562914
O O5 0.187706 0.140051 0.372078
O O6 0.271237 0.096188 0.291161
O O7 0.235070 0.000000 0.425777
O O8 0.619215 0.669308 0.486948
O O9 0.582635 0.751841 0.639968
O O10 0.588015 0.837557 0.476659
O O11 0.395597 0.828541 0.805812
O O12 0.377698 0.000000 0.891354
O O13 0.750000 0.250000 0.226400
O O14 0.656778 0.187667 0.220056
O O15 0.427430 0.340378 0.802169
O O16 0.500000 0.617262 0.912080
O O17 0.426367 0.500000 0.894239
#
# Coordination Sequence:
#
# PCOD9368785 Si02
#       7
#    16  16  16  16  16  16  16
#     4  11  23  35  54  85 122 163 207 252 300 361
#     4  10  20  32  49  71 109 163 208 243 285 339
#     4  11  22  38  64  89 119 159 203 256 313 374
#     4  10  21  36  54  84 122 163 207 250 300 360
#     4  12  21  33  53  82 124 163 202 241 289 359
#     4  11  23  38  63  90 123 167 202 255 312 373
#     4  10  24  46  69  93 121 155 208 271 321 369
#
# _framework density 20.075410000000002
#
# number of rings (size 3 to 8) (size 9 to 14) (size 15 to 20)
#    0.000    1.286    2.857    3.429    0.000    5.714 
#    0.000    0.000    0.000    7.714    0.000    0.000 
#    0.000    0.000    0.000    0.000    0.000    0.000 
#
# Total GULP energy -155938.527941 kJ/mol
# GULP energy per Si atom -5569.233141 kJ/mol
# Density = 2.002972 g / cm^3
# Si number density = 20.075410 Si / 1000 Ang^3
#
#
#
# Elastic Constant Matrix: (Units=GPa)
#
#
# Indices 1 2 3 4 5 6 
#
# 1 19.0610 17.3591 1.1537 0.0000 0.0000 0.0000
# 2 17.3591 128.6014 37.9739 0.0000 0.0000 0.0000
# 3 1.1537 37.9739 114.3861 0.0000 0.0000 0.0000
# 4 0.0000 0.0000 0.0000 23.1038 0.0000 0.0000
# 5 0.0000 0.0000 0.0000 0.0000 12.9372 0.0000
# 6 0.0000 0.0000 0.0000 0.0000 0.0000 14.8307
#
#
#
# Elastic Compliance Matrix: (Units=1/GPa)
#
#
# Indices 1 2 3 4 5 6 
#
# 1 0.060369 -0.008835 0.002324 0.000000 0.000000 0.000000
# 2 -0.008835 0.009914 -0.003202 0.000000 0.000000 0.000000
# 3 0.002324 -0.003202 0.009782 0.000000 0.000000 0.000000
# 4 0.000000 0.000000 0.000000 0.043283 0.000000 0.000000
# 5 0.000000 0.000000 0.000000 0.000000 0.077296 0.000000
# 6 0.000000 0.000000 0.000000 0.000000 0.000000 0.067428
#
#
# Mechanical properties :
#
#
# Convention : Reuss Voigt Hill
#
# Bulk Modulus (GPa) = 16.49116 41.66909 29.08012
# Shear Modulus (GPa) = 16.24904 23.87847 20.06375
#
# Velocity S-wave (km/s) = 2.84808 3.45257 3.16479
# Velocity P-wave (km/s) = 4.36439 6.05764 5.27934
#
# Compressibility (1/GPa) = 0.06063856
#
# Stress axis : x y z
#
# Youngs Moduli (GPa) = 16.56489 100.86647 102.22927
#
# Poissons Ratio (x) = 0.89116 -0.23760
# Poissons Ratio (y) = 0.14635 0.32736
# Poissons Ratio (z) = -0.03850 0.32299
#
# Static dielectric constant tensor:
#      x y z
#    x 1.715440 0.000000 0.000000 
#    y 0.000000 1.777350 0.000000 
#    z 0.000000 0.000000 1.811820 
# 
# From -- ./inp_files/14255.got.cif
#   From: 2010.05.17/outbox.cif.g08.bks.cpg/sg42_8_cif.got.tgz:14255.got - 2010.06.03 19:03:34.
