data_PCOD9368221
_publ_section_title
;
Structure prediction by ZEFSAII (Michael W. Deem and Ramdas Pophale) SiO2 
 PCOD9368221
Probable space group: F M M 2
;
_chemical_formula_sum "Si O2"
_cell_formula_units_Z 96
_cell_length_a 7.654011
_cell_length_b 26.229317
_cell_length_c 24.440858
_cell_angle_alpha 90.000000
_cell_angle_beta 90.000000
_cell_angle_gamma 90.000000
_cell_volume 4906.733963
_symmetry_space_group_name_H-M "F M M 2"
_symmetry_group_IT_number 42
_symmetry_cell_setting 'orthorhombic'
loop_
_space_group_symop_operation_xyz
x,y,z
-x,-y,z
-x,y,z
x,-y,z
x,1/2+y,1/2+z
-x,1/2-y,1/2+z
-x,1/2+y,1/2+z
x,1/2-y,1/2+z
1/2+x,y,1/2+z
1/2-x,-y,1/2+z
1/2-x,y,1/2+z
1/2+x,-y,1/2+z
1/2+x,1/2+y,z
1/2-x,1/2-y,z
1/2-x,1/2+y,z
1/2+x,1/2-y,z
loop_
_atom_site_type_symbol
_atom_site_label
_atom_site_fract_x
_atom_site_fract_y
_atom_site_fract_z
Si Si1 0.788473 0.000000 0.251650
Si Si2 0.707352 0.000000 0.124275
Si Si3 0.207160 0.093110 0.325725
Si Si4 0.786459 0.440470 0.944231
Si Si5 0.285698 0.400147 0.560278
Si Si6 0.707454 0.308291 0.758760
Si Si7 0.290192 0.308298 0.634899
O O1 0.724781 0.949794 0.283765
O O2 0.735781 0.000000 0.188761
O O3 0.000000 0.000000 0.252380
O O4 0.773765 0.051197 0.095689
O O5 0.500000 0.000000 0.114251
O O6 0.275057 0.083280 0.386894
O O7 0.232255 0.148965 0.300951
O O8 0.000000 0.084168 0.329253
O O9 0.735139 0.500000 0.947917
O O10 0.000000 0.440120 0.944577
O O11 0.730133 0.409644 0.997938
O O12 0.500000 0.399330 0.560216
O O13 0.225926 0.349129 0.590891
O O14 0.500000 0.312562 0.755929
O O15 0.750000 0.250000 0.773838
O O16 0.777501 0.317584 0.696904
O O17 0.500000 0.313367 0.637308
O O18 0.250000 0.250000 0.620477
#
# Coordination Sequence:
#
# PCOD9368221 Si02
#       7
#     8   8  16  16  16  16  16
#     4  10  20  31  45  71 107 138 165 204 256 308
#     4  10  18  29  49  75  99 124 161 212 260 302
#     4  10  19  32  51  75 103 135 173 211 250 299
#     4   9  15  28  50  75 100 132 171 208 245 292
#     4   9  16  28  49  76 100 123 162 211 252 292
#     4  10  20  35  54  76 103 134 170 210 257 307
#     4   9  18  32  50  73  99 128 162 202 248 299
#
# _framework density 19.56495
#
# number of rings (size 3 to 8) (size 9 to 14) (size 15 to 20)
#    0.000    2.500    1.667    1.500    0.000    2.667 
#    0.000    1.667    0.000    4.000    0.000    0.000 
#    0.000    0.000    0.000    0.000    0.000    0.000 
#
# Total GULP energy -133938.528209 kJ/mol
# GULP energy per Si atom -5580.772009 kJ/mol
# Density = 1.952042 g / cm^3
# Si number density = 19.564950 Si / 1000 Ang^3
#
#
#
# Elastic Constant Matrix: (Units=GPa)
#
#
# Indices 1 2 3 4 5 6 
#
# 1 28.8904 -11.9276 -8.3916 0.0000 0.0000 0.0000
# 2 -11.9276 132.8873 97.1835 0.0000 0.0000 0.0000
# 3 -8.3916 97.1835 163.3590 0.0000 0.0000 0.0000
# 4 0.0000 0.0000 0.0000 28.6391 0.0000 0.0000
# 5 0.0000 0.0000 0.0000 0.0000 10.6062 0.0000
# 6 0.0000 0.0000 0.0000 0.0000 0.0000 13.3518
#
#
#
# Elastic Compliance Matrix: (Units=1/GPa)
#
#
# Indices 1 2 3 4 5 6 
#
# 1 0.035947 0.003321 -0.000129 0.000000 0.000000 0.000000
# 2 0.003321 0.013627 -0.007936 0.000000 0.000000 0.000000
# 3 -0.000129 -0.007936 0.010836 0.000000 0.000000 0.000000
# 4 0.000000 0.000000 0.000000 0.034917 0.000000 0.000000
# 5 0.000000 0.000000 0.000000 0.000000 0.094284 0.000000
# 6 0.000000 0.000000 0.000000 0.000000 0.000000 0.074897
#
#
# Mechanical properties :
#
#
# Convention : Reuss Voigt Hill
#
# Bulk Modulus (GPa) = 19.63804 53.20726 36.42265
# Shear Modulus (GPa) = 17.18380 27.07092 22.12736
#
# Velocity S-wave (km/s) = 2.96682 3.72377 3.36664
# Velocity P-wave (km/s) = 4.66853 6.76335 5.81111
#
# Compressibility (1/GPa) = 0.05092159
#
# Stress axis : x y z
#
# Youngs Moduli (GPa) = 27.81864 73.38206 92.28266
#
# Poissons Ratio (x) = -0.24369 0.01191
# Poissons Ratio (y) = -0.09238 0.73239
# Poissons Ratio (z) = 0.00359 0.58239
#
# Static dielectric constant tensor:
#      x y z
#    x 1.738600 0.000000 0.000000 
#    y 0.000000 1.644440 0.000000 
#    z 0.000000 0.000000 1.678690 
# 
# From -- ./inp_files/24531.got.cif
#   From: 2010.05.17/outbox.cif.g08.bks.cpg/sg42_13_cif.got.tgz:24531.got - 2010.06.03 19:03:34.
