data_PCOD9368296
_publ_section_title
;
Structure prediction by ZEFSAII (Michael W. Deem and Ramdas Pophale) SiO2 
 PCOD9368296
Probable space group: F M M 2
;
_chemical_formula_sum "Si O2"
_cell_formula_units_Z 80
_cell_length_a 23.695575
_cell_length_b 21.202861
_cell_length_c 8.517739
_cell_angle_alpha 90.000000
_cell_angle_beta 90.000000
_cell_angle_gamma 90.000000
_cell_volume 4279.431177
_symmetry_space_group_name_H-M "F M M 2"
_symmetry_group_IT_number 42
_symmetry_cell_setting 'orthorhombic'
loop_
_space_group_symop_operation_xyz
x,y,z
-x,-y,z
-x,y,z
x,-y,z
x,1/2+y,1/2+z
-x,1/2-y,1/2+z
-x,1/2+y,1/2+z
x,1/2-y,1/2+z
1/2+x,y,1/2+z
1/2-x,-y,1/2+z
1/2-x,y,1/2+z
1/2+x,-y,1/2+z
1/2+x,1/2+y,z
1/2-x,1/2-y,z
1/2-x,1/2+y,z
1/2+x,1/2-y,z
loop_
_atom_site_type_symbol
_atom_site_label
_atom_site_fract_x
_atom_site_fract_y
_atom_site_fract_z
Si Si1 0.208300 0.576474 0.478330
Si Si2 0.907994 0.075843 0.123994
Si Si3 0.437843 0.114850 0.975149
Si Si4 0.000000 0.846306 0.960328
Si Si5 0.822570 0.424207 0.132675
Si Si6 0.500000 0.281680 0.617508
O O1 0.211173 0.500000 0.471325
O O2 0.158028 0.590695 0.599307
O O3 0.188716 0.599183 0.308303
O O4 0.270233 0.598883 0.526892
O O5 0.928066 0.100027 0.293267
O O6 0.945693 0.109791 0.991684
O O7 0.915207 0.000000 0.115924
O O8 0.500000 0.087034 0.019246
O O9 0.383977 0.091230 0.068318
O O10 0.447417 0.187822 0.022275
O O11 0.000000 0.792434 0.095100
O O12 0.000000 0.810625 0.792796
O O13 0.818927 0.500000 0.135753
#
# Coordination Sequence:
#
# PCOD9368296 Si02
#       6
#    16  16  16   8  16   8
#     4   9  19  32  50  78 110 150 189 228 283 342
#     4  11  21  35  56  86 118 149 187 234 291 340
#     4  10  21  36  53  80 113 149 187 234 280 334
#     4  12  21  39  60  78 115 147 195 240 281 342
#     4  10  18  32  52  76 112 151 190 234 282 338
#     4  10  24  39  56  82 106 155 195 234 283 334
#
# _framework density 18.694072999999999
#
# number of rings (size 3 to 8) (size 9 to 14) (size 15 to 20)
#    0.600    1.200    1.000    4.500    0.000    4.400 
#    0.000    3.000    0.000    1.200    0.000    8.400 
#    0.000    0.000    0.000    0.000    0.000    0.000 
#
# Total GULP energy -111451.561579 kJ/mol
# GULP energy per Si atom -5572.578079 kJ/mol
# Density = 1.865152 g / cm^3
# Si number density = 18.694073 Si / 1000 Ang^3
#
#
#
# Elastic Constant Matrix: (Units=GPa)
#
#
# Indices 1 2 3 4 5 6 
#
# 1 165.3363 21.9947 59.4161 -0.0004 0.0002 -0.0003
# 2 21.9947 48.8668 26.5540 -0.0013 0.0007 0.0007
# 3 59.4161 26.5540 93.2701 -0.0032 0.0016 0.0002
# 4 -0.0004 -0.0013 -0.0032 23.6819 0.0009 0.0004
# 5 0.0002 0.0007 0.0016 0.0009 32.3447 0.0002
# 6 -0.0003 0.0007 0.0002 0.0004 0.0002 -13.2988
#
#
#
# Elastic Compliance Matrix: (Units=1/GPa)
#
#
# Indices 1 2 3 4 5 6 
#
# 1 0.007883 -0.000969 -0.004746 -0.000001 0.000000 0.000000
# 2 -0.000969 0.024328 -0.006309 0.000000 0.000000 0.000001
# 3 -0.004746 -0.006309 0.015541 0.000002 -0.000001 0.000000
# 4 -0.000001 0.000000 0.000002 0.042226 -0.000001 0.000001
# 5 0.000000 0.000000 -0.000001 -0.000001 0.030917 0.000001
# 6 0.000000 0.000001 0.000000 0.000001 0.000001 -0.075195
#
#
# Mechanical properties :
#
#
# Convention : Reuss Voigt Hill
#
# Bulk Modulus (GPa) = 42.18628 58.15588 50.17108
# Shear Modulus (GPa) = 64.39243 21.84611 43.11927
#
# Velocity S-wave (km/s) = 5.87539 3.42220 4.80789
# Velocity P-wave (km/s) = 8.28508 6.84048 7.59719
#
# Compressibility (1/GPa) = 0.02370439
#
# Stress axis : x y z
#
# Youngs Moduli (GPa) = 126.86180 41.10455 64.34697
#
# Poissons Ratio (x) = 0.03984 0.30536
# Poissons Ratio (y) = 0.12296 0.40595
# Poissons Ratio (z) = 0.60203 0.25932
#
# Static dielectric constant tensor:
#      x y z
#    x 1.664670 0.000000 0.000000 
#    y 0.000000 1.646230 0.000000 
#    z 0.000000 0.000000 1.684050 
# 
# From -- ./inp_files/4582.got.cif
#   From: 2010.05.17/outbox.cif.g08.bks.cpg/sg42_3_cif.got.tgz:4582.got - 2010.06.03 19:03:34.
