data_PCOD9368104
_publ_section_title
;
Structure prediction by ZEFSAII (Michael W. Deem and Ramdas Pophale) SiO2 
 PCOD9368104
Probable space group: F M M 2
;
_chemical_formula_sum "Si O2"
_cell_formula_units_Z 104
_cell_length_a 13.890172
_cell_length_b 23.114974
_cell_length_c 17.193204
_cell_angle_alpha 90.000000
_cell_angle_beta 90.000000
_cell_angle_gamma 90.000000
_cell_volume 5520.238593
_symmetry_space_group_name_H-M "F M M 2"
_symmetry_group_IT_number 42
_symmetry_cell_setting 'orthorhombic'
loop_
_space_group_symop_operation_xyz
x,y,z
-x,-y,z
-x,y,z
x,-y,z
x,1/2+y,1/2+z
-x,1/2-y,1/2+z
-x,1/2+y,1/2+z
x,1/2-y,1/2+z
1/2+x,y,1/2+z
1/2-x,-y,1/2+z
1/2-x,y,1/2+z
1/2+x,-y,1/2+z
1/2+x,1/2+y,z
1/2-x,1/2-y,z
1/2-x,1/2+y,z
1/2+x,1/2-y,z
loop_
_atom_site_type_symbol
_atom_site_label
_atom_site_fract_x
_atom_site_fract_y
_atom_site_fract_z
Si Si1 0.608741 0.379430 0.257540
Si Si2 0.782247 0.816226 0.395783
Si Si3 0.112599 0.378974 0.036459
Si Si4 0.397496 0.000000 0.846740
Si Si5 0.706647 0.570478 0.687681
Si Si6 0.806868 0.000000 0.488086
Si Si7 0.601323 0.000000 0.475218
Si Si8 0.109009 0.398155 0.350117
O O1 0.500000 0.363802 0.231264
O O2 0.648003 0.334835 0.323365
O O3 0.602098 0.441614 0.299196
O O4 0.690776 0.395921 0.194974
O O5 0.750000 0.750000 0.396319
O O6 0.830855 0.836533 0.477289
O O7 0.684868 0.851703 0.380257
O O8 0.149969 0.391298 0.123679
O O9 0.000000 0.364949 0.035404
O O10 0.134066 0.442779 0.003268
O O11 0.299660 0.000000 0.894962
O O12 0.500000 0.000000 0.890808
O O13 0.711020 0.500000 0.671894
O O14 0.651890 0.576604 0.770021
O O15 0.700296 0.000000 0.522312
O O16 0.603015 0.054654 0.418251
O O17 0.500000 0.000000 0.520258
O O18 0.000000 0.376738 0.336351
#
# Coordination Sequence:
#
# PCOD9368104 Si02
#       8
#    16  16  16   8  16   8   8  16
#     4  10  20  37  63  92 122 156 194 244 304 366
#     4  11  24  41  61  84 114 156 213 264 296 340
#     4  12  24  37  58  89 125 161 198 248 306 366
#     4  10  16  27  56  93 122 147 185 243 309 365
#     4  11  21  34  56  94 133 156 184 234 303 380
#     4  12  18  32  53  89 123 150 193 248 308 365
#     4  10  18  31  55  84 117 151 186 243 313 372
#     4  10  20  36  58  84 115 151 190 242 308 367
#
# _framework density 18.839763999999999
#
# number of rings (size 3 to 8) (size 9 to 14) (size 15 to 20)
#    0.000    1.231    5.385    2.538    0.000    1.846 
#    0.000    4.615    0.000    3.692    0.000    0.000 
#    0.000    0.000    0.000    0.000    0.000    0.000 
#
# Total GULP energy -144782.801092 kJ/mol
# GULP energy per Si atom -5568.569273 kJ/mol
# Density = 1.879688 g / cm^3
# Si number density = 18.839764 Si / 1000 Ang^3
#
#
#
# Elastic Constant Matrix: (Units=GPa)
#
#
# Indices 1 2 3 4 5 6 
#
# 1 167.4353 42.4395 47.7675 0.0000 0.0000 0.0000
# 2 42.4395 109.2742 31.6239 0.0000 0.0000 0.0000
# 3 47.7675 31.6239 61.6845 0.0000 0.0000 0.0000
# 4 0.0000 0.0000 0.0000 -0.3217 0.0000 0.0000
# 5 0.0000 0.0000 0.0000 0.0000 28.1706 0.0000
# 6 0.0000 0.0000 0.0000 0.0000 0.0000 -5.3736
#
#
#
# Elastic Compliance Matrix: (Units=1/GPa)
#
#
# Indices 1 2 3 4 5 6 
#
# 1 0.007875 -0.001519 -0.005320 0.000000 0.000000 0.000000
# 2 -0.001519 0.011039 -0.004483 0.000000 0.000000 0.000000
# 3 -0.005320 -0.004483 0.022629 0.000000 0.000000 0.000000
# 4 0.000000 0.000000 0.000000 -3.108647 0.000000 0.000000
# 5 0.000000 0.000000 0.000000 0.000000 0.035498 0.000000
# 6 0.000000 0.000000 0.000000 0.000000 0.000000 -0.186093
#
#
# Mechanical properties :
#
#
# Convention : Reuss Voigt Hill
#
# Bulk Modulus (GPa) = 52.91033 64.67287 58.79160
# Shear Modulus (GPa) = -1.56801 18.93260 8.68230
#
# Velocity S-wave (km/s) = -0.91329 3.17350 2.14907
# Velocity P-wave (km/s) = 5.19935 6.91596 6.11816
#
# Compressibility (1/GPa) = 0.01889990
#
# Stress axis : x y z
#
# Youngs Moduli (GPa) = 126.98247 90.59139 44.19073
#
# Poissons Ratio (x) = 0.13761 0.23508
# Poissons Ratio (y) = 0.19289 0.19810
# Poissons Ratio (z) = 0.67550 0.40611
#
# Static dielectric constant tensor:
#      x y z
#    x 1.785010 0.000000 0.000000 
#    y 0.000000 1.560190 0.000000 
#    z 0.000000 0.000000 1.736780 
# 
# From -- ./inp_files/20141.got.cif
#   From: 2010.05.17/outbox.cif.g08.bks.cpg/sg42_11_cif.got.tgz:20141.got - 2010.06.03 19:03:34.
