data_PCOD9368517
_publ_section_title
;
Structure prediction by ZEFSAII (Michael W. Deem and Ramdas Pophale) SiO2 
 PCOD9368517
Probable space group: F M M 2
;
_chemical_formula_sum "Si O2"
_cell_formula_units_Z 100
_cell_length_a 25.420117
_cell_length_b 9.200654
_cell_length_c 19.898710
_cell_angle_alpha 90.000000
_cell_angle_beta 90.000000
_cell_angle_gamma 90.000000
_cell_volume 4653.944146
_symmetry_space_group_name_H-M "F M M 2"
_symmetry_group_IT_number 42
_symmetry_cell_setting 'orthorhombic'
loop_
_space_group_symop_operation_xyz
x,y,z
-x,-y,z
-x,y,z
x,-y,z
x,1/2+y,1/2+z
-x,1/2-y,1/2+z
-x,1/2+y,1/2+z
x,1/2-y,1/2+z
1/2+x,y,1/2+z
1/2-x,-y,1/2+z
1/2-x,y,1/2+z
1/2+x,-y,1/2+z
1/2+x,1/2+y,z
1/2-x,1/2-y,z
1/2-x,1/2+y,z
1/2+x,1/2-y,z
loop_
_atom_site_type_symbol
_atom_site_label
_atom_site_fract_x
_atom_site_fract_y
_atom_site_fract_z
Si Si1 0.660360 0.665337 0.024840
Si Si2 0.590643 0.162381 0.835673
Si Si3 0.000000 0.500000 0.902038
Si Si4 0.089414 0.827569 0.709819
Si Si5 0.803257 0.329839 0.377094
Si Si6 0.197071 0.672249 0.674550
Si Si7 0.056950 0.672795 0.056485
O O1 0.640633 0.500000 0.028318
O O2 0.691224 0.691761 0.093805
O O3 0.609034 0.764735 0.023680
O O4 0.694601 0.678553 0.958371
O O5 0.564543 0.245833 0.772960
O O6 0.642345 0.251762 0.856217
O O7 0.607458 0.000000 0.812773
O O8 0.546891 0.125302 0.891642
O O9 0.147100 0.755895 0.704128
O O10 0.063045 0.804509 0.637064
O O11 0.092102 0.000000 0.720932
O O12 0.803379 0.500000 0.357416
O O13 0.750000 0.250000 0.354227
O O14 0.196998 0.500000 0.688562
O O15 0.250000 0.750000 0.696943
O O16 0.055519 0.500000 0.044009
O O17 0.000000 0.731890 0.035599
#
# Coordination Sequence:
#
# PCOD9368517 Si02
#       7
#    16  16   4  16  16  16  16
#     4   9  20  37  55  82 115 151 197 242 295 355
#     4  10  22  42  62  89 117 159 204 249 307 364
#     4   8  24  44  66  84 124 156 210 250 304 370
#     4  10  20  35  57  85 117 149 195 248 296 355
#     4  11  23  41  65  92 122 159 204 256 309 366
#     4  10  19  33  53  81 116 156 192 238 296 359
#     4   9  19  34  54  83 116 153 193 239 294 353
#
# _framework density 21.48715
#
# number of rings (size 3 to 8) (size 9 to 14) (size 15 to 20)
#    0.480    1.760    0.000    2.400    1.120    3.520 
#    1.440    4.400    0.000    0.000    0.000    0.000 
#    0.000    0.000    0.000    0.000    0.000    0.000 
#
# Total GULP energy -139305.976876 kJ/mol
# GULP energy per Si atom -5572.239075 kJ/mol
# Density = 2.143824 g / cm^3
# Si number density = 21.487150 Si / 1000 Ang^3
#
#
#
# Elastic Constant Matrix: (Units=GPa)
#
#
# Indices 1 2 3 4 5 6 
#
# 1 141.6335 67.0707 -2.3421 0.0000 0.0000 0.0000
# 2 67.0707 110.4678 25.2498 0.0000 0.0000 0.0000
# 3 -2.3421 25.2498 60.1823 0.0000 0.0000 0.0000
# 4 0.0000 0.0000 0.0000 28.0409 0.0000 0.0000
# 5 0.0000 0.0000 0.0000 0.0000 -6.0516 0.0000
# 6 0.0000 0.0000 0.0000 0.0000 0.0000 27.6882
#
#
#
# Elastic Compliance Matrix: (Units=1/GPa)
#
#
# Indices 1 2 3 4 5 6 
#
# 1 0.010507 -0.007160 0.003413 0.000000 0.000000 0.000000
# 2 -0.007160 0.014891 -0.006526 0.000000 0.000000 0.000000
# 3 0.003413 -0.006526 0.019487 0.000000 0.000000 0.000000
# 4 0.000000 0.000000 0.000000 0.035662 0.000000 0.000000
# 5 0.000000 0.000000 0.000000 0.000000 -0.165244 0.000000
# 6 0.000000 0.000000 0.000000 0.000000 0.000000 0.036116
#
#
# Mechanical properties :
#
#
# Convention : Reuss Voigt Hill
#
# Bulk Modulus (GPa) = 41.08574 54.69339 47.88956
# Shear Modulus (GPa) = -250.99463 24.75583 -113.11940
#
# Velocity S-wave (km/s) = -10.81966 3.39798 -7.26357
# Velocity P-wave (km/s) = 11.70146 6.39564 6.92892
#
# Compressibility (1/GPa) = 0.02433935
#
# Stress axis : x y z
#
# Youngs Moduli (GPa) = 95.17129 67.15406 51.31588
#
# Poissons Ratio (x) = 0.48080 -0.17513
# Poissons Ratio (y) = 0.68139 0.33490
# Poissons Ratio (z) = -0.32480 0.43827
#
# Static dielectric constant tensor:
#      x y z
#    x 1.708550 0.000000 0.000000 
#    y 0.000000 1.731360 0.000000 
#    z 0.000000 0.000000 1.889470 
# 
# From -- ./inp_files/27090.got.cif
#   From: 2010.05.17/outbox.cif.g08.bks.cpg/sg42_14_cif.got.tgz:27090.got - 2010.06.03 19:03:34.
