data_PCOD9368671
_publ_section_title
;
Structure prediction by ZEFSAII (Michael W. Deem and Ramdas Pophale) SiO2 
 PCOD9368671
Probable space group: F M M 2
;
_chemical_formula_sum "Si O2"
_cell_formula_units_Z 112
_cell_length_a 14.471033
_cell_length_b 21.214890
_cell_length_c 16.406505
_cell_angle_alpha 90.000000
_cell_angle_beta 90.000000
_cell_angle_gamma 90.000000
_cell_volume 5036.819566
_symmetry_space_group_name_H-M "F M M 2"
_symmetry_group_IT_number 42
_symmetry_cell_setting 'orthorhombic'
loop_
_space_group_symop_operation_xyz
x,y,z
-x,-y,z
-x,y,z
x,-y,z
x,1/2+y,1/2+z
-x,1/2-y,1/2+z
-x,1/2+y,1/2+z
x,1/2-y,1/2+z
1/2+x,y,1/2+z
1/2-x,-y,1/2+z
1/2-x,y,1/2+z
1/2+x,-y,1/2+z
1/2+x,1/2+y,z
1/2-x,1/2-y,z
1/2-x,1/2+y,z
1/2+x,1/2-y,z
loop_
_atom_site_type_symbol
_atom_site_label
_atom_site_fract_x
_atom_site_fract_y
_atom_site_fract_z
Si Si1 0.106059 0.744293 0.261050
Si Si2 0.099699 0.607056 0.340151
Si Si3 0.612365 0.314851 0.602030
Si Si4 0.387908 0.322299 0.415335
Si Si5 0.252766 0.924654 0.147618
Si Si6 0.599494 0.073411 0.515194
Si Si7 0.803235 0.930111 0.318500
O O1 0.105107 0.672484 0.293069
O O2 0.141715 0.738188 0.168492
O O3 0.147510 0.781816 0.337583
O O4 0.000000 0.766844 0.254056
O O5 0.100218 0.617869 0.437106
O O6 0.192212 0.569009 0.325867
O O7 0.000000 0.577473 0.320345
O O8 0.500000 0.319811 0.606404
O O9 0.638173 0.303011 0.507388
O O10 0.659860 0.380090 0.631576
O O11 0.500000 0.322165 0.414104
O O12 0.347699 0.390072 0.390342
O O13 0.185744 0.916714 0.071465
O O14 0.191437 0.904314 0.226261
O O15 0.273772 0.000000 0.156105
O O16 0.500000 0.081089 0.557770
O O17 0.602571 0.000000 0.486423
O O18 0.842172 0.000000 0.320387
#
# Coordination Sequence:
#
# PCOD9368671 Si02
#       7
#    16  16  16  16  16  16  16
#     4   9  19  39  63  90 123 157 201 257 308 367
#     4  10  19  35  60  87 119 156 198 251 305 357
#     4  10  20  39  65  91 123 161 203 258 317 373
#     4  10  23  42  65  92 123 164 210 257 313 373
#     4  10  21  37  57  87 127 164 203 253 305 364
#     4   9  18  33  54  81 116 159 205 250 298 355
#     4  11  23  38  60  89 125 166 205 253 309 369
#
# _framework density 22.236253999999999
#
# number of rings (size 3 to 8) (size 9 to 14) (size 15 to 20)
#    0.000    2.143    1.429    1.286    0.000    4.286 
#    2.571    4.286    0.000    0.000    0.000    0.000 
#    0.000    0.000    0.000    0.000    0.000    0.000 
#
# Total GULP energy -156080.327100 kJ/mol
# GULP energy per Si atom -5574.297396 kJ/mol
# Density = 2.218564 g / cm^3
# Si number density = 22.236254 Si / 1000 Ang^3
#
#
#
# Elastic Constant Matrix: (Units=GPa)
#
#
# Indices 1 2 3 4 5 6 
#
# 1 36.9430 4.8450 18.6710 0.0000 0.0000 0.0000
# 2 4.8450 28.6176 42.3448 0.0000 0.0000 0.0000
# 3 18.6710 42.3448 173.9300 0.0000 0.0000 0.0000
# 4 0.0000 0.0000 0.0000 27.1274 0.0000 0.0000
# 5 0.0000 0.0000 0.0000 0.0000 28.6147 0.0000
# 6 0.0000 0.0000 0.0000 0.0000 0.0000 53.8225
#
#
#
# Elastic Compliance Matrix: (Units=1/GPa)
#
#
# Indices 1 2 3 4 5 6 
#
# 1 0.028626 -0.000468 -0.002959 0.000000 0.000000 0.000000
# 2 -0.000468 0.054627 -0.013249 0.000000 0.000000 0.000000
# 3 -0.002959 -0.013249 0.009293 0.000000 0.000000 0.000000
# 4 0.000000 0.000000 0.000000 0.036863 0.000000 0.000000
# 5 0.000000 0.000000 0.000000 0.000000 0.034947 0.000000
# 6 0.000000 0.000000 0.000000 0.000000 0.000000 0.018580
#
#
# Mechanical properties :
#
#
# Convention : Reuss Voigt Hill
#
# Bulk Modulus (GPa) = 16.89386 41.24579 29.06982
# Shear Modulus (GPa) = 21.18475 33.48825 27.33650
#
# Velocity S-wave (km/s) = 3.08995 3.88496 3.51004
# Velocity P-wave (km/s) = 4.51047 6.22198 5.43403
#
# Compressibility (1/GPa) = 0.05919310
#
# Stress axis : x y z
#
# Youngs Moduli (GPa) = 34.93379 18.30586 107.61116
#
# Poissons Ratio (x) = 0.00857 0.31841
# Poissons Ratio (y) = 0.01635 1.42577
# Poissons Ratio (z) = 0.10337 0.24254
#
# Static dielectric constant tensor:
#      x y z
#    x 1.847710 0.000000 0.000000 
#    y 0.000000 1.843850 0.000000 
#    z 0.000000 0.000000 1.880040 
# 
# From -- ./inp_files/14276.got.cif
#   From: 2010.05.17/outbox.cif.g08.bks.cpg/sg42_8_cif.got.tgz:14276.got - 2010.06.03 19:03:34.
