data_PCOD9368305
_publ_section_title
;
Structure prediction by ZEFSAII (Michael W. Deem and Ramdas Pophale) SiO2 
 PCOD9368305
Probable space group: F M M 2
;
_chemical_formula_sum "Si O2"
_cell_formula_units_Z 92
_cell_length_a 25.382225
_cell_length_b 7.564396
_cell_length_c 27.838985
_cell_angle_alpha 90.000000
_cell_angle_beta 90.000000
_cell_angle_gamma 90.000000
_cell_volume 5345.118562
_symmetry_space_group_name_H-M "F M M 2"
_symmetry_group_IT_number 42
_symmetry_cell_setting 'orthorhombic'
loop_
_space_group_symop_operation_xyz
x,y,z
-x,-y,z
-x,y,z
x,-y,z
x,1/2+y,1/2+z
-x,1/2-y,1/2+z
-x,1/2+y,1/2+z
x,1/2-y,1/2+z
1/2+x,y,1/2+z
1/2-x,-y,1/2+z
1/2-x,y,1/2+z
1/2+x,-y,1/2+z
1/2+x,1/2+y,z
1/2-x,1/2-y,z
1/2-x,1/2+y,z
1/2+x,1/2-y,z
loop_
_atom_site_type_symbol
_atom_site_label
_atom_site_fract_x
_atom_site_fract_y
_atom_site_fract_z
Si Si1 0.391641 0.500000 0.921208
Si Si2 0.000000 0.500000 0.358221
Si Si3 0.000000 0.288119 0.775192
Si Si4 0.561385 0.299837 0.602143
Si Si5 0.809268 0.289425 0.771867
Si Si6 0.098220 0.786774 0.206222
Si Si7 0.936254 0.000000 0.027894
Si Si8 0.811432 0.787971 0.382847
O O1 0.445784 0.500000 0.889486
O O2 0.354510 0.670111 0.910185
O O3 0.409418 0.500000 0.976435
O O4 0.000000 0.329120 0.323019
O O5 0.049980 0.245639 0.741757
O O6 0.000000 0.500000 0.785513
O O7 0.500000 0.256778 0.613013
O O8 0.564383 0.500000 0.584866
O O9 0.590628 0.282588 0.652721
O O10 0.578638 0.167470 0.560703
O O11 0.816543 0.500000 0.773650
O O12 0.750000 0.250000 0.757473
O O13 0.850398 0.219273 0.733580
O O14 0.816742 0.230001 0.826795
O O15 0.099713 0.000000 0.201839
O O16 0.000000 0.000000 0.021516
O O17 0.750000 0.750000 0.396215
O O18 0.820211 0.000000 0.386827
#
# Coordination Sequence:
#
# PCOD9368305 Si02
#       8
#     8   4   8  16  16  16   8  16
#     4  12  24  40  64  89 119 163 200 247 315 358
#     4  12  26  38  52  92 134 166 196 232 304 378
#     4  10  22  36  53  81 127 163 192 232 286 349
#     4  10  20  34  57  85 111 145 198 243 281 344
#     4   9  19  32  50  80 117 154 191 228 279 341
#     4  10  18  32  54  82 114 156 191 231 286 340
#     4  10  22  42  60  79 120 153 189 244 298 356
#     4  10  20  39  63  91 119 155 208 254 289 351
#
# _framework density 17.211967000000001
#
# number of rings (size 3 to 8) (size 9 to 14) (size 15 to 20)
#    0.000    1.913    3.043    1.043    2.435    3.478 
#    0.000    0.000    0.000    1.043    0.000    0.000 
#    0.000    0.000    0.000    0.000    0.000    0.000 
#
# Total GULP energy -128319.732920 kJ/mol
# GULP energy per Si atom -5579.118823 kJ/mol
# Density = 1.717279 g / cm^3
# Si number density = 17.211967 Si / 1000 Ang^3
#
#
#
# Elastic Constant Matrix: (Units=GPa)
#
#
# Indices 1 2 3 4 5 6 
#
# 1 110.0767 47.9725 84.3865 0.0001 0.0001 -0.0006
# 2 47.9725 89.1793 57.3139 -0.0001 0.0003 -0.0010
# 3 84.3865 57.3139 143.8656 0.0000 0.0000 0.0001
# 4 0.0001 -0.0001 0.0000 6.9243 0.0000 -0.0001
# 5 0.0001 0.0003 0.0000 0.0000 18.5384 -0.0002
# 6 -0.0006 -0.0010 0.0001 -0.0001 -0.0002 21.8450
#
#
#
# Elastic Compliance Matrix: (Units=1/GPa)
#
#
# Indices 1 2 3 4 5 6 
#
# 1 0.017399 -0.003764 -0.008706 0.000000 0.000000 0.000000
# 2 -0.003764 0.015887 -0.004121 0.000000 0.000000 0.000001
# 3 -0.008706 -0.004121 0.013699 0.000000 0.000000 0.000000
# 4 0.000000 0.000000 0.000000 0.144418 0.000000 0.000000
# 5 0.000000 0.000000 0.000000 0.000000 0.053942 0.000000
# 6 0.000000 0.000001 0.000000 0.000000 0.000000 0.045777
#
#
# Mechanical properties :
#
#
# Convention : Reuss Voigt Hill
#
# Bulk Modulus (GPa) = 72.45082 80.27415 76.36249
# Shear Modulus (GPa) = 15.20184 19.69146 17.44665
#
# Velocity S-wave (km/s) = 2.97512 3.38606 3.18722
# Velocity P-wave (km/s) = 7.34754 7.87572 7.61621
#
# Compressibility (1/GPa) = 0.01380247
#
# Stress axis : x y z
#
# Youngs Moduli (GPa) = 57.47308 62.94507 72.99560
#
# Poissons Ratio (x) = 0.23695 0.63552
# Poissons Ratio (y) = 0.21635 0.30082
# Poissons Ratio (z) = 0.50037 0.25940
#
# Static dielectric constant tensor:
#      x y z
#    x 1.583410 0.000000 0.000000 
#    y 0.000000 1.626870 0.000000 
#    z 0.000000 0.000000 1.547920 
# 
# From -- ./inp_files/28137.got.cif
#   From: 2010.05.17/outbox.cif.g08.bks.cpg/sg42_15_cif.got.tgz:28137.got - 2010.06.03 19:03:34.
