data_PCOD9368363
_publ_section_title
;
Structure prediction by ZEFSAII (Michael W. Deem and Ramdas Pophale) SiO2 
 PCOD9368363
Probable space group: F M M 2
;
_chemical_formula_sum "Si O2"
_cell_formula_units_Z 104
_cell_length_a 15.492609
_cell_length_b 15.618161
_cell_length_c 22.565742
_cell_angle_alpha 90.000000
_cell_angle_beta 90.000000
_cell_angle_gamma 90.000000
_cell_volume 5460.143720
_symmetry_space_group_name_H-M "F M M 2"
_symmetry_group_IT_number 42
_symmetry_cell_setting 'orthorhombic'
loop_
_space_group_symop_operation_xyz
x,y,z
-x,-y,z
-x,y,z
x,-y,z
x,1/2+y,1/2+z
-x,1/2-y,1/2+z
-x,1/2+y,1/2+z
x,1/2-y,1/2+z
1/2+x,y,1/2+z
1/2-x,-y,1/2+z
1/2-x,y,1/2+z
1/2+x,-y,1/2+z
1/2+x,1/2+y,z
1/2-x,1/2-y,z
1/2-x,1/2+y,z
1/2+x,1/2-y,z
loop_
_atom_site_type_symbol
_atom_site_label
_atom_site_fract_x
_atom_site_fract_y
_atom_site_fract_z
Si Si1 0.096758 0.367207 0.849820
Si Si2 0.104742 0.094039 0.215984
Si Si3 0.396360 0.402029 0.718230
Si Si4 0.896041 0.749715 0.629478
Si Si5 0.250000 0.250000 0.031891
Si Si6 0.664846 0.690626 0.835463
Si Si7 0.750745 0.903016 0.438570
O O1 0.130152 0.394511 0.784608
O O2 0.095316 0.263928 0.848285
O O3 0.160512 0.397590 0.900890
O O4 0.000000 0.399731 0.857498
O O5 0.130056 0.172742 0.174387
O O6 0.000000 0.095671 0.216592
O O7 0.132891 0.000000 0.194981
O O8 0.500000 0.401049 0.727282
O O9 0.369072 0.500000 0.708648
O O10 0.379323 0.338778 0.663614
O O11 0.354146 0.361651 0.776555
O O12 0.835259 0.745399 0.572599
O O13 0.000000 0.743232 0.618018
O O14 0.246217 0.333563 0.990349
O O15 0.750000 0.750000 0.829320
O O16 0.679861 0.628481 0.890804
O O17 0.736075 0.000000 0.458324
#
# Coordination Sequence:
#
# PCOD9368363 Si02
#       7
#    16  16  16  16   8  16  16
#     4  10  18  34  63  92 120 151 185 236 305 363
#     4   9  17  32  58  92 123 150 186 236 298 363
#     4  10  20  36  61  94 125 152 186 233 297 369
#     4  10  23  41  61  85 119 159 200 249 294 347
#     4  12  26  44  60  82 112 162 216 252 292 336
#     4  10  19  35  59  88 121 155 187 234 298 360
#     4  11  24  42  58  83 119 153 201 251 291 350
#
# _framework density 19.047118000000001
#
# number of rings (size 3 to 8) (size 9 to 14) (size 15 to 20)
#    0.000    1.846    3.846    1.385    1.077    2.769 
#    0.000    3.077    0.000    1.846    0.000    0.000 
#    0.000    0.000    0.000    0.000    0.000    0.000 
#
# Total GULP energy -145156.300464 kJ/mol
# GULP energy per Si atom -5582.934633 kJ/mol
# Density = 1.900377 g / cm^3
# Si number density = 19.047118 Si / 1000 Ang^3
#
#
#
# Elastic Constant Matrix: (Units=GPa)
#
#
# Indices 1 2 3 4 5 6 
#
# 1 52.8883 33.0869 40.6592 0.0000 0.0000 0.0000
# 2 33.0869 186.6273 73.8115 0.0000 0.0000 0.0000
# 3 40.6592 73.8115 128.3195 0.0000 0.0000 0.0000
# 4 0.0000 0.0000 0.0000 29.8997 0.0000 0.0000
# 5 0.0000 0.0000 0.0000 0.0000 -16.6736 0.0000
# 6 0.0000 0.0000 0.0000 0.0000 0.0000 6.9523
#
#
#
# Elastic Compliance Matrix: (Units=1/GPa)
#
#
# Indices 1 2 3 4 5 6 
#
# 1 0.025411 -0.001710 -0.007068 0.000000 0.000000 0.000000
# 2 -0.001710 0.007051 -0.003514 0.000000 0.000000 0.000000
# 3 -0.007068 -0.003514 0.012054 0.000000 0.000000 0.000000
# 4 0.000000 0.000000 0.000000 0.033445 0.000000 0.000000
# 5 0.000000 0.000000 0.000000 0.000000 -0.059975 0.000000
# 6 0.000000 0.000000 0.000000 0.000000 0.000000 0.143838
#
#
# Mechanical properties :
#
#
# Convention : Reuss Voigt Hill
#
# Bulk Modulus (GPa) = 50.17006 73.66114 61.91560
# Shear Modulus (GPa) = 25.89954 18.72084 22.31019
#
# Velocity S-wave (km/s) = 3.69150 3.13848 3.42616
# Velocity P-wave (km/s) = 6.67583 7.20350 6.94468
#
# Compressibility (1/GPa) = 0.01993220
#
# Stress axis : x y z
#
# Youngs Moduli (GPa) = 39.35255 141.81819 82.95828
#
# Poissons Ratio (x) = 0.24244 0.58639
# Poissons Ratio (y) = 0.06728 0.29154
# Poissons Ratio (z) = 0.27816 0.49840
#
# Static dielectric constant tensor:
#      x y z
#    x 1.715770 0.000000 0.000000 
#    y 0.000000 1.677820 0.000000 
#    z 0.000000 0.000000 1.618840 
# 
# From -- ./inp_files/25936.got.cif
#   From: 2010.05.17/outbox.cif.g08.bks.cpg/sg42_13_cif.got.tgz:25936.got - 2010.06.03 19:03:34.
