data_PCOD9368615
_publ_section_title
;
Structure prediction by ZEFSAII (Michael W. Deem and Ramdas Pophale) SiO2 
 PCOD9368615
Probable space group: F M M 2
;
_chemical_formula_sum "Si O2"
_cell_formula_units_Z 112
_cell_length_a 14.859878
_cell_length_b 15.588499
_cell_length_c 22.264990
_cell_angle_alpha 90.000000
_cell_angle_beta 90.000000
_cell_angle_gamma 90.000000
_cell_volume 5157.533383
_symmetry_space_group_name_H-M "F M M 2"
_symmetry_group_IT_number 42
_symmetry_cell_setting 'orthorhombic'
loop_
_space_group_symop_operation_xyz
x,y,z
-x,-y,z
-x,y,z
x,-y,z
x,1/2+y,1/2+z
-x,1/2-y,1/2+z
-x,1/2+y,1/2+z
x,1/2-y,1/2+z
1/2+x,y,1/2+z
1/2-x,-y,1/2+z
1/2-x,y,1/2+z
1/2+x,-y,1/2+z
1/2+x,1/2+y,z
1/2-x,1/2-y,z
1/2-x,1/2+y,z
1/2+x,1/2-y,z
loop_
_atom_site_type_symbol
_atom_site_label
_atom_site_fract_x
_atom_site_fract_y
_atom_site_fract_z
Si Si1 0.603378 0.333119 0.676040
Si Si2 0.402973 0.867538 0.649940
Si Si3 0.602936 0.399357 0.351143
Si Si4 0.652311 0.905518 0.049426
Si Si5 0.863847 0.905921 0.013880
Si Si6 0.142294 0.766600 0.456868
Si Si7 0.743179 0.903954 0.746113
O O1 0.500000 0.355161 0.690033
O O2 0.606308 0.234868 0.655005
O O3 0.638059 0.389492 0.619875
O O4 0.672169 0.345040 0.730763
O O5 0.500000 0.892892 0.675769
O O6 0.401370 0.893078 0.580681
O O7 0.321481 0.904399 0.687971
O O8 0.500000 0.394775 0.328471
O O9 0.616371 0.500000 0.371280
O O10 0.613941 0.327044 0.401971
O O11 0.677554 0.380847 0.300734
O O12 0.756319 0.904077 0.028107
O O13 0.615944 0.000000 0.033856
O O14 0.614001 0.824185 0.014205
O O15 0.886571 0.000000 0.990505
O O16 0.891819 0.829275 0.969946
O O17 0.250000 0.750000 0.452962
O O18 0.777559 0.000000 0.756676
#
# Coordination Sequence:
#
# PCOD9368615 Si02
#       7
#    16  16  16  16  16  16  16
#     4  11  23  37  59  94 135 174 215 266 328 397
#     4  11  22  36  58  89 129 175 220 263 316 385
#     4  10  23  44  68  95 129 175 230 280 328 386
#     4  10  19  34  57  89 130 174 217 263 322 388
#     4  10  20  35  58  92 135 177 216 265 327 394
#     4  10  21  37  63  93 129 176 217 271 324 390
#     4  11  23  40  63  91 131 171 215 275 330 389
#
# _framework density 21.715807000000002
#
# number of rings (size 3 to 8) (size 9 to 14) (size 15 to 20)
#    0.000    1.571    2.857    2.143    0.000    5.714 
#    0.000    0.000    0.000    0.000    0.000    0.000 
#    0.000    4.571    0.000    0.000    0.000    0.000 
#
# Total GULP energy -156368.476008 kJ/mol
# GULP energy per Si atom -5584.588429 kJ/mol
# Density = 2.166638 g / cm^3
# Si number density = 21.715807 Si / 1000 Ang^3
#
#
#
# Elastic Constant Matrix: (Units=GPa)
#
#
# Indices 1 2 3 4 5 6 
#
# 1 96.3043 51.9249 28.6588 0.0000 0.0000 0.0000
# 2 51.9249 164.1856 54.2611 0.0000 0.0000 0.0000
# 3 28.6588 54.2611 87.8447 0.0000 0.0000 0.0000
# 4 0.0000 0.0000 0.0000 30.8369 0.0000 0.0000
# 5 0.0000 0.0000 0.0000 0.0000 2.9255 0.0000
# 6 0.0000 0.0000 0.0000 0.0000 0.0000 6.0670
#
#
#
# Elastic Compliance Matrix: (Units=1/GPa)
#
#
# Indices 1 2 3 4 5 6 
#
# 1 0.012822 -0.003358 -0.002109 0.000000 0.000000 0.000000
# 2 -0.003358 0.008532 -0.004175 0.000000 0.000000 0.000000
# 3 -0.002109 -0.004175 0.014651 0.000000 0.000000 0.000000
# 4 0.000000 0.000000 0.000000 0.032429 0.000000 0.000000
# 5 0.000000 0.000000 0.000000 0.000000 0.341822 0.000000
# 6 0.000000 0.000000 0.000000 0.000000 0.000000 0.164827
#
#
# Mechanical properties :
#
#
# Convention : Reuss Voigt Hill
#
# Bulk Modulus (GPa) = 59.80393 68.66938 64.23666
# Shear Modulus (GPa) = 8.33417 22.19852 15.26634
#
# Velocity S-wave (km/s) = 1.96116 3.20070 2.65430
# Velocity P-wave (km/s) = 5.72078 6.73423 6.24809
#
# Compressibility (1/GPa) = 0.01672131
#
# Stress axis : x y z
#
# Youngs Moduli (GPa) = 77.99154 117.19995 68.25702
#
# Poissons Ratio (x) = 0.39357 0.14394
# Poissons Ratio (y) = 0.26190 0.28496
# Poissons Ratio (z) = 0.16447 0.48929
#
# Static dielectric constant tensor:
#      x y z
#    x 1.830340 0.000000 0.000000 
#    y 0.000000 2.103880 0.000000 
#    z 0.000000 0.000000 1.765540 
# 
# From -- ./inp_files/29471.got.cif
#   From: 2010.05.17/outbox.cif.g08.bks.cpg/sg42_15_cif.got.tgz:29471.got - 2010.06.03 19:03:34.
