data_PCOD9368288
_publ_section_title
;
Structure prediction by ZEFSAII (Michael W. Deem and Ramdas Pophale) SiO2 
 PCOD9368288
Probable space group: F M M 2
;
_chemical_formula_sum "Si O2"
_cell_formula_units_Z 96
_cell_length_a 14.798892
_cell_length_b 10.513832
_cell_length_c 28.856734
_cell_angle_alpha 90.000000
_cell_angle_beta 90.000000
_cell_angle_gamma 90.000000
_cell_volume 4489.907668
_symmetry_space_group_name_H-M "F M M 2"
_symmetry_group_IT_number 42
_symmetry_cell_setting 'orthorhombic'
loop_
_space_group_symop_operation_xyz
x,y,z
-x,-y,z
-x,y,z
x,-y,z
x,1/2+y,1/2+z
-x,1/2-y,1/2+z
-x,1/2+y,1/2+z
x,1/2-y,1/2+z
1/2+x,y,1/2+z
1/2-x,-y,1/2+z
1/2-x,y,1/2+z
1/2+x,-y,1/2+z
1/2+x,1/2+y,z
1/2-x,1/2-y,z
1/2-x,1/2+y,z
1/2+x,1/2-y,z
loop_
_atom_site_type_symbol
_atom_site_label
_atom_site_fract_x
_atom_site_fract_y
_atom_site_fract_z
Si Si1 0.348063 0.000000 0.954708
Si Si2 0.389856 0.000000 0.063338
Si Si3 0.894629 0.267503 0.596894
Si Si4 0.167563 0.148757 0.296075
Si Si5 0.896190 0.000000 0.041550
Si Si6 0.633656 0.000000 0.434193
Si Si7 0.830231 0.852809 0.194178
Si Si8 0.360179 0.765366 0.893555
O O1 0.242440 0.000000 0.940667
O O2 0.385805 0.872358 0.930943
O O3 0.360767 0.000000 0.009648
O O4 0.356463 0.872932 0.089037
O O5 0.500000 0.000000 0.063932
O O6 0.853768 0.372322 0.562303
O O7 0.886802 0.318604 0.648916
O O8 0.000000 0.255072 0.584994
O O9 0.250000 0.250000 0.294466
O O10 0.123922 0.157378 0.245002
O O11 0.114347 0.187595 0.342235
O O12 0.196746 0.000000 0.302091
O O13 0.898686 0.000000 0.986787
O O14 0.000000 0.000000 0.058768
O O15 0.605855 0.872826 0.407716
O O16 0.750000 0.750000 0.193650
O O17 0.799176 0.000000 0.190466
O O18 0.250000 0.750000 0.893742
#
# Coordination Sequence:
#
# PCOD9368288 Si02
#       8
#     8   8  16  16   8   8  16  16
#     4  10  18  32  51  72 102 134 167 212 255 300
#     4  10  22  36  53  76 104 140 179 218 263 312
#     4  10  21  38  57  76 102 143 183 214 260 321
#     4   9  17  30  49  75 106 136 166 204 254 311
#     4  10  20  36  55  74  98 136 183 216 253 316
#     4  10  20  30  49  78 102 132 171 212 259 296
#     4  10  21  35  55  83 109 135 172 221 268 309
#     4   9  17  29  47  74 104 134 166 204 250 308
#
# _framework density 21.381287
#
# number of rings (size 3 to 8) (size 9 to 14) (size 15 to 20)
#    0.000    2.333    1.667    1.000    4.667    1.333 
#    0.000    0.000    0.000    2.000    0.000    0.000 
#    0.000    0.000    0.000    0.000    0.000    0.000 
#
# Total GULP energy -133852.289571 kJ/mol
# GULP energy per Si atom -5577.178732 kJ/mol
# Density = 2.133262 g / cm^3
# Si number density = 21.381287 Si / 1000 Ang^3
#
#
#
# Elastic Constant Matrix: (Units=GPa)
#
#
# Indices 1 2 3 4 5 6 
#
# 1 43.9087 12.8204 -15.3408 0.0000 0.0000 0.0000
# 2 12.8204 225.8589 91.8178 0.0000 0.0000 0.0000
# 3 -15.3408 91.8178 148.8455 0.0000 0.0000 0.0000
# 4 0.0000 0.0000 0.0000 39.9181 0.0000 0.0000
# 5 0.0000 0.0000 0.0000 0.0000 64.2832 0.0000
# 6 0.0000 0.0000 0.0000 0.0000 0.0000 -4.9515
#
#
#
# Elastic Compliance Matrix: (Units=1/GPa)
#
#
# Indices 1 2 3 4 5 6 
#
# 1 0.025385 -0.003343 0.004678 0.000000 0.000000 0.000000
# 2 -0.003343 0.006350 -0.004261 0.000000 0.000000 0.000000
# 3 0.004678 -0.004261 0.009829 0.000000 0.000000 0.000000
# 4 0.000000 0.000000 0.000000 0.025051 0.000000 0.000000
# 5 0.000000 0.000000 0.000000 0.000000 0.015556 0.000000
# 6 0.000000 0.000000 0.000000 0.000000 0.000000 -0.201961
#
#
# Mechanical properties :
#
#
# Convention : Reuss Voigt Hill
#
# Bulk Modulus (GPa) = 28.00152 66.35641 47.17897
# Shear Modulus (GPa) = -49.00342 41.80436 -3.59953
#
# Velocity S-wave (km/s) = -4.79256 4.42654 -1.29890
# Velocity P-wave (km/s) = 4.18331 7.56491 4.45689
#
# Compressibility (1/GPa) = 0.03571235
#
# Stress axis : x y z
#
# Youngs Moduli (GPa) = 39.39321 157.48826 101.73674
#
# Poissons Ratio (x) = 0.52646 -0.47597
# Poissons Ratio (y) = 0.13168 0.43354
# Poissons Ratio (z) = -0.18430 0.67113
#
# Static dielectric constant tensor:
#      x y z
#    x 1.791170 0.000000 0.000000 
#    y 0.000000 1.808840 0.000000 
#    z 0.000000 0.000000 1.755430 
# 
# From -- ./inp_files/30483.got.cif
#   From: 2010.05.17/outbox.cif.g08.bks.cpg/sg42_16_cif.got.tgz:30483.got - 2010.06.03 19:03:34.
