data_PCOD9368469
_publ_section_title
;
Structure prediction by ZEFSAII (Michael W. Deem and Ramdas Pophale) SiO2 
 PCOD9368469
Probable space group: F M M 2
;
_chemical_formula_sum "Si O2"
_cell_formula_units_Z 128
_cell_length_a 16.552161
_cell_length_b 18.395052
_cell_length_c 23.881949
_cell_angle_alpha 90.000000
_cell_angle_beta 90.000000
_cell_angle_gamma 90.000000
_cell_volume 7271.524779
_symmetry_space_group_name_H-M "F M M 2"
_symmetry_group_IT_number 42
_symmetry_cell_setting 'orthorhombic'
loop_
_space_group_symop_operation_xyz
x,y,z
-x,-y,z
-x,y,z
x,-y,z
x,1/2+y,1/2+z
-x,1/2-y,1/2+z
-x,1/2+y,1/2+z
x,1/2-y,1/2+z
1/2+x,y,1/2+z
1/2-x,-y,1/2+z
1/2-x,y,1/2+z
1/2+x,-y,1/2+z
1/2+x,1/2+y,z
1/2-x,1/2-y,z
1/2-x,1/2+y,z
1/2+x,1/2-y,z
loop_
_atom_site_type_symbol
_atom_site_label
_atom_site_fract_x
_atom_site_fract_y
_atom_site_fract_z
Si Si1 0.901461 0.080138 0.860940
Si Si2 0.321268 0.914632 0.601086
Si Si3 0.900956 0.728534 0.420269
Si Si4 0.596221 0.282438 0.045949
Si Si5 0.813778 0.686763 0.136901
Si Si6 0.595255 0.584642 0.221966
Si Si7 0.094424 0.305090 0.812520
Si Si8 0.093749 0.349225 0.248351
O O1 0.876503 0.148055 0.899177
O O2 0.876769 0.096199 0.796712
O O3 0.000000 0.081436 0.860623
O O4 0.875376 0.000000 0.879170
O O5 0.371346 0.863070 0.559655
O O6 0.233724 0.877971 0.606298
O O7 0.360766 0.905274 0.662895
O O8 0.321563 0.000000 0.587467
O O9 0.875958 0.740789 0.483937
O O10 0.871532 0.786242 0.373740
O O11 0.000000 0.730055 0.418378
O O12 0.500000 0.283767 0.046883
O O13 0.628108 0.228018 0.093477
O O14 0.750000 0.750000 0.153670
O O15 0.856961 0.656116 0.191608
O O16 0.500000 0.603307 0.213701
O O17 0.600016 0.500000 0.237088
O O18 0.630009 0.634161 0.271674
O O19 0.096047 0.229669 0.778288
O O20 0.000000 0.325343 0.820761
O O21 0.000000 0.365688 0.235823
#
# Coordination Sequence:
#
# PCOD9368469 Si02
#       8
#    16  16  16  16  16  16  16  16
#     4   8  14  25  42  68  98 119 141 182 235 287
#     4  10  21  34  48  70 102 134 161 195 243 295
#     4   8  15  26  43  69  95 119 149 190 240 282
#     4  10  19  32  52  75  96 123 165 210 243 277
#     4  10  20  32  47  67  95 130 164 199 242 287
#     4   9  16  27  47  74  99 123 153 191 237 289
#     4   8  13  24  43  68  97 120 144 189 243 287
#     4   9  16  27  46  69  90 119 157 193 232 278
#
# _framework density 17.602910999999999
#
# number of rings (size 3 to 8) (size 9 to 14) (size 15 to 20)
#    0.000    3.000    0.000    3.750    0.000    2.750 
#    0.000    1.250    0.000   19.875    0.000    5.250 
#    0.000    0.000    0.000    0.000    0.000    0.000 
#
# Total GULP energy -178264.332305 kJ/mol
# GULP energy per Si atom -5570.760385 kJ/mol
# Density = 1.756285 g / cm^3
# Si number density = 17.602911 Si / 1000 Ang^3
#
#
#
# Elastic Constant Matrix: (Units=GPa)
#
#
# Indices 1 2 3 4 5 6 
#
# 1 25.9585 1.0908 10.1211 0.0000 0.0000 0.0000
# 2 1.0908 36.6918 -0.4998 0.0000 0.0000 0.0000
# 3 10.1211 -0.4998 51.4323 0.0000 0.0000 0.0000
# 4 0.0000 0.0000 0.0000 19.0294 0.0000 0.0000
# 5 0.0000 0.0000 0.0000 0.0000 -8.7046 0.0000
# 6 0.0000 0.0000 0.0000 0.0000 0.0000 9.1494
#
#
#
# Elastic Compliance Matrix: (Units=1/GPa)
#
#
# Indices 1 2 3 4 5 6 
#
# 1 0.041792 -0.001355 -0.008237 0.000000 0.000000 0.000000
# 2 -0.001355 0.027302 0.000532 0.000000 0.000000 0.000000
# 3 -0.008237 0.000532 0.021069 0.000000 0.000000 0.000000
# 4 0.000000 0.000000 0.000000 0.052550 0.000000 0.000000
# 5 0.000000 0.000000 0.000000 0.000000 -0.114882 0.000000
# 6 0.000000 0.000000 0.000000 0.000000 0.000000 0.109296
#
#
# Mechanical properties :
#
#
# Convention : Reuss Voigt Hill
#
# Bulk Modulus (GPa) = 13.88067 15.05630 14.46848
# Shear Modulus (GPa) = 27.89238 10.78621 19.33929
#
# Velocity S-wave (km/s) = 3.98494 2.47807 3.31817
# Velocity P-wave (km/s) = 5.39217 4.09385 4.78723
#
# Compressibility (1/GPa) = 0.07204264
#
# Stress axis : x y z
#
# Youngs Moduli (GPa) = 23.92829 36.62792 47.46276
#
# Poissons Ratio (x) = 0.04962 0.39095
# Poissons Ratio (y) = 0.03241 -0.02524
# Poissons Ratio (z) = 0.19710 -0.01948
#
# Static dielectric constant tensor:
#      x y z
#    x 1.621760 0.000000 0.000000 
#    y 0.000000 1.599130 0.000000 
#    z 0.000000 0.000000 1.607530 
# 
# From -- ./inp_files/30007.got.cif
#   From: 2010.05.17/outbox.cif.g08.bks.cpg/sg42_16_cif.got.tgz:30007.got - 2010.06.03 19:03:34.
