data_PCOD9368232
_publ_section_title
;
Structure prediction by ZEFSAII (Michael W. Deem and Ramdas Pophale) SiO2 
 PCOD9368232
Probable space group: F M M 2
;
_chemical_formula_sum "Si O2"
_cell_formula_units_Z 92
_cell_length_a 8.262492
_cell_length_b 20.045950
_cell_length_c 28.293719
_cell_angle_alpha 90.000000
_cell_angle_beta 90.000000
_cell_angle_gamma 90.000000
_cell_volume 4686.274574
_symmetry_space_group_name_H-M "F M M 2"
_symmetry_group_IT_number 42
_symmetry_cell_setting 'orthorhombic'
loop_
_space_group_symop_operation_xyz
x,y,z
-x,-y,z
-x,y,z
x,-y,z
x,1/2+y,1/2+z
-x,1/2-y,1/2+z
-x,1/2+y,1/2+z
x,1/2-y,1/2+z
1/2+x,y,1/2+z
1/2-x,-y,1/2+z
1/2-x,y,1/2+z
1/2+x,-y,1/2+z
1/2+x,1/2+y,z
1/2-x,1/2-y,z
1/2-x,1/2+y,z
1/2+x,1/2-y,z
loop_
_atom_site_type_symbol
_atom_site_label
_atom_site_fract_x
_atom_site_fract_y
_atom_site_fract_z
Si Si1 0.681875 0.081159 0.229400
Si Si2 0.806159 0.677463 0.545758
Si Si3 0.682747 0.852081 0.438113
Si Si4 0.695656 0.422088 0.126193
Si Si5 0.500000 0.127315 0.894028
Si Si6 0.165951 0.000000 0.970526
Si Si7 0.500000 0.500000 0.465820
Si Si8 0.000000 0.580566 0.786676
O O1 0.500000 0.103235 0.243083
O O2 0.720822 0.099004 0.175125
O O3 0.834219 0.103667 0.261101
O O4 0.681903 0.000000 0.231456
O O5 0.750000 0.750000 0.561135
O O6 0.760983 0.666216 0.491174
O O7 0.748615 0.621615 0.581955
O O8 0.000000 0.674380 0.545589
O O9 0.500000 0.826066 0.429252
O O10 0.831764 0.834766 0.404484
O O11 0.665076 0.933003 0.439643
O O12 0.500000 0.415077 0.131854
O O13 0.728659 0.500000 0.118665
O O14 0.500000 0.101010 0.841084
O O15 0.500000 0.064690 0.931338
O O16 0.336989 0.000000 0.995844
O O17 0.000000 0.000000 0.000217
O O18 0.000000 0.500000 0.783731
#
# Coordination Sequence:
#
# PCOD9368232 Si02
#       8
#    16  16  16  16   8   8   4   8
#     4   9  17  30  49  74 109 147 183 222 277 341
#     4  10  22  36  54  80 114 148 192 231 280 336
#     4   9  19  33  49  73 106 145 181 225 270 322
#     4   9  17  33  56  80 109 149 189 232 279 333
#     4  10  18  30  50  71 105 144 181 222 274 327
#     4   8  14  26  46  64  93 133 171 213 258 300
#     4   8  14  26  38  66  94 126 172 210 254 316
#     4  10  18  30  48  75 112 147 178 229 286 338
#
# _framework density 19.631799999999998
#
# number of rings (size 3 to 8) (size 9 to 14) (size 15 to 20)
#    0.000    2.783    1.304    0.000    2.435    1.391 
#    0.000    0.000    0.000    0.000    0.000    1.217 
#    0.000    0.000    0.000    0.000    0.000    0.000 
#
# Total GULP energy -128135.678679 kJ/mol
# GULP energy per Si atom -5571.116464 kJ/mol
# Density = 1.958712 g / cm^3
# Si number density = 19.631800 Si / 1000 Ang^3
#
#
#
# Elastic Constant Matrix: (Units=GPa)
#
#
# Indices 1 2 3 4 5 6 
#
# 1 153.1179 15.7916 57.4279 0.0000 0.0000 0.0000
# 2 15.7916 34.3549 23.4693 0.0000 0.0000 0.0000
# 3 57.4279 23.4693 82.7212 0.0000 0.0000 0.0000
# 4 0.0000 0.0000 0.0000 -0.5822 0.0000 0.0000
# 5 0.0000 0.0000 0.0000 0.0000 12.1016 0.0000
# 6 0.0000 0.0000 0.0000 0.0000 0.0000 15.9665
#
#
#
# Elastic Compliance Matrix: (Units=1/GPa)
#
#
# Indices 1 2 3 4 5 6 
#
# 1 0.008831 0.000160 -0.006176 0.000000 0.000000 0.000000
# 2 0.000160 0.036109 -0.010356 0.000000 0.000000 0.000000
# 3 -0.006176 -0.010356 0.019314 0.000000 0.000000 0.000000
# 4 0.000000 0.000000 0.000000 -1.717597 0.000000 0.000000
# 5 0.000000 0.000000 0.000000 0.000000 0.082634 0.000000
# 6 0.000000 0.000000 0.000000 0.000000 0.000000 0.062631
#
#
# Mechanical properties :
#
#
# Convention : Reuss Voigt Hill
#
# Bulk Modulus (GPa) = 31.73538 51.50795 41.62167
# Shear Modulus (GPa) = -3.41336 17.06419 6.82541
#
# Velocity S-wave (km/s) = -1.32002 2.95144 1.86662
# Velocity P-wave (km/s) = 3.72520 6.15700 5.08850
#
# Compressibility (1/GPa) = 0.03151057
#
# Stress axis : x y z
#
# Youngs Moduli (GPa) = 113.24038 27.69409 51.77470
#
# Poissons Ratio (x) = -0.00443 0.31976
# Poissons Ratio (y) = -0.01811 0.53616
# Poissons Ratio (z) = 0.69937 0.28679
#
# Static dielectric constant tensor:
#      x y z
#    x 1.780840 0.000000 0.000000 
#    y 0.000000 1.683830 0.000000 
#    z 0.000000 0.000000 1.647900 
# 
# From -- ./inp_files/31491.got.cif
#   From: 2010.05.17/outbox.cif.g08.bks.cpg/sg42_16_cif.got.tgz:31491.got - 2010.06.03 19:03:34.
