data_PCOD9368062
_publ_section_title
;
Structure prediction by ZEFSAII (Michael W. Deem and Ramdas Pophale) SiO2 
 PCOD9368062
Probable space group: A B A 2
;
_chemical_formula_sum "Si O2"
_cell_formula_units_Z 20
_cell_length_a 18.000000
_cell_length_b 9.000000
_cell_length_c 12.000000
_cell_angle_alpha 90.000000
_cell_angle_beta 90.000000
_cell_angle_gamma 90.000000
_cell_volume 1944.000000
_symmetry_space_group_name_H-M "A B A 2"
_symmetry_group_IT_number 41
_symmetry_cell_setting 'orthorhombic'
loop_
_space_group_symop_operation_xyz
x,y,z
-x,-y,z
1/2-x,y,1/2+z
1/2+x,-y,1/2+z
x,1/2+y,1/2+z
-x,1/2-y,1/2+z
1/2-x,1/2+y,z
1/2+x,1/2-y,z
loop_
_atom_site_type_symbol
_atom_site_label
_atom_site_fract_x
_atom_site_fract_y
_atom_site_fract_z
Si Si1 0.560673 0.202442 0.471670
Si Si2 0.665060 0.439780 0.556942
Si Si3 0.268822 0.775662 0.936122
Si Si4 0.104976 0.616529 0.534241
Si Si5 0.352290 0.818781 0.245833
O O1 0.589204 0.362014 0.515609
O O2 0.474598 0.180901 0.498502
O O3 0.583391 0.182443 0.341305
O O4 0.599303 0.061786 0.534989
O O5 0.719758 0.298993 0.536070
O O6 0.698373 0.565606 0.473871
O O7 0.657066 0.528422 0.673746
O O8 0.220128 0.786422 0.823929
O O9 0.338387 0.664870 0.936800
O O10 0.129823 0.693516 0.651098
#
# Coordination Sequence:
#
# PCOD9368062 Si02
#       5
#     8   8   8   8   8
#     4  10  23  44  66  98 132 168 220 269 320 394
#     4  10  22  40  65  93 125 167 218 262 319 389
#     4  10  21  40  64  95 126 165 219 263 314 392
#     4  10  23  44  68  98 133 169 221 267 318 396
#     4  10  23  44  67  91 132 177 208 272 333 366
#
# _framework density 10.288066000000001
#
# number of rings (size 3 to 8) (size 9 to 14) (size 15 to 20)
#    0.000    2.000    0.000    2.400    0.000   16.000 
#    0.000   38.000    0.000    0.000    0.000    0.000 
#    0.000    0.000    0.000    0.000    0.000    0.000 
#
# Total GULP energy -111562.728304 kJ/mol
# GULP energy per Si atom -5578.136415 kJ/mol
# Density = 1.026465 g / cm^3
# Si number density = 10.288066 Si / 1000 Ang^3
#
#
#
# Elastic Constant Matrix: (Units=GPa)
#
#
# Indices 1 2 3 4 5 6 
#
# 1 123.4104 36.8857 58.0056 0.0000 0.0000 0.0000
# 2 36.8857 62.1140 57.0930 0.0000 0.0000 0.0000
# 3 58.0056 57.0930 171.4048 0.0000 0.0000 0.0000
# 4 0.0000 0.0000 0.0000 44.4166 0.0000 0.0000
# 5 0.0000 0.0000 0.0000 0.0000 31.5620 0.0000
# 6 0.0000 0.0000 0.0000 0.0000 0.0000 43.8441
#
#
#
# Elastic Compliance Matrix: (Units=1/GPa)
#
#
# Indices 1 2 3 4 5 6 
#
# 1 0.010350 -0.004218 -0.002097 0.000000 0.000000 0.000000
# 2 -0.004218 0.024923 -0.006874 0.000000 0.000000 0.000000
# 3 -0.002097 -0.006874 0.008834 0.000000 0.000000 0.000000
# 4 0.000000 0.000000 0.000000 0.022514 0.000000 0.000000
# 5 0.000000 0.000000 0.000000 0.000000 0.031684 0.000000
# 6 0.000000 0.000000 0.000000 0.000000 0.000000 0.022808
#
#
# Mechanical properties :
#
#
# Convention : Reuss Voigt Hill
#
# Bulk Modulus (GPa) = 56.41189 73.43310 64.92249
# Shear Modulus (GPa) = 32.59457 37.62751 35.11104
#
# Velocity S-wave (km/s) = 3.98439 4.28097 4.13534
# Velocity P-wave (km/s) = 6.97444 7.75896 7.37714
#
# Compressibility (1/GPa) = 0.01772676
#
# Stress axis : x y z
#
# Youngs Moduli (GPa) = 96.62186 40.12417 113.20423
#
# Poissons Ratio (x) = 0.16925 0.23744
# Poissons Ratio (y) = 0.40756 0.77816
# Poissons Ratio (z) = 0.20266 0.27581
#
# Static dielectric constant tensor:
#      x y z
#    x 1.832780 0.000000 0.000000 
#    y 0.000000 1.757600 0.000000 
#    z 0.000000 0.000000 1.701500 
# 
# From -- ./inp_files/5819.got.cif
#   From: 2010.05.17/outbox.ucp.g08.bks.cvg/sg41_3_cif.got.tgz:5819.got - 2010.06.11 16:28:22.
