data_PCOD9368724
_publ_section_title
;
Structure prediction by ZEFSAII (Michael W. Deem and Ramdas Pophale) SiO2 
 PCOD9368724
Probable space group: F M M 2
;
_chemical_formula_sum "Si O2"
_cell_formula_units_Z 100
_cell_length_a 7.961728
_cell_length_b 30.060446
_cell_length_c 20.004437
_cell_angle_alpha 90.000000
_cell_angle_beta 90.000000
_cell_angle_gamma 90.000000
_cell_volume 4787.723813
_symmetry_space_group_name_H-M "F M M 2"
_symmetry_group_IT_number 42
_symmetry_cell_setting 'orthorhombic'
loop_
_space_group_symop_operation_xyz
x,y,z
-x,-y,z
-x,y,z
x,-y,z
x,1/2+y,1/2+z
-x,1/2-y,1/2+z
-x,1/2+y,1/2+z
x,1/2-y,1/2+z
1/2+x,y,1/2+z
1/2-x,-y,1/2+z
1/2-x,y,1/2+z
1/2+x,-y,1/2+z
1/2+x,1/2+y,z
1/2-x,1/2-y,z
1/2-x,1/2+y,z
1/2+x,1/2-y,z
loop_
_atom_site_type_symbol
_atom_site_label
_atom_site_fract_x
_atom_site_fract_y
_atom_site_fract_z
Si Si1 0.801056 0.172601 0.039270
Si Si2 0.804103 0.067814 0.059355
Si Si3 0.188840 0.200898 0.398008
Si Si4 0.691009 0.130209 0.296587
Si Si5 0.794912 0.051313 0.711640
Si Si6 0.500000 0.500000 0.525297
Si Si7 0.798894 0.799807 0.187155
O O1 0.780529 0.119392 0.039980
O O2 0.745026 0.191067 0.110957
O O3 0.000000 0.182203 0.031798
O O4 0.709504 0.194669 0.977029
O O5 0.782526 0.063435 0.139788
O O6 0.652413 0.038357 0.029654
O O7 0.000000 0.055662 0.042850
O O8 0.250000 0.250000 0.379125
O O9 0.265246 0.157929 0.362176
O O10 0.000000 0.199707 0.375439
O O11 0.500000 0.117474 0.306028
O O12 0.771335 0.084808 0.268601
O O13 0.715036 0.165160 0.236479
O O14 0.000000 0.054782 0.703644
O O15 0.758219 0.000000 0.726735
O O16 0.750000 0.750000 0.206184
O O17 0.000000 0.805648 0.190834
#
# Coordination Sequence:
#
# PCOD9368724 Si02
#       7
#    16  16  16  16  16   4  16
#     4  10  23  41  64  93 127 164 213 264 325 389
#     4  11  21  36  62  95 131 173 213 272 324 386
#     4  12  26  44  67  89 124 170 219 267 325 394
#     4  11  23  39  64  91 127 167 211 263 318 382
#     4  10  19  36  62  94 128 165 210 262 323 390
#     4  12  22  36  60  94 140 164 230 256 326 398
#     4  11  22  37  58  90 126 158 202 260 320 386
#
# _framework density 20.886752999999999
#
# number of rings (size 3 to 8) (size 9 to 14) (size 15 to 20)
#    0.000    1.120    3.200    3.600    1.120    3.200 
#    0.000    0.000    1.760    0.000    0.000    0.000 
#    0.000    0.000    0.000    0.000    0.000    0.000 
#
# Total GULP energy -139344.564236 kJ/mol
# GULP energy per Si atom -5573.782569 kJ/mol
# Density = 2.083921 g / cm^3
# Si number density = 20.886753 Si / 1000 Ang^3
#
#
#
# Elastic Constant Matrix: (Units=GPa)
#
#
# Indices 1 2 3 4 5 6 
#
# 1 63.9821 7.7534 -16.1411 0.0000 0.0000 0.0000
# 2 7.7534 100.1017 -2.8018 0.0000 0.0000 0.0000
# 3 -16.1411 -2.8018 40.9711 0.0000 0.0000 0.0000
# 4 0.0000 0.0000 0.0000 28.7541 0.0000 0.0000
# 5 0.0000 0.0000 0.0000 0.0000 27.0992 0.0000
# 6 0.0000 0.0000 0.0000 0.0000 0.0000 20.5162
#
#
#
# Elastic Compliance Matrix: (Units=1/GPa)
#
#
# Indices 1 2 3 4 5 6 
#
# 1 0.017488 -0.001164 0.006810 0.000000 0.000000 0.000000
# 2 -0.001164 0.010086 0.000231 0.000000 0.000000 0.000000
# 3 0.006810 0.000231 0.027106 0.000000 0.000000 0.000000
# 4 0.000000 0.000000 0.000000 0.034778 0.000000 0.000000
# 5 0.000000 0.000000 0.000000 0.000000 0.036901 0.000000
# 6 0.000000 0.000000 0.000000 0.000000 0.000000 0.048742
#
#
# Mechanical properties :
#
#
# Convention : Reuss Voigt Hill
#
# Bulk Modulus (GPa) = 15.05206 20.29732 17.67469
# Shear Modulus (GPa) = 26.95524 29.69021 28.32273
#
# Velocity S-wave (km/s) = 3.59631 3.77435 3.68640
# Velocity P-wave (km/s) = 4.94639 5.36033 5.15751
#
# Compressibility (1/GPa) = 0.06643609
#
# Stress axis : x y z
#
# Youngs Moduli (GPa) = 57.18052 99.14280 36.89191
#
# Poissons Ratio (x) = 0.11540 -0.25124
# Poissons Ratio (y) = 0.06656 -0.00853
# Poissons Ratio (z) = -0.38941 -0.02292
#
# Static dielectric constant tensor:
#      x y z
#    x 1.739110 0.000000 0.000000 
#    y 0.000000 1.622710 0.000000 
#    z 0.000000 0.000000 1.743130 
# 
# From -- ./inp_files/23795.got.cif
#   From: 2010.05.17/outbox.cif.g08.bks.cpg/sg42_12_cif.got.tgz:23795.got - 2010.06.03 19:03:34.
