data_PCOD9368332
_publ_section_title
;
Structure prediction by ZEFSAII (Michael W. Deem and Ramdas Pophale) SiO2 
 PCOD9368332
Probable space group: F M M 2
;
_chemical_formula_sum "Si O2"
_cell_formula_units_Z 128
_cell_length_a 17.864923
_cell_length_b 20.586323
_cell_length_c 19.575317
_cell_angle_alpha 90.000000
_cell_angle_beta 90.000000
_cell_angle_gamma 90.000000
_cell_volume 7199.274532
_symmetry_space_group_name_H-M "F M M 2"
_symmetry_group_IT_number 42
_symmetry_cell_setting 'orthorhombic'
loop_
_space_group_symop_operation_xyz
x,y,z
-x,-y,z
-x,y,z
x,-y,z
x,1/2+y,1/2+z
-x,1/2-y,1/2+z
-x,1/2+y,1/2+z
x,1/2-y,1/2+z
1/2+x,y,1/2+z
1/2-x,-y,1/2+z
1/2-x,y,1/2+z
1/2+x,-y,1/2+z
1/2+x,1/2+y,z
1/2-x,1/2-y,z
1/2-x,1/2+y,z
1/2+x,1/2-y,z
loop_
_atom_site_type_symbol
_atom_site_label
_atom_site_fract_x
_atom_site_fract_y
_atom_site_fract_z
Si Si1 0.416962 0.598509 0.349660
Si Si2 0.084391 0.745814 0.345509
Si Si3 0.703898 0.924458 0.459337
Si Si4 0.586748 0.195959 0.096144
Si Si5 0.254036 0.572890 0.302879
Si Si6 0.690235 0.693788 0.727372
Si Si7 0.088425 0.185800 0.995281
Si Si8 0.625806 0.073191 0.004710
O O1 0.500000 0.579452 0.325239
O O2 0.411498 0.676463 0.346242
O O3 0.343981 0.573142 0.310978
O O4 0.407965 0.578039 0.428535
O O5 0.142216 0.716809 0.292480
O O6 0.097100 0.721015 0.422083
O O7 0.000000 0.726684 0.325547
O O8 0.720465 0.911337 0.378601
O O9 0.643383 0.875721 0.491086
O O10 0.784654 0.918126 0.495552
O O11 0.680620 0.000000 0.464532
O O12 0.500000 0.203184 0.115741
O O13 0.637857 0.187642 0.161933
O O14 0.607406 0.260492 0.052618
O O15 0.595072 0.132100 0.049210
O O16 0.229364 0.500000 0.285056
O O17 0.228707 0.626592 0.249293
O O18 0.750000 0.750000 0.713739
O O19 0.000000 0.168572 0.002816
O O20 0.611220 0.000000 0.030942
#
# Coordination Sequence:
#
# PCOD9368332 Si02
#       8
#    16  16  16  16  16  16  16  16
#     4  10  18  33  58  88 119 148 186 244 303 342
#     4  10  19  35  60  88 115 146 191 242 288 337
#     4   9  19  35  58  89 120 149 188 241 289 339
#     4  11  25  41  58  86 120 151 193 242 292 346
#     4  10  21  37  56  86 121 152 193 237 281 344
#     4  12  24  39  59  85 113 161 197 233 288 346
#     4  10  20  36  61  88 115 149 192 245 291 341
#     4  10  21  36  58  87 118 152 193 239 290 349
#
# _framework density 17.779568999999999
#
# number of rings (size 3 to 8) (size 9 to 14) (size 15 to 20)
#    0.000    1.750    3.750    1.875    1.750    2.500 
#    0.000    0.000    0.000    1.125    0.000    0.000 
#    0.000    0.000    0.000    0.000    0.000    0.000 
#
# Total GULP energy -178619.091722 kJ/mol
# GULP energy per Si atom -5581.846616 kJ/mol
# Density = 1.773910 g / cm^3
# Si number density = 17.779569 Si / 1000 Ang^3
#
#
#
# Elastic Constant Matrix: (Units=GPa)
#
#
# Indices 1 2 3 4 5 6 
#
# 1 94.4931 63.1127 50.7828 0.0000 0.0000 0.0000
# 2 63.1127 117.2943 38.4977 0.0000 0.0000 0.0000
# 3 50.7828 38.4977 65.7651 0.0000 0.0000 0.0000
# 4 0.0000 0.0000 0.0000 -4.4368 0.0000 0.0000
# 5 0.0000 0.0000 0.0000 0.0000 24.9931 0.0000
# 6 0.0000 0.0000 0.0000 0.0000 0.0000 24.7761
#
#
#
# Elastic Compliance Matrix: (Units=1/GPa)
#
#
# Indices 1 2 3 4 5 6 
#
# 1 0.022980 -0.008096 -0.013005 0.000000 0.000000 0.000000
# 2 -0.008096 0.013406 -0.001596 0.000000 0.000000 0.000000
# 3 -0.013005 -0.001596 0.026182 0.000000 0.000000 0.000000
# 4 0.000000 0.000000 0.000000 -0.225389 0.000000 0.000000
# 5 0.000000 0.000000 0.000000 0.000000 0.040011 0.000000
# 6 0.000000 0.000000 0.000000 0.000000 0.000000 0.040361
#
#
# Mechanical properties :
#
#
# Convention : Reuss Voigt Hill
#
# Bulk Modulus (GPa) = 58.22982 64.70432 61.46707
# Shear Modulus (GPa) = -159.58678 17.41044 -71.08817
#
# Velocity S-wave (km/s) = -9.48438 3.13267 -6.33008
# Velocity P-wave (km/s) = 9.33358 7.03963 4.33355
#
# Compressibility (1/GPa) = 0.01717333
#
# Stress axis : x y z
#
# Youngs Moduli (GPa) = 43.51703 74.59568 38.19412
#
# Poissons Ratio (x) = 0.60394 0.49672
# Poissons Ratio (y) = 0.35232 0.06095
# Poissons Ratio (z) = 0.56594 0.11903
#
# Static dielectric constant tensor:
#      x y z
#    x 1.622540 0.000000 0.000000 
#    y 0.000000 1.609800 0.000000 
#    z 0.000000 0.000000 1.575690 
# 
# From -- ./inp_files/26237.got.cif
#   From: 2010.05.17/outbox.cif.g08.bks.cpg/sg42_14_cif.got.tgz:26237.got - 2010.06.03 19:03:34.
