data_PCOD9368862
_publ_section_title
;
Structure prediction by ZEFSAII (Michael W. Deem and Ramdas Pophale) SiO2 
 PCOD9368862
Probable space group: F M M 2
;
_chemical_formula_sum "Si O2"
_cell_formula_units_Z 96
_cell_length_a 29.272194
_cell_length_b 7.569525
_cell_length_c 21.153932
_cell_angle_alpha 90.000000
_cell_angle_beta 90.000000
_cell_angle_gamma 90.000000
_cell_volume 4687.216420
_symmetry_space_group_name_H-M "F M M 2"
_symmetry_group_IT_number 42
_symmetry_cell_setting 'orthorhombic'
loop_
_space_group_symop_operation_xyz
x,y,z
-x,-y,z
-x,y,z
x,-y,z
x,1/2+y,1/2+z
-x,1/2-y,1/2+z
-x,1/2+y,1/2+z
x,1/2-y,1/2+z
1/2+x,y,1/2+z
1/2-x,-y,1/2+z
1/2-x,y,1/2+z
1/2+x,-y,1/2+z
1/2+x,1/2+y,z
1/2-x,1/2-y,z
1/2-x,1/2+y,z
1/2+x,1/2-y,z
loop_
_atom_site_type_symbol
_atom_site_label
_atom_site_fract_x
_atom_site_fract_y
_atom_site_fract_z
Si Si1 0.550638 0.290434 0.154950
Si Si2 0.640567 0.794644 0.941260
Si Si3 0.303585 0.712410 0.321881
Si Si4 0.852059 0.716652 0.693945
Si Si5 0.051167 0.714041 0.006974
Si Si6 0.196459 0.210276 0.064794
O O1 0.500000 0.216487 0.168919
O O2 0.548582 0.500000 0.166929
O O3 0.595246 0.223133 0.191157
O O4 0.559070 0.266554 0.079913
O O5 0.667492 0.717969 0.881527
O O6 0.631829 0.000000 0.925988
O O7 0.591832 0.718081 0.962806
O O8 0.672603 0.787374 0.002885
O O9 0.307518 0.500000 0.321812
O O10 0.250000 0.750000 0.327563
O O11 0.324807 0.775859 0.255760
O O12 0.852023 0.500000 0.693796
O O13 0.827105 0.773377 0.629486
O O14 0.051944 0.500000 0.005837
O O15 0.000000 0.771982 0.989356
O O16 0.250000 0.250000 0.065839
O O17 0.189993 0.000000 0.061350
#
# Coordination Sequence:
#
# PCOD9368862 Si02
#       6
#    16  16  16  16  16  16
#     4   9  16  29  51  77 102 129 163 203 250 300
#     4  10  20  34  52  75 102 134 169 208 252 301
#     4  10  21  37  53  70  99 136 172 208 251 302
#     4   9  18  33  51  74 101 130 165 207 251 295
#     4   9  17  30  49  75 105 133 163 202 250 301
#     4  11  21  33  51  74 100 129 166 215 258 299
#
# _framework density 20.481238999999999
#
# number of rings (size 3 to 8) (size 9 to 14) (size 15 to 20)
#    0.000    2.333    1.667    1.500    0.000    2.000 
#    0.000    2.500    0.000    5.000    0.000    0.000 
#    0.000    6.667    0.000    0.000    0.000    0.000 
#
# Total GULP energy -133973.696373 kJ/mol
# GULP energy per Si atom -5582.237349 kJ/mol
# Density = 2.043462 g / cm^3
# Si number density = 20.481239 Si / 1000 Ang^3
#
#
#
# Elastic Constant Matrix: (Units=GPa)
#
#
# Indices 1 2 3 4 5 6 
#
# 1 168.9267 -10.5639 56.7220 0.0000 0.0000 0.0001
# 2 -10.5639 48.1060 -9.8230 0.0000 0.0000 0.0001
# 3 56.7220 -9.8230 103.1323 0.0000 0.0000 0.0000
# 4 0.0000 0.0000 0.0000 15.3165 0.0000 0.0000
# 5 0.0000 0.0000 0.0000 0.0000 44.8162 0.0000
# 6 0.0001 0.0001 0.0000 0.0000 0.0000 -12.1669
#
#
#
# Elastic Compliance Matrix: (Units=1/GPa)
#
#
# Indices 1 2 3 4 5 6 
#
# 1 0.007290 0.000798 -0.003934 0.000000 0.000000 0.000000
# 2 0.000798 0.021287 0.001589 0.000000 0.000000 0.000000
# 3 -0.003934 0.001589 0.012011 0.000000 0.000000 0.000000
# 4 0.000000 0.000000 0.000000 0.065289 0.000000 0.000000
# 5 0.000000 0.000000 0.000000 0.000000 0.022313 0.000000
# 6 0.000000 0.000000 0.000000 0.000000 0.000000 -0.082190
#
#
# Mechanical properties :
#
#
# Convention : Reuss Voigt Hill
#
# Bulk Modulus (GPa) = 26.67082 43.64835 35.15958
# Shear Modulus (GPa) = 81.17783 28.51516 54.84650
#
# Velocity S-wave (km/s) = 6.30248 3.73534 5.18045
# Velocity P-wave (km/s) = 8.12478 6.32150 7.27920
#
# Compressibility (1/GPa) = 0.03749417
#
# Stress axis : x y z
#
# Youngs Moduli (GPa) = 137.16529 46.97697 83.25612
#
# Poissons Ratio (x) = -0.03747 0.32751
# Poissons Ratio (y) = -0.10942 -0.13228
# Poissons Ratio (z) = 0.53957 -0.07464
#
# Static dielectric constant tensor:
#      x y z
#    x 1.736090 0.000000 0.000000 
#    y 0.000000 1.771150 0.000000 
#    z 0.000000 0.000000 1.691720 
# 
# From -- ./inp_files/23698.got.cif
#   From: 2010.05.17/outbox.cif.g08.bks.cpg/sg42_12_cif.got.tgz:23698.got - 2010.06.03 19:03:34.
