data_PCOD9368412
_publ_section_title
;
Structure prediction by ZEFSAII (Michael W. Deem and Ramdas Pophale) SiO2 
 PCOD9368412
Probable space group: F M M 2
;
_chemical_formula_sum "Si O2"
_cell_formula_units_Z 104
_cell_length_a 14.041900
_cell_length_b 32.169193
_cell_length_c 12.510489
_cell_angle_alpha 90.000000
_cell_angle_beta 90.000000
_cell_angle_gamma 90.000000
_cell_volume 5651.195445
_symmetry_space_group_name_H-M "F M M 2"
_symmetry_group_IT_number 42
_symmetry_cell_setting 'orthorhombic'
loop_
_space_group_symop_operation_xyz
x,y,z
-x,-y,z
-x,y,z
x,-y,z
x,1/2+y,1/2+z
-x,1/2-y,1/2+z
-x,1/2+y,1/2+z
x,1/2-y,1/2+z
1/2+x,y,1/2+z
1/2-x,-y,1/2+z
1/2-x,y,1/2+z
1/2+x,-y,1/2+z
1/2+x,1/2+y,z
1/2-x,1/2-y,z
1/2-x,1/2+y,z
1/2+x,1/2-y,z
loop_
_atom_site_type_symbol
_atom_site_label
_atom_site_fract_x
_atom_site_fract_y
_atom_site_fract_z
Si Si1 0.888874 0.128907 0.725490
Si Si2 0.887389 0.188471 0.522954
Si Si3 0.750000 0.250000 0.648485
Si Si4 0.706378 0.173097 0.792896
Si Si5 0.105550 0.046848 0.438892
Si Si6 0.108265 0.093357 0.220444
Si Si7 0.712212 0.952225 0.154458
O O1 0.880392 0.150216 0.607542
O O2 0.814798 0.155359 0.797260
O O3 0.849878 0.081817 0.718609
O O4 0.000000 0.130879 0.756364
O O5 0.828260 0.226287 0.576264
O O6 0.840743 0.177751 0.408958
O O7 0.000000 0.197624 0.510420
O O8 0.705737 0.215671 0.727292
O O9 0.649478 0.139502 0.721829
O O10 0.113007 0.079084 0.344204
O O11 0.180095 0.051098 0.532108
O O12 0.000000 0.050907 0.488419
O O13 0.112071 0.000000 0.393419
O O14 0.179338 0.062329 0.162230
O O15 0.000000 0.091039 0.184127
O O16 0.698806 0.000000 0.189185
#
# Coordination Sequence:
#
# PCOD9368412 Si02
#       7
#    16  16   8  16  16  16  16
#     4   9  19  35  54  78 107 140 180 221 262 312
#     4  10  20  36  58  79 105 143 178 213 261 314
#     4  10  22  38  54  82 112 132 166 218 266 320
#     4  10  20  35  57  80 106 136 174 219 266 316
#     4   9  17  30  50  76 104 137 180 222 255 295
#     4  10  20  34  54  78 104 138 179 218 258 310
#     4  10  19  30  50  79 109 140 176 222 267 304
#
# _framework density 18.403185000000001
#
# number of rings (size 3 to 8) (size 9 to 14) (size 15 to 20)
#    0.000    2.308    0.000    2.769    0.000    5.538 
#    0.000    3.846    0.000   20.308    0.000    8.615 
#    0.000    0.000    0.000    0.000    0.000    0.000 
#
# Total GULP energy -145023.632179 kJ/mol
# GULP energy per Si atom -5577.832007 kJ/mol
# Density = 1.836130 g / cm^3
# Si number density = 18.403185 Si / 1000 Ang^3
#
#
#
# Elastic Constant Matrix: (Units=GPa)
#
#
# Indices 1 2 3 4 5 6 
#
# 1 158.4351 53.2808 46.6715 0.0000 0.0000 0.0000
# 2 53.2808 121.1173 24.5638 0.0000 0.0000 0.0000
# 3 46.6715 24.5638 43.4737 0.0000 0.0000 0.0000
# 4 0.0000 0.0000 0.0000 16.2833 0.0000 0.0000
# 5 0.0000 0.0000 0.0000 0.0000 37.4125 0.0000
# 6 0.0000 0.0000 0.0000 0.0000 0.0000 11.2072
#
#
#
# Elastic Compliance Matrix: (Units=1/GPa)
#
#
# Indices 1 2 3 4 5 6 
#
# 1 0.009845 -0.002470 -0.009173 0.000000 0.000000 0.000000
# 2 -0.002470 0.009945 -0.002967 0.000000 0.000000 0.000000
# 3 -0.009173 -0.002967 0.034527 0.000000 0.000000 0.000000
# 4 0.000000 0.000000 0.000000 0.061413 0.000000 0.000000
# 5 0.000000 0.000000 0.000000 0.000000 0.026729 0.000000
# 6 0.000000 0.000000 0.000000 0.000000 0.000000 0.089229
#
#
# Mechanical properties :
#
#
# Convention : Reuss Voigt Hill
#
# Bulk Modulus (GPa) = 39.84803 63.56203 51.70503
# Shear Modulus (GPa) = 18.56856 26.21460 22.39158
#
# Velocity S-wave (km/s) = 3.17990 3.77830 3.49194
# Velocity P-wave (km/s) = 5.93145 7.32445 6.66445
#
# Compressibility (1/GPa) = 0.02509534
#
# Stress axis : x y z
#
# Youngs Moduli (GPa) = 101.57792 100.55340 28.96323
#
# Poissons Ratio (x) = 0.24841 0.26568
# Poissons Ratio (y) = 0.25094 0.08594
# Poissons Ratio (z) = 0.93177 0.29835
#
# Static dielectric constant tensor:
#      x y z
#    x 1.620120 0.000000 0.000000 
#    y 0.000000 1.670590 0.000000 
#    z 0.000000 0.000000 1.613800 
# 
# From -- ./inp_files/8125.got.cif
#   From: 2010.05.17/outbox.cif.g08.bks.cpg/sg42_5_cif.got.tgz:8125.got - 2010.06.03 19:03:34.
