data_PCOD9368702
_publ_section_title
;
Structure prediction by ZEFSAII (Michael W. Deem and Ramdas Pophale) SiO2 
 PCOD9368702
Probable space group: F M M 2
;
_chemical_formula_sum "Si O2"
_cell_formula_units_Z 96
_cell_length_a 16.956277
_cell_length_b 16.731423
_cell_length_c 16.564334
_cell_angle_alpha 90.000000
_cell_angle_beta 90.000000
_cell_angle_gamma 90.000000
_cell_volume 4699.345335
_symmetry_space_group_name_H-M "F M M 2"
_symmetry_group_IT_number 42
_symmetry_cell_setting 'orthorhombic'
loop_
_space_group_symop_operation_xyz
x,y,z
-x,-y,z
-x,y,z
x,-y,z
x,1/2+y,1/2+z
-x,1/2-y,1/2+z
-x,1/2+y,1/2+z
x,1/2-y,1/2+z
1/2+x,y,1/2+z
1/2-x,-y,1/2+z
1/2-x,y,1/2+z
1/2+x,-y,1/2+z
1/2+x,1/2+y,z
1/2-x,1/2-y,z
1/2-x,1/2+y,z
1/2+x,1/2-y,z
loop_
_atom_site_type_symbol
_atom_site_label
_atom_site_fract_x
_atom_site_fract_y
_atom_site_fract_z
Si Si1 0.773086 0.155716 0.472590
Si Si2 0.132922 0.088253 0.909134
Si Si3 0.411154 0.751634 0.999552
Si Si4 0.090484 0.805726 0.182822
Si Si5 0.911314 0.136671 0.735442
Si Si6 0.744378 0.093810 0.652626
O O1 0.750000 0.250000 0.471341
O O2 0.727165 0.105183 0.406050
O O3 0.865015 0.170742 0.468223
O O4 0.749626 0.119271 0.558695
O O5 0.106143 0.164226 0.961353
O O6 0.095002 0.095288 0.821969
O O7 0.117650 0.000000 0.943477
O O8 0.500000 0.767971 0.982262
O O9 0.400071 0.738516 0.095576
O O10 0.093279 0.732732 0.245742
O O11 0.167837 0.860897 0.189473
O O12 0.000000 0.839736 0.183611
O O13 0.831110 0.112992 0.688961
O O14 0.000000 0.120093 0.700824
O O15 0.731076 0.000000 0.659295
#
# Coordination Sequence:
#
# PCOD9368702 Si02
#       6
#    16  16  16  16  16  16
#     4  10  19  36  58  84 119 167 207 247 303 378
#     4  11  23  39  61  93 128 159 203 266 325 369
#     4  10  20  36  60  88 121 166 210 252 309 378
#     4  10  21  39  62  88 123 168 215 256 307 383
#     4  11  24  42  63  89 126 171 214 261 317 381
#     4  12  22  36  61  91 126 166 209 262 320 378
#
# _framework density 20.428377000000001
#
# number of rings (size 3 to 8) (size 9 to 14) (size 15 to 20)
#    0.000    1.333    5.000    2.000    0.000    6.667 
#    0.000    1.667    0.000    1.500    0.000    0.000 
#    0.000    0.000    0.000    0.000    0.000    0.000 
#
# Total GULP energy -133666.868434 kJ/mol
# GULP energy per Si atom -5569.452851 kJ/mol
# Density = 2.038188 g / cm^3
# Si number density = 20.428377 Si / 1000 Ang^3
#
#
#
# Elastic Constant Matrix: (Units=GPa)
#
#
# Indices 1 2 3 4 5 6 
#
# 1 164.2210 50.7930 15.5934 0.0000 0.0000 0.0000
# 2 50.7930 78.8710 9.2178 0.0000 0.0000 0.0000
# 3 15.5934 9.2178 21.2784 0.0000 0.0000 0.0000
# 4 0.0000 0.0000 0.0000 20.0384 0.0000 0.0000
# 5 0.0000 0.0000 0.0000 0.0000 22.8119 0.0000
# 6 0.0000 0.0000 0.0000 0.0000 0.0000 8.2175
#
#
#
# Elastic Compliance Matrix: (Units=1/GPa)
#
#
# Indices 1 2 3 4 5 6 
#
# 1 0.007881 -0.004635 -0.003767 0.000000 0.000000 0.000000
# 2 -0.004635 0.016081 -0.003570 0.000000 0.000000 0.000000
# 3 -0.003767 -0.003570 0.051303 0.000000 0.000000 0.000000
# 4 0.000000 0.000000 0.000000 0.049904 0.000000 0.000000
# 5 0.000000 0.000000 0.000000 0.000000 0.043837 0.000000
# 6 0.000000 0.000000 0.000000 0.000000 0.000000 0.121692
#
#
# Mechanical properties :
#
#
# Convention : Reuss Voigt Hill
#
# Bulk Modulus (GPa) = 19.48520 46.17541 32.83031
# Shear Modulus (GPa) = 15.07166 22.79797 18.93482
#
# Velocity S-wave (km/s) = 2.71916 3.34428 3.04779
# Velocity P-wave (km/s) = 4.40652 6.12902 5.33771
#
# Compressibility (1/GPa) = 0.05132100
#
# Stress axis : x y z
#
# Youngs Moduli (GPa) = 126.89360 62.18529 19.49198
#
# Poissons Ratio (x) = 0.28822 0.07343
# Poissons Ratio (y) = 0.58813 0.06958
# Poissons Ratio (z) = 0.47805 0.22198
#
# Static dielectric constant tensor:
#      x y z
#    x 1.953800 0.000000 0.000000 
#    y 0.000000 1.709530 0.000000 
#    z 0.000000 0.000000 1.740080 
# 
# From -- ./inp_files/20810.got.cif
#   From: 2010.05.17/outbox.cif.g08.bks.cpg/sg42_11_cif.got.tgz:20810.got - 2010.06.03 19:03:34.
