data_PCOD9368868
_publ_section_title
;
Structure prediction by ZEFSAII (Michael W. Deem and Ramdas Pophale) SiO2 
 PCOD9368868
Probable space group: F M M 2
;
_chemical_formula_sum "Si O2"
_cell_formula_units_Z 80
_cell_length_a 19.720272
_cell_length_b 9.025828
_cell_length_c 26.352748
_cell_angle_alpha 90.000000
_cell_angle_beta 90.000000
_cell_angle_gamma 90.000000
_cell_volume 4690.572608
_symmetry_space_group_name_H-M "F M M 2"
_symmetry_group_IT_number 42
_symmetry_cell_setting 'orthorhombic'
loop_
_space_group_symop_operation_xyz
x,y,z
-x,-y,z
-x,y,z
x,-y,z
x,1/2+y,1/2+z
-x,1/2-y,1/2+z
-x,1/2+y,1/2+z
x,1/2-y,1/2+z
1/2+x,y,1/2+z
1/2-x,-y,1/2+z
1/2-x,y,1/2+z
1/2+x,-y,1/2+z
1/2+x,1/2+y,z
1/2-x,1/2-y,z
1/2-x,1/2+y,z
1/2+x,1/2-y,z
loop_
_atom_site_type_symbol
_atom_site_label
_atom_site_fract_x
_atom_site_fract_y
_atom_site_fract_z
Si Si1 0.176304 0.177823 0.559680
Si Si2 0.177220 0.177812 0.443215
Si Si3 0.082414 0.170505 0.747704
Si Si4 0.580792 0.823856 0.642713
Si Si5 0.579478 0.678085 0.352186
O O1 0.250000 0.250000 0.568844
O O2 0.157192 0.214047 0.501204
O O3 0.122605 0.243718 0.598817
O O4 0.180405 0.000000 0.564629
O O5 0.250000 0.250000 0.433272
O O6 0.123109 0.223622 0.400892
O O7 0.183903 0.000000 0.440655
O O8 0.102483 0.260113 0.697531
O O9 0.103958 0.245374 0.800384
O O10 0.000000 0.172635 0.748442
O O11 0.104383 0.000000 0.744556
O O12 0.500000 0.796076 0.637030
O O13 0.591569 0.000000 0.641030
O O14 0.500000 0.714077 0.359657
O O15 0.584210 0.500000 0.346312
#
# Coordination Sequence:
#
# PCOD9368868 Si02
#       5
#    16  16  16  16  16
#     4  10  20  35  54  75 102 136 172 210 254 303
#     4   9  19  34  52  73  99 133 167 202 247 297
#     4   9  17  30  49  74 102 131 164 204 252 301
#     4  10  20  34  53  77 104 134 169 210 255 302
#     4   9  17  31  51  74 100 130 165 204 246 294
#
# _framework density 17.055485999999998
#
# number of rings (size 3 to 8) (size 9 to 14) (size 15 to 20)
#    0.000    2.600    0.000    1.800    0.000    6.000 
#    0.000    3.000    0.000    4.800    0.000    0.000 
#    0.000    0.000    0.000    0.000    0.000    0.000 
#
# Total GULP energy -111526.676086 kJ/mol
# GULP energy per Si atom -5576.333804 kJ/mol
# Density = 1.701667 g / cm^3
# Si number density = 17.055486 Si / 1000 Ang^3
#
#
#
# Elastic Constant Matrix: (Units=GPa)
#
#
# Indices 1 2 3 4 5 6 
#
# 1 62.0515 50.7385 89.4859 0.0000 0.0000 0.0000
# 2 50.7385 72.8839 78.8494 0.0000 0.0000 0.0000
# 3 89.4859 78.8494 177.9311 0.0000 0.0000 0.0000
# 4 0.0000 0.0000 0.0000 30.7070 0.0000 0.0000
# 5 0.0000 0.0000 0.0000 0.0000 -31.8602 0.0000
# 6 0.0000 0.0000 0.0000 0.0000 0.0000 25.6338
#
#
#
# Elastic Compliance Matrix: (Units=1/GPa)
#
#
# Indices 1 2 3 4 5 6 
#
# 1 0.072415 -0.021153 -0.027045 0.000000 0.000000 0.000000
# 2 -0.021153 0.032535 -0.003779 0.000000 0.000000 0.000000
# 3 -0.027045 -0.003779 0.020897 0.000000 0.000000 0.000000
# 4 0.000000 0.000000 0.000000 0.032566 0.000000 0.000000
# 5 0.000000 0.000000 0.000000 0.000000 -0.031387 0.000000
# 6 0.000000 0.000000 0.000000 0.000000 0.000000 0.039011
#
#
# Mechanical properties :
#
#
# Convention : Reuss Voigt Hill
#
# Bulk Modulus (GPa) = 45.68069 83.44600 64.56335
# Shear Modulus (GPa) = 18.03179 11.14896 14.59038
#
# Velocity S-wave (km/s) = 3.25505 2.55950 2.92801
# Velocity P-wave (km/s) = 6.40070 7.60047 7.02624
#
# Compressibility (1/GPa) = 0.02189109
#
# Stress axis : x y z
#
# Youngs Moduli (GPa) = 13.80937 30.73626 47.85450
#
# Poissons Ratio (x) = 0.65016 1.29424
# Poissons Ratio (y) = 0.29211 0.18086
# Poissons Ratio (z) = 0.37348 0.11616
#
# Static dielectric constant tensor:
#      x y z
#    x 1.551560 0.000000 0.000000 
#    y 0.000000 1.570190 0.000000 
#    z 0.000000 0.000000 1.568790 
# 
# From -- ./inp_files/29260.got.cif
#   From: 2010.05.17/outbox.cif.g08.bks.cpg/sg42_15_cif.got.tgz:29260.got - 2010.06.03 19:03:34.
