data_PCOD9368559
_publ_section_title
;
Structure prediction by ZEFSAII (Michael W. Deem and Ramdas Pophale) SiO2 
 PCOD9368559
Probable space group: F M M 2
;
_chemical_formula_sum "Si O2"
_cell_formula_units_Z 64
_cell_length_a 18.111695
_cell_length_b 7.767882
_cell_length_c 24.791525
_cell_angle_alpha 90.000000
_cell_angle_beta 90.000000
_cell_angle_gamma 90.000000
_cell_volume 3487.907494
_symmetry_space_group_name_H-M "F M M 2"
_symmetry_group_IT_number 42
_symmetry_cell_setting 'orthorhombic'
loop_
_space_group_symop_operation_xyz
x,y,z
-x,-y,z
-x,y,z
x,-y,z
x,1/2+y,1/2+z
-x,1/2-y,1/2+z
-x,1/2+y,1/2+z
x,1/2-y,1/2+z
1/2+x,y,1/2+z
1/2-x,-y,1/2+z
1/2-x,y,1/2+z
1/2+x,-y,1/2+z
1/2+x,1/2+y,z
1/2-x,1/2-y,z
1/2-x,1/2+y,z
1/2+x,1/2-y,z
loop_
_atom_site_type_symbol
_atom_site_label
_atom_site_fract_x
_atom_site_fract_y
_atom_site_fract_z
Si Si1 0.164250 0.705387 0.491790
Si Si2 0.410084 0.000000 0.801061
Si Si3 0.911470 0.000000 0.176721
Si Si4 0.836387 0.303611 0.110961
Si Si5 0.588944 0.198632 0.380326
O O1 0.157330 0.500000 0.499014
O O2 0.250000 0.750000 0.483033
O O3 0.140481 0.789238 0.548126
O O4 0.119373 0.754595 0.438598
O O5 0.386478 0.000000 0.739076
O O6 0.386439 0.830854 0.834219
O O7 0.500000 0.000000 0.800875
O O8 0.880845 0.832252 0.146357
O O9 0.000000 0.000000 0.175150
O O10 0.844456 0.500000 0.129262
O O11 0.750000 0.250000 0.112248
O O12 0.500000 0.201183 0.382058
O O13 0.612141 0.000000 0.370757
#
# Coordination Sequence:
#
# PCOD9368559 Si02
#       5
#    16   8   8  16  16
#     4  10  19  33  56  85 118 151 183 236 291 351
#     4   9  20  38  59  78 110 155 189 230 292 344
#     4  11  24  42  61  90 123 153 203 258 289 346
#     4  11  21  39  64  87 118 164 199 239 304 364
#     4   9  19  35  56  82 111 148 190 232 281 343
#
# _framework density 18.34911
#
# number of rings (size 3 to 8) (size 9 to 14) (size 15 to 20)
#    0.000    2.000    2.500    2.250    3.500    2.500 
#    0.000    3.750    0.000    0.000    0.000    0.000 
#    0.000    0.000    0.000    0.000    0.000    0.000 
#
# Total GULP energy -89305.276943 kJ/mol
# GULP energy per Si atom -5581.579809 kJ/mol
# Density = 1.830735 g / cm^3
# Si number density = 18.349110 Si / 1000 Ang^3
#
#
#
# Elastic Constant Matrix: (Units=GPa)
#
#
# Indices 1 2 3 4 5 6 
#
# 1 28.4698 33.1122 44.7197 0.0000 0.0000 0.0000
# 2 33.1122 146.3222 90.8716 0.0000 0.0000 0.0000
# 3 44.7197 90.8716 161.9475 0.0000 0.0000 0.0000
# 4 0.0000 0.0000 0.0000 21.0374 0.0000 0.0000
# 5 0.0000 0.0000 0.0000 0.0000 35.5616 0.0000
# 6 0.0000 0.0000 0.0000 0.0000 0.0000 24.2590
#
#
#
# Elastic Compliance Matrix: (Units=1/GPa)
#
#
# Indices 1 2 3 4 5 6 
#
# 1 0.064740 -0.005446 -0.014821 0.000000 0.000000 0.000000
# 2 -0.005446 0.010948 -0.004639 0.000000 0.000000 0.000000
# 3 -0.014821 -0.004639 0.012871 0.000000 0.000000 0.000000
# 4 0.000000 0.000000 0.000000 0.047534 0.000000 0.000000
# 5 0.000000 0.000000 0.000000 0.000000 0.028120 0.000000
# 6 0.000000 0.000000 0.000000 0.000000 0.000000 0.041222
#
#
# Mechanical properties :
#
#
# Convention : Reuss Voigt Hill
#
# Bulk Modulus (GPa) = 25.80946 74.90519 50.35733
# Shear Modulus (GPa) = 18.64546 27.37400 23.00973
#
# Velocity S-wave (km/s) = 3.19117 3.86663 3.54502
# Velocity P-wave (km/s) = 5.26065 7.80034 6.65281
#
# Compressibility (1/GPa) = 0.03874548
#
# Stress axis : x y z
#
# Youngs Moduli (GPa) = 15.44651 91.34350 77.69610
#
# Poissons Ratio (x) = 0.49744 1.15155
# Poissons Ratio (y) = 0.08412 0.36044
# Poissons Ratio (z) = 0.22894 0.42376
#
# Static dielectric constant tensor:
#      x y z
#    x 1.611930 0.000000 0.000000 
#    y 0.000000 1.644890 0.000000 
#    z 0.000000 0.000000 1.616450 
# 
# From -- ./inp_files/23176.got.cif
#   From: 2010.05.17/outbox.cif.g08.bks.cpg/sg42_12_cif.got.tgz:23176.got - 2010.06.03 19:03:34.
