data_PCOD9368655
_publ_section_title
;
Structure prediction by ZEFSAII (Michael W. Deem and Ramdas Pophale) SiO2 
 PCOD9368655
Probable space group: F M M 2
;
_chemical_formula_sum "Si O2"
_cell_formula_units_Z 88
_cell_length_a 12.598533
_cell_length_b 18.253762
_cell_length_c 20.541436
_cell_angle_alpha 90.000000
_cell_angle_beta 90.000000
_cell_angle_gamma 90.000000
_cell_volume 4723.926833
_symmetry_space_group_name_H-M "F M M 2"
_symmetry_group_IT_number 42
_symmetry_cell_setting 'orthorhombic'
loop_
_space_group_symop_operation_xyz
x,y,z
-x,-y,z
-x,y,z
x,-y,z
x,1/2+y,1/2+z
-x,1/2-y,1/2+z
-x,1/2+y,1/2+z
x,1/2-y,1/2+z
1/2+x,y,1/2+z
1/2-x,-y,1/2+z
1/2-x,y,1/2+z
1/2+x,-y,1/2+z
1/2+x,1/2+y,z
1/2-x,1/2-y,z
1/2-x,1/2+y,z
1/2+x,1/2-y,z
loop_
_atom_site_type_symbol
_atom_site_label
_atom_site_fract_x
_atom_site_fract_y
_atom_site_fract_z
Si Si1 0.236888 0.663958 0.375000
Si Si2 0.623301 0.588530 0.485967
Si Si3 0.784768 0.411378 0.596624
Si Si4 0.773888 0.162729 0.726760
Si Si5 0.000000 0.887506 0.886529
Si Si6 0.000000 0.915615 0.737505
Si Si7 0.500000 0.418018 0.034093
O O1 0.250000 0.750000 0.381546
O O2 0.309477 0.621304 0.426240
O O3 0.261006 0.641884 0.300173
O O4 0.112179 0.652737 0.386494
O O5 0.500000 0.611076 0.484854
O O6 0.627352 0.500000 0.481665
O O7 0.683211 0.610103 0.552737
O O8 0.782682 0.500000 0.600152
O O9 0.784091 0.377914 0.668078
O O10 0.890282 0.384789 0.558971
O O11 0.750000 0.250000 0.720880
O O12 0.895630 0.132679 0.721020
O O13 0.000000 0.924816 0.815885
O O14 0.000000 0.924845 0.956662
O O15 0.000000 0.000000 0.709932
O O16 0.500000 0.500000 0.062100
#
# Coordination Sequence:
#
# PCOD9368655 Si02
#       7
#    16  16  16  16   8   8   8
#     4  10  22  39  60  87 120 158 199 248 302 363
#     4  10  22  39  61  89 120 158 200 250 307 361
#     4  10  21  38  60  86 118 156 203 251 305 368
#     4  10  23  41  58  88 124 162 201 254 313 363
#     4  10  19  36  60  90 115 152 201 257 306 346
#     4  10  21  37  67  95 114 160 220 264 302 361
#     4  10  19  35  57  83 115 148 187 249 308 359
#
# _framework density 18.628568999999999
#
# number of rings (size 3 to 8) (size 9 to 14) (size 15 to 20)
#    0.000    2.000    1.818    0.818    2.545    5.091 
#    3.273    0.000    0.000    0.000    0.000    0.000 
#    0.000    0.000    0.000    0.000    0.000    0.000 
#
# Total GULP energy -122512.755158 kJ/mol
# GULP energy per Si atom -5568.761598 kJ/mol
# Density = 1.858617 g / cm^3
# Si number density = 18.628569 Si / 1000 Ang^3
#
#
#
# Elastic Constant Matrix: (Units=GPa)
#
#
# Indices 1 2 3 4 5 6 
#
# 1 132.0121 49.0066 46.9038 0.0000 0.0000 0.0000
# 2 49.0066 54.2262 32.1243 0.0000 0.0000 0.0000
# 3 46.9038 32.1243 117.1551 0.0000 0.0000 0.0000
# 4 0.0000 0.0000 0.0000 31.1807 0.0000 0.0000
# 5 0.0000 0.0000 0.0000 0.0000 32.2936 0.0000
# 6 0.0000 0.0000 0.0000 0.0000 0.0000 -21.3213
#
#
#
# Elastic Compliance Matrix: (Units=1/GPa)
#
#
# Indices 1 2 3 4 5 6 
#
# 1 0.011839 -0.009422 -0.002156 0.000000 0.000000 0.000000
# 2 -0.009422 0.029516 -0.004321 0.000000 0.000000 0.000000
# 3 -0.002156 -0.004321 0.010584 0.000000 0.000000 0.000000
# 4 0.000000 0.000000 0.000000 0.032071 0.000000 0.000000
# 5 0.000000 0.000000 0.000000 0.000000 0.030966 0.000000
# 6 0.000000 0.000000 0.000000 0.000000 0.000000 -0.046902
#
#
# Mechanical properties :
#
#
# Convention : Reuss Voigt Hill
#
# Bulk Modulus (GPa) = 49.65230 62.16252 55.90741
# Shear Modulus (GPa) = 46.91013 20.12118 33.51566
#
# Velocity S-wave (km/s) = 5.02359 3.29009 4.24624
# Velocity P-wave (km/s) = 7.76919 6.91916 7.35647
#
# Compressibility (1/GPa) = 0.02014005
#
# Stress axis : x y z
#
# Youngs Moduli (GPa) = 84.46766 33.87962 94.48323
#
# Poissons Ratio (x) = 0.31921 0.20373
# Poissons Ratio (y) = 0.79585 0.40829
# Poissons Ratio (z) = 0.18213 0.14640
#
# Static dielectric constant tensor:
#      x y z
#    x 1.607640 0.000000 0.000000 
#    y 0.000000 1.621770 0.000000 
#    z 0.000000 0.000000 1.634820 
# 
# From -- ./inp_files/21557.got.cif
#   From: 2010.05.17/outbox.cif.g08.bks.cpg/sg42_11_cif.got.tgz:21557.got - 2010.06.03 19:03:34.
