data_PCOD9368569
_publ_section_title
;
Structure prediction by ZEFSAII (Michael W. Deem and Ramdas Pophale) SiO2 
 PCOD9368569
Probable space group: F M M 2
;
_chemical_formula_sum "Si O2"
_cell_formula_units_Z 112
_cell_length_a 19.098685
_cell_length_b 23.696544
_cell_length_c 13.714193
_cell_angle_alpha 90.000000
_cell_angle_beta 90.000000
_cell_angle_gamma 90.000000
_cell_volume 6206.671130
_symmetry_space_group_name_H-M "F M M 2"
_symmetry_group_IT_number 42
_symmetry_cell_setting 'orthorhombic'
loop_
_space_group_symop_operation_xyz
x,y,z
-x,-y,z
-x,y,z
x,-y,z
x,1/2+y,1/2+z
-x,1/2-y,1/2+z
-x,1/2+y,1/2+z
x,1/2-y,1/2+z
1/2+x,y,1/2+z
1/2-x,-y,1/2+z
1/2-x,y,1/2+z
1/2+x,-y,1/2+z
1/2+x,1/2+y,z
1/2-x,1/2-y,z
1/2-x,1/2+y,z
1/2+x,1/2-y,z
loop_
_atom_site_type_symbol
_atom_site_label
_atom_site_fract_x
_atom_site_fract_y
_atom_site_fract_z
Si Si1 0.831185 0.263210 0.187240
Si Si2 0.185045 0.933122 0.373110
Si Si3 0.798395 0.873517 0.570622
Si Si4 0.917069 0.829989 0.845401
Si Si5 0.166243 0.934339 0.768743
Si Si6 0.080081 0.565354 0.699757
Si Si7 0.364687 0.656364 0.062169
O O1 0.750000 0.250000 0.213658
O O2 0.828425 0.313954 0.108249
O O3 0.874419 0.285583 0.279177
O O4 0.863996 0.208556 0.136963
O O5 0.172347 0.897047 0.469580
O O6 0.263955 0.924958 0.333627
O O7 0.132827 0.917621 0.285678
O O8 0.176193 0.000000 0.393606
O O9 0.813002 0.916892 0.658719
O O10 0.715556 0.864455 0.555898
O O11 0.892527 0.891542 0.806706
O O12 0.000000 0.822713 0.835543
O O13 0.893448 0.826029 0.957421
O O14 0.147029 0.000000 0.774303
O O15 0.095412 0.500000 0.674936
O O16 0.091725 0.605323 0.608011
O O17 0.000000 0.568829 0.733278
#
# Coordination Sequence:
#
# PCOD9368569 Si02
#       7
#    16  16  16  16  16  16  16
#     4   9  23  41  62  85 115 156 201 249 292 347
#     4  10  19  33  59  87 118 156 197 240 285 350
#     4  10  19  36  59  90 116 151 201 249 287 342
#     4  11  24  40  59  88 122 155 196 243 300 367
#     4  10  20  36  58  86 121 158 195 240 289 345
#     4  10  22  38  57  87 123 154 190 242 300 354
#     4  11  21  38  61  87 118 152 195 247 301 350
#
# _framework density 18.045100000000001
#
# number of rings (size 3 to 8) (size 9 to 14) (size 15 to 20)
#    0.000    1.857    2.857    0.857    0.000    5.429 
#    0.000    2.857    0.000    3.429    0.000    0.000 
#    0.000    0.000    0.000    0.000    0.000    0.000 
#
# Total GULP energy -156344.218921 kJ/mol
# GULP energy per Si atom -5583.722104 kJ/mol
# Density = 1.800403 g / cm^3
# Si number density = 18.045100 Si / 1000 Ang^3
#
#
#
# Elastic Constant Matrix: (Units=GPa)
#
#
# Indices 1 2 3 4 5 6 
#
# 1 77.9539 39.5798 53.3735 0.0000 0.0000 0.0000
# 2 39.5798 80.0502 59.2881 0.0000 0.0000 0.0000
# 3 53.3735 59.2881 128.7212 0.0000 0.0000 0.0000
# 4 0.0000 0.0000 0.0000 24.8959 0.0000 0.0000
# 5 0.0000 0.0000 0.0000 0.0000 5.2636 0.0000
# 6 0.0000 0.0000 0.0000 0.0000 0.0000 20.0357
#
#
#
# Elastic Compliance Matrix: (Units=1/GPa)
#
#
# Indices 1 2 3 4 5 6 
#
# 1 0.019395 -0.005515 -0.005502 0.000000 0.000000 0.000000
# 2 -0.005515 0.020528 -0.007168 0.000000 0.000000 0.000000
# 3 -0.005502 -0.007168 0.013352 0.000000 0.000000 0.000000
# 4 0.000000 0.000000 0.000000 0.040167 0.000000 0.000000
# 5 0.000000 0.000000 0.000000 0.000000 0.189985 0.000000
# 6 0.000000 0.000000 0.000000 0.000000 0.000000 0.049911
#
#
# Mechanical properties :
#
#
# Convention : Reuss Voigt Hill
#
# Bulk Modulus (GPa) = 59.15509 65.68979 62.42244
# Shear Modulus (GPa) = 13.32114 19.00464 16.16289
#
# Velocity S-wave (km/s) = 2.71996 3.24879 2.99606
# Velocity P-wave (km/s) = 6.53584 7.11020 6.82906
#
# Compressibility (1/GPa) = 0.01690472
#
# Stress axis : x y z
#
# Youngs Moduli (GPa) = 51.55891 48.71383 74.89587
#
# Poissons Ratio (x) = 0.26864 0.41208
# Poissons Ratio (y) = 0.28433 0.53689
# Poissons Ratio (z) = 0.28368 0.34920
#
# Static dielectric constant tensor:
#      x y z
#    x 1.598150 0.000000 0.000000 
#    y 0.000000 1.620680 0.000000 
#    z 0.000000 0.000000 1.592470 
# 
# From -- ./inp_files/9654.got.cif
#   From: 2010.05.17/outbox.cif.g08.bks.cpg/sg42_5_cif.got.tgz:9654.got - 2010.06.03 19:03:34.
