data_PCOD9368041
_publ_section_title
;
Structure prediction by ZEFSAII (Michael W. Deem and Ramdas Pophale) SiO2 
 PCOD9368041
Probable space group: A B A 2
;
_chemical_formula_sum "Si O2"
_cell_formula_units_Z 36
_cell_length_a 4.987706
_cell_length_b 25.023281
_cell_length_c 9.867585
_cell_angle_alpha 90.000000
_cell_angle_beta 90.000000
_cell_angle_gamma 90.000000
_cell_volume 1231.561135
_symmetry_space_group_name_H-M "A B A 2"
_symmetry_group_IT_number 41
_symmetry_cell_setting 'orthorhombic'
loop_
_space_group_symop_operation_xyz
x,y,z
-x,-y,z
1/2-x,y,1/2+z
1/2+x,-y,1/2+z
x,1/2+y,1/2+z
-x,1/2-y,1/2+z
1/2-x,1/2+y,z
1/2+x,1/2-y,z
loop_
_atom_site_type_symbol
_atom_site_label
_atom_site_fract_x
_atom_site_fract_y
_atom_site_fract_z
Si Si1 0.500000 0.000000 0.752640
Si Si2 0.392670 0.178550 0.217142
Si Si3 0.711740 0.101900 0.590689
Si Si4 0.718590 0.910007 0.898872
Si Si5 0.868194 0.756774 0.450234
O O1 0.642804 0.047238 0.670334
O O2 0.277694 0.030686 0.840897
O O3 0.037042 0.109497 0.990176
O O4 0.268077 0.215763 0.099068
O O5 0.670901 0.149362 0.185799
O O6 0.389334 0.218170 0.350041
O O7 0.289447 0.130380 0.771493
O O8 0.963637 0.090896 0.493964
O O9 0.646484 0.708244 0.454993
#
# Coordination Sequence:
#
# PCOD9368041 Si02
#       5
#     4   8   8   8   8
#     4  12  28  50  82 126 174 240 296 370 426 506
#     4  12  28  56  86 127 170 229 281 360 446 518
#     4  12  28  50  83 120 175 225 297 354 431 522
#     4  12  28  50  79 123 171 227 291 358 427 524
#     4  12  30  53  89 125 169 216 287 361 441 532
#
# _framework density 29.231190000000002
#
# number of rings (size 3 to 8) (size 9 to 14) (size 15 to 20)
#    0.000    0.000    2.222    5.333    3.111   11.556 
#    0.000    0.000    0.000    0.000    0.000    0.000 
#    0.000    0.000    0.000    0.000    0.000    0.000 
#
# Total GULP energy -100472.829471 kJ/mol
# GULP energy per Si atom -5581.823859 kJ/mol
# Density = 2.916466 g / cm^3
# Si number density = 29.231190 Si / 1000 Ang^3
#
#
#
# Elastic Constant Matrix: (Units=GPa)
#
#
# Indices 1 2 3 4 5 6 
#
# 1 236.1420 51.7975 65.9497 0.0000 0.0000 0.0000
# 2 51.7975 201.1389 84.2504 0.0000 0.0000 0.0000
# 3 65.9497 84.2504 193.7267 0.0000 0.0000 0.0000
# 4 0.0000 0.0000 0.0000 78.2639 0.0000 0.0000
# 5 0.0000 0.0000 0.0000 0.0000 26.9706 0.0000
# 6 0.0000 0.0000 0.0000 0.0000 0.0000 58.3395
#
#
#
# Elastic Compliance Matrix: (Units=1/GPa)
#
#
# Indices 1 2 3 4 5 6 
#
# 1 0.004752 -0.000668 -0.001327 0.000000 0.000000 0.000000
# 2 -0.000668 0.006173 -0.002457 0.000000 0.000000 0.000000
# 3 -0.001327 -0.002457 0.006682 0.000000 0.000000 0.000000
# 4 0.000000 0.000000 0.000000 0.012777 0.000000 0.000000
# 5 0.000000 0.000000 0.000000 0.000000 0.037077 0.000000
# 6 0.000000 0.000000 0.000000 0.000000 0.000000 0.017141
#
#
# Mechanical properties :
#
#
# Convention : Reuss Voigt Hill
#
# Bulk Modulus (GPa) = 114.90740 115.00031 114.95385
# Shear Modulus (GPa) = 51.86274 61.31545 56.58910
#
# Velocity S-wave (km/s) = 4.21673 4.58493 4.40468
# Velocity P-wave (km/s) = 7.94373 8.21315 8.07956
#
# Compressibility (1/GPa) = 0.00870266
#
# Stress axis : x y z
#
# Youngs Moduli (GPa) = 210.44250 161.99829 149.64731
#
# Poissons Ratio (x) = 0.10818 0.19862
# Poissons Ratio (y) = 0.14053 0.36772
# Poissons Ratio (z) = 0.27931 0.39807
#
# Static dielectric constant tensor:
#      x y z
#    x 2.394530 0.000000 0.000000 
#    y 0.000000 2.173510 0.000000 
#    z 0.000000 0.000000 2.510630 
# 
# From -- ./inp_files/4113.got.cif
#   From: 2010.05.17/outbox.cif.g08.bks.cpg/sg41_3_cif.got.tgz:4113.got - 2010.06.03 18:54:24.
