data_PCOD9368915
_publ_section_title
;
Structure prediction by ZEFSAII (Michael W. Deem and Ramdas Pophale) SiO2 
 PCOD9368915
Probable space group: F M M 2
;
_chemical_formula_sum "Si O2"
_cell_formula_units_Z 112
_cell_length_a 14.775358
_cell_length_b 14.273413
_cell_length_c 24.213511
_cell_angle_alpha 90.000000
_cell_angle_beta 90.000000
_cell_angle_gamma 90.000000
_cell_volume 5106.503244
_symmetry_space_group_name_H-M "F M M 2"
_symmetry_group_IT_number 42
_symmetry_cell_setting 'orthorhombic'
loop_
_space_group_symop_operation_xyz
x,y,z
-x,-y,z
-x,y,z
x,-y,z
x,1/2+y,1/2+z
-x,1/2-y,1/2+z
-x,1/2+y,1/2+z
x,1/2-y,1/2+z
1/2+x,y,1/2+z
1/2-x,-y,1/2+z
1/2-x,y,1/2+z
1/2+x,-y,1/2+z
1/2+x,1/2+y,z
1/2-x,1/2-y,z
1/2-x,1/2+y,z
1/2+x,1/2-y,z
loop_
_atom_site_type_symbol
_atom_site_label
_atom_site_fract_x
_atom_site_fract_y
_atom_site_fract_z
Si Si1 0.395240 0.602195 0.409110
Si Si2 0.598024 0.892328 0.167415
Si Si3 0.609049 0.104535 0.367232
Si Si4 0.389600 0.715137 0.303208
Si Si5 0.354524 0.222505 0.475974
Si Si6 0.696542 0.608558 0.202681
Si Si7 0.645940 0.281600 0.097840
O O1 0.500000 0.590170 0.395153
O O2 0.356105 0.500000 0.422443
O O3 0.356015 0.650287 0.354329
O O4 0.395493 0.678337 0.457333
O O5 0.500000 0.884366 0.197933
O O6 0.694305 0.879852 0.197912
O O7 0.598219 0.810938 0.121809
O O8 0.601391 0.000000 0.146005
O O9 0.500000 0.100750 0.364312
O O10 0.637068 0.180257 0.321496
O O11 0.630314 0.147467 0.427541
O O12 0.645234 0.000000 0.359280
O O13 0.500000 0.711461 0.299404
O O14 0.346118 0.676015 0.248113
O O15 0.250000 0.250000 0.476937
O O16 0.385557 0.191530 0.536648
O O17 0.677953 0.500000 0.215238
O O18 0.650681 0.638449 0.144408
O O19 0.750000 0.250000 0.092181
#
# Coordination Sequence:
#
# PCOD9368915 Si02
#       7
#    16  16  16  16  16  16  16
#     4   9  18  34  57  84 113 147 192 245 296 347
#     4   9  19  37  60  85 116 157 202 247 297 353
#     4   9  19  38  63  89 119 156 197 242 293 352
#     4   9  18  35  60  90 123 158 200 250 300 353
#     4  10  20  34  55  85 121 157 195 243 295 347
#     4  10  20  36  60  88 119 157 202 251 301 357
#     4   9  20  37  55  81 119 160 200 243 292 350
#
# _framework density 21.932817
#
# number of rings (size 3 to 8) (size 9 to 14) (size 15 to 20)
#    0.000    2.714    0.000    1.714    0.000    4.286 
#    0.000   13.571    0.000   12.857    0.000    0.000 
#    0.000    0.000    0.000    0.000    0.000    3.143 
#
# Total GULP energy -156236.824553 kJ/mol
# GULP energy per Si atom -5579.886591 kJ/mol
# Density = 2.188290 g / cm^3
# Si number density = 21.932817 Si / 1000 Ang^3
#
#
#
# Elastic Constant Matrix: (Units=GPa)
#
#
# Indices 1 2 3 4 5 6 
#
# 1 81.8341 42.5089 27.7935 0.0000 0.0000 0.0000
# 2 42.5089 179.9045 80.9569 0.0000 0.0000 0.0000
# 3 27.7935 80.9569 142.0778 0.0000 0.0000 0.0000
# 4 0.0000 0.0000 0.0000 17.8618 0.0000 0.0000
# 5 0.0000 0.0000 0.0000 0.0000 -98.9968 0.0000
# 6 0.0000 0.0000 0.0000 0.0000 0.0000 21.7231
#
#
#
# Elastic Compliance Matrix: (Units=1/GPa)
#
#
# Indices 1 2 3 4 5 6 
#
# 1 0.014069 -0.002805 -0.001154 0.000000 0.000000 0.000000
# 2 -0.002805 0.008035 -0.004029 0.000000 0.000000 0.000000
# 3 -0.001154 -0.004029 0.009560 0.000000 0.000000 0.000000
# 4 0.000000 0.000000 0.000000 0.055985 0.000000 0.000000
# 5 0.000000 0.000000 0.000000 0.000000 -0.010101 0.000000
# 6 0.000000 0.000000 0.000000 0.000000 0.000000 0.046034
#
#
# Mechanical properties :
#
#
# Convention : Reuss Voigt Hill
#
# Bulk Modulus (GPa) = 63.74755 78.48166 71.11461
# Shear Modulus (GPa) = 34.53351 4.95476 19.74413
#
# Velocity S-wave (km/s) = 3.97232 1.50465 3.00360
# Velocity P-wave (km/s) = 7.08287 6.23531 6.67256
#
# Compressibility (1/GPa) = 0.01568688
#
# Stress axis : x y z
#
# Youngs Moduli (GPa) = 71.07927 124.46296 104.60146
#
# Poissons Ratio (x) = 0.34912 0.12069
# Poissons Ratio (y) = 0.19938 0.42148
# Poissons Ratio (z) = 0.08201 0.50151
#
# Static dielectric constant tensor:
#      x y z
#    x 1.846770 0.000000 0.000000 
#    y 0.000000 1.790750 0.000000 
#    z 0.000000 0.000000 1.805840 
# 
# From -- ./inp_files/29508.got.cif
#   From: 2010.05.17/outbox.cif.g08.bks.cpg/sg42_15_cif.got.tgz:29508.got - 2010.06.03 19:03:34.
