data_PCOD9368835
_publ_section_title
;
Structure prediction by ZEFSAII (Michael W. Deem and Ramdas Pophale) SiO2 
 PCOD9368835
Probable space group: F M M 2
;
_chemical_formula_sum "Si O2"
_cell_formula_units_Z 116
_cell_length_a 25.853807
_cell_length_b 7.853247
_cell_length_c 26.734246
_cell_angle_alpha 90.000000
_cell_angle_beta 90.000000
_cell_angle_gamma 90.000000
_cell_volume 5428.023254
_symmetry_space_group_name_H-M "F M M 2"
_symmetry_group_IT_number 42
_symmetry_cell_setting 'orthorhombic'
loop_
_space_group_symop_operation_xyz
x,y,z
-x,-y,z
-x,y,z
x,-y,z
x,1/2+y,1/2+z
-x,1/2-y,1/2+z
-x,1/2+y,1/2+z
x,1/2-y,1/2+z
1/2+x,y,1/2+z
1/2-x,-y,1/2+z
1/2-x,y,1/2+z
1/2+x,-y,1/2+z
1/2+x,1/2+y,z
1/2-x,1/2-y,z
1/2-x,1/2+y,z
1/2+x,1/2-y,z
loop_
_atom_site_type_symbol
_atom_site_label
_atom_site_fract_x
_atom_site_fract_y
_atom_site_fract_z
Si Si1 0.500000 0.500000 0.676025
Si Si2 0.942526 0.706687 0.335720
Si Si3 0.667600 0.699008 0.301004
Si Si4 0.085625 0.805181 0.947118
Si Si5 0.806435 0.797105 0.413328
Si Si6 0.441937 0.300460 0.556514
Si Si7 0.584155 0.690250 0.158920
Si Si8 0.693042 0.690347 0.695693
O O1 0.545819 0.345631 0.675023
O O2 0.938513 0.500000 0.334979
O O3 0.894557 0.777772 0.304736
O O4 0.935772 0.762383 0.393950
O O5 0.000000 0.752630 0.318068
O O6 0.679499 0.500000 0.293990
O O7 0.688266 0.755329 0.355172
O O8 0.691433 0.802911 0.255989
O O9 0.147237 0.792949 0.941886
O O10 0.068133 0.000000 0.950843
O O11 0.070562 0.716695 0.998354
O O12 0.750000 0.750000 0.431919
O O13 0.814770 0.000000 0.415703
O O14 0.500000 0.235108 0.563909
O O15 0.441773 0.500000 0.569064
O O16 0.409302 0.207749 0.598580
O O17 0.564401 0.500000 0.170785
O O18 0.641810 0.707552 0.180844
O O19 0.685177 0.500000 0.677067
O O20 0.750000 0.750000 0.679542
#
# Coordination Sequence:
#
# PCOD9368835 Si02
#       8
#     4  16  16  16  16  16  16  16
#     4  12  22  48  68 106 136 168 214 278 328 402
#     4   9  18  34  52  78 118 161 201 252 308 368
#     4  10  21  37  58  86 115 154 206 252 313 379
#     4  10  20  33  54  83 115 154 201 244 301 370
#     4  10  20  35  55  80 112 150 195 250 304 362
#     4  11  21  38  60  90 124 160 204 253 306 371
#     4  12  24  44  71 100 135 173 216 271 334 391
#     4  12  25  45  68  96 129 167 218 270 328 396
#
# _framework density 21.370578999999999
#
# number of rings (size 3 to 8) (size 9 to 14) (size 15 to 20)
#    0.000    1.379    2.069    3.931    0.000    4.966 
#    1.241    0.690    0.000    0.000    0.000    0.000 
#    0.000    0.000    0.000    0.000    0.000    0.000 
#
# Total GULP energy -161756.407816 kJ/mol
# GULP energy per Si atom -5577.807166 kJ/mol
# Density = 2.132194 g / cm^3
# Si number density = 21.370579 Si / 1000 Ang^3
#
#
#
# Elastic Constant Matrix: (Units=GPa)
#
#
# Indices 1 2 3 4 5 6 
#
# 1 115.9133 23.2408 9.3223 0.0000 0.0000 -0.0002
# 2 23.2408 100.2202 8.2496 0.0002 -0.0001 -0.0004
# 3 9.3223 8.2496 36.4449 0.0000 0.0000 0.0000
# 4 0.0000 0.0002 0.0000 23.8406 0.0000 -0.0001
# 5 0.0000 -0.0001 0.0000 0.0000 6.0758 0.0001
# 6 -0.0002 -0.0004 0.0000 -0.0001 0.0001 34.3887
#
#
#
# Elastic Compliance Matrix: (Units=1/GPa)
#
#
# Indices 1 2 3 4 5 6 
#
# 1 0.009175 -0.001971 -0.001901 0.000000 0.000000 0.000000
# 2 -0.001971 0.010591 -0.001893 0.000000 0.000000 0.000000
# 3 -0.001901 -0.001893 0.028353 0.000000 0.000000 0.000000
# 4 0.000000 0.000000 0.000000 0.041945 0.000000 0.000000
# 5 0.000000 0.000000 0.000000 0.000000 0.164589 0.000000
# 6 0.000000 0.000000 0.000000 0.000000 0.000000 0.029079
#
#
# Mechanical properties :
#
#
# Convention : Reuss Voigt Hill
#
# Bulk Modulus (GPa) = 27.33031 37.13374 32.23203
# Shear Modulus (GPa) = 16.26230 26.97871 21.62051
#
# Velocity S-wave (km/s) = 2.76156 3.55691 3.18417
# Velocity P-wave (km/s) = 4.79424 5.85514 5.35105
#
# Compressibility (1/GPa) = 0.03658941
#
# Stress axis : x y z
#
# Youngs Moduli (GPa) = 108.98890 94.41995 35.26912
#
# Poissons Ratio (x) = 0.18613 0.06704
# Poissons Ratio (y) = 0.21484 0.06677
# Poissons Ratio (z) = 0.20716 0.17875
#
# Static dielectric constant tensor:
#      x y z
#    x 1.799260 0.000000 0.000000 
#    y 0.000000 1.808450 0.000000 
#    z 0.000000 0.000000 1.776630 
# 
# From -- ./inp_files/33268.got.cif
#   From: 2010.05.17/outbox.cif.g08.bks.cpg/sg42_17_cif.got.tgz:33268.got - 2010.06.03 19:03:34.
