data_PCOD9368437
_publ_section_title
;
Structure prediction by ZEFSAII (Michael W. Deem and Ramdas Pophale) SiO2 
 PCOD9368437
Probable space group: F M M 2
;
_chemical_formula_sum "Si O2"
_cell_formula_units_Z 128
_cell_length_a 15.085532
_cell_length_b 18.283793
_cell_length_c 21.385168
_cell_angle_alpha 90.000000
_cell_angle_beta 90.000000
_cell_angle_gamma 90.000000
_cell_volume 5898.472957
_symmetry_space_group_name_H-M "F M M 2"
_symmetry_group_IT_number 42
_symmetry_cell_setting 'orthorhombic'
loop_
_space_group_symop_operation_xyz
x,y,z
-x,-y,z
-x,y,z
x,-y,z
x,1/2+y,1/2+z
-x,1/2-y,1/2+z
-x,1/2+y,1/2+z
x,1/2-y,1/2+z
1/2+x,y,1/2+z
1/2-x,-y,1/2+z
1/2-x,y,1/2+z
1/2+x,-y,1/2+z
1/2+x,1/2+y,z
1/2-x,1/2-y,z
1/2-x,1/2+y,z
1/2+x,1/2-y,z
loop_
_atom_site_type_symbol
_atom_site_label
_atom_site_fract_x
_atom_site_fract_y
_atom_site_fract_z
Si Si1 0.331539 0.919301 0.736520
Si Si2 0.849685 0.238048 0.407898
Si Si3 0.851520 0.772106 0.182190
Si Si4 0.095837 0.882661 0.856893
Si Si5 0.100557 0.423450 0.074766
Si Si6 0.392929 0.762873 0.046405
Si Si7 0.797793 0.418854 0.884499
Si Si8 0.127451 0.887053 0.713689
O O1 0.381310 0.846769 0.714147
O O2 0.321052 0.918377 0.810969
O O3 0.232001 0.906174 0.711112
O O4 0.363882 0.000000 0.717482
O O5 0.750000 0.250000 0.385148
O O6 0.903084 0.293928 0.364587
O O7 0.862309 0.264469 0.479095
O O8 0.855186 0.149853 0.409532
O O9 0.750000 0.750000 0.197687
O O10 0.860646 0.779399 0.107555
O O11 0.897690 0.698135 0.204610
O O12 0.190018 0.907207 0.887522
O O13 0.100083 0.906371 0.784107
O O14 0.000000 0.907847 0.882496
O O15 0.144792 0.500000 0.056575
O O16 0.141651 0.346290 0.055412
O O17 0.093490 0.422031 0.150029
O O18 0.000000 0.423203 0.049732
O O19 0.500000 0.763414 0.047474
O O20 0.818900 0.500000 0.909117
#
# Coordination Sequence:
#
# PCOD9368437 Si02
#       8
#    16  16  16  16  16  16  16  16
#     4   9  16  28  48  74 101 128 162 203 246 297
#     4  10  20  35  53  72  97 133 177 219 259 308
#     4   9  17  30  49  71  98 131 166 205 249 301
#     4  10  19  31  51  77 104 136 174 217 265 311
#     4   9  17  28  42  65  97 125 149 185 238 300
#     4  10  20  33  50  72  96 127 169 214 259 305
#     4   9  19  34  52  77 107 138 173 214 259 310
#     4   9  16  27  44  70 100 130 162 198 247 303
#
# _framework density 21.700533
#
# number of rings (size 3 to 8) (size 9 to 14) (size 15 to 20)
#    0.000    2.625    0.000    2.250    0.000    4.750 
#    0.000    0.000    0.000    9.000    0.000    3.500 
#    0.000    0.000    0.000    0.000    0.000    0.000 
#
# Total GULP energy -178167.649730 kJ/mol
# GULP energy per Si atom -5567.739054 kJ/mol
# Density = 2.165114 g / cm^3
# Si number density = 21.700533 Si / 1000 Ang^3
#
#
#
# Elastic Constant Matrix: (Units=GPa)
#
#
# Indices 1 2 3 4 5 6 
#
# 1 25.4275 0.1258 -9.1563 0.0000 0.0000 0.0000
# 2 0.1258 139.5674 20.2844 0.0000 0.0000 0.0000
# 3 -9.1563 20.2844 63.2310 0.0000 0.0000 0.0000
# 4 0.0000 0.0000 0.0000 5.7534 0.0000 0.0000
# 5 0.0000 0.0000 0.0000 0.0000 437.4268 0.0000
# 6 0.0000 0.0000 0.0000 0.0000 0.0000 24.6235
#
#
#
# Elastic Compliance Matrix: (Units=1/GPa)
#
#
# Indices 1 2 3 4 5 6 
#
# 1 0.041613 -0.000958 0.006333 0.000000 0.000000 0.000000
# 2 -0.000958 0.007537 -0.002557 0.000000 0.000000 0.000000
# 3 0.006333 -0.002557 0.017552 0.000000 0.000000 0.000000
# 4 0.000000 0.000000 0.000000 0.173810 0.000000 0.000000
# 5 0.000000 0.000000 0.000000 0.000000 0.002286 0.000000
# 6 0.000000 0.000000 0.000000 0.000000 0.000000 0.040612
#
#
# Mechanical properties :
#
#
# Convention : Reuss Voigt Hill
#
# Bulk Modulus (GPa) = 13.82373 27.85928 20.84150
# Shear Modulus (GPa) = 16.56252 108.02555 62.29403
#
# Velocity S-wave (km/s) = 2.76566 7.06316 5.36363
# Velocity P-wave (km/s) = 4.07217 8.90974 6.92698
#
# Compressibility (1/GPa) = 0.07233940
#
# Stress axis : x y z
#
# Youngs Moduli (GPa) = 24.03113 132.67089 56.97261
#
# Poissons Ratio (x) = 0.12709 -0.36082
# Poissons Ratio (y) = 0.02302 0.14566
# Poissons Ratio (z) = -0.15219 0.33920
#
# Static dielectric constant tensor:
#      x y z
#    x -0.403030 0.000000 0.000000 
#    y 0.000000 1.892080 0.000000 
#    z 0.000000 0.000000 1.766630 
# 
# From -- ./inp_files/26231.got.cif
#   From: 2010.05.17/outbox.cif.g08.bks.cpg/sg42_14_cif.got.tgz:26231.got - 2010.06.03 19:03:34.
