data_PCOD9368959
_publ_section_title
;
Structure prediction by ZEFSAII (Michael W. Deem and Ramdas Pophale) SiO2 
 PCOD9368959
Probable space group: F M M 2
;
_chemical_formula_sum "Si O2"
_cell_formula_units_Z 112
_cell_length_a 24.971709
_cell_length_b 14.550476
_cell_length_c 14.985209
_cell_angle_alpha 90.000000
_cell_angle_beta 90.000000
_cell_angle_gamma 90.000000
_cell_volume 5444.879474
_symmetry_space_group_name_H-M "F M M 2"
_symmetry_group_IT_number 42
_symmetry_cell_setting 'orthorhombic'
loop_
_space_group_symop_operation_xyz
x,y,z
-x,-y,z
-x,y,z
x,-y,z
x,1/2+y,1/2+z
-x,1/2-y,1/2+z
-x,1/2+y,1/2+z
x,1/2-y,1/2+z
1/2+x,y,1/2+z
1/2-x,-y,1/2+z
1/2-x,y,1/2+z
1/2+x,-y,1/2+z
1/2+x,1/2+y,z
1/2-x,1/2-y,z
1/2-x,1/2+y,z
1/2+x,1/2-y,z
loop_
_atom_site_type_symbol
_atom_site_label
_atom_site_fract_x
_atom_site_fract_y
_atom_site_fract_z
Si Si1 0.439601 0.109047 0.433870
Si Si2 0.670049 0.103409 0.966583
Si Si3 0.057334 0.609414 0.051090
Si Si4 0.601076 0.390037 0.737894
Si Si5 0.782387 0.156796 0.788532
Si Si6 0.261354 0.402141 0.109203
Si Si7 0.675077 0.309654 0.965978
O O1 0.500000 0.135832 0.461853
O O2 0.434185 0.119639 0.326589
O O3 0.387278 0.162313 0.470116
O O4 0.433185 0.000000 0.453099
O O5 0.683375 0.205331 0.930540
O O6 0.677334 0.000000 0.925540
O O7 0.607468 0.117311 0.986815
O O8 0.704318 0.100009 0.058033
O O9 0.052458 0.500000 0.063696
O O10 0.072521 0.644891 0.149058
O O11 0.000000 0.645105 0.019542
O O12 0.613353 0.500000 0.729320
O O13 0.656888 0.338655 0.752879
O O14 0.750000 0.250000 0.785175
O O15 0.750136 0.100609 0.713959
O O16 0.793365 0.128240 0.891796
O O17 0.287552 0.500000 0.086661
O O18 0.297421 0.325196 0.061681
#
# Coordination Sequence:
#
# PCOD9368959 Si02
#       7
#    16  16  16  16  16  16  16
#     4   9  18  33  55  84 118 153 192 244 303 362
#     4  10  20  35  54  78 114 157 196 244 300 351
#     4   9  16  27  47  76 107 143 190 240 293 353
#     4   9  16  29  50  78 109 145 188 242 302 352
#     4  11  21  34  54  79 112 155 197 239 296 354
#     4  11  22  37  58  84 117 154 195 246 299 361
#     4  11  23  38  58  85 120 160 199 247 301 363
#
# _framework density 20.569786000000001
#
# number of rings (size 3 to 8) (size 9 to 14) (size 15 to 20)
#    0.000    2.000    1.429    3.429    0.000    4.000 
#    0.000    1.429    0.000    0.857    0.000    0.000 
#    0.000    0.000    0.000    0.286    0.000    1.714 
#
# Total GULP energy -155880.244510 kJ/mol
# GULP energy per Si atom -5567.151590 kJ/mol
# Density = 2.052297 g / cm^3
# Si number density = 20.569786 Si / 1000 Ang^3
#
#
#
# Elastic Constant Matrix: (Units=GPa)
#
#
# Indices 1 2 3 4 5 6 
#
# 1 124.4635 42.2083 16.1657 0.0000 0.0000 0.0000
# 2 42.2083 93.5457 18.0385 0.0000 0.0000 0.0000
# 3 16.1657 18.0385 50.8342 0.0000 0.0000 0.0000
# 4 0.0000 0.0000 0.0000 11.7740 0.0000 0.0000
# 5 0.0000 0.0000 0.0000 0.0000 7.4062 0.0000
# 6 0.0000 0.0000 0.0000 0.0000 0.0000 24.6283
#
#
#
# Elastic Compliance Matrix: (Units=1/GPa)
#
#
# Indices 1 2 3 4 5 6 
#
# 1 0.009610 -0.004022 -0.001629 0.000000 0.000000 0.000000
# 2 -0.004022 0.013158 -0.003390 0.000000 0.000000 0.000000
# 3 -0.001629 -0.003390 0.021393 0.000000 0.000000 0.000000
# 4 0.000000 0.000000 0.000000 0.084933 0.000000 0.000000
# 5 0.000000 0.000000 0.000000 0.000000 0.135021 0.000000
# 6 0.000000 0.000000 0.000000 0.000000 0.000000 0.040604
#
#
# Mechanical properties :
#
#
# Convention : Reuss Voigt Hill
#
# Bulk Modulus (GPa) = 38.34490 46.85204 42.59847
# Shear Modulus (GPa) = 15.08321 21.59045 18.33683
#
# Velocity S-wave (km/s) = 2.71083 3.24330 2.98895
# Velocity P-wave (km/s) = 5.33667 6.07057 5.71541
#
# Compressibility (1/GPa) = 0.02607909
#
# Stress axis : x y z
#
# Youngs Moduli (GPa) = 104.05848 75.99688 46.74468
#
# Poissons Ratio (x) = 0.30566 0.07614
# Poissons Ratio (y) = 0.41852 0.15848
# Poissons Ratio (z) = 0.16950 0.25765
#
# Static dielectric constant tensor:
#      x y z
#    x 1.777450 0.000000 0.000000 
#    y 0.000000 1.805040 0.000000 
#    z 0.000000 0.000000 1.759000 
# 
# From -- ./inp_files/17079.got.cif
#   From: 2010.05.17/outbox.cif.g08.bks.cpg/sg42_9_cif.got.tgz:17079.got - 2010.06.03 19:03:34.
