data_PCOD9368451
_publ_section_title
;
Structure prediction by ZEFSAII (Michael W. Deem and Ramdas Pophale) SiO2 
 PCOD9368451
Probable space group: F M M 2
;
_chemical_formula_sum "Si O2"
_cell_formula_units_Z 96
_cell_length_a 19.444080
_cell_length_b 8.923531
_cell_length_c 32.405444
_cell_angle_alpha 90.000000
_cell_angle_beta 90.000000
_cell_angle_gamma 90.000000
_cell_volume 5622.663749
_symmetry_space_group_name_H-M "F M M 2"
_symmetry_group_IT_number 42
_symmetry_cell_setting 'orthorhombic'
loop_
_space_group_symop_operation_xyz
x,y,z
-x,-y,z
-x,y,z
x,-y,z
x,1/2+y,1/2+z
-x,1/2-y,1/2+z
-x,1/2+y,1/2+z
x,1/2-y,1/2+z
1/2+x,y,1/2+z
1/2-x,-y,1/2+z
1/2-x,y,1/2+z
1/2+x,-y,1/2+z
1/2+x,1/2+y,z
1/2-x,1/2-y,z
1/2-x,1/2+y,z
1/2+x,1/2-y,z
loop_
_atom_site_type_symbol
_atom_site_label
_atom_site_fract_x
_atom_site_fract_y
_atom_site_fract_z
Si Si1 0.825743 0.181118 0.909280
Si Si2 0.825769 0.818971 0.323008
Si Si3 0.079035 0.317485 0.486079
Si Si4 0.083819 0.173663 0.076587
Si Si5 0.079341 0.320070 0.745786
Si Si6 0.416330 0.172489 0.160652
O O1 0.750000 0.250000 0.915307
O O2 0.851926 0.249627 0.866103
O O3 0.873556 0.223835 0.947785
O O4 0.822064 0.000000 0.906413
O O5 0.750000 0.750000 0.316691
O O6 0.874181 0.777840 0.284666
O O7 0.821725 0.000000 0.326180
O O8 0.078033 0.500000 0.488030
O O9 0.104548 0.266966 0.531384
O O10 0.000000 0.268584 0.480141
O O11 0.107688 0.259488 0.117240
O O12 0.000000 0.177434 0.075936
O O13 0.103981 0.000000 0.080327
O O14 0.079086 0.500000 0.743199
O O15 0.105378 0.257182 0.702121
O O16 0.000000 0.270336 0.751626
O O17 0.500000 0.182374 0.159863
O O18 0.396864 0.000000 0.163534
#
# Coordination Sequence:
#
# PCOD9368451 Si02
#       6
#    16  16  16  16  16  16
#     4  10  19  32  50  69  92 122 155 190 228 275
#     4  10  20  34  51  69  91 121 156 191 228 275
#     4   8  15  28  47  71  94 119 155 194 228 265
#     4   8  13  24  43  64  88 119 153 187 224 269
#     4   9  18  32  49  69  93 122 155 189 227 272
#     4   9  16  25  40  66  97 123 149 185 228 271
#
# _framework density 17.073758000000002
#
# number of rings (size 3 to 8) (size 9 to 14) (size 15 to 20)
#    0.000    3.000    0.000    3.500    0.000    4.000 
#    0.000    1.667    0.000    4.500    0.000    2.333 
#    0.000    0.000    0.000    0.000    0.000    0.000 
#
# Total GULP energy -133659.933602 kJ/mol
# GULP energy per Si atom -5569.163900 kJ/mol
# Density = 1.703490 g / cm^3
# Si number density = 17.073758 Si / 1000 Ang^3
#
#
#
# Elastic Constant Matrix: (Units=GPa)
#
#
# Indices 1 2 3 4 5 6 
#
# 1 33.9203 20.1999 67.1481 0.0000 0.0000 0.0000
# 2 20.1999 41.3727 54.6153 0.0000 0.0000 0.0000
# 3 67.1481 54.6153 214.1087 0.0000 0.0000 0.0000
# 4 0.0000 0.0000 0.0000 21.1909 0.0000 0.0000
# 5 0.0000 0.0000 0.0000 0.0000 -10.2337 0.0000
# 6 0.0000 0.0000 0.0000 0.0000 0.0000 12.7761
#
#
#
# Elastic Compliance Matrix: (Units=1/GPa)
#
#
# Indices 1 2 3 4 5 6 
#
# 1 0.079887 -0.008942 -0.022773 0.000000 0.000000 0.000000
# 2 -0.008942 0.037442 -0.006746 0.000000 0.000000 0.000000
# 3 -0.022773 -0.006746 0.013533 0.000000 0.000000 0.000000
# 4 0.000000 0.000000 0.000000 0.047190 0.000000 0.000000
# 5 0.000000 0.000000 0.000000 0.000000 -0.097717 0.000000
# 6 0.000000 0.000000 0.000000 0.000000 0.000000 0.078271
#
#
# Mechanical properties :
#
#
# Convention : Reuss Voigt Hill
#
# Bulk Modulus (GPa) = 18.53928 63.70316 41.12122
# Shear Modulus (GPa) = 19.72308 14.57589 17.14948
#
# Velocity S-wave (km/s) = 3.40247 2.92499 3.17272
# Velocity P-wave (km/s) = 5.13007 6.98562 6.12848
#
# Compressibility (1/GPa) = 0.05393953
#
# Stress axis : x y z
#
# Youngs Moduli (GPa) = 12.51772 26.70773 73.89139
#
# Poissons Ratio (x) = 0.23882 1.68272
# Poissons Ratio (y) = 0.11194 0.49850
# Poissons Ratio (z) = 0.28506 0.18018
#
# Static dielectric constant tensor:
#      x y z
#    x 1.562680 0.000000 0.000000 
#    y 0.000000 1.573890 0.000000 
#    z 0.000000 0.000000 1.594230 
# 
# From -- ./inp_files/28042.got.cif
#   From: 2010.05.17/outbox.cif.g08.bks.cpg/sg42_15_cif.got.tgz:28042.got - 2010.06.03 19:03:34.
