data_PCOD9368822
_publ_section_title
;
Structure prediction by ZEFSAII (Michael W. Deem and Ramdas Pophale) SiO2 
 PCOD9368822
Probable space group: F M M 2
;
_chemical_formula_sum "Si O2"
_cell_formula_units_Z 96
_cell_length_a 8.749826
_cell_length_b 24.012197
_cell_length_c 26.035338
_cell_angle_alpha 90.000000
_cell_angle_beta 90.000000
_cell_angle_gamma 90.000000
_cell_volume 5470.090790
_symmetry_space_group_name_H-M "F M M 2"
_symmetry_group_IT_number 42
_symmetry_cell_setting 'orthorhombic'
loop_
_space_group_symop_operation_xyz
x,y,z
-x,-y,z
-x,y,z
x,-y,z
x,1/2+y,1/2+z
-x,1/2-y,1/2+z
-x,1/2+y,1/2+z
x,1/2-y,1/2+z
1/2+x,y,1/2+z
1/2-x,-y,1/2+z
1/2-x,y,1/2+z
1/2+x,-y,1/2+z
1/2+x,1/2+y,z
1/2-x,1/2-y,z
1/2-x,1/2+y,z
1/2+x,1/2-y,z
loop_
_atom_site_type_symbol
_atom_site_label
_atom_site_fract_x
_atom_site_fract_y
_atom_site_fract_z
Si Si1 0.818593 0.434795 0.895430
Si Si2 0.818699 0.385172 0.491909
Si Si3 0.672215 0.500000 0.130734
Si Si4 0.681997 0.104658 0.176890
Si Si5 0.817826 0.811424 0.583523
Si Si6 0.176215 0.000000 0.528744
Si Si7 0.679228 0.065066 0.285490
O O1 0.770277 0.500000 0.906008
O O2 0.775608 0.424083 0.836428
O O3 0.000000 0.432568 0.902681
O O4 0.742053 0.389993 0.933496
O O5 0.749237 0.341837 0.532843
O O6 0.762869 0.445043 0.511949
O O7 0.000000 0.379813 0.492273
O O8 0.500000 0.500000 0.108997
O O9 0.703513 0.444472 0.161767
O O10 0.807530 0.500000 0.089475
O O11 0.500000 0.090107 0.170806
O O12 0.712788 0.153846 0.136153
O O13 0.704497 0.107515 0.238376
O O14 0.750000 0.750000 0.587726
O O15 0.000000 0.809227 0.577589
O O16 0.000000 0.000000 0.512340
O O17 0.500000 0.067779 0.299411
O O18 0.707302 0.000000 0.269401
#
# Coordination Sequence:
#
# PCOD9368822 Si02
#       7
#    16  16   8  16  16   8  16
#     4  10  20  33  51  79 118 156 186 225 279 334
#     4  12  23  36  57  84 113 147 189 234 280 339
#     4  12  22  30  49  82 115 146 184 226 274 336
#     4  10  20  36  57  79 112 153 186 227 284 337
#     4  11  24  41  61  82 111 149 190 237 287 339
#     4  12  22  34  51  78 115 150 182 222 282 344
#     4   9  17  31  52  79 112 150 190 227 271 332
#
# _framework density 17.549982
#
# number of rings (size 3 to 8) (size 9 to 14) (size 15 to 20)
#    0.000    1.333    3.333    4.000    0.000    2.000 
#    0.000    0.000    0.000    1.000    0.000    4.667 
#    0.000    0.000    0.000    0.000    0.000    0.000 
#
# Total GULP energy -133768.554002 kJ/mol
# GULP energy per Si atom -5573.689750 kJ/mol
# Density = 1.751004 g / cm^3
# Si number density = 17.549982 Si / 1000 Ang^3
#
#
#
# Elastic Constant Matrix: (Units=GPa)
#
#
# Indices 1 2 3 4 5 6 
#
# 1 92.4054 51.2673 61.5207 0.0000 0.0000 0.0000
# 2 51.2673 92.3070 50.8287 0.0000 0.0000 0.0000
# 3 61.5207 50.8287 123.9041 0.0000 0.0000 0.0000
# 4 0.0000 0.0000 0.0000 8.8456 0.0000 0.0000
# 5 0.0000 0.0000 0.0000 0.0000 28.6437 0.0000
# 6 0.0000 0.0000 0.0000 0.0000 0.0000 42.1197
#
#
#
# Elastic Compliance Matrix: (Units=1/GPa)
#
#
# Indices 1 2 3 4 5 6 
#
# 1 0.019092 -0.006955 -0.006627 0.000000 0.000000 0.000000
# 2 -0.006955 0.016528 -0.003327 0.000000 0.000000 0.000000
# 3 -0.006627 -0.003327 0.012726 0.000000 0.000000 0.000000
# 4 0.000000 0.000000 0.000000 0.113051 0.000000 0.000000
# 5 0.000000 0.000000 0.000000 0.000000 0.034912 0.000000
# 6 0.000000 0.000000 0.000000 0.000000 0.000000 0.023742
#
#
# Mechanical properties :
#
#
# Convention : Reuss Voigt Hill
#
# Bulk Modulus (GPa) = 68.82693 70.64998 69.73845
# Shear Modulus (GPa) = 19.32656 25.58844 22.45750
#
# Velocity S-wave (km/s) = 3.32208 3.82256 3.58107
# Velocity P-wave (km/s) = 7.34968 7.73476 7.54467
#
# Compressibility (1/GPa) = 0.01452920
#
# Stress axis : x y z
#
# Youngs Moduli (GPa) = 52.37704 60.50261 78.58032
#
# Poissons Ratio (x) = 0.42079 0.52072
# Poissons Ratio (y) = 0.36428 0.26144
# Poissons Ratio (z) = 0.34708 0.20129
#
# Static dielectric constant tensor:
#      x y z
#    x 1.588030 0.000000 0.000000 
#    y 0.000000 1.716710 0.000000 
#    z 0.000000 0.000000 1.672250 
# 
# From -- ./inp_files/28068.got.cif
#   From: 2010.05.17/outbox.cif.g08.bks.cpg/sg42_15_cif.got.tgz:28068.got - 2010.06.03 19:03:34.
