data_PCOD9368563
_publ_section_title
;
Structure prediction by ZEFSAII (Michael W. Deem and Ramdas Pophale) SiO2 
 PCOD9368563
Probable space group: F M M 2
;
_chemical_formula_sum "Si O2"
_cell_formula_units_Z 96
_cell_length_a 30.705399
_cell_length_b 19.286534
_cell_length_c 8.479860
_cell_angle_alpha 90.000000
_cell_angle_beta 90.000000
_cell_angle_gamma 90.000000
_cell_volume 5021.779213
_symmetry_space_group_name_H-M "F M M 2"
_symmetry_group_IT_number 42
_symmetry_cell_setting 'orthorhombic'
loop_
_space_group_symop_operation_xyz
x,y,z
-x,-y,z
-x,y,z
x,-y,z
x,1/2+y,1/2+z
-x,1/2-y,1/2+z
-x,1/2+y,1/2+z
x,1/2-y,1/2+z
1/2+x,y,1/2+z
1/2-x,-y,1/2+z
1/2-x,y,1/2+z
1/2+x,-y,1/2+z
1/2+x,1/2+y,z
1/2-x,1/2-y,z
1/2-x,1/2+y,z
1/2+x,1/2-y,z
loop_
_atom_site_type_symbol
_atom_site_label
_atom_site_fract_x
_atom_site_fract_y
_atom_site_fract_z
Si Si1 0.611150 0.419699 0.102190
Si Si2 0.756333 0.831247 0.203991
Si Si3 0.551371 0.317962 0.951339
Si Si4 0.301688 0.916142 0.423124
Si Si5 0.394274 0.288934 0.657599
Si Si6 0.153752 0.330093 0.858974
O O1 0.604117 0.500000 0.108289
O O2 0.647783 0.404661 0.968059
O O3 0.632437 0.393324 0.263940
O O4 0.567065 0.380814 0.060349
O O5 0.750000 0.750000 0.159504
O O6 0.715042 0.871652 0.275295
O O7 0.776062 0.879909 0.067736
O O8 0.794543 0.829963 0.337257
O O9 0.500000 0.310877 0.936847
O O10 0.574778 0.326455 0.782567
O O11 0.573362 0.253010 0.040722
O O12 0.294169 0.000000 0.411425
O O13 0.362843 0.328361 0.537052
O O14 0.364866 0.235921 0.760442
#
# Coordination Sequence:
#
# PCOD9368563 Si02
#       6
#    16  16  16  16  16  16
#     4   9  20  38  55  75 106 147 184 220 269 331
#     4  11  23  32  56  84 110 143 194 243 274 314
#     4  10  19  33  57  82 106 136 174 225 273 330
#     4  10  22  39  53  75 113 155 189 225 279 337
#     4   9  19  34  54  81 111 140 172 216 281 336
#     4   9  20  34  55  76 113 144 179 221 275 326
#
# _framework density 19.116731999999999
#
# number of rings (size 3 to 8) (size 9 to 14) (size 15 to 20)
#    0.000    2.333    0.000    1.500   11.667    1.000 
#    0.000    1.667    0.000    0.000    0.000    0.000 
#    0.000    0.000    0.000    0.000    0.000    0.000 
#
# Total GULP energy -133888.827642 kJ/mol
# GULP energy per Si atom -5578.701152 kJ/mol
# Density = 1.907322 g / cm^3
# Si number density = 19.116732 Si / 1000 Ang^3
#
#
#
# Elastic Constant Matrix: (Units=GPa)
#
#
# Indices 1 2 3 4 5 6 
#
# 1 77.5884 24.1151 31.3787 0.0000 0.0000 0.0000
# 2 24.1151 67.5201 14.3902 0.0000 0.0000 0.0000
# 3 31.3787 14.3902 66.1369 0.0000 0.0000 0.0000
# 4 0.0000 0.0000 0.0000 4.4192 0.0000 0.0000
# 5 0.0000 0.0000 0.0000 0.0000 21.9967 0.0000
# 6 0.0000 0.0000 0.0000 0.0000 0.0000 4.9991
#
#
#
# Elastic Compliance Matrix: (Units=1/GPa)
#
#
# Indices 1 2 3 4 5 6 
#
# 1 0.017224 -0.004624 -0.007166 0.000000 0.000000 0.000000
# 2 -0.004624 0.016772 -0.001455 0.000000 0.000000 0.000000
# 3 -0.007166 -0.001455 0.018837 0.000000 0.000000 0.000000
# 4 0.000000 0.000000 0.000000 0.226287 0.000000 0.000000
# 5 0.000000 0.000000 0.000000 0.000000 0.045461 0.000000
# 6 0.000000 0.000000 0.000000 0.000000 0.000000 0.200037
#
#
# Mechanical properties :
#
#
# Convention : Reuss Voigt Hill
#
# Bulk Modulus (GPa) = 37.96239 39.00150 38.48194
# Shear Modulus (GPa) = 8.93034 15.70708 12.31871
#
# Velocity S-wave (km/s) = 2.16370 2.86954 2.54125
# Velocity P-wave (km/s) = 5.11307 5.60580 5.36510
#
# Compressibility (1/GPa) = 0.02634186
#
# Stress axis : x y z
#
# Youngs Moduli (GPa) = 58.05927 59.62258 53.08830
#
# Poissons Ratio (x) = 0.27572 0.38041
# Poissons Ratio (y) = 0.26849 0.07726
# Poissons Ratio (z) = 0.41603 0.08677
#
# Static dielectric constant tensor:
#      x y z
#    x 1.650160 0.000000 0.000000 
#    y 0.000000 1.656450 0.000000 
#    z 0.000000 0.000000 1.693460 
# 
# From -- ./inp_files/4151.got.cif
#   From: 2010.05.17/outbox.cif.g08.bks.cpg/sg42_3_cif.got.tgz:4151.got - 2010.06.03 19:03:34.
