data_PCOD9368362
_publ_section_title
;
Structure prediction by ZEFSAII (Michael W. Deem and Ramdas Pophale) SiO2 
 PCOD9368362
Probable space group: F M M 2
;
_chemical_formula_sum "Si O2"
_cell_formula_units_Z 80
_cell_length_a 13.665842
_cell_length_b 18.770325
_cell_length_c 13.863043
_cell_angle_alpha 90.000000
_cell_angle_beta 90.000000
_cell_angle_gamma 90.000000
_cell_volume 3556.040986
_symmetry_space_group_name_H-M "F M M 2"
_symmetry_group_IT_number 42
_symmetry_cell_setting 'orthorhombic'
loop_
_space_group_symop_operation_xyz
x,y,z
-x,-y,z
-x,y,z
x,-y,z
x,1/2+y,1/2+z
-x,1/2-y,1/2+z
-x,1/2+y,1/2+z
x,1/2-y,1/2+z
1/2+x,y,1/2+z
1/2-x,-y,1/2+z
1/2-x,y,1/2+z
1/2+x,-y,1/2+z
1/2+x,1/2+y,z
1/2-x,1/2-y,z
1/2-x,1/2+y,z
1/2+x,1/2-y,z
loop_
_atom_site_type_symbol
_atom_site_label
_atom_site_fract_x
_atom_site_fract_y
_atom_site_fract_z
Si Si1 0.183507 0.576481 0.764020
Si Si2 0.681447 0.859342 0.957403
Si Si3 0.894556 0.205045 0.956334
Si Si4 0.109899 0.881400 0.679313
Si Si5 0.638114 0.273971 0.176897
O O1 0.149195 0.500000 0.725478
O O2 0.164027 0.581006 0.878059
O O3 0.299222 0.583706 0.736020
O O4 0.134865 0.648726 0.724090
O O5 0.797558 0.842507 0.948231
O O6 0.630508 0.785438 0.922827
O O7 0.645164 0.876605 0.065948
O O8 0.000000 0.178629 0.921408
O O9 0.902205 0.216095 0.070910
O O10 0.100359 0.800151 0.719629
O O11 0.000000 0.912424 0.683347
O O12 0.750000 0.250000 0.164533
#
# Coordination Sequence:
#
# PCOD9368362 Si02
#       5
#    16  16  16  16  16
#     4  11  24  39  60  91 133 174 207 253 321 395
#     4  10  20  38  60  92 126 166 211 257 329 380
#     4  10  18  34  63  92 118 152 207 272 318 367
#     4  10  21  42  71  96 122 165 224 279 316 371
#     4   9  16  36  60  87 117 154 206 257 316 367
#
# _framework density 22.496929000000002
#
# number of rings (size 3 to 8) (size 9 to 14) (size 15 to 20)
#    0.000    2.000    6.000    2.400    8.400    2.000 
#    0.000    3.000    0.000   10.200    0.000    0.000 
#    0.000    0.000    0.000    0.000    0.000    0.000 
#
# Total GULP energy -111417.445520 kJ/mol
# GULP energy per Si atom -5570.872276 kJ/mol
# Density = 2.244572 g / cm^3
# Si number density = 22.496929 Si / 1000 Ang^3
#
#
#
# Elastic Constant Matrix: (Units=GPa)
#
#
# Indices 1 2 3 4 5 6 
#
# 1 99.1461 -2.6542 7.0272 0.0000 0.0000 0.0000
# 2 -2.6542 129.2571 39.4450 0.0000 0.0000 0.0000
# 3 7.0272 39.4450 78.3820 0.0000 0.0000 0.0000
# 4 0.0000 0.0000 0.0000 8.9764 0.0000 0.0000
# 5 0.0000 0.0000 0.0000 0.0000 -5.0664 0.0000
# 6 0.0000 0.0000 0.0000 0.0000 0.0000 2.1353
#
#
#
# Elastic Compliance Matrix: (Units=1/GPa)
#
#
# Indices 1 2 3 4 5 6 
#
# 1 0.010187 0.000576 -0.001203 0.000000 0.000000 0.000000
# 2 0.000576 0.009173 -0.004668 0.000000 0.000000 0.000000
# 3 -0.001203 -0.004668 0.015215 0.000000 0.000000 0.000000
# 4 0.000000 0.000000 0.000000 0.111404 0.000000 0.000000
# 5 0.000000 0.000000 0.000000 0.000000 -0.197380 0.000000
# 6 0.000000 0.000000 0.000000 0.000000 0.000000 0.468322
#
#
# Mechanical properties :
#
#
# Convention : Reuss Voigt Hill
#
# Bulk Modulus (GPa) = 41.69254 43.82456 42.75855
# Shear Modulus (GPa) = 11.48094 18.74020 15.11057
#
# Velocity S-wave (km/s) = 2.26151 2.88933 2.59448
# Velocity P-wave (km/s) = 5.03905 5.53656 5.29365
#
# Compressibility (1/GPa) = 0.02398510
#
# Stress axis : x y z
#
# Youngs Moduli (GPa) = 98.16581 109.01777 65.72482
#
# Poissons Ratio (x) = -0.06284 0.07909
# Poissons Ratio (y) = -0.05658 0.30679
# Poissons Ratio (z) = 0.11813 0.50887
#
# Static dielectric constant tensor:
#      x y z
#    x 1.917140 0.000000 0.000000 
#    y 0.000000 1.827740 0.000000 
#    z 0.000000 0.000000 1.863790 
# 
# From -- ./inp_files/13810.got.cif
#   From: 2010.05.17/outbox.cif.g08.bks.cpg/sg42_7_cif.got.tgz:13810.got - 2010.06.03 19:03:34.
