data_PCOD9368068
_publ_section_title
;
Structure prediction by ZEFSAII (Michael W. Deem and Ramdas Pophale) SiO2 
 PCOD9368068
Probable space group: A B A 2
;
_chemical_formula_sum "Si O2"
_cell_formula_units_Z 30
_cell_length_a 18.000000
_cell_length_b 27.000000
_cell_length_c 6.000000
_cell_angle_alpha 90.000000
_cell_angle_beta 90.000000
_cell_angle_gamma 90.000000
_cell_volume 2916.000000
_symmetry_space_group_name_H-M "A B A 2"
_symmetry_group_IT_number 41
_symmetry_cell_setting 'orthorhombic'
loop_
_space_group_symop_operation_xyz
x,y,z
-x,-y,z
1/2-x,y,1/2+z
1/2+x,-y,1/2+z
x,1/2+y,1/2+z
-x,1/2-y,1/2+z
1/2-x,1/2+y,z
1/2+x,1/2-y,z
loop_
_atom_site_type_symbol
_atom_site_label
_atom_site_fract_x
_atom_site_fract_y
_atom_site_fract_z
Si Si1 0.146292 0.013831 0.778400
Si Si2 0.449181 0.864445 0.269175
Si Si3 0.213883 0.907113 0.770210
Si Si4 0.000000 0.000000 0.082362
Si Si5 0.420177 0.654981 0.091690
Si Si6 0.448980 0.074971 0.940212
Si Si7 0.964434 0.742697 0.102599
Si Si8 0.716747 0.386083 0.880029
O O1 0.110503 0.038270 0.554923
O O2 0.198628 0.055649 0.884395
O O3 0.195088 0.965297 0.753008
O O4 0.074380 0.001809 0.933483
O O5 0.366103 0.881821 0.305181
O O6 0.496751 0.852623 0.492260
O O7 0.444518 0.814378 0.125459
O O8 0.495954 0.904859 0.129642
O O9 0.244374 0.895952 0.512652
O O10 0.005575 0.046303 0.249461
O O11 0.411506 0.620823 0.309256
O O12 0.406535 0.712656 0.134197
O O13 0.364450 0.638345 0.899430
O O14 0.010300 0.750784 0.340377
O O15 0.747923 0.374125 0.628609
#
# Coordination Sequence:
#
# PCOD9368068 Si02
#       8
#     8   8   8   4   8   8   8   8
#     4  12  25  43  61 100 133 190 228 285 341 418
#     4  11  24  46  72 103 135 180 238 293 344 419
#     4  12  30  47  67  98 142 190 234 282 345 410
#     4  12  24  36  68 104 132 174 240 290 344 400
#     4  11  23  43  72 104 136 180 230 294 348 415
#     4  12  21  40  71 100 136 171 237 289 347 399
#     4  10  22  40  73 108 136 170 231 295 355 403
#     4  12  26  43  66  98 141 180 223 277 346 413
#
# _framework density 10.288066000000001
#
# number of rings (size 3 to 8) (size 9 to 14) (size 15 to 20)
#    0.000    0.533    4.000    4.400    5.600    0.000 
#    0.000    1.333    0.000    0.000    0.000    0.000 
#    0.000    0.000    0.000    0.000    0.000    0.000 
#
# Total GULP energy -167234.581565 kJ/mol
# GULP energy per Si atom -5574.486052 kJ/mol
# Density = 1.026465 g / cm^3
# Si number density = 10.288066 Si / 1000 Ang^3
#
#
#
# Elastic Constant Matrix: (Units=GPa)
#
#
# Indices 1 2 3 4 5 6 
#
# 1 68.3010 9.7874 37.4695 0.0000 0.0000 0.0000
# 2 9.7874 51.4481 -10.7529 0.0000 0.0000 0.0000
# 3 37.4695 -10.7529 121.0798 0.0000 0.0000 0.0000
# 4 0.0000 0.0000 0.0000 26.9335 0.0000 0.0000
# 5 0.0000 0.0000 0.0000 0.0000 35.7884 0.0000
# 6 0.0000 0.0000 0.0000 0.0000 0.0000 2.3791
#
#
#
# Elastic Compliance Matrix: (Units=1/GPa)
#
#
# Indices 1 2 3 4 5 6 
#
# 1 0.018762 -0.004873 -0.006239 0.000000 0.000000 0.000000
# 2 -0.004873 0.021070 0.003379 0.000000 0.000000 0.000000
# 3 -0.006239 0.003379 0.010490 0.000000 0.000000 0.000000
# 4 0.000000 0.000000 0.000000 0.037128 0.000000 0.000000
# 5 0.000000 0.000000 0.000000 0.000000 0.027942 0.000000
# 6 0.000000 0.000000 0.000000 0.000000 0.000000 0.420333
#
#
# Mechanical properties :
#
#
# Convention : Reuss Voigt Hill
#
# Bulk Modulus (GPa) = 28.68891 34.87074 31.77983
# Shear Modulus (GPa) = 8.88399 26.64185 17.76292
#
# Velocity S-wave (km/s) = 2.08014 3.60223 2.94135
# Velocity P-wave (km/s) = 4.44324 5.85537 5.19749
#
# Compressibility (1/GPa) = 0.03485667
#
# Stress axis : x y z
#
# Youngs Moduli (GPa) = 53.29917 47.45986 95.33051
#
# Poissons Ratio (x) = 0.23128 0.59476
# Poissons Ratio (y) = 0.25974 -0.32215
# Poissons Ratio (z) = 0.33253 -0.16038
#
# Static dielectric constant tensor:
#      x y z
#    x 1.764850 0.000000 0.000000 
#    y 0.000000 1.817100 0.000000 
#    z 0.000000 0.000000 1.768370 
# 
# From -- ./inp_files/540.got.cif
#   From: 2010.05.17/outbox.ucp.g08.bks.cvg/sg41_1_cif.got.tgz:540.got - 2010.06.11 16:28:22.
