data_PCOD9368350
_publ_section_title
;
Structure prediction by ZEFSAII (Michael W. Deem and Ramdas Pophale) SiO2 
 PCOD9368350
Probable space group: F M M 2
;
_chemical_formula_sum "Si O2"
_cell_formula_units_Z 128
_cell_length_a 16.973318
_cell_length_b 17.661249
_cell_length_c 23.032563
_cell_angle_alpha 90.000000
_cell_angle_beta 90.000000
_cell_angle_gamma 90.000000
_cell_volume 6904.471308
_symmetry_space_group_name_H-M "F M M 2"
_symmetry_group_IT_number 42
_symmetry_cell_setting 'orthorhombic'
loop_
_space_group_symop_operation_xyz
x,y,z
-x,-y,z
-x,y,z
x,-y,z
x,1/2+y,1/2+z
-x,1/2-y,1/2+z
-x,1/2+y,1/2+z
x,1/2-y,1/2+z
1/2+x,y,1/2+z
1/2-x,-y,1/2+z
1/2-x,y,1/2+z
1/2+x,-y,1/2+z
1/2+x,1/2+y,z
1/2-x,1/2-y,z
1/2-x,1/2+y,z
1/2+x,1/2-y,z
loop_
_atom_site_type_symbol
_atom_site_label
_atom_site_fract_x
_atom_site_fract_y
_atom_site_fract_z
Si Si1 0.909653 0.587744 0.399610
Si Si2 0.260809 0.913253 0.726422
Si Si3 0.803611 0.089777 0.466119
Si Si4 0.092293 0.638240 0.654568
Si Si5 0.353583 0.644147 0.021559
Si Si6 0.907852 0.311694 0.032325
Si Si7 0.260552 0.660593 0.848801
Si Si8 0.669786 0.705697 0.649598
O O1 0.887254 0.500000 0.390349
O O2 0.899339 0.605280 0.468171
O O3 0.851062 0.639856 0.363202
O O4 0.000000 0.598600 0.383415
O O5 0.344312 0.906838 0.692808
O O6 0.267651 0.882946 0.791722
O O7 0.199851 0.856148 0.694850
O O8 0.234111 0.000000 0.725273
O O9 0.735834 0.117392 0.511343
O O10 0.885523 0.121401 0.489435
O O11 0.784063 0.129429 0.405374
O O12 0.800169 0.000000 0.460925
O O13 0.113924 0.627377 0.586042
O O14 0.112313 0.726379 0.669432
O O15 0.000000 0.621807 0.663382
O O16 0.363984 0.734273 0.013644
O O17 0.873804 0.331130 0.095434
O O18 0.000000 0.295275 0.035122
O O19 0.250000 0.750000 0.841876
O O20 0.750000 0.750000 0.630590
#
# Coordination Sequence:
#
# PCOD9368350 Si02
#       8
#    16  16  16  16  16  16  16  16
#     4  10  20  35  58  89 119 140 170 229 293 334
#     4  11  23  39  58  81 110 144 185 230 277 331
#     4  11  22  36  56  82 113 148 184 225 275 330
#     4  10  20  35  57  84 114 147 184 228 272 319
#     4  10  18  34  58  85 113 144 185 227 273 328
#     4  11  21  34  55  83 117 152 186 225 264 316
#     4  11  22  40  62  80 105 146 192 230 268 326
#     4   9  18  35  58  81 108 145 188 230 273 323
#
# _framework density 18.538712
#
# number of rings (size 3 to 8) (size 9 to 14) (size 15 to 20)
#    0.000    1.625    0.000    9.750    0.000    3.000 
#    0.000    3.750    0.000    4.125    0.000    0.000 
#    0.000    0.000    0.000    0.000    0.000    0.000 
#
# Total GULP energy -178641.421522 kJ/mol
# GULP energy per Si atom -5582.544423 kJ/mol
# Density = 1.849652 g / cm^3
# Si number density = 18.538712 Si / 1000 Ang^3
#
#
#
# Elastic Constant Matrix: (Units=GPa)
#
#
# Indices 1 2 3 4 5 6 
#
# 1 38.1415 29.2044 24.9398 0.0000 0.0000 0.0000
# 2 29.2044 76.0793 46.3629 0.0000 0.0000 0.0000
# 3 24.9398 46.3629 64.6740 0.0000 0.0000 0.0000
# 4 0.0000 0.0000 0.0000 -271.9753 0.0000 0.0000
# 5 0.0000 0.0000 0.0000 0.0000 6.3728 0.0000
# 6 0.0000 0.0000 0.0000 0.0000 0.0000 14.7984
#
#
#
# Elastic Compliance Matrix: (Units=1/GPa)
#
#
# Indices 1 2 3 4 5 6 
#
# 1 0.039169 -0.010355 -0.007682 0.000000 0.000000 0.000000
# 2 -0.010355 0.026078 -0.014702 0.000000 0.000000 0.000000
# 3 -0.007682 -0.014702 0.028964 0.000000 0.000000 0.000000
# 4 0.000000 0.000000 0.000000 -0.003677 0.000000 0.000000
# 5 0.000000 0.000000 0.000000 0.000000 0.156917 0.000000
# 6 0.000000 0.000000 0.000000 0.000000 0.000000 0.067575
#
#
# Mechanical properties :
#
#
# Convention : Reuss Voigt Hill
#
# Bulk Modulus (GPa) = 34.80057 42.21212 38.50634
# Shear Modulus (GPa) = 12.81786 -44.93496 -16.05855
#
# Velocity S-wave (km/s) = 2.63232 -4.92860 -2.94635
# Velocity P-wave (km/s) = 5.29636 3.09337 3.03994
#
# Compressibility (1/GPa) = 0.02873517
#
# Stress axis : x y z
#
# Youngs Moduli (GPa) = 25.53010 38.34607 34.52604
#
# Poissons Ratio (x) = 0.39706 0.26522
# Poissons Ratio (y) = 0.26436 0.50759
# Poissons Ratio (z) = 0.19611 0.56375
#
# Static dielectric constant tensor:
#      x y z
#    x 1.651370 0.000000 0.000000 
#    y 0.000000 1.850450 0.000000 
#    z 0.000000 0.000000 1.642650 
# 
# From -- ./inp_files/30019.got.cif
#   From: 2010.05.17/outbox.cif.g08.bks.cpg/sg42_16_cif.got.tgz:30019.got - 2010.06.03 19:03:34.
