data_PCOD9368439
_publ_section_title
;
Structure prediction by ZEFSAII (Michael W. Deem and Ramdas Pophale) SiO2 
 PCOD9368439
Probable space group: F M M 2
;
_chemical_formula_sum "Si O2"
_cell_formula_units_Z 104
_cell_length_a 28.888406
_cell_length_b 23.184747
_cell_length_c 7.820466
_cell_angle_alpha 90.000000
_cell_angle_beta 90.000000
_cell_angle_gamma 90.000000
_cell_volume 5237.916519
_symmetry_space_group_name_H-M "F M M 2"
_symmetry_group_IT_number 42
_symmetry_cell_setting 'orthorhombic'
loop_
_space_group_symop_operation_xyz
x,y,z
-x,-y,z
-x,y,z
x,-y,z
x,1/2+y,1/2+z
-x,1/2-y,1/2+z
-x,1/2+y,1/2+z
x,1/2-y,1/2+z
1/2+x,y,1/2+z
1/2-x,-y,1/2+z
1/2-x,y,1/2+z
1/2+x,-y,1/2+z
1/2+x,1/2+y,z
1/2-x,1/2-y,z
1/2-x,1/2+y,z
1/2+x,1/2-y,z
loop_
_atom_site_type_symbol
_atom_site_label
_atom_site_fract_x
_atom_site_fract_y
_atom_site_fract_z
Si Si1 0.500000 0.777011 0.830950
Si Si2 0.250000 0.250000 0.810600
Si Si3 0.188986 0.680494 0.059199
Si Si4 0.397531 0.342909 0.987567
Si Si5 0.286420 0.066278 0.936266
Si Si6 0.601387 0.220032 0.855750
Si Si7 0.500000 0.658272 0.967019
Si Si8 0.817747 0.433233 0.543518
O O1 0.451193 0.792508 0.916047
O O2 0.500000 0.805528 0.644822
O O3 0.500000 0.707663 0.822626
O O4 0.227356 0.300978 0.917955
O O5 0.207654 0.220488 0.710491
O O6 0.192665 0.612015 0.068774
O O7 0.139919 0.696690 0.982371
O O8 0.394036 0.310695 0.172228
O O9 0.449141 0.370093 0.966261
O O10 0.356459 0.388715 0.981376
O O11 0.393488 0.289514 0.856136
O O12 0.305703 0.077465 0.745069
O O13 0.296987 0.000000 0.981288
O O14 0.230976 0.072402 0.945839
O O15 0.832948 0.500000 0.529109
#
# Coordination Sequence:
#
# PCOD9368439 Si02
#       8
#     8   8  16  16  16  16   8  16
#     4   8  16  30  46  72  96 136 160 200 236 308
#     4  10  24  30  46  72 110 128 158 198 258 298
#     4  11  20  34  47  73 100 134 161 205 245 301
#     4  10  19  35  51  81  99 137 160 210 248 303
#     4  10  21  36  53  69  96 138 176 209 239 291
#     4  10  19  31  52  73 106 129 167 199 258 295
#     4   8  16  30  53  70 106 124 167 196 250 296
#     4  10  21  38  54  71 100 135 175 209 244 290
#
# _framework density 19.855222000000001
#
# number of rings (size 3 to 8) (size 9 to 14) (size 15 to 20)
#    0.000    2.154    1.538    1.846    4.308    0.000 
#    2.769    0.385    0.000    0.000    0.000    0.538 
#    0.000    0.000    0.000   45.385    0.000    0.000 
#
# Total GULP energy -145087.425184 kJ/mol
# GULP energy per Si atom -5580.285584 kJ/mol
# Density = 1.981003 g / cm^3
# Si number density = 19.855222 Si / 1000 Ang^3
#
#
#
# Elastic Constant Matrix: (Units=GPa)
#
#
# Indices 1 2 3 4 5 6 
#
# 1 85.6021 32.6972 -1.8709 -0.0140 0.0057 0.0010
# 2 32.6972 90.4046 0.6885 0.0029 -0.0027 -0.0006
# 3 -1.8709 0.6885 29.4591 0.0077 0.0058 -0.0006
# 4 -0.0140 0.0029 0.0077 5.9170 -0.0083 -0.0011
# 5 0.0057 -0.0027 0.0058 -0.0083 -26.7320 0.0002
# 6 0.0010 -0.0006 -0.0006 -0.0011 0.0002 29.1471
#
#
#
# Elastic Compliance Matrix: (Units=1/GPa)
#
#
# Indices 1 2 3 4 5 6 
#
# 1 0.013583 -0.004920 0.000978 0.000033 0.000004 -0.000001
# 2 -0.004920 0.012845 -0.000613 -0.000017 -0.000002 0.000000
# 3 0.000978 -0.000613 0.034022 -0.000041 0.000008 0.000001
# 4 0.000033 -0.000017 -0.000041 0.169004 -0.000052 0.000007
# 5 0.000004 -0.000002 0.000008 -0.000052 -0.037408 0.000000
# 6 -0.000001 0.000000 0.000001 0.000007 0.000000 0.034309
#
#
# Mechanical properties :
#
#
# Convention : Reuss Voigt Hill
#
# Bulk Modulus (GPa) = 19.47810 29.83284 24.65547
# Shear Modulus (GPa) = 19.79594 13.26316 16.52955
#
# Velocity S-wave (km/s) = 3.16098 2.58736 2.88844
# Velocity P-wave (km/s) = 4.81183 4.89732 4.85476
#
# Compressibility (1/GPa) = 0.05133972
#
# Stress axis : x y z
#
# Youngs Moduli (GPa) = 73.62368 77.84845 29.39297
#
# Poissons Ratio (x) = 0.38301 -0.02873
# Poissons Ratio (y) = 0.36222 0.01801
# Poissons Ratio (z) = -0.07197 0.04770
#
# Static dielectric constant tensor:
#      x y z
#    x 1.722270 0.000000 0.000000 
#    y 0.000000 1.752810 0.000000 
#    z 0.000000 0.000000 1.787830 
# 
# From -- ./inp_files/4374.got.cif
#   From: 2010.05.17/outbox.cif.g08.bks.cpg/sg42_3_cif.got.tgz:4374.got - 2010.06.03 19:03:34.
