data_PCOD9368502
_publ_section_title
;
Structure prediction by ZEFSAII (Michael W. Deem and Ramdas Pophale) SiO2 
 PCOD9368502
Probable space group: F M M 2
;
_chemical_formula_sum "Si O2"
_cell_formula_units_Z 112
_cell_length_a 16.182547
_cell_length_b 17.756533
_cell_length_c 23.189101
_cell_angle_alpha 90.000000
_cell_angle_beta 90.000000
_cell_angle_gamma 90.000000
_cell_volume 6663.293789
_symmetry_space_group_name_H-M "F M M 2"
_symmetry_group_IT_number 42
_symmetry_cell_setting 'orthorhombic'
loop_
_space_group_symop_operation_xyz
x,y,z
-x,-y,z
-x,y,z
x,-y,z
x,1/2+y,1/2+z
-x,1/2-y,1/2+z
-x,1/2+y,1/2+z
x,1/2-y,1/2+z
1/2+x,y,1/2+z
1/2-x,-y,1/2+z
1/2-x,y,1/2+z
1/2+x,-y,1/2+z
1/2+x,1/2+y,z
1/2-x,1/2-y,z
1/2-x,1/2+y,z
1/2+x,1/2-y,z
loop_
_atom_site_type_symbol
_atom_site_label
_atom_site_fract_x
_atom_site_fract_y
_atom_site_fract_z
Si Si1 0.094586 0.762928 0.504160
Si Si2 0.095111 0.857108 0.323892
Si Si3 0.689340 0.087082 0.016383
Si Si4 0.701038 0.321662 0.100881
Si Si5 0.243486 0.586561 0.389783
Si Si6 0.405422 0.197560 0.375296
Si Si7 0.402386 0.087169 0.693281
O O1 0.118513 0.850682 0.507627
O O2 0.150677 0.715539 0.547800
O O3 0.105548 0.734374 0.438837
O O4 0.000000 0.751894 0.520433
O O5 0.167963 0.891442 0.362626
O O6 0.100926 0.767008 0.331106
O O7 0.107856 0.884127 0.258674
O O8 0.000000 0.877842 0.341244
O O9 0.739664 0.116298 0.071725
O O10 0.663455 0.000000 0.021375
O O11 0.745949 0.093253 0.958956
O O12 0.750000 0.250000 0.126262
O O13 0.645281 0.361274 0.148202
O O14 0.225922 0.500000 0.375752
O O15 0.168677 0.638831 0.368528
O O16 0.500000 0.167231 0.372507
O O17 0.500000 0.090004 0.680430
O O18 0.375643 0.000000 0.689494
#
# Coordination Sequence:
#
# PCOD9368502 Si02
#       7
#    16  16  16  16  16  16  16
#     4  10  19  33  52  75 104 141 182 224 266 320
#     4  10  21  36  57  82 108 143 187 227 275 331
#     4  10  20  32  49  76 107 140 179 223 269 323
#     4  10  20  34  55  78 108 142 186 221 265 325
#     4  11  21  33  53  78 110 146 179 226 279 325
#     4  10  20  35  54  76 107 145 185 227 270 325
#     4  10  21  38  57  80 112 144 180 231 278 320
#
# _framework density 16.808505
#
# number of rings (size 3 to 8) (size 9 to 14) (size 15 to 20)
#    0.000    1.857    2.857    1.714    0.000    2.571 
#    0.000    1.429    0.000    0.000    0.000    0.000 
#    0.000    6.857    0.000    0.000    0.000    0.000 
#
# Total GULP energy -156154.062536 kJ/mol
# GULP energy per Si atom -5576.930805 kJ/mol
# Density = 1.677025 g / cm^3
# Si number density = 16.808505 Si / 1000 Ang^3
#
#
#
# Elastic Constant Matrix: (Units=GPa)
#
#
# Indices 1 2 3 4 5 6 
#
# 1 73.1636 53.2685 31.2697 0.0000 0.0000 0.0000
# 2 53.2685 104.5551 38.1540 0.0000 0.0000 0.0000
# 3 31.2697 38.1540 56.3150 0.0000 0.0000 0.0000
# 4 0.0000 0.0000 0.0000 17.1630 0.0000 0.0000
# 5 0.0000 0.0000 0.0000 0.0000 24.8101 0.0000
# 6 0.0000 0.0000 0.0000 0.0000 0.0000 19.6737
#
#
#
# Elastic Compliance Matrix: (Units=1/GPa)
#
#
# Indices 1 2 3 4 5 6 
#
# 1 0.023407 -0.009541 -0.006533 0.000000 0.000000 0.000000
# 2 -0.009541 0.016595 -0.005945 0.000000 0.000000 0.000000
# 3 -0.006533 -0.005945 0.025413 0.000000 0.000000 0.000000
# 4 0.000000 0.000000 0.000000 0.058265 0.000000 0.000000
# 5 0.000000 0.000000 0.000000 0.000000 0.040306 0.000000
# 6 0.000000 0.000000 0.000000 0.000000 0.000000 0.050829
#
#
# Mechanical properties :
#
#
# Convention : Reuss Voigt Hill
#
# Bulk Modulus (GPa) = 46.78177 53.26869 50.02523
# Shear Modulus (GPa) = 18.79849 19.75211 19.27530
#
# Velocity S-wave (km/s) = 3.34786 3.43173 3.39006
# Velocity P-wave (km/s) = 6.54499 6.88932 6.71936
#
# Compressibility (1/GPa) = 0.02137585
#
# Stress axis : x y z
#
# Youngs Moduli (GPa) = 42.72251 60.25906 39.35064
#
# Poissons Ratio (x) = 0.57496 0.25706
# Poissons Ratio (y) = 0.40763 0.23395
# Poissons Ratio (z) = 0.27909 0.35826
#
# Static dielectric constant tensor:
#      x y z
#    x 1.571050 0.000000 0.000000 
#    y 0.000000 1.558960 0.000000 
#    z 0.000000 0.000000 1.543070 
# 
# From -- ./inp_files/26061.got.cif
#   From: 2010.05.17/outbox.cif.g08.bks.cpg/sg42_14_cif.got.tgz:26061.got - 2010.06.03 19:03:34.
