data_PCOD9368990
_publ_section_title
;
Structure prediction by ZEFSAII (Michael W. Deem and Ramdas Pophale) SiO2 
 PCOD9368990
Probable space group: F M M 2
;
_chemical_formula_sum "Si O2"
_cell_formula_units_Z 96
_cell_length_a 22.405103
_cell_length_b 14.247978
_cell_length_c 18.360004
_cell_angle_alpha 90.000000
_cell_angle_beta 90.000000
_cell_angle_gamma 90.000000
_cell_volume 5861.016610
_symmetry_space_group_name_H-M "F M M 2"
_symmetry_group_IT_number 42
_symmetry_cell_setting 'orthorhombic'
loop_
_space_group_symop_operation_xyz
x,y,z
-x,-y,z
-x,y,z
x,-y,z
x,1/2+y,1/2+z
-x,1/2-y,1/2+z
-x,1/2+y,1/2+z
x,1/2-y,1/2+z
1/2+x,y,1/2+z
1/2-x,-y,1/2+z
1/2-x,y,1/2+z
1/2+x,-y,1/2+z
1/2+x,1/2+y,z
1/2-x,1/2-y,z
1/2-x,1/2+y,z
1/2+x,1/2-y,z
loop_
_atom_site_type_symbol
_atom_site_label
_atom_site_fract_x
_atom_site_fract_y
_atom_site_fract_z
Si Si1 0.712748 0.394524 0.940900
Si Si2 0.641517 0.396202 0.222310
Si Si3 0.069951 0.888136 0.368711
Si Si4 0.270553 0.143769 0.279914
Si Si5 0.180523 0.280201 0.139506
Si Si6 0.160879 0.196418 0.480560
O O1 0.702804 0.500000 0.970116
O O2 0.703344 0.396072 0.853732
O O3 0.781350 0.362454 0.953616
O O4 0.675122 0.307695 0.972760
O O5 0.625081 0.500000 0.194832
O O6 0.598953 0.369801 0.289582
O O7 0.708665 0.401648 0.254856
O O8 0.645674 0.313344 0.163832
O O9 0.106383 0.832941 0.429954
O O10 0.000000 0.866233 0.369031
O O11 0.077336 0.000000 0.381459
O O12 0.250000 0.250000 0.298097
O O13 0.313654 0.153099 0.210253
O O14 0.250000 0.250000 0.124271
O O15 0.154448 0.322978 0.066347
#
# Coordination Sequence:
#
# PCOD9368990 Si02
#       6
#    16  16  16  16  16  16
#     4  11  19  29  50  74 101 136 168 203 252 307
#     4   9  16  28  47  70  95 125 168 211 242 287
#     4  10  20  35  57  78  96 131 179 220 256 292
#     4   9  15  28  45  67  99 133 161 196 244 297
#     4   9  18  30  45  70 105 137 156 194 256 315
#     4  11  19  34  47  74 111 134 164 208 257 306
#
# _framework density 16.379411000000001
#
# number of rings (size 3 to 8) (size 9 to 14) (size 15 to 20)
#    0.000    2.500    5.000    2.000    0.000    0.667 
#    0.000    3.333    0.000    0.500    0.000    0.000 
#    0.000    0.000    0.000    0.000    0.000    0.000 
#
# Total GULP energy -133674.539482 kJ/mol
# GULP energy per Si atom -5569.772478 kJ/mol
# Density = 1.634213 g / cm^3
# Si number density = 16.379411 Si / 1000 Ang^3
#
#
#
# Elastic Constant Matrix: (Units=GPa)
#
#
# Indices 1 2 3 4 5 6 
#
# 1 63.6787 33.3563 34.2131 0.0000 0.0000 0.0000
# 2 33.3563 79.9288 26.9953 0.0000 0.0000 0.0000
# 3 34.2131 26.9953 97.0263 0.0000 0.0000 0.0000
# 4 0.0000 0.0000 0.0000 -5.3901 0.0000 0.0000
# 5 0.0000 0.0000 0.0000 0.0000 6.6247 0.0000
# 6 0.0000 0.0000 0.0000 0.0000 0.0000 13.4297
#
#
#
# Elastic Compliance Matrix: (Units=1/GPa)
#
#
# Indices 1 2 3 4 5 6 
#
# 1 0.022848 -0.007521 -0.005964 0.000000 0.000000 0.000000
# 2 -0.007521 0.016284 -0.001879 0.000000 0.000000 0.000000
# 3 -0.005964 -0.001879 0.012932 0.000000 0.000000 0.000000
# 4 0.000000 0.000000 0.000000 -0.185525 0.000000 0.000000
# 5 0.000000 0.000000 0.000000 0.000000 0.150949 0.000000
# 6 0.000000 0.000000 0.000000 0.000000 0.000000 0.074462
#
#
# Mechanical properties :
#
#
# Convention : Reuss Voigt Hill
#
# Bulk Modulus (GPa) = 46.86649 47.75148 47.30898
# Shear Modulus (GPa) = 38.52398 12.67082 25.59740
#
# Velocity S-wave (km/s) = 4.85498 2.78435 3.95749
# Velocity P-wave (km/s) = 7.75261 6.28915 7.05891
#
# Compressibility (1/GPa) = 0.02133721
#
# Stress axis : x y z
#
# Youngs Moduli (GPa) = 43.76829 61.40913 77.32621
#
# Poissons Ratio (x) = 0.46183 0.46117
# Poissons Ratio (y) = 0.32916 0.14528
# Poissons Ratio (z) = 0.26103 0.11538
#
# Static dielectric constant tensor:
#      x y z
#    x 1.520900 0.000000 0.000000 
#    y 0.000000 1.617900 0.000000 
#    z 0.000000 0.000000 1.575610 
# 
# From -- ./inp_files/25366.got.cif
#   From: 2010.05.17/outbox.cif.g08.bks.cpg/sg42_13_cif.got.tgz:25366.got - 2010.06.03 19:03:34.
