data_PCOD9368456
_publ_section_title
;
Structure prediction by ZEFSAII (Michael W. Deem and Ramdas Pophale) SiO2 
 PCOD9368456
Probable space group: F M M 2
;
_chemical_formula_sum "Si O2"
_cell_formula_units_Z 112
_cell_length_a 21.674475
_cell_length_b 16.675436
_cell_length_c 14.416596
_cell_angle_alpha 90.000000
_cell_angle_beta 90.000000
_cell_angle_gamma 90.000000
_cell_volume 5210.609332
_symmetry_space_group_name_H-M "F M M 2"
_symmetry_group_IT_number 42
_symmetry_cell_setting 'orthorhombic'
loop_
_space_group_symop_operation_xyz
x,y,z
-x,-y,z
-x,y,z
x,-y,z
x,1/2+y,1/2+z
-x,1/2-y,1/2+z
-x,1/2+y,1/2+z
x,1/2-y,1/2+z
1/2+x,y,1/2+z
1/2-x,-y,1/2+z
1/2-x,y,1/2+z
1/2+x,-y,1/2+z
1/2+x,1/2+y,z
1/2-x,1/2-y,z
1/2-x,1/2+y,z
1/2+x,1/2-y,z
loop_
_atom_site_type_symbol
_atom_site_label
_atom_site_fract_x
_atom_site_fract_y
_atom_site_fract_z
Si Si1 0.324937 0.697261 0.498470
Si Si2 0.335869 0.877420 0.443659
Si Si3 0.567068 0.735749 0.638673
Si Si4 0.599863 0.089712 0.257883
Si Si5 0.927241 0.088132 0.112684
Si Si6 0.791119 0.589536 0.841786
Si Si7 0.232082 0.907720 0.654309
O O1 0.315544 0.785250 0.456459
O O2 0.383985 0.709548 0.562574
O O3 0.332786 0.641429 0.409198
O O4 0.276609 0.653410 0.569417
O O5 0.386435 0.893159 0.364602
O O6 0.372073 0.905345 0.536135
O O7 0.274229 0.914857 0.398113
O O8 0.500000 0.735432 0.594069
O O9 0.567885 0.667927 0.716672
O O10 0.579074 0.828091 0.668602
O O11 0.665655 0.087695 0.204359
O O12 0.572946 0.000000 0.245959
O O13 0.000000 0.089122 0.078470
O O14 0.920172 0.000000 0.157471
O O15 0.814824 0.500000 0.832053
O O16 0.777052 0.620108 0.737509
O O17 0.247208 0.000000 0.625585
#
# Coordination Sequence:
#
# PCOD9368456 Si02
#       7
#    16  16  16  16  16  16  16
#     4  10  19  33  54  80 114 152 191 241 298 358
#     4  10  19  32  50  79 111 142 182 233 293 354
#     4   9  19  34  53  81 115 153 198 245 297 355
#     4   9  17  31  51  74 105 143 182 231 288 342
#     4   9  17  31  52  76 104 140 182 232 289 347
#     4  10  19  33  54  78 108 149 195 242 295 351
#     4   8  16  32  52  73 101 141 188 238 289 341
#
# _framework density 21.494606999999998
#
# number of rings (size 3 to 8) (size 9 to 14) (size 15 to 20)
#    0.000    2.714    0.000    3.000    0.000    1.429 
#    0.000   10.000    0.000    3.429    0.000    0.000 
#    0.000   14.857    0.000    0.000    0.000    1.286 
#
# Total GULP energy -155920.747253 kJ/mol
# GULP energy per Si atom -5568.598116 kJ/mol
# Density = 2.144568 g / cm^3
# Si number density = 21.494607 Si / 1000 Ang^3
#
#
#
# Elastic Constant Matrix: (Units=GPa)
#
#
# Indices 1 2 3 4 5 6 
#
# 1 40.6442 22.7092 -0.7729 0.0000 0.0000 0.0000
# 2 22.7092 183.1148 66.1047 0.0000 0.0000 0.0000
# 3 -0.7729 66.1047 65.9247 0.0000 0.0000 0.0000
# 4 0.0000 0.0000 0.0000 19.0758 0.0000 0.0000
# 5 0.0000 0.0000 0.0000 0.0000 7.4022 0.0000
# 6 0.0000 0.0000 0.0000 0.0000 0.0000 21.2384
#
#
#
# Elastic Compliance Matrix: (Units=1/GPa)
#
#
# Indices 1 2 3 4 5 6 
#
# 1 0.027844 -0.005597 0.005939 0.000000 0.000000 0.000000
# 2 -0.005597 0.009685 -0.009777 0.000000 0.000000 0.000000
# 3 0.005939 -0.009777 0.025042 0.000000 0.000000 0.000000
# 4 0.000000 0.000000 0.000000 0.052422 0.000000 0.000000
# 5 0.000000 0.000000 0.000000 0.000000 0.135096 0.000000
# 6 0.000000 0.000000 0.000000 0.000000 0.000000 0.047084
#
#
# Mechanical properties :
#
#
# Convention : Reuss Voigt Hill
#
# Bulk Modulus (GPa) = 22.88307 51.75176 37.31741
# Shear Modulus (GPa) = 15.12358 22.98611 19.05485
#
# Velocity S-wave (km/s) = 2.65542 3.27370 2.98064
# Velocity P-wave (km/s) = 4.48004 6.19826 5.40782
#
# Compressibility (1/GPa) = 0.04370043
#
# Stress axis : x y z
#
# Youngs Moduli (GPa) = 35.91450 103.25735 39.93330
#
# Poissons Ratio (x) = 0.57793 -0.23715
# Poissons Ratio (y) = 0.20101 0.39041
# Poissons Ratio (z) = -0.21329 1.00951
#
# Static dielectric constant tensor:
#      x y z
#    x 1.832390 0.000000 0.000000 
#    y 0.000000 1.830560 0.000000 
#    z 0.000000 0.000000 1.759690 
# 
# From -- ./inp_files/17076.got.cif
#   From: 2010.05.17/outbox.cif.g08.bks.cpg/sg42_9_cif.got.tgz:17076.got - 2010.06.03 19:03:34.
