data_PCOD9368947
_publ_section_title
;
Structure prediction by ZEFSAII (Michael W. Deem and Ramdas Pophale) SiO2 
 PCOD9368947
Probable space group: F M M 2
;
_chemical_formula_sum "Si O2"
_cell_formula_units_Z 116
_cell_length_a 26.054421
_cell_length_b 9.069858
_cell_length_c 27.014802
_cell_angle_alpha 90.000000
_cell_angle_beta 90.000000
_cell_angle_gamma 90.000000
_cell_volume 6383.865125
_symmetry_space_group_name_H-M "F M M 2"
_symmetry_group_IT_number 42
_symmetry_cell_setting 'orthorhombic'
loop_
_space_group_symop_operation_xyz
x,y,z
-x,-y,z
-x,y,z
x,-y,z
x,1/2+y,1/2+z
-x,1/2-y,1/2+z
-x,1/2+y,1/2+z
x,1/2-y,1/2+z
1/2+x,y,1/2+z
1/2-x,-y,1/2+z
1/2-x,y,1/2+z
1/2+x,-y,1/2+z
1/2+x,1/2+y,z
1/2-x,1/2-y,z
1/2-x,1/2+y,z
1/2+x,1/2-y,z
loop_
_atom_site_type_symbol
_atom_site_label
_atom_site_fract_x
_atom_site_fract_y
_atom_site_fract_z
Si Si1 0.500000 0.500000 0.957605
Si Si2 0.302297 0.176483 0.420762
Si Si3 0.301196 0.325579 0.213101
Si Si4 0.658556 0.822536 0.821496
Si Si5 0.941783 0.324608 0.283515
Si Si6 0.100560 0.337933 0.489560
Si Si7 0.086160 0.675528 0.680901
Si Si8 0.940400 0.331750 0.080472
O O1 0.546561 0.373418 0.961730
O O2 0.203880 0.500000 0.416427
O O3 0.250000 0.250000 0.440448
O O4 0.313793 0.247984 0.367495
O O5 0.352839 0.204736 0.453927
O O6 0.293687 0.500000 0.212742
O O7 0.250000 0.250000 0.194749
O O8 0.313409 0.282348 0.269946
O O9 0.352941 0.293198 0.183280
O O10 0.600980 0.759399 0.815333
O O11 0.657709 0.000000 0.825739
O O12 0.931280 0.500000 0.283304
O O13 0.937639 0.260549 0.227794
O O14 0.000000 0.302987 0.301618
O O15 0.113981 0.500000 0.511602
O O16 0.091663 0.227443 0.534371
O O17 0.078305 0.500000 0.687414
O O18 0.065571 0.731680 0.628932
O O19 0.927372 0.500000 0.093265
O O20 0.000000 0.325384 0.065558
#
# Coordination Sequence:
#
# PCOD9368947 Si02
#       8
#     4  16  16  16  16  16  16  16
#     4   8  16  40  66  84 108 144 190 242 284 352
#     4  11  23  39  60  87 116 151 192 237 289 347
#     4   9  19  34  52  75 101 137 178 223 266 317
#     4  10  21  37  56  80 110 146 191 233 282 343
#     4  10  20  35  52  78 113 149 188 236 285 337
#     4   9  19  38  62  83 109 146 187 233 287 341
#     4  10  21  34  52  77 110 146 185 223 272 335
#     4  11  21  34  55  85 112 139 178 229 281 337
#
# _framework density 18.170809999999999
#
# number of rings (size 3 to 8) (size 9 to 14) (size 15 to 20)
#    0.414    1.655    0.690    3.724    0.000    9.103 
#    1.241    0.690    0.000    0.000    0.000    0.000 
#    0.000    0.000    0.000    0.000    0.000    0.000 
#
# Total GULP energy -161468.204188 kJ/mol
# GULP energy per Si atom -5567.869110 kJ/mol
# Density = 1.812945 g / cm^3
# Si number density = 18.170810 Si / 1000 Ang^3
#
#
#
# Elastic Constant Matrix: (Units=GPa)
#
#
# Indices 1 2 3 4 5 6 
#
# 1 106.3313 31.2795 22.5356 0.0000 0.0000 0.0000
# 2 31.2795 54.3649 20.4655 0.0000 0.0000 0.0000
# 3 22.5356 20.4655 36.8362 0.0000 0.0000 0.0000
# 4 0.0000 0.0000 0.0000 25.0845 0.0000 0.0000
# 5 0.0000 0.0000 0.0000 0.0000 12.3203 0.0000
# 6 0.0000 0.0000 0.0000 0.0000 0.0000 37.2568
#
#
#
# Elastic Compliance Matrix: (Units=1/GPa)
#
#
# Indices 1 2 3 4 5 6 
#
# 1 0.011854 -0.005172 -0.004379 0.000000 0.000000 0.000000
# 2 -0.005172 0.025515 -0.011012 0.000000 0.000000 0.000000
# 3 -0.004379 -0.011012 0.035944 0.000000 0.000000 0.000000
# 4 0.000000 0.000000 0.000000 0.039865 0.000000 0.000000
# 5 0.000000 0.000000 0.000000 0.000000 0.081167 0.000000
# 6 0.000000 0.000000 0.000000 0.000000 0.000000 0.026841
#
#
# Mechanical properties :
#
#
# Convention : Reuss Voigt Hill
#
# Bulk Modulus (GPa) = 31.06689 38.45484 34.76087
# Shear Modulus (GPa) = 18.31231 23.14909 20.73070
#
# Velocity S-wave (km/s) = 3.17801 3.57315 3.38135
# Velocity P-wave (km/s) = 5.53178 6.18321 5.86654
#
# Compressibility (1/GPa) = 0.03218861
#
# Stress axis : x y z
#
# Youngs Moduli (GPa) = 84.35951 39.19210 27.82119
#
# Poissons Ratio (x) = 0.20270 0.12182
# Poissons Ratio (y) = 0.43631 0.30636
# Poissons Ratio (z) = 0.36937 0.43157
#
# Static dielectric constant tensor:
#      x y z
#    x 1.653550 0.000000 0.000000 
#    y 0.000000 1.615300 0.000000 
#    z 0.000000 0.000000 1.606380 
# 
# From -- ./inp_files/33276.got.cif
#   From: 2010.05.17/outbox.cif.g08.bks.cpg/sg42_17_cif.got.tgz:33276.got - 2010.06.03 19:03:34.
