data_PCOD9368721
_publ_section_title
;
Structure prediction by ZEFSAII (Michael W. Deem and Ramdas Pophale) SiO2 
 PCOD9368721
Probable space group: F M M 2
;
_chemical_formula_sum "Si O2"
_cell_formula_units_Z 128
_cell_length_a 22.685802
_cell_length_b 22.761134
_cell_length_c 11.525605
_cell_angle_alpha 90.000000
_cell_angle_beta 90.000000
_cell_angle_gamma 90.000000
_cell_volume 5951.298920
_symmetry_space_group_name_H-M "F M M 2"
_symmetry_group_IT_number 42
_symmetry_cell_setting 'orthorhombic'
loop_
_space_group_symop_operation_xyz
x,y,z
-x,-y,z
-x,y,z
x,-y,z
x,1/2+y,1/2+z
-x,1/2-y,1/2+z
-x,1/2+y,1/2+z
x,1/2-y,1/2+z
1/2+x,y,1/2+z
1/2-x,-y,1/2+z
1/2-x,y,1/2+z
1/2+x,-y,1/2+z
1/2+x,1/2+y,z
1/2-x,1/2-y,z
1/2-x,1/2+y,z
1/2+x,1/2-y,z
loop_
_atom_site_type_symbol
_atom_site_label
_atom_site_fract_x
_atom_site_fract_y
_atom_site_fract_z
Si Si1 0.876335 0.433864 0.928570
Si Si2 0.744499 0.182538 0.160029
Si Si3 0.064120 0.739464 0.971660
Si Si4 0.067384 0.150403 0.255881
Si Si5 0.761306 0.934966 0.298952
Si Si6 0.392046 0.148588 0.144121
Si Si7 0.855673 0.163323 0.032473
Si Si8 0.877298 0.567284 0.356324
O O1 0.894176 0.500000 0.945998
O O2 0.906831 0.408194 0.814181
O O3 0.805826 0.431292 0.907201
O O4 0.894172 0.398083 0.040508
O O5 0.750000 0.250000 0.203257
O O6 0.768768 0.126608 0.232573
O O7 0.675298 0.171280 0.147571
O O8 0.786378 0.175990 0.046971
O O9 0.067210 0.695840 0.862883
O O10 0.000000 0.768703 0.971766
O O11 0.070807 0.702779 0.092023
O O12 0.116213 0.785350 0.956241
O O13 0.110838 0.169807 0.154580
O O14 0.000000 0.143660 0.215639
O O15 0.692127 0.936779 0.324604
O O16 0.775451 0.000000 0.243643
O O17 0.405374 0.112139 0.261370
O O18 0.874489 0.101254 0.978375
O O19 0.900312 0.500000 0.357042
#
# Coordination Sequence:
#
# PCOD9368721 Si02
#       8
#    16  16  16  16  16  16  16  16
#     4  10  19  36  62  87 119 162 213 260 305 364
#     4  11  21  36  59  95 131 164 205 264 325 370
#     4  10  23  42  65  89 121 167 216 263 314 378
#     4  10  23  41  61  90 122 160 216 266 316 373
#     4   9  19  37  59  89 127 174 212 249 308 387
#     4  10  21  40  62  93 126 166 208 261 311 377
#     4  12  23  39  63  93 127 169 205 260 323 383
#     4  10  23  40  62  93 130 168 207 252 315 389
#
# _framework density 21.507909999999999
#
# number of rings (size 3 to 8) (size 9 to 14) (size 15 to 20)
#    0.000    1.750    2.500    1.500    1.750    1.750 
#    0.000    1.250    0.000    3.750    0.000    0.000 
#    0.000    0.000    0.000    0.000    0.000    0.000 
#
# Total GULP energy -178446.126527 kJ/mol
# GULP energy per Si atom -5576.441454 kJ/mol
# Density = 2.145896 g / cm^3
# Si number density = 21.507910 Si / 1000 Ang^3
#
#
#
# Elastic Constant Matrix: (Units=GPa)
#
#
# Indices 1 2 3 4 5 6 
#
# 1 35.0459 0.6423 3.3788 0.0000 0.0000 0.0000
# 2 0.6423 133.6373 24.3105 0.0000 0.0000 0.0000
# 3 3.3788 24.3105 46.5665 0.0000 0.0000 0.0000
# 4 0.0000 0.0000 0.0000 23.6787 0.0000 0.0000
# 5 0.0000 0.0000 0.0000 0.0000 15.2494 0.0000
# 6 0.0000 0.0000 0.0000 0.0000 0.0000 -10.2426
#
#
#
# Elastic Compliance Matrix: (Units=1/GPa)
#
#
# Indices 1 2 3 4 5 6 
#
# 1 0.028744 0.000267 -0.002225 0.000000 0.000000 0.000000
# 2 0.000267 0.008271 -0.004337 0.000000 0.000000 0.000000
# 3 -0.002225 -0.004337 0.023900 0.000000 0.000000 0.000000
# 4 0.000000 0.000000 0.000000 0.042232 0.000000 0.000000
# 5 0.000000 0.000000 0.000000 0.000000 0.065576 0.000000
# 6 0.000000 0.000000 0.000000 0.000000 0.000000 -0.097632
#
#
# Mechanical properties :
#
#
# Convention : Reuss Voigt Hill
#
# Bulk Modulus (GPa) = 20.69370 30.21257 25.45313
# Shear Modulus (GPa) = 50.10533 18.19831 34.15182
#
# Velocity S-wave (km/s) = 4.83185 2.91197 3.98913
# Velocity P-wave (km/s) = 6.38525 5.03823 5.75131
#
# Compressibility (1/GPa) = 0.04832389
#
# Stress axis : x y z
#
# Youngs Moduli (GPa) = 34.79036 120.90961 41.84044
#
# Poissons Ratio (x) = -0.03223 0.09309
# Poissons Ratio (y) = -0.00927 0.18147
# Poissons Ratio (z) = 0.07740 0.52440
#
# Static dielectric constant tensor:
#      x y z
#    x 1.779730 0.000000 0.000000 
#    y 0.000000 1.826220 0.000000 
#    z 0.000000 0.000000 1.810200 
# 
# From -- ./inp_files/10370.got.cif
#   From: 2010.05.17/outbox.cif.g08.bks.cpg/sg42_6_cif.got.tgz:10370.got - 2010.06.03 19:03:34.
