data_PCOD9368172
_publ_section_title
;
Structure prediction by ZEFSAII (Michael W. Deem and Ramdas Pophale) SiO2 
 PCOD9368172
Probable space group: F M M 2
;
_chemical_formula_sum "Si O2"
_cell_formula_units_Z 116
_cell_length_a 14.370731
_cell_length_b 26.866953
_cell_length_c 13.126772
_cell_angle_alpha 90.000000
_cell_angle_beta 90.000000
_cell_angle_gamma 90.000000
_cell_volume 5068.217191
_symmetry_space_group_name_H-M "F M M 2"
_symmetry_group_IT_number 42
_symmetry_cell_setting 'orthorhombic'
loop_
_space_group_symop_operation_xyz
x,y,z
-x,-y,z
-x,y,z
x,-y,z
x,1/2+y,1/2+z
-x,1/2-y,1/2+z
-x,1/2+y,1/2+z
x,1/2-y,1/2+z
1/2+x,y,1/2+z
1/2-x,-y,1/2+z
1/2-x,y,1/2+z
1/2+x,-y,1/2+z
1/2+x,1/2+y,z
1/2-x,1/2-y,z
1/2-x,1/2+y,z
1/2+x,1/2-y,z
loop_
_atom_site_type_symbol
_atom_site_label
_atom_site_fract_x
_atom_site_fract_y
_atom_site_fract_z
Si Si1 0.108013 0.052730 0.197640
Si Si2 0.500000 0.500000 0.523282
Si Si3 0.646023 0.057018 0.374611
Si Si4 0.612912 0.323130 0.505713
Si Si5 0.396009 0.870122 0.553745
Si Si6 0.886972 0.352156 0.234041
Si Si7 0.114449 0.282782 0.420964
Si Si8 0.145208 0.429631 0.928761
O O1 0.105026 0.056571 0.318226
O O2 0.000000 0.051418 0.162975
O O3 0.152476 0.000000 0.168579
O O4 0.152205 0.100373 0.144806
O O5 0.581704 0.456761 0.511545
O O6 0.596527 0.090005 0.461547
O O7 0.645047 0.093460 0.276034
O O8 0.749244 0.053732 0.420131
O O9 0.612816 0.000000 0.357373
O O10 0.500000 0.321204 0.507161
O O11 0.642131 0.334531 0.621958
O O12 0.644142 0.272401 0.451103
O O13 0.642224 0.370982 0.442187
O O14 0.500000 0.855208 0.587886
O O15 0.351889 0.820976 0.508149
O O16 0.858617 0.309400 0.315410
O O17 0.000000 0.355124 0.235045
O O18 0.000000 0.283510 0.420977
#
# Coordination Sequence:
#
# PCOD9368172 Si02
#       8
#    16   4  16  16  16  16  16  16
#     4  10  17  31  52  77 104 141 184 235 288 340
#     4  12  20  44  56  76 118 158 196 260 298 344
#     4  11  22  37  55  83 115 156 196 236 290 358
#     4  10  20  36  61  89 112 154 202 238 293 357
#     4   9  19  34  57  82 112 146 189 238 290 343
#     4   9  20  39  59  86 124 156 193 244 293 348
#     4   8  16  34  58  83 114 149 190 238 278 336
#     4  12  22  37  58  80 115 152 194 249 300 351
#
# _framework density 22.887732
#
# number of rings (size 3 to 8) (size 9 to 14) (size 15 to 20)
#    0.000    2.069    2.759    1.655    0.000    3.862 
#    1.241    8.276    0.000    3.310    0.000    0.000 
#    0.000    0.000    0.000    0.000    0.000    0.000 
#
# Total GULP energy -161606.506608 kJ/mol
# GULP energy per Si atom -5572.638159 kJ/mol
# Density = 2.283564 g / cm^3
# Si number density = 22.887732 Si / 1000 Ang^3
#
#
#
# Elastic Constant Matrix: (Units=GPa)
#
#
# Indices 1 2 3 4 5 6 
#
# 1 73.3014 8.5445 -4.3741 0.0000 0.0000 0.0000
# 2 8.5445 223.5459 40.1645 0.0000 0.0000 0.0000
# 3 -4.3741 40.1645 51.1538 0.0000 0.0000 0.0000
# 4 0.0000 0.0000 0.0000 6.0321 0.0000 0.0000
# 5 0.0000 0.0000 0.0000 0.0000 29.1042 0.0000
# 6 0.0000 0.0000 0.0000 0.0000 0.0000 23.8537
#
#
#
# Elastic Compliance Matrix: (Units=1/GPa)
#
#
# Indices 1 2 3 4 5 6 
#
# 1 0.013854 -0.000864 0.001863 0.000000 0.000000 0.000000
# 2 -0.000864 0.005262 -0.004205 0.000000 0.000000 0.000000
# 3 0.001863 -0.004205 0.023010 0.000000 0.000000 0.000000
# 4 0.000000 0.000000 0.000000 0.165781 0.000000 0.000000
# 5 0.000000 0.000000 0.000000 0.000000 0.034359 0.000000
# 6 0.000000 0.000000 0.000000 0.000000 0.000000 0.041922
#
#
# Mechanical properties :
#
#
# Convention : Reuss Voigt Hill
#
# Bulk Modulus (GPa) = 28.00063 48.51898 38.25981
# Shear Modulus (GPa) = 16.52857 32.04240 24.28549
#
# Velocity S-wave (km/s) = 2.69022 3.74569 3.26094
# Velocity P-wave (km/s) = 4.68083 6.32073 5.56156
#
# Compressibility (1/GPa) = 0.03571348
#
# Stress axis : x y z
#
# Youngs Moduli (GPa) = 72.18002 190.04223 43.45894
#
# Poissons Ratio (x) = 0.16426 -0.08098
# Poissons Ratio (y) = 0.06239 0.18277
# Poissons Ratio (z) = -0.13449 0.79922
#
# Static dielectric constant tensor:
#      x y z
#    x 1.820560 0.000000 0.000000 
#    y 0.000000 1.857970 0.000000 
#    z 0.000000 0.000000 1.858610 
# 
# From -- ./inp_files/15400.got.cif
#   From: 2010.05.17/outbox.cif.g08.bks.cpg/sg42_8_cif.got.tgz:15400.got - 2010.06.03 19:03:34.
