data_PCOD9368651
_publ_section_title
;
Structure prediction by ZEFSAII (Michael W. Deem and Ramdas Pophale) SiO2 
 PCOD9368651
Probable space group: F M M 2
;
_chemical_formula_sum "Si O2"
_cell_formula_units_Z 64
_cell_length_a 14.491769
_cell_length_b 8.682877
_cell_length_c 28.985254
_cell_angle_alpha 90.000000
_cell_angle_beta 90.000000
_cell_angle_gamma 90.000000
_cell_volume 3647.221692
_symmetry_space_group_name_H-M "F M M 2"
_symmetry_group_IT_number 42
_symmetry_cell_setting 'orthorhombic'
loop_
_space_group_symop_operation_xyz
x,y,z
-x,-y,z
-x,y,z
x,-y,z
x,1/2+y,1/2+z
-x,1/2-y,1/2+z
-x,1/2+y,1/2+z
x,1/2-y,1/2+z
1/2+x,y,1/2+z
1/2-x,-y,1/2+z
1/2-x,y,1/2+z
1/2+x,-y,1/2+z
1/2+x,1/2+y,z
1/2-x,1/2-y,z
1/2-x,1/2+y,z
1/2+x,1/2-y,z
loop_
_atom_site_type_symbol
_atom_site_label
_atom_site_fract_x
_atom_site_fract_y
_atom_site_fract_z
Si Si1 0.000000 0.315448 0.000000
Si Si2 0.147400 0.184642 0.422407
Si Si3 0.500000 0.685461 0.852447
Si Si4 0.500000 0.186743 0.246733
Si Si5 0.500000 0.683154 0.101768
Si Si6 0.852593 0.314813 0.171265
O O1 0.000000 0.500000 0.007537
O O2 0.000000 0.231437 0.048576
O O3 0.911212 0.276782 0.968451
O O4 0.250000 0.250000 0.424034
O O5 0.088914 0.253037 0.379973
O O6 0.149008 0.000000 0.418380
O O7 0.500000 0.500000 0.853541
O O8 0.500000 0.739317 0.799391
O O9 0.589307 0.232927 0.216808
O O10 0.500000 0.000000 0.247750
O O11 0.500000 0.500000 0.106523
O O12 0.411305 0.752413 0.128115
O O13 0.851063 0.500000 0.169357
O O14 0.750000 0.250000 0.171846
#
# Coordination Sequence:
#
# PCOD9368651 Si02
#       6
#     8  16   8   8   8  16
#     4   9  20  38  56  76 107 142 178 222 267 314
#     4  10  21  37  56  80 109 142 180 220 265 316
#     4  10  19  35  57  81 110 142 178 220 268 317
#     4   8  18  35  55  79 108 142 178 220 266 315
#     4  11  22  36  56  82 109 140 178 218 267 320
#     4  10  20  37  57  79 109 142 179 221 266 315
#
# _framework density 17.547602000000001
#
# number of rings (size 3 to 8) (size 9 to 14) (size 15 to 20)
#    0.000    2.250    0.000    4.500    0.000    5.000 
#    0.000   12.500    0.000    0.000    0.000    0.000 
#    0.000    0.000    0.000    0.000    0.000    0.000 
#
# Total GULP energy -89313.572789 kJ/mol
# GULP energy per Si atom -5582.098299 kJ/mol
# Density = 1.750766 g / cm^3
# Si number density = 17.547602 Si / 1000 Ang^3
#
#
#
# Elastic Constant Matrix: (Units=GPa)
#
#
# Indices 1 2 3 4 5 6 
#
# 1 198.7483 64.7060 99.3113 0.0000 0.0000 0.0000
# 2 64.7060 82.0441 66.1873 0.0000 0.0000 0.0000
# 3 99.3113 66.1873 175.6875 0.0000 0.0000 0.0000
# 4 0.0000 0.0000 0.0000 25.1826 0.0000 0.0000
# 5 0.0000 0.0000 0.0000 0.0000 4.0492 0.0000
# 6 0.0000 0.0000 0.0000 0.0000 0.0000 30.3724
#
#
#
# Elastic Compliance Matrix: (Units=1/GPa)
#
#
# Indices 1 2 3 4 5 6 
#
# 1 0.007718 -0.003688 -0.002973 0.000000 0.000000 0.000000
# 2 -0.003688 0.019273 -0.005176 0.000000 0.000000 0.000000
# 3 -0.002973 -0.005176 0.009323 0.000000 0.000000 0.000000
# 4 0.000000 0.000000 0.000000 0.039710 0.000000 0.000000
# 5 0.000000 0.000000 0.000000 0.000000 0.246960 0.000000
# 6 0.000000 0.000000 0.000000 0.000000 0.000000 0.032925
#
#
# Mechanical properties :
#
#
# Convention : Reuss Voigt Hill
#
# Bulk Modulus (GPa) = 79.12265 101.87657 90.49961
# Shear Modulus (GPa) = 13.02774 27.00586 20.01680
#
# Velocity S-wave (km/s) = 2.72770 3.92727 3.38111
# Velocity P-wave (km/s) = 7.42352 8.87400 8.18097
#
# Compressibility (1/GPa) = 0.01263861
#
# Stress axis : x y z
#
# Youngs Moduli (GPa) = 129.56757 51.88604 107.26716
#
# Poissons Ratio (x) = 0.19138 0.31893
# Poissons Ratio (y) = 0.47790 0.55520
# Poissons Ratio (z) = 0.38523 0.26855
#
# Static dielectric constant tensor:
#      x y z
#    x 1.567860 0.000000 0.000000 
#    y 0.000000 1.588210 0.000000 
#    z 0.000000 0.000000 1.582130 
# 
# From -- ./inp_files/31016.got.cif
#   From: 2010.05.17/outbox.cif.g08.bks.cpg/sg42_16_cif.got.tgz:31016.got - 2010.06.03 19:03:34.
