data_PCOD9368317
_publ_section_title
;
Structure prediction by ZEFSAII (Michael W. Deem and Ramdas Pophale) SiO2 
 PCOD9368317
Probable space group: F M M 2
;
_chemical_formula_sum "Si O2"
_cell_formula_units_Z 120
_cell_length_a 26.072881
_cell_length_b 22.793676
_cell_length_c 11.487776
_cell_angle_alpha 90.000000
_cell_angle_beta 90.000000
_cell_angle_gamma 90.000000
_cell_volume 6827.148538
_symmetry_space_group_name_H-M "F M M 2"
_symmetry_group_IT_number 42
_symmetry_cell_setting 'orthorhombic'
loop_
_space_group_symop_operation_xyz
x,y,z
-x,-y,z
-x,y,z
x,-y,z
x,1/2+y,1/2+z
-x,1/2-y,1/2+z
-x,1/2+y,1/2+z
x,1/2-y,1/2+z
1/2+x,y,1/2+z
1/2-x,-y,1/2+z
1/2-x,y,1/2+z
1/2+x,-y,1/2+z
1/2+x,1/2+y,z
1/2-x,1/2-y,z
1/2-x,1/2+y,z
1/2+x,1/2-y,z
loop_
_atom_site_type_symbol
_atom_site_label
_atom_site_fract_x
_atom_site_fract_y
_atom_site_fract_z
Si Si1 0.657396 0.270227 0.045590
Si Si2 0.440959 0.216521 0.698413
Si Si3 0.350575 0.433205 0.737076
Si Si4 0.442411 0.647194 0.680216
Si Si5 0.224350 0.644641 0.387471
Si Si6 0.603689 0.338469 0.426536
Si Si7 0.750000 0.250000 0.221291
Si Si8 0.317249 0.932532 0.967452
O O1 0.604946 0.293103 0.105806
O O2 0.698709 0.248953 0.142175
O O3 0.687055 0.319227 0.972472
O O4 0.641008 0.215304 0.964956
O O5 0.500000 0.206134 0.658882
O O6 0.437010 0.286201 0.725132
O O7 0.428386 0.180854 0.814929
O O8 0.358077 0.500000 0.774848
O O9 0.402078 0.395334 0.739241
O O10 0.308579 0.400061 0.811768
O O11 0.332503 0.433446 0.602928
O O12 0.500000 0.627036 0.698524
O O13 0.430252 0.650581 0.541923
O O14 0.249925 0.692749 0.302542
O O15 0.266701 0.606409 0.452915
O O16 0.637606 0.396220 0.404250
O O17 0.311346 0.000000 0.927893
#
# Coordination Sequence:
#
# PCOD9368317 Si02
#       8
#    16  16  16  16  16  16   8  16
#     4  11  21  33  52  81 109 138 175 220 272 329
#     4  10  20  34  54  80 109 139 173 219 274 328
#     4  10  21  36  52  73 103 136 174 216 254 303
#     4   9  18  32  51  76 103 131 169 216 262 310
#     4  12  21  34  53  76 106 142 175 211 265 324
#     4  10  18  33  53  77 105 136 172 214 267 322
#     4  12  22  34  54  82 112 140 172 220 278 330
#     4  10  21  35  52  76 105 138 178 220 259 309
#
# _framework density 17.576884
#
# number of rings (size 3 to 8) (size 9 to 14) (size 15 to 20)
#    0.000    1.600    0.000    8.400    0.000    0.800 
#    0.000    0.667    0.000    2.000    0.000    0.000 
#    0.000    0.000    0.000    0.000    0.000    0.000 
#
# Total GULP energy -167522.797607 kJ/mol
# GULP energy per Si atom -5584.093254 kJ/mol
# Density = 1.753688 g / cm^3
# Si number density = 17.576884 Si / 1000 Ang^3
#
#
#
# Elastic Constant Matrix: (Units=GPa)
#
#
# Indices 1 2 3 4 5 6 
#
# 1 98.8750 25.0065 10.8994 -0.0001 0.0000 0.0000
# 2 25.0065 69.0950 9.7973 -0.0001 0.0000 0.0000
# 3 10.8994 9.7973 21.8929 -0.0001 0.0000 0.0000
# 4 -0.0001 -0.0001 -0.0001 21.5419 0.0000 0.0000
# 5 0.0000 0.0000 0.0000 0.0000 20.4156 0.0000
# 6 0.0000 0.0000 0.0000 0.0000 0.0000 8.4028
#
#
#
# Elastic Compliance Matrix: (Units=1/GPa)
#
#
# Indices 1 2 3 4 5 6 
#
# 1 0.011470 -0.003568 -0.004114 0.000000 0.000000 0.000000
# 2 -0.003568 0.016563 -0.005636 0.000000 0.000000 0.000000
# 3 -0.004114 -0.005636 0.050247 0.000000 0.000000 0.000000
# 4 0.000000 0.000000 0.000000 0.046421 0.000000 0.000000
# 5 0.000000 0.000000 0.000000 0.000000 0.048982 0.000000
# 6 0.000000 0.000000 0.000000 0.000000 0.000000 0.119008
#
#
# Mechanical properties :
#
#
# Convention : Reuss Voigt Hill
#
# Bulk Modulus (GPa) = 19.36288 31.25215 25.30752
# Shear Modulus (GPa) = 14.85704 19.68270 17.26987
#
# Velocity S-wave (km/s) = 2.91049 3.34998 3.13794
# Velocity P-wave (km/s) = 4.72595 5.72556 5.24960
#
# Compressibility (1/GPa) = 0.05164521
#
# Stress axis : x y z
#
# Youngs Moduli (GPa) = 87.18744 60.37483 19.90169
#
# Poissons Ratio (x) = 0.21540 0.08187
# Poissons Ratio (y) = 0.31106 0.11217
# Poissons Ratio (z) = 0.35865 0.34027
#
# Static dielectric constant tensor:
#      x y z
#    x 1.612300 0.000000 0.000000 
#    y 0.000000 1.587340 0.000000 
#    z 0.000000 0.000000 1.593980 
# 
# From -- ./inp_files/9814.got.cif
#   From: 2010.05.17/outbox.cif.g08.bks.cpg/sg42_5_cif.got.tgz:9814.got - 2010.06.03 19:03:34.
