data_PCOD9368158
_publ_section_title
;
Structure prediction by ZEFSAII (Michael W. Deem and Ramdas Pophale) SiO2 
 PCOD9368158
Probable space group: F M M 2
;
_chemical_formula_sum "Si O2"
_cell_formula_units_Z 128
_cell_length_a 20.279720
_cell_length_b 22.112091
_cell_length_c 14.196326
_cell_angle_alpha 90.000000
_cell_angle_beta 90.000000
_cell_angle_gamma 90.000000
_cell_volume 6366.016079
_symmetry_space_group_name_H-M "F M M 2"
_symmetry_group_IT_number 42
_symmetry_cell_setting 'orthorhombic'
loop_
_space_group_symop_operation_xyz
x,y,z
-x,-y,z
-x,y,z
x,-y,z
x,1/2+y,1/2+z
-x,1/2-y,1/2+z
-x,1/2+y,1/2+z
x,1/2-y,1/2+z
1/2+x,y,1/2+z
1/2-x,-y,1/2+z
1/2-x,y,1/2+z
1/2+x,-y,1/2+z
1/2+x,1/2+y,z
1/2-x,1/2-y,z
1/2-x,1/2+y,z
1/2+x,1/2-y,z
loop_
_atom_site_type_symbol
_atom_site_label
_atom_site_fract_x
_atom_site_fract_y
_atom_site_fract_z
Si Si1 0.792570 0.193158 0.211520
Si Si2 0.254256 0.565613 0.684236
Si Si3 0.574352 0.123582 0.330413
Si Si4 0.293894 0.569863 0.905586
Si Si5 0.072153 0.180634 0.511485
Si Si6 0.925517 0.756690 0.717058
Si Si7 0.217449 0.187340 0.431771
Si Si8 0.904200 0.567426 0.126623
O O1 0.750000 0.250000 0.173064
O O2 0.781411 0.128552 0.164383
O O3 0.869159 0.207884 0.215230
O O4 0.770922 0.188089 0.319803
O O5 0.223295 0.500000 0.662529
O O6 0.269016 0.565587 0.796855
O O7 0.325168 0.569033 0.634831
O O8 0.500000 0.122871 0.369964
O O9 0.631090 0.095053 0.394948
O O10 0.590844 0.191619 0.294696
O O11 0.573136 0.088096 0.230598
O O12 0.291220 0.500000 0.941340
O O13 0.250821 0.622257 0.956691
O O14 0.076604 0.214130 0.612663
O O15 0.139539 0.190598 0.454944
O O16 0.072847 0.111405 0.545138
O O17 0.000000 0.195866 0.468964
O O18 0.000000 0.736065 0.733948
O O19 0.250000 0.250000 0.467682
O O20 0.925456 0.500000 0.109130
#
# Coordination Sequence:
#
# PCOD9368158 Si02
#       8
#    16  16  16  16  16  16  16  16
#     4  10  17  29  52  74  93 123 164 204 242 289
#     4   8  15  27  45  71  99 124 155 200 248 287
#     4   9  15  25  45  73 102 126 153 200 258 303
#     4   9  17  30  47  69  98 129 161 198 238 284
#     4  10  21  34  47  68  98 128 161 202 246 294
#     4   9  18  31  48  73  99 122 156 205 254 295
#     4  10  21  35  49  68  97 133 167 197 240 295
#     4   9  16  27  44  68  98 127 156 196 249 303
#
# _framework density 20.106767000000001
#
# number of rings (size 3 to 8) (size 9 to 14) (size 15 to 20)
#    0.000    2.750    0.000    6.000    0.000    4.250 
#    0.000    0.625    0.000    0.375    0.000    3.500 
#    0.000    1.000    0.000    0.000    0.000    0.000 
#
# Total GULP energy -178373.371052 kJ/mol
# GULP energy per Si atom -5574.167845 kJ/mol
# Density = 2.006100 g / cm^3
# Si number density = 20.106767 Si / 1000 Ang^3
#
#
#
# Elastic Constant Matrix: (Units=GPa)
#
#
# Indices 1 2 3 4 5 6 
#
# 1 117.6279 92.7748 8.5595 0.0000 0.0000 0.0000
# 2 92.7748 162.9191 12.8932 0.0000 0.0000 0.0000
# 3 8.5595 12.8932 52.8156 0.0000 0.0000 0.0000
# 4 0.0000 0.0000 0.0000 -13.6726 0.0000 0.0000
# 5 0.0000 0.0000 0.0000 0.0000 28.3304 0.0000
# 6 0.0000 0.0000 0.0000 0.0000 0.0000 21.9468
#
#
#
# Elastic Compliance Matrix: (Units=1/GPa)
#
#
# Indices 1 2 3 4 5 6 
#
# 1 0.015440 -0.008763 -0.000363 0.000000 0.000000 0.000000
# 2 -0.008763 0.011233 -0.001322 0.000000 0.000000 0.000000
# 3 -0.000363 -0.001322 0.019315 0.000000 0.000000 0.000000
# 4 0.000000 0.000000 0.000000 -0.073139 0.000000 0.000000
# 5 0.000000 0.000000 0.000000 0.000000 0.035298 0.000000
# 6 0.000000 0.000000 0.000000 0.000000 0.000000 0.045565
#
#
# Mechanical properties :
#
#
# Convention : Reuss Voigt Hill
#
# Bulk Modulus (GPa) = 39.85426 62.42419 51.13922
# Shear Modulus (GPa) = 60.26124 21.92991 41.09558
#
# Velocity S-wave (km/s) = 5.48048 3.30612 4.52582
# Velocity P-wave (km/s) = 7.74028 6.75926 7.26635
#
# Compressibility (1/GPa) = 0.02509142
#
# Stress axis : x y z
#
# Youngs Moduli (GPa) = 64.76833 89.02339 51.77238
#
# Poissons Ratio (x) = 0.78015 0.01879
# Poissons Ratio (y) = 0.56759 0.06844
# Poissons Ratio (z) = 0.02350 0.11768
#
# Static dielectric constant tensor:
#      x y z
#    x 1.481920 0.000000 0.000000 
#    y 0.000000 1.764040 0.000000 
#    z 0.000000 0.000000 1.728450 
# 
# From -- ./inp_files/21971.got.cif
#   From: 2010.05.17/outbox.cif.g08.bks.cpg/sg42_11_cif.got.tgz:21971.got - 2010.06.03 19:03:34.
