data_PCOD9368629
_publ_section_title
;
Structure prediction by ZEFSAII (Michael W. Deem and Ramdas Pophale) SiO2 
 PCOD9368629
Probable space group: F M M 2
;
_chemical_formula_sum "Si O2"
_cell_formula_units_Z 112
_cell_length_a 20.346136
_cell_length_b 21.764040
_cell_length_c 10.407607
_cell_angle_alpha 90.000000
_cell_angle_beta 90.000000
_cell_angle_gamma 90.000000
_cell_volume 4608.635312
_symmetry_space_group_name_H-M "F M M 2"
_symmetry_group_IT_number 42
_symmetry_cell_setting 'orthorhombic'
loop_
_space_group_symop_operation_xyz
x,y,z
-x,-y,z
-x,y,z
x,-y,z
x,1/2+y,1/2+z
-x,1/2-y,1/2+z
-x,1/2+y,1/2+z
x,1/2-y,1/2+z
1/2+x,y,1/2+z
1/2-x,-y,1/2+z
1/2-x,y,1/2+z
1/2+x,-y,1/2+z
1/2+x,1/2+y,z
1/2-x,1/2-y,z
1/2-x,1/2+y,z
1/2+x,1/2-y,z
loop_
_atom_site_type_symbol
_atom_site_label
_atom_site_fract_x
_atom_site_fract_y
_atom_site_fract_z
Si Si1 0.925275 0.640630 0.116880
Si Si2 0.815400 0.926836 0.167876
Si Si3 0.186308 0.719319 0.254811
Si Si4 0.425050 0.780462 0.900668
Si Si5 0.571765 0.157159 0.551119
Si Si6 0.737132 0.392164 0.908762
Si Si7 0.902971 0.935018 0.833553
O O1 0.861803 0.675275 0.175290
O O2 0.919818 0.575451 0.185378
O O3 0.000000 0.663789 0.147924
O O4 0.920405 0.653447 0.966787
O O5 0.875770 0.882944 0.127864
O O6 0.793808 0.912398 0.312493
O O7 0.827443 0.000000 0.152969
O O8 0.760334 0.906056 0.060628
O O9 0.250000 0.750000 0.189905
O O10 0.134443 0.769141 0.305523
O O11 0.216911 0.677817 0.370898
O O12 0.500000 0.770758 0.854899
O O13 0.415055 0.727621 0.011340
O O14 0.500000 0.153764 0.611704
O O15 0.569783 0.122121 0.413636
O O16 0.674290 0.431237 0.860119
O O17 0.927500 0.000000 0.881461
#
# Coordination Sequence:
#
# PCOD9368629 Si02
#       7
#    16  16  16  16  16  16  16
#     4  10  21  36  57  85 119 158 194 251 327 388
#     4  11  21  37  60  89 125 165 208 262 329 393
#     4  11  23  36  58  84 117 159 207 263 309 381
#     4  10  20  38  59  82 120 161 205 261 321 381
#     4  10  19  34  59  88 118 161 214 272 323 372
#     4  10  22  38  58  88 127 167 211 261 324 388
#     4  10  19  35  60  91 124 161 209 266 320 379
#
# _framework density 24.302205000000001
#
# number of rings (size 3 to 8) (size 9 to 14) (size 15 to 20)
#    0.000    1.714    4.286    3.429    2.000    4.857 
#    0.000    0.000    0.000    0.000    0.000    5.000 
#    0.000   24.000    0.000    0.000    0.000    0.000 
#
# Total GULP energy -156317.904359 kJ/mol
# GULP energy per Si atom -5582.782299 kJ/mol
# Density = 2.424689 g / cm^3
# Si number density = 24.302205 Si / 1000 Ang^3
#
#
#
# Elastic Constant Matrix: (Units=GPa)
#
#
# Indices 1 2 3 4 5 6 
#
# 1 151.2748 10.7976 31.6638 0.0000 0.0000 0.0000
# 2 10.7976 90.6918 27.0671 0.0000 0.0000 0.0000
# 3 31.6638 27.0671 55.2777 0.0000 0.0000 0.0000
# 4 0.0000 0.0000 0.0000 23.9860 0.0000 0.0000
# 5 0.0000 0.0000 0.0000 0.0000 19.4997 0.0000
# 6 0.0000 0.0000 0.0000 0.0000 0.0000 -5.1708
#
#
#
# Elastic Compliance Matrix: (Units=1/GPa)
#
#
# Indices 1 2 3 4 5 6 
#
# 1 0.007527 0.000458 -0.004536 0.000000 0.000000 0.000000
# 2 0.000458 0.012941 -0.006599 0.000000 0.000000 0.000000
# 3 -0.004536 -0.006599 0.023920 0.000000 0.000000 0.000000
# 4 0.000000 0.000000 0.000000 0.041691 0.000000 0.000000
# 5 0.000000 0.000000 0.000000 0.000000 0.051283 0.000000
# 6 0.000000 0.000000 0.000000 0.000000 0.000000 -0.193395
#
#
# Mechanical properties :
#
#
# Convention : Reuss Voigt Hill
#
# Bulk Modulus (GPa) = 43.41376 48.47791 45.94584
# Shear Modulus (GPa) = -185.18413 22.84402 -81.17006
#
# Velocity S-wave (km/s) = -8.73876 3.06926 -5.78557
# Velocity P-wave (km/s) = 9.16070 5.70542 5.06787
#
# Compressibility (1/GPa) = 0.02303417
#
# Stress axis : x y z
#
# Youngs Moduli (GPa) = 132.85118 77.27175 41.80635
#
# Poissons Ratio (x) = -0.03535 0.18962
# Poissons Ratio (y) = -0.06078 0.27588
# Poissons Ratio (z) = 0.60258 0.50991
#
# Static dielectric constant tensor:
#      x y z
#    x 1.962990 0.000000 0.000000 
#    y 0.000000 1.907040 0.000000 
#    z 0.000000 0.000000 2.013140 
# 
# From -- ./inp_files/9688.got.cif
#   From: 2010.05.17/outbox.cif.g08.bks.cpg/sg42_5_cif.got.tgz:9688.got - 2010.06.03 19:03:34.
