data_PCOD9368291
_publ_section_title
;
Structure prediction by ZEFSAII (Michael W. Deem and Ramdas Pophale) SiO2 
 PCOD9368291
Probable space group: F M M 2
;
_chemical_formula_sum "Si O2"
_cell_formula_units_Z 128
_cell_length_a 15.858703
_cell_length_b 18.341726
_cell_length_c 21.925937
_cell_angle_alpha 90.000000
_cell_angle_beta 90.000000
_cell_angle_gamma 90.000000
_cell_volume 6377.728525
_symmetry_space_group_name_H-M "F M M 2"
_symmetry_group_IT_number 42
_symmetry_cell_setting 'orthorhombic'
loop_
_space_group_symop_operation_xyz
x,y,z
-x,-y,z
-x,y,z
x,-y,z
x,1/2+y,1/2+z
-x,1/2-y,1/2+z
-x,1/2+y,1/2+z
x,1/2-y,1/2+z
1/2+x,y,1/2+z
1/2-x,-y,1/2+z
1/2-x,y,1/2+z
1/2+x,-y,1/2+z
1/2+x,1/2+y,z
1/2-x,1/2-y,z
1/2-x,1/2+y,z
1/2+x,1/2-y,z
loop_
_atom_site_type_symbol
_atom_site_label
_atom_site_fract_x
_atom_site_fract_y
_atom_site_fract_z
Si Si1 0.670341 0.919433 0.075290
Si Si2 0.095878 0.078870 0.228482
Si Si3 0.348920 0.736040 0.263863
Si Si4 0.150929 0.231076 0.398178
Si Si5 0.855342 0.123229 0.098919
Si Si6 0.783108 0.917317 0.432323
Si Si7 0.595168 0.632334 0.960743
Si Si8 0.903839 0.722768 0.133999
O O1 0.763443 0.911755 0.103210
O O2 0.617554 0.853022 0.102264
O O3 0.634959 0.000000 0.087318
O O4 0.688953 0.912521 0.003246
O O5 0.140329 0.149906 0.253795
O O6 0.094363 0.090490 0.155422
O O7 0.000000 0.080304 0.250784
O O8 0.133879 0.000000 0.242582
O O9 0.250000 0.750000 0.262371
O O10 0.380657 0.754770 0.331423
O O11 0.390867 0.777192 0.207048
O O12 0.250000 0.250000 0.404819
O O13 0.157322 0.143691 0.401921
O O14 0.104098 0.280343 0.448179
O O15 0.848046 0.210316 0.109366
O O16 0.894043 0.113151 0.032112
O O17 0.681532 0.899907 0.430055
O O18 0.796227 0.000000 0.410899
O O19 0.500000 0.609968 0.941381
O O20 0.000000 0.743705 0.121001
#
# Coordination Sequence:
#
# PCOD9368291 Si02
#       8
#    16  16  16  16  16  16  16  16
#     4  10  20  34  54  79 108 141 172 207 255 313
#     4  10  20  33  50  75 106 133 160 205 263 315
#     4  10  20  35  54  76 101 136 181 220 257 306
#     4   9  19  35  54  75 101 139 182 219 257 306
#     4  10  18  32  51  76 105 136 175 212 254 309
#     4   9  19  35  54  78 108 140 175 216 260 311
#     4  10  19  31  52  80 107 137 174 218 268 314
#     4  11  21  33  53  78 105 136 171 217 267 311
#
# _framework density 20.069839999999999
#
# number of rings (size 3 to 8) (size 9 to 14) (size 15 to 20)
#    0.000    2.125    0.000    5.250    0.000    4.500 
#    0.000    0.000    0.000    4.125    0.000    5.250 
#    0.000    0.000    0.000    0.000    0.000    0.000 
#
# Total GULP energy -178386.633701 kJ/mol
# GULP energy per Si atom -5574.582303 kJ/mol
# Density = 2.002416 g / cm^3
# Si number density = 20.069840 Si / 1000 Ang^3
#
#
#
# Elastic Constant Matrix: (Units=GPa)
#
#
# Indices 1 2 3 4 5 6 
#
# 1 28.2213 10.8668 5.1107 0.0000 0.0000 0.0000
# 2 10.8668 103.9088 1.3752 0.0000 0.0000 0.0000
# 3 5.1107 1.3752 31.3156 0.0000 0.0000 0.0000
# 4 0.0000 0.0000 0.0000 10.2129 0.0000 0.0000
# 5 0.0000 0.0000 0.0000 0.0000 3.3800 0.0000
# 6 0.0000 0.0000 0.0000 0.0000 0.0000 12.0484
#
#
#
# Elastic Compliance Matrix: (Units=1/GPa)
#
#
# Indices 1 2 3 4 5 6 
#
# 1 0.038028 -0.003897 -0.006035 0.000000 0.000000 0.000000
# 2 -0.003897 0.010029 0.000196 0.000000 0.000000 0.000000
# 3 -0.006035 0.000196 0.032909 0.000000 0.000000 0.000000
# 4 0.000000 0.000000 0.000000 0.097916 0.000000 0.000000
# 5 0.000000 0.000000 0.000000 0.000000 0.295859 0.000000
# 6 0.000000 0.000000 0.000000 0.000000 0.000000 0.082998
#
#
# Mechanical properties :
#
#
# Convention : Reuss Voigt Hill
#
# Bulk Modulus (GPa) = 16.26206 22.01679 19.13943
# Shear Modulus (GPa) = 8.36527 14.86780 11.61653
#
# Velocity S-wave (km/s) = 2.04380 2.72472 2.40845
# Velocity P-wave (km/s) = 3.69998 4.57086 4.15828
#
# Compressibility (1/GPa) = 0.06149282
#
# Stress axis : x y z
#
# Youngs Moduli (GPa) = 26.29663 99.71297 30.38658
#
# Poissons Ratio (x) = 0.38859 0.18338
# Poissons Ratio (y) = 0.10248 -0.00594
# Poissons Ratio (z) = 0.15870 -0.01950
#
# Static dielectric constant tensor:
#      x y z
#    x 1.731660 0.000000 0.000000 
#    y 0.000000 1.749490 0.000000 
#    z 0.000000 0.000000 1.722820 
# 
# From -- ./inp_files/30024.got.cif
#   From: 2010.05.17/outbox.cif.g08.bks.cpg/sg42_16_cif.got.tgz:30024.got - 2010.06.03 19:03:34.
