data_PCOD9368611
_publ_section_title
;
Structure prediction by ZEFSAII (Michael W. Deem and Ramdas Pophale) SiO2 
 PCOD9368611
Probable space group: F M M 2
;
_chemical_formula_sum "Si O2"
_cell_formula_units_Z 96
_cell_length_a 14.245086
_cell_length_b 15.604996
_cell_length_c 18.898089
_cell_angle_alpha 90.000000
_cell_angle_beta 90.000000
_cell_angle_gamma 90.000000
_cell_volume 4200.941435
_symmetry_space_group_name_H-M "F M M 2"
_symmetry_group_IT_number 42
_symmetry_cell_setting 'orthorhombic'
loop_
_space_group_symop_operation_xyz
x,y,z
-x,-y,z
-x,y,z
x,-y,z
x,1/2+y,1/2+z
-x,1/2-y,1/2+z
-x,1/2+y,1/2+z
x,1/2-y,1/2+z
1/2+x,y,1/2+z
1/2-x,-y,1/2+z
1/2-x,y,1/2+z
1/2+x,-y,1/2+z
1/2+x,1/2+y,z
1/2-x,1/2-y,z
1/2-x,1/2+y,z
1/2+x,1/2-y,z
loop_
_atom_site_type_symbol
_atom_site_label
_atom_site_fract_x
_atom_site_fract_y
_atom_site_fract_z
Si Si1 0.398883 0.378059 0.257100
Si Si2 0.740724 0.404634 0.647127
Si Si3 0.696196 0.896257 0.400375
Si Si4 0.397050 0.895665 0.542431
Si Si5 0.891989 0.826631 0.756526
Si Si6 0.101568 0.597325 0.923089
O O1 0.500000 0.401622 0.225836
O O2 0.314564 0.411927 0.211445
O O3 0.390973 0.275665 0.258884
O O4 0.398912 0.407578 0.337723
O O5 0.710154 0.500000 0.624741
O O6 0.807121 0.364341 0.586871
O O7 0.654912 0.355249 0.682762
O O8 0.619150 0.877584 0.459866
O O9 0.666482 0.859683 0.324514
O O10 0.795587 0.862974 0.432602
O O11 0.704389 0.000000 0.393687
O O12 0.500000 0.864098 0.564623
O O13 0.395992 0.000000 0.550700
O O14 0.000000 0.856555 0.762058
O O15 0.102998 0.500000 0.951764
O O16 0.000000 0.636570 0.943890
#
# Coordination Sequence:
#
# PCOD9368611 Si02
#       6
#    16  16  16  16  16  16
#     4  10  20  34  55  80 112 146 183 231 278 329
#     4  11  21  35  57  84 111 145 190 237 281 329
#     4  10  19  34  57  85 115 146 185 236 286 335
#     4   9  19  35  56  83 112 144 188 240 287 329
#     4  11  23  36  55  82 116 154 187 227 284 343
#     4   9  17  30  52  83 112 141 183 232 281 329
#
# _framework density 22.852018999999999
#
# number of rings (size 3 to 8) (size 9 to 14) (size 15 to 20)
#    0.000    2.000    1.667    2.500    0.000    3.667 
#    0.000    0.833    7.333    3.000    0.000    0.000 
#    0.000    0.000    0.000    0.000    0.000    0.000 
#
# Total GULP energy -133928.331414 kJ/mol
# GULP energy per Si atom -5580.347142 kJ/mol
# Density = 2.280001 g / cm^3
# Si number density = 22.852019 Si / 1000 Ang^3
#
#
#
# Elastic Constant Matrix: (Units=GPa)
#
#
# Indices 1 2 3 4 5 6 
#
# 1 146.5557 24.3832 29.9150 0.0000 0.0000 0.0000
# 2 24.3832 56.3782 9.3622 0.0000 0.0000 0.0000
# 3 29.9150 9.3622 78.6589 0.0000 0.0000 0.0000
# 4 0.0000 0.0000 0.0000 37.1129 0.0000 0.0000
# 5 0.0000 0.0000 0.0000 0.0000 27.5594 0.0000
# 6 0.0000 0.0000 0.0000 0.0000 0.0000 37.7421
#
#
#
# Elastic Compliance Matrix: (Units=1/GPa)
#
#
# Indices 1 2 3 4 5 6 
#
# 1 0.007853 -0.002959 -0.002635 0.000000 0.000000 0.000000
# 2 -0.002959 0.019210 -0.001161 0.000000 0.000000 0.000000
# 3 -0.002635 -0.001161 0.013853 0.000000 0.000000 0.000000
# 4 0.000000 0.000000 0.000000 0.026945 0.000000 0.000000
# 5 0.000000 0.000000 0.000000 0.000000 0.036285 0.000000
# 6 0.000000 0.000000 0.000000 0.000000 0.000000 0.026496
#
#
# Mechanical properties :
#
#
# Convention : Reuss Voigt Hill
#
# Bulk Modulus (GPa) = 36.48666 45.43483 40.96075
# Shear Modulus (GPa) = 32.61845 35.01169 33.81507
#
# Velocity S-wave (km/s) = 3.78216 3.91846 3.85091
# Velocity P-wave (km/s) = 5.92234 6.35592 6.14296
#
# Compressibility (1/GPa) = 0.02740728
#
# Stress axis : x y z
#
# Youngs Moduli (GPa) = 127.33297 52.05640 72.18509
#
# Poissons Ratio (x) = 0.15404 0.19018
# Poissons Ratio (y) = 0.37678 0.08381
# Poissons Ratio (z) = 0.33547 0.06044
#
# Static dielectric constant tensor:
#      x y z
#    x 1.926040 0.000000 0.000000 
#    y 0.000000 1.841750 0.000000 
#    z 0.000000 0.000000 1.828350 
# 
# From -- ./inp_files/25093.got.cif
#   From: 2010.05.17/outbox.cif.g08.bks.cpg/sg42_13_cif.got.tgz:25093.got - 2010.06.03 19:03:34.
