data_PCOD9368352
_publ_section_title
;
Structure prediction by ZEFSAII (Michael W. Deem and Ramdas Pophale) SiO2 
 PCOD9368352
Probable space group: F M M 2
;
_chemical_formula_sum "Si O2"
_cell_formula_units_Z 72
_cell_length_a 13.912480
_cell_length_b 13.973189
_cell_length_c 17.047601
_cell_angle_alpha 90.000000
_cell_angle_beta 90.000000
_cell_angle_gamma 90.000000
_cell_volume 3314.082828
_symmetry_space_group_name_H-M "F M M 2"
_symmetry_group_IT_number 42
_symmetry_cell_setting 'orthorhombic'
loop_
_space_group_symop_operation_xyz
x,y,z
-x,-y,z
-x,y,z
x,-y,z
x,1/2+y,1/2+z
-x,1/2-y,1/2+z
-x,1/2+y,1/2+z
x,1/2-y,1/2+z
1/2+x,y,1/2+z
1/2-x,-y,1/2+z
1/2-x,y,1/2+z
1/2+x,-y,1/2+z
1/2+x,1/2+y,z
1/2-x,1/2-y,z
1/2-x,1/2+y,z
1/2+x,1/2-y,z
loop_
_atom_site_type_symbol
_atom_site_label
_atom_site_fract_x
_atom_site_fract_y
_atom_site_fract_z
Si Si1 0.111218 0.000000 0.987790
Si Si2 0.388782 0.500000 0.734968
Si Si3 0.141788 0.709393 0.861378
Si Si4 0.139245 0.713804 0.528745
Si Si5 0.718362 0.500000 0.361379
Si Si6 0.139245 0.286196 0.194012
O O1 0.204127 0.000000 0.931305
O O2 0.124802 0.899945 0.031557
O O3 0.000000 0.000000 0.956300
O O4 0.500000 0.500000 0.766457
O O5 0.295876 0.500000 0.791455
O O6 0.375197 0.600054 0.691201
O O7 0.250000 0.750000 0.861378
O O8 0.153619 0.594978 0.861378
O O9 0.101504 0.748389 0.778602
O O10 0.101504 0.748389 0.944155
O O11 0.250000 0.750000 0.527844
O O12 0.100104 0.750001 0.611378
O O13 0.250000 0.250000 0.194912
#
# Coordination Sequence:
#
# PCOD9368352 Si02
#       6
#     8   8  16  16   8  16
#     4  12  23  36  59  90 120 154 196 246 297 347
#     4  12  23  36  59  90 120 154 196 246 297 347
#     4  10  18  34  58  87 122 146 196 258 286 330
#     4  10  21  37  61  86 119 156 201 240 292 349
#     4  12  19  36  58  88 119 152 200 244 295 346
#     4  10  21  37  61  86 119 156 201 240 292 349
#
# _framework density 21.725467999999999
#
# number of rings (size 3 to 8) (size 9 to 14) (size 15 to 20)
#    0.000    1.333    8.889    0.333    0.000    6.222 
#    0.000    0.000    0.000    0.000    0.000    3.111 
#    0.000    0.000    0.000    0.000    0.000    0.000 
#
# Total GULP energy -100231.967105 kJ/mol
# GULP energy per Si atom -5568.442617 kJ/mol
# Density = 2.167602 g / cm^3
# Si number density = 21.725468 Si / 1000 Ang^3
#
#
#
# Elastic Constant Matrix: (Units=GPa)
#
#
# Indices 1 2 3 4 5 6 
#
# 1 130.0278 23.7866 20.7785 0.0000 0.0000 0.0000
# 2 23.7866 256.4273 99.1802 0.0000 0.0000 0.0000
# 3 20.7785 99.1802 236.2668 0.0000 0.0000 0.0000
# 4 0.0000 0.0000 0.0000 74.3243 0.0000 0.0000
# 5 0.0000 0.0000 0.0000 0.0000 -44.4436 0.0000
# 6 0.0000 0.0000 0.0000 0.0000 0.0000 313.3494
#
#
#
# Elastic Compliance Matrix: (Units=1/GPa)
#
#
# Indices 1 2 3 4 5 6 
#
# 1 0.007865 -0.000552 -0.000460 0.000000 0.000000 0.000000
# 2 -0.000552 0.004694 -0.001922 0.000000 0.000000 0.000000
# 3 -0.000460 -0.001922 0.005080 0.000000 0.000000 0.000000
# 4 0.000000 0.000000 0.000000 0.013455 0.000000 0.000000
# 5 0.000000 0.000000 0.000000 0.000000 -0.022500 0.000000
# 6 0.000000 0.000000 0.000000 0.000000 0.000000 0.003191
#
#
# Mechanical properties :
#
#
# Convention : Reuss Voigt Hill
#
# Bulk Modulus (GPa) = 84.95023 101.13470 93.04247
# Shear Modulus (GPa) = 231.73697 100.57781 166.15739
#
# Velocity S-wave (km/s) = 10.33913 6.81142 8.75480
# Velocity P-wave (km/s) = 13.48023 10.41695 12.04636
#
# Compressibility (1/GPa) = 0.01177160
#
# Stress axis : x y z
#
# Youngs Moduli (GPa) = 127.14395 213.02325 196.85736
#
# Poissons Ratio (x) = 0.11751 0.09058
# Poissons Ratio (y) = 0.07013 0.37837
# Poissons Ratio (z) = 0.05850 0.40945
#
# Static dielectric constant tensor:
#      x y z
#    x 1.792410 0.000000 0.000000 
#    y 0.000000 1.535910 0.000000 
#    z 0.000000 0.000000 1.851390 
# 
# From -- ./inp_files/20565.got.cif
#   From: 2010.05.17/outbox.cif.g08.bks.cpg/sg42_11_cif.got.tgz:20565.got - 2010.06.03 19:03:34.
