data_PCOD9368669
_publ_section_title
;
Structure prediction by ZEFSAII (Michael W. Deem and Ramdas Pophale) SiO2 
 PCOD9368669
Probable space group: F M M 2
;
_chemical_formula_sum "Si O2"
_cell_formula_units_Z 100
_cell_length_a 30.104703
_cell_length_b 7.869392
_cell_length_c 20.505520
_cell_angle_alpha 90.000000
_cell_angle_beta 90.000000
_cell_angle_gamma 90.000000
_cell_volume 4857.874753
_symmetry_space_group_name_H-M "F M M 2"
_symmetry_group_IT_number 42
_symmetry_cell_setting 'orthorhombic'
loop_
_space_group_symop_operation_xyz
x,y,z
-x,-y,z
-x,y,z
x,-y,z
x,1/2+y,1/2+z
-x,1/2-y,1/2+z
-x,1/2+y,1/2+z
x,1/2-y,1/2+z
1/2+x,y,1/2+z
1/2-x,-y,1/2+z
1/2-x,y,1/2+z
1/2+x,-y,1/2+z
1/2+x,1/2+y,z
1/2-x,1/2-y,z
1/2-x,1/2+y,z
1/2+x,1/2-y,z
loop_
_atom_site_type_symbol
_atom_site_label
_atom_site_fract_x
_atom_site_fract_y
_atom_site_fract_z
Si Si1 0.932766 0.187684 0.593260
Si Si2 0.500000 0.000000 0.615003
Si Si3 0.701473 0.203427 0.934377
Si Si4 0.702458 0.796138 0.785002
Si Si5 0.397547 0.700341 0.957448
Si Si6 0.448188 0.705604 0.825177
Si Si7 0.383599 0.701173 0.209842
O O1 0.920326 0.206812 0.517764
O O2 0.891317 0.207154 0.641788
O O3 0.962368 0.348724 0.612053
O O4 0.951662 0.000000 0.604541
O O5 0.750000 0.250000 0.962650
O O6 0.701673 0.268564 0.859363
O O7 0.655391 0.273658 0.962188
O O8 0.698068 0.000000 0.934778
O O9 0.750000 0.750000 0.755693
O O10 0.660121 0.732276 0.746200
O O11 0.699222 0.000000 0.788540
O O12 0.407657 0.500000 0.963056
O O13 0.418632 0.758342 0.888140
O O14 0.500000 0.758912 0.830561
O O15 0.447666 0.500000 0.823024
O O16 0.424821 0.770683 0.759474
O O17 0.378541 0.500000 0.199204
#
# Coordination Sequence:
#
# PCOD9368669 Si02
#       7
#    16   4  16  16  16  16  16
#     4  12  27  45  71  96 131 178 223 268 331 395
#     4  12  26  52  68  98 128 176 226 274 324 394
#     4  10  19  35  59  93 127 167 217 265 328 394
#     4   9  19  34  59  90 128 168 214 268 327 389
#     4  11  22  41  65  93 133 173 214 277 327 387
#     4  10  23  38  60  90 125 165 214 267 328 390
#     4  11  22  42  62  92 133 172 213 275 326 387
#
# _framework density 20.585132000000002
#
# number of rings (size 3 to 8) (size 9 to 14) (size 15 to 20)
#    0.000    1.440    3.200    1.680    2.240    2.880 
#    0.000    0.800    0.000    1.920    0.000    0.000 
#    0.000    0.000    0.000    0.000    0.000    0.000 
#
# Total GULP energy -139336.982860 kJ/mol
# GULP energy per Si atom -5573.479314 kJ/mol
# Density = 2.053828 g / cm^3
# Si number density = 20.585132 Si / 1000 Ang^3
#
#
#
# Elastic Constant Matrix: (Units=GPa)
#
#
# Indices 1 2 3 4 5 6 
#
# 1 84.7602 7.0060 -11.1816 0.0000 0.0000 0.0000
# 2 7.0060 96.3564 4.5689 0.0001 0.0000 0.0000
# 3 -11.1816 4.5689 49.3814 0.0000 0.0000 0.0000
# 4 0.0000 0.0001 0.0000 10.4421 0.0000 0.0000
# 5 0.0000 0.0000 0.0000 0.0000 -115.0302 0.0002
# 6 0.0000 0.0000 0.0000 0.0000 0.0002 -59.1546
#
#
#
# Elastic Compliance Matrix: (Units=1/GPa)
#
#
# Indices 1 2 3 4 5 6 
#
# 1 0.012262 -0.001028 0.002872 0.000000 0.000000 0.000000
# 2 -0.001028 0.010510 -0.001205 0.000000 0.000000 0.000000
# 3 0.002872 -0.001205 0.021012 0.000000 0.000000 0.000000
# 4 0.000000 0.000000 0.000000 0.095766 0.000000 0.000000
# 5 0.000000 0.000000 0.000000 0.000000 -0.008693 0.000000
# 6 0.000000 0.000000 0.000000 0.000000 0.000000 -0.016905
#
#
# Mechanical properties :
#
#
# Convention : Reuss Voigt Hill
#
# Bulk Modulus (GPa) = 22.19191 25.69829 23.94510
# Shear Modulus (GPa) = 39.15592 -17.40823 10.87385
#
# Velocity S-wave (km/s) = 4.36609 -2.91120 2.30084
# Velocity P-wave (km/s) = 6.01839 1.10042 4.32619
#
# Compressibility (1/GPa) = 0.04506146
#
# Stress axis : x y z
#
# Youngs Moduli (GPa) = 81.55439 95.14746 47.59132
#
# Poissons Ratio (x) = 0.09778 -0.13666
# Poissons Ratio (y) = 0.08381 0.05735
# Poissons Ratio (z) = -0.23419 0.11466
#
# Static dielectric constant tensor:
#      x y z
#    x 1.828530 0.000000 0.000000 
#    y 0.000000 1.725060 0.000000 
#    z 0.000000 0.000000 1.713500 
# 
# From -- ./inp_files/23792.got.cif
#   From: 2010.05.17/outbox.cif.g08.bks.cpg/sg42_12_cif.got.tgz:23792.got - 2010.06.03 19:03:34.
