data_PCOD9368694
_publ_section_title
;
Structure prediction by ZEFSAII (Michael W. Deem and Ramdas Pophale) SiO2 
 PCOD9368694
Probable space group: F M M 2
;
_chemical_formula_sum "Si O2"
_cell_formula_units_Z 100
_cell_length_a 14.138012
_cell_length_b 15.309014
_cell_length_c 25.977433
_cell_angle_alpha 90.000000
_cell_angle_beta 90.000000
_cell_angle_gamma 90.000000
_cell_volume 5622.530235
_symmetry_space_group_name_H-M "F M M 2"
_symmetry_group_IT_number 42
_symmetry_cell_setting 'orthorhombic'
loop_
_space_group_symop_operation_xyz
x,y,z
-x,-y,z
-x,y,z
x,-y,z
x,1/2+y,1/2+z
-x,1/2-y,1/2+z
-x,1/2+y,1/2+z
x,1/2-y,1/2+z
1/2+x,y,1/2+z
1/2-x,-y,1/2+z
1/2-x,y,1/2+z
1/2+x,-y,1/2+z
1/2+x,1/2+y,z
1/2-x,1/2-y,z
1/2-x,1/2+y,z
1/2+x,1/2-y,z
loop_
_atom_site_type_symbol
_atom_site_label
_atom_site_fract_x
_atom_site_fract_y
_atom_site_fract_z
Si Si1 0.227495 0.902573 0.051810
Si Si2 0.250000 0.250000 0.304580
Si Si3 0.109033 0.145994 0.629840
Si Si4 0.390967 0.145994 0.648239
Si Si5 0.604958 0.317770 0.389039
Si Si6 0.250000 0.250000 0.973498
Si Si7 0.000000 0.000000 0.389039
Si Si8 0.272505 0.597427 0.726268
O O1 0.324575 0.882540 0.082847
O O2 0.148321 0.896945 0.096230
O O3 0.230732 0.000000 0.030039
O O4 0.213849 0.827999 0.009847
O O5 0.333606 0.287986 0.340101
O O6 0.286151 0.172001 0.268232
O O7 0.119266 0.250000 0.639039
O O8 0.148321 0.103055 0.681848
O O9 0.000000 0.125354 0.620380
O O10 0.500000 0.125354 0.657698
O O11 0.324575 0.117460 0.695232
O O12 0.500000 0.275635 0.389039
O O13 0.666394 0.287986 0.437978
O O14 0.581232 0.421078 0.389039
O O15 0.269268 0.500000 0.748040
#
# Coordination Sequence:
#
# PCOD9368694 Si02
#       8
#    16   8  16  16  16   8   4  16
#     4  11  22  35  58  85 117 159 202 239 297 362
#     4  11  22  41  60  92 124 155 192 259 318 352
#     4  10  19  36  55  80 120 163 200 250 293 340
#     4  10  19  36  55  80 120 163 200 250 293 340
#     4   9  23  42  66  90 120 146 196 256 309 367
#     4  11  22  41  60  92 124 155 192 259 318 352
#     4   8  20  48  72  96 108 156 208 252 308 380
#     4  11  22  35  58  85 117 159 202 239 297 362
#
# _framework density 17.785587
#
# number of rings (size 3 to 8) (size 9 to 14) (size 15 to 20)
#    0.480    1.280    3.200    2.880    2.240    5.120 
#    0.000    0.000    0.000    0.960    0.000    0.000 
#    0.000    0.000    0.000    0.000    0.000    0.000 
#
# Total GULP energy -139218.237441 kJ/mol
# GULP energy per Si atom -5568.729498 kJ/mol
# Density = 1.774511 g / cm^3
# Si number density = 17.785587 Si / 1000 Ang^3
#
#
#
# Elastic Constant Matrix: (Units=GPa)
#
#
# Indices 1 2 3 4 5 6 
#
# 1 84.4724 33.4989 17.0638 0.0000 0.0000 0.0000
# 2 33.4989 151.9935 50.4355 0.0000 0.0000 0.0000
# 3 17.0638 50.4355 81.7441 0.0000 0.0000 0.0000
# 4 0.0000 0.0000 0.0000 -0.5866 0.0000 0.0000
# 5 0.0000 0.0000 0.0000 0.0000 1.5015 0.0000
# 6 0.0000 0.0000 0.0000 0.0000 0.0000 -56.6125
#
#
#
# Elastic Compliance Matrix: (Units=1/GPa)
#
#
# Indices 1 2 3 4 5 6 
#
# 1 0.013064 -0.002483 -0.001195 0.000000 0.000000 0.000000
# 2 -0.002483 0.008745 -0.004877 0.000000 0.000000 0.000000
# 3 -0.001195 -0.004877 0.015492 0.000000 0.000000 0.000000
# 4 0.000000 0.000000 0.000000 -1.704831 0.000000 0.000000
# 5 0.000000 0.000000 0.000000 0.000000 0.665997 0.000000
# 6 0.000000 0.000000 0.000000 0.000000 0.000000 -0.017664
#
#
# Mechanical properties :
#
#
# Convention : Reuss Voigt Hill
#
# Bulk Modulus (GPa) = 49.52802 57.80071 53.66437
# Shear Modulus (GPa) = -5.02333 3.34127 -0.84103
#
# Velocity S-wave (km/s) = -1.68241 1.37212 -0.68840
# Velocity P-wave (km/s) = 4.91261 5.92279 5.44119
#
# Compressibility (1/GPa) = 0.02019059
#
# Stress axis : x y z
#
# Youngs Moduli (GPa) = 76.54518 114.35377 64.54933
#
# Poissons Ratio (x) = 0.28390 0.07716
# Poissons Ratio (y) = 0.19004 0.31482
# Poissons Ratio (z) = 0.09150 0.55773
#
# Static dielectric constant tensor:
#      x y z
#    x 1.597180 0.000000 0.000000 
#    y 0.000000 1.623450 0.000000 
#    z 0.000000 0.000000 1.591230 
# 
# From -- ./inp_files/32585.got.cif
#   From: 2010.05.17/outbox.cif.g08.bks.cpg/sg42_17_cif.got.tgz:32585.got - 2010.06.03 19:03:34.
