data_PCOD9368162
_publ_section_title
;
Structure prediction by ZEFSAII (Michael W. Deem and Ramdas Pophale) SiO2 
 PCOD9368162
Probable space group: F M M 2
;
_chemical_formula_sum "Si O2"
_cell_formula_units_Z 128
_cell_length_a 14.637256
_cell_length_b 21.490363
_cell_length_c 20.314560
_cell_angle_alpha 90.000000
_cell_angle_beta 90.000000
_cell_angle_gamma 90.000000
_cell_volume 6390.146872
_symmetry_space_group_name_H-M "F M M 2"
_symmetry_group_IT_number 42
_symmetry_cell_setting 'orthorhombic'
loop_
_space_group_symop_operation_xyz
x,y,z
-x,-y,z
-x,y,z
x,-y,z
x,1/2+y,1/2+z
-x,1/2-y,1/2+z
-x,1/2+y,1/2+z
x,1/2-y,1/2+z
1/2+x,y,1/2+z
1/2-x,-y,1/2+z
1/2-x,y,1/2+z
1/2+x,-y,1/2+z
1/2+x,1/2+y,z
1/2-x,1/2-y,z
1/2-x,1/2+y,z
1/2+x,1/2-y,z
loop_
_atom_site_type_symbol
_atom_site_label
_atom_site_fract_x
_atom_site_fract_y
_atom_site_fract_z
Si Si1 0.111922 0.814370 0.161960
Si Si2 0.111874 0.569784 0.748586
Si Si3 0.895270 0.886289 0.388513
Si Si4 0.610127 0.768735 0.524052
Si Si5 0.105237 0.308065 0.239345
Si Si6 0.645152 0.258425 0.877361
Si Si7 0.611805 0.930988 0.170708
Si Si8 0.111654 0.375710 0.031595
O O1 0.141255 0.876653 0.198669
O O2 0.141705 0.808474 0.086319
O O3 0.142516 0.753410 0.202885
O O4 0.000000 0.814475 0.162410
O O5 0.136500 0.500000 0.729417
O O6 0.145895 0.585422 0.822392
O O7 0.000000 0.572947 0.750987
O O8 0.896514 0.811076 0.380763
O O9 0.854487 0.899412 0.460463
O O10 0.000000 0.908509 0.390965
O O11 0.500000 0.769697 0.523420
O O12 0.639342 0.786594 0.450498
O O13 0.637917 0.696974 0.536761
O O14 0.105646 0.297352 0.317317
O O15 0.143930 0.374032 0.216347
O O16 0.000000 0.309696 0.216839
O O17 0.750000 0.250000 0.860384
O O18 0.500000 0.932549 0.172497
O O19 0.638263 0.913764 0.095817
O O20 0.643283 0.000000 0.189116
O O21 0.000000 0.376334 0.029273
#
# Coordination Sequence:
#
# PCOD9368162 Si02
#       8
#    16  16  16  16  16  16  16  16
#     4   9  15  26  48  72  95 125 157 190 234 287
#     4   9  16  25  42  73 104 125 153 197 241 283
#     4   9  16  28  47  68  97 131 159 191 242 298
#     4   9  16  29  49  70  92 124 161 195 241 293
#     4  10  17  30  51  72  97 129 158 190 239 290
#     4  11  21  31  46  71  98 124 161 208 242 278
#     4   9  16  25  42  72 103 126 155 198 240 279
#     4   8  13  22  39  64  92 122 154 187 230 284
#
# _framework density 20.030839
#
# number of rings (size 3 to 8) (size 9 to 14) (size 15 to 20)
#    0.000    2.750    2.500    1.875    0.000    0.500 
#    0.000    3.125    0.000    1.500    0.000    3.500 
#    0.000    0.000    0.000    0.000    0.000    0.000 
#
# Total GULP energy -178469.883357 kJ/mol
# GULP energy per Si atom -5577.183855 kJ/mol
# Density = 1.998525 g / cm^3
# Si number density = 20.030839 Si / 1000 Ang^3
#
#
#
# Elastic Constant Matrix: (Units=GPa)
#
#
# Indices 1 2 3 4 5 6 
#
# 1 41.6169 -1.9219 -3.8230 0.0000 0.0000 0.0000
# 2 -1.9219 138.4549 83.5418 0.0000 0.0000 0.0000
# 3 -3.8230 83.5418 114.9178 0.0000 0.0000 0.0000
# 4 0.0000 0.0000 0.0000 23.2850 0.0000 0.0000
# 5 0.0000 0.0000 0.0000 0.0000 4.9905 0.0000
# 6 0.0000 0.0000 0.0000 0.0000 0.0000 -9.1956
#
#
#
# Elastic Compliance Matrix: (Units=1/GPa)
#
#
# Indices 1 2 3 4 5 6 
#
# 1 0.024108 -0.000266 0.000995 0.000000 0.000000 0.000000
# 2 -0.000266 0.012869 -0.009364 0.000000 0.000000 0.000000
# 3 0.000995 -0.009364 0.015543 0.000000 0.000000 0.000000
# 4 0.000000 0.000000 0.000000 0.042946 0.000000 0.000000
# 5 0.000000 0.000000 0.000000 0.000000 0.200380 0.000000
# 6 0.000000 0.000000 0.000000 0.000000 0.000000 -0.108748
#
#
# Mechanical properties :
#
#
# Convention : Reuss Voigt Hill
#
# Bulk Modulus (GPa) = 28.36902 50.06482 39.21692
# Shear Modulus (GPa) = 23.13552 18.29550 20.71551
#
# Velocity S-wave (km/s) = 3.40221 3.02547 3.21936
# Velocity P-wave (km/s) = 5.44305 6.10351 5.78271
#
# Compressibility (1/GPa) = 0.03524971
#
# Stress axis : x y z
#
# Youngs Moduli (GPa) = 41.48028 77.70477 64.33922
#
# Poissons Ratio (x) = 0.02066 -0.06404
# Poissons Ratio (y) = 0.01103 0.60250
# Poissons Ratio (z) = -0.04129 0.72766
#
# Static dielectric constant tensor:
#      x y z
#    x 1.730580 0.000000 0.000000 
#    y 0.000000 1.698360 0.000000 
#    z 0.000000 0.000000 1.725140 
# 
# From -- ./inp_files/26250.got.cif
#   From: 2010.05.17/outbox.cif.g08.bks.cpg/sg42_14_cif.got.tgz:26250.got - 2010.06.03 19:03:34.
