data_PCOD9368597
_publ_section_title
;
Structure prediction by ZEFSAII (Michael W. Deem and Ramdas Pophale) SiO2 
 PCOD9368597
Probable space group: F M M 2
;
_chemical_formula_sum "Si O2"
_cell_formula_units_Z 116
_cell_length_a 29.658054
_cell_length_b 9.918410
_cell_length_c 20.505192
_cell_angle_alpha 90.000000
_cell_angle_beta 90.000000
_cell_angle_gamma 90.000000
_cell_volume 6031.822440
_symmetry_space_group_name_H-M "F M M 2"
_symmetry_group_IT_number 42
_symmetry_cell_setting 'orthorhombic'
loop_
_space_group_symop_operation_xyz
x,y,z
-x,-y,z
-x,y,z
x,-y,z
x,1/2+y,1/2+z
-x,1/2-y,1/2+z
-x,1/2+y,1/2+z
x,1/2-y,1/2+z
1/2+x,y,1/2+z
1/2-x,-y,1/2+z
1/2-x,y,1/2+z
1/2+x,-y,1/2+z
1/2+x,1/2+y,z
1/2-x,1/2-y,z
1/2-x,1/2+y,z
1/2+x,1/2-y,z
loop_
_atom_site_type_symbol
_atom_site_label
_atom_site_fract_x
_atom_site_fract_y
_atom_site_fract_z
Si Si1 0.392228 0.838339 0.382650
Si Si2 0.500000 0.500000 0.672595
Si Si3 0.683268 0.652027 0.688163
Si Si4 0.919526 0.717396 0.162924
Si Si5 0.946305 0.351118 0.787264
Si Si6 0.291833 0.157453 0.339919
Si Si7 0.892262 0.840859 0.028621
Si Si8 0.209630 0.339631 0.570311
O O1 0.421634 0.761437 0.329690
O O2 0.339451 0.805803 0.372618
O O3 0.406698 0.801458 0.456005
O O4 0.396532 0.000000 0.374556
O O5 0.460263 0.615546 0.671863
O O6 0.696807 0.500000 0.666714
O O7 0.629058 0.659239 0.684194
O O8 0.699653 0.670171 0.762004
O O9 0.701000 0.769977 0.641005
O O10 0.929698 0.837757 0.213030
O O11 0.914725 0.762205 0.088043
O O12 0.935161 0.500000 0.812622
O O13 0.000000 0.332933 0.789766
O O14 0.250000 0.250000 0.358962
O O15 0.282655 0.000000 0.354264
O O16 0.838126 0.823178 0.034079
O O17 0.901061 0.000000 0.037035
O O18 0.218976 0.500000 0.573360
O O19 0.250000 0.250000 0.540881
#
# Coordination Sequence:
#
# PCOD9368597 Si02
#       8
#    16   4  16  16  16  16  16  16
#     4  10  22  43  66  86 122 167 213 255 306 374
#     4  12  24  36  66 104 124 160 206 254 324 376
#     4  10  19  34  56  84 119 156 200 249 304 355
#     4  11  21  39  64  92 124 156 202 256 307 371
#     4  11  24  41  63  95 126 159 200 258 316 368
#     4  10  21  35  56  86 120 157 203 254 303 363
#     4   9  21  42  63  86 119 167 207 252 312 372
#     4  10  20  34  55  85 118 156 205 252 304 363
#
# _framework density 19.231335000000001
#
# number of rings (size 3 to 8) (size 9 to 14) (size 15 to 20)
#    0.000    1.793    2.759    1.241    0.966    3.586 
#    2.483    0.000    0.000    0.000    0.000    0.000 
#    0.000    0.000    0.000    0.000    0.000    0.000 
#
# Total GULP energy -161623.818374 kJ/mol
# GULP energy per Si atom -5573.235116 kJ/mol
# Density = 1.918756 g / cm^3
# Si number density = 19.231335 Si / 1000 Ang^3
#
#
#
# Elastic Constant Matrix: (Units=GPa)
#
#
# Indices 1 2 3 4 5 6 
#
# 1 82.4711 31.7409 10.8677 0.0000 0.0000 0.0000
# 2 31.7409 82.6506 27.5283 0.0000 0.0000 0.0000
# 3 10.8677 27.5283 72.7938 0.0000 0.0000 0.0000
# 4 0.0000 0.0000 0.0000 4.3723 0.0000 0.0000
# 5 0.0000 0.0000 0.0000 0.0000 0.1506 0.0000
# 6 0.0000 0.0000 0.0000 0.0000 0.0000 38.5594
#
#
#
# Elastic Compliance Matrix: (Units=1/GPa)
#
#
# Indices 1 2 3 4 5 6 
#
# 1 0.014229 -0.005442 -0.000066 0.000000 0.000000 0.000000
# 2 -0.005442 0.015924 -0.005210 0.000000 0.000000 0.000000
# 3 -0.000066 -0.005210 0.015717 0.000000 0.000000 0.000000
# 4 0.000000 0.000000 0.000000 0.228711 0.000001 0.000000
# 5 0.000000 0.000000 0.000000 0.000001 6.638295 0.000000
# 6 0.000000 0.000000 0.000000 0.000000 0.000000 0.025934
#
#
# Mechanical properties :
#
#
# Convention : Reuss Voigt Hill
#
# Bulk Modulus (GPa) = 40.92594 42.02104 41.47349
# Shear Modulus (GPa) = 0.71753 19.80172 10.25962
#
# Velocity S-wave (km/s) = 0.61148 3.21231 2.31223
# Velocity P-wave (km/s) = 4.67179 5.97129 5.36106
#
# Compressibility (1/GPa) = 0.02443438
#
# Stress axis : x y z
#
# Youngs Moduli (GPa) = 70.28005 62.79702 63.62379
#
# Poissons Ratio (x) = 0.34176 0.00421
# Poissons Ratio (y) = 0.38249 0.33145
# Poissons Ratio (z) = 0.00465 0.32714
#
# Static dielectric constant tensor:
#      x y z
#    x 1.659740 0.000000 0.000000 
#    y 0.000000 1.676680 0.000000 
#    z 0.000000 0.000000 1.675580 
# 
# From -- ./inp_files/30890.got.cif
#   From: 2010.05.17/outbox.cif.g08.bks.cpg/sg42_16_cif.got.tgz:30890.got - 2010.06.03 19:03:34.
