data_PCOD9368141
_publ_section_title
;
Structure prediction by ZEFSAII (Michael W. Deem and Ramdas Pophale) SiO2 
 PCOD9368141
Probable space group: F M M 2
;
_chemical_formula_sum "Si O2"
_cell_formula_units_Z 80
_cell_length_a 18.528422
_cell_length_b 8.638939
_cell_length_c 27.253596
_cell_angle_alpha 90.000000
_cell_angle_beta 90.000000
_cell_angle_gamma 90.000000
_cell_volume 4362.371574
_symmetry_space_group_name_H-M "F M M 2"
_symmetry_group_IT_number 42
_symmetry_cell_setting 'orthorhombic'
loop_
_space_group_symop_operation_xyz
x,y,z
-x,-y,z
-x,y,z
x,-y,z
x,1/2+y,1/2+z
-x,1/2-y,1/2+z
-x,1/2+y,1/2+z
x,1/2-y,1/2+z
1/2+x,y,1/2+z
1/2-x,-y,1/2+z
1/2-x,y,1/2+z
1/2+x,-y,1/2+z
1/2+x,1/2+y,z
1/2-x,1/2-y,z
1/2-x,1/2+y,z
1/2+x,1/2-y,z
loop_
_atom_site_type_symbol
_atom_site_label
_atom_site_fract_x
_atom_site_fract_y
_atom_site_fract_z
Si Si1 0.167838 0.684489 0.706930
Si Si2 0.667977 0.814258 0.307249
Si Si3 0.915498 0.686745 0.512263
Si Si4 0.668839 0.313455 0.915045
Si Si5 0.831228 0.684209 0.105167
O O1 0.170019 0.500000 0.706542
O O2 0.250000 0.750000 0.706966
O O3 0.134019 0.744053 0.757916
O O4 0.136690 0.747489 0.655888
O O5 0.750000 0.750000 0.308855
O O6 0.638072 0.771545 0.361058
O O7 0.669633 0.000000 0.302565
O O8 0.907388 0.500000 0.516327
O O9 0.878404 0.736583 0.461276
O O10 0.876680 0.764126 0.558332
O O11 0.000000 0.722671 0.511709
O O12 0.672883 0.500000 0.915778
O O13 0.750000 0.250000 0.919733
O O14 0.827281 0.500000 0.109090
O O15 0.750000 0.750000 0.099518
#
# Coordination Sequence:
#
# PCOD9368141 Si02
#       5
#    16  16  16  16  16
#     4  10  17  27  45  71 101 131 163 201 251 301
#     4   9  15  25  42  68 100 129 160 200 247 296
#     4  10  21  37  54  73 101 136 172 211 257 305
#     4   9  18  31  50  75 101 132 167 205 249 297
#     4  11  21  34  53  77 104 133 170 212 255 302
#
# _framework density 18.338649
#
# number of rings (size 3 to 8) (size 9 to 14) (size 15 to 20)
#    0.000    2.200    0.000    7.200    0.000    3.600 
#    0.000    0.000    0.000    1.200    0.000    2.800 
#    0.000    0.000    0.000    0.000    0.000    0.000 
#
# Total GULP energy -111516.738294 kJ/mol
# GULP energy per Si atom -5575.836915 kJ/mol
# Density = 1.829691 g / cm^3
# Si number density = 18.338649 Si / 1000 Ang^3
#
#
#
# Elastic Constant Matrix: (Units=GPa)
#
#
# Indices 1 2 3 4 5 6 
#
# 1 42.6403 31.5384 59.2077 0.0000 0.0000 0.0000
# 2 31.5384 99.3190 78.4089 0.0000 0.0000 0.0000
# 3 59.2077 78.4089 235.4069 0.0000 0.0000 0.0000
# 4 0.0000 0.0000 0.0000 35.4202 0.0000 0.0000
# 5 0.0000 0.0000 0.0000 0.0000 -5.5119 0.0000
# 6 0.0000 0.0000 0.0000 0.0000 0.0000 12.3832
#
#
#
# Elastic Compliance Matrix: (Units=1/GPa)
#
#
# Indices 1 2 3 4 5 6 
#
# 1 0.038698 -0.006247 -0.007652 0.000000 0.000000 0.000000
# 2 -0.006247 0.014669 -0.003315 0.000000 0.000000 0.000000
# 3 -0.007652 -0.003315 0.007277 0.000000 0.000000 0.000000
# 4 0.000000 0.000000 0.000000 0.028232 0.000000 0.000000
# 5 0.000000 0.000000 0.000000 0.000000 -0.181424 0.000000
# 6 0.000000 0.000000 0.000000 0.000000 0.000000 0.080754
#
#
# Mechanical properties :
#
#
# Convention : Reuss Voigt Hill
#
# Bulk Modulus (GPa) = 38.14532 79.51958 58.83245
# Shear Modulus (GPa) = 159.36970 22.33905 90.85437
#
# Velocity S-wave (km/s) = 9.33233 3.49397 7.04628
# Velocity P-wave (km/s) = 11.70337 7.72871 9.91720
#
# Compressibility (1/GPa) = 0.02621554
#
# Stress axis : x y z
#
# Youngs Moduli (GPa) = 25.84105 68.16989 137.42575
#
# Poissons Ratio (x) = 0.42588 1.05161
# Poissons Ratio (y) = 0.16144 0.45553
# Poissons Ratio (z) = 0.19774 0.22596
#
# Static dielectric constant tensor:
#      x y z
#    x 1.585430 0.000000 0.000000 
#    y 0.000000 1.615810 0.000000 
#    z 0.000000 0.000000 1.703100 
# 
# From -- ./inp_files/31244.got.cif
#   From: 2010.05.17/outbox.cif.g08.bks.cpg/sg42_16_cif.got.tgz:31244.got - 2010.06.03 19:03:34.
