data_PCOD9368605
_publ_section_title
;
Structure prediction by ZEFSAII (Michael W. Deem and Ramdas Pophale) SiO2 
 PCOD9368605
Probable space group: F M M 2
;
_chemical_formula_sum "Si O2"
_cell_formula_units_Z 96
_cell_length_a 26.013619
_cell_length_b 8.570754
_cell_length_c 24.257653
_cell_angle_alpha 90.000000
_cell_angle_beta 90.000000
_cell_angle_gamma 90.000000
_cell_volume 5408.397265
_symmetry_space_group_name_H-M "F M M 2"
_symmetry_group_IT_number 42
_symmetry_cell_setting 'orthorhombic'
loop_
_space_group_symop_operation_xyz
x,y,z
-x,-y,z
-x,y,z
x,-y,z
x,1/2+y,1/2+z
-x,1/2-y,1/2+z
-x,1/2+y,1/2+z
x,1/2-y,1/2+z
1/2+x,y,1/2+z
1/2-x,-y,1/2+z
1/2-x,y,1/2+z
1/2+x,-y,1/2+z
1/2+x,1/2+y,z
1/2-x,1/2-y,z
1/2-x,1/2+y,z
1/2+x,1/2-y,z
loop_
_atom_site_type_symbol
_atom_site_label
_atom_site_fract_x
_atom_site_fract_y
_atom_site_fract_z
Si Si1 0.399862 0.812876 0.395640
Si Si2 0.307060 0.686996 0.324094
Si Si3 0.193053 0.813300 0.197725
Si Si4 0.500000 0.190317 0.201115
Si Si5 0.439927 0.188636 0.009636
Si Si6 0.098404 0.188635 0.629922
Si Si7 0.000000 0.809923 0.827202
O O1 0.348748 0.750679 0.366599
O O2 0.409699 0.753276 0.457239
O O3 0.449039 0.759904 0.359457
O O4 0.398782 0.000000 0.395668
O O5 0.306452 0.500000 0.326003
O O6 0.250000 0.750000 0.335814
O O7 0.320134 0.735653 0.260891
O O8 0.250000 0.750000 0.185757
O O9 0.150871 0.751352 0.155446
O O10 0.194103 0.000000 0.196281
O O11 0.550907 0.239404 0.168554
O O12 0.500000 0.243658 0.264139
O O13 0.500000 0.000000 0.201254
O O14 0.500000 0.238074 0.007706
O O15 0.439553 0.000000 0.007798
O O16 0.414515 0.237120 0.067504
O O17 0.099942 0.000000 0.630748
O O18 0.000000 0.000000 0.826722
#
# Coordination Sequence:
#
# PCOD9368605 Si02
#       7
#    16  16  16   8  16  16   8
#     4  11  21  35  55  82 113 149 190 231 277 331
#     4  10  21  38  59  84 113 147 185 229 282 338
#     4  10  21  37  58  84 114 147 184 227 281 334
#     4   9  16  29  51  79 109 141 178 221 270 329
#     4  10  20  36  56  80 111 151 193 233 278 329
#     4  10  19  34  57  82 110 147 190 229 274 330
#     4   9  18  29  47  79 113 141 176 223 274 325
#
# _framework density 17.750174999999999
#
# number of rings (size 3 to 8) (size 9 to 14) (size 15 to 20)
#    0.000    2.000    1.667    2.500    0.000    4.000 
#    0.000    1.250    0.000    7.000    0.000    0.000 
#    0.000    0.000    0.000    0.000    0.000    0.000 
#
# Total GULP energy -134015.247404 kJ/mol
# GULP energy per Si atom -5583.968642 kJ/mol
# Density = 1.770978 g / cm^3
# Si number density = 17.750175 Si / 1000 Ang^3
#
#
#
# Elastic Constant Matrix: (Units=GPa)
#
#
# Indices 1 2 3 4 5 6 
#
# 1 141.3138 32.6146 106.6754 0.0000 0.0000 0.0000
# 2 32.6146 28.0405 36.4484 0.0000 0.0000 0.0000
# 3 106.6754 36.4484 178.1809 0.0000 0.0000 0.0000
# 4 0.0000 0.0000 0.0000 24.7617 0.0000 0.0000
# 5 0.0000 0.0000 0.0000 0.0000 21.0834 0.0000
# 6 0.0000 0.0000 0.0000 0.0000 0.0000 17.9009
#
#
#
# Elastic Compliance Matrix: (Units=1/GPa)
#
#
# Indices 1 2 3 4 5 6 
#
# 1 0.013930 -0.007304 -0.006846 0.000000 0.000000 0.000000
# 2 -0.007304 0.052409 -0.006348 0.000000 0.000000 0.000000
# 3 -0.006846 -0.006348 0.011009 0.000000 0.000000 0.000000
# 4 0.000000 0.000000 0.000000 0.040385 0.000000 0.000000
# 5 0.000000 0.000000 0.000000 0.000000 0.047431 0.000000
# 6 0.000000 0.000000 0.000000 0.000000 0.000000 0.055863
#
#
# Mechanical properties :
#
#
# Convention : Reuss Voigt Hill
#
# Bulk Modulus (GPa) = 27.50767 77.66800 52.58784
# Shear Modulus (GPa) = 18.23887 24.20232 21.22060
#
# Velocity S-wave (km/s) = 3.20899 3.69656 3.46137
# Velocity P-wave (km/s) = 5.40934 7.87849 6.75765
#
# Compressibility (1/GPa) = 0.03635349
#
# Stress axis : x y z
#
# Youngs Moduli (GPa) = 71.78892 19.08055 90.83311
#
# Poissons Ratio (x) = 0.13936 0.62180
# Poissons Ratio (y) = 0.52433 0.57661
# Poissons Ratio (z) = 0.49144 0.12112
#
# Static dielectric constant tensor:
#      x y z
#    x 1.572330 0.000000 0.000000 
#    y 0.000000 1.604720 0.000000 
#    z 0.000000 0.000000 1.591860 
# 
# From -- ./inp_files/28084.got.cif
#   From: 2010.05.17/outbox.cif.g08.bks.cpg/sg42_15_cif.got.tgz:28084.got - 2010.06.03 19:03:34.
