data_PCOD9368022
_publ_section_title
;
Structure prediction by ZEFSAII (Michael W. Deem and Ramdas Pophale) SiO2 
 PCOD9368022
Probable space group: A B A 2
;
_chemical_formula_sum "Si O2"
_cell_formula_units_Z 28
_cell_length_a 20.601224
_cell_length_b 6.657987
_cell_length_c 8.293030
_cell_angle_alpha 90.000000
_cell_angle_beta 90.000000
_cell_angle_gamma 90.000000
_cell_volume 1137.494233
_symmetry_space_group_name_H-M "A B A 2"
_symmetry_group_IT_number 41
_symmetry_cell_setting 'orthorhombic'
loop_
_space_group_symop_operation_xyz
x,y,z
-x,-y,z
1/2-x,y,1/2+z
1/2+x,-y,1/2+z
x,1/2+y,1/2+z
-x,1/2-y,1/2+z
1/2-x,1/2+y,z
1/2+x,1/2-y,z
loop_
_atom_site_type_symbol
_atom_site_label
_atom_site_fract_x
_atom_site_fract_y
_atom_site_fract_z
Si Si1 0.079085 0.819914 0.600310
Si Si2 0.169281 0.655358 0.066421
Si Si3 0.000000 0.500000 0.390276
Si Si4 0.804916 0.928406 0.206533
O O1 0.035379 0.668807 0.498071
O O2 0.047500 0.872725 0.772586
O O3 0.149088 0.713534 0.602508
O O4 0.100968 0.041686 0.545359
O O5 0.230906 0.550267 0.152158
O O6 0.162387 0.854791 0.173952
O O7 0.193518 0.668920 0.883064
#
# Coordination Sequence:
#
# PCOD9368022 Si02
#       4
#     8   8   4   8
#     4  12  30  52  74 112 152 210 262 316 392 470
#     4  12  26  46  78 114 154 193 256 328 400 460
#     4  12  32  52  80 108 166 218 260 320 380 482
#     4  12  26  46  78 114 154 193 256 328 400 460
#
# _framework density 24.61551
#
# number of rings (size 3 to 8) (size 9 to 14) (size 15 to 20)
#    0.000    0.000    2.857    5.143   16.000    0.000 
#    0.000    0.000    0.000    0.000    0.000    0.000 
#    0.000    0.000    0.000    0.000    0.000    0.000 
#
# Total GULP energy -78198.332565 kJ/mol
# GULP energy per Si atom -5585.595183 kJ/mol
# Density = 2.455948 g / cm^3
# Si number density = 24.615510 Si / 1000 Ang^3
#
#
#
# Elastic Constant Matrix: (Units=GPa)
#
#
# Indices 1 2 3 4 5 6 
#
# 1 73.8003 50.6449 14.6153 0.0000 0.0000 0.0000
# 2 50.6449 88.0215 14.0643 0.0000 0.0000 0.0000
# 3 14.6153 14.0643 77.1307 0.0000 0.0000 0.0000
# 4 0.0000 0.0000 0.0000 41.5361 0.0000 0.0000
# 5 0.0000 0.0000 0.0000 0.0000 9.0969 0.0000
# 6 0.0000 0.0000 0.0000 0.0000 0.0000 14.2336
#
#
#
# Elastic Compliance Matrix: (Units=1/GPa)
#
#
# Indices 1 2 3 4 5 6 
#
# 1 0.022680 -0.012733 -0.001976 0.000000 0.000000 0.000000
# 2 -0.012733 0.018851 -0.001025 0.000000 0.000000 0.000000
# 3 -0.001976 -0.001025 0.013526 0.000000 0.000000 0.000000
# 4 0.000000 0.000000 0.000000 0.024075 0.000000 0.000000
# 5 0.000000 0.000000 0.000000 0.000000 0.109928 0.000000
# 6 0.000000 0.000000 0.000000 0.000000 0.000000 0.070256
#
#
# Mechanical properties :
#
#
# Convention : Reuss Voigt Hill
#
# Bulk Modulus (GPa) = 42.39171 44.17793 43.28482
# Shear Modulus (GPa) = 16.74220 23.61520 20.17870
#
# Velocity S-wave (km/s) = 2.61079 3.10072 2.86624
# Velocity P-wave (km/s) = 5.13296 5.55026 5.34568
#
# Compressibility (1/GPa) = 0.02358952
#
# Stress axis : x y z
#
# Youngs Moduli (GPa) = 44.09253 53.04755 73.93070
#
# Poissons Ratio (x) = 0.67548 0.14606
# Poissons Ratio (y) = 0.56145 0.07574
# Poissons Ratio (z) = 0.08711 0.05435
#
# Static dielectric constant tensor:
#      x y z
#    x 1.986730 0.000000 0.000000 
#    y 0.000000 2.196350 0.000000 
#    z 0.000000 0.000000 1.970710 
# 
# From -- ./inp_files/856.got.cif
#   From: 2010.05.17/outbox.cif.g08.bks.cpg/sg41_1_cif.got.tgz:856.got - 2010.06.03 18:54:24.
