data_PCOD9368471
_publ_section_title
;
Structure prediction by ZEFSAII (Michael W. Deem and Ramdas Pophale) SiO2 
 PCOD9368471
Probable space group: F M M 2
;
_chemical_formula_sum "Si O2"
_cell_formula_units_Z 80
_cell_length_a 18.876054
_cell_length_b 7.776454
_cell_length_c 26.664323
_cell_angle_alpha 90.000000
_cell_angle_beta 90.000000
_cell_angle_gamma 90.000000
_cell_volume 3914.023060
_symmetry_space_group_name_H-M "F M M 2"
_symmetry_group_IT_number 42
_symmetry_cell_setting 'orthorhombic'
loop_
_space_group_symop_operation_xyz
x,y,z
-x,-y,z
-x,y,z
x,-y,z
x,1/2+y,1/2+z
-x,1/2-y,1/2+z
-x,1/2+y,1/2+z
x,1/2-y,1/2+z
1/2+x,y,1/2+z
1/2-x,-y,1/2+z
1/2-x,y,1/2+z
1/2+x,-y,1/2+z
1/2+x,1/2+y,z
1/2-x,1/2-y,z
1/2-x,1/2+y,z
1/2+x,1/2-y,z
loop_
_atom_site_type_symbol
_atom_site_label
_atom_site_fract_x
_atom_site_fract_y
_atom_site_fract_z
Si Si1 0.332376 0.706914 0.491170
Si Si2 0.332141 0.203300 0.796832
Si Si3 0.919733 0.793582 0.699483
Si Si4 0.917895 0.209786 0.587214
Si Si5 0.581873 0.788998 0.893193
O O1 0.338495 0.500000 0.491678
O O2 0.250000 0.750000 0.487333
O O3 0.367400 0.771536 0.542835
O O4 0.376244 0.767789 0.442806
O O5 0.250000 0.250000 0.800024
O O6 0.366643 0.250879 0.743833
O O7 0.377668 0.273878 0.843459
O O8 0.336683 0.000000 0.800927
O O9 0.898963 0.732535 0.643632
O O10 0.000000 0.730862 0.710366
O O11 0.923289 0.000000 0.696705
O O12 0.000000 0.256761 0.577821
O O13 0.915511 0.000000 0.587125
O O14 0.500000 0.735803 0.893684
O O15 0.582230 0.000000 0.893149
#
# Coordination Sequence:
#
# PCOD9368471 Si02
#       5
#    16  16  16  16  16
#     4  10  19  32  52  76 103 132 163 203 250 299
#     4  11  22  35  52  75 105 137 171 211 255 305
#     4   9  18  34  55  78 104 134 171 213 255 302
#     4   8  15  30  53  77  99 129 170 209 244 290
#     4   9  18  33  54  77  98 126 168 212 251 298
#
# _framework density 20.439329000000001
#
# number of rings (size 3 to 8) (size 9 to 14) (size 15 to 20)
#    0.000    2.600    0.000    3.600    0.000    4.400 
#    0.000    4.000    0.000    6.000    0.000    0.000 
#    0.000    0.000    0.000    0.000    0.000    0.000 
#
# Total GULP energy -111653.252272 kJ/mol
# GULP energy per Si atom -5582.662614 kJ/mol
# Density = 2.039281 g / cm^3
# Si number density = 20.439329 Si / 1000 Ang^3
#
#
#
# Elastic Constant Matrix: (Units=GPa)
#
#
# Indices 1 2 3 4 5 6 
#
# 1 195.7865 3.2862 153.7625 0.0000 0.0000 -0.0002
# 2 3.2862 26.1867 10.9569 0.0000 0.0000 -0.0004
# 3 153.7625 10.9569 211.7816 0.0000 0.0000 0.0000
# 4 0.0000 0.0000 0.0000 6.3325 0.0000 0.0000
# 5 0.0000 0.0000 0.0000 0.0000 8.5319 0.0000
# 6 -0.0002 -0.0004 0.0000 0.0000 0.0000 12.4379
#
#
#
# Elastic Compliance Matrix: (Units=1/GPa)
#
#
# Indices 1 2 3 4 5 6 
#
# 1 0.012005 0.002188 -0.008829 0.000000 0.000000 0.000000
# 2 0.002188 0.039431 -0.003628 0.000000 0.000000 0.000001
# 3 -0.008829 -0.003628 0.011320 0.000000 0.000000 0.000000
# 4 0.000000 0.000000 0.000000 0.157916 0.000000 0.000000
# 5 0.000000 0.000000 0.000000 0.000000 0.117207 0.000000
# 6 0.000000 0.000001 0.000000 0.000000 0.000000 0.080399
#
#
# Mechanical properties :
#
#
# Convention : Reuss Voigt Hill
#
# Bulk Modulus (GPa) = 23.68763 85.52953 54.60858
# Shear Modulus (GPa) = 11.04019 23.17709 17.10864
#
# Velocity S-wave (km/s) = 2.32662 3.37106 2.89631
# Velocity P-wave (km/s) = 4.33958 7.55569 6.16119
#
# Compressibility (1/GPa) = 0.04221613
#
# Stress axis : x y z
#
# Youngs Moduli (GPa) = 83.29758 25.36073 88.33830
#
# Poissons Ratio (x) = -0.05549 0.77998
# Poissons Ratio (y) = -0.18224 0.32053
# Poissons Ratio (z) = 0.73547 0.09202
#
# Static dielectric constant tensor:
#      x y z
#    x 1.662580 0.000000 0.000000 
#    y 0.000000 1.766920 0.000000 
#    z 0.000000 0.000000 1.736480 
# 
# From -- ./inp_files/28629.got.cif
#   From: 2010.05.17/outbox.cif.g08.bks.cpg/sg42_15_cif.got.tgz:28629.got - 2010.06.03 19:03:34.
