data_PCOD9368006
_publ_section_title
;
Structure prediction by ZEFSAII (Michael W. Deem and Ramdas Pophale) SiO2 
 PCOD9368006
Probable space group: A B A 2
;
_chemical_formula_sum "Si O2"
_cell_formula_units_Z 28
_cell_length_a 8.324345
_cell_length_b 8.290434
_cell_length_c 14.918306
_cell_angle_alpha 90.000000
_cell_angle_beta 90.000000
_cell_angle_gamma 90.000000
_cell_volume 1029.548591
_symmetry_space_group_name_H-M "A B A 2"
_symmetry_group_IT_number 41
_symmetry_cell_setting 'orthorhombic'
loop_
_space_group_symop_operation_xyz
x,y,z
-x,-y,z
1/2-x,y,1/2+z
1/2+x,-y,1/2+z
x,1/2+y,1/2+z
-x,1/2-y,1/2+z
1/2-x,1/2+y,z
1/2+x,1/2-y,z
loop_
_atom_site_type_symbol
_atom_site_label
_atom_site_fract_x
_atom_site_fract_y
_atom_site_fract_z
Si Si1 0.717626 0.211862 0.682200
Si Si2 0.000000 0.500000 0.429918
Si Si3 0.181222 0.048072 0.310352
Si Si4 0.977221 0.686188 0.053943
O O1 0.790321 0.270488 0.776626
O O2 0.552680 0.297421 0.654801
O O3 0.795942 0.216730 0.584730
O O4 0.690620 0.027933 0.709679
O O5 0.832311 0.483827 0.374814
O O6 0.987998 0.666719 0.486865
O O7 0.000000 0.000000 0.339807
O O8 0.000000 0.500000 0.026173
#
# Coordination Sequence:
#
# PCOD9368006 Si02
#       4
#     8   4   8   8
#     4  12  24  54  84 116 156 222 300 332 400 502
#     4  12  32  56  80 136 172 218 272 336 456 492
#     4  12  27  54  85 120 168 219 280 353 407 501
#     4  12  27  54  85 120 168 219 280 353 407 501
#
# _framework density 27.196387000000001
#
# number of rings (size 3 to 8) (size 9 to 14) (size 15 to 20)
#    0.000    0.000    5.714    3.429    0.000    2.286 
#   10.286    0.000    0.000    0.000    0.000    0.000 
#    0.000    0.000    0.000    0.000    0.000    0.000 
#
# Total GULP energy -78054.640192 kJ/mol
# GULP energy per Si atom -5575.331442 kJ/mol
# Density = 2.713449 g / cm^3
# Si number density = 27.196387 Si / 1000 Ang^3
#
#
#
# Elastic Constant Matrix: (Units=GPa)
#
#
# Indices 1 2 3 4 5 6 
#
# 1 152.9232 18.1768 92.9491 0.0000 0.0000 0.0000
# 2 18.1768 145.4570 76.1836 0.0000 0.0000 0.0000
# 3 92.9491 76.1836 152.9087 0.0000 0.0000 0.0000
# 4 0.0000 0.0000 0.0000 66.4437 0.0000 0.0000
# 5 0.0000 0.0000 0.0000 0.0000 53.0856 0.0000
# 6 0.0000 0.0000 0.0000 0.0000 0.0000 28.1440
#
#
#
# Elastic Compliance Matrix: (Units=1/GPa)
#
#
# Indices 1 2 3 4 5 6 
#
# 1 0.011228 0.002939 -0.008290 0.000000 0.000000 0.000000
# 2 0.002939 0.010071 -0.006804 0.000000 0.000000 0.000000
# 3 -0.008290 -0.006804 0.014969 0.000000 0.000000 0.000000
# 4 0.000000 0.000000 0.000000 0.015050 0.000000 0.000000
# 5 0.000000 0.000000 0.000000 0.000000 0.018838 0.000000
# 6 0.000000 0.000000 0.000000 0.000000 0.000000 0.035531
#
#
# Mechanical properties :
#
#
# Convention : Reuss Voigt Hill
#
# Bulk Modulus (GPa) = 83.62295 91.76753 87.69524
# Shear Modulus (GPa) = 37.31778 47.13329 42.22554
#
# Velocity S-wave (km/s) = 3.70829 4.16753 3.94460
# Velocity P-wave (km/s) = 7.01069 7.54809 7.28434
#
# Compressibility (1/GPa) = 0.01195844
#
# Stress axis : x y z
#
# Youngs Moduli (GPa) = 89.05928 99.29158 66.80536
#
# Poissons Ratio (x) = -0.29177 0.55379
# Poissons Ratio (y) = -0.26170 0.45455
# Poissons Ratio (z) = 0.73826 0.67559
#
# Static dielectric constant tensor:
#      x y z
#    x 1.879870 0.000000 0.000000 
#    y 0.000000 1.508440 0.000000 
#    z 0.000000 0.000000 1.966860 
# 
# From -- ./inp_files/9533.got.cif
#   From: 2010.05.17/outbox.cif.g08.bks.cpg/sg41_5_cif.got.tgz:9533.got - 2010.06.03 18:54:24.
