data_PCOD9368259
_publ_section_title
;
Structure prediction by ZEFSAII (Michael W. Deem and Ramdas Pophale) SiO2 
 PCOD9368259
Probable space group: F M M 2
;
_chemical_formula_sum "Si O2"
_cell_formula_units_Z 104
_cell_length_a 14.214639
_cell_length_b 19.255399
_cell_length_c 18.424113
_cell_angle_alpha 90.000000
_cell_angle_beta 90.000000
_cell_angle_gamma 90.000000
_cell_volume 5042.837173
_symmetry_space_group_name_H-M "F M M 2"
_symmetry_group_IT_number 42
_symmetry_cell_setting 'orthorhombic'
loop_
_space_group_symop_operation_xyz
x,y,z
-x,-y,z
-x,y,z
x,-y,z
x,1/2+y,1/2+z
-x,1/2-y,1/2+z
-x,1/2+y,1/2+z
x,1/2-y,1/2+z
1/2+x,y,1/2+z
1/2-x,-y,1/2+z
1/2-x,y,1/2+z
1/2+x,-y,1/2+z
1/2+x,1/2+y,z
1/2-x,1/2-y,z
1/2-x,1/2+y,z
1/2+x,1/2-y,z
loop_
_atom_site_type_symbol
_atom_site_label
_atom_site_fract_x
_atom_site_fract_y
_atom_site_fract_z
Si Si1 0.393751 0.365483 0.519320
Si Si2 0.295748 0.500000 0.455657
Si Si3 0.852724 0.769431 0.388946
Si Si4 0.884813 0.281805 0.159731
Si Si5 0.114257 0.500000 0.792766
Si Si6 0.893645 0.637950 0.300086
Si Si7 0.885473 0.850099 0.242760
Si Si8 0.885445 0.000000 0.879453
O O1 0.500000 0.389769 0.537085
O O2 0.332171 0.431249 0.496183
O O3 0.399893 0.314075 0.450772
O O4 0.356227 0.319578 0.586199
O O5 0.340488 0.500000 0.373587
O O6 0.182638 0.500000 0.448618
O O7 0.750000 0.750000 0.415944
O O8 0.896249 0.697592 0.361198
O O9 0.846961 0.816227 0.316828
O O10 0.850936 0.327534 0.228527
O O11 0.857905 0.201996 0.177437
O O12 0.000000 0.281532 0.159528
O O13 0.139540 0.569146 0.747398
O O14 0.000000 0.500000 0.803282
O O15 0.855755 0.567956 0.334135
O O16 0.000000 0.619921 0.278982
O O17 0.000000 0.846047 0.247873
O O18 0.000000 0.000000 0.891735
#
# Coordination Sequence:
#
# PCOD9368259 Si02
#       8
#    16   8  16  16   8  16  16   8
#     4  11  21  35  56  88 130 165 193 247 318 374
#     4  12  22  33  55  95 130 152 203 251 311 378
#     4  11  20  31  51  78 112 153 202 252 302 355
#     4   8  17  33  55  83 119 161 202 241 299 369
#     4  10  18  30  57  92 126 158 191 249 311 357
#     4   9  18  35  56  78 104 146 203 254 295 352
#     4   9  17  33  55  84 117 154 199 245 301 367
#     4  10  22  39  60  83 114 154 204 260 308 353
#
# _framework density 20.62331
#
# number of rings (size 3 to 8) (size 9 to 14) (size 15 to 20)
#    0.000    2.154    1.538    3.923    0.000    0.615 
#    0.000    5.385    0.000    0.923    0.000    4.308 
#    0.000   19.692    0.000    0.000    0.000    0.000 
#
# Total GULP energy -145040.263245 kJ/mol
# GULP energy per Si atom -5578.471663 kJ/mol
# Density = 2.057637 g / cm^3
# Si number density = 20.623310 Si / 1000 Ang^3
#
#
#
# Elastic Constant Matrix: (Units=GPa)
#
#
# Indices 1 2 3 4 5 6 
#
# 1 80.8723 23.9412 17.9214 0.0000 0.0000 0.0000
# 2 23.9412 196.4335 77.2004 0.0000 0.0000 0.0000
# 3 17.9214 77.2004 110.9015 0.0000 0.0000 0.0000
# 4 0.0000 0.0000 0.0000 33.0337 0.0000 0.0000
# 5 0.0000 0.0000 0.0000 0.0000 16.5256 0.0000
# 6 0.0000 0.0000 0.0000 0.0000 0.0000 27.2124
#
#
#
# Elastic Compliance Matrix: (Units=1/GPa)
#
#
# Indices 1 2 3 4 5 6 
#
# 1 0.012978 -0.001043 -0.001371 0.000000 0.000000 0.000000
# 2 -0.001043 0.007092 -0.004768 0.000000 0.000000 0.000000
# 3 -0.001371 -0.004768 0.012558 0.000000 0.000000 0.000000
# 4 0.000000 0.000000 0.000000 0.030272 0.000000 0.000000
# 5 0.000000 0.000000 0.000000 0.000000 0.060512 0.000000
# 6 0.000000 0.000000 0.000000 0.000000 0.000000 0.036748
#
#
# Mechanical properties :
#
#
# Convention : Reuss Voigt Hill
#
# Bulk Modulus (GPa) = 54.75595 69.59258 62.17427
# Shear Modulus (GPa) = 27.68368 33.29729 30.49049
#
# Velocity S-wave (km/s) = 3.66778 4.02250 3.84923
# Velocity P-wave (km/s) = 6.67420 7.44257 7.06884
#
# Compressibility (1/GPa) = 0.01826285
#
# Stress axis : x y z
#
# Youngs Moduli (GPa) = 77.05499 141.00700 79.63143
#
# Poissons Ratio (x) = 0.14704 0.10919
# Poissons Ratio (y) = 0.08035 0.37970
# Poissons Ratio (z) = 0.10566 0.67236
#
# Static dielectric constant tensor:
#      x y z
#    x 1.808250 0.000000 0.000000 
#    y 0.000000 1.728830 0.000000 
#    z 0.000000 0.000000 1.703900 
# 
# From -- ./inp_files/20143.got.cif
#   From: 2010.05.17/outbox.cif.g08.bks.cpg/sg42_11_cif.got.tgz:20143.got - 2010.06.03 19:03:34.
