data_PCOD9368035
_publ_section_title
;
Structure prediction by ZEFSAII (Michael W. Deem and Ramdas Pophale) SiO2 
 PCOD9368035
Probable space group: A B A 2
;
_chemical_formula_sum "Si O2"
_cell_formula_units_Z 40
_cell_length_a 10.240142
_cell_length_b 9.494050
_cell_length_c 17.140545
_cell_angle_alpha 90.000000
_cell_angle_beta 90.000000
_cell_angle_gamma 90.000000
_cell_volume 1666.410987
_symmetry_space_group_name_H-M "A B A 2"
_symmetry_group_IT_number 41
_symmetry_cell_setting 'orthorhombic'
loop_
_space_group_symop_operation_xyz
x,y,z
-x,-y,z
1/2-x,y,1/2+z
1/2+x,-y,1/2+z
x,1/2+y,1/2+z
-x,1/2-y,1/2+z
1/2-x,1/2+y,z
1/2+x,1/2-y,z
loop_
_atom_site_type_symbol
_atom_site_label
_atom_site_fract_x
_atom_site_fract_y
_atom_site_fract_z
Si Si1 0.407596 0.216841 0.183330
Si Si2 0.150927 0.253433 0.083186
Si Si3 0.252388 0.144810 0.828204
Si Si4 0.730031 0.104444 0.435858
Si Si5 0.500000 0.500000 0.015480
Si Si6 0.000000 0.000000 0.252687
O O1 0.288696 0.221074 0.123115
O O2 0.544745 0.177207 0.142143
O O3 0.356468 0.133765 0.260192
O O4 0.423655 0.380524 0.206459
O O5 0.176271 0.346588 0.005774
O O6 0.095639 0.098924 0.063462
O O7 0.250659 0.304006 0.858557
O O8 0.235603 0.055350 0.906886
O O9 0.392256 0.092489 0.797847
O O10 0.582595 0.113032 0.466460
#
# Coordination Sequence:
#
# PCOD9368035 Si02
#       6
#     8   8   8   8   4   4
#     4  12  27  50  82 118 165 223 271 347 415 496
#     4  12  27  50  82 118 165 223 271 347 415 496
#     4  12  28  50  81 122 162 221 275 346 421 501
#     4  12  28  50  81 122 162 221 275 346 421 501
#     4  12  27  50  78 116 173 204 284 342 413 492
#     4  12  27  50  78 116 173 204 284 342 413 492
#
# _framework density 24.003681
#
# number of rings (size 3 to 8) (size 9 to 14) (size 15 to 20)
#    0.000    0.000    8.000    0.600    5.600    0.000 
#    0.000    6.000    0.000    0.000    0.000    0.000 
#    0.000    0.000    0.000    0.000    0.000    0.000 
#
# Total GULP energy -111866.540649 kJ/mol
# GULP energy per Si atom -5593.327032 kJ/mol
# Density = 2.394905 g / cm^3
# Si number density = 24.003681 Si / 1000 Ang^3
#
#
#
# Elastic Constant Matrix: (Units=GPa)
#
#
# Indices 1 2 3 4 5 6 
#
# 1 83.9340 2.9845 31.3953 0.0000 0.0000 0.0000
# 2 2.9845 51.3338 18.9956 0.0000 0.0000 0.0000
# 3 31.3953 18.9956 102.5222 0.0000 0.0000 0.0000
# 4 0.0000 0.0000 0.0000 44.6434 0.0000 0.0000
# 5 0.0000 0.0000 0.0000 0.0000 45.3080 0.0000
# 6 0.0000 0.0000 0.0000 0.0000 0.0000 47.0631
#
#
#
# Elastic Compliance Matrix: (Units=1/GPa)
#
#
# Indices 1 2 3 4 5 6 
#
# 1 0.013486 0.000799 -0.004278 0.000000 0.000000 0.000000
# 2 0.000799 0.020962 -0.004128 0.000000 0.000000 0.000000
# 3 -0.004278 -0.004128 0.011829 0.000000 0.000000 0.000000
# 4 0.000000 0.000000 0.000000 0.022400 0.000000 0.000000
# 5 0.000000 0.000000 0.000000 0.000000 0.022071 0.000000
# 6 0.000000 0.000000 0.000000 0.000000 0.000000 0.021248
#
#
# Mechanical properties :
#
#
# Convention : Reuss Voigt Hill
#
# Bulk Modulus (GPa) = 32.19406 38.28230 35.23818
# Shear Modulus (GPa) = 36.34675 39.69719 38.02197
#
# Velocity S-wave (km/s) = 3.89551 4.07110 3.98427
# Velocity P-wave (km/s) = 5.80298 6.17103 5.98983
#
# Compressibility (1/GPa) = 0.03106163
#
# Stress axis : x y z
#
# Youngs Moduli (GPa) = 74.15198 47.70629 84.53868
#
# Poissons Ratio (x) = -0.03811 0.36164
# Poissons Ratio (y) = -0.05924 0.34902
# Poissons Ratio (z) = 0.31721 0.19695
#
# Static dielectric constant tensor:
#      x y z
#    x 2.070840 0.000000 0.000000 
#    y 0.000000 1.917210 0.000000 
#    z 0.000000 0.000000 2.056000 
# 
# From -- ./inp_files/9567.got.cif
#   From: 2010.05.17/outbox.cif.g08.bks.cpg/sg41_5_cif.got.tgz:9567.got - 2010.06.03 18:54:24.
