data_PCOD9368423
_publ_section_title
;
Structure prediction by ZEFSAII (Michael W. Deem and Ramdas Pophale) SiO2 
 PCOD9368423
Probable space group: F M M 2
;
_chemical_formula_sum "Si O2"
_cell_formula_units_Z 96
_cell_length_a 8.869017
_cell_length_b 19.119747
_cell_length_c 32.614102
_cell_angle_alpha 90.000000
_cell_angle_beta 90.000000
_cell_angle_gamma 90.000000
_cell_volume 5530.482898
_symmetry_space_group_name_H-M "F M M 2"
_symmetry_group_IT_number 42
_symmetry_cell_setting 'orthorhombic'
loop_
_space_group_symop_operation_xyz
x,y,z
-x,-y,z
-x,y,z
x,-y,z
x,1/2+y,1/2+z
-x,1/2-y,1/2+z
-x,1/2+y,1/2+z
x,1/2-y,1/2+z
1/2+x,y,1/2+z
1/2-x,-y,1/2+z
1/2-x,y,1/2+z
1/2+x,-y,1/2+z
1/2+x,1/2+y,z
1/2-x,1/2-y,z
1/2-x,1/2+y,z
1/2+x,1/2-y,z
loop_
_atom_site_type_symbol
_atom_site_label
_atom_site_fract_x
_atom_site_fract_y
_atom_site_fract_z
Si Si1 0.319018 0.328221 0.069250
Si Si2 0.318366 0.672643 0.978855
Si Si3 0.181182 0.081266 0.731369
Si Si4 0.824889 0.084926 0.316472
Si Si5 0.681354 0.172206 0.152401
Si Si6 0.681672 0.581388 0.901516
O O1 0.500000 0.325121 0.073798
O O2 0.250000 0.250000 0.067889
O O3 0.246076 0.359938 0.110084
O O4 0.282663 0.358070 0.024142
O O5 0.500000 0.678515 0.977208
O O6 0.250000 0.750000 0.975647
O O7 0.268057 0.625380 0.940890
O O8 0.249814 0.108337 0.774027
O O9 0.223748 0.126626 0.691932
O O10 0.000000 0.082694 0.734927
O O11 0.226891 0.000000 0.725817
O O12 0.746305 0.108577 0.358415
O O13 0.000000 0.103357 0.317026
O O14 0.811556 0.000000 0.316396
O O15 0.500000 0.176673 0.149727
O O16 0.750000 0.250000 0.156569
O O17 0.500000 0.583708 0.899500
O O18 0.726017 0.500000 0.906249
#
# Coordination Sequence:
#
# PCOD9368423 Si02
#       6
#    16  16  16  16  16  16
#     4   9  16  28  46  67  92 122 156 189 224 271
#     4   9  18  31  48  70  93 121 156 191 228 270
#     4   9  18  33  51  69  91 122 157 189 225 273
#     4   9  17  29  47  71  95 119 151 190 230 272
#     4  10  19  31  49  71  94 121 154 191 229 272
#     4   9  17  31  50  69  92 123 156 188 225 273
#
# _framework density 17.358339999999998
#
# number of rings (size 3 to 8) (size 9 to 14) (size 15 to 20)
#    0.000    2.833    0.000    2.500    0.000    4.667 
#    0.000    1.667    0.000    1.000    0.000    0.000 
#    0.000    0.000    0.000    0.000    0.000    0.000 
#
# Total GULP energy -133672.365792 kJ/mol
# GULP energy per Si atom -5569.681908 kJ/mol
# Density = 1.731883 g / cm^3
# Si number density = 17.358340 Si / 1000 Ang^3
#
#
#
# Elastic Constant Matrix: (Units=GPa)
#
#
# Indices 1 2 3 4 5 6 
#
# 1 35.6578 18.2893 56.4646 0.0000 0.0000 0.0000
# 2 18.2893 36.0397 62.4226 0.0000 0.0000 0.0000
# 3 56.4646 62.4226 226.6574 0.0000 0.0000 0.0000
# 4 0.0000 0.0000 0.0000 33.2275 0.0000 0.0000
# 5 0.0000 0.0000 0.0000 0.0000 21.4113 0.0000
# 6 0.0000 0.0000 0.0000 0.0000 0.0000 14.0860
#
#
#
# Elastic Compliance Matrix: (Units=1/GPa)
#
#
# Indices 1 2 3 4 5 6 
#
# 1 0.047184 -0.006856 -0.009866 0.000000 0.000000 0.000000
# 2 -0.006856 0.054052 -0.013178 0.000000 0.000000 0.000000
# 3 -0.009866 -0.013178 0.010499 0.000000 0.000000 0.000000
# 4 0.000000 0.000000 0.000000 0.030096 0.000000 0.000000
# 5 0.000000 0.000000 0.000000 0.000000 0.046704 0.000000
# 6 0.000000 0.000000 0.000000 0.000000 0.000000 0.070993
#
#
# Mechanical properties :
#
#
# Convention : Reuss Voigt Hill
#
# Bulk Modulus (GPa) = 19.25513 63.63422 41.44467
# Shear Modulus (GPa) = 14.85266 24.49018 19.67142
#
# Velocity S-wave (km/s) = 2.92832 3.76022 3.37004
# Velocity P-wave (km/s) = 4.74871 7.45594 6.25065
#
# Compressibility (1/GPa) = 0.05193421
#
# Stress axis : x y z
#
# Youngs Moduli (GPa) = 21.19350 18.50077 95.24574
#
# Poissons Ratio (x) = 0.12684 0.93972
# Poissons Ratio (y) = 0.14530 1.25517
# Poissons Ratio (z) = 0.20910 0.24381
#
# Static dielectric constant tensor:
#      x y z
#    x 1.582910 0.000000 0.000000 
#    y 0.000000 1.573880 0.000000 
#    z 0.000000 0.000000 1.624050 
# 
# From -- ./inp_files/28041.got.cif
#   From: 2010.05.17/outbox.cif.g08.bks.cpg/sg42_15_cif.got.tgz:28041.got - 2010.06.03 19:03:34.
