data_PCOD9368223
_publ_section_title
;
Structure prediction by ZEFSAII (Michael W. Deem and Ramdas Pophale) SiO2 
 PCOD9368223
Probable space group: F M M 2
;
_chemical_formula_sum "Si O2"
_cell_formula_units_Z 128
_cell_length_a 19.136550
_cell_length_b 19.374372
_cell_length_c 20.332190
_cell_angle_alpha 90.000000
_cell_angle_beta 90.000000
_cell_angle_gamma 90.000000
_cell_volume 7538.335082
_symmetry_space_group_name_H-M "F M M 2"
_symmetry_group_IT_number 42
_symmetry_cell_setting 'orthorhombic'
loop_
_space_group_symop_operation_xyz
x,y,z
-x,-y,z
-x,y,z
x,-y,z
x,1/2+y,1/2+z
-x,1/2-y,1/2+z
-x,1/2+y,1/2+z
x,1/2-y,1/2+z
1/2+x,y,1/2+z
1/2-x,-y,1/2+z
1/2-x,y,1/2+z
1/2+x,-y,1/2+z
1/2+x,1/2+y,z
1/2-x,1/2-y,z
1/2-x,1/2+y,z
1/2+x,1/2-y,z
loop_
_atom_site_type_symbol
_atom_site_label
_atom_site_fract_x
_atom_site_fract_y
_atom_site_fract_z
Si Si1 0.181845 0.080225 0.345640
Si Si2 0.082454 0.795407 0.363621
Si Si3 0.921919 0.812453 0.977774
Si Si4 0.766149 0.367526 0.083591
Si Si5 0.297852 0.580179 0.952697
Si Si6 0.358683 0.757327 0.602721
Si Si7 0.831617 0.775635 0.748301
Si Si8 0.778728 0.577746 0.227443
O O1 0.118882 0.130134 0.363678
O O2 0.249190 0.098473 0.390538
O O3 0.207995 0.087505 0.270240
O O4 0.165592 0.000000 0.357640
O O5 0.090757 0.753947 0.431646
O O6 0.125961 0.753100 0.309297
O O7 0.000000 0.799100 0.348612
O O8 0.863694 0.869359 0.960694
O O9 0.000000 0.838384 0.964548
O O10 0.915433 0.787536 0.053240
O O11 0.704650 0.311561 0.093823
O O12 0.834078 0.318694 0.079198
O O13 0.767836 0.412745 0.149565
O O14 0.749156 0.408858 0.017950
O O15 0.318358 0.500000 0.947183
O O16 0.367650 0.749944 0.680761
O O17 0.750000 0.750000 0.748029
O O18 0.827863 0.858693 0.747713
O O19 0.803593 0.500000 0.242137
#
# Coordination Sequence:
#
# PCOD9368223 Si02
#       8
#    16  16  16  16  16  16  16  16
#     4  10  20  34  53  79 105 135 173 218 268 321
#     4  11  23  37  54  79 107 141 177 216 270 326
#     4  10  22  35  50  75 108 144 182 220 265 316
#     4   9  15  28  47  74 100 129 165 218 265 303
#     4  10  20  32  51  76 103 138 182 221 263 313
#     4   9  16  30  51  74 100 134 176 216 264 308
#     4  11  18  34  56  81 106 139 180 223 261 309
#     4  10  18  29  50  79 109 134 170 222 266 303
#
# _framework density 16.979876999999998
#
# number of rings (size 3 to 8) (size 9 to 14) (size 15 to 20)
#    0.000    2.000    3.750    1.875    0.000    2.000 
#    0.000    0.000    0.000    1.125    0.000    3.500 
#    0.000    0.000    0.000    0.250    0.000    0.000 
#
# Total GULP energy -178314.043747 kJ/mol
# GULP energy per Si atom -5572.313867 kJ/mol
# Density = 1.694123 g / cm^3
# Si number density = 16.979877 Si / 1000 Ang^3
#
#
#
# Elastic Constant Matrix: (Units=GPa)
#
#
# Indices 1 2 3 4 5 6 
#
# 1 58.9627 34.9567 26.2044 0.0000 0.0000 0.0000
# 2 34.9567 86.1419 18.1583 0.0000 0.0000 0.0000
# 3 26.2044 18.1583 66.9608 0.0000 0.0000 0.0000
# 4 0.0000 0.0000 0.0000 23.4990 0.0000 0.0000
# 5 0.0000 0.0000 0.0000 0.0000 17.0805 0.0000
# 6 0.0000 0.0000 0.0000 0.0000 0.0000 17.4540
#
#
#
# Elastic Compliance Matrix: (Units=1/GPa)
#
#
# Indices 1 2 3 4 5 6 
#
# 1 0.025538 -0.008757 -0.007619 0.000000 0.000000 0.000000
# 2 -0.008757 0.015316 -0.000726 0.000000 0.000000 0.000000
# 3 -0.007619 -0.000726 0.018113 0.000000 0.000000 0.000000
# 4 0.000000 0.000000 0.000000 0.042555 0.000000 0.000000
# 5 0.000000 0.000000 0.000000 0.000000 0.058546 0.000000
# 6 0.000000 0.000000 0.000000 0.000000 0.000000 0.057293
#
#
# Mechanical properties :
#
#
# Convention : Reuss Voigt Hill
#
# Bulk Modulus (GPa) = 40.38633 41.18937 40.78785
# Shear Modulus (GPa) = 19.24412 20.45644 19.85028
#
# Velocity S-wave (km/s) = 3.37018 3.47471 3.42284
# Velocity P-wave (km/s) = 6.24344 6.35677 6.30036
#
# Compressibility (1/GPa) = 0.02476086
#
# Stress axis : x y z
#
# Youngs Moduli (GPa) = 39.15756 65.29308 55.20981
#
# Poissons Ratio (x) = 0.57179 0.42065
# Poissons Ratio (y) = 0.34291 0.04009
# Poissons Ratio (z) = 0.29835 0.04742
#
# Static dielectric constant tensor:
#      x y z
#    x 1.556420 0.000000 0.000000 
#    y 0.000000 1.580760 0.000000 
#    z 0.000000 0.000000 1.594950 
# 
# From -- ./inp_files/29984.got.cif
#   From: 2010.05.17/outbox.cif.g08.bks.cpg/sg42_15_cif.got.tgz:29984.got - 2010.06.03 19:03:34.
