data_PCOD9368937
_publ_section_title
;
Structure prediction by ZEFSAII (Michael W. Deem and Ramdas Pophale) SiO2 
 PCOD9368937
Probable space group: F M M 2
;
_chemical_formula_sum "Si O2"
_cell_formula_units_Z 96
_cell_length_a 13.991028
_cell_length_b 14.193721
_cell_length_c 24.540261
_cell_angle_alpha 90.000000
_cell_angle_beta 90.000000
_cell_angle_gamma 90.000000
_cell_volume 4873.321545
_symmetry_space_group_name_H-M "F M M 2"
_symmetry_group_IT_number 42
_symmetry_cell_setting 'orthorhombic'
loop_
_space_group_symop_operation_xyz
x,y,z
-x,-y,z
-x,y,z
x,-y,z
x,1/2+y,1/2+z
-x,1/2-y,1/2+z
-x,1/2+y,1/2+z
x,1/2-y,1/2+z
1/2+x,y,1/2+z
1/2-x,-y,1/2+z
1/2-x,y,1/2+z
1/2+x,-y,1/2+z
1/2+x,1/2+y,z
1/2-x,1/2-y,z
1/2-x,1/2+y,z
1/2+x,1/2-y,z
loop_
_atom_site_type_symbol
_atom_site_label
_atom_site_fract_x
_atom_site_fract_y
_atom_site_fract_z
Si Si1 0.214022 0.887459 0.933480
Si Si2 0.293037 0.609161 0.808730
Si Si3 0.886440 0.285537 0.983223
Si Si4 0.616093 0.106709 0.092668
Si Si5 0.113956 0.300545 0.203615
Si Si6 0.111358 0.604793 0.742444
O O1 0.189096 0.863309 0.870720
O O2 0.148594 0.820642 0.971141
O O3 0.322214 0.853269 0.945130
O O4 0.204264 0.000000 0.941271
O O5 0.321564 0.500000 0.803080
O O6 0.344804 0.665327 0.761033
O O7 0.180835 0.615495 0.793954
O O8 0.000000 0.294568 0.974832
O O9 0.861926 0.321489 0.044060
O O10 0.500000 0.103467 0.095057
O O11 0.650334 0.143003 0.151373
O O12 0.649375 0.000000 0.081200
O O13 0.133232 0.189010 0.201033
O O14 0.000000 0.313651 0.205353
O O15 0.128067 0.500000 0.719857
O O16 0.000000 0.612381 0.757573
#
# Coordination Sequence:
#
# PCOD9368937 Si02
#       6
#    16  16  16  16  16  16
#     4  10  23  41  60  88 126 160 201 254 303 362
#     4  10  21  37  56  82 118 155 190 237 296 356
#     4  10  22  40  64  88 117 160 208 254 303 352
#     4   9  18  36  61  88 116 149 198 253 298 350
#     4  10  20  34  59  89 118 151 190 239 297 359
#     4   9  19  35  53  78 116 157 196 235 280 345
#
# _framework density 19.699090999999999
#
# number of rings (size 3 to 8) (size 9 to 14) (size 15 to 20)
#    0.000    2.333    0.000    1.500    4.667    3.667 
#    6.000    4.167    0.000    3.000    0.000    0.000 
#    0.000    0.000    0.000    0.000    0.000    0.000 
#
# Total GULP energy -133851.494831 kJ/mol
# GULP energy per Si atom -5577.145618 kJ/mol
# Density = 1.965426 g / cm^3
# Si number density = 19.699091 Si / 1000 Ang^3
#
#
#
# Elastic Constant Matrix: (Units=GPa)
#
#
# Indices 1 2 3 4 5 6 
#
# 1 59.0747 35.2469 41.4847 0.0000 0.0000 0.0000
# 2 35.2469 146.1599 87.3498 0.0000 0.0000 0.0000
# 3 41.4847 87.3498 116.0675 0.0000 0.0000 0.0000
# 4 0.0000 0.0000 0.0000 31.6213 0.0000 0.0000
# 5 0.0000 0.0000 0.0000 0.0000 24.2328 0.0000
# 6 0.0000 0.0000 0.0000 0.0000 0.0000 25.6485
#
#
#
# Elastic Compliance Matrix: (Units=1/GPa)
#
#
# Indices 1 2 3 4 5 6 
#
# 1 0.022704 -0.001137 -0.007259 0.000000 0.000000 0.000000
# 2 -0.001137 0.012491 -0.008994 0.000000 0.000000 0.000000
# 3 -0.007259 -0.008994 0.017979 0.000000 0.000000 0.000000
# 4 0.000000 0.000000 0.000000 0.031624 0.000000 0.000000
# 5 0.000000 0.000000 0.000000 0.000000 0.041266 0.000000
# 6 0.000000 0.000000 0.000000 0.000000 0.000000 0.038989
#
#
# Mechanical properties :
#
#
# Convention : Reuss Voigt Hill
#
# Bulk Modulus (GPa) = 54.36698 72.16279 63.26489
# Shear Modulus (GPa) = 24.27593 26.78190 25.52891
#
# Velocity S-wave (km/s) = 3.51427 3.69121 3.60383
# Velocity P-wave (km/s) = 6.64270 7.40802 7.03577
#
# Compressibility (1/GPa) = 0.01839352
#
# Stress axis : x y z
#
# Youngs Moduli (GPa) = 44.04568 80.05596 55.61969
#
# Poissons Ratio (x) = 0.09100 0.40376
# Poissons Ratio (y) = 0.05007 0.50026
# Poissons Ratio (z) = 0.31974 0.72005
#
# Static dielectric constant tensor:
#      x y z
#    x 1.709720 0.000000 0.000000 
#    y 0.000000 1.729680 0.000000 
#    z 0.000000 0.000000 1.677330 
# 
# From -- ./inp_files/25090.got.cif
#   From: 2010.05.17/outbox.cif.g08.bks.cpg/sg42_13_cif.got.tgz:25090.got - 2010.06.03 19:03:34.
