data_PCOD9368184
_publ_section_title
;
Structure prediction by ZEFSAII (Michael W. Deem and Ramdas Pophale) SiO2 
 PCOD9368184
Probable space group: F M M 2
;
_chemical_formula_sum "Si O2"
_cell_formula_units_Z 96
_cell_length_a 18.100709
_cell_length_b 16.134705
_cell_length_c 18.190367
_cell_angle_alpha 90.000000
_cell_angle_beta 90.000000
_cell_angle_gamma 90.000000
_cell_volume 5312.489406
_symmetry_space_group_name_H-M "F M M 2"
_symmetry_group_IT_number 42
_symmetry_cell_setting 'orthorhombic'
loop_
_space_group_symop_operation_xyz
x,y,z
-x,-y,z
-x,y,z
x,-y,z
x,1/2+y,1/2+z
-x,1/2-y,1/2+z
-x,1/2+y,1/2+z
x,1/2-y,1/2+z
1/2+x,y,1/2+z
1/2-x,-y,1/2+z
1/2-x,y,1/2+z
1/2+x,-y,1/2+z
1/2+x,1/2+y,z
1/2-x,1/2-y,z
1/2-x,1/2+y,z
1/2+x,1/2-y,z
loop_
_atom_site_type_symbol
_atom_site_label
_atom_site_fract_x
_atom_site_fract_y
_atom_site_fract_z
Si Si1 0.849711 0.095980 0.843290
Si Si2 0.218835 0.844141 0.260109
Si Si3 0.265341 0.405776 0.600958
Si Si4 0.180235 0.799130 0.980330
Si Si5 0.586334 0.185562 0.083779
Si Si6 0.584291 0.754482 0.249485
O O1 0.763624 0.104972 0.820342
O O2 0.855318 0.137368 0.923132
O O3 0.890343 0.158769 0.786946
O O4 0.872606 0.000000 0.839331
O O5 0.250000 0.750000 0.255026
O O6 0.237146 0.886629 0.182805
O O7 0.133926 0.823120 0.274134
O O8 0.250836 0.500000 0.581444
O O9 0.220749 0.346348 0.546682
O O10 0.352675 0.386322 0.594253
O O11 0.250000 0.750000 0.943787
O O12 0.118868 0.739892 0.016658
O O13 0.500000 0.162869 0.073957
O O14 0.591498 0.235366 0.161222
O O15 0.500000 0.740937 0.268609
#
# Coordination Sequence:
#
# PCOD9368184 Si02
#       6
#    16  16  16  16  16  16
#     4  11  22  35  57  89 117 143 182 239 292 331
#     4  10  17  34  55  79 106 148 190 225 271 332
#     4  11  19  32  56  83 112 145 183 235 284 326
#     4  10  20  37  56  81 110 152 195 228 271 331
#     4  10  20  35  56  80 111 151 190 224 269 337
#     4  10  20  35  56  80 110 151 190 225 273 335
#
# _framework density 18.070623999999999
#
# number of rings (size 3 to 8) (size 9 to 14) (size 15 to 20)
#    0.000    1.667    5.000    3.000    0.000    1.333 
#    0.000    1.667    0.000    4.500    0.000    0.000 
#    0.000    0.000    0.000    0.000    0.000    0.000 
#
# Total GULP energy -133772.216003 kJ/mol
# GULP energy per Si atom -5573.842333 kJ/mol
# Density = 1.802949 g / cm^3
# Si number density = 18.070624 Si / 1000 Ang^3
#
#
#
# Elastic Constant Matrix: (Units=GPa)
#
#
# Indices 1 2 3 4 5 6 
#
# 1 103.0367 22.3136 8.7808 0.0000 0.0000 0.0000
# 2 22.3136 55.2599 5.8334 0.0000 0.0000 0.0000
# 3 8.7808 5.8334 58.1426 0.0000 0.0000 0.0000
# 4 0.0000 0.0000 0.0000 12.3392 0.0000 0.0000
# 5 0.0000 0.0000 0.0000 0.0000 6.1854 0.0000
# 6 0.0000 0.0000 0.0000 0.0000 0.0000 15.2789
#
#
#
# Elastic Compliance Matrix: (Units=1/GPa)
#
#
# Indices 1 2 3 4 5 6 
#
# 1 0.010717 -0.004201 -0.001197 0.000000 0.000000 0.000000
# 2 -0.004201 0.019937 -0.001366 0.000000 0.000000 0.000000
# 3 -0.001197 -0.001366 0.017517 0.000000 0.000000 0.000000
# 4 0.000000 0.000000 0.000000 0.081042 0.000000 0.000000
# 5 0.000000 0.000000 0.000000 0.000000 0.161672 0.000000
# 6 0.000000 0.000000 0.000000 0.000000 0.000000 0.065450
#
#
# Mechanical properties :
#
#
# Convention : Reuss Voigt Hill
#
# Bulk Modulus (GPa) = 28.86590 32.25499 30.56045
# Shear Modulus (GPa) = 13.10922 18.72811 15.91867
#
# Velocity S-wave (km/s) = 2.69633 3.22278 2.97124
# Velocity P-wave (km/s) = 5.06973 5.63353 5.35905
#
# Compressibility (1/GPa) = 0.03464295
#
# Stress axis : x y z
#
# Youngs Moduli (GPa) = 93.30888 50.15828 57.08775
#
# Poissons Ratio (x) = 0.21072 0.06833
# Poissons Ratio (y) = 0.39200 0.07797
# Poissons Ratio (z) = 0.11169 0.06851
#
# Static dielectric constant tensor:
#      x y z
#    x 1.670740 0.000000 0.000000 
#    y 0.000000 1.593760 0.000000 
#    z 0.000000 0.000000 1.631260 
# 
# From -- ./inp_files/20798.got.cif
#   From: 2010.05.17/outbox.cif.g08.bks.cpg/sg42_11_cif.got.tgz:20798.got - 2010.06.03 19:03:34.
