data_PCOD9368397
_publ_section_title
;
Structure prediction by ZEFSAII (Michael W. Deem and Ramdas Pophale) SiO2 
 PCOD9368397
Probable space group: F M M 2
;
_chemical_formula_sum "Si O2"
_cell_formula_units_Z 116
_cell_length_a 30.392410
_cell_length_b 23.541471
_cell_length_c 9.160664
_cell_angle_alpha 90.000000
_cell_angle_beta 90.000000
_cell_angle_gamma 90.000000
_cell_volume 6554.290554
_symmetry_space_group_name_H-M "F M M 2"
_symmetry_group_IT_number 42
_symmetry_cell_setting 'orthorhombic'
loop_
_space_group_symop_operation_xyz
x,y,z
-x,-y,z
-x,y,z
x,-y,z
x,1/2+y,1/2+z
-x,1/2-y,1/2+z
-x,1/2+y,1/2+z
x,1/2-y,1/2+z
1/2+x,y,1/2+z
1/2-x,-y,1/2+z
1/2-x,y,1/2+z
1/2+x,-y,1/2+z
1/2+x,1/2+y,z
1/2-x,1/2-y,z
1/2-x,1/2+y,z
1/2+x,1/2-y,z
loop_
_atom_site_type_symbol
_atom_site_label
_atom_site_fract_x
_atom_site_fract_y
_atom_site_fract_z
Si Si1 0.220592 0.364733 0.618110
Si Si2 0.860728 0.749554 0.428658
Si Si3 0.744418 0.562876 0.382477
Si Si4 0.378953 0.328272 0.171625
Si Si5 0.156395 0.936126 0.579016
Si Si6 0.590424 0.438264 0.317818
Si Si7 0.500000 0.000000 0.849997
Si Si8 0.186529 0.319960 0.185145
O O1 0.225193 0.389389 0.455783
O O2 0.229953 0.418614 0.722448
O O3 0.173738 0.339241 0.657871
O O4 0.261528 0.323885 0.653402
O O5 0.889728 0.706068 0.524632
O O6 0.886092 0.788822 0.313148
O O7 0.826664 0.714281 0.328942
O O8 0.835536 0.788518 0.546084
O O9 0.763779 0.500000 0.383036
O O10 0.700056 0.563179 0.478424
O O11 0.400997 0.388538 0.203260
O O12 0.116055 0.924894 0.468424
O O13 0.165258 0.883336 0.684871
O O14 0.151138 0.000000 0.641193
O O15 0.609403 0.500000 0.267727
O O16 0.539475 0.451496 0.345738
#
# Coordination Sequence:
#
# PCOD9368397 Si02
#       8
#    16  16  16  16  16  16   4  16
#     4  11  20  30  46  66 102 148 191 235 264 293
#     4  10  22  33  51  71 108 156 193 228 264 293
#     4  10  19  29  43  68 100 143 185 222 273 317
#     4  11  20  35  51  77 108 145 187 228 266 324
#     4   9  16  31  54  72 104 140 167 227 277 318
#     4   9  17  34  58  87 107 129 175 220 282 328
#     4   8  20  32  64 100  98 132 164 228 276 352
#     4  10  20  34  45  75 104 148 199 223 259 301
#
# _framework density 17.698329999999999
#
# number of rings (size 3 to 8) (size 9 to 14) (size 15 to 20)
#    0.414    1.655    2.759    2.069    0.000    4.414 
#    0.000    0.690    0.000    0.828    0.000    1.931 
#    0.000    0.000    0.000    0.000    0.000    0.000 
#
# Total GULP energy -161435.582238 kJ/mol
# GULP energy per Si atom -5566.744215 kJ/mol
# Density = 1.765805 g / cm^3
# Si number density = 17.698330 Si / 1000 Ang^3
#
#
#
# Elastic Constant Matrix: (Units=GPa)
#
#
# Indices 1 2 3 4 5 6 
#
# 1 48.6446 24.5856 12.0357 0.0001 0.0000 0.0000
# 2 24.5856 95.1466 30.9788 -0.0004 0.0000 0.0000
# 3 12.0357 30.9788 74.3759 -0.0009 0.0001 0.0000
# 4 0.0001 -0.0004 -0.0009 26.8363 0.0000 0.0000
# 5 0.0000 0.0000 0.0001 0.0000 3.1065 0.0000
# 6 0.0000 0.0000 0.0000 0.0000 0.0000 19.3257
#
#
#
# Elastic Compliance Matrix: (Units=1/GPa)
#
#
# Indices 1 2 3 4 5 6 
#
# 1 0.023787 -0.005661 -0.001491 0.000000 0.000000 0.000000
# 2 -0.005661 0.013506 -0.004710 0.000000 0.000000 0.000000
# 3 -0.001491 -0.004710 0.015648 0.000000 0.000000 0.000000
# 4 0.000000 0.000000 0.000000 0.037263 0.000000 0.000000
# 5 0.000000 0.000000 0.000000 0.000000 0.321911 0.000000
# 6 0.000000 0.000000 0.000000 0.000000 0.000000 0.051745
#
#
# Mechanical properties :
#
#
# Convention : Reuss Voigt Hill
#
# Bulk Modulus (GPa) = 34.22554 39.26304 36.74429
# Shear Modulus (GPa) = 10.05382 19.89149 14.97266
#
# Velocity S-wave (km/s) = 2.38600 3.35613 2.91175
# Velocity P-wave (km/s) = 5.19335 6.10335 5.66665
#
# Compressibility (1/GPa) = 0.02921794
#
# Stress axis : x y z
#
# Youngs Moduli (GPa) = 42.03902 74.03982 63.90529
#
# Poissons Ratio (x) = 0.41914 0.09531
# Poissons Ratio (y) = 0.23798 0.30096
# Poissons Ratio (z) = 0.06270 0.34869
#
# Static dielectric constant tensor:
#      x y z
#    x 1.562740 0.000000 0.000000 
#    y 0.000000 1.696090 0.000000 
#    z 0.000000 0.000000 1.625460 
# 
# From -- ./inp_files/5670.got.cif
#   From: 2010.05.17/outbox.cif.g08.bks.cpg/sg42_3_cif.got.tgz:5670.got - 2010.06.03 19:03:34.
