data_PCOD9368327
_publ_section_title
;
Structure prediction by ZEFSAII (Michael W. Deem and Ramdas Pophale) SiO2 
 PCOD9368327
Probable space group: F M M 2
;
_chemical_formula_sum "Si O2"
_cell_formula_units_Z 80
_cell_length_a 16.319723
_cell_length_b 10.505151
_cell_length_c 23.666140
_cell_angle_alpha 90.000000
_cell_angle_beta 90.000000
_cell_angle_gamma 90.000000
_cell_volume 4057.350362
_symmetry_space_group_name_H-M "F M M 2"
_symmetry_group_IT_number 42
_symmetry_cell_setting 'orthorhombic'
loop_
_space_group_symop_operation_xyz
x,y,z
-x,-y,z
-x,y,z
x,-y,z
x,1/2+y,1/2+z
-x,1/2-y,1/2+z
-x,1/2+y,1/2+z
x,1/2-y,1/2+z
1/2+x,y,1/2+z
1/2-x,-y,1/2+z
1/2-x,y,1/2+z
1/2+x,-y,1/2+z
1/2+x,1/2+y,z
1/2-x,1/2-y,z
1/2-x,1/2+y,z
1/2+x,1/2-y,z
loop_
_atom_site_type_symbol
_atom_site_label
_atom_site_fract_x
_atom_site_fract_y
_atom_site_fract_z
Si Si1 0.599102 0.000000 0.732141
Si Si2 0.098581 0.000000 0.713402
Si Si3 0.595298 0.245353 0.914567
Si Si4 0.866763 0.500000 0.346531
Si Si5 0.173003 0.500000 0.857056
Si Si6 0.899880 0.852203 0.034181
Si Si7 0.399886 0.258708 0.156255
O O1 0.637282 0.000000 0.793818
O O2 0.623248 0.875784 0.696506
O O3 0.500000 0.000000 0.737458
O O4 0.129820 0.126961 0.682816
O O5 0.115485 0.000000 0.779946
O O6 0.000000 0.000000 0.707243
O O7 0.500000 0.208055 0.918955
O O8 0.599933 0.372335 0.876209
O O9 0.642832 0.127663 0.887908
O O10 0.626418 0.283165 0.976873
O O11 0.770050 0.500000 0.354936
O O12 0.873491 0.785247 0.092116
O O13 0.000000 0.852603 0.033574
O O14 0.874446 0.000000 0.033981
O O15 0.500000 0.256584 0.155551
#
# Coordination Sequence:
#
# PCOD9368327 Si02
#       7
#     8   8  16   8   8  16  16
#     4  10  18  33  56  80 110 151 193 238 287 352
#     4  10  20  33  54  86 116 151 197 244 289 346
#     4  11  22  39  64  90 116 156 205 250 290 351
#     4  12  24  41  60  82 124 167 199 238 299 366
#     4  12  26  39  56  88 128 157 195 252 309 344
#     4   9  16  31  57  87 114 145 192 246 297 351
#     4   9  17  30  54  85 114 142 187 246 296 340
#
# _framework density 19.717300999999999
#
# number of rings (size 3 to 8) (size 9 to 14) (size 15 to 20)
#    0.000    1.800    2.000    3.600    0.000    2.400 
#    0.000    3.000    0.000    7.200    0.000    0.000 
#    0.000    0.000    0.000    0.000    0.000    0.000 
#
# Total GULP energy -111764.480906 kJ/mol
# GULP energy per Si atom -5588.224045 kJ/mol
# Density = 1.967242 g / cm^3
# Si number density = 19.717301 Si / 1000 Ang^3
#
#
#
# Elastic Constant Matrix: (Units=GPa)
#
#
# Indices 1 2 3 4 5 6 
#
# 1 29.0041 13.4139 9.6975 0.0000 0.0000 0.0000
# 2 13.4139 161.3300 93.6730 0.0000 0.0000 0.0000
# 3 9.6975 93.6730 199.0327 0.0000 0.0000 0.0000
# 4 0.0000 0.0000 0.0000 -75.9645 0.0000 0.0000
# 5 0.0000 0.0000 0.0000 0.0000 -19.7399 0.0000
# 6 0.0000 0.0000 0.0000 0.0000 0.0000 16.0622
#
#
#
# Elastic Compliance Matrix: (Units=1/GPa)
#
#
# Indices 1 2 3 4 5 6 
#
# 1 0.035889 -0.002709 -0.000474 0.000000 0.000000 0.000000
# 2 -0.002709 0.008734 -0.003978 0.000000 0.000000 0.000000
# 3 -0.000474 -0.003978 0.006920 0.000000 0.000000 0.000000
# 4 0.000000 0.000000 0.000000 -0.013164 0.000000 0.000000
# 5 0.000000 0.000000 0.000000 0.000000 -0.050659 0.000000
# 6 0.000000 0.000000 0.000000 0.000000 0.000000 0.062258
#
#
# Mechanical properties :
#
#
# Convention : Reuss Voigt Hill
#
# Bulk Modulus (GPa) = 26.86698 69.21508 48.04103
# Shear Modulus (GPa) = 65.18342 2.24373 33.71357
#
# Velocity S-wave (km/s) = 5.75593 1.06791 4.13952
# Velocity P-wave (km/s) = 7.60461 6.05809 6.87497
#
# Compressibility (1/GPa) = 0.03722041
#
# Stress axis : x y z
#
# Youngs Moduli (GPa) = 27.86358 114.49856 144.51265
#
# Poissons Ratio (x) = 0.31018 0.06845
# Poissons Ratio (y) = 0.07548 0.57494
# Poissons Ratio (z) = 0.01320 0.45553
#
# Static dielectric constant tensor:
#      x y z
#    x 1.675190 0.000000 0.000000 
#    y 0.000000 1.700200 0.000000 
#    z 0.000000 0.000000 1.666720 
# 
# From -- ./inp_files/25769.got.cif
#   From: 2010.05.17/outbox.cif.g08.bks.cpg/sg42_13_cif.got.tgz:25769.got - 2010.06.03 19:03:34.
