data_PCOD9368483
_publ_section_title
;
Structure prediction by ZEFSAII (Michael W. Deem and Ramdas Pophale) SiO2 
 PCOD9368483
Probable space group: F M M 2
;
_chemical_formula_sum "Si O2"
_cell_formula_units_Z 112
_cell_length_a 14.589498
_cell_length_b 16.044123
_cell_length_c 23.812733
_cell_angle_alpha 90.000000
_cell_angle_beta 90.000000
_cell_angle_gamma 90.000000
_cell_volume 5573.982156
_symmetry_space_group_name_H-M "F M M 2"
_symmetry_group_IT_number 42
_symmetry_cell_setting 'orthorhombic'
loop_
_space_group_symop_operation_xyz
x,y,z
-x,-y,z
-x,y,z
x,-y,z
x,1/2+y,1/2+z
-x,1/2-y,1/2+z
-x,1/2+y,1/2+z
x,1/2-y,1/2+z
1/2+x,y,1/2+z
1/2-x,-y,1/2+z
1/2-x,y,1/2+z
1/2+x,-y,1/2+z
1/2+x,1/2+y,z
1/2-x,1/2-y,z
1/2-x,1/2+y,z
1/2+x,1/2-y,z
loop_
_atom_site_type_symbol
_atom_site_label
_atom_site_fract_x
_atom_site_fract_y
_atom_site_fract_z
Si Si1 0.602415 0.670231 0.928870
Si Si2 0.220558 0.155818 0.261857
Si Si3 0.604464 0.220083 0.040955
Si Si4 0.602961 0.092190 0.215825
Si Si5 0.893694 0.274582 0.661748
Si Si6 0.392267 0.839704 0.868694
Si Si7 0.785364 0.906490 0.472265
O O1 0.500000 0.635681 0.917080
O O2 0.625907 0.741425 0.882917
O O3 0.688285 0.611801 0.941758
O O4 0.596449 0.720923 0.987183
O O5 0.250000 0.250000 0.275295
O O6 0.311240 0.100598 0.257138
O O7 0.167863 0.168510 0.202334
O O8 0.155647 0.130009 0.312324
O O9 0.500000 0.184982 0.050623
O O10 0.629194 0.272685 0.096128
O O11 0.681444 0.154035 0.022401
O O12 0.500000 0.097826 0.240868
O O13 0.613395 0.176362 0.179195
O O14 0.608112 0.000000 0.188376
O O15 0.000000 0.298453 0.669260
O O16 0.500000 0.847141 0.862933
O O17 0.357958 0.889742 0.922678
O O18 0.786930 0.000000 0.492782
#
# Coordination Sequence:
#
# PCOD9368483 Si02
#       7
#    16  16  16  16  16  16  16
#     4   9  19  36  56  76 102 139 180 220 263 313
#     4  10  19  32  54  80 104 135 177 223 266 317
#     4   9  18  34  56  79 105 138 176 221 269 316
#     4   9  19  34  49  71 106 142 175 214 263 320
#     4   9  18  33  55  81 105 134 176 224 270 317
#     4  10  20  36  57  78 103 135 174 223 272 318
#     4  11  22  34  52  80 112 143 177 218 265 319
#
# _framework density 20.093354999999999
#
# number of rings (size 3 to 8) (size 9 to 14) (size 15 to 20)
#    0.000    2.429    0.000    4.286    0.000    6.571 
#    0.000    2.143    0.000    1.286    0.000    2.000 
#    0.000    0.000    0.000    0.000    0.000    0.000 
#
# Total GULP energy -156002.435905 kJ/mol
# GULP energy per Si atom -5571.515568 kJ/mol
# Density = 2.004762 g / cm^3
# Si number density = 20.093355 Si / 1000 Ang^3
#
#
#
# Elastic Constant Matrix: (Units=GPa)
#
#
# Indices 1 2 3 4 5 6 
#
# 1 91.6150 9.5437 43.1889 0.0000 0.0000 0.0000
# 2 9.5437 23.0657 -6.9687 0.0000 0.0000 0.0000
# 3 43.1889 -6.9687 90.2151 0.0000 0.0000 0.0000
# 4 0.0000 0.0000 0.0000 0.8025 0.0000 0.0000
# 5 0.0000 0.0000 0.0000 0.0000 29.3148 0.0000
# 6 0.0000 0.0000 0.0000 0.0000 0.0000 13.0999
#
#
#
# Elastic Compliance Matrix: (Units=1/GPa)
#
#
# Indices 1 2 3 4 5 6 
#
# 1 0.015729 -0.008993 -0.008225 0.000000 0.000000 0.000000
# 2 -0.008993 0.049532 0.008131 0.000000 0.000000 0.000000
# 3 -0.008225 0.008131 0.015650 0.000000 0.000000 0.000000
# 4 0.000000 0.000000 0.000000 1.246044 0.000000 0.000000
# 5 0.000000 0.000000 0.000000 0.000000 0.034112 0.000000
# 6 0.000000 0.000000 0.000000 0.000000 0.000000 0.076336
#
#
# Mechanical properties :
#
#
# Convention : Reuss Voigt Hill
#
# Bulk Modulus (GPa) = 15.93915 32.93596 24.43756
# Shear Modulus (GPa) = 3.38641 19.25224 11.31933
#
# Velocity S-wave (km/s) = 1.29961 3.09874 2.37605
# Velocity P-wave (km/s) = 3.19402 5.40648 4.44026
#
# Compressibility (1/GPa) = 0.06273861
#
# Stress axis : x y z
#
# Youngs Moduli (GPa) = 63.57518 20.18892 63.89682
#
# Poissons Ratio (x) = 0.18156 0.52554
# Poissons Ratio (y) = 0.57174 -0.51957
# Poissons Ratio (z) = 0.52290 -0.16416
#
# Static dielectric constant tensor:
#      x y z
#    x 1.784110 0.000000 0.000000 
#    y 0.000000 1.717920 0.000000 
#    z 0.000000 0.000000 1.724850 
# 
# From -- ./inp_files/29480.got.cif
#   From: 2010.05.17/outbox.cif.g08.bks.cpg/sg42_15_cif.got.tgz:29480.got - 2010.06.03 19:03:34.
