data_PCOD9368728
_publ_section_title
;
Structure prediction by ZEFSAII (Michael W. Deem and Ramdas Pophale) SiO2 
 PCOD9368728
Probable space group: F M M 2
;
_chemical_formula_sum "Si O2"
_cell_formula_units_Z 72
_cell_length_a 7.822598
_cell_length_b 15.036009
_cell_length_c 25.009568
_cell_angle_alpha 90.000000
_cell_angle_beta 90.000000
_cell_angle_gamma 90.000000
_cell_volume 2941.641743
_symmetry_space_group_name_H-M "F M M 2"
_symmetry_group_IT_number 42
_symmetry_cell_setting 'orthorhombic'
loop_
_space_group_symop_operation_xyz
x,y,z
-x,-y,z
-x,y,z
x,-y,z
x,1/2+y,1/2+z
-x,1/2-y,1/2+z
-x,1/2+y,1/2+z
x,1/2-y,1/2+z
1/2+x,y,1/2+z
1/2-x,-y,1/2+z
1/2-x,y,1/2+z
1/2+x,-y,1/2+z
1/2+x,1/2+y,z
1/2-x,1/2-y,z
1/2-x,1/2+y,z
1/2+x,1/2-y,z
loop_
_atom_site_type_symbol
_atom_site_label
_atom_site_fract_x
_atom_site_fract_y
_atom_site_fract_z
Si Si1 0.802090 0.146471 0.214910
Si Si2 0.796856 0.854049 0.599347
Si Si3 0.250000 0.750000 0.901889
Si Si4 0.791930 0.600396 0.980445
Si Si5 0.301408 0.599702 0.829258
O O1 0.750000 0.250000 0.212325
O O2 0.772751 0.109572 0.155393
O O3 0.705597 0.106432 0.265239
O O4 0.000000 0.138676 0.227770
O O5 0.750000 0.750000 0.596681
O O6 0.742265 0.893719 0.542747
O O7 0.000000 0.863416 0.602418
O O8 0.302793 0.674966 0.945788
O O9 0.190864 0.675988 0.857959
O O10 0.759513 0.500000 0.962393
O O11 0.000000 0.617448 0.976365
O O12 0.500000 0.615816 0.845062
O O13 0.249350 0.500000 0.843772
#
# Coordination Sequence:
#
# PCOD9368728 Si02
#       5
#    16  16   8  16  16
#     4  11  22  39  66  97 130 169 213 265 326 388
#     4  10  19  36  63  94 129 169 210 259 322 386
#     4  12  22  42  68  90 124 174 220 274 316 378
#     4  10  22  39  62  94 129 169 216 263 319 381
#     4  11  25  43  65  96 132 172 217 269 329 386
#
# _framework density 24.476126000000001
#
# number of rings (size 3 to 8) (size 9 to 14) (size 15 to 20)
#    0.000    1.333    2.222    5.333    0.000    2.222 
#    0.000    2.222    0.000    6.000    0.000    0.000 
#    0.000    0.000    0.000    0.000    0.000    0.000 
#
# Total GULP energy -100396.212032 kJ/mol
# GULP energy per Si atom -5577.567335 kJ/mol
# Density = 2.442042 g / cm^3
# Si number density = 24.476126 Si / 1000 Ang^3
#
#
#
# Elastic Constant Matrix: (Units=GPa)
#
#
# Indices 1 2 3 4 5 6 
#
# 1 76.8025 20.8834 19.1060 0.0000 0.0000 0.0000
# 2 20.8834 181.4226 72.8926 0.0000 0.0000 0.0000
# 3 19.1060 72.8926 217.5414 0.0000 0.0000 0.0000
# 4 0.0000 0.0000 0.0000 -185.4073 0.0000 0.0000
# 5 0.0000 0.0000 0.0000 0.0000 -15.0679 0.0000
# 6 0.0000 0.0000 0.0000 0.0000 0.0000 -0.4500
#
#
#
# Elastic Compliance Matrix: (Units=1/GPa)
#
#
# Indices 1 2 3 4 5 6 
#
# 1 0.013552 -0.001250 -0.000771 0.000000 0.000000 0.000000
# 2 -0.001250 0.006485 -0.002063 0.000000 0.000000 0.000000
# 3 -0.000771 -0.002063 0.005356 0.000000 0.000000 0.000000
# 4 0.000000 0.000000 0.000000 -0.005394 0.000000 0.000000
# 5 0.000000 0.000000 0.000000 0.000000 -0.066366 0.000000
# 6 0.000000 0.000000 0.000000 0.000000 0.000000 -2.221991
#
#
# Mechanical properties :
#
#
# Convention : Reuss Voigt Hill
#
# Bulk Modulus (GPa) = 58.05922 77.94784 68.00353
# Shear Modulus (GPa) = -2.21784 -15.99274 -9.10529
#
# Velocity S-wave (km/s) = -0.95294 -2.55895 -1.93084
# Velocity P-wave (km/s) = 4.74989 4.81505 4.78258
#
# Compressibility (1/GPa) = 0.01722379
#
# Stress axis : x y z
#
# Youngs Moduli (GPa) = 73.78868 154.20662 186.71109
#
# Poissons Ratio (x) = 0.19277 0.14403
# Poissons Ratio (y) = 0.09224 0.38520
# Poissons Ratio (z) = 0.05692 0.31814
#
# Static dielectric constant tensor:
#      x y z
#    x 1.982970 0.000000 0.000000 
#    y 0.000000 1.889740 0.000000 
#    z 0.000000 0.000000 1.950580 
# 
# From -- ./inp_files/31056.got.cif
#   From: 2010.05.17/outbox.cif.g08.bks.cpg/sg42_16_cif.got.tgz:31056.got - 2010.06.03 19:03:34.
