data_PCOD9368144
_publ_section_title
;
Structure prediction by ZEFSAII (Michael W. Deem and Ramdas Pophale) SiO2 
 PCOD9368144
Probable space group: F M M 2
;
_chemical_formula_sum "Si O2"
_cell_formula_units_Z 112
_cell_length_a 28.485473
_cell_length_b 14.697469
_cell_length_c 14.703972
_cell_angle_alpha 90.000000
_cell_angle_beta 90.000000
_cell_angle_gamma 90.000000
_cell_volume 6156.028973
_symmetry_space_group_name_H-M "F M M 2"
_symmetry_group_IT_number 42
_symmetry_cell_setting 'orthorhombic'
loop_
_space_group_symop_operation_xyz
x,y,z
-x,-y,z
-x,y,z
x,-y,z
x,1/2+y,1/2+z
-x,1/2-y,1/2+z
-x,1/2+y,1/2+z
x,1/2-y,1/2+z
1/2+x,y,1/2+z
1/2-x,-y,1/2+z
1/2-x,y,1/2+z
1/2+x,-y,1/2+z
1/2+x,1/2+y,z
1/2-x,1/2-y,z
1/2-x,1/2+y,z
1/2+x,1/2-y,z
loop_
_atom_site_type_symbol
_atom_site_label
_atom_site_fract_x
_atom_site_fract_y
_atom_site_fract_z
Si Si1 0.553142 0.604152 0.225520
Si Si2 0.785561 0.896104 0.109090
Si Si3 0.050763 0.605878 0.946966
Si Si4 0.359480 0.282496 0.219029
Si Si5 0.804555 0.103436 0.726670
Si Si6 0.648195 0.394065 0.404958
Si Si7 0.253704 0.641777 0.916686
O O1 0.500000 0.616445 0.192330
O O2 0.568215 0.500000 0.202917
O O3 0.550993 0.609092 0.336125
O O4 0.588854 0.681612 0.193475
O O5 0.822600 0.828350 0.151689
O O6 0.734148 0.874256 0.149686
O O7 0.795966 0.000000 0.137304
O O8 0.785188 0.887699 0.001058
O O9 0.049101 0.500000 0.974649
O O10 0.104215 0.637433 0.967945
O O11 0.000000 0.646961 0.975839
O O12 0.346113 0.176959 0.225839
O O13 0.350729 0.329735 0.316961
O O14 0.775329 0.109235 0.821425
O O15 0.820826 0.000000 0.713506
O O16 0.638745 0.500000 0.380315
O O17 0.701269 0.392302 0.439206
O O18 0.250000 0.750000 0.911781
#
# Coordination Sequence:
#
# PCOD9368144 Si02
#       7
#    16  16  16  16  16  16  16
#     4   8  14  25  46  77 106 127 156 207 266 321
#     4  11  22  34  51  75 103 137 174 218 265 315
#     4   7  11  20  36  62  93 121 149 185 238 302
#     4  11  18  32  50  74 101 137 170 207 262 319
#     4  11  22  36  49  69 102 140 183 221 253 297
#     4  10  17  27  46  69  98 131 159 198 253 307
#     4  12  21  34  49  71 103 140 182 218 255 307
#
# _framework density 18.193546999999999
#
# number of rings (size 3 to 8) (size 9 to 14) (size 15 to 20)
#    0.000    2.000    2.857    5.571    0.000    0.000 
#    0.000    0.000    0.000    0.429    0.000    5.000 
#    0.000    3.429    0.000    0.000    0.000    0.429 
#
# Total GULP energy -155963.030912 kJ/mol
# GULP energy per Si atom -5570.108247 kJ/mol
# Density = 1.815214 g / cm^3
# Si number density = 18.193547 Si / 1000 Ang^3
#
#
#
# Elastic Constant Matrix: (Units=GPa)
#
#
# Indices 1 2 3 4 5 6 
#
# 1 113.5380 46.9598 -1.1833 0.0000 0.0000 0.0000
# 2 46.9598 89.0920 -4.9124 0.0000 0.0000 0.0000
# 3 -1.1833 -4.9124 33.6292 0.0000 0.0000 0.0000
# 4 0.0000 0.0000 0.0000 -5.5240 0.0000 0.0000
# 5 0.0000 0.0000 0.0000 0.0000 6.9883 0.0000
# 6 0.0000 0.0000 0.0000 0.0000 0.0000 22.5617
#
#
#
# Elastic Compliance Matrix: (Units=1/GPa)
#
#
# Indices 1 2 3 4 5 6 
#
# 1 0.011271 -0.005967 -0.000475 0.000000 0.000000 0.000000
# 2 -0.005967 0.014474 0.001904 0.000000 0.000000 0.000000
# 3 -0.000475 0.001904 0.029997 0.000000 0.000000 0.000000
# 4 0.000000 0.000000 0.000000 -0.181029 0.000000 0.000000
# 5 0.000000 0.000000 0.000000 0.000000 0.143097 0.000000
# 6 0.000000 0.000000 0.000000 0.000000 0.000000 0.044323
#
#
# Mechanical properties :
#
#
# Convention : Reuss Voigt Hill
#
# Bulk Modulus (GPa) = 21.42817 35.33197 28.38007
# Shear Modulus (GPa) = 57.62726 17.83155 37.72940
#
# Velocity S-wave (km/s) = 5.63412 3.13406 4.55882
# Velocity P-wave (km/s) = 7.35717 5.70602 6.58356
#
# Compressibility (1/GPa) = 0.04666753
#
# Stress axis : x y z
#
# Youngs Moduli (GPa) = 88.72655 69.08733 33.33612
#
# Poissons Ratio (x) = 0.41223 0.01584
# Poissons Ratio (y) = 0.52942 -0.06348
# Poissons Ratio (z) = 0.04215 -0.13157
#
# Static dielectric constant tensor:
#      x y z
#    x 1.712100 0.000000 0.000000 
#    y 0.000000 1.660080 0.000000 
#    z 0.000000 0.000000 1.612220 
# 
# From -- ./inp_files/17074.got.cif
#   From: 2010.05.17/outbox.cif.g08.bks.cpg/sg42_9_cif.got.tgz:17074.got - 2010.06.03 19:03:34.
