data_PCOD9368132
_publ_section_title
;
Structure prediction by ZEFSAII (Michael W. Deem and Ramdas Pophale) SiO2 
 PCOD9368132
Probable space group: F M M 2
;
_chemical_formula_sum "Si O2"
_cell_formula_units_Z 80
_cell_length_a 8.703338
_cell_length_b 27.259030
_cell_length_c 18.656813
_cell_angle_alpha 90.000000
_cell_angle_beta 90.000000
_cell_angle_gamma 90.000000
_cell_volume 4426.227235
_symmetry_space_group_name_H-M "F M M 2"
_symmetry_group_IT_number 42
_symmetry_cell_setting 'orthorhombic'
loop_
_space_group_symop_operation_xyz
x,y,z
-x,-y,z
-x,y,z
x,-y,z
x,1/2+y,1/2+z
-x,1/2-y,1/2+z
-x,1/2+y,1/2+z
x,1/2-y,1/2+z
1/2+x,y,1/2+z
1/2-x,-y,1/2+z
1/2-x,y,1/2+z
1/2+x,-y,1/2+z
1/2+x,1/2+y,z
1/2-x,1/2-y,z
1/2-x,1/2+y,z
1/2+x,1/2-y,z
loop_
_atom_site_type_symbol
_atom_site_label
_atom_site_fract_x
_atom_site_fract_y
_atom_site_fract_z
Si Si1 0.312740 0.000000 0.963990
Si Si2 0.183445 0.500000 0.128017
Si Si3 0.684319 0.592338 0.211239
Si Si4 0.685507 0.902524 0.879789
Si Si5 0.816843 0.199847 0.876893
Si Si6 0.684287 0.700445 0.214650
O O1 0.265298 0.049481 0.923266
O O2 0.500000 0.000000 0.962827
O O3 0.260991 0.000000 0.045967
O O4 0.240511 0.451599 0.168463
O O5 0.000000 0.500000 0.127310
O O6 0.500000 0.587333 0.207319
O O7 0.725714 0.590261 0.295750
O O8 0.724748 0.647062 0.183352
O O9 0.500000 0.897704 0.883240
O O10 0.759048 0.851938 0.907614
O O11 0.750000 0.250000 0.910207
O O12 0.751757 0.199161 0.795359
O O13 0.000000 0.202106 0.875752
O O14 0.500000 0.703797 0.219259
O O15 0.750000 0.750000 0.179924
#
# Coordination Sequence:
#
# PCOD9368132 Si02
#       6
#     8   8  16  16  16  16
#     4   9  19  35  53  71  94 127 164 202 246 291
#     4  11  22  33  49  73  98 127 162 202 246 289
#     4   9  18  32  51  73  97 129 162 195 239 288
#     4   9  17  33  54  72  94 127 167 203 236 282
#     4  10  17  26  43  71 103 129 156 193 240 287
#     4   9  16  27  45  70  98 128 160 194 238 285
#
# _framework density 18.074082000000001
#
# number of rings (size 3 to 8) (size 9 to 14) (size 15 to 20)
#    0.000    2.600    0.000    5.700    0.000    5.600 
#    0.000    2.500    0.000    1.200    0.000    2.800 
#    0.000    0.000    0.000    0.000    0.000    0.000 
#
# Total GULP energy -111452.063701 kJ/mol
# GULP energy per Si atom -5572.603185 kJ/mol
# Density = 1.803294 g / cm^3
# Si number density = 18.074082 Si / 1000 Ang^3
#
#
#
# Elastic Constant Matrix: (Units=GPa)
#
#
# Indices 1 2 3 4 5 6 
#
# 1 56.9578 64.1069 21.1270 0.0000 0.0000 0.0000
# 2 64.1069 237.5081 67.1450 0.0000 0.0000 0.0000
# 3 21.1270 67.1450 50.7122 0.0000 0.0000 0.0000
# 4 0.0000 0.0000 0.0000 -4.8966 0.0000 0.0000
# 5 0.0000 0.0000 0.0000 0.0000 11.0083 0.0000
# 6 0.0000 0.0000 0.0000 0.0000 0.0000 37.7309
#
#
#
# Elastic Compliance Matrix: (Units=1/GPa)
#
#
# Indices 1 2 3 4 5 6 
#
# 1 0.025400 -0.006176 -0.002404 0.000000 0.000000 0.000000
# 2 -0.006176 0.008231 -0.008325 0.000000 0.000000 0.000000
# 3 -0.002404 -0.008325 0.031744 0.000000 0.000000 0.000000
# 4 0.000000 0.000000 0.000000 -0.204225 0.000000 0.000000
# 5 0.000000 0.000000 0.000000 0.000000 0.090840 0.000000
# 6 0.000000 0.000000 0.000000 0.000000 0.000000 0.026503
#
#
# Mechanical properties :
#
#
# Convention : Reuss Voigt Hill
#
# Bulk Modulus (GPa) = 31.68231 72.21510 51.94870
# Shear Modulus (GPa) = 219.04957 21.62181 120.33569
#
# Velocity S-wave (km/s) = 11.02082 3.46249 8.16846
# Velocity P-wave (km/s) = 13.39820 7.48511 10.85216
#
# Compressibility (1/GPa) = 0.03156336
#
# Stress axis : x y z
#
# Youngs Moduli (GPa) = 39.37010 121.49239 31.50241
#
# Poissons Ratio (x) = 0.75035 0.07574
# Poissons Ratio (y) = 0.24315 0.26226
# Poissons Ratio (z) = 0.09466 1.01144
#
# Static dielectric constant tensor:
#      x y z
#    x 1.607210 0.000000 0.000000 
#    y 0.000000 1.673870 0.000000 
#    z 0.000000 0.000000 1.588220 
# 
# From -- ./inp_files/18255.got.cif
#   From: 2010.05.17/outbox.cif.g08.bks.cpg/sg42_10_cif.got.tgz:18255.got - 2010.06.03 19:03:34.
