data_PCOD9368547
_publ_section_title
;
Structure prediction by ZEFSAII (Michael W. Deem and Ramdas Pophale) SiO2 
 PCOD9368547
Probable space group: F M M 2
;
_chemical_formula_sum "Si O2"
_cell_formula_units_Z 80
_cell_length_a 9.028444
_cell_length_b 26.893963
_cell_length_c 17.994447
_cell_angle_alpha 90.000000
_cell_angle_beta 90.000000
_cell_angle_gamma 90.000000
_cell_volume 4369.243172
_symmetry_space_group_name_H-M "F M M 2"
_symmetry_group_IT_number 42
_symmetry_cell_setting 'orthorhombic'
loop_
_space_group_symop_operation_xyz
x,y,z
-x,-y,z
-x,y,z
x,-y,z
x,1/2+y,1/2+z
-x,1/2-y,1/2+z
-x,1/2+y,1/2+z
x,1/2-y,1/2+z
1/2+x,y,1/2+z
1/2-x,-y,1/2+z
1/2-x,y,1/2+z
1/2+x,-y,1/2+z
1/2+x,1/2+y,z
1/2-x,1/2-y,z
1/2-x,1/2+y,z
1/2+x,1/2-y,z
loop_
_atom_site_type_symbol
_atom_site_label
_atom_site_fract_x
_atom_site_fract_y
_atom_site_fract_z
Si Si1 0.174970 0.902219 0.138790
Si Si2 0.671354 0.000000 0.538215
Si Si3 0.670181 0.700596 0.806868
Si Si4 0.179362 0.908413 0.799733
Si Si5 0.824705 0.500000 0.884224
Si Si6 0.172249 0.699061 0.125607
O O1 0.260506 0.912286 0.215736
O O2 0.242584 0.851520 0.104828
O O3 0.000000 0.894645 0.153741
O O4 0.190695 0.950415 0.087144
O O5 0.500000 0.000000 0.510588
O O6 0.783809 0.000000 0.470541
O O7 0.500000 0.703915 0.828801
O O8 0.750000 0.750000 0.833631
O O9 0.726666 0.646206 0.829248
O O10 0.676608 0.700263 0.716364
O O11 0.249639 0.951963 0.847267
O O12 0.000000 0.910474 0.799476
O O13 0.000000 0.500000 0.871148
O O14 0.250000 0.750000 0.099933
O O15 0.000000 0.697370 0.103947
#
# Coordination Sequence:
#
# PCOD9368547 Si02
#       6
#    16   8  16  16   8  16
#     4  10  19  33  55  82 109 138 176 218 260 311
#     4  10  23  40  55  73 103 141 175 214 267 320
#     4   8  15  26  44  72 103 135 166 201 248 299
#     4  10  20  35  55  79 109 142 174 212 261 313
#     4  12  25  38  55  77 101 135 179 224 267 312
#     4   9  16  27  45  73 107 140 173 212 261 309
#
# _framework density 18.309806999999999
#
# number of rings (size 3 to 8) (size 9 to 14) (size 15 to 20)
#    0.000    2.400    0.000    4.500    0.000    8.000 
#    0.000    0.000    0.000    1.200    0.000    5.600 
#    0.000    0.000    0.000    0.000    0.000    0.000 
#
# Total GULP energy -111543.079952 kJ/mol
# GULP energy per Si atom -5577.153998 kJ/mol
# Density = 1.826813 g / cm^3
# Si number density = 18.309807 Si / 1000 Ang^3
#
#
#
# Elastic Constant Matrix: (Units=GPa)
#
#
# Indices 1 2 3 4 5 6 
#
# 1 116.5588 86.7396 28.8016 0.0000 0.0000 0.0000
# 2 86.7396 185.1560 32.0318 0.0000 0.0000 0.0000
# 3 28.8016 32.0318 21.9449 0.0000 0.0000 0.0000
# 4 0.0000 0.0000 0.0000 -10.0213 0.0000 0.0000
# 5 0.0000 0.0000 0.0000 0.0000 20.7988 0.0000
# 6 0.0000 0.0000 0.0000 0.0000 0.0000 31.9182
#
#
#
# Elastic Compliance Matrix: (Units=1/GPa)
#
#
# Indices 1 2 3 4 5 6 
#
# 1 0.015547 -0.005021 -0.013075 0.000000 0.000000 0.000000
# 2 -0.005021 0.008847 -0.006324 0.000000 0.000000 0.000000
# 3 -0.013075 -0.006324 0.071960 0.000000 0.000000 0.000000
# 4 0.000000 0.000000 0.000000 -0.099787 0.000000 0.000000
# 5 0.000000 0.000000 0.000000 0.000000 0.048080 0.000000
# 6 0.000000 0.000000 0.000000 0.000000 0.000000 0.031330
#
#
# Mechanical properties :
#
#
# Convention : Reuss Voigt Hill
#
# Bulk Modulus (GPa) = 21.04665 68.75619 44.90142
# Shear Modulus (GPa) = 35.54805 20.27825 27.91315
#
# Velocity S-wave (km/s) = 4.41100 3.33153 3.90871
# Velocity P-wave (km/s) = 6.12064 7.24099 6.70426
#
# Compressibility (1/GPa) = 0.04751350
#
# Stress axis : x y z
#
# Youngs Moduli (GPa) = 64.32141 113.03161 13.89663
#
# Poissons Ratio (x) = 0.56755 0.18170
# Poissons Ratio (y) = 0.32297 0.08788
# Poissons Ratio (z) = 0.84103 0.71476
#
# Static dielectric constant tensor:
#      x y z
#    x 1.619190 0.000000 0.000000 
#    y 0.000000 1.648120 0.000000 
#    z 0.000000 0.000000 1.602560 
# 
# From -- ./inp_files/18244.got.cif
#   From: 2010.05.17/outbox.cif.g08.bks.cpg/sg42_10_cif.got.tgz:18244.got - 2010.06.03 19:03:34.
