data_PCOD9368834
_publ_section_title
;
Structure prediction by ZEFSAII (Michael W. Deem and Ramdas Pophale) SiO2 
 PCOD9368834
Probable space group: F M M 2
;
_chemical_formula_sum "Si O2"
_cell_formula_units_Z 104
_cell_length_a 21.164778
_cell_length_b 10.025754
_cell_length_c 25.573706
_cell_angle_alpha 90.000000
_cell_angle_beta 90.000000
_cell_angle_gamma 90.000000
_cell_volume 5426.557758
_symmetry_space_group_name_H-M "F M M 2"
_symmetry_group_IT_number 42
_symmetry_cell_setting 'orthorhombic'
loop_
_space_group_symop_operation_xyz
x,y,z
-x,-y,z
-x,y,z
x,-y,z
x,1/2+y,1/2+z
-x,1/2-y,1/2+z
-x,1/2+y,1/2+z
x,1/2-y,1/2+z
1/2+x,y,1/2+z
1/2-x,-y,1/2+z
1/2-x,y,1/2+z
1/2+x,-y,1/2+z
1/2+x,1/2+y,z
1/2-x,1/2-y,z
1/2-x,1/2+y,z
1/2+x,1/2-y,z
loop_
_atom_site_type_symbol
_atom_site_label
_atom_site_fract_x
_atom_site_fract_y
_atom_site_fract_z
Si Si1 0.167791 0.641577 0.648940
Si Si2 0.250000 0.750000 0.738396
Si Si3 0.426716 0.848090 0.878740
Si Si4 0.928935 0.157620 0.688920
Si Si5 0.630040 0.846007 0.298540
Si Si6 0.307392 0.843689 0.530690
Si Si7 0.425886 0.844204 0.004658
O O1 0.132963 0.500000 0.652111
O O2 0.214470 0.652718 0.698047
O O3 0.120344 0.763077 0.654567
O O4 0.201388 0.645835 0.593304
O O5 0.301009 0.677276 0.774181
O O6 0.500000 0.821562 0.865161
O O7 0.383512 0.746473 0.847602
O O8 0.422260 0.839710 0.941372
O O9 0.411578 0.000000 0.863453
O O10 0.915932 0.189518 0.749891
O O11 0.000000 0.190875 0.674491
O O12 0.919090 0.000000 0.683369
O O13 0.620361 0.000000 0.311975
O O14 0.250000 0.750000 0.509719
O O15 0.373534 0.762946 0.523048
O O16 0.308428 0.000000 0.511587
O O17 0.500000 0.816875 0.019022
O O18 0.412404 0.000000 0.020310
#
# Coordination Sequence:
#
# PCOD9368834 Si02
#       7
#    16   8  16  16  16  16  16
#     4  10  21  36  56  79 106 144 189 233 278 333
#     4  10  20  38  54  74 110 152 192 226 280 330
#     4   9  19  37  60  84 112 147 184 225 280 342
#     4   9  19  34  51  76 111 147 183 227 279 335
#     4  10  20  33  54  81 109 145 189 233 276 328
#     4  11  23  39  61  89 117 152 196 244 297 350
#     4   9  20  41  65  88 117 155 196 240 295 356
#
# _framework density 19.165004
#
# number of rings (size 3 to 8) (size 9 to 14) (size 15 to 20)
#    0.000    2.308    0.769    2.308    0.000    7.692 
#    1.385    4.615    0.000    0.000    0.000    0.000 
#    0.000    0.000    0.000    0.000    0.000    0.000 
#
# Total GULP energy -144928.369388 kJ/mol
# GULP energy per Si atom -5574.168053 kJ/mol
# Density = 1.912138 g / cm^3
# Si number density = 19.165004 Si / 1000 Ang^3
#
#
#
# Elastic Constant Matrix: (Units=GPa)
#
#
# Indices 1 2 3 4 5 6 
#
# 1 78.6479 58.9172 10.5386 0.0000 0.0000 0.0000
# 2 58.9172 83.9447 22.7101 0.0000 0.0000 0.0000
# 3 10.5386 22.7101 29.4333 0.0000 0.0000 0.0000
# 4 0.0000 0.0000 0.0000 26.9778 0.0000 0.0000
# 5 0.0000 0.0000 0.0000 0.0000 6.2464 0.0000
# 6 0.0000 0.0000 0.0000 0.0000 0.0000 18.9065
#
#
#
# Elastic Compliance Matrix: (Units=1/GPa)
#
#
# Indices 1 2 3 4 5 6 
#
# 1 0.027744 -0.021213 0.006434 0.000000 0.000000 0.000000
# 2 -0.021213 0.031274 -0.016535 0.000000 0.000000 0.000000
# 3 0.006434 -0.016535 0.044430 0.000000 0.000000 0.000000
# 4 0.000000 0.000000 0.000000 0.037067 0.000000 0.000000
# 5 0.000000 0.000000 0.000000 0.000000 0.160092 0.000000
# 6 0.000000 0.000000 0.000000 0.000000 0.000000 0.052892
#
#
# Mechanical properties :
#
#
# Convention : Reuss Voigt Hill
#
# Bulk Modulus (GPa) = 24.49837 41.81753 33.15795
# Shear Modulus (GPa) = 11.63510 17.08350 14.35930
#
# Velocity S-wave (km/s) = 2.46662 2.98886 2.74021
# Velocity P-wave (km/s) = 4.57415 5.81189 5.22977
#
# Compressibility (1/GPa) = 0.04081904
#
# Stress axis : x y z
#
# Youngs Moduli (GPa) = 36.04411 31.97512 22.50738
#
# Poissons Ratio (x) = 0.67828 -0.14480
# Poissons Ratio (y) = 0.76459 0.37217
# Poissons Ratio (z) = -0.23189 0.52872
#
# Static dielectric constant tensor:
#      x y z
#    x 1.679090 0.000000 0.000000 
#    y 0.000000 1.673800 0.000000 
#    z 0.000000 0.000000 1.660900 
# 
# From -- ./inp_files/33030.got.cif
#   From: 2010.05.17/outbox.cif.g08.bks.cpg/sg42_17_cif.got.tgz:33030.got - 2010.06.03 19:03:34.
