data_PCOD9368684
_publ_section_title
;
Structure prediction by ZEFSAII (Michael W. Deem and Ramdas Pophale) SiO2 
 PCOD9368684
Probable space group: F M M 2
;
_chemical_formula_sum "Si O2"
_cell_formula_units_Z 76
_cell_length_a 11.024124
_cell_length_b 31.863466
_cell_length_c 8.797218
_cell_angle_alpha 90.000000
_cell_angle_beta 90.000000
_cell_angle_gamma 90.000000
_cell_volume 3090.170618
_symmetry_space_group_name_H-M "F M M 2"
_symmetry_group_IT_number 42
_symmetry_cell_setting 'orthorhombic'
loop_
_space_group_symop_operation_xyz
x,y,z
-x,-y,z
-x,y,z
x,-y,z
x,1/2+y,1/2+z
-x,1/2-y,1/2+z
-x,1/2+y,1/2+z
x,1/2-y,1/2+z
1/2+x,y,1/2+z
1/2-x,-y,1/2+z
1/2-x,y,1/2+z
1/2+x,-y,1/2+z
1/2+x,1/2+y,z
1/2-x,1/2-y,z
1/2-x,1/2+y,z
1/2+x,1/2-y,z
loop_
_atom_site_type_symbol
_atom_site_label
_atom_site_fract_x
_atom_site_fract_y
_atom_site_fract_z
Si Si1 0.500000 0.195789 0.895830
Si Si2 0.858268 0.879940 0.127495
Si Si3 0.234523 0.205646 0.052384
Si Si4 0.821564 0.920141 0.800546
Si Si5 0.000000 0.500000 0.321601
Si Si6 0.500000 0.214268 0.334754
Si Si7 0.500000 0.366246 0.611624
O O1 0.364071 0.201937 0.968502
O O2 0.500000 0.236398 0.782231
O O3 0.500000 0.145568 0.934932
O O4 0.795450 0.834713 0.154433
O O5 0.830967 0.894802 0.956304
O O6 0.000000 0.872174 0.130535
O O7 0.815038 0.916815 0.240043
O O8 0.250000 0.250000 0.136955
O O9 0.120264 0.207847 0.937461
O O10 0.888761 0.894221 0.667235
O O11 0.893214 0.963176 0.819353
O O12 0.500000 0.177306 0.210019
#
# Coordination Sequence:
#
# PCOD9368684 Si02
#       7
#     8  16  16  16   4   8   8
#     4  10  21  33  57  89 121 180 251 286 341 422
#     4  12  23  47  74 109 146 198 242 302 362 439
#     4  10  19  35  63  89 139 188 242 290 346 407
#     4  11  24  45  78  98 143 185 237 292 380 445
#     4  10  24  52  78 106 136 200 216 304 400 450
#     4  10  19  37  57  81 127 186 237 296 347 414
#     4  11  18  39  66  82 132 196 222 293 370 427
#
# _framework density 24.594110000000001
#
# number of rings (size 3 to 8) (size 9 to 14) (size 15 to 20)
#    0.000    1.263    7.368    0.000    0.000    0.842 
#    5.684   18.947    0.000    0.000    0.000    0.000 
#    0.000    0.000    0.000    0.000    0.000    0.000 
#
# Total GULP energy -105782.595404 kJ/mol
# GULP energy per Si atom -5567.505021 kJ/mol
# Density = 2.453813 g / cm^3
# Si number density = 24.594110 Si / 1000 Ang^3
#
#
#
# Elastic Constant Matrix: (Units=GPa)
#
#
# Indices 1 2 3 4 5 6 
#
# 1 168.9354 33.2847 25.6074 0.0000 0.0000 0.0000
# 2 33.2847 154.8918 22.6946 0.0000 0.0000 0.0000
# 3 25.6074 22.6946 70.4837 0.0000 0.0000 0.0000
# 4 0.0000 0.0000 0.0000 -3.5642 0.0000 0.0000
# 5 0.0000 0.0000 0.0000 0.0000 18.7596 0.0000
# 6 0.0000 0.0000 0.0000 0.0000 0.0000 51.8942
#
#
#
# Elastic Compliance Matrix: (Units=1/GPa)
#
#
# Indices 1 2 3 4 5 6 
#
# 1 0.006436 -0.001092 -0.001987 0.000000 0.000000 0.000000
# 2 -0.001092 0.006961 -0.001845 0.000000 0.000000 0.000000
# 3 -0.001987 -0.001845 0.015503 0.000000 0.000000 0.000000
# 4 0.000000 0.000000 0.000000 -0.280572 0.000000 0.000000
# 5 0.000000 0.000000 0.000000 0.000000 0.053306 0.000000
# 6 0.000000 0.000000 0.000000 0.000000 0.000000 0.019270
#
#
# Mechanical properties :
#
#
# Convention : Reuss Voigt Hill
#
# Bulk Modulus (GPa) = 52.48281 61.94269 57.21275
# Shear Modulus (GPa) = -30.69401 34.26622 1.78610
#
# Velocity S-wave (km/s) = -3.53657 3.73670 0.85312
# Velocity P-wave (km/s) = 2.17013 6.62253 4.92785
#
# Compressibility (1/GPa) = 0.01905386
#
# Stress axis : x y z
#
# Youngs Moduli (GPa) = 155.38378 143.65689 64.50214
#
# Poissons Ratio (x) = 0.15686 0.12814
# Poissons Ratio (y) = 0.16966 0.11898
# Poissons Ratio (z) = 0.30868 0.26500
#
# Static dielectric constant tensor:
#      x y z
#    x 2.125670 0.000000 0.000000 
#    y 0.000000 1.959560 0.000000 
#    z 0.000000 0.000000 2.033250 
# 
# From -- ./inp_files/7025.got.cif
#   From: 2010.05.17/outbox.cif.g08.bks.cpg/sg42_4_cif.got.tgz:7025.got - 2010.06.03 19:03:34.
