data_PCOD9368646
_publ_section_title
;
Structure prediction by ZEFSAII (Michael W. Deem and Ramdas Pophale) SiO2 
 PCOD9368646
Probable space group: F M M 2
;
_chemical_formula_sum "Si O2"
_cell_formula_units_Z 116
_cell_length_a 23.409696
_cell_length_b 25.651781
_cell_length_c 9.661145
_cell_angle_alpha 90.000000
_cell_angle_beta 90.000000
_cell_angle_gamma 90.000000
_cell_volume 5801.521389
_symmetry_space_group_name_H-M "F M M 2"
_symmetry_group_IT_number 42
_symmetry_cell_setting 'orthorhombic'
loop_
_space_group_symop_operation_xyz
x,y,z
-x,-y,z
-x,y,z
x,-y,z
x,1/2+y,1/2+z
-x,1/2-y,1/2+z
-x,1/2+y,1/2+z
x,1/2-y,1/2+z
1/2+x,y,1/2+z
1/2-x,-y,1/2+z
1/2-x,y,1/2+z
1/2+x,-y,1/2+z
1/2+x,1/2+y,z
1/2-x,1/2-y,z
1/2-x,1/2+y,z
1/2+x,1/2-y,z
loop_
_atom_site_type_symbol
_atom_site_label
_atom_site_fract_x
_atom_site_fract_y
_atom_site_fract_z
Si Si1 0.185257 0.935890 0.257890
Si Si2 0.061017 0.560720 0.705513
Si Si3 0.069452 0.289177 0.650048
Si Si4 0.430885 0.690209 0.468165
Si Si5 0.000000 0.500000 0.114809
Si Si6 0.433857 0.880840 0.440379
Si Si7 0.726257 0.061680 0.043231
Si Si8 0.100643 0.088841 0.639482
O O1 0.119708 0.919291 0.266229
O O2 0.219645 0.917167 0.125233
O O3 0.219581 0.917114 0.390076
O O4 0.184074 0.000000 0.257387
O O5 0.057738 0.500000 0.741544
O O6 0.065871 0.568472 0.540326
O O7 0.000000 0.585335 0.747701
O O8 0.087213 0.235773 0.575376
O O9 0.086296 0.335616 0.544570
O O10 0.000000 0.289480 0.653325
O O11 0.087775 0.297593 0.809548
O O12 0.500000 0.690054 0.466797
O O13 0.410765 0.636140 0.534179
O O14 0.051054 0.545619 0.118135
O O15 0.500000 0.869008 0.404480
O O16 0.403055 0.890705 0.297313
O O17 0.664692 0.068201 0.114598
O O18 0.736360 0.000000 0.031031
#
# Coordination Sequence:
#
# PCOD9368646 Si02
#       8
#    16  16  16  16   4  16  16  16
#     4   9  20  39  55  78 108 154 210 256 297 350
#     4   9  19  33  54  83 119 156 193 243 303 366
#     4   9  19  34  57  82 116 156 205 257 314 364
#     4  10  19  35  56  82 116 159 201 258 313 367
#     4  12  24  40  52  82 140 180 202 262 298 372
#     4  10  20  33  52  83 119 158 202 243 302 362
#     4  10  22  38  57  80 111 159 214 256 298 357
#     4  12  23  36  56  84 123 170 211 247 310 366
#
# _framework density 19.994755000000001
#
# number of rings (size 3 to 8) (size 9 to 14) (size 15 to 20)
#    0.000    2.069    2.069    0.828    4.828    2.207 
#    1.241    0.000    0.000    0.828    0.000    0.966 
#    0.000    0.000    0.000    0.000    0.000    0.000 
#
# Total GULP energy -161507.928231 kJ/mol
# GULP energy per Si atom -5569.238905 kJ/mol
# Density = 1.994925 g / cm^3
# Si number density = 19.994755 Si / 1000 Ang^3
#
#
#
# Elastic Constant Matrix: (Units=GPa)
#
#
# Indices 1 2 3 4 5 6 
#
# 1 69.0901 9.9197 8.0978 0.0001 -0.0001 0.0000
# 2 9.9197 83.7883 36.7733 0.0000 0.0000 0.0000
# 3 8.0978 36.7733 83.2080 0.0000 -0.0001 0.0000
# 4 0.0001 0.0000 0.0000 23.0966 0.0000 0.0000
# 5 -0.0001 0.0000 -0.0001 0.0000 21.7703 0.0000
# 6 0.0000 0.0000 0.0000 0.0000 0.0000 11.2845
#
#
#
# Elastic Compliance Matrix: (Units=1/GPa)
#
#
# Indices 1 2 3 4 5 6 
#
# 1 0.014770 -0.001387 -0.000825 0.000000 0.000000 0.000000
# 2 -0.001387 0.014937 -0.006466 0.000000 0.000000 0.000000
# 3 -0.000825 -0.006466 0.014956 0.000000 0.000000 0.000000
# 4 0.000000 0.000000 0.000000 0.043296 0.000000 0.000000
# 5 0.000000 0.000000 0.000000 0.000000 0.045934 0.000000
# 6 0.000000 0.000000 0.000000 0.000000 0.000000 0.088617
#
#
# Mechanical properties :
#
#
# Convention : Reuss Voigt Hill
#
# Bulk Modulus (GPa) = 36.62000 38.40756 37.51378
# Shear Modulus (GPa) = 20.08292 23.31667 21.69979
#
# Velocity S-wave (km/s) = 3.17268 3.41858 3.29792
# Velocity P-wave (km/s) = 5.63700 5.90193 5.77099
#
# Compressibility (1/GPa) = 0.02730748
#
# Stress axis : x y z
#
# Youngs Moduli (GPa) = 67.70671 66.94787 66.86241
#
# Poissons Ratio (x) = 0.09284 0.05513
# Poissons Ratio (y) = 0.09389 0.43236
# Poissons Ratio (z) = 0.05583 0.43291
#
# Static dielectric constant tensor:
#      x y z
#    x 1.692480 0.000000 0.000000 
#    y 0.000000 1.720980 0.000000 
#    z 0.000000 0.000000 1.760610 
# 
# From -- ./inp_files/4879.got.cif
#   From: 2010.05.17/outbox.cif.g08.bks.cpg/sg42_3_cif.got.tgz:4879.got - 2010.06.03 19:03:34.
