data_PCOD9368660
_publ_section_title
;
Structure prediction by ZEFSAII (Michael W. Deem and Ramdas Pophale) SiO2 
 PCOD9368660
Probable space group: F M M 2
;
_chemical_formula_sum "Si O2"
_cell_formula_units_Z 96
_cell_length_a 8.445651
_cell_length_b 29.015213
_cell_length_c 21.179797
_cell_angle_alpha 90.000000
_cell_angle_beta 90.000000
_cell_angle_gamma 90.000000
_cell_volume 5190.159296
_symmetry_space_group_name_H-M "F M M 2"
_symmetry_group_IT_number 42
_symmetry_cell_setting 'orthorhombic'
loop_
_space_group_symop_operation_xyz
x,y,z
-x,-y,z
-x,y,z
x,-y,z
x,1/2+y,1/2+z
-x,1/2-y,1/2+z
-x,1/2+y,1/2+z
x,1/2-y,1/2+z
1/2+x,y,1/2+z
1/2-x,-y,1/2+z
1/2-x,y,1/2+z
1/2+x,-y,1/2+z
1/2+x,1/2+y,z
1/2-x,1/2-y,z
1/2-x,1/2+y,z
1/2+x,1/2-y,z
loop_
_atom_site_type_symbol
_atom_site_label
_atom_site_fract_x
_atom_site_fract_y
_atom_site_fract_z
Si Si1 0.689704 0.606493 0.752280
Si Si2 0.693181 0.947052 0.377906
Si Si3 0.808547 0.553309 0.629371
Si Si4 0.689614 0.800723 0.805360
Si Si5 0.808700 0.106410 0.003447
Si Si6 0.689320 0.699374 0.451351
O O1 0.500000 0.605513 0.750934
O O2 0.745127 0.579175 0.814938
O O3 0.753387 0.580929 0.690732
O O4 0.746111 0.658822 0.761361
O O5 0.500000 0.946784 0.378147
O O6 0.745553 0.921120 0.441094
O O7 0.744479 0.000000 0.377552
O O8 0.754253 0.500000 0.630241
O O9 0.755183 0.580095 0.566338
O O10 0.000000 0.552562 0.628548
O O11 0.500000 0.801156 0.804487
O O12 0.750000 0.750000 0.787660
O O13 0.743019 0.809160 0.878385
O O14 0.000000 0.106349 0.003523
O O15 0.751689 0.158617 0.995280
O O16 0.500000 0.699368 0.451700
O O17 0.750000 0.750000 0.469322
#
# Coordination Sequence:
#
# PCOD9368660 Si02
#       6
#    16  16  16  16  16  16
#     4  11  21  35  57  84 115 150 190 235 284 338
#     4   9  17  30  52  81 108 138 184 235 277 324
#     4  10  22  39  58  81 114 156 195 234 284 339
#     4  10  20  35  57  85 117 149 186 231 286 343
#     4  10  19  35  58  82 111 148 191 234 280 334
#     4  10  20  34  56  85 117 148 183 229 284 339
#
# _framework density 18.496542000000002
#
# number of rings (size 3 to 8) (size 9 to 14) (size 15 to 20)
#    0.000    2.000    1.667    2.500    0.000    5.000 
#    0.000    0.833    0.000    6.500    0.000    0.000 
#    0.000    0.000    0.000    0.000    0.000    0.000 
#
# Total GULP energy -134021.815472 kJ/mol
# GULP energy per Si atom -5584.242311 kJ/mol
# Density = 1.845444 g / cm^3
# Si number density = 18.496542 Si / 1000 Ang^3
#
#
#
# Elastic Constant Matrix: (Units=GPa)
#
#
# Indices 1 2 3 4 5 6 
#
# 1 19.8338 25.7335 26.0560 0.0000 0.0000 0.0000
# 2 25.7335 196.0608 105.1326 0.0000 0.0000 0.0000
# 3 26.0560 105.1326 155.9480 0.0000 0.0000 0.0000
# 4 0.0000 0.0000 0.0000 33.5231 0.0000 0.0000
# 5 0.0000 0.0000 0.0000 0.0000 22.0635 0.0000
# 6 0.0000 0.0000 0.0000 0.0000 0.0000 21.8267
#
#
#
# Elastic Compliance Matrix: (Units=1/GPa)
#
#
# Indices 1 2 3 4 5 6 
#
# 1 0.066901 -0.004365 -0.008235 0.000000 0.000000 0.000000
# 2 -0.004365 0.008273 -0.004848 0.000000 0.000000 0.000000
# 3 -0.008235 -0.004848 0.011057 0.000000 0.000000 0.000000
# 4 0.000000 0.000000 0.000000 0.029830 0.000000 0.000000
# 5 0.000000 0.000000 0.000000 0.000000 0.045324 0.000000
# 6 0.000000 0.000000 0.000000 0.000000 0.000000 0.045815
#
#
# Mechanical properties :
#
#
# Convention : Reuss Voigt Hill
#
# Bulk Modulus (GPa) = 19.48009 76.18741 47.83375
# Shear Modulus (GPa) = 19.28953 29.81071 24.55012
#
# Velocity S-wave (km/s) = 3.23286 4.01894 3.64714
# Velocity P-wave (km/s) = 4.94871 7.92561 6.60701
#
# Compressibility (1/GPa) = 0.05133447
#
# Stress axis : x y z
#
# Youngs Moduli (GPa) = 14.94738 120.87605 90.44388
#
# Poissons Ratio (x) = 0.52762 0.74483
# Poissons Ratio (y) = 0.06525 0.43846
# Poissons Ratio (z) = 0.12310 0.58600
#
# Static dielectric constant tensor:
#      x y z
#    x 1.634460 0.000000 0.000000 
#    y 0.000000 1.620880 0.000000 
#    z 0.000000 0.000000 1.621900 
# 
# From -- ./inp_files/23721.got.cif
#   From: 2010.05.17/outbox.cif.g08.bks.cpg/sg42_12_cif.got.tgz:23721.got - 2010.06.03 19:03:34.
