data_PCOD9368091
_publ_section_title
;
Structure prediction by ZEFSAII (Michael W. Deem and Ramdas Pophale) SiO2 
 PCOD9368091
Probable space group: F M M 2
;
_chemical_formula_sum "Si O2"
_cell_formula_units_Z 104
_cell_length_a 22.811217
_cell_length_b 16.282342
_cell_length_c 12.603335
_cell_angle_alpha 90.000000
_cell_angle_beta 90.000000
_cell_angle_gamma 90.000000
_cell_volume 4681.131147
_symmetry_space_group_name_H-M "F M M 2"
_symmetry_group_IT_number 42
_symmetry_cell_setting 'orthorhombic'
loop_
_space_group_symop_operation_xyz
x,y,z
-x,-y,z
-x,y,z
x,-y,z
x,1/2+y,1/2+z
-x,1/2-y,1/2+z
-x,1/2+y,1/2+z
x,1/2-y,1/2+z
1/2+x,y,1/2+z
1/2-x,-y,1/2+z
1/2-x,y,1/2+z
1/2+x,-y,1/2+z
1/2+x,1/2+y,z
1/2-x,1/2-y,z
1/2-x,1/2+y,z
1/2+x,1/2-y,z
loop_
_atom_site_type_symbol
_atom_site_label
_atom_site_fract_x
_atom_site_fract_y
_atom_site_fract_z
Si Si1 0.565936 0.354285 0.911630
Si Si2 0.383581 0.819744 0.635200
Si Si3 0.250000 0.250000 0.368563
Si Si4 0.188381 0.908554 0.839897
Si Si5 0.656431 0.164583 0.026247
Si Si6 0.565658 0.341619 0.364646
Si Si7 0.771850 0.089598 0.087369
O O1 0.500000 0.385140 0.892519
O O2 0.618727 0.392713 0.844043
O O3 0.565741 0.256306 0.890640
O O4 0.584378 0.362463 0.035264
O O5 0.316034 0.846872 0.639368
O O6 0.379638 0.723451 0.605345
O O7 0.413860 0.844334 0.743632
O O8 0.302750 0.280296 0.446237
O O9 0.210105 0.910579 0.962925
O O10 0.223305 0.826792 0.803989
O O11 0.200324 0.000000 0.797796
O O12 0.611553 0.120211 0.947256
O O13 0.703233 0.109614 0.087335
O O14 0.500000 0.373098 0.377521
O O15 0.785833 0.000000 0.129863
#
# Coordination Sequence:
#
# PCOD9368091 Si02
#       7
#    16  16   8  16  16  16  16
#     4   9  17  31  49  74 110 143 186 237 279 347
#     4  10  17  32  52  79 107 143 186 234 287 340
#     4  10  14  32  50  72 110 140 184 230 288 342
#     4   9  16  27  49  76 105 140 176 224 287 344
#     4  10  17  35  53  77 109 142 185 236 281 345
#     4  10  20  32  53  82 108 147 193 234 283 346
#     4   9  17  32  53  75 105 139 179 229 292 350
#
# _framework density 22.216854000000001
#
# number of rings (size 3 to 8) (size 9 to 14) (size 15 to 20)
#    0.000    2.462    6.154    0.462    0.000    0.923 
#    2.769    0.769    0.000    7.385    0.000    0.000 
#    0.000    0.615    0.000    0.000    0.000    0.000 
#
# Total GULP energy -145129.435027 kJ/mol
# GULP energy per Si atom -5581.901347 kJ/mol
# Density = 2.216629 g / cm^3
# Si number density = 22.216854 Si / 1000 Ang^3
#
#
#
# Elastic Constant Matrix: (Units=GPa)
#
#
# Indices 1 2 3 4 5 6 
#
# 1 133.4130 22.2695 31.8820 0.0000 0.0000 0.0000
# 2 22.2695 74.9738 8.9843 0.0000 0.0000 0.0000
# 3 31.8820 8.9843 67.8435 0.0000 0.0000 0.0000
# 4 0.0000 0.0000 0.0000 -0.7895 0.0000 0.0000
# 5 0.0000 0.0000 0.0000 0.0000 32.8113 0.0000
# 6 0.0000 0.0000 0.0000 0.0000 0.0000 9.0667
#
#
#
# Elastic Compliance Matrix: (Units=1/GPa)
#
#
# Indices 1 2 3 4 5 6 
#
# 1 0.008771 -0.002145 -0.003838 0.000000 0.000000 0.000000
# 2 -0.002145 0.014078 -0.000856 0.000000 0.000000 0.000000
# 3 -0.003838 -0.000856 0.016657 0.000000 0.000000 0.000000
# 4 0.000000 0.000000 0.000000 -1.266627 0.000000 0.000000
# 5 0.000000 0.000000 0.000000 0.000000 0.030477 0.000000
# 6 0.000000 0.000000 0.000000 0.000000 0.000000 0.110294
#
#
# Mechanical properties :
#
#
# Convention : Reuss Voigt Hill
#
# Bulk Modulus (GPa) = 38.71899 44.72242 41.72071
# Shear Modulus (GPa) = -4.69896 22.42400 8.86252
#
# Velocity S-wave (km/s) = -1.45590 3.18043 1.99944
# Velocity P-wave (km/s) = 3.82615 5.80177 4.91426
#
# Compressibility (1/GPa) = 0.02582712
#
# Stress axis : x y z
#
# Youngs Moduli (GPa) = 114.01618 71.03377 60.03630
#
# Poissons Ratio (x) = 0.15239 0.23039
# Poissons Ratio (y) = 0.24460 0.05140
# Poissons Ratio (z) = 0.43754 0.06081
#
# Static dielectric constant tensor:
#      x y z
#    x 1.818250 0.000000 0.000000 
#    y 0.000000 1.831410 0.000000 
#    z 0.000000 0.000000 1.848160 
# 
# From -- ./inp_files/10242.got.cif
#   From: 2010.05.17/outbox.cif.g08.bks.cpg/sg42_6_cif.got.tgz:10242.got - 2010.06.03 19:03:34.
