data_PCOD9368935
_publ_section_title
;
Structure prediction by ZEFSAII (Michael W. Deem and Ramdas Pophale) SiO2 
 PCOD9368935
Probable space group: F M M 2
;
_chemical_formula_sum "Si O2"
_cell_formula_units_Z 112
_cell_length_a 16.138087
_cell_length_b 27.497211
_cell_length_c 10.770839
_cell_angle_alpha 90.000000
_cell_angle_beta 90.000000
_cell_angle_gamma 90.000000
_cell_volume 4779.585477
_symmetry_space_group_name_H-M "F M M 2"
_symmetry_group_IT_number 42
_symmetry_cell_setting 'orthorhombic'
loop_
_space_group_symop_operation_xyz
x,y,z
-x,-y,z
-x,y,z
x,-y,z
x,1/2+y,1/2+z
-x,1/2-y,1/2+z
-x,1/2+y,1/2+z
x,1/2-y,1/2+z
1/2+x,y,1/2+z
1/2-x,-y,1/2+z
1/2-x,y,1/2+z
1/2+x,-y,1/2+z
1/2+x,1/2+y,z
1/2-x,1/2-y,z
1/2-x,1/2+y,z
1/2+x,1/2-y,z
loop_
_atom_site_type_symbol
_atom_site_label
_atom_site_fract_x
_atom_site_fract_y
_atom_site_fract_z
Si Si1 0.646990 0.889661 0.911420
Si Si2 0.377305 0.556821 0.175762
Si Si3 0.903899 0.712890 0.568481
Si Si4 0.280667 0.053610 0.321968
Si Si5 0.093422 0.179545 0.615877
Si Si6 0.239552 0.696783 0.773272
Si Si7 0.406190 0.618712 0.927133
O O1 0.594307 0.912190 0.797089
O O2 0.721430 0.943652 0.703102
O O3 0.704131 0.845454 0.860001
O O4 0.601112 0.867153 0.027478
O O5 0.403436 0.500000 0.173613
O O6 0.285255 0.567760 0.430427
O O7 0.396793 0.586501 0.052671
O O8 0.902397 0.769891 0.536728
O O9 0.834415 0.703721 0.672049
O O10 0.884906 0.674063 0.461455
O O11 0.000000 0.702133 0.608397
O O12 0.352035 0.092285 0.325422
O O13 0.313648 0.000000 0.340534
O O14 0.174750 0.183738 0.702393
O O15 0.000000 0.181079 0.672454
O O16 0.250000 0.750000 0.834012
O O17 0.500000 0.616713 0.889302
#
# Coordination Sequence:
#
# PCOD9368935 Si02
#       7
#    16  16  16  16  16  16  16
#     4  10  20  34  59  81 107 147 195 229 276 333
#     4   9  20  36  55  83 112 144 187 238 286 336
#     4   9  18  34  55  82 115 147 182 230 281 333
#     4   9  20  36  53  80 113 146 182 229 288 341
#     4  10  22  38  56  82 120 155 186 228 283 342
#     4  10  20  35  57  84 113 151 192 235 280 339
#     4  11  20  34  60  86 109 140 183 237 288 332
#
# _framework density 23.432994999999998
#
# number of rings (size 3 to 8) (size 9 to 14) (size 15 to 20)
#    0.857    1.429    1.429    1.286    0.000    5.143 
#    0.000    0.714    0.000    1.286    0.000    0.000 
#    0.000    0.000    0.000    0.000    0.000    0.000 
#
# Total GULP energy -156241.497476 kJ/mol
# GULP energy per Si atom -5580.053481 kJ/mol
# Density = 2.337966 g / cm^3
# Si number density = 23.432995 Si / 1000 Ang^3
#
#
#
# Elastic Constant Matrix: (Units=GPa)
#
#
# Indices 1 2 3 4 5 6 
#
# 1 92.0230 26.3497 36.9036 0.0000 0.0000 0.0000
# 2 26.3497 134.5082 43.4337 0.0000 0.0000 0.0000
# 3 36.9036 43.4337 56.0997 0.0000 0.0000 0.0000
# 4 0.0000 0.0000 0.0000 21.8737 0.0000 0.0000
# 5 0.0000 0.0000 0.0000 0.0000 -22.8142 0.0000
# 6 0.0000 0.0000 0.0000 0.0000 0.0000 8.4119
#
#
#
# Elastic Compliance Matrix: (Units=1/GPa)
#
#
# Indices 1 2 3 4 5 6 
#
# 1 0.014771 0.000325 -0.009969 0.000000 0.000000 0.000000
# 2 0.000325 0.009920 -0.007894 0.000000 0.000000 0.000000
# 3 -0.009969 -0.007894 0.030495 0.000000 0.000000 0.000000
# 4 0.000000 0.000000 0.000000 0.045717 0.000000 0.000000
# 5 0.000000 0.000000 0.000000 0.000000 -0.043832 0.000000
# 6 0.000000 0.000000 0.000000 0.000000 0.000000 0.118880
#
#
# Mechanical properties :
#
#
# Convention : Reuss Voigt Hill
#
# Bulk Modulus (GPa) = 49.72434 55.11165 52.41799
# Shear Modulus (GPa) = 22.96427 13.22389 18.09408
#
# Velocity S-wave (km/s) = 3.13389 2.37814 2.78180
# Velocity P-wave (km/s) = 5.86181 5.57769 5.72151
#
# Compressibility (1/GPa) = 0.02011088
#
# Stress axis : x y z
#
# Youngs Moduli (GPa) = 67.69812 100.80798 32.79225
#
# Poissons Ratio (x) = -0.03280 0.32690
# Poissons Ratio (y) = -0.02203 0.25887
# Poissons Ratio (z) = 0.67487 0.79580
#
# Static dielectric constant tensor:
#      x y z
#    x 1.943140 0.000000 0.000000 
#    y 0.000000 1.888520 0.000000 
#    z 0.000000 0.000000 1.898650 
# 
# From -- ./inp_files/14492.got.cif
#   From: 2010.05.17/outbox.cif.g08.bks.cpg/sg42_8_cif.got.tgz:14492.got - 2010.06.03 19:03:34.
