data_PCOD9368182
_publ_section_title
;
Structure prediction by ZEFSAII (Michael W. Deem and Ramdas Pophale) SiO2 
 PCOD9368182
Probable space group: F M M 2
;
_chemical_formula_sum "Si O2"
_cell_formula_units_Z 116
_cell_length_a 31.148516
_cell_length_b 7.745792
_cell_length_c 26.071555
_cell_angle_alpha 90.000000
_cell_angle_beta 90.000000
_cell_angle_gamma 90.000000
_cell_volume 6290.282147
_symmetry_space_group_name_H-M "F M M 2"
_symmetry_group_IT_number 42
_symmetry_cell_setting 'orthorhombic'
loop_
_space_group_symop_operation_xyz
x,y,z
-x,-y,z
-x,y,z
x,-y,z
x,1/2+y,1/2+z
-x,1/2-y,1/2+z
-x,1/2+y,1/2+z
x,1/2-y,1/2+z
1/2+x,y,1/2+z
1/2-x,-y,1/2+z
1/2-x,y,1/2+z
1/2+x,-y,1/2+z
1/2+x,1/2+y,z
1/2-x,1/2-y,z
1/2-x,1/2+y,z
1/2+x,1/2-y,z
loop_
_atom_site_type_symbol
_atom_site_label
_atom_site_fract_x
_atom_site_fract_y
_atom_site_fract_z
Si Si1 0.861876 0.288179 0.736250
Si Si2 0.700031 0.297920 0.147672
Si Si3 0.702090 0.706428 0.325124
Si Si4 0.700254 0.794733 0.031162
Si Si5 0.000000 0.500000 0.928058
Si Si6 0.340959 0.210486 0.926992
Si Si7 0.048121 0.290045 0.777901
Si Si8 0.063216 0.696076 0.396575
O O1 0.862620 0.500000 0.735707
O O2 0.835038 0.223929 0.687072
O O3 0.834258 0.232097 0.785796
O O4 0.911405 0.234866 0.743392
O O5 0.698941 0.500000 0.156380
O O6 0.750000 0.250000 0.156344
O O7 0.688953 0.265216 0.088333
O O8 0.698751 0.500000 0.325481
O O9 0.750000 0.750000 0.308051
O O10 0.692437 0.766740 0.382833
O O11 0.750000 0.750000 0.022344
O O12 0.696492 0.000000 0.031743
O O13 0.672831 0.728237 0.983317
O O14 0.963164 0.653194 0.924114
O O15 0.387062 0.276765 0.909744
O O16 0.341924 0.000000 0.927461
O O17 0.048620 0.500000 0.781012
O O18 0.055480 0.224119 0.835716
O O19 0.000000 0.239016 0.761039
O O20 0.050849 0.500000 0.409798
#
# Coordination Sequence:
#
# PCOD9368182 Si02
#       8
#    16  16  16  16   4  16  16  16
#     4   9  18  31  51  75 105 144 181 222 287 342
#     4  10  19  33  52  75 104 141 187 235 279 335
#     4  10  19  31  48  69 108 146 179 218 274 342
#     4  10  20  34  55  78 106 146 189 235 286 330
#     4  12  22  40  56  78 124 152 182 248 280 326
#     4  10  20  36  53  75 111 149 183 232 286 336
#     4  10  17  33  55  77 108 144 179 231 287 337
#     4  12  22  34  58  85 111 152 193 228 285 345
#
# _framework density 18.441143
#
# number of rings (size 3 to 8) (size 9 to 14) (size 15 to 20)
#    0.000    1.793    3.448    2.690    0.000    1.655 
#    0.000    2.069    0.000    0.000    1.793    0.000 
#    0.000    0.000    0.000    0.000    0.000    0.276 
#
# Total GULP energy -161533.169659 kJ/mol
# GULP energy per Si atom -5570.109299 kJ/mol
# Density = 1.839917 g / cm^3
# Si number density = 18.441143 Si / 1000 Ang^3
#
#
#
# Elastic Constant Matrix: (Units=GPa)
#
#
# Indices 1 2 3 4 5 6 
#
# 1 151.8989 11.6528 72.4079 -0.0007 -0.0002 0.0001
# 2 11.6528 59.0233 6.6831 0.0242 -0.0001 -0.0004
# 3 72.4079 6.6831 96.2829 0.0019 0.0001 0.0000
# 4 -0.0007 0.0242 0.0019-1324.4722 0.0088 0.0029
# 5 -0.0002 -0.0001 0.0001 0.0088 61.1000 0.0000
# 6 0.0001 -0.0004 0.0000 0.0029 0.0000 10.2124
#
#
#
# Elastic Compliance Matrix: (Units=1/GPa)
#
#
# Indices 1 2 3 4 5 6 
#
# 1 0.010342 -0.001170 -0.007696 0.000000 0.000000 0.000000
# 2 -0.001170 0.017209 -0.000314 0.000000 0.000000 0.000001
# 3 -0.007696 -0.000314 0.016196 0.000000 0.000000 0.000000
# 4 0.000000 0.000000 0.000000 -0.000755 0.000000 0.000000
# 5 0.000000 0.000000 0.000000 0.000000 0.016367 0.000000
# 6 0.000000 0.000001 0.000000 0.000000 0.000000 0.097920
#
#
# Mechanical properties :
#
#
# Convention : Reuss Voigt Hill
#
# Bulk Modulus (GPa) = 39.39359 54.29920 46.84640
# Shear Modulus (GPa) = 27.15894 -236.20123 -104.52114
#
# Velocity S-wave (km/s) = 3.84179 -11.32969 -7.53666
# Velocity P-wave (km/s) = 6.40994 11.90129 7.09061
#
# Compressibility (1/GPa) = 0.02538484
#
# Stress axis : x y z
#
# Youngs Moduli (GPa) = 96.69584 58.10874 61.74526
#
# Poissons Ratio (x) = 0.06801 0.47520
# Poissons Ratio (y) = 0.11316 0.01941
# Poissons Ratio (z) = 0.74418 0.01827
#
# Static dielectric constant tensor:
#      x y z
#    x 1.627850 0.000000 0.000000 
#    y 0.000000 1.823290 0.000000 
#    z 0.000000 0.000000 1.647950 
# 
# From -- ./inp_files/34841.got.cif
#   From: 2010.05.17/outbox.cif.g08.bks.cpg/sg42_18_cif.got.tgz:34841.got - 2010.06.03 19:03:34.
