data_PCOD9368076
_publ_section_title
;
Structure prediction by ZEFSAII (Michael W. Deem and Ramdas Pophale) SiO2 
 PCOD9368076
Probable space group: A B A 2
;
_chemical_formula_sum "Si O2"
_cell_formula_units_Z 26
_cell_length_a 27.000000
_cell_length_b 12.000000
_cell_length_c 9.000000
_cell_angle_alpha 90.000000
_cell_angle_beta 90.000000
_cell_angle_gamma 90.000000
_cell_volume 2916.000000
_symmetry_space_group_name_H-M "A B A 2"
_symmetry_group_IT_number 41
_symmetry_cell_setting 'orthorhombic'
loop_
_space_group_symop_operation_xyz
x,y,z
-x,-y,z
1/2-x,y,1/2+z
1/2+x,-y,1/2+z
x,1/2+y,1/2+z
-x,1/2-y,1/2+z
1/2-x,1/2+y,z
1/2+x,1/2-y,z
loop_
_atom_site_type_symbol
_atom_site_label
_atom_site_fract_x
_atom_site_fract_y
_atom_site_fract_z
Si Si1 0.679283 0.719110 0.287500
Si Si2 0.253238 0.393861 0.546207
Si Si3 0.683335 0.990813 0.306373
Si Si4 0.928371 0.594777 0.726772
Si Si5 0.500000 0.000000 0.149306
Si Si6 0.964236 0.864555 0.367046
Si Si7 0.921427 0.115613 0.871207
O O1 0.710299 0.675270 0.433367
O O2 0.714560 0.680254 0.147286
O O3 0.674659 0.855599 0.295400
O O4 0.623857 0.658874 0.272671
O O5 0.287901 0.463646 0.659933
O O6 0.219448 0.475452 0.444042
O O7 0.632642 0.063417 0.329581
O O8 0.934168 0.467606 0.790029
O O9 0.929874 0.591020 0.547044
O O10 0.980616 0.647580 0.790085
O O11 0.540418 0.056045 0.257647
O O12 0.475939 0.091231 0.035198
O O13 0.933219 0.749336 0.358453
#
# Coordination Sequence:
#
# PCOD9368076 Si02
#       7
#     8   8   8   8   4   8   8
#     4  11  23  44  68  93 132 163 214 267 315 384
#     4  10  24  46  62  96 128 168 213 264 324 375
#     4  11  25  41  69  98 123 172 212 263 327 378
#     4  10  23  45  64  94 131 172 208 261 324 373
#     4  10  24  40  64  94 124 174 210 254 314 380
#     4  10  25  45  62  93 136 169 210 264 316 383
#     4  12  24  40  67  97 126 166 214 260 317 380
#
# _framework density 8.9163239999999995
#
# number of rings (size 3 to 8) (size 9 to 14) (size 15 to 20)
#    0.000    1.538    1.538    2.769    8.615    1.231 
#   11.077    0.000    0.000    0.000    0.000    0.000 
#    0.000    0.000    0.000    0.000    0.000    0.000 
#
# Total GULP energy -145016.742529 kJ/mol
# GULP energy per Si atom -5577.567020 kJ/mol
# Density = 0.889603 g / cm^3
# Si number density = 8.916324 Si / 1000 Ang^3
#
#
#
# Elastic Constant Matrix: (Units=GPa)
#
#
# Indices 1 2 3 4 5 6 
#
# 1 158.3304 94.8864 69.7123 0.0000 0.0000 0.0000
# 2 94.8864 171.5500 71.3070 0.0000 0.0000 0.0000
# 3 69.7123 71.3070 154.7210 0.0000 0.0000 0.0000
# 4 0.0000 0.0000 0.0000 28.7095 0.0000 0.0000
# 5 0.0000 0.0000 0.0000 0.0000 41.3221 0.0000
# 6 0.0000 0.0000 0.0000 0.0000 0.0000 41.1556
#
#
#
# Elastic Compliance Matrix: (Units=1/GPa)
#
#
# Indices 1 2 3 4 5 6 
#
# 1 0.010150 -0.004593 -0.002456 0.000000 0.000000 0.000000
# 2 -0.004593 0.009289 -0.002212 0.000000 0.000000 0.000000
# 3 -0.002456 -0.002212 0.008589 0.000000 0.000000 0.000000
# 4 0.000000 0.000000 0.000000 0.034832 0.000000 0.000000
# 5 0.000000 0.000000 0.000000 0.000000 0.024200 0.000000
# 6 0.000000 0.000000 0.000000 0.000000 0.000000 0.024298
#
#
# Mechanical properties :
#
#
# Convention : Reuss Voigt Hill
#
# Bulk Modulus (GPa) = 105.19508 106.26807 105.73158
# Shear Modulus (GPa) = 37.58013 38.81715 38.19864
#
# Velocity S-wave (km/s) = 4.59560 4.67062 4.63326
# Velocity P-wave (km/s) = 9.34225 9.42377 9.38310
#
# Compressibility (1/GPa) = 0.00950615
#
# Stress axis : x y z
#
# Youngs Moduli (GPa) = 98.52137 107.65482 116.42390
#
# Poissons Ratio (x) = 0.49447 0.28599
# Poissons Ratio (y) = 0.45252 0.25748
# Poissons Ratio (z) = 0.24202 0.23808
#
# Static dielectric constant tensor:
#      x y z
#    x 1.618330 0.000000 0.000000 
#    y 0.000000 1.615770 0.000000 
#    z 0.000000 0.000000 1.621220 
# 
# From -- ./inp_files/3786.got.cif
#   From: 2010.05.17/outbox.ucp.g08.bks.cvg/sg41_2_cif.got.tgz:3786.got - 2010.06.11 16:28:22.
