data_PCOD9368953
_publ_section_title
;
Structure prediction by ZEFSAII (Michael W. Deem and Ramdas Pophale) SiO2 
 PCOD9368953
Probable space group: F M M 2
;
_chemical_formula_sum "Si O2"
_cell_formula_units_Z 96
_cell_length_a 8.645086
_cell_length_b 32.651794
_cell_length_c 19.288589
_cell_angle_alpha 90.000000
_cell_angle_beta 90.000000
_cell_angle_gamma 90.000000
_cell_volume 5444.735977
_symmetry_space_group_name_H-M "F M M 2"
_symmetry_group_IT_number 42
_symmetry_cell_setting 'orthorhombic'
loop_
_space_group_symop_operation_xyz
x,y,z
-x,-y,z
-x,y,z
x,-y,z
x,1/2+y,1/2+z
-x,1/2-y,1/2+z
-x,1/2+y,1/2+z
x,1/2-y,1/2+z
1/2+x,y,1/2+z
1/2-x,-y,1/2+z
1/2-x,y,1/2+z
1/2+x,-y,1/2+z
1/2+x,1/2+y,z
1/2-x,1/2-y,z
1/2-x,1/2+y,z
1/2+x,1/2-y,z
loop_
_atom_site_type_symbol
_atom_site_label
_atom_site_fract_x
_atom_site_fract_y
_atom_site_fract_z
Si Si1 0.816880 0.956368 0.780120
Si Si2 0.684493 0.793932 0.535549
Si Si3 0.314305 0.706701 0.690537
Si Si4 0.683797 0.868051 0.945385
Si Si5 0.687995 0.368120 0.789675
Si Si6 0.182653 0.454901 0.448144
O O1 0.757699 0.911870 0.758205
O O2 0.804379 0.955690 0.864053
O O3 0.000000 0.957286 0.763825
O O4 0.748987 0.000000 0.756005
O O5 0.500000 0.792033 0.535632
O O6 0.750000 0.750000 0.510506
O O7 0.745768 0.799315 0.613930
O O8 0.741983 0.831855 0.490077
O O9 0.500000 0.708693 0.685492
O O10 0.250000 0.750000 0.717083
O O11 0.271274 0.669615 0.740898
O O12 0.500000 0.864747 0.947350
O O13 0.743502 0.863879 0.866398
O O14 0.733290 0.913532 0.971111
O O15 0.500000 0.369691 0.795999
O O16 0.237535 0.500000 0.472619
O O17 0.000000 0.451566 0.463775
#
# Coordination Sequence:
#
# PCOD9368953 Si02
#       6
#    16  16  16  16  16  16
#     4   7  10  20  41  67  93 123 159 195 234 284
#     4  11  22  38  57  74  97 130 170 211 256 310
#     4  10  20  35  54  74  98 129 166 206 249 302
#     4  11  21  32  50  78 109 136 169 212 254 297
#     4   9  18  32  50  74 103 133 166 206 251 297
#     4   8  14  27  47  70  99 135 171 206 249 299
#
# _framework density 17.631709000000001
#
# number of rings (size 3 to 8) (size 9 to 14) (size 15 to 20)
#    0.000    2.667    0.000    6.500    0.000    2.333 
#    0.000    1.667    0.000    1.000    0.000    2.333 
#    0.000    0.000    0.000    0.000    0.000    0.000 
#
# Total GULP energy -133690.180843 kJ/mol
# GULP energy per Si atom -5570.424202 kJ/mol
# Density = 1.759158 g / cm^3
# Si number density = 17.631709 Si / 1000 Ang^3
#
#
#
# Elastic Constant Matrix: (Units=GPa)
#
#
# Indices 1 2 3 4 5 6 
#
# 1 68.7894 63.0259 23.0911 0.0000 0.0000 0.0000
# 2 63.0259 225.9520 67.7140 0.0000 0.0000 0.0000
# 3 23.0911 67.7140 33.1287 0.0000 0.0000 0.0000
# 4 0.0000 0.0000 0.0000 -24.3863 0.0000 0.0000
# 5 0.0000 0.0000 0.0000 0.0000 18.8358 0.0000
# 6 0.0000 0.0000 0.0000 0.0000 0.0000 25.3186
#
#
#
# Elastic Compliance Matrix: (Units=1/GPa)
#
#
# Indices 1 2 3 4 5 6 
#
# 1 0.020067 -0.003628 -0.006571 0.000000 0.000000 0.000000
# 2 -0.003628 0.012078 -0.022159 0.000000 0.000000 0.000000
# 3 -0.006571 -0.022159 0.080058 0.000000 0.000000 0.000000
# 4 0.000000 0.000000 0.000000 -0.041007 0.000000 0.000000
# 5 0.000000 0.000000 0.000000 0.000000 0.053091 0.000000
# 6 0.000000 0.000000 0.000000 0.000000 0.000000 0.039497
#
#
# Mechanical properties :
#
#
# Convention : Reuss Voigt Hill
#
# Bulk Modulus (GPa) = 21.05859 70.61467 45.83663
# Shear Modulus (GPa) = 20.46417 15.55623 18.01020
#
# Velocity S-wave (km/s) = 3.41052 2.97355 3.19951
# Velocity P-wave (km/s) = 5.24198 7.20598 6.30097
#
# Compressibility (1/GPa) = 0.04748656
#
# Stress axis : x y z
#
# Youngs Moduli (GPa) = 49.83283 82.79233 12.49097
#
# Poissons Ratio (x) = 0.30038 0.08208
# Poissons Ratio (y) = 0.18080 0.27679
# Poissons Ratio (z) = 0.32746 1.83460
#
# Static dielectric constant tensor:
#      x y z
#    x 1.591660 0.000000 0.000000 
#    y 0.000000 1.658320 0.000000 
#    z 0.000000 0.000000 1.565170 
# 
# From -- ./inp_files/28173.got.cif
#   From: 2010.05.17/outbox.cif.g08.bks.cpg/sg42_15_cif.got.tgz:28173.got - 2010.06.03 19:03:34.
