data_PCOD9368054
_publ_section_title
;
Structure prediction by ZEFSAII (Michael W. Deem and Ramdas Pophale) SiO2 
 PCOD9368054
Probable space group: A B A 2
;
_chemical_formula_sum "Si O2"
_cell_formula_units_Z 30
_cell_length_a 6.000000
_cell_length_b 27.000000
_cell_length_c 18.000000
_cell_angle_alpha 90.000000
_cell_angle_beta 90.000000
_cell_angle_gamma 90.000000
_cell_volume 2916.000000
_symmetry_space_group_name_H-M "A B A 2"
_symmetry_group_IT_number 41
_symmetry_cell_setting 'orthorhombic'
loop_
_space_group_symop_operation_xyz
x,y,z
-x,-y,z
1/2-x,y,1/2+z
1/2+x,-y,1/2+z
x,1/2+y,1/2+z
-x,1/2-y,1/2+z
1/2-x,1/2+y,z
1/2+x,1/2-y,z
loop_
_atom_site_type_symbol
_atom_site_label
_atom_site_fract_x
_atom_site_fract_y
_atom_site_fract_z
Si Si1 0.922468 0.877110 0.944880
Si Si2 0.915083 0.943271 0.209340
Si Si3 0.000000 0.000000 0.754125
Si Si4 0.469460 0.556739 0.502156
Si Si5 0.257003 0.765248 0.129834
Si Si6 0.751800 0.770452 0.457502
Si Si7 0.300579 0.877929 0.592296
Si Si8 0.285787 0.925614 0.847128
O O1 0.772405 0.923217 0.975245
O O2 0.765800 0.828781 0.937086
O O3 0.082587 0.888951 0.873920
O O4 0.079247 0.864587 0.014795
O O5 0.648777 0.956808 0.213405
O O6 0.030017 0.910302 0.144011
O O7 0.014320 0.917918 0.285793
O O8 0.000000 0.000000 0.199371
O O9 0.166928 0.971525 0.808065
O O10 0.500000 0.500000 0.527188
O O11 0.584305 0.591116 0.564941
O O12 0.608070 0.560803 0.425714
O O13 0.504970 0.748732 0.160884
O O14 0.261335 0.825161 0.127728
O O15 0.250415 0.741165 0.046400
O O16 0.503045 0.748604 0.432417
#
# Coordination Sequence:
#
# PCOD9368054 Si02
#       8
#     8   8   4   8   8   8   8   8
#     4  11  22  35  63  94 127 168 218 275 341 403
#     4  10  23  41  61  88 129 177 228 270 333 408
#     4  10  20  44  64  80 114 186 224 266 324 410
#     4  11  23  37  60  92 134 165 211 275 340 406
#     4  10  19  38  62  89 125 170 216 270 336 415
#     4  10  19  35  60  91 126 167 211 269 334 414
#     4  11  24  37  60  97 129 168 219 276 344 406
#     4  10  21  39  62  88 119 170 223 266 319 406
#
# _framework density 10.288066000000001
#
# number of rings (size 3 to 8) (size 9 to 14) (size 15 to 20)
#    0.000    1.600    2.667    4.400    3.733    3.200 
#    1.200    0.000    0.000    1.600    0.000    0.000 
#    0.000    0.000    0.000    0.000    0.000    0.000 
#
# Total GULP energy -167040.763584 kJ/mol
# GULP energy per Si atom -5568.025453 kJ/mol
# Density = 1.026465 g / cm^3
# Si number density = 10.288066 Si / 1000 Ang^3
#
#
#
# Elastic Constant Matrix: (Units=GPa)
#
#
# Indices 1 2 3 4 5 6 
#
# 1 119.2814 6.8129 8.6025 0.0000 0.0000 0.0000
# 2 6.8129 88.3430 6.6037 0.0000 0.0000 0.0000
# 3 8.6025 6.6037 60.6485 0.0000 0.0000 0.0000
# 4 0.0000 0.0000 0.0000 20.8334 0.0000 0.0000
# 5 0.0000 0.0000 0.0000 0.0000 31.7216 0.0000
# 6 0.0000 0.0000 0.0000 0.0000 0.0000 43.6608
#
#
#
# Elastic Compliance Matrix: (Units=1/GPa)
#
#
# Indices 1 2 3 4 5 6 
#
# 1 0.008499 -0.000570 -0.001143 0.000000 0.000000 0.000000
# 2 -0.000570 0.011451 -0.001166 0.000000 0.000000 0.000000
# 3 -0.001143 -0.001166 0.016778 0.000000 0.000000 0.000000
# 4 0.000000 0.000000 0.000000 0.048000 0.000000 0.000000
# 5 0.000000 0.000000 0.000000 0.000000 0.031524 0.000000
# 6 0.000000 0.000000 0.000000 0.000000 0.000000 0.022904
#
#
# Mechanical properties :
#
#
# Convention : Reuss Voigt Hill
#
# Bulk Modulus (GPa) = 32.29117 34.70121 33.49619
# Shear Modulus (GPa) = 32.20904 35.66009 33.93456
#
# Velocity S-wave (km/s) = 3.96075 4.16754 4.06546
# Velocity P-wave (km/s) = 6.05346 6.32924 6.19288
#
# Compressibility (1/GPa) = 0.03096822
#
# Stress axis : x y z
#
# Youngs Moduli (GPa) = 117.66710 87.33145 59.60332
#
# Poissons Ratio (x) = 0.04977 0.06815
# Poissons Ratio (y) = 0.06706 0.06949
# Poissons Ratio (z) = 0.13454 0.10182
#
# Static dielectric constant tensor:
#      x y z
#    x 1.861670 0.000000 0.000000 
#    y 0.000000 1.750030 0.000000 
#    z 0.000000 0.000000 1.722700 
# 
# From -- ./inp_files/9477.got.cif
#   From: 2010.05.17/outbox.ucp.g08.bks.cvg/sg41_5_cif.got.tgz:9477.got - 2010.06.11 16:28:22.
