data_PCOD9368696
_publ_section_title
;
Structure prediction by ZEFSAII (Michael W. Deem and Ramdas Pophale) SiO2 
 PCOD9368696
Probable space group: F M M 2
;
_chemical_formula_sum "Si O2"
_cell_formula_units_Z 112
_cell_length_a 28.905648
_cell_length_b 14.719435
_cell_length_c 13.651050
_cell_angle_alpha 90.000000
_cell_angle_beta 90.000000
_cell_angle_gamma 90.000000
_cell_volume 5808.177862
_symmetry_space_group_name_H-M "F M M 2"
_symmetry_group_IT_number 42
_symmetry_cell_setting 'orthorhombic'
loop_
_space_group_symop_operation_xyz
x,y,z
-x,-y,z
-x,y,z
x,-y,z
x,1/2+y,1/2+z
-x,1/2-y,1/2+z
-x,1/2+y,1/2+z
x,1/2-y,1/2+z
1/2+x,y,1/2+z
1/2-x,-y,1/2+z
1/2-x,y,1/2+z
1/2+x,-y,1/2+z
1/2+x,1/2+y,z
1/2-x,1/2-y,z
1/2-x,1/2+y,z
1/2+x,1/2-y,z
loop_
_atom_site_type_symbol
_atom_site_label
_atom_site_fract_x
_atom_site_fract_y
_atom_site_fract_z
Si Si1 0.826583 0.598656 0.258280
Si Si2 0.392678 0.750000 0.805138
Si Si3 0.265571 0.354300 0.165456
Si Si4 0.234429 0.645700 0.444819
Si Si5 0.673417 0.098656 0.851995
Si Si6 0.555696 0.104910 0.669372
Si Si7 0.444304 0.895090 0.440903
O O1 0.849501 0.500000 0.255831
O O2 0.860140 0.683197 0.241204
O O3 0.782981 0.597178 0.186010
O O4 0.802946 0.615751 0.364852
O O5 0.360140 0.816803 0.869071
O O6 0.421479 0.819300 0.737891
O O7 0.421479 0.680700 0.872385
O O8 0.250000 0.250000 0.180466
O O9 0.302945 0.384249 0.245423
O O10 0.282089 0.367727 0.055137
O O11 0.250000 0.750000 0.429810
O O12 0.282981 0.597178 0.424265
O O13 0.650499 0.000000 0.854445
O O14 0.500000 0.110764 0.677247
O O15 0.567967 0.119894 0.555138
O O16 0.568550 0.000000 0.693556
O O17 0.500000 0.889236 0.433028
O O18 0.431450 0.000000 0.416719
#
# Coordination Sequence:
#
# PCOD9368696 Si02
#       7
#    16  16  16  16  16  16  16
#     4  11  22  35  52  78 111 145 186 233 276 326
#     4  12  21  35  56  88 118 146 178 233 289 336
#     4  10  19  36  56  72 101 151 196 231 276 323
#     4  10  19  36  56  72 101 151 196 231 276 323
#     4  11  22  35  52  78 111 145 186 233 276 326
#     4   9  20  40  64  88 113 145 186 227 274 341
#     4   9  20  40  64  88 113 145 186 227 274 341
#
# _framework density 19.283155000000001
#
# number of rings (size 3 to 8) (size 9 to 14) (size 15 to 20)
#    0.000    1.714    2.857    4.714    0.000    4.571 
#    0.000    0.000    0.000    2.571    0.000   10.000 
#    0.000    0.000    0.000    0.000    0.000    0.000 
#
# Total GULP energy -156282.350597 kJ/mol
# GULP energy per Si atom -5581.512521 kJ/mol
# Density = 1.923927 g / cm^3
# Si number density = 19.283155 Si / 1000 Ang^3
#
#
#
# Elastic Constant Matrix: (Units=GPa)
#
#
# Indices 1 2 3 4 5 6 
#
# 1 47.9678 42.2650 12.7865 0.0000 0.0000 0.0000
# 2 42.2650 176.9144 31.1713 0.0000 0.0000 0.0000
# 3 12.7865 31.1713 51.5944 0.0000 0.0000 0.0000
# 4 0.0000 0.0000 0.0000 33.5549 0.0000 0.0000
# 5 0.0000 0.0000 0.0000 0.0000 0.1104 0.0000
# 6 0.0000 0.0000 0.0000 0.0000 0.0000 18.3312
#
#
#
# Elastic Compliance Matrix: (Units=1/GPa)
#
#
# Indices 1 2 3 4 5 6 
#
# 1 0.026844 -0.005865 -0.003109 0.000000 0.000000 0.000000
# 2 -0.005865 0.007607 -0.003142 0.000000 0.000000 0.000000
# 3 -0.003109 -0.003142 0.022051 0.000000 0.000000 0.000000
# 4 0.000000 0.000000 0.000000 0.029802 0.000000 0.000000
# 5 0.000000 0.000000 0.000000 0.000000 9.057027 0.000000
# 6 0.000000 0.000000 0.000000 0.000000 0.000000 0.054552
#
#
# Mechanical properties :
#
#
# Convention : Reuss Voigt Hill
#
# Bulk Modulus (GPa) = 30.98980 49.88026 40.43503
# Shear Modulus (GPa) = 0.54154 23.08290 11.81222
#
# Velocity S-wave (km/s) = 0.53052 3.46359 2.47769
# Velocity P-wave (km/s) = 4.05969 6.47447 5.40369
#
# Compressibility (1/GPa) = 0.03226868
#
# Stress axis : x y z
#
# Youngs Moduli (GPa) = 37.25223 131.45173 45.34936
#
# Poissons Ratio (x) = 0.77100 0.14100
# Poissons Ratio (y) = 0.21849 0.14251
# Poissons Ratio (z) = 0.11582 0.41309
#
# Static dielectric constant tensor:
#      x y z
#    x 1.678780 0.000000 0.000000 
#    y 0.000000 1.727470 0.000000 
#    z 0.000000 0.000000 1.659040 
# 
# From -- ./inp_files/14513.got.cif
#   From: 2010.05.17/outbox.cif.g08.bks.cpg/sg42_8_cif.got.tgz:14513.got - 2010.06.03 19:03:34.
