data_PCOD9368129
_publ_section_title
;
Structure prediction by ZEFSAII (Michael W. Deem and Ramdas Pophale) SiO2 
 PCOD9368129
Probable space group: F M M 2
;
_chemical_formula_sum "Si O2"
_cell_formula_units_Z 96
_cell_length_a 8.593427
_cell_length_b 32.665078
_cell_length_c 19.649184
_cell_angle_alpha 90.000000
_cell_angle_beta 90.000000
_cell_angle_gamma 90.000000
_cell_volume 5515.623472
_symmetry_space_group_name_H-M "F M M 2"
_symmetry_group_IT_number 42
_symmetry_cell_setting 'orthorhombic'
loop_
_space_group_symop_operation_xyz
x,y,z
-x,-y,z
-x,y,z
x,-y,z
x,1/2+y,1/2+z
-x,1/2-y,1/2+z
-x,1/2+y,1/2+z
x,1/2-y,1/2+z
1/2+x,y,1/2+z
1/2-x,-y,1/2+z
1/2-x,y,1/2+z
1/2+x,-y,1/2+z
1/2+x,1/2+y,z
1/2-x,1/2-y,z
1/2-x,1/2+y,z
1/2+x,1/2-y,z
loop_
_atom_site_type_symbol
_atom_site_label
_atom_site_fract_x
_atom_site_fract_y
_atom_site_fract_z
Si Si1 0.314588 0.792121 0.841980
Si Si2 0.187145 0.618407 0.497963
Si Si3 0.311558 0.378325 0.839205
Si Si4 0.313611 0.791841 0.496906
Si Si5 0.187506 0.045965 0.589945
Si Si6 0.189519 0.954108 0.747103
O O1 0.500000 0.790640 0.843705
O O2 0.250000 0.750000 0.810115
O O3 0.256269 0.835300 0.812638
O O4 0.248167 0.792530 0.919227
O O5 0.234352 0.615912 0.418433
O O6 0.233299 0.663656 0.525253
O O7 0.252124 0.581400 0.541588
O O8 0.000000 0.616634 0.499352
O O9 0.500000 0.375568 0.837311
O O10 0.259526 0.417249 0.795292
O O11 0.500000 0.789703 0.494963
O O12 0.250000 0.750000 0.529192
O O13 0.236011 0.052364 0.668560
O O14 0.000000 0.046435 0.588907
O O15 0.238260 0.000000 0.569522
O O16 0.000000 0.954137 0.748539
O O17 0.239433 0.000000 0.767988
#
# Coordination Sequence:
#
# PCOD9368129 Si02
#       6
#    16  16  16  16  16  16
#     4  10  17  26  42  65  94 124 153 185 225 272
#     4   9  18  29  44  70  98 121 148 186 230 272
#     4   9  17  30  48  70  94 119 153 194 230 267
#     4   9  16  27  43  65  92 121 154 188 224 269
#     4   9  18  32  49  68  90 120 157 191 226 273
#     4   8  15  30  51  70  88 117 157 194 227 269
#
# _framework density 17.405104000000001
#
# number of rings (size 3 to 8) (size 9 to 14) (size 15 to 20)
#    0.000    3.000    0.000    5.000    0.000    4.333 
#    0.000    2.500    0.000    2.500    0.000    2.333 
#    0.000    0.000    0.000    0.000    0.000    0.000 
#
# Total GULP energy -133615.548237 kJ/mol
# GULP energy per Si atom -5567.314510 kJ/mol
# Density = 1.736549 g / cm^3
# Si number density = 17.405104 Si / 1000 Ang^3
#
#
#
# Elastic Constant Matrix: (Units=GPa)
#
#
# Indices 1 2 3 4 5 6 
#
# 1 33.4774 41.8240 15.2112 0.0000 0.0000 0.0000
# 2 41.8240 229.2206 77.5269 0.0000 0.0000 0.0000
# 3 15.2112 77.5269 42.3847 0.0000 0.0000 0.0000
# 4 0.0000 0.0000 0.0000 -9.3236 0.0000 0.0000
# 5 0.0000 0.0000 0.0000 0.0000 11.1648 0.0000
# 6 0.0000 0.0000 0.0000 0.0000 0.0000 38.7264
#
#
#
# Elastic Compliance Matrix: (Units=1/GPa)
#
#
# Indices 1 2 3 4 5 6 
#
# 1 0.038796 -0.006214 -0.002557 0.000000 0.000000 0.000000
# 2 -0.006214 0.012435 -0.020515 0.000000 0.000000 0.000000
# 3 -0.002557 -0.020515 0.062036 0.000000 0.000000 0.000000
# 4 0.000000 0.000000 0.000000 -0.107255 0.000000 0.000000
# 5 0.000000 0.000000 0.000000 0.000000 0.089568 0.000000
# 6 0.000000 0.000000 0.000000 0.000000 0.000000 0.025822
#
#
# Mechanical properties :
#
#
# Convention : Reuss Voigt Hill
#
# Bulk Modulus (GPa) = 18.28349 63.80078 41.04214
# Shear Modulus (GPa) = 25.22626 19.48156 22.35391
#
# Velocity S-wave (km/s) = 3.81118 3.34923 3.58764
# Velocity P-wave (km/s) = 5.46756 7.18974 6.38696
#
# Compressibility (1/GPa) = 0.05469416
#
# Stress axis : x y z
#
# Youngs Moduli (GPa) = 25.77591 80.41801 16.11965
#
# Poissons Ratio (x) = 0.49970 0.04123
# Poissons Ratio (y) = 0.16017 0.33070
# Poissons Ratio (z) = 0.06592 1.64979
#
# Static dielectric constant tensor:
#      x y z
#    x 1.591110 0.000000 0.000000 
#    y 0.000000 1.644440 0.000000 
#    z 0.000000 0.000000 1.568100 
# 
# From -- ./inp_files/28172.got.cif
#   From: 2010.05.17/outbox.cif.g08.bks.cpg/sg42_15_cif.got.tgz:28172.got - 2010.06.03 19:03:34.
