data_PCOD9368193
_publ_section_title
;
Structure prediction by ZEFSAII (Michael W. Deem and Ramdas Pophale) SiO2 
 PCOD9368193
Probable space group: F M M 2
;
_chemical_formula_sum "Si O2"
_cell_formula_units_Z 128
_cell_length_a 14.364379
_cell_length_b 14.974996
_cell_length_c 29.609689
_cell_angle_alpha 90.000000
_cell_angle_beta 90.000000
_cell_angle_gamma 90.000000
_cell_volume 6369.237102
_symmetry_space_group_name_H-M "F M M 2"
_symmetry_group_IT_number 42
_symmetry_cell_setting 'orthorhombic'
loop_
_space_group_symop_operation_xyz
x,y,z
-x,-y,z
-x,y,z
x,-y,z
x,1/2+y,1/2+z
-x,1/2-y,1/2+z
-x,1/2+y,1/2+z
x,1/2-y,1/2+z
1/2+x,y,1/2+z
1/2-x,-y,1/2+z
1/2-x,y,1/2+z
1/2+x,-y,1/2+z
1/2+x,1/2+y,z
1/2-x,1/2-y,z
1/2-x,1/2+y,z
1/2+x,1/2-y,z
loop_
_atom_site_type_symbol
_atom_site_label
_atom_site_fract_x
_atom_site_fract_y
_atom_site_fract_z
Si Si1 0.709956 0.109385 0.100930
Si Si2 0.606981 0.108817 0.191474
Si Si3 0.106532 0.647897 0.472823
Si Si4 0.113705 0.603343 0.290934
Si Si5 0.106572 0.648326 0.008198
Si Si6 0.396235 0.602034 0.068608
Si Si7 0.614222 0.596089 0.411174
Si Si8 0.614445 0.709748 0.878908
O O1 0.662240 0.137310 0.147316
O O2 0.815660 0.144502 0.098005
O O3 0.710316 0.000000 0.099996
O O4 0.658299 0.138791 0.055297
O O5 0.500000 0.138239 0.187258
O O6 0.643989 0.134537 0.241047
O O7 0.606376 0.000000 0.192078
O O8 0.106027 0.749852 0.490582
O O9 0.142241 0.599085 0.517145
O O10 0.147167 0.652847 0.422742
O O11 0.000000 0.615647 0.467739
O O12 0.141452 0.500000 0.298195
O O13 0.143302 0.665391 0.332236
O O14 0.000000 0.603709 0.289891
O O15 0.144915 0.599475 0.963682
O O16 0.000000 0.619154 0.015402
O O17 0.500000 0.643009 0.068910
O O18 0.406009 0.500000 0.083514
O O19 0.500000 0.599185 0.412487
O O20 0.641433 0.500000 0.391366
O O21 0.642829 0.687206 0.386241
O O22 0.500000 0.708485 0.880694
#
# Coordination Sequence:
#
# PCOD9368193 Si02
#       8
#    16  16  16  16  16  16  16  16
#     4  10  18  26  40  61  85 122 163 190 227 284
#     4   8  14  24  37  57  89 124 154 188 231 279
#     4   8  15  27  40  57  85 119 155 193 228 267
#     4   8  13  21  34  55  86 123 160 197 236 278
#     4   9  16  25  39  61  89 119 152 191 232 278
#     4   9  18  31  43  56  81 119 161 203 239 272
#     4   8  13  21  33  52  84 124 158 189 227 270
#     4   8  13  21  35  56  82 119 163 194 224 275
#
# _framework density 20.096596999999999
#
# number of rings (size 3 to 8) (size 9 to 14) (size 15 to 20)
#    0.000    3.500    0.000    3.000    0.000    2.250 
#    0.000    2.500    0.000    0.000    0.000    0.000 
#    0.000    9.000    0.000   41.250    0.000  129.250 
#
# Total GULP energy -178258.901376 kJ/mol
# GULP energy per Si atom -5570.590668 kJ/mol
# Density = 2.005086 g / cm^3
# Si number density = 20.096597 Si / 1000 Ang^3
#
#
#
# Elastic Constant Matrix: (Units=GPa)
#
#
# Indices 1 2 3 4 5 6 
#
# 1 64.1974 9.9184 61.6414 0.0000 0.0000 0.0000
# 2 9.9184 51.3067 41.8898 0.0000 0.0000 0.0000
# 3 61.6414 41.8898 179.7767 0.0000 0.0000 0.0000
# 4 0.0000 0.0000 0.0000 16.4733 0.0000 0.0000
# 5 0.0000 0.0000 0.0000 0.0000 11.4791 0.0000
# 6 0.0000 0.0000 0.0000 0.0000 0.0000 2.9670
#
#
#
# Elastic Compliance Matrix: (Units=1/GPa)
#
#
# Indices 1 2 3 4 5 6 
#
# 1 0.023482 0.002512 -0.008637 0.000000 0.000000 0.000000
# 2 0.002512 0.024339 -0.006532 0.000000 0.000000 0.000000
# 3 -0.008637 -0.006532 0.010046 0.000000 0.000000 0.000000
# 4 0.000000 0.000000 0.000000 0.060704 0.000000 0.000000
# 5 0.000000 0.000000 0.000000 0.000000 0.087115 0.000000
# 6 0.000000 0.000000 0.000000 0.000000 0.000000 0.337045
#
#
# Mechanical properties :
#
#
# Convention : Reuss Voigt Hill
#
# Bulk Modulus (GPa) = 30.72008 58.02002 44.37005
# Shear Modulus (GPa) = 8.63715 18.30595 13.47155
#
# Velocity S-wave (km/s) = 2.07537 3.02138 2.59190
# Velocity P-wave (km/s) = 4.58936 6.41131 5.57527
#
# Compressibility (1/GPa) = 0.03255200
#
# Stress axis : x y z
#
# Youngs Moduli (GPa) = 42.58637 41.08717 99.54286
#
# Poissons Ratio (x) = -0.10322 0.85972
# Poissons Ratio (y) = -0.10698 0.65026
# Poissons Ratio (z) = 0.36781 0.26840
#
# Static dielectric constant tensor:
#      x y z
#    x 1.760600 0.000000 0.000000 
#    y 0.000000 1.760440 0.000000 
#    z 0.000000 0.000000 1.696310 
# 
# From -- ./inp_files/30022.got.cif
#   From: 2010.05.17/outbox.cif.g08.bks.cpg/sg42_16_cif.got.tgz:30022.got - 2010.06.03 19:03:34.
