data_PCOD9368274
_publ_section_title
;
Structure prediction by ZEFSAII (Michael W. Deem and Ramdas Pophale) SiO2 
 PCOD9368274
Probable space group: F M M 2
;
_chemical_formula_sum "Si O2"
_cell_formula_units_Z 96
_cell_length_a 14.932821
_cell_length_b 17.165770
_cell_length_c 18.860439
_cell_angle_alpha 90.000000
_cell_angle_beta 90.000000
_cell_angle_gamma 90.000000
_cell_volume 4834.559902
_symmetry_space_group_name_H-M "F M M 2"
_symmetry_group_IT_number 42
_symmetry_cell_setting 'orthorhombic'
loop_
_space_group_symop_operation_xyz
x,y,z
-x,-y,z
-x,y,z
x,-y,z
x,1/2+y,1/2+z
-x,1/2-y,1/2+z
-x,1/2+y,1/2+z
x,1/2-y,1/2+z
1/2+x,y,1/2+z
1/2-x,-y,1/2+z
1/2-x,y,1/2+z
1/2+x,-y,1/2+z
1/2+x,1/2+y,z
1/2-x,1/2-y,z
1/2-x,1/2+y,z
1/2+x,1/2-y,z
loop_
_atom_site_type_symbol
_atom_site_label
_atom_site_fract_x
_atom_site_fract_y
_atom_site_fract_z
Si Si1 0.342083 0.296952 0.338000
Si Si2 0.608051 0.000000 0.606939
Si Si3 0.108694 0.660889 0.680103
Si Si4 0.109260 0.910602 0.464067
Si Si5 0.890546 0.728872 0.056473
Si Si6 0.398995 0.166370 0.427899
Si Si7 0.107396 0.500000 0.438376
O O1 0.250000 0.250000 0.343237
O O2 0.358699 0.327827 0.259771
O O3 0.354762 0.365673 0.394926
O O4 0.405485 0.226687 0.363969
O O5 0.639172 0.079598 0.644472
O O6 0.624768 0.000000 0.522835
O O7 0.500000 0.000000 0.613225
O O8 0.136902 0.733404 0.630435
O O9 0.000000 0.659611 0.681236
O O10 0.135609 0.857518 0.531723
O O11 0.000000 0.909473 0.459173
O O12 0.138201 0.000000 0.468616
O O13 0.000000 0.729008 0.055646
O O14 0.857684 0.787122 0.994064
O O15 0.500000 0.148985 0.453223
O O16 0.356983 0.082841 0.410592
O O17 0.000000 0.500000 0.422700
#
# Coordination Sequence:
#
# PCOD9368274 Si02
#       7
#    16   8  16  16  16  16   8
#     4  11  23  36  48  72 110 151 178 212 263 318
#     4   9  16  26  51  88 108 123 165 230 281 307
#     4  10  18  31  53  80 109 138 173 218 268 319
#     4   9  18  35  61  87 105 131 178 229 271 312
#     4   8  14  27  52  81 105 128 162 217 273 316
#     4   9  16  31  53  77 100 128 170 216 265 315
#     4   9  14  26  53  82 102 119 161 228 275 309
#
# _framework density 19.857029000000001
#
# number of rings (size 3 to 8) (size 9 to 14) (size 15 to 20)
#    0.000    2.667    1.667    2.500    1.167    0.000 
#    1.500    3.333    1.833    0.000    0.000    0.000 
#    0.000    0.000    0.000    0.000    0.000    0.000 
#
# Total GULP energy -133730.405056 kJ/mol
# GULP energy per Si atom -5572.100211 kJ/mol
# Density = 1.981183 g / cm^3
# Si number density = 19.857029 Si / 1000 Ang^3
#
#
#
# Elastic Constant Matrix: (Units=GPa)
#
#
# Indices 1 2 3 4 5 6 
#
# 1 40.4428 15.0216 1.6803 0.0000 0.0000 0.0000
# 2 15.0216 186.3869 47.7278 0.0000 0.0000 0.0000
# 3 1.6803 47.7278 75.7691 0.0000 0.0000 0.0000
# 4 0.0000 0.0000 0.0000 24.6206 0.0000 0.0000
# 5 0.0000 0.0000 0.0000 0.0000 244.2096 0.0000
# 6 0.0000 0.0000 0.0000 0.0000 0.0000 14.8924
#
#
#
# Elastic Compliance Matrix: (Units=1/GPa)
#
#
# Indices 1 2 3 4 5 6 
#
# 1 0.025537 -0.002281 0.000871 0.000000 0.000000 0.000000
# 2 -0.002281 0.006601 -0.004107 0.000000 0.000000 0.000000
# 3 0.000871 -0.004107 0.015766 0.000000 0.000000 0.000000
# 4 0.000000 0.000000 0.000000 0.040616 0.000000 0.000000
# 5 0.000000 0.000000 0.000000 0.000000 0.004095 0.000000
# 6 0.000000 0.000000 0.000000 0.000000 0.000000 0.067149
#
#
# Mechanical properties :
#
#
# Convention : Reuss Voigt Hill
#
# Bulk Modulus (GPa) = 27.12350 47.93980 37.53165
# Shear Modulus (GPa) = 27.30912 72.62245 49.96579
#
# Velocity S-wave (km/s) = 3.71251 6.05409 5.02169
# Velocity P-wave (km/s) = 5.66269 8.54777 7.25018
#
# Compressibility (1/GPa) = 0.03686840
#
# Stress axis : x y z
#
# Youngs Moduli (GPa) = 39.15831 151.49718 63.42783
#
# Poissons Ratio (x) = 0.34558 -0.05522
# Poissons Ratio (y) = 0.08932 0.26052
# Poissons Ratio (z) = -0.03409 0.62225
#
# Static dielectric constant tensor:
#      x y z
#    x 0.909610 0.000000 0.000000 
#    y 0.000000 1.734410 0.000000 
#    z 0.000000 0.000000 1.656160 
# 
# From -- ./inp_files/20836.got.cif
#   From: 2010.05.17/outbox.cif.g08.bks.cpg/sg42_11_cif.got.tgz:20836.got - 2010.06.03 19:03:34.
