data_PCOD9368521
_publ_section_title
;
Structure prediction by ZEFSAII (Michael W. Deem and Ramdas Pophale) SiO2 
 PCOD9368521
Probable space group: F M M 2
;
_chemical_formula_sum "Si O2"
_cell_formula_units_Z 96
_cell_length_a 24.071136
_cell_length_b 7.856233
_cell_length_c 26.695541
_cell_angle_alpha 90.000000
_cell_angle_beta 90.000000
_cell_angle_gamma 90.000000
_cell_volume 5048.352460
_symmetry_space_group_name_H-M "F M M 2"
_symmetry_group_IT_number 42
_symmetry_cell_setting 'orthorhombic'
loop_
_space_group_symop_operation_xyz
x,y,z
-x,-y,z
-x,y,z
x,-y,z
x,1/2+y,1/2+z
-x,1/2-y,1/2+z
-x,1/2+y,1/2+z
x,1/2-y,1/2+z
1/2+x,y,1/2+z
1/2-x,-y,1/2+z
1/2-x,y,1/2+z
1/2+x,-y,1/2+z
1/2+x,1/2+y,z
1/2-x,1/2-y,z
1/2-x,1/2+y,z
1/2+x,1/2-y,z
loop_
_atom_site_type_symbol
_atom_site_label
_atom_site_fract_x
_atom_site_fract_y
_atom_site_fract_z
Si Si1 0.609045 0.797647 0.224050
Si Si2 0.685624 0.203269 0.815484
Si Si3 0.500000 0.191618 0.381384
Si Si4 0.380893 0.803746 0.912100
Si Si5 0.435897 0.793148 0.122137
Si Si6 0.064762 0.791644 0.508661
Si Si7 0.000000 0.313933 0.778057
O O1 0.658298 0.762699 0.263176
O O2 0.607407 0.743402 0.165610
O O3 0.555037 0.708664 0.246521
O O4 0.599954 0.000000 0.224407
O O5 0.750000 0.250000 0.817314
O O6 0.654864 0.271538 0.866056
O O7 0.678706 0.000000 0.816228
O O8 0.444574 0.291582 0.394625
O O9 0.500000 0.179258 0.321790
O O10 0.500000 0.000000 0.402330
O O11 0.389752 0.730042 0.968138
O O12 0.362852 0.000000 0.917528
O O13 0.500000 0.742034 0.134215
O O14 0.436497 0.000000 0.120420
O O15 0.423484 0.736415 0.065555
O O16 0.000000 0.743905 0.497375
O O17 0.065587 0.000000 0.506975
O O18 0.000000 0.500000 0.801728
#
# Coordination Sequence:
#
# PCOD9368521 Si02
#       7
#    16  16   8  16  16  16   8
#     4  11  20  33  54  79 108 140 174 218 264 311
#     4  11  24  39  55  75 101 135 179 226 271 322
#     4  12  22  30  47  76 109 141 170 208 260 315
#     4  10  19  33  54  77 104 138 175 215 257 310
#     4   8  14  25  45  78 112 140 173 206 243 302
#     4   8  13  24  47  77 108 140 172 205 243 301
#     4  12  22  32  47  74 109 143 176 210 258 321
#
# _framework density 19.016105
#
# number of rings (size 3 to 8) (size 9 to 14) (size 15 to 20)
#    0.000    2.000    3.333    3.500    0.000    0.667 
#    0.000    0.000    0.000    4.000    0.000    2.333 
#    0.000    0.000    0.000    0.000    0.000    0.000 
#
# Total GULP energy -133653.536654 kJ/mol
# GULP energy per Si atom -5568.897361 kJ/mol
# Density = 1.897282 g / cm^3
# Si number density = 19.016105 Si / 1000 Ang^3
#
#
#
# Elastic Constant Matrix: (Units=GPa)
#
#
# Indices 1 2 3 4 5 6 
#
# 1 90.5875 -4.8382 63.2174 0.0000 0.0000 0.0000
# 2 -4.8382 46.0773 8.6297 0.0000 0.0000 0.0000
# 3 63.2174 8.6297 183.3322 0.0000 0.0000 0.0000
# 4 0.0000 0.0000 0.0000 11.7406 0.0000 0.0000
# 5 0.0000 0.0000 0.0000 0.0000 10.5872 0.0000
# 6 0.0000 0.0000 0.0000 0.0000 0.0000 -15.1748
#
#
#
# Elastic Compliance Matrix: (Units=1/GPa)
#
#
# Indices 1 2 3 4 5 6 
#
# 1 0.014825 0.002536 -0.005232 0.000000 0.000000 0.000000
# 2 0.002536 0.022330 -0.001926 0.000000 0.000000 0.000000
# 3 -0.005232 -0.001926 0.007349 0.000000 0.000000 0.000000
# 4 0.000000 0.000000 0.000000 0.085175 0.000000 0.000000
# 5 0.000000 0.000000 0.000000 0.000000 0.094453 0.000000
# 6 0.000000 0.000000 0.000000 0.000000 0.000000 -0.065899
#
#
# Mechanical properties :
#
#
# Convention : Reuss Voigt Hill
#
# Bulk Modulus (GPa) = 28.35862 50.44611 39.40237
# Shear Modulus (GPa) = 27.89717 18.29647 23.09682
#
# Velocity S-wave (km/s) = 3.83434 3.10523 3.48888
# Velocity P-wave (km/s) = 5.87777 6.28031 6.08237
#
# Compressibility (1/GPa) = 0.03526265
#
# Stress axis : x y z
#
# Youngs Moduli (GPa) = 67.45170 44.78352 136.06924
#
# Poissons Ratio (x) = -0.11359 0.71186
# Poissons Ratio (y) = -0.17109 0.26203
# Poissons Ratio (z) = 0.35288 0.08624
#
# Static dielectric constant tensor:
#      x y z
#    x 1.622790 0.000000 0.000000 
#    y 0.000000 1.708970 0.000000 
#    z 0.000000 0.000000 1.763960 
# 
# From -- ./inp_files/31632.got.cif
#   From: 2010.05.17/outbox.cif.g08.bks.cpg/sg42_16_cif.got.tgz:31632.got - 2010.06.03 19:03:34.
