data_PCOD9368987
_publ_section_title
;
Structure prediction by ZEFSAII (Michael W. Deem and Ramdas Pophale) SiO2 
 PCOD9368987
Probable space group: F M M 2
;
_chemical_formula_sum "Si O2"
_cell_formula_units_Z 96
_cell_length_a 13.649358
_cell_length_b 14.074505
_cell_length_c 25.116119
_cell_angle_alpha 90.000000
_cell_angle_beta 90.000000
_cell_angle_gamma 90.000000
_cell_volume 4825.006319
_symmetry_space_group_name_H-M "F M M 2"
_symmetry_group_IT_number 42
_symmetry_cell_setting 'orthorhombic'
loop_
_space_group_symop_operation_xyz
x,y,z
-x,-y,z
-x,y,z
x,-y,z
x,1/2+y,1/2+z
-x,1/2-y,1/2+z
-x,1/2+y,1/2+z
x,1/2-y,1/2+z
1/2+x,y,1/2+z
1/2-x,-y,1/2+z
1/2-x,y,1/2+z
1/2+x,-y,1/2+z
1/2+x,1/2+y,z
1/2-x,1/2-y,z
1/2-x,1/2+y,z
1/2+x,1/2-y,z
loop_
_atom_site_type_symbol
_atom_site_label
_atom_site_fract_x
_atom_site_fract_y
_atom_site_fract_z
Si Si1 0.619515 0.798382 0.151350
Si Si2 0.109843 0.000000 0.821786
Si Si3 0.618307 0.395655 0.210879
Si Si4 0.619281 0.389791 0.543256
Si Si5 0.386818 0.614880 0.425335
Si Si6 0.775282 0.647031 0.819049
Si Si7 0.889755 0.500000 0.194994
O O1 0.500000 0.797291 0.154536
O O2 0.649380 0.698217 0.177560
O O3 0.646961 0.817918 0.090035
O O4 0.652312 0.896908 0.179871
O O5 0.177332 0.909989 0.833935
O O6 0.102335 0.000000 0.758069
O O7 0.000000 0.000000 0.844088
O O8 0.500000 0.389648 0.216323
O O9 0.640569 0.500000 0.186385
O O10 0.664366 0.396610 0.270073
O O11 0.500000 0.391329 0.540846
O O12 0.648196 0.500000 0.555234
O O13 0.654127 0.362617 0.484060
O O14 0.500000 0.644073 0.424019
O O15 0.383133 0.500000 0.421069
O O16 0.335083 0.654615 0.373526
O O17 0.750000 0.750000 0.798700
O O18 0.000000 0.500000 0.170661
#
# Coordination Sequence:
#
# PCOD9368987 Si02
#       7
#    16   8  16  16  16  16   8
#     4   9  15  26  49  84 121 154 188 234 292 351
#     4  11  24  40  54  79 119 157 197 246 309 375
#     4  10  20  35  56  84 120 160 199 237 289 359
#     4   8  13  24  48  86 123 150 185 236 291 348
#     4   9  17  32  57  87 118 151 190 239 295 353
#     4  12  23  37  58  83 114 159 196 252 300 362
#     4   9  16  28  47  73 111 147 180 230 288 351
#
# _framework density 19.896348
#
# number of rings (size 3 to 8) (size 9 to 14) (size 15 to 20)
#    0.000    2.333    2.500    2.500    0.000    4.000 
#    0.000    0.000    0.000    3.000    2.167    0.000 
#    0.000    1.333    0.000    0.000    0.000    0.000 
#
# Total GULP energy -133813.678221 kJ/mol
# GULP energy per Si atom -5575.569926 kJ/mol
# Density = 1.985106 g / cm^3
# Si number density = 19.896348 Si / 1000 Ang^3
#
#
#
# Elastic Constant Matrix: (Units=GPa)
#
#
# Indices 1 2 3 4 5 6 
#
# 1 62.6463 38.7558 14.4948 0.0000 0.0000 0.0000
# 2 38.7558 143.1902 47.2713 0.0000 0.0000 0.0000
# 3 14.4948 47.2713 114.3803 0.0000 0.0000 0.0000
# 4 0.0000 0.0000 0.0000 27.0034 0.0000 0.0000
# 5 0.0000 0.0000 0.0000 0.0000 4.6790 0.0000
# 6 0.0000 0.0000 0.0000 0.0000 0.0000 23.6389
#
#
#
# Elastic Compliance Matrix: (Units=1/GPa)
#
#
# Indices 1 2 3 4 5 6 
#
# 1 0.019184 -0.005083 -0.000330 0.000000 0.000000 0.000000
# 2 -0.005083 0.009434 -0.003255 0.000000 0.000000 0.000000
# 3 -0.000330 -0.003255 0.010130 0.000000 0.000000 0.000000
# 4 0.000000 0.000000 0.000000 0.037032 0.000000 0.000000
# 5 0.000000 0.000000 0.000000 0.000000 0.213720 0.000000
# 6 0.000000 0.000000 0.000000 0.000000 0.000000 0.042303
#
#
# Mechanical properties :
#
#
# Convention : Reuss Voigt Hill
#
# Bulk Modulus (GPa) = 46.70479 57.91785 52.31132
# Shear Modulus (GPa) = 14.03404 25.71059 19.87231
#
# Velocity S-wave (km/s) = 2.65874 3.59866 3.16380
# Velocity P-wave (km/s) = 5.74023 6.81470 6.30041
#
# Compressibility (1/GPa) = 0.02141108
#
# Stress axis : x y z
#
# Youngs Moduli (GPa) = 52.12740 105.99910 98.71921
#
# Poissons Ratio (x) = 0.53882 0.03260
# Poissons Ratio (y) = 0.26498 0.32131
# Poissons Ratio (z) = 0.01721 0.34500
#
# Static dielectric constant tensor:
#      x y z
#    x 1.753100 0.000000 0.000000 
#    y 0.000000 1.721010 0.000000 
#    z 0.000000 0.000000 1.705990 
# 
# From -- ./inp_files/29410.got.cif
#   From: 2010.05.17/outbox.cif.g08.bks.cpg/sg42_15_cif.got.tgz:29410.got - 2010.06.03 19:03:34.
