data_PCOD9368506
_publ_section_title
;
Structure prediction by ZEFSAII (Michael W. Deem and Ramdas Pophale) SiO2 
 PCOD9368506
Probable space group: F M M 2
;
_chemical_formula_sum "Si O2"
_cell_formula_units_Z 80
_cell_length_a 18.514246
_cell_length_b 14.445545
_cell_length_c 15.448390
_cell_angle_alpha 90.000000
_cell_angle_beta 90.000000
_cell_angle_gamma 90.000000
_cell_volume 4131.646782
_symmetry_space_group_name_H-M "F M M 2"
_symmetry_group_IT_number 42
_symmetry_cell_setting 'orthorhombic'
loop_
_space_group_symop_operation_xyz
x,y,z
-x,-y,z
-x,y,z
x,-y,z
x,1/2+y,1/2+z
-x,1/2-y,1/2+z
-x,1/2+y,1/2+z
x,1/2-y,1/2+z
1/2+x,y,1/2+z
1/2-x,-y,1/2+z
1/2-x,y,1/2+z
1/2+x,-y,1/2+z
1/2+x,1/2+y,z
1/2-x,1/2-y,z
1/2-x,1/2+y,z
1/2+x,1/2-y,z
loop_
_atom_site_type_symbol
_atom_site_label
_atom_site_fract_x
_atom_site_fract_y
_atom_site_fract_z
Si Si1 0.820523 0.105901 0.904720
Si Si2 0.580524 0.110890 0.678949
Si Si3 0.082273 0.259564 0.508816
Si Si4 0.231703 0.393909 0.744514
Si Si5 0.285670 0.649136 0.556958
O O1 0.881058 0.177854 0.935040
O O2 0.782063 0.145223 0.819068
O O3 0.847457 0.000000 0.892124
O O4 0.760181 0.102614 0.980793
O O5 0.500000 0.122077 0.717383
O O6 0.582980 0.171501 0.591977
O O7 0.650261 0.142474 0.733197
O O8 0.589460 0.000000 0.659733
O O9 0.132314 0.171107 0.530555
O O10 0.000000 0.234717 0.489800
O O11 0.222063 0.500000 0.772176
O O12 0.270900 0.392386 0.651298
O O13 0.250000 0.750000 0.564005
#
# Coordination Sequence:
#
# PCOD9368506 Si02
#       5
#    16  16  16  16  16
#     4  10  20  34  56  83 106 141 187 227 267 318
#     4   9  16  29  52  80 107 136 176 226 275 317
#     4  10  20  35  53  79 110 142 178 224 276 321
#     4  10  19  33  55  80 108 144 186 227 269 323
#     4  10  19  33  52  76 110 143 175 222 270 328
#
# _framework density 19.362738
#
# number of rings (size 3 to 8) (size 9 to 14) (size 15 to 20)
#    0.000    2.200    4.000    1.200    0.000    3.600 
#    0.000    2.000    0.000    4.800    0.000    0.000 
#    0.000    0.000    0.000    0.000    0.000    0.000 
#
# Total GULP energy -111456.687309 kJ/mol
# GULP energy per Si atom -5572.834365 kJ/mol
# Density = 1.931867 g / cm^3
# Si number density = 19.362738 Si / 1000 Ang^3
#
#
#
# Elastic Constant Matrix: (Units=GPa)
#
#
# Indices 1 2 3 4 5 6 
#
# 1 162.7768 2.3286 31.2544 0.0000 0.0000 0.0000
# 2 2.3286 30.2147 -14.9621 0.0000 0.0000 0.0000
# 3 31.2544 -14.9621 68.4146 0.0000 0.0000 0.0000
# 4 0.0000 0.0000 0.0000 13.3226 0.0000 0.0000
# 5 0.0000 0.0000 0.0000 0.0000 29.9824 0.0000
# 6 0.0000 0.0000 0.0000 0.0000 0.0000 17.5894
#
#
#
# Elastic Compliance Matrix: (Units=1/GPa)
#
#
# Indices 1 2 3 4 5 6 
#
# 1 0.006878 -0.002340 -0.003654 0.000000 0.000000 0.000000
# 2 -0.002340 0.037912 0.009360 0.000000 0.000000 0.000000
# 3 -0.003654 0.009360 0.018333 0.000000 0.000000 0.000000
# 4 0.000000 0.000000 0.000000 0.075060 0.000000 0.000000
# 5 0.000000 0.000000 0.000000 0.000000 0.033353 0.000000
# 6 0.000000 0.000000 0.000000 0.000000 0.000000 0.056852
#
#
# Mechanical properties :
#
#
# Convention : Reuss Voigt Hill
#
# Bulk Modulus (GPa) = 14.31509 33.18310 23.74910
# Shear Modulus (GPa) = 20.41305 28.36457 24.38881
#
# Velocity S-wave (km/s) = 3.25043 3.83156 3.55290
# Velocity P-wave (km/s) = 4.63641 6.06212 5.39655
#
# Compressibility (1/GPa) = 0.06985634
#
# Stress axis : x y z
#
# Youngs Moduli (GPa) = 145.38163 26.37697 54.54628
#
# Poissons Ratio (x) = 0.06171 0.19931
# Poissons Ratio (y) = 0.34013 -0.51055
# Poissons Ratio (z) = 0.53122 -0.24689
#
# Static dielectric constant tensor:
#      x y z
#    x 1.717880 0.000000 0.000000 
#    y 0.000000 1.695950 0.000000 
#    z 0.000000 0.000000 1.695430 
# 
# From -- ./inp_files/13809.got.cif
#   From: 2010.05.17/outbox.cif.g08.bks.cpg/sg42_7_cif.got.tgz:13809.got - 2010.06.03 19:03:34.
