data_PCOD9368093
_publ_section_title
;
Structure prediction by ZEFSAII (Michael W. Deem and Ramdas Pophale) SiO2 
 PCOD9368093
Probable space group: F M M 2
;
_chemical_formula_sum "Si O2"
_cell_formula_units_Z 104
_cell_length_a 14.784493
_cell_length_b 12.399135
_cell_length_c 26.261847
_cell_angle_alpha 90.000000
_cell_angle_beta 90.000000
_cell_angle_gamma 90.000000
_cell_volume 4814.188503
_symmetry_space_group_name_H-M "F M M 2"
_symmetry_group_IT_number 42
_symmetry_cell_setting 'orthorhombic'
loop_
_space_group_symop_operation_xyz
x,y,z
-x,-y,z
-x,y,z
x,-y,z
x,1/2+y,1/2+z
-x,1/2-y,1/2+z
-x,1/2+y,1/2+z
x,1/2-y,1/2+z
1/2+x,y,1/2+z
1/2-x,-y,1/2+z
1/2-x,y,1/2+z
1/2+x,-y,1/2+z
1/2+x,1/2+y,z
1/2-x,1/2-y,z
1/2-x,1/2+y,z
1/2+x,1/2-y,z
loop_
_atom_site_type_symbol
_atom_site_label
_atom_site_fract_x
_atom_site_fract_y
_atom_site_fract_z
Si Si1 0.106022 0.000000 0.907260
Si Si2 0.638002 0.500000 0.014669
Si Si3 0.391631 0.715628 0.841945
Si Si4 0.395646 0.000000 0.621688
Si Si5 0.140578 0.746031 0.526368
Si Si6 0.393613 0.878382 0.238980
Si Si7 0.107497 0.621160 0.924580
Si Si8 0.642440 0.759717 0.640571
O O1 0.117606 0.894832 0.873415
O O2 0.000000 0.000000 0.926029
O O3 0.169944 0.000000 0.956409
O O4 0.673738 0.500000 0.073364
O O5 0.604464 0.624914 0.015681
O O6 0.500000 0.736828 0.837063
O O7 0.354994 0.692610 0.785500
O O8 0.352740 0.808997 0.878063
O O9 0.382779 0.114150 0.649233
O O10 0.500000 0.000000 0.601661
O O11 0.250000 0.750000 0.527590
O O12 0.117399 0.822135 0.479347
O O13 0.109464 0.772751 0.583817
O O14 0.500000 0.890340 0.250690
O O15 0.388360 0.816981 0.185700
O O16 0.354804 0.000000 0.236822
O O17 0.141817 0.500000 0.924847
O O18 0.000000 0.616685 0.916256
O O19 0.750000 0.750000 0.639743
#
# Coordination Sequence:
#
# PCOD9368093 Si02
#       8
#     8   8  16   8  16  16  16  16
#     4  10  15  26  53  83 105 131 171 231 289 327
#     4  10  19  32  56  82 105 152 193 231 290 341
#     4   9  17  32  54  82 113 142 182 233 288 341
#     4  10  21  38  59  89 120 149 202 256 293 354
#     4  10  22  37  55  81 114 152 190 235 284 348
#     4  10  20  36  61  88 111 143 195 250 292 341
#     4  10  21  36  56  85 119 153 186 229 287 352
#     4  10  23  40  59  82 117 160 196 239 304 360
#
# _framework density 21.602810000000002
#
# number of rings (size 3 to 8) (size 9 to 14) (size 15 to 20)
#    0.000    2.154    2.308    0.692    2.154    3.692 
#    1.385    2.308    0.000    1.846    0.000    0.000 
#    0.000    0.000    0.000    0.000    0.000    0.000 
#
# Total GULP energy -144813.865503 kJ/mol
# GULP energy per Si atom -5569.764058 kJ/mol
# Density = 2.155364 g / cm^3
# Si number density = 21.602810 Si / 1000 Ang^3
#
#
#
# Elastic Constant Matrix: (Units=GPa)
#
#
# Indices 1 2 3 4 5 6 
#
# 1 64.5758 13.9415 5.6151 0.0000 0.0000 0.0000
# 2 13.9415 186.4356 106.1254 0.0000 0.0000 0.0000
# 3 5.6151 106.1254 189.0534 0.0000 0.0000 0.0000
# 4 0.0000 0.0000 0.0000 9.7758 0.0000 0.0000
# 5 0.0000 0.0000 0.0000 0.0000 27.6721 0.0000
# 6 0.0000 0.0000 0.0000 0.0000 0.0000 -1.2378
#
#
#
# Elastic Compliance Matrix: (Units=1/GPa)
#
#
# Indices 1 2 3 4 5 6 
#
# 1 0.015750 -0.001340 0.000284 0.000000 0.000000 0.000000
# 2 -0.001340 0.007997 -0.004449 0.000000 0.000000 0.000000
# 3 0.000284 -0.004449 0.007779 0.000000 0.000000 0.000000
# 4 0.000000 0.000000 0.000000 0.102293 0.000000 0.000000
# 5 0.000000 0.000000 0.000000 0.000000 0.036138 0.000000
# 6 0.000000 0.000000 0.000000 0.000000 0.000000 -0.807873
#
#
# Mechanical properties :
#
#
# Convention : Reuss Voigt Hill
#
# Bulk Modulus (GPa) = 48.74165 76.82543 62.78354
# Shear Modulus (GPa) = -8.06361 28.20086 10.06862
#
# Velocity S-wave (km/s) = -1.93411 3.61699 2.16123
# Velocity P-wave (km/s) = 4.19809 7.28583 5.94589
#
# Compressibility (1/GPa) = 0.02051634
#
# Stress axis : x y z
#
# Youngs Moduli (GPa) = 63.49140 125.05451 128.55846
#
# Poissons Ratio (x) = 0.16751 -0.03653
# Poissons Ratio (y) = 0.08505 0.57197
# Poissons Ratio (z) = -0.01804 0.55638
#
# Static dielectric constant tensor:
#      x y z
#    x 1.865400 0.000000 0.000000 
#    y 0.000000 1.776890 0.000000 
#    z 0.000000 0.000000 1.788150 
# 
# From -- ./inp_files/32216.got.cif
#   From: 2010.05.17/outbox.cif.g08.bks.cpg/sg42_17_cif.got.tgz:32216.got - 2010.06.03 19:03:34.
