data_PCOD9368939
_publ_section_title
;
Structure prediction by ZEFSAII (Michael W. Deem and Ramdas Pophale) SiO2 
 PCOD9368939
Probable space group: F M M 2
;
_chemical_formula_sum "Si O2"
_cell_formula_units_Z 100
_cell_length_a 7.876735
_cell_length_b 30.493544
_cell_length_c 20.793649
_cell_angle_alpha 90.000000
_cell_angle_beta 90.000000
_cell_angle_gamma 90.000000
_cell_volume 4994.417514
_symmetry_space_group_name_H-M "F M M 2"
_symmetry_group_IT_number 42
_symmetry_cell_setting 'orthorhombic'
loop_
_space_group_symop_operation_xyz
x,y,z
-x,-y,z
-x,y,z
x,-y,z
x,1/2+y,1/2+z
-x,1/2-y,1/2+z
-x,1/2+y,1/2+z
x,1/2-y,1/2+z
1/2+x,y,1/2+z
1/2-x,-y,1/2+z
1/2-x,y,1/2+z
1/2+x,-y,1/2+z
1/2+x,1/2+y,z
1/2-x,1/2-y,z
1/2-x,1/2+y,z
1/2+x,1/2-y,z
loop_
_atom_site_type_symbol
_atom_site_label
_atom_site_fract_x
_atom_site_fract_y
_atom_site_fract_z
Si Si1 0.000000 0.500000 0.013786
Si Si2 0.201123 0.797194 0.320074
Si Si3 0.799342 0.113412 0.607016
Si Si4 0.207794 0.551176 0.224181
Si Si5 0.202368 0.605573 0.349121
Si Si6 0.702556 0.702624 0.173729
Si Si7 0.803066 0.068343 0.988000
O O1 0.846673 0.463103 0.011861
O O2 0.250000 0.750000 0.349326
O O3 0.250833 0.843285 0.351050
O O4 0.272405 0.798520 0.247017
O O5 0.000000 0.796995 0.315835
O O6 0.740330 0.077088 0.659697
O O7 0.770976 0.161154 0.636270
O O8 0.704697 0.107272 0.539853
O O9 0.000000 0.107582 0.598628
O O10 0.260694 0.500000 0.225519
O O11 0.268002 0.578963 0.286516
O O12 0.000000 0.550974 0.224610
O O13 0.246577 0.582396 0.415902
O O14 0.000000 0.603632 0.343759
O O15 0.500000 0.699065 0.176189
O O16 0.750000 0.750000 0.146084
O O17 0.000000 0.052146 0.986339
#
# Coordination Sequence:
#
# PCOD9368939 Si02
#       7
#     4  16  16  16  16  16  16
#     4  12  26  48  68  94 124 176 222 262 320 382
#     4  10  20  34  59  90 126 164 209 261 319 381
#     4  11  21  38  64  92 128 169 208 264 319 381
#     4   9  19  34  58  88 122 161 207 253 315 378
#     4  10  21  40  62  90 125 165 207 261 316 378
#     4  10  20  35  58  91 126 165 212 263 322 383
#     4  11  26  44  68  94 129 171 218 264 319 383
#
# _framework density 20.022354
#
# number of rings (size 3 to 8) (size 9 to 14) (size 15 to 20)
#    0.000    1.760    2.400    1.680    3.360    1.280 
#    0.000    0.800    0.000    5.760    0.000    0.000 
#    0.000    0.000    0.000    0.000    0.000    0.000 
#
# Total GULP energy -139217.201575 kJ/mol
# GULP energy per Si atom -5568.688063 kJ/mol
# Density = 1.997678 g / cm^3
# Si number density = 20.022354 Si / 1000 Ang^3
#
#
#
# Elastic Constant Matrix: (Units=GPa)
#
#
# Indices 1 2 3 4 5 6 
#
# 1 51.2302 8.6393 11.7008 0.0000 0.0000 0.0000
# 2 8.6393 105.6611 2.9675 0.0000 0.0000 0.0000
# 3 11.7008 2.9675 50.1924 0.0000 0.0000 0.0000
# 4 0.0000 0.0000 0.0000 -13.1240 0.0000 0.0000
# 5 0.0000 0.0000 0.0000 0.0000 16.8212 0.0000
# 6 0.0000 0.0000 0.0000 0.0000 0.0000 33.4565
#
#
#
# Elastic Compliance Matrix: (Units=1/GPa)
#
#
# Indices 1 2 3 4 5 6 
#
# 1 0.020875 -0.001573 -0.004773 0.000000 0.000000 0.000000
# 2 -0.001573 0.009598 -0.000201 0.000000 0.000000 0.000000
# 3 -0.004773 -0.000201 0.021048 0.000000 0.000000 0.000000
# 4 0.000000 0.000000 0.000000 -0.076196 0.000000 0.000000
# 5 0.000000 0.000000 0.000000 0.000000 0.059449 0.000000
# 6 0.000000 0.000000 0.000000 0.000000 0.000000 0.029890
#
#
# Mechanical properties :
#
#
# Convention : Reuss Voigt Hill
#
# Bulk Modulus (GPa) = 26.02299 28.18877 27.10588
# Shear Modulus (GPa) = 55.20768 19.68248 37.44508
#
# Velocity S-wave (km/s) = 5.25670 3.13872 4.32923
# Velocity P-wave (km/s) = 7.06180 5.21964 6.20942
#
# Compressibility (1/GPa) = 0.03842755
#
# Stress axis : x y z
#
# Youngs Moduli (GPa) = 47.90374 104.18343 47.51052
#
# Poissons Ratio (x) = 0.16386 0.22679
# Poissons Ratio (y) = 0.07534 0.00954
# Poissons Ratio (z) = 0.22866 0.02092
#
# Static dielectric constant tensor:
#      x y z
#    x 1.714690 0.000000 0.000000 
#    y 0.000000 1.748400 0.000000 
#    z 0.000000 0.000000 1.714740 
# 
# From -- ./inp_files/23787.got.cif
#   From: 2010.05.17/outbox.cif.g08.bks.cpg/sg42_12_cif.got.tgz:23787.got - 2010.06.03 19:03:34.
