data_PCOD9368804
_publ_section_title
;
Structure prediction by ZEFSAII (Michael W. Deem and Ramdas Pophale) SiO2 
 PCOD9368804
Probable space group: F M M 2
;
_chemical_formula_sum "Si O2"
_cell_formula_units_Z 96
_cell_length_a 19.039465
_cell_length_b 7.560484
_cell_length_c 32.298385
_cell_angle_alpha 90.000000
_cell_angle_beta 90.000000
_cell_angle_gamma 90.000000
_cell_volume 4649.274052
_symmetry_space_group_name_H-M "F M M 2"
_symmetry_group_IT_number 42
_symmetry_cell_setting 'orthorhombic'
loop_
_space_group_symop_operation_xyz
x,y,z
-x,-y,z
-x,y,z
x,-y,z
x,1/2+y,1/2+z
-x,1/2-y,1/2+z
-x,1/2+y,1/2+z
x,1/2-y,1/2+z
1/2+x,y,1/2+z
1/2-x,-y,1/2+z
1/2-x,y,1/2+z
1/2+x,-y,1/2+z
1/2+x,1/2+y,z
1/2-x,1/2-y,z
1/2-x,1/2+y,z
1/2+x,1/2-y,z
loop_
_atom_site_type_symbol
_atom_site_label
_atom_site_fract_x
_atom_site_fract_y
_atom_site_fract_z
Si Si1 0.832497 0.712252 0.841470
Si Si2 0.919471 0.288208 0.919942
Si Si3 0.667711 0.787721 0.681872
Si Si4 0.668065 0.712284 0.089732
Si Si5 0.420015 0.712544 0.012061
Si Si6 0.918800 0.216724 0.261184
O O1 0.839545 0.500000 0.841546
O O2 0.750000 0.750000 0.839962
O O3 0.870131 0.779442 0.883212
O O4 0.873986 0.775989 0.800874
O O5 0.923388 0.500000 0.915694
O O6 0.892024 0.252153 0.966173
O O7 0.000000 0.220158 0.916895
O O8 0.750000 0.750000 0.689612
O O9 0.649294 0.720406 0.635773
O O10 0.619148 0.722899 0.719096
O O11 0.660398 0.000000 0.680864
O O12 0.659057 0.500000 0.090770
O O13 0.750000 0.750000 0.083439
O O14 0.624043 0.780966 0.050900
O O15 0.500000 0.779572 0.013639
O O16 0.422271 0.500000 0.015366
O O17 0.000000 0.270752 0.263630
O O18 0.918138 0.000000 0.261072
#
# Coordination Sequence:
#
# PCOD9368804 Si02
#       6
#    16  16  16  16  16  16
#     4  10  20  33  50  72  97 124 154 191 233 276
#     4   9  18  33  51  69  91 122 159 195 231 274
#     4   9  17  30  49  71  95 124 156 191 231 275
#     4   9  18  31  47  69  96 125 156 191 232 276
#     4   9  18  32  49  69  94 123 155 194 237 276
#     4   9  17  30  50  74  96 121 156 194 230 272
#
# _framework density 20.648384
#
# number of rings (size 3 to 8) (size 9 to 14) (size 15 to 20)
#    0.000    2.833    0.000    1.000    0.000    4.667 
#    0.000    6.667    0.000    3.000    0.000    4.667 
#    0.000    0.000    0.000    0.000    0.000    0.000 
#
# Total GULP energy -133926.384746 kJ/mol
# GULP energy per Si atom -5580.266031 kJ/mol
# Density = 2.060139 g / cm^3
# Si number density = 20.648384 Si / 1000 Ang^3
#
#
#
# Elastic Constant Matrix: (Units=GPa)
#
#
# Indices 1 2 3 4 5 6 
#
# 1 133.0603 -0.0109 142.6959 0.0000 0.0000 0.0000
# 2 -0.0109 49.4016 7.8610 0.0000 0.0000 0.0000
# 3 142.6959 7.8610 252.2558 0.0000 0.0000 0.0000
# 4 0.0000 0.0000 0.0000 4.2327 0.0000 0.0000
# 5 0.0000 0.0000 0.0000 0.0000 48.6837 0.0000
# 6 0.0000 0.0000 0.0000 0.0000 0.0000 20.8457
#
#
#
# Elastic Compliance Matrix: (Units=1/GPa)
#
#
# Indices 1 2 3 4 5 6 
#
# 1 0.019254 0.001746 -0.010946 0.000000 0.000000 0.000000
# 2 0.001746 0.020501 -0.001627 0.000000 0.000000 0.000000
# 3 -0.010946 -0.001627 0.010207 0.000000 0.000000 0.000000
# 4 0.000000 0.000000 0.000000 0.236258 0.000000 0.000000
# 5 0.000000 0.000000 0.000000 0.000000 0.020541 0.000000
# 6 0.000000 0.000000 0.000000 0.000000 0.000000 0.047971
#
#
# Mechanical properties :
#
#
# Convention : Reuss Voigt Hill
#
# Bulk Modulus (GPa) = 35.32401 81.75665 58.54033
# Shear Modulus (GPa) = 12.95931 33.69719 23.32825
#
# Velocity S-wave (km/s) = 2.50795 4.04413 3.36487
# Velocity P-wave (km/s) = 5.05282 7.84138 6.59614
#
# Compressibility (1/GPa) = 0.02830936
#
# Stress axis : x y z
#
# Youngs Moduli (GPa) = 51.93594 48.77693 97.97192
#
# Poissons Ratio (x) = -0.08517 1.07243
# Poissons Ratio (y) = -0.09068 0.15936
# Poissons Ratio (z) = 0.56851 0.07934
#
# Static dielectric constant tensor:
#      x y z
#    x 1.691240 0.000000 0.000000 
#    y 0.000000 1.802000 0.000000 
#    z 0.000000 0.000000 1.743570 
# 
# From -- ./inp_files/28830.got.cif
#   From: 2010.05.17/outbox.cif.g08.bks.cpg/sg42_15_cif.got.tgz:28830.got - 2010.06.03 19:03:34.
