data_PCOD9368218
_publ_section_title
;
Structure prediction by ZEFSAII (Michael W. Deem and Ramdas Pophale) SiO2 
 PCOD9368218
Probable space group: F M M 2
;
_chemical_formula_sum "Si O2"
_cell_formula_units_Z 96
_cell_length_a 26.219537
_cell_length_b 8.745622
_cell_length_c 23.643480
_cell_angle_alpha 90.000000
_cell_angle_beta 90.000000
_cell_angle_gamma 90.000000
_cell_volume 5421.595599
_symmetry_space_group_name_H-M "F M M 2"
_symmetry_group_IT_number 42
_symmetry_cell_setting 'orthorhombic'
loop_
_space_group_symop_operation_xyz
x,y,z
-x,-y,z
-x,y,z
x,-y,z
x,1/2+y,1/2+z
-x,1/2-y,1/2+z
-x,1/2+y,1/2+z
x,1/2-y,1/2+z
1/2+x,y,1/2+z
1/2-x,-y,1/2+z
1/2-x,y,1/2+z
1/2+x,-y,1/2+z
1/2+x,1/2+y,z
1/2-x,1/2-y,z
1/2-x,1/2+y,z
1/2+x,1/2-y,z
loop_
_atom_site_type_symbol
_atom_site_label
_atom_site_fract_x
_atom_site_fract_y
_atom_site_fract_z
Si Si1 0.305586 0.317182 0.855650
Si Si2 0.194520 0.815079 0.724587
Si Si3 0.593729 0.176449 0.173171
Si Si4 0.939779 0.667908 0.778461
Si Si5 0.500000 0.181389 0.605238
Si Si6 0.903659 0.178907 0.406417
Si Si7 0.000000 0.814601 0.480024
O O1 0.303330 0.500000 0.855762
O O2 0.250000 0.250000 0.869540
O O3 0.317112 0.266802 0.790121
O O4 0.349670 0.262159 0.898211
O O5 0.250000 0.750000 0.711412
O O6 0.152107 0.767423 0.678444
O O7 0.195221 0.000000 0.724543
O O8 0.578397 0.196175 0.238874
O O9 0.551116 0.266505 0.138369
O O10 0.592272 0.000000 0.155446
O O11 0.918766 0.500000 0.760279
O O12 0.927773 0.687620 0.843857
O O13 0.000000 0.660628 0.771592
O O14 0.500000 0.259091 0.544023
O O15 0.500000 0.000000 0.600453
O O16 0.947735 0.236772 0.448716
O O17 0.894168 0.000000 0.419416
O O18 0.000000 0.000000 0.476794
#
# Coordination Sequence:
#
# PCOD9368218 Si02
#       7
#    16  16  16  16   8  16   8
#     4  10  19  32  49  77 114 150 185 220 263 319
#     4   9  19  32  49  77 112 147 181 214 258 316
#     4  11  21  35  54  79 110 145 181 221 268 322
#     4  10  18  29  48  79 112 142 174 212 263 326
#     4  12  26  41  56  79 105 140 186 230 279 324
#     4  10  19  33  55  81 111 145 179 218 269 326
#     4  10  22  41  60  79 105 142 184 226 275 326
#
# _framework density 17.706965
#
# number of rings (size 3 to 8) (size 9 to 14) (size 15 to 20)
#    0.000    1.833    3.333    1.750    0.000    2.667 
#    0.000    0.000    0.000    1.000    0.000    4.667 
#    0.000    0.000    0.000    0.000    0.000    0.000 
#
# Total GULP energy -133734.779890 kJ/mol
# GULP energy per Si atom -5572.282495 kJ/mol
# Density = 1.766666 g / cm^3
# Si number density = 17.706965 Si / 1000 Ang^3
#
#
#
# Elastic Constant Matrix: (Units=GPa)
#
#
# Indices 1 2 3 4 5 6 
#
# 1 150.6417 32.6874 49.6255 0.0000 0.0000 0.0000
# 2 32.6874 27.5564 12.5733 0.0000 0.0000 0.0000
# 3 49.6255 12.5733 59.2047 0.0000 0.0000 0.0000
# 4 0.0000 0.0000 0.0000 21.9131 0.0000 0.0000
# 5 0.0000 0.0000 0.0000 0.0000 10.1562 0.0000
# 6 0.0000 0.0000 0.0000 0.0000 0.0000 25.1339
#
#
#
# Elastic Compliance Matrix: (Units=1/GPa)
#
#
# Indices 1 2 3 4 5 6 
#
# 1 0.011194 -0.009963 -0.007267 0.000000 0.000000 0.000000
# 2 -0.009963 0.049049 -0.002066 0.000000 0.000000 0.000000
# 3 -0.007267 -0.002066 0.023421 0.000000 0.000000 0.000000
# 4 0.000000 0.000000 0.000000 0.045635 0.000000 0.000000
# 5 0.000000 0.000000 0.000000 0.000000 0.098462 0.000000
# 6 0.000000 0.000000 0.000000 0.000000 0.000000 0.039787
#
#
# Mechanical properties :
#
#
# Convention : Reuss Voigt Hill
#
# Bulk Modulus (GPa) = 22.18634 47.46392 34.82513
# Shear Modulus (GPa) = 15.56840 20.94174 18.25507
#
# Velocity S-wave (km/s) = 2.96839 3.44275 3.21433
# Velocity P-wave (km/s) = 4.93005 6.53198 5.78671
#
# Compressibility (1/GPa) = 0.04507278
#
# Stress axis : x y z
#
# Youngs Moduli (GPa) = 89.33359 20.38763 42.69744
#
# Poissons Ratio (x) = 0.20311 0.31029
# Poissons Ratio (y) = 0.88999 0.08821
# Poissons Ratio (z) = 0.64920 0.04212
#
# Static dielectric constant tensor:
#      x y z
#    x 1.653270 0.000000 0.000000 
#    y 0.000000 1.627940 0.000000 
#    z 0.000000 0.000000 1.580090 
# 
# From -- ./inp_files/28197.got.cif
#   From: 2010.05.17/outbox.cif.g08.bks.cpg/sg42_15_cif.got.tgz:28197.got - 2010.06.03 19:03:34.
