data_PCOD9368055
_publ_section_title
;
Structure prediction by ZEFSAII (Michael W. Deem and Ramdas Pophale) SiO2 
 PCOD9368055
Probable space group: A B A 2
;
_chemical_formula_sum "Si O2"
_cell_formula_units_Z 30
_cell_length_a 27.000000
_cell_length_b 18.000000
_cell_length_c 6.000000
_cell_angle_alpha 90.000000
_cell_angle_beta 90.000000
_cell_angle_gamma 90.000000
_cell_volume 2916.000000
_symmetry_space_group_name_H-M "A B A 2"
_symmetry_group_IT_number 41
_symmetry_cell_setting 'orthorhombic'
loop_
_space_group_symop_operation_xyz
x,y,z
-x,-y,z
1/2-x,y,1/2+z
1/2+x,-y,1/2+z
x,1/2+y,1/2+z
-x,1/2-y,1/2+z
1/2-x,1/2+y,z
1/2+x,1/2-y,z
loop_
_atom_site_type_symbol
_atom_site_label
_atom_site_fract_x
_atom_site_fract_y
_atom_site_fract_z
Si Si1 0.448369 0.609019 0.979390
Si Si2 0.232560 0.366134 0.708925
Si Si3 0.266628 0.194642 0.756917
Si Si4 0.942341 0.162419 0.982355
Si Si5 0.000000 0.500000 0.831424
Si Si6 0.122057 0.229549 0.195353
Si Si7 0.580408 0.526344 0.672480
Si Si8 0.872683 0.632008 0.870054
O O1 0.498618 0.657324 0.939699
O O2 0.428086 0.555147 0.780270
O O3 0.467138 0.552457 0.173409
O O4 0.406404 0.664671 0.064012
O O5 0.251941 0.394622 0.463298
O O6 0.247104 0.279284 0.729762
O O7 0.173249 0.372763 0.703408
O O8 0.254808 0.164200 0.499411
O O9 0.326105 0.198514 0.786879
O O10 0.915802 0.233780 0.873619
O O11 0.922700 0.086853 0.866601
O O12 0.922083 0.154059 0.232682
O O13 0.964921 0.541298 0.005000
O O14 0.135863 0.299099 0.036516
O O15 0.624381 0.555514 0.512968
#
# Coordination Sequence:
#
# PCOD9368055 Si02
#       8
#     8   8   8   8   4   8   8   8
#     4  12  24  41  61  89 135 180 220 269 338 412
#     4  10  19  35  63  93 127 166 211 278 352 409
#     4  10  19  40  63  90 132 174 215 272 351 419
#     4  11  22  38  59  91 131 165 219 270 326 400
#     4  12  20  44  60  84 112 192 218 264 316 404
#     4  11  26  35  61 103 127 169 216 281 339 406
#     4  11  22  41  63  83 122 175 229 258 318 407
#     4  11  22  38  65  94 124 165 220 279 330 403
#
# _framework density 10.288066000000001
#
# number of rings (size 3 to 8) (size 9 to 14) (size 15 to 20)
#    0.000    1.067    6.667    1.600    3.733    1.067 
#    0.000    0.000    0.000    1.600    0.000    0.000 
#    0.000    0.000    0.000    0.000    0.000    0.000 
#
# Total GULP energy -167108.363260 kJ/mol
# GULP energy per Si atom -5570.278775 kJ/mol
# Density = 1.026465 g / cm^3
# Si number density = 10.288066 Si / 1000 Ang^3
#
#
#
# Elastic Constant Matrix: (Units=GPa)
#
#
# Indices 1 2 3 4 5 6 
#
# 1 71.4442 15.0966 -1.5492 0.0000 0.0000 0.0000
# 2 15.0966 40.4507 14.6515 0.0000 0.0000 0.0000
# 3 -1.5492 14.6515 98.6748 0.0000 0.0000 0.0000
# 4 0.0000 0.0000 0.0000 28.7564 0.0000 0.0000
# 5 0.0000 0.0000 0.0000 0.0000 32.1621 0.0000
# 6 0.0000 0.0000 0.0000 0.0000 0.0000 12.9756
#
#
#
# Elastic Compliance Matrix: (Units=1/GPa)
#
#
# Indices 1 2 3 4 5 6 
#
# 1 0.015318 -0.006134 0.001151 0.000000 0.000000 0.000000
# 2 -0.006134 0.028583 -0.004340 0.000000 0.000000 0.000000
# 3 0.001151 -0.004340 0.010797 0.000000 0.000000 0.000000
# 4 0.000000 0.000000 0.000000 0.034775 0.000000 0.000000
# 5 0.000000 0.000000 0.000000 0.000000 0.031092 0.000000
# 6 0.000000 0.000000 0.000000 0.000000 0.000000 0.077068
#
#
# Mechanical properties :
#
#
# Convention : Reuss Voigt Hill
#
# Bulk Modulus (GPa) = 27.73790 29.66308 28.70049
# Shear Modulus (GPa) = 21.90142 26.93688 24.41915
#
# Velocity S-wave (km/s) = 3.26607 3.62212 3.44869
# Velocity P-wave (km/s) = 5.26620 5.65160 5.46230
#
# Compressibility (1/GPa) = 0.03605175
#
# Stress axis : x y z
#
# Youngs Moduli (GPa) = 65.28257 34.98611 92.61961
#
# Poissons Ratio (x) = 0.21460 -0.10663
# Poissons Ratio (y) = 0.40043 0.40200
# Poissons Ratio (z) = -0.07516 0.15185
#
# Static dielectric constant tensor:
#      x y z
#    x 1.789370 0.000000 0.000000 
#    y 0.000000 1.738080 0.000000 
#    z 0.000000 0.000000 1.813650 
# 
# From -- ./inp_files/1186.got.cif
#   From: 2010.05.17/outbox.ucp.g08.bks.cvg/sg41_1_cif.got.tgz:1186.got - 2010.06.11 16:28:22.
