data_PCOD9368134
_publ_section_title
;
Structure prediction by ZEFSAII (Michael W. Deem and Ramdas Pophale) SiO2 
 PCOD9368134
Probable space group: F M M 2
;
_chemical_formula_sum "Si O2"
_cell_formula_units_Z 80
_cell_length_a 10.174954
_cell_length_b 14.819061
_cell_length_c 26.341311
_cell_angle_alpha 90.000000
_cell_angle_beta 90.000000
_cell_angle_gamma 90.000000
_cell_volume 3971.828851
_symmetry_space_group_name_H-M "F M M 2"
_symmetry_group_IT_number 42
_symmetry_cell_setting 'orthorhombic'
loop_
_space_group_symop_operation_xyz
x,y,z
-x,-y,z
-x,y,z
x,-y,z
x,1/2+y,1/2+z
-x,1/2-y,1/2+z
-x,1/2+y,1/2+z
x,1/2-y,1/2+z
1/2+x,y,1/2+z
1/2-x,-y,1/2+z
1/2-x,y,1/2+z
1/2+x,-y,1/2+z
1/2+x,1/2+y,z
1/2-x,1/2-y,z
1/2-x,1/2+y,z
1/2+x,1/2-y,z
loop_
_atom_site_type_symbol
_atom_site_label
_atom_site_fract_x
_atom_site_fract_y
_atom_site_fract_z
Si Si1 0.500000 0.889323 0.328470
Si Si2 0.500000 0.102770 0.866586
Si Si3 0.778080 0.855888 0.017309
Si Si4 0.000000 0.134534 0.483510
Si Si5 0.500000 0.110214 0.713035
Si Si6 0.500000 0.656232 0.945819
Si Si7 0.500000 0.107041 0.598512
Si Si8 0.218501 0.390123 0.792975
O O1 0.500000 0.849937 0.385590
O O2 0.368012 0.860006 0.299394
O O3 0.500000 0.000000 0.333339
O O4 0.500000 0.099495 0.926333
O O5 0.367524 0.141046 0.841762
O O6 0.500000 0.000000 0.847503
O O7 0.750000 0.750000 0.013337
O O8 0.631503 0.893862 0.012908
O O9 0.868805 0.886555 0.970032
O O10 0.869785 0.869448 0.066249
O O11 0.000000 0.242646 0.469894
O O12 0.500000 0.144746 0.655476
O O13 0.369889 0.136766 0.744726
O O14 0.500000 0.000000 0.712204
O O15 0.500000 0.000000 0.602729
O O16 0.226984 0.500000 0.791914
#
# Coordination Sequence:
#
# PCOD9368134 Si02
#       8
#     8   8  16   8   8   8   8  16
#     4  10  17  26  45  73 101 129 164 207 245 281
#     4   9  16  26  42  63  87 122 160 190 232 292
#     4   9  19  34  50  71 102 139 172 203 254 319
#     4  10  18  30  47  67  98 137 169 199 243 303
#     4   8  15  31  51  69  92 124 163 207 257 309
#     4   9  18  30  45  69 100 136 171 198 239 304
#     4  10  20  35  58  81  97 126 177 229 265 297
#     4   8  15  27  44  67  94 124 158 195 244 305
#
# _framework density 20.141853999999999
#
# number of rings (size 3 to 8) (size 9 to 14) (size 15 to 20)
#    0.000    3.000    0.000    3.000    0.000    2.400 
#    0.000    1.000    0.000    7.200    0.000    0.000 
#    0.000    0.000    0.000    0.000    0.000    0.000 
#
# Total GULP energy -111409.018973 kJ/mol
# GULP energy per Si atom -5570.450949 kJ/mol
# Density = 2.009601 g / cm^3
# Si number density = 20.141854 Si / 1000 Ang^3
#
#
#
# Elastic Constant Matrix: (Units=GPa)
#
#
# Indices 1 2 3 4 5 6 
#
# 1 247.8197 10.8323 107.4102 0.0000 0.0000 0.0000
# 2 10.8323 38.7139 -8.0417 0.0000 0.0000 0.0000
# 3 107.4102 -8.0417 148.1974 0.0000 0.0000 0.0000
# 4 0.0000 0.0000 0.0000 27.7637 0.0000 0.0000
# 5 0.0000 0.0000 0.0000 0.0000 -44.9489 0.0000
# 6 0.0000 0.0000 0.0000 0.0000 0.0000 -5.7752
#
#
#
# Elastic Compliance Matrix: (Units=1/GPa)
#
#
# Indices 1 2 3 4 5 6 
#
# 1 0.006146 -0.002675 -0.004599 0.000000 0.000000 0.000000
# 2 -0.002675 0.027289 0.003420 0.000000 0.000000 0.000000
# 3 -0.004599 0.003420 0.010267 0.000000 0.000000 0.000000
# 4 0.000000 0.000000 0.000000 0.036018 0.000000 0.000000
# 5 0.000000 0.000000 0.000000 0.000000 -0.022247 0.000000
# 6 0.000000 0.000000 0.000000 0.000000 0.000000 -0.173155
#
#
# Mechanical properties :
#
#
# Convention : Reuss Voigt Hill
#
# Bulk Modulus (GPa) = 27.78375 72.79250 50.28813
# Shear Modulus (GPa) = -52.09658 17.04327 -17.52666
#
# Velocity S-wave (km/s) = -5.09127 2.91204 -2.95305
# Velocity P-wave (km/s) = 4.55383 6.89384 3.65976
#
# Compressibility (1/GPa) = 0.03599226
#
# Stress axis : x y z
#
# Youngs Moduli (GPa) = 162.71941 36.64438 97.40146
#
# Poissons Ratio (x) = 0.09802 0.44798
# Poissons Ratio (y) = 0.43526 -0.33307
# Poissons Ratio (z) = 0.74840 -0.12531
#
# Static dielectric constant tensor:
#      x y z
#    x 1.894820 0.000000 0.000000 
#    y 0.000000 1.798910 0.000000 
#    z 0.000000 0.000000 1.682960 
# 
# From -- ./inp_files/27872.got.cif
#   From: 2010.05.17/outbox.cif.g08.bks.cpg/sg42_14_cif.got.tgz:27872.got - 2010.06.03 19:03:34.
