data_PCOD9368348
_publ_section_title
;
Structure prediction by ZEFSAII (Michael W. Deem and Ramdas Pophale) SiO2 
 PCOD9368348
Probable space group: F M M 2
;
_chemical_formula_sum "Si O2"
_cell_formula_units_Z 116
_cell_length_a 15.618140
_cell_length_b 17.911891
_cell_length_c 24.149361
_cell_angle_alpha 90.000000
_cell_angle_beta 90.000000
_cell_angle_gamma 90.000000
_cell_volume 6755.793914
_symmetry_space_group_name_H-M "F M M 2"
_symmetry_group_IT_number 42
_symmetry_cell_setting 'orthorhombic'
loop_
_space_group_symop_operation_xyz
x,y,z
-x,-y,z
-x,y,z
x,-y,z
x,1/2+y,1/2+z
-x,1/2-y,1/2+z
-x,1/2+y,1/2+z
x,1/2-y,1/2+z
1/2+x,y,1/2+z
1/2-x,-y,1/2+z
1/2-x,y,1/2+z
1/2+x,-y,1/2+z
1/2+x,1/2+y,z
1/2-x,1/2-y,z
1/2-x,1/2+y,z
1/2+x,1/2-y,z
loop_
_atom_site_type_symbol
_atom_site_label
_atom_site_fract_x
_atom_site_fract_y
_atom_site_fract_z
Si Si1 0.500000 0.500000 0.050310
Si Si2 0.347764 0.120701 0.571613
Si Si3 0.186917 0.417807 0.005810
Si Si4 0.600676 0.739376 0.501328
Si Si5 0.900815 0.141407 0.313961
Si Si6 0.242088 0.416103 0.382230
Si Si7 0.400930 0.294475 0.876331
Si Si8 0.602591 0.412498 0.190905
O O1 0.424469 0.565595 0.052392
O O2 0.258039 0.086316 0.553209
O O3 0.355007 0.200224 0.540911
O O4 0.355399 0.125344 0.637789
O O5 0.145125 0.500000 0.005490
O O6 0.127679 0.345710 0.010890
O O7 0.237123 0.409938 0.947397
O O8 0.500000 0.747360 0.510165
O O9 0.618131 0.760134 0.437125
O O10 0.830771 0.098831 0.350334
O O11 0.894742 0.227545 0.332302
O O12 0.882162 0.126180 0.249656
O O13 0.000000 0.117633 0.324534
O O14 0.212446 0.500000 0.370918
O O15 0.169129 0.357532 0.366105
O O16 0.500000 0.321343 0.877141
O O17 0.500000 0.411979 0.181090
O O18 0.627665 0.500000 0.193273
#
# Coordination Sequence:
#
# PCOD9368348 Si02
#       8
#     4  16  16  16  16  16  16  16
#     4  12  20  36  60  92 120 152 192 248 292 370
#     4  12  20  36  59  90 118 150 191 240 305 353
#     4  11  23  36  54  81 116 155 194 242 288 346
#     4  11  22  37  57  80 113 159 195 238 292 348
#     4  10  21  36  60  85 113 152 194 236 294 347
#     4  11  22  36  54  81 114 152 195 241 289 341
#     4  10  21  38  55  79 112 152 196 240 287 343
#     4  10  18  34  57  87 121 151 187 245 299 345
#
# _framework density 17.170446999999999
#
# number of rings (size 3 to 8) (size 9 to 14) (size 15 to 20)
#    0.000    1.241    5.517    1.241    0.000    1.379 
#    0.000    4.138    0.000    0.000    0.000    0.000 
#    0.000    6.621    0.000    0.000    0.000    0.000 
#
# Total GULP energy -161589.957480 kJ/mol
# GULP energy per Si atom -5572.067499 kJ/mol
# Density = 1.713137 g / cm^3
# Si number density = 17.170447 Si / 1000 Ang^3
#
#
#
# Elastic Constant Matrix: (Units=GPa)
#
#
# Indices 1 2 3 4 5 6 
#
# 1 35.9599 25.3147 28.1707 0.0000 0.0000 0.0000
# 2 25.3147 114.0476 37.7583 0.0000 0.0000 0.0000
# 3 28.1707 37.7583 108.0716 0.0000 0.0000 0.0000
# 4 0.0000 0.0000 0.0000 -30.8026 0.0000 0.0000
# 5 0.0000 0.0000 0.0000 0.0000 18.4353 0.0000
# 6 0.0000 0.0000 0.0000 0.0000 0.0000 25.6468
#
#
#
# Elastic Compliance Matrix: (Units=1/GPa)
#
#
# Indices 1 2 3 4 5 6 
#
# 1 0.038105 -0.005846 -0.007890 0.000000 0.000000 0.000000
# 2 -0.005846 0.010812 -0.002254 0.000000 0.000000 0.000000
# 3 -0.007890 -0.002254 0.012097 0.000000 0.000000 0.000000
# 4 0.000000 0.000000 0.000000 -0.032465 0.000000 0.000000
# 5 0.000000 0.000000 0.000000 0.000000 0.054244 0.000000
# 6 0.000000 0.000000 0.000000 0.000000 0.000000 0.038991
#
#
# Mechanical properties :
#
#
# Convention : Reuss Voigt Hill
#
# Bulk Modulus (GPa) = 34.44140 48.95182 41.69661
# Shear Modulus (GPa) = 30.59178 13.77827 22.18503
#
# Velocity S-wave (km/s) = 4.22554 2.83581 3.59841
# Velocity P-wave (km/s) = 6.62639 6.26847 6.44991
#
# Compressibility (1/GPa) = 0.02903482
#
# Stress axis : x y z
#
# Youngs Moduli (GPa) = 26.24307 92.49000 82.66309
#
# Poissons Ratio (x) = 0.54068 0.65224
# Poissons Ratio (y) = 0.15341 0.18630
# Poissons Ratio (z) = 0.20707 0.20845
#
# Static dielectric constant tensor:
#      x y z
#    x 1.577400 0.000000 0.000000 
#    y 0.000000 1.606680 0.000000 
#    z 0.000000 0.000000 1.576130 
# 
# From -- ./inp_files/29620.got.cif
#   From: 2010.05.17/outbox.cif.g08.bks.cpg/sg42_15_cif.got.tgz:29620.got - 2010.06.03 19:03:34.
