data_PCOD9368142
_publ_section_title
;
Structure prediction by ZEFSAII (Michael W. Deem and Ramdas Pophale) SiO2 
 PCOD9368142
Probable space group: F M M 2
;
_chemical_formula_sum "Si O2"
_cell_formula_units_Z 80
_cell_length_a 27.392723
_cell_length_b 8.507436
_cell_length_c 18.689620
_cell_angle_alpha 90.000000
_cell_angle_beta 90.000000
_cell_angle_gamma 90.000000
_cell_volume 4355.463392
_symmetry_space_group_name_H-M "F M M 2"
_symmetry_group_IT_number 42
_symmetry_cell_setting 'orthorhombic'
loop_
_space_group_symop_operation_xyz
x,y,z
-x,-y,z
-x,y,z
x,-y,z
x,1/2+y,1/2+z
-x,1/2-y,1/2+z
-x,1/2+y,1/2+z
x,1/2-y,1/2+z
1/2+x,y,1/2+z
1/2-x,-y,1/2+z
1/2-x,y,1/2+z
1/2+x,-y,1/2+z
1/2+x,1/2+y,z
1/2-x,1/2-y,z
1/2-x,1/2+y,z
1/2+x,1/2-y,z
loop_
_atom_site_type_symbol
_atom_site_label
_atom_site_fract_x
_atom_site_fract_y
_atom_site_fract_z
Si Si1 0.593892 0.691242 0.333570
Si Si2 0.699978 0.812122 0.832456
Si Si3 0.095667 0.311306 0.666614
Si Si4 0.500000 0.307741 0.421071
Si Si5 0.000000 0.311054 0.086456
Si Si6 0.800740 0.812736 0.668788
O O1 0.592937 0.500000 0.334127
O O2 0.647358 0.738616 0.362442
O O3 0.589914 0.737949 0.250209
O O4 0.548400 0.746800 0.379787
O O5 0.750000 0.750000 0.866150
O O6 0.699078 0.753437 0.750178
O O7 0.702015 0.000000 0.831558
O O8 0.097956 0.500000 0.665054
O O9 0.048694 0.252246 0.624256
O O10 0.147375 0.244762 0.638312
O O11 0.500000 0.500000 0.418870
O O12 0.500000 0.261847 0.503551
O O13 0.000000 0.500000 0.090069
O O14 0.750000 0.750000 0.635559
O O15 0.799305 0.000000 0.670444
#
# Coordination Sequence:
#
# PCOD9368142 Si02
#       6
#    16  16  16   8   8  16
#     4   8  15  28  49  73  92 121 164 202 237 283
#     4   9  15  24  41  68  99 128 159 194 239 289
#     4  10  19  33  53  74  99 131 167 205 245 291
#     4   9  17  31  49  69  94 123 160 204 248 293
#     4  11  22  33  49  73  98 127 164 208 256 301
#     4  10  17  27  45  72 104 131 160 198 243 292
#
# _framework density 18.367735
#
# number of rings (size 3 to 8) (size 9 to 14) (size 15 to 20)
#    0.000    2.600    0.000    6.300    0.000    1.600 
#    0.000    0.000    0.000   18.000    0.000    2.800 
#    0.000    0.000    0.000    0.000    0.000    0.000 
#
# Total GULP energy -111436.127230 kJ/mol
# GULP energy per Si atom -5571.806361 kJ/mol
# Density = 1.832593 g / cm^3
# Si number density = 18.367735 Si / 1000 Ang^3
#
#
#
# Elastic Constant Matrix: (Units=GPa)
#
#
# Indices 1 2 3 4 5 6 
#
# 1 247.8352 48.8519 69.0773 0.0000 0.0000 0.0000
# 2 48.8519 65.2064 15.2360 0.0000 0.0000 0.0000
# 3 69.0773 15.2360 52.6027 0.0000 0.0000 0.0000
# 4 0.0000 0.0000 0.0000 9.1698 0.0000 0.0000
# 5 0.0000 0.0000 0.0000 0.0000 -4.5663 0.0000
# 6 0.0000 0.0000 0.0000 0.0000 0.0000 38.6618
#
#
#
# Elastic Compliance Matrix: (Units=1/GPa)
#
#
# Indices 1 2 3 4 5 6 
#
# 1 0.006972 -0.003308 -0.008197 0.000000 0.000000 0.000000
# 2 -0.003308 0.018019 -0.000875 0.000000 0.000000 0.000000
# 3 -0.008197 -0.000875 0.030028 0.000000 0.000000 0.000000
# 4 0.000000 0.000000 0.000000 0.109054 0.000000 0.000000
# 5 0.000000 0.000000 0.000000 0.000000 -0.218995 0.000000
# 6 0.000000 0.000000 0.000000 0.000000 0.000000 0.025865
#
#
# Mechanical properties :
#
#
# Convention : Reuss Voigt Hill
#
# Bulk Modulus (GPa) = 33.04877 70.21942 51.63409
# Shear Modulus (GPa) = 863.72850 24.15166 443.94008
#
# Velocity S-wave (km/s) = 21.70859 3.63008 15.56343
# Velocity P-wave (km/s) = 25.42406 7.47548 18.73854
#
# Compressibility (1/GPa) = 0.03025832
#
# Stress axis : x y z
#
# Youngs Moduli (GPa) = 143.43843 55.49826 33.30214
#
# Poissons Ratio (x) = 0.18358 0.27298
# Poissons Ratio (y) = 0.47446 0.02915
# Poissons Ratio (z) = 1.17576 0.04857
#
# Static dielectric constant tensor:
#      x y z
#    x 1.690160 0.000000 0.000000 
#    y 0.000000 1.625260 0.000000 
#    z 0.000000 0.000000 1.595880 
# 
# From -- ./inp_files/22440.got.cif
#   From: 2010.05.17/outbox.cif.g08.bks.cpg/sg42_12_cif.got.tgz:22440.got - 2010.06.03 19:03:34.
