data_PCOD9368612
_publ_section_title
;
Structure prediction by ZEFSAII (Michael W. Deem and Ramdas Pophale) SiO2 
 PCOD9368612
Probable space group: F M M 2
;
_chemical_formula_sum "Si O2"
_cell_formula_units_Z 112
_cell_length_a 18.339778
_cell_length_b 28.144432
_cell_length_c 11.196494
_cell_angle_alpha 90.000000
_cell_angle_beta 90.000000
_cell_angle_gamma 90.000000
_cell_volume 5779.211844
_symmetry_space_group_name_H-M "F M M 2"
_symmetry_group_IT_number 42
_symmetry_cell_setting 'orthorhombic'
loop_
_space_group_symop_operation_xyz
x,y,z
-x,-y,z
-x,y,z
x,-y,z
x,1/2+y,1/2+z
-x,1/2-y,1/2+z
-x,1/2+y,1/2+z
x,1/2-y,1/2+z
1/2+x,y,1/2+z
1/2-x,-y,1/2+z
1/2-x,y,1/2+z
1/2+x,-y,1/2+z
1/2+x,1/2+y,z
1/2-x,1/2-y,z
1/2-x,1/2+y,z
1/2+x,1/2-y,z
loop_
_atom_site_type_symbol
_atom_site_label
_atom_site_fract_x
_atom_site_fract_y
_atom_site_fract_z
Si Si1 0.706133 0.553955 0.096480
Si Si2 0.087345 0.724497 0.464115
Si Si3 0.917849 0.446756 0.254378
Si Si4 0.871270 0.551943 0.994151
Si Si5 0.674796 0.121174 0.809905
Si Si6 0.087831 0.288458 0.733103
Si Si7 0.166850 0.627120 0.402149
O O1 0.679231 0.500000 0.098228
O O2 0.788536 0.552906 0.046011
O O3 0.701181 0.578461 0.224526
O O4 0.663922 0.589051 0.008830
O O5 0.105005 0.736157 0.604050
O O6 0.107220 0.759746 0.354696
O O7 0.124133 0.674359 0.434490
O O8 0.000000 0.719881 0.458909
O O9 0.888414 0.500000 0.285844
O O10 0.919678 0.445167 0.111409
O O11 0.869959 0.402738 0.296190
O O12 0.000000 0.443004 0.302388
O O13 0.882459 0.500000 0.936597
O O14 0.877295 0.596059 0.906379
O O15 0.632711 0.162612 0.741567
O O16 0.749174 0.139134 0.871891
O O17 0.000000 0.296302 0.734877
#
# Coordination Sequence:
#
# PCOD9368612 Si02
#       7
#    16  16  16  16  16  16  16
#     4  10  19  34  57  85 121 159 197 240 291 350
#     4  10  22  43  66  87 117 157 200 252 313 371
#     4  10  20  34  53  82 122 161 199 244 290 349
#     4   9  19  33  52  82 120 161 198 234 287 354
#     4  11  21  36  60  89 119 155 197 249 296 356
#     4  10  23  44  66  88 117 157 204 252 311 374
#     4  11  21  36  60  90 118 152 200 250 299 356
#
# _framework density 19.379805000000001
#
# number of rings (size 3 to 8) (size 9 to 14) (size 15 to 20)
#    0.000    1.857    2.857    1.286    0.000    3.429 
#    0.000    2.857    0.000    2.143    0.000    0.000 
#    0.000    0.000    0.000    0.000    0.000    0.000 
#
# Total GULP energy -156080.283516 kJ/mol
# GULP energy per Si atom -5574.295840 kJ/mol
# Density = 1.933570 g / cm^3
# Si number density = 19.379805 Si / 1000 Ang^3
#
#
#
# Elastic Constant Matrix: (Units=GPa)
#
#
# Indices 1 2 3 4 5 6 
#
# 1 23.0055 24.6114 10.0789 0.0000 0.0000 0.0000
# 2 24.6114 78.0483 35.5873 0.0000 0.0000 0.0000
# 3 10.0789 35.5873 89.9777 0.0000 0.0000 0.0000
# 4 0.0000 0.0000 0.0000 37.2060 0.0000 0.0000
# 5 0.0000 0.0000 0.0000 0.0000 17.4035 0.0000
# 6 0.0000 0.0000 0.0000 0.0000 0.0000 -14.1382
#
#
#
# Elastic Compliance Matrix: (Units=1/GPa)
#
#
# Indices 1 2 3 4 5 6 
#
# 1 0.065673 -0.021173 0.001018 0.000000 0.000000 0.000000
# 2 -0.021173 0.022458 -0.006511 0.000000 0.000000 0.000000
# 3 0.001018 -0.006511 0.013575 0.000000 0.000000 0.000000
# 4 0.000000 0.000000 0.000000 0.026877 0.000000 0.000000
# 5 0.000000 0.000000 0.000000 0.000000 0.057460 0.000000
# 6 0.000000 0.000000 0.000000 0.000000 0.000000 -0.070730
#
#
# Mechanical properties :
#
#
# Convention : Reuss Voigt Hill
#
# Bulk Modulus (GPa) = 20.67227 36.84296 28.75762
# Shear Modulus (GPa) = 27.06073 16.14450 21.60262
#
# Velocity S-wave (km/s) = 3.74081 2.88941 3.34233
# Velocity P-wave (km/s) = 5.41741 5.49398 5.45583
#
# Compressibility (1/GPa) = 0.04837397
#
# Stress axis : x y z
#
# Youngs Moduli (GPa) = 15.22690 44.52777 73.66542
#
# Poissons Ratio (x) = 0.94280 -0.07498
# Poissons Ratio (y) = 0.32240 0.47961
# Poissons Ratio (z) = -0.01550 0.28990
#
# Static dielectric constant tensor:
#      x y z
#    x 1.686050 0.000000 0.000000 
#    y 0.000000 1.658160 0.000000 
#    z 0.000000 0.000000 1.735480 
# 
# From -- ./inp_files/9643.got.cif
#   From: 2010.05.17/outbox.cif.g08.bks.cpg/sg42_5_cif.got.tgz:9643.got - 2010.06.03 19:03:34.
