data_PCOD9368084
_publ_section_title
;
Structure prediction by ZEFSAII (Michael W. Deem and Ramdas Pophale) SiO2 
 PCOD9368084
Probable space group: A B A 2
;
_chemical_formula_sum "Si O2"
_cell_formula_units_Z 32
_cell_length_a 15.000000
_cell_length_b 12.000000
_cell_length_c 18.000000
_cell_angle_alpha 90.000000
_cell_angle_beta 90.000000
_cell_angle_gamma 90.000000
_cell_volume 3240.000000
_symmetry_space_group_name_H-M "A B A 2"
_symmetry_group_IT_number 41
_symmetry_cell_setting 'orthorhombic'
loop_
_space_group_symop_operation_xyz
x,y,z
-x,-y,z
1/2-x,y,1/2+z
1/2+x,-y,1/2+z
x,1/2+y,1/2+z
-x,1/2-y,1/2+z
1/2-x,1/2+y,z
1/2+x,1/2-y,z
loop_
_atom_site_type_symbol
_atom_site_label
_atom_site_fract_x
_atom_site_fract_y
_atom_site_fract_z
Si Si1 0.868094 0.696604 0.311750
Si Si2 0.397451 0.033868 0.033046
Si Si3 0.225888 0.591234 0.895649
Si Si4 0.652772 0.502991 0.250046
Si Si5 0.622447 0.710476 0.083053
Si Si6 0.787948 0.609780 0.153630
Si Si7 0.008466 0.330370 0.730751
Si Si8 0.103897 0.967804 0.946922
O O1 0.810649 0.789295 0.360690
O O2 0.825385 0.660165 0.231732
O O3 0.966324 0.736688 0.283466
O O4 0.883083 0.600140 0.370835
O O5 0.392706 0.162968 0.058114
O O6 0.500000 0.000000 0.021279
O O7 0.354770 0.949484 0.095176
O O8 0.342351 0.039247 0.956067
O O9 0.213864 0.521908 0.820131
O O10 0.322866 0.568894 0.934939
O O11 0.716498 0.517445 0.180062
O O12 0.576674 0.413351 0.230110
O O13 0.594383 0.612213 0.267545
O O14 0.722903 0.700140 0.115683
O O15 0.547522 0.691167 0.147943
O O16 0.619829 0.616915 0.017257
O O17 0.000000 0.000000 0.953392
#
# Coordination Sequence:
#
# PCOD9368084 Si02
#       8
#     8   8   8   8   8   8   8   8
#     4  11  24  45  68 109 135 187 238 294 362 434
#     4  12  27  45  70 104 145 187 233 300 359 430
#     4  11  24  47  68 101 144 180 236 289 358 433
#     4   9  20  39  68  93 129 178 221 282 335 412
#     4  11  25  46  66 106 140 185 236 291 367 430
#     4  11  24  43  70  98 143 180 235 293 357 425
#     4   9  21  38  67  97 127 173 234 277 338 422
#     4  12  27  47  71 102 143 186 237 299 363 440
#
# _framework density 9.8765429999999999
#
# number of rings (size 3 to 8) (size 9 to 14) (size 15 to 20)
#    0.000    1.250    3.750    0.750   10.500    3.500 
#    4.500    0.000    0.000    0.000    0.000    0.000 
#    0.000    0.000    0.000    0.000    0.000    0.000 
#
# Total GULP energy -178165.562785 kJ/mol
# GULP energy per Si atom -5567.673837 kJ/mol
# Density = 0.985406 g / cm^3
# Si number density = 9.876543 Si / 1000 Ang^3
#
#
#
# Elastic Constant Matrix: (Units=GPa)
#
#
# Indices 1 2 3 4 5 6 
#
# 1 94.3094 9.0291 0.7101 0.0000 0.0000 0.0000
# 2 9.0291 49.6501 13.1561 0.0000 0.0000 0.0000
# 3 0.7101 13.1561 54.5227 0.0000 0.0000 0.0000
# 4 0.0000 0.0000 0.0000 39.8176 0.0000 0.0000
# 5 0.0000 0.0000 0.0000 0.0000 47.7348 0.0000
# 6 0.0000 0.0000 0.0000 0.0000 0.0000 26.4325
#
#
#
# Elastic Compliance Matrix: (Units=1/GPa)
#
#
# Indices 1 2 3 4 5 6 
#
# 1 0.010798 -0.002058 0.000356 0.000000 0.000000 0.000000
# 2 -0.002058 0.021909 -0.005260 0.000000 0.000000 0.000000
# 3 0.000356 -0.005260 0.019605 0.000000 0.000000 0.000000
# 4 0.000000 0.000000 0.000000 0.025114 0.000000 0.000000
# 5 0.000000 0.000000 0.000000 0.000000 0.020949 0.000000
# 6 0.000000 0.000000 0.000000 0.000000 0.000000 0.037832
#
#
# Mechanical properties :
#
#
# Convention : Reuss Voigt Hill
#
# Bulk Modulus (GPa) = 26.04935 27.14144 26.59539
# Shear Modulus (GPa) = 30.68848 34.50279 32.59564
#
# Velocity S-wave (km/s) = 3.94586 4.18389 4.06662
# Velocity P-wave (km/s) = 5.82888 6.09181 5.96179
#
# Compressibility (1/GPa) = 0.03838867
#
# Stress axis : x y z
#
# Youngs Moduli (GPa) = 92.61191 45.64353 51.00612
#
# Poissons Ratio (x) = 0.09393 -0.01816
# Poissons Ratio (y) = 0.19059 0.26828
# Poissons Ratio (z) = -0.03296 0.24007
#
# Static dielectric constant tensor:
#      x y z
#    x 1.715000 0.000000 0.000000 
#    y 0.000000 1.796230 0.000000 
#    z 0.000000 0.000000 1.694330 
# 
# From -- ./inp_files/10427.got.cif
#   From: 2010.05.17/outbox.ucp.g08.bks.cvg/sg41_6_cif.got.tgz:10427.got - 2010.06.11 16:28:22.
