data_PCOD9368499
_publ_section_title
;
Structure prediction by ZEFSAII (Michael W. Deem and Ramdas Pophale) SiO2 
 PCOD9368499
Probable space group: F M M 2
;
_chemical_formula_sum "Si O2"
_cell_formula_units_Z 80
_cell_length_a 8.714910
_cell_length_b 19.558616
_cell_length_c 26.676469
_cell_angle_alpha 90.000000
_cell_angle_beta 90.000000
_cell_angle_gamma 90.000000
_cell_volume 4547.046241
_symmetry_space_group_name_H-M "F M M 2"
_symmetry_group_IT_number 42
_symmetry_cell_setting 'orthorhombic'
loop_
_space_group_symop_operation_xyz
x,y,z
-x,-y,z
-x,y,z
x,-y,z
x,1/2+y,1/2+z
-x,1/2-y,1/2+z
-x,1/2+y,1/2+z
x,1/2-y,1/2+z
1/2+x,y,1/2+z
1/2-x,-y,1/2+z
1/2-x,y,1/2+z
1/2+x,-y,1/2+z
1/2+x,1/2+y,z
1/2-x,1/2-y,z
1/2-x,1/2+y,z
1/2+x,1/2-y,z
loop_
_atom_site_type_symbol
_atom_site_label
_atom_site_fract_x
_atom_site_fract_y
_atom_site_fract_z
Si Si1 0.677319 0.583066 0.244130
Si Si2 0.818412 0.919143 0.849268
Si Si3 0.182432 0.174205 0.435296
Si Si4 0.815232 0.826043 0.042001
Si Si5 0.312825 0.921311 0.634078
O O1 0.500000 0.604591 0.250454
O O2 0.677586 0.500000 0.241928
O O3 0.772089 0.602913 0.293005
O O4 0.735880 0.604719 0.189217
O O5 0.730220 0.875503 0.890522
O O6 0.000000 0.910989 0.856399
O O7 0.781135 0.000000 0.853906
O O8 0.250000 0.250000 0.426288
O O9 0.252646 0.149649 0.488235
O O10 0.000000 0.178947 0.439721
O O11 0.750000 0.750000 0.049544
O O12 0.766604 0.874431 0.087770
O O13 0.000000 0.823728 0.040158
O O14 0.500000 0.922007 0.635634
O O15 0.263073 0.000000 0.627326
#
# Coordination Sequence:
#
# PCOD9368499 Si02
#       5
#    16  16  16  16  16
#     4   8  14  28  50  74 100 131 167 206 249 295
#     4  10  20  34  53  78 106 135 169 209 253 301
#     4  11  22  37  55  74 100 134 172 212 258 307
#     4  10  19  33  52  73 100 133 167 204 251 303
#     4   8  15  29  51  76  99 128 168 209 247 290
#
# _framework density 17.593838000000002
#
# number of rings (size 3 to 8) (size 9 to 14) (size 15 to 20)
#    0.000    2.600    0.000    5.400    0.000    2.000 
#    0.000    5.000    0.000    6.600    0.000    0.000 
#    0.000    0.000    0.000    0.000    0.000    0.000 
#
# Total GULP energy -111513.122105 kJ/mol
# GULP energy per Si atom -5575.656105 kJ/mol
# Density = 1.755379 g / cm^3
# Si number density = 17.593838 Si / 1000 Ang^3
#
#
#
# Elastic Constant Matrix: (Units=GPa)
#
#
# Indices 1 2 3 4 5 6 
#
# 1 71.3242 27.4984 49.6013 0.0000 0.0000 0.0000
# 2 27.4984 39.6335 63.5431 0.0000 0.0000 0.0000
# 3 49.6013 63.5431 168.2421 0.0000 0.0000 0.0000
# 4 0.0000 0.0000 0.0000 -172.4699 0.0000 0.0000
# 5 0.0000 0.0000 0.0000 0.0000 26.8533 0.0000
# 6 0.0000 0.0000 0.0000 0.0000 0.0000 20.1301
#
#
#
# Elastic Compliance Matrix: (Units=1/GPa)
#
#
# Indices 1 2 3 4 5 6 
#
# 1 0.019310 -0.010825 -0.001604 0.000000 0.000000 0.000000
# 2 -0.010825 0.070032 -0.023259 0.000000 0.000000 0.000000
# 3 -0.001604 -0.023259 0.015201 0.000000 0.000000 0.000000
# 4 0.000000 0.000000 0.000000 -0.005798 0.000000 0.000000
# 5 0.000000 0.000000 0.000000 0.000000 0.037239 0.000000
# 6 0.000000 0.000000 0.000000 0.000000 0.000000 0.049677
#
#
# Mechanical properties :
#
#
# Convention : Reuss Voigt Hill
#
# Bulk Modulus (GPa) = 30.15111 62.27617 46.21364
# Shear Modulus (GPa) = 18.65028 -15.86015 1.39506
#
# Velocity S-wave (km/s) = 3.25937 -3.00569 0.89143
# Velocity P-wave (km/s) = 5.59814 4.84023 5.23292
#
# Compressibility (1/GPa) = 0.03316628
#
# Stress axis : x y z
#
# Youngs Moduli (GPa) = 51.78717 14.27926 65.78378
#
# Poissons Ratio (x) = 0.15458 0.10554
# Poissons Ratio (y) = 0.56061 1.53004
# Poissons Ratio (z) = 0.08309 0.33212
#
# Static dielectric constant tensor:
#      x y z
#    x 1.593300 0.000000 0.000000 
#    y 0.000000 1.578850 0.000000 
#    z 0.000000 0.000000 1.612200 
# 
# From -- ./inp_files/31238.got.cif
#   From: 2010.05.17/outbox.cif.g08.bks.cpg/sg42_16_cif.got.tgz:31238.got - 2010.06.03 19:03:34.
