data_PCOD9368318
_publ_section_title
;
Structure prediction by ZEFSAII (Michael W. Deem and Ramdas Pophale) SiO2 
 PCOD9368318
Probable space group: F M M 2
;
_chemical_formula_sum "Si O2"
_cell_formula_units_Z 116
_cell_length_a 18.074841
_cell_length_b 15.474030
_cell_length_c 24.213535
_cell_angle_alpha 90.000000
_cell_angle_beta 90.000000
_cell_angle_gamma 90.000000
_cell_volume 6772.298904
_symmetry_space_group_name_H-M "F M M 2"
_symmetry_group_IT_number 42
_symmetry_cell_setting 'orthorhombic'
loop_
_space_group_symop_operation_xyz
x,y,z
-x,-y,z
-x,y,z
x,-y,z
x,1/2+y,1/2+z
-x,1/2-y,1/2+z
-x,1/2+y,1/2+z
x,1/2-y,1/2+z
1/2+x,y,1/2+z
1/2-x,-y,1/2+z
1/2-x,y,1/2+z
1/2+x,-y,1/2+z
1/2+x,1/2+y,z
1/2-x,1/2-y,z
1/2-x,1/2+y,z
1/2+x,1/2-y,z
loop_
_atom_site_type_symbol
_atom_site_label
_atom_site_fract_x
_atom_site_fract_y
_atom_site_fract_z
Si Si1 0.624675 0.355399 0.313930
Si Si2 0.357178 0.399277 0.072466
Si Si3 0.586484 0.896049 0.694206
Si Si4 0.759017 0.645730 0.392606
Si Si5 0.082421 0.742756 0.003681
Si Si6 0.582945 0.687729 0.879260
Si Si7 0.203294 0.903007 0.512932
Si Si8 0.500000 0.000000 0.835742
O O1 0.626350 0.358264 0.247746
O O2 0.701922 0.376618 0.344095
O O3 0.597970 0.261458 0.334059
O O4 0.564270 0.424756 0.333093
O O5 0.378505 0.500000 0.063180
O O6 0.374492 0.378427 0.136099
O O7 0.401349 0.332218 0.034817
O O8 0.271658 0.390894 0.054741
O O9 0.500000 0.868805 0.693016
O O10 0.585445 0.000000 0.701904
O O11 0.750000 0.750000 0.399561
O O12 0.844772 0.627240 0.379480
O O13 0.735730 0.605185 0.450841
O O14 0.000000 0.711991 0.016866
O O15 0.085878 0.763572 0.938571
O O16 0.142809 0.671401 0.018843
O O17 0.500000 0.651052 0.873467
O O18 0.173092 0.000000 0.519917
#
# Coordination Sequence:
#
# PCOD9368318 Si02
#       8
#    16  16  16  16  16  16  16   4
#     4  11  19  31  53  85 117 151 179 231 305 357
#     4  10  21  36  60  82 108 153 199 237 289 339
#     4  10  18  33  53  83 120 148 184 243 295 345
#     4  10  19  34  52  74 113 153 187 229 279 346
#     4  11  21  36  55  80 114 150 191 243 289 339
#     4  10  19  34  53  74 107 156 195 234 283 336
#     4  11  21  36  54  79 112 151 193 237 289 348
#     4  12  20  32  52  92 122 148 182 240 300 374
#
# _framework density 17.128599000000001
#
# number of rings (size 3 to 8) (size 9 to 14) (size 15 to 20)
#    0.000    1.517    6.207    0.828    0.966    1.103 
#    0.000    4.138    0.000    0.414    0.000    0.000 
#    0.000    1.103    0.000    4.000    0.000    0.000 
#
# Total GULP energy -161500.456545 kJ/mol
# GULP energy per Si atom -5568.981260 kJ/mol
# Density = 1.708961 g / cm^3
# Si number density = 17.128599 Si / 1000 Ang^3
#
#
#
# Elastic Constant Matrix: (Units=GPa)
#
#
# Indices 1 2 3 4 5 6 
#
# 1 132.4873 26.5237 42.6622 0.0000 0.0000 0.0000
# 2 26.5237 44.3642 31.4971 0.0000 0.0000 0.0000
# 3 42.6622 31.4971 112.6745 0.0000 0.0000 0.0000
# 4 0.0000 0.0000 0.0000 22.4433 0.0000 0.0000
# 5 0.0000 0.0000 0.0000 0.0000 -29.7381 0.0000
# 6 0.0000 0.0000 0.0000 0.0000 0.0000 14.2320
#
#
#
# Elastic Compliance Matrix: (Units=1/GPa)
#
#
# Indices 1 2 3 4 5 6 
#
# 1 0.009063 -0.003720 -0.002391 0.000000 0.000000 0.000000
# 2 -0.003720 0.029649 -0.006879 0.000000 0.000000 0.000000
# 3 -0.002391 -0.006879 0.011704 0.000000 0.000000 0.000000
# 4 0.000000 0.000000 0.000000 0.044557 0.000000 0.000000
# 5 0.000000 0.000000 0.000000 0.000000 -0.033627 0.000000
# 6 0.000000 0.000000 0.000000 0.000000 0.000000 0.070264
#
#
# Mechanical properties :
#
#
# Convention : Reuss Voigt Hill
#
# Bulk Modulus (GPa) = 40.92833 54.54356 47.73595
# Shear Modulus (GPa) = 30.16829 13.97696 22.07263
#
# Velocity S-wave (km/s) = 4.20132 2.85967 3.59366
# Velocity P-wave (km/s) = 6.89067 6.54342 6.71929
#
# Compressibility (1/GPa) = 0.02443295
#
# Stress axis : x y z
#
# Youngs Moduli (GPa) = 110.34127 33.72765 85.44308
#
# Poissons Ratio (x) = 0.12548 0.20433
# Poissons Ratio (y) = 0.41052 0.58780
# Poissons Ratio (z) = 0.26387 0.23203
#
# Static dielectric constant tensor:
#      x y z
#    x 1.615730 0.000000 0.000000 
#    y 0.000000 1.603730 0.000000 
#    z 0.000000 0.000000 1.573670 
# 
# From -- ./inp_files/29646.got.cif
#   From: 2010.05.17/outbox.cif.g08.bks.cpg/sg42_15_cif.got.tgz:29646.got - 2010.06.03 19:03:34.
