data_PCOD9368406
_publ_section_title
;
Structure prediction by ZEFSAII (Michael W. Deem and Ramdas Pophale) SiO2 
 PCOD9368406
Probable space group: F M M 2
;
_chemical_formula_sum "Si O2"
_cell_formula_units_Z 96
_cell_length_a 25.905341
_cell_length_b 8.864774
_cell_length_c 26.173275
_cell_angle_alpha 90.000000
_cell_angle_beta 90.000000
_cell_angle_gamma 90.000000
_cell_volume 6010.561564
_symmetry_space_group_name_H-M "F M M 2"
_symmetry_group_IT_number 42
_symmetry_cell_setting 'orthorhombic'
loop_
_space_group_symop_operation_xyz
x,y,z
-x,-y,z
-x,y,z
x,-y,z
x,1/2+y,1/2+z
-x,1/2-y,1/2+z
-x,1/2+y,1/2+z
x,1/2-y,1/2+z
1/2+x,y,1/2+z
1/2-x,-y,1/2+z
1/2-x,y,1/2+z
1/2+x,-y,1/2+z
1/2+x,1/2+y,z
1/2-x,1/2-y,z
1/2-x,1/2+y,z
1/2+x,1/2-y,z
loop_
_atom_site_type_symbol
_atom_site_label
_atom_site_fract_x
_atom_site_fract_y
_atom_site_fract_z
Si Si1 0.500000 0.826305 0.368420
Si Si2 0.307057 0.181442 0.789718
Si Si3 0.892059 0.682051 0.870822
Si Si4 0.107852 0.818618 0.489041
Si Si5 0.192619 0.818648 0.572088
Si Si6 0.692456 0.180872 0.676278
Si Si7 0.500000 0.673339 0.992487
O O1 0.447198 0.745126 0.352883
O O2 0.500000 0.821381 0.430458
O O3 0.500000 0.000000 0.352422
O O4 0.250000 0.250000 0.795197
O O5 0.346031 0.232169 0.833796
O O6 0.328790 0.215944 0.732775
O O7 0.302072 0.000000 0.792504
O O8 0.894093 0.500000 0.869791
O O9 0.883627 0.728683 0.929965
O O10 0.155056 0.775851 0.525626
O O11 0.053274 0.752785 0.507786
O O12 0.104012 0.000000 0.489303
O O13 0.250000 0.750000 0.565521
O O14 0.169648 0.755434 0.625442
O O15 0.196664 0.000000 0.574808
O O16 0.750000 0.250000 0.677987
O O17 0.694497 0.000000 0.670157
O O18 0.500000 0.500000 0.008696
#
# Coordination Sequence:
#
# PCOD9368406 Si02
#       7
#     8  16  16  16  16  16   8
#     4   9  17  29  45  68  91 114 149 188 220 257
#     4   9  18  30  46  68  92 118 150 183 220 264
#     4   9  17  31  48  66  90 121 150 179 219 268
#     4   9  18  31  47  66  91 121 150 179 219 268
#     4  10  19  30  45  67  92 120 151 183 219 263
#     4   9  16  28  45  64  86 115 151 188 220 257
#     4   9  17  29  47  68  89 114 149 188 222 257
#
# _framework density 15.971885
#
# number of rings (size 3 to 8) (size 9 to 14) (size 15 to 20)
#    0.000    2.833    0.000    2.500    0.000    5.333 
#    0.000    0.000    0.000    1.000    0.000    1.167 
#    0.000    0.000    0.000    0.000    0.000    0.000 
#
# Total GULP energy -133612.333429 kJ/mol
# GULP energy per Si atom -5567.180560 kJ/mol
# Density = 1.593553 g / cm^3
# Si number density = 15.971885 Si / 1000 Ang^3
#
#
#
# Elastic Constant Matrix: (Units=GPa)
#
#
# Indices 1 2 3 4 5 6 
#
# 1 107.9533 31.9834 73.6011 0.0000 0.0000 0.0000
# 2 31.9834 32.8717 33.6618 0.0000 0.0000 -0.0001
# 3 73.6011 33.6618 107.9427 0.0000 0.0000 0.0000
# 4 0.0000 0.0000 0.0000 17.8646 0.0000 0.0000
# 5 0.0000 0.0000 0.0000 0.0000 -1.0826 0.0000
# 6 0.0000 -0.0001 0.0000 0.0000 0.0000 18.4636
#
#
#
# Elastic Compliance Matrix: (Units=1/GPa)
#
#
# Indices 1 2 3 4 5 6 
#
# 1 0.018476 -0.007458 -0.010273 0.000000 0.000000 0.000000
# 2 -0.007458 0.047704 -0.009792 0.000000 0.000000 0.000000
# 3 -0.010273 -0.009792 0.019322 0.000000 0.000000 0.000000
# 4 0.000000 0.000000 0.000000 0.055977 0.000000 0.000000
# 5 0.000000 0.000000 0.000000 0.000000 -0.923689 0.000000
# 6 0.000000 0.000000 0.000000 0.000000 0.000000 0.054161
#
#
# Mechanical properties :
#
#
# Convention : Reuss Voigt Hill
#
# Bulk Modulus (GPa) = 32.83064 58.58446 45.70755
# Shear Modulus (GPa) = -7.54316 14.35056 3.40370
#
# Velocity S-wave (km/s) = -2.17555 3.00073 1.46140
# Velocity P-wave (km/s) = 3.78011 6.98321 5.61491
#
# Compressibility (1/GPa) = 0.03045935
#
# Stress axis : x y z
#
# Youngs Moduli (GPa) = 54.12298 20.96244 51.75448
#
# Poissons Ratio (x) = 0.15633 0.53165
# Poissons Ratio (y) = 0.40363 0.50675
# Poissons Ratio (z) = 0.55598 0.20525
#
# Static dielectric constant tensor:
#      x y z
#    x 1.510450 0.000000 0.000000 
#    y 0.000000 1.537960 0.000000 
#    z 0.000000 0.000000 1.565440 
# 
# From -- ./inp_files/28196.got.cif
#   From: 2010.05.17/outbox.cif.g08.bks.cpg/sg42_15_cif.got.tgz:28196.got - 2010.06.03 19:03:34.
