data_PCOD9368606
_publ_section_title
;
Structure prediction by ZEFSAII (Michael W. Deem and Ramdas Pophale) SiO2 
 PCOD9368606
Probable space group: F M M 2
;
_chemical_formula_sum "Si O2"
_cell_formula_units_Z 80
_cell_length_a 8.552500
_cell_length_b 18.730043
_cell_length_c 26.344041
_cell_angle_alpha 90.000000
_cell_angle_beta 90.000000
_cell_angle_gamma 90.000000
_cell_volume 4220.017490
_symmetry_space_group_name_H-M "F M M 2"
_symmetry_group_IT_number 42
_symmetry_cell_setting 'orthorhombic'
loop_
_space_group_symop_operation_xyz
x,y,z
-x,-y,z
-x,y,z
x,-y,z
x,1/2+y,1/2+z
-x,1/2-y,1/2+z
-x,1/2+y,1/2+z
x,1/2-y,1/2+z
1/2+x,y,1/2+z
1/2-x,-y,1/2+z
1/2-x,y,1/2+z
1/2+x,-y,1/2+z
1/2+x,1/2+y,z
1/2-x,1/2-y,z
1/2-x,1/2+y,z
1/2+x,1/2-y,z
loop_
_atom_site_type_symbol
_atom_site_label
_atom_site_fract_x
_atom_site_fract_y
_atom_site_fract_z
Si Si1 0.688191 0.829991 0.505790
Si Si2 0.312045 0.830463 0.703627
Si Si3 0.309457 0.418258 0.104320
Si Si4 0.187696 0.416998 0.300214
Si Si5 0.813366 0.330304 0.895359
O O1 0.500000 0.828164 0.503436
O O2 0.750000 0.750000 0.515465
O O3 0.737741 0.881109 0.551720
O O4 0.752926 0.852635 0.450987
O O5 0.500000 0.829138 0.704500
O O6 0.250000 0.750000 0.703934
O O7 0.259775 0.871657 0.652655
O O8 0.252075 0.873062 0.752507
O O9 0.500000 0.419023 0.104697
O O10 0.256018 0.500000 0.108058
O O11 0.234116 0.500000 0.296474
O O12 0.251799 0.381742 0.351537
O O13 0.000000 0.412890 0.300480
O O14 0.750000 0.250000 0.886300
O O15 0.000000 0.328182 0.895233
#
# Coordination Sequence:
#
# PCOD9368606 Si02
#       5
#    16  16  16  16  16
#     4  10  19  34  57  83 113 149 190 234 280 333
#     4  11  22  38  61  86 115 150 191 235 280 335
#     4   9  19  35  56  83 114 149 188 231 282 338
#     4  11  24  41  60  84 115 149 187 233 286 341
#     4  11  22  38  60  85 115 150 192 237 282 335
#
# _framework density 18.957267999999999
#
# number of rings (size 3 to 8) (size 9 to 14) (size 15 to 20)
#    0.000    1.600    0.000    6.600    0.000    3.200 
#    0.000    5.000    0.000    6.600    0.000    0.000 
#    0.000    0.000    0.000    0.000    0.000    0.000 
#
# Total GULP energy -111811.868800 kJ/mol
# GULP energy per Si atom -5590.593440 kJ/mol
# Density = 1.891412 g / cm^3
# Si number density = 18.957268 Si / 1000 Ang^3
#
#
#
# Elastic Constant Matrix: (Units=GPa)
#
#
# Indices 1 2 3 4 5 6 
#
# 1 78.7730 53.1682 51.7971 0.0000 0.0000 0.0000
# 2 53.1682 179.4102 146.5086 0.0000 0.0000 0.0000
# 3 51.7971 146.5086 197.3623 0.0000 0.0000 0.0000
# 4 0.0000 0.0000 0.0000 -17.9256 0.0000 0.0000
# 5 0.0000 0.0000 0.0000 0.0000 27.1389 0.0000
# 6 0.0000 0.0000 0.0000 0.0000 0.0000 21.2429
#
#
#
# Elastic Compliance Matrix: (Units=1/GPa)
#
#
# Indices 1 2 3 4 5 6 
#
# 1 0.016100 -0.003354 -0.001736 0.000000 0.000000 0.000000
# 2 -0.003354 0.014853 -0.010145 0.000000 0.000000 0.000000
# 3 -0.001736 -0.010145 0.013054 0.000000 0.000000 0.000000
# 4 0.000000 0.000000 0.000000 -0.055786 0.000000 0.000000
# 5 0.000000 0.000000 0.000000 0.000000 0.036848 0.000000
# 6 0.000000 0.000000 0.000000 0.000000 0.000000 0.047075
#
#
# Mechanical properties :
#
#
# Convention : Reuss Voigt Hill
#
# Bulk Modulus (GPa) = 73.87615 106.49927 90.18771
# Shear Modulus (GPa) = 46.67518 19.69599 33.18559
#
# Velocity S-wave (km/s) = 4.96736 3.22680 4.18849
# Velocity P-wave (km/s) = 8.48257 8.37756 8.43023
#
# Compressibility (1/GPa) = 0.01353617
#
# Stress axis : x y z
#
# Youngs Moduli (GPa) = 62.11321 67.32865 76.60724
#
# Poissons Ratio (x) = 0.22580 0.13297
# Poissons Ratio (y) = 0.20831 0.77721
# Poissons Ratio (z) = 0.10781 0.68307
#
# Static dielectric constant tensor:
#      x y z
#    x 1.648500 0.000000 0.000000 
#    y 0.000000 1.629480 0.000000 
#    z 0.000000 0.000000 1.634350 
# 
# From -- ./inp_files/31239.got.cif
#   From: 2010.05.17/outbox.cif.g08.bks.cpg/sg42_16_cif.got.tgz:31239.got - 2010.06.03 19:03:34.
