data_PCOD9368659
_publ_section_title
;
Structure prediction by ZEFSAII (Michael W. Deem and Ramdas Pophale) SiO2 
 PCOD9368659
Probable space group: F M M 2
;
_chemical_formula_sum "Si O2"
_cell_formula_units_Z 112
_cell_length_a 17.145586
_cell_length_b 18.514480
_cell_length_c 19.490911
_cell_angle_alpha 90.000000
_cell_angle_beta 90.000000
_cell_angle_gamma 90.000000
_cell_volume 6187.226150
_symmetry_space_group_name_H-M "F M M 2"
_symmetry_group_IT_number 42
_symmetry_cell_setting 'orthorhombic'
loop_
_space_group_symop_operation_xyz
x,y,z
-x,-y,z
-x,y,z
x,-y,z
x,1/2+y,1/2+z
-x,1/2-y,1/2+z
-x,1/2+y,1/2+z
x,1/2-y,1/2+z
1/2+x,y,1/2+z
1/2-x,-y,1/2+z
1/2-x,y,1/2+z
1/2+x,-y,1/2+z
1/2+x,1/2+y,z
1/2-x,1/2-y,z
1/2-x,1/2+y,z
1/2+x,1/2-y,z
loop_
_atom_site_type_symbol
_atom_site_label
_atom_site_fract_x
_atom_site_fract_y
_atom_site_fract_z
Si Si1 0.591971 0.419257 0.490340
Si Si2 0.743830 0.583234 0.728340
Si Si3 0.330365 0.208913 0.668274
Si Si4 0.913452 0.670459 0.246036
Si Si5 0.291069 0.634376 0.377413
Si Si6 0.588480 0.263551 0.539808
Si Si7 0.863350 0.288456 0.392466
O O1 0.500000 0.412880 0.469912
O O2 0.602452 0.500000 0.519413
O O3 0.650709 0.408584 0.426689
O O4 0.607231 0.349358 0.537725
O O5 0.740819 0.500000 0.710113
O O6 0.808456 0.627341 0.685570
O O7 0.657663 0.618978 0.722811
O O8 0.770362 0.594508 0.807338
O O9 0.250000 0.250000 0.684954
O O10 0.394626 0.250979 0.713324
O O11 0.353736 0.222681 0.590124
O O12 0.908591 0.677124 0.328733
O O13 0.000000 0.646693 0.225441
O O14 0.208856 0.658841 0.410559
O O15 0.330653 0.712229 0.363314
O O16 0.500000 0.254893 0.563993
O O17 0.594554 0.233606 0.462442
#
# Coordination Sequence:
#
# PCOD9368659 Si02
#       7
#    16  16  16  16  16  16  16
#     4   9  18  31  48  77 115 145 174 220 278 333
#     4  10  20  36  56  82 113 144 182 229 280 335
#     4  10  21  36  55  77 107 148 190 230 268 329
#     4  10  19  35  58  82 110 145 185 233 282 326
#     4   9  16  30  53  79 109 143 182 223 273 327
#     4  10  20  33  53  81 108 143 187 231 274 323
#     4   9  17  30  55  82 106 140 192 235 268 323
#
# _framework density 18.101811000000001
#
# number of rings (size 3 to 8) (size 9 to 14) (size 15 to 20)
#    0.000    2.429    1.429    1.286    4.000    0.857 
#    0.000    2.857    0.000    6.857    0.000    0.000 
#    0.000    0.000    0.000    0.000    0.000    0.000 
#
# Total GULP energy -155990.434078 kJ/mol
# GULP energy per Si atom -5571.086931 kJ/mol
# Density = 1.806061 g / cm^3
# Si number density = 18.101811 Si / 1000 Ang^3
#
#
#
# Elastic Constant Matrix: (Units=GPa)
#
#
# Indices 1 2 3 4 5 6 
#
# 1 73.9894 40.4848 18.2167 0.0000 0.0000 0.0000
# 2 40.4848 123.5273 31.3395 0.0000 0.0000 0.0000
# 3 18.2167 31.3395 49.6085 0.0000 0.0000 0.0000
# 4 0.0000 0.0000 0.0000 10.1569 0.0000 0.0000
# 5 0.0000 0.0000 0.0000 0.0000 17.9436 0.0000
# 6 0.0000 0.0000 0.0000 0.0000 0.0000 18.2376
#
#
#
# Elastic Compliance Matrix: (Units=1/GPa)
#
#
# Indices 1 2 3 4 5 6 
#
# 1 0.016890 -0.004718 -0.003222 0.000000 0.000000 0.000000
# 2 -0.004718 0.010959 -0.005190 0.000000 0.000000 0.000000
# 3 -0.003222 -0.005190 0.024620 0.000000 0.000000 0.000000
# 4 0.000000 0.000000 0.000000 0.098456 0.000000 0.000000
# 5 0.000000 0.000000 0.000000 0.000000 0.055730 0.000000
# 6 0.000000 0.000000 0.000000 0.000000 0.000000 0.054832
#
#
# Mechanical properties :
#
#
# Convention : Reuss Voigt Hill
#
# Bulk Modulus (GPa) = 38.15589 47.46747 42.81168
# Shear Modulus (GPa) = 16.86439 19.73989 18.30214
#
# Velocity S-wave (km/s) = 3.05559 3.30584 3.18318
# Velocity P-wave (km/s) = 5.79423 6.39147 6.10016
#
# Compressibility (1/GPa) = 0.02620827
#
# Stress axis : x y z
#
# Youngs Moduli (GPa) = 59.20541 91.25280 40.61782
#
# Poissons Ratio (x) = 0.43056 0.13085
# Poissons Ratio (y) = 0.27935 0.21082
# Poissons Ratio (z) = 0.19073 0.47363
#
# Static dielectric constant tensor:
#      x y z
#    x 1.631050 0.000000 0.000000 
#    y 0.000000 1.625120 0.000000 
#    z 0.000000 0.000000 1.632240 
# 
# From -- ./inp_files/26069.got.cif
#   From: 2010.05.17/outbox.cif.g08.bks.cpg/sg42_14_cif.got.tgz:26069.got - 2010.06.03 19:03:34.
