data_PCOD9368086
_publ_section_title
;
Structure prediction by ZEFSAII (Michael W. Deem and Ramdas Pophale) SiO2 
 PCOD9368086
Probable space group: A B A 2
;
_chemical_formula_sum "Si O2"
_cell_formula_units_Z 28
_cell_length_a 15.000000
_cell_length_b 12.000000
_cell_length_c 15.000000
_cell_angle_alpha 90.000000
_cell_angle_beta 90.000000
_cell_angle_gamma 90.000000
_cell_volume 2700.000000
_symmetry_space_group_name_H-M "A B A 2"
_symmetry_group_IT_number 41
_symmetry_cell_setting 'orthorhombic'
loop_
_space_group_symop_operation_xyz
x,y,z
-x,-y,z
1/2-x,y,1/2+z
1/2+x,-y,1/2+z
x,1/2+y,1/2+z
-x,1/2-y,1/2+z
1/2-x,1/2+y,z
1/2+x,1/2-y,z
loop_
_atom_site_type_symbol
_atom_site_label
_atom_site_fract_x
_atom_site_fract_y
_atom_site_fract_z
Si Si1 0.923164 0.281538 0.239010
Si Si2 0.216356 0.540731 0.307810
Si Si3 0.876376 0.694113 0.288373
Si Si4 0.601484 0.519508 0.200550
Si Si5 0.792908 0.827735 0.453160
Si Si6 0.977139 0.370953 0.052700
Si Si7 0.366445 0.701071 0.091589
O O1 0.841076 0.348144 0.283279
O O2 0.897643 0.156677 0.202186
O O3 0.949966 0.357614 0.155463
O O4 0.016412 0.280078 0.295987
O O5 0.150929 0.435745 0.292970
O O6 0.308832 0.516765 0.253935
O O7 0.250203 0.561760 0.408396
O O8 0.818956 0.750348 0.367880
O O9 0.852509 0.742926 0.189790
O O10 0.500000 0.500000 0.237544
O O11 0.606370 0.429076 0.116652
O O12 0.888348 0.844481 0.498209
O O13 0.720447 0.792070 0.528090
O O14 0.000000 0.500000 0.033636
O O15 0.055961 0.277363 0.045082
#
# Coordination Sequence:
#
# PCOD9368086 Si02
#       7
#     8   8   8   8   8   8   8
#     4  11  24  49  80 106 147 202 259 315 391 465
#     4  12  26  45  74 115 147 197 255 321 386 458
#     4  11  25  50  76 109 152 203 253 321 390 465
#     4  12  23  45  76 106 148 201 255 309 388 464
#     4  12  28  45  72 118 148 202 255 312 392 470
#     4  11  26  47  73 107 149 197 252 317 378 457
#     4  11  26  49  73 113 148 200 261 309 400 460
#
# _framework density 10.370369999999999
#
# number of rings (size 3 to 8) (size 9 to 14) (size 15 to 20)
#    0.000    0.571    4.286    3.857    6.000    2.857 
#    0.000    0.000    0.000    0.000    0.000    0.000 
#    0.000    0.000    0.000    0.000    0.000    0.000 
#
# Total GULP energy -156163.174652 kJ/mol
# GULP energy per Si atom -5577.256238 kJ/mol
# Density = 1.034677 g / cm^3
# Si number density = 10.370370 Si / 1000 Ang^3
#
#
#
# Elastic Constant Matrix: (Units=GPa)
#
#
# Indices 1 2 3 4 5 6 
#
# 1 195.7237 76.9952 71.8222 0.0000 0.0000 0.0000
# 2 76.9952 151.1769 29.7905 0.0000 0.0000 0.0000
# 3 71.8222 29.7905 73.2356 0.0000 0.0000 0.0000
# 4 0.0000 0.0000 0.0000 23.1558 0.0000 0.0000
# 5 0.0000 0.0000 0.0000 0.0000 51.2022 0.0000
# 6 0.0000 0.0000 0.0000 0.0000 0.0000 42.6201
#
#
#
# Elastic Compliance Matrix: (Units=1/GPa)
#
#
# Indices 1 2 3 4 5 6 
#
# 1 0.009185 -0.003156 -0.007724 0.000000 0.000000 0.000000
# 2 -0.003156 0.008276 -0.000271 0.000000 0.000000 0.000000
# 3 -0.007724 -0.000271 0.021340 0.000000 0.000000 0.000000
# 4 0.000000 0.000000 0.000000 0.043186 0.000000 0.000000
# 5 0.000000 0.000000 0.000000 0.000000 0.019530 0.000000
# 6 0.000000 0.000000 0.000000 0.000000 0.000000 0.023463
#
#
# Mechanical properties :
#
#
# Convention : Reuss Voigt Hill
#
# Bulk Modulus (GPa) = 60.61337 86.37244 73.49291
# Shear Modulus (GPa) = 32.72635 39.49752 36.11193
#
# Velocity S-wave (km/s) = 3.97656 4.36861 4.17719
# Velocity P-wave (km/s) = 7.09731 8.19638 7.66656
#
# Compressibility (1/GPa) = 0.01649801
#
# Stress axis : x y z
#
# Youngs Moduli (GPa) = 108.87081 120.83762 46.86040
#
# Poissons Ratio (x) = 0.38136 0.36196
# Poissons Ratio (y) = 0.34359 0.01271
# Poissons Ratio (z) = 0.84094 0.03278
#
# Static dielectric constant tensor:
#      x y z
#    x 1.775940 0.000000 0.000000 
#    y 0.000000 1.789780 0.000000 
#    z 0.000000 0.000000 1.770490 
# 
# From -- ./inp_files/8396.got.cif
#   From: 2010.05.17/outbox.ucp.g08.bks.cvg/sg41_5_cif.got.tgz:8396.got - 2010.06.11 16:28:22.
