data_PCOD9368235
_publ_section_title
;
Structure prediction by ZEFSAII (Michael W. Deem and Ramdas Pophale) SiO2 
 PCOD9368235
Probable space group: F M M 2
;
_chemical_formula_sum "Si O2"
_cell_formula_units_Z 96
_cell_length_a 10.848774
_cell_length_b 14.784940
_cell_length_c 28.803472
_cell_angle_alpha 90.000000
_cell_angle_beta 90.000000
_cell_angle_gamma 90.000000
_cell_volume 4620.032916
_symmetry_space_group_name_H-M "F M M 2"
_symmetry_group_IT_number 42
_symmetry_cell_setting 'orthorhombic'
loop_
_space_group_symop_operation_xyz
x,y,z
-x,-y,z
-x,y,z
x,-y,z
x,1/2+y,1/2+z
-x,1/2-y,1/2+z
-x,1/2+y,1/2+z
x,1/2-y,1/2+z
1/2+x,y,1/2+z
1/2-x,-y,1/2+z
1/2-x,y,1/2+z
1/2+x,-y,1/2+z
1/2+x,1/2+y,z
1/2-x,1/2-y,z
1/2-x,1/2+y,z
1/2+x,1/2-y,z
loop_
_atom_site_type_symbol
_atom_site_label
_atom_site_fract_x
_atom_site_fract_y
_atom_site_fract_z
Si Si1 0.357957 0.609227 0.143250
Si Si2 0.753213 0.144343 0.240476
Si Si3 0.356848 0.610126 0.039461
Si Si4 0.500000 0.891927 0.390424
Si Si5 0.500000 0.609479 0.395337
Si Si6 0.000000 0.355133 0.786438
Si Si7 0.000000 0.641242 0.280917
Si Si8 0.753178 0.110564 0.943143
O O1 0.500000 0.638916 0.151846
O O2 0.359153 0.500000 0.143070
O O3 0.272423 0.638299 0.185419
O O4 0.321339 0.639428 0.091422
O O5 0.750000 0.250000 0.253729
O O6 0.875113 0.104909 0.264828
O O7 0.625168 0.104758 0.258317
O O8 0.500000 0.635821 0.031206
O O9 0.355441 0.500000 0.039684
O O10 0.273270 0.638872 0.996461
O O11 0.500000 0.873557 0.335890
O O12 0.626428 0.859381 0.414217
O O13 0.500000 0.000000 0.397254
O O14 0.500000 0.500000 0.396195
O O15 0.500000 0.637500 0.341724
O O16 0.624843 0.640356 0.420709
O O17 0.000000 0.249356 0.772988
O O18 0.752208 0.000000 0.942270
#
# Coordination Sequence:
#
# PCOD9368235 Si02
#       8
#    16  16  16   8   8   8   8  16
#     4   9  17  30  53  81 101 125 168 214 248 286
#     4  10  20  35  52  71  99 134 169 204 249 304
#     4   8  13  25  47  74 100 125 157 198 242 292
#     4  10  18  30  49  70  92 122 163 204 237 284
#     4  10  20  30  47  74 100 128 163 206 249 286
#     4  10  20  36  51  66  96 134 171 206 239 298
#     4  10  22  34  49  70  96 134 167 200 253 300
#     4   9  16  28  46  72 101 126 156 197 245 293
#
# _framework density 20.779071999999999
#
# number of rings (size 3 to 8) (size 9 to 14) (size 15 to 20)
#    0.000    2.667    1.667    2.000    0.000    1.333 
#    0.000    0.833    0.000    4.000    0.000    0.000 
#    0.000    0.000    0.000    0.000    0.000    0.000 
#
# Total GULP energy -133943.175921 kJ/mol
# GULP energy per Si atom -5580.965663 kJ/mol
# Density = 2.073178 g / cm^3
# Si number density = 20.779072 Si / 1000 Ang^3
#
#
#
# Elastic Constant Matrix: (Units=GPa)
#
#
# Indices 1 2 3 4 5 6 
#
# 1 190.8205 13.3625 112.8371 0.0000 0.0000 0.0000
# 2 13.3625 53.0542 -16.0130 0.0000 0.0000 0.0000
# 3 112.8371 -16.0130 160.8729 0.0000 0.0000 0.0000
# 4 0.0000 0.0000 0.0000 31.3971 0.0000 0.0000
# 5 0.0000 0.0000 0.0000 0.0000 -4.8467 0.0000
# 6 0.0000 0.0000 0.0000 0.0000 0.0000 -11.8551
#
#
#
# Elastic Compliance Matrix: (Units=1/GPa)
#
#
# Indices 1 2 3 4 5 6 
#
# 1 0.010008 -0.004783 -0.007496 0.000000 0.000000 0.000000
# 2 -0.004783 0.021718 0.005517 0.000000 0.000000 0.000000
# 3 -0.007496 0.005517 0.012023 0.000000 0.000000 0.000000
# 4 0.000000 0.000000 0.000000 0.031850 0.000000 0.000000
# 5 0.000000 0.000000 0.000000 0.000000 -0.206325 0.000000
# 6 0.000000 0.000000 0.000000 0.000000 0.000000 -0.084352
#
#
# Mechanical properties :
#
#
# Convention : Reuss Voigt Hill
#
# Bulk Modulus (GPa) = 33.08533 69.45787 51.27160
# Shear Modulus (GPa) = -26.11248 22.57645 -1.76802
#
# Velocity S-wave (km/s) = -3.54880 3.29979 -0.92342
# Velocity P-wave (km/s) = 0.91379 6.92947 4.85708
#
# Compressibility (1/GPa) = 0.03022488
#
# Stress axis : x y z
#
# Youngs Moduli (GPa) = 99.92180 46.04398 83.17612
#
# Poissons Ratio (x) = 0.22023 0.62346
# Poissons Ratio (y) = 0.47792 -0.45885
# Poissons Ratio (z) = 0.74898 -0.25401
#
# Static dielectric constant tensor:
#      x y z
#    x 1.750720 0.000000 0.000000 
#    y 0.000000 1.759940 0.000000 
#    z 0.000000 0.000000 1.716330 
# 
# From -- ./inp_files/28155.got.cif
#   From: 2010.05.17/outbox.cif.g08.bks.cpg/sg42_15_cif.got.tgz:28155.got - 2010.06.03 19:03:34.
