data_PCOD9368828
_publ_section_title
;
Structure prediction by ZEFSAII (Michael W. Deem and Ramdas Pophale) SiO2 
 PCOD9368828
Probable space group: F M M 2
;
_chemical_formula_sum "Si O2"
_cell_formula_units_Z 112
_cell_length_a 14.165288
_cell_length_b 25.069537
_cell_length_c 16.197926
_cell_angle_alpha 90.000000
_cell_angle_beta 90.000000
_cell_angle_gamma 90.000000
_cell_volume 5752.162315
_symmetry_space_group_name_H-M "F M M 2"
_symmetry_group_IT_number 42
_symmetry_cell_setting 'orthorhombic'
loop_
_space_group_symop_operation_xyz
x,y,z
-x,-y,z
-x,y,z
x,-y,z
x,1/2+y,1/2+z
-x,1/2-y,1/2+z
-x,1/2+y,1/2+z
x,1/2-y,1/2+z
1/2+x,y,1/2+z
1/2-x,-y,1/2+z
1/2-x,y,1/2+z
1/2+x,-y,1/2+z
1/2+x,1/2+y,z
1/2-x,1/2-y,z
1/2-x,1/2+y,z
1/2+x,1/2-y,z
loop_
_atom_site_type_symbol
_atom_site_label
_atom_site_fract_x
_atom_site_fract_y
_atom_site_fract_z
Si Si1 0.112075 0.563855 0.641370
Si Si2 0.771601 0.611282 0.483255
Si Si3 0.894589 0.678594 0.054449
Si Si4 0.608435 0.217945 0.812282
Si Si5 0.894778 0.328284 0.245075
Si Si6 0.777674 0.391859 0.803884
Si Si7 0.892538 0.716815 0.481018
O O1 0.110542 0.500000 0.638256
O O2 0.170881 0.583610 0.559469
O O3 0.166641 0.580177 0.727200
O O4 0.000000 0.581882 0.641029
O O5 0.674224 0.636238 0.514991
O O6 0.742271 0.583427 0.395745
O O7 0.833010 0.664450 0.465239
O O8 0.902140 0.663616 0.148775
O O9 0.000000 0.677193 0.017120
O O10 0.861251 0.740328 0.049366
O O11 0.500000 0.205750 0.789394
O O12 0.641372 0.267769 0.757194
O O13 0.666504 0.164069 0.814021
O O14 0.611900 0.245549 0.901324
O O15 0.826109 0.373339 0.277064
O O16 0.000000 0.330176 0.283705
O O17 0.000000 0.700861 0.498920
#
# Coordination Sequence:
#
# PCOD9368828 Si02
#       7
#    16  16  16  16  16  16  16
#     4  11  28  52  72  95 127 165 222 290 344 391
#     4  12  23  38  68  97 126 173 220 265 325 394
#     4  10  21  35  53  87 134 174 210 256 310 384
#     4  10  20  33  52  90 138 174 211 254 308 389
#     4  10  21  35  53  87 134 174 210 256 310 384
#     4  12  23  38  68  97 126 173 220 265 325 394
#     4  10  20  33  52  90 138 174 211 254 308 389
#
# _framework density 19.470939000000001
#
# number of rings (size 3 to 8) (size 9 to 14) (size 15 to 20)
#    0.000    1.286    4.286    1.714    2.000    2.857 
#    0.000    0.000    0.000    1.714    0.000    0.000 
#    0.000    0.000    0.000    0.000    0.000    0.000 
#
# Total GULP energy -155937.554548 kJ/mol
# GULP energy per Si atom -5569.198377 kJ/mol
# Density = 1.942662 g / cm^3
# Si number density = 19.470939 Si / 1000 Ang^3
#
#
#
# Elastic Constant Matrix: (Units=GPa)
#
#
# Indices 1 2 3 4 5 6 
#
# 1 103.1171 22.8591 27.8131 0.0000 0.0000 0.0000
# 2 22.8591 47.7167 18.7527 0.0000 0.0000 0.0000
# 3 27.8131 18.7527 103.4078 0.0000 0.0000 0.0000
# 4 0.0000 0.0000 0.0000 12.1871 0.0000 0.0000
# 5 0.0000 0.0000 0.0000 0.0000 24.9324 0.0000
# 6 0.0000 0.0000 0.0000 0.0000 0.0000 26.6817
#
#
#
# Elastic Compliance Matrix: (Units=1/GPa)
#
#
# Indices 1 2 3 4 5 6 
#
# 1 0.011303 -0.004544 -0.002216 0.000000 0.000000 0.000000
# 2 -0.004544 0.024392 -0.003201 0.000000 0.000000 0.000000
# 3 -0.002216 -0.003201 0.010847 0.000000 0.000000 0.000000
# 4 0.000000 0.000000 0.000000 0.082054 0.000000 0.000000
# 5 0.000000 0.000000 0.000000 0.000000 0.040108 0.000000
# 6 0.000000 0.000000 0.000000 0.000000 0.000000 0.037479
#
#
# Mechanical properties :
#
#
# Convention : Reuss Voigt Hill
#
# Bulk Modulus (GPa) = 37.56654 43.67684 40.62169
# Shear Modulus (GPa) = 21.27859 25.08136 23.17998
#
# Velocity S-wave (km/s) = 3.30940 3.59297 3.45409
# Velocity P-wave (km/s) = 5.82566 6.30024 6.06759
#
# Compressibility (1/GPa) = 0.02661943
#
# Stress axis : x y z
#
# Youngs Moduli (GPa) = 88.47448 40.99732 92.19116
#
# Poissons Ratio (x) = 0.18628 0.20430
# Poissons Ratio (y) = 0.40201 0.29513
# Poissons Ratio (z) = 0.19606 0.13124
#
# Static dielectric constant tensor:
#      x y z
#    x 1.780670 0.000000 0.000000 
#    y 0.000000 1.656330 0.000000 
#    z 0.000000 0.000000 1.871520 
# 
# From -- ./inp_files/14282.got.cif
#   From: 2010.05.17/outbox.cif.g08.bks.cpg/sg42_8_cif.got.tgz:14282.got - 2010.06.03 19:03:34.
