data_PCOD9368472
_publ_section_title
;
Structure prediction by ZEFSAII (Michael W. Deem and Ramdas Pophale) SiO2 
 PCOD9368472
Probable space group: F M M 2
;
_chemical_formula_sum "Si O2"
_cell_formula_units_Z 96
_cell_length_a 19.226751
_cell_length_b 10.693512
_cell_length_c 25.718882
_cell_angle_alpha 90.000000
_cell_angle_beta 90.000000
_cell_angle_gamma 90.000000
_cell_volume 5287.840526
_symmetry_space_group_name_H-M "F M M 2"
_symmetry_group_IT_number 42
_symmetry_cell_setting 'orthorhombic'
loop_
_space_group_symop_operation_xyz
x,y,z
-x,-y,z
-x,y,z
x,-y,z
x,1/2+y,1/2+z
-x,1/2-y,1/2+z
-x,1/2+y,1/2+z
x,1/2-y,1/2+z
1/2+x,y,1/2+z
1/2-x,-y,1/2+z
1/2-x,y,1/2+z
1/2+x,-y,1/2+z
1/2+x,1/2+y,z
1/2-x,1/2-y,z
1/2-x,1/2+y,z
1/2+x,1/2-y,z
loop_
_atom_site_type_symbol
_atom_site_label
_atom_site_fract_x
_atom_site_fract_y
_atom_site_fract_z
Si Si1 0.915648 0.500000 0.783330
Si Si2 0.084287 0.500000 0.951206
Si Si3 0.915518 0.000000 0.165407
Si Si4 0.916442 0.278419 0.588051
Si Si5 0.084486 0.000000 0.570466
Si Si6 0.297925 0.636093 0.889102
Si Si7 0.198519 0.640170 0.514217
Si Si8 0.416923 0.705123 0.367415
O O1 0.889512 0.500000 0.724529
O O2 0.897818 0.621452 0.817478
O O3 0.000000 0.500000 0.781420
O O4 0.104856 0.378611 0.917818
O O5 0.000000 0.500000 0.952058
O O6 0.109679 0.500000 0.010202
O O7 0.896084 0.875073 0.133516
O O8 0.000000 0.000000 0.167137
O O9 0.877040 0.325972 0.536709
O O10 0.000000 0.284584 0.581508
O O11 0.896592 0.132687 0.596008
O O12 0.000000 0.000000 0.568222
O O13 0.272947 0.500000 0.872354
O O14 0.250000 0.750000 0.871439
O O15 0.374890 0.667661 0.869416
O O16 0.300059 0.637931 0.951826
O O17 0.217723 0.500000 0.532201
O O18 0.250000 0.750000 0.532085
O O19 0.500000 0.719789 0.368951
#
# Coordination Sequence:
#
# PCOD9368472 Si02
#       8
#     8   8   8  16   8  16  16  16
#     4   8  16  31  56  82 101 131 171 214 267 318
#     4   8  14  25  44  71 101 132 163 201 249 301
#     4   9  17  32  54  78 103 132 173 221 264 308
#     4  10  19  32  52  77 103 135 179 220 259 303
#     4   9  17  26  42  73 107 133 159 200 252 299
#     4  10  22  35  50  75 109 144 174 206 255 313
#     4  10  21  35  49  73 107 145 178 207 253 312
#     4   9  17  31  53  80 102 129 175 220 260 307
#
# _framework density 18.154859999999999
#
# number of rings (size 3 to 8) (size 9 to 14) (size 15 to 20)
#    0.000    2.667    0.833    2.000    3.500    2.333 
#    0.000    1.667    1.833    1.000    0.000    0.000 
#    0.000    0.000    0.000    0.000    0.000    0.000 
#
# Total GULP energy -133786.456123 kJ/mol
# GULP energy per Si atom -5574.435672 kJ/mol
# Density = 1.811354 g / cm^3
# Si number density = 18.154860 Si / 1000 Ang^3
#
#
#
# Elastic Constant Matrix: (Units=GPa)
#
#
# Indices 1 2 3 4 5 6 
#
# 1 43.7903 36.8550 9.5939 0.0000 0.0000 0.0000
# 2 36.8550 166.7464 44.1281 0.0000 0.0000 0.0000
# 3 9.5939 44.1281 61.1371 0.0000 0.0000 0.0000
# 4 0.0000 0.0000 0.0000 6.0847 0.0000 0.0000
# 5 0.0000 0.0000 0.0000 0.0000 9.1373 0.0000
# 6 0.0000 0.0000 0.0000 0.0000 0.0000 23.4820
#
#
#
# Elastic Compliance Matrix: (Units=1/GPa)
#
#
# Indices 1 2 3 4 5 6 
#
# 1 0.028055 -0.006225 0.000090 0.000000 0.000000 0.000000
# 2 -0.006225 0.008794 -0.005371 0.000000 0.000000 0.000000
# 3 0.000090 -0.005371 0.020219 0.000000 0.000000 0.000000
# 4 0.000000 0.000000 0.000000 0.164347 0.000000 0.000000
# 5 0.000000 0.000000 0.000000 0.000000 0.109441 0.000000
# 6 0.000000 0.000000 0.000000 0.000000 0.000000 0.042586
#
#
# Mechanical properties :
#
#
# Convention : Reuss Voigt Hill
#
# Bulk Modulus (GPa) = 29.36143 50.31420 39.83782
# Shear Modulus (GPa) = 12.26073 19.81392 16.03732
#
# Velocity S-wave (km/s) = 2.60155 3.30719 2.97537
# Velocity P-wave (km/s) = 5.02314 6.50826 5.81332
#
# Compressibility (1/GPa) = 0.03405829
#
# Stress axis : x y z
#
# Youngs Moduli (GPa) = 35.64393 113.70990 49.45826
#
# Poissons Ratio (x) = 0.70782 -0.00447
# Poissons Ratio (y) = 0.22188 0.26563
# Poissons Ratio (z) = -0.00322 0.61071
#
# Static dielectric constant tensor:
#      x y z
#    x 1.648240 0.000000 0.000000 
#    y 0.000000 1.661320 0.000000 
#    z 0.000000 0.000000 1.596980 
# 
# From -- ./inp_files/30282.got.cif
#   From: 2010.05.17/outbox.cif.g08.bks.cpg/sg42_16_cif.got.tgz:30282.got - 2010.06.03 19:03:34.
