data_PCOD9368306
_publ_section_title
;
Structure prediction by ZEFSAII (Michael W. Deem and Ramdas Pophale) SiO2 
 PCOD9368306
Probable space group: F M M 2
;
_chemical_formula_sum "Si O2"
_cell_formula_units_Z 128
_cell_length_a 16.320337
_cell_length_b 21.150249
_cell_length_c 17.263225
_cell_angle_alpha 90.000000
_cell_angle_beta 90.000000
_cell_angle_gamma 90.000000
_cell_volume 5958.906045
_symmetry_space_group_name_H-M "F M M 2"
_symmetry_group_IT_number 42
_symmetry_cell_setting 'orthorhombic'
loop_
_space_group_symop_operation_xyz
x,y,z
-x,-y,z
-x,y,z
x,-y,z
x,1/2+y,1/2+z
-x,1/2-y,1/2+z
-x,1/2+y,1/2+z
x,1/2-y,1/2+z
1/2+x,y,1/2+z
1/2-x,-y,1/2+z
1/2-x,y,1/2+z
1/2+x,-y,1/2+z
1/2+x,1/2+y,z
1/2-x,1/2-y,z
1/2-x,1/2+y,z
1/2+x,1/2-y,z
loop_
_atom_site_type_symbol
_atom_site_label
_atom_site_fract_x
_atom_site_fract_y
_atom_site_fract_z
Si Si1 0.829408 0.073556 0.734280
Si Si2 0.906239 0.875980 0.368530
Si Si3 0.594585 0.876614 0.391341
Si Si4 0.598930 0.246561 0.968368
Si Si5 0.849086 0.573866 0.544530
Si Si6 0.593397 0.666651 0.607822
Si Si7 0.168940 0.071466 0.502597
Si Si8 0.633997 0.573026 0.210022
O O1 0.854060 0.094054 0.821232
O O2 0.863968 0.129794 0.678857
O O3 0.732442 0.072044 0.719062
O O4 0.858767 0.000000 0.720857
O O5 0.884798 0.808688 0.406184
O O6 0.844933 0.923944 0.411142
O O7 0.898443 0.882641 0.277445
O O8 0.000000 0.891156 0.388465
O O9 0.500000 0.868597 0.365813
O O10 0.627616 0.810852 0.427941
O O11 0.598633 0.919636 0.467662
O O12 0.500000 0.252060 0.975853
O O13 0.627711 0.225350 0.054983
O O14 0.838150 0.500000 0.561428
O O15 0.757335 0.598162 0.526872
O O16 0.885587 0.599093 0.624365
O O17 0.500000 0.681089 0.629728
O O18 0.598793 0.612170 0.542372
O O19 0.163421 0.000000 0.528855
O O20 0.604573 0.500000 0.220158
#
# Coordination Sequence:
#
# PCOD9368306 Si02
#       8
#    16  16  16  16  16  16  16  16
#     4  11  22  38  61  92 126 156 192 247 312 363
#     4  10  20  35  58  84 112 148 196 247 285 338
#     4  11  23  40  61  85 118 161 202 244 294 357
#     4   8  19  40  59  81 116 156 196 241 303 353
#     4  10  21  38  58  81 116 161 197 234 290 355
#     4  10  19  34  59  87 116 150 194 246 290 350
#     4  10  18  32  54  82 116 149 183 234 304 356
#     4  10  21  38  58  84 122 159 191 234 296 357
#
# _framework density 21.480453000000001
#
# number of rings (size 3 to 8) (size 9 to 14) (size 15 to 20)
#    0.000    2.000    1.250    3.375    0.000    6.500 
#    2.250    6.875    0.000    0.000    0.000    0.000 
#    0.000    0.000    0.000    0.000    0.000    0.000 
#
# Total GULP energy -178293.510478 kJ/mol
# GULP energy per Si atom -5571.672202 kJ/mol
# Density = 2.143156 g / cm^3
# Si number density = 21.480453 Si / 1000 Ang^3
#
#
#
# Elastic Constant Matrix: (Units=GPa)
#
#
# Indices 1 2 3 4 5 6 
#
# 1 34.5898 6.0416 13.3087 0.0000 0.0000 0.0000
# 2 6.0416 57.4073 20.5290 0.0000 0.0000 0.0000
# 3 13.3087 20.5290 149.9809 0.0000 0.0000 0.0000
# 4 0.0000 0.0000 0.0000 27.3193 0.0000 0.0000
# 5 0.0000 0.0000 0.0000 0.0000 31.5014 0.0000
# 6 0.0000 0.0000 0.0000 0.0000 0.0000 10.6487
#
#
#
# Elastic Compliance Matrix: (Units=1/GPa)
#
#
# Indices 1 2 3 4 5 6 
#
# 1 0.030227 -0.002336 -0.002362 0.000000 0.000000 0.000000
# 2 -0.002336 0.018496 -0.002324 0.000000 0.000000 0.000000
# 3 -0.002362 -0.002324 0.007195 0.000000 0.000000 0.000000
# 4 0.000000 0.000000 0.000000 0.036604 0.000000 0.000000
# 5 0.000000 0.000000 0.000000 0.000000 0.031745 0.000000
# 6 0.000000 0.000000 0.000000 0.000000 0.000000 0.093908
#
#
# Mechanical properties :
#
#
# Convention : Reuss Voigt Hill
#
# Bulk Modulus (GPa) = 23.88194 35.74851 29.81522
# Shear Modulus (GPa) = 20.31034 27.36714 23.83874
#
# Velocity S-wave (km/s) = 3.07828 3.57325 3.33496
# Velocity P-wave (km/s) = 4.87612 5.80540 5.36093
#
# Compressibility (1/GPa) = 0.04187265
#
# Stress axis : x y z
#
# Youngs Moduli (GPa) = 33.08269 54.06429 138.97940
#
# Poissons Ratio (x) = 0.12631 0.32833
# Poissons Ratio (y) = 0.07729 0.32305
# Poissons Ratio (z) = 0.07816 0.12567
#
# Static dielectric constant tensor:
#      x y z
#    x 1.796980 0.000000 0.000000 
#    y 0.000000 1.831100 0.000000 
#    z 0.000000 0.000000 1.833190 
# 
# From -- ./inp_files/21254.got.cif
#   From: 2010.05.17/outbox.cif.g08.bks.cpg/sg42_11_cif.got.tgz:21254.got - 2010.06.03 19:03:34.
