data_PCOD9368557
_publ_section_title
;
Structure prediction by ZEFSAII (Michael W. Deem and Ramdas Pophale) SiO2 
 PCOD9368557
Probable space group: F M M 2
;
_chemical_formula_sum "Si O2"
_cell_formula_units_Z 100
_cell_length_a 21.195517
_cell_length_b 7.956279
_cell_length_c 30.416440
_cell_angle_alpha 90.000000
_cell_angle_beta 90.000000
_cell_angle_gamma 90.000000
_cell_volume 5129.350782
_symmetry_space_group_name_H-M "F M M 2"
_symmetry_group_IT_number 42
_symmetry_cell_setting 'orthorhombic'
loop_
_space_group_symop_operation_xyz
x,y,z
-x,-y,z
-x,y,z
x,-y,z
x,1/2+y,1/2+z
-x,1/2-y,1/2+z
-x,1/2+y,1/2+z
x,1/2-y,1/2+z
1/2+x,y,1/2+z
1/2-x,-y,1/2+z
1/2-x,y,1/2+z
1/2+x,-y,1/2+z
1/2+x,1/2+y,z
1/2-x,1/2-y,z
1/2-x,1/2+y,z
1/2+x,1/2-y,z
loop_
_atom_site_type_symbol
_atom_site_label
_atom_site_fract_x
_atom_site_fract_y
_atom_site_fract_z
Si Si1 0.178903 0.303416 0.841540
Si Si2 0.821622 0.201783 0.607881
Si Si3 0.897452 0.694945 0.926705
Si Si4 0.428358 0.205246 0.175639
Si Si5 0.322229 0.303284 0.007611
Si Si6 0.500000 0.000000 0.419902
Si Si7 0.069741 0.200619 0.775708
O O1 0.176489 0.500000 0.834869
O O2 0.250000 0.250000 0.832456
O O3 0.158057 0.269528 0.891509
O O4 0.125489 0.233134 0.809323
O O5 0.750000 0.250000 0.620357
O O6 0.873963 0.262141 0.642550
O O7 0.834475 0.270552 0.559097
O O8 0.824353 0.000000 0.605490
O O9 0.919472 0.500000 0.918940
O O10 0.868965 0.705843 0.975553
O O11 0.946053 0.847793 0.920516
O O12 0.500000 0.253941 0.163008
O O13 0.417745 0.262038 0.225998
O O14 0.426806 0.000000 0.175510
O O15 0.328985 0.500000 0.998481
O O16 0.250000 0.250000 0.999466
O O17 0.000000 0.263414 0.790168
O O18 0.064727 0.000000 0.772469
#
# Coordination Sequence:
#
# PCOD9368557 Si02
#       7
#    16  16  16  16  16   4  16
#     4  11  25  40  61  90 121 157 204 256 305 366
#     4  10  19  33  56  84 116 154 200 252 306 367
#     4  11  25  44  65  94 129 166 211 256 307 370
#     4   8  16  34  56  83 113 152 199 246 303 370
#     4  11  21  38  62  89 120 161 209 258 314 374
#     4  12  26  44  68  94 128 172 204 260 308 378
#     4   9  19  36  62  86 116 158 201 246 306 377
#
# _framework density 19.495643999999999
#
# number of rings (size 3 to 8) (size 9 to 14) (size 15 to 20)
#    0.000    1.920    0.800    5.040    3.360    2.240 
#    1.440    3.200    0.000    3.360    0.000    0.000 
#    0.000    0.000    0.000    0.000    0.000    0.000 
#
# Total GULP energy -139224.418697 kJ/mol
# GULP energy per Si atom -5568.976748 kJ/mol
# Density = 1.945127 g / cm^3
# Si number density = 19.495644 Si / 1000 Ang^3
#
#
#
# Elastic Constant Matrix: (Units=GPa)
#
#
# Indices 1 2 3 4 5 6 
#
# 1 136.4394 30.7473 77.3613 0.0000 -0.0002 0.0003
# 2 30.7473 82.0400 15.7252 0.0000 -0.0004 0.0006
# 3 77.3613 15.7252 81.9374 0.0000 0.0000 0.0000
# 4 0.0000 0.0000 0.0000 17.9727 0.0000 0.0000
# 5 -0.0002 -0.0004 0.0000 0.0000 -62.5385 0.0003
# 6 0.0003 0.0006 0.0000 0.0000 0.0003 27.9861
#
#
#
# Elastic Compliance Matrix: (Units=1/GPa)
#
#
# Indices 1 2 3 4 5 6 
#
# 1 0.016611 -0.003342 -0.015042 0.000000 0.000000 0.000000
# 2 -0.003342 0.013327 0.000598 0.000000 0.000000 0.000000
# 3 -0.015042 0.000598 0.026292 0.000000 0.000000 0.000000
# 4 0.000000 0.000000 0.000000 0.055640 0.000000 0.000000
# 5 0.000000 0.000000 0.000000 0.000000 -0.015990 0.000000
# 6 0.000000 0.000000 0.000000 0.000000 0.000000 0.035732
#
#
# Mechanical properties :
#
#
# Convention : Reuss Voigt Hill
#
# Bulk Modulus (GPa) = 48.40928 60.89827 54.65377
# Shear Modulus (GPa) = 28.72384 8.45626 18.59005
#
# Velocity S-wave (km/s) = 3.84258 2.08493 3.09131
# Velocity P-wave (km/s) = 6.67623 6.09102 6.39033
#
# Compressibility (1/GPa) = 0.02065720
#
# Stress axis : x y z
#
# Youngs Moduli (GPa) = 60.19939 75.03430 38.03466
#
# Poissons Ratio (x) = 0.25080 0.57213
# Poissons Ratio (y) = 0.20121 -0.02275
# Poissons Ratio (z) = 0.90553 -0.04487
#
# Static dielectric constant tensor:
#      x y z
#    x 1.642510 0.000000 0.000000 
#    y 0.000000 1.698610 0.000000 
#    z 0.000000 0.000000 1.691160 
# 
# From -- ./inp_files/33040.got.cif
#   From: 2010.05.17/outbox.cif.g08.bks.cpg/sg42_17_cif.got.tgz:33040.got - 2010.06.03 19:03:34.
