data_PCOD9368387
_publ_section_title
;
Structure prediction by ZEFSAII (Michael W. Deem and Ramdas Pophale) SiO2 
 PCOD9368387
Probable space group: F M M 2
;
_chemical_formula_sum "Si O2"
_cell_formula_units_Z 80
_cell_length_a 23.724284
_cell_length_b 8.416058
_cell_length_c 20.965693
_cell_angle_alpha 90.000000
_cell_angle_beta 90.000000
_cell_angle_gamma 90.000000
_cell_volume 4186.114048
_symmetry_space_group_name_H-M "F M M 2"
_symmetry_group_IT_number 42
_symmetry_cell_setting 'orthorhombic'
loop_
_space_group_symop_operation_xyz
x,y,z
-x,-y,z
-x,y,z
x,-y,z
x,1/2+y,1/2+z
-x,1/2-y,1/2+z
-x,1/2+y,1/2+z
x,1/2-y,1/2+z
1/2+x,y,1/2+z
1/2-x,-y,1/2+z
1/2-x,y,1/2+z
1/2+x,-y,1/2+z
1/2+x,1/2+y,z
1/2-x,1/2-y,z
1/2-x,1/2+y,z
1/2+x,1/2-y,z
loop_
_atom_site_type_symbol
_atom_site_label
_atom_site_fract_x
_atom_site_fract_y
_atom_site_fract_z
Si Si1 0.000000 0.192670 0.237680
Si Si2 0.686869 0.691400 0.308014
Si Si3 0.381581 0.190978 0.932493
Si Si4 0.500000 0.689067 0.885018
Si Si5 0.119953 0.806171 0.183250
Si Si6 0.314691 0.309153 0.056220
O O1 0.000000 0.247978 0.311578
O O2 0.943790 0.243884 0.199901
O O3 0.000000 0.000000 0.240287
O O4 0.686174 0.500000 0.307624
O O5 0.750000 0.750000 0.312185
O O6 0.651859 0.744529 0.369288
O O7 0.657771 0.745904 0.242957
O O8 0.444836 0.251560 0.922416
O O9 0.382177 0.000000 0.934333
O O10 0.348279 0.253154 0.993801
O O11 0.500000 0.500000 0.882452
O O12 0.149584 0.753574 0.118043
O O13 0.119308 0.000000 0.181844
O O14 0.313015 0.500000 0.056928
O O15 0.250000 0.250000 0.057211
#
# Coordination Sequence:
#
# PCOD9368387 Si02
#       6
#     8  16  16   8  16  16
#     4  10  18  39  66  87 119 161 207 253 306 366
#     4  10  20  35  57  85 114 154 204 250 299 357
#     4  11  23  41  64  87 120 164 206 252 309 367
#     4  12  24  39  62  95 127 155 199 257 312 370
#     4   9  19  36  61  88 117 161 206 250 305 364
#     4  11  23  40  61  90 127 165 209 256 309 367
#
# _framework density 19.110802
#
# number of rings (size 3 to 8) (size 9 to 14) (size 15 to 20)
#    0.000    1.600    2.000    3.300    0.000    4.000 
#    0.000    5.000    0.000    0.000    0.000    0.000 
#    0.000    0.000    0.000    0.000    0.000    0.000 
#
# Total GULP energy -111726.406333 kJ/mol
# GULP energy per Si atom -5586.320317 kJ/mol
# Density = 1.906730 g / cm^3
# Si number density = 19.110802 Si / 1000 Ang^3
#
#
#
# Elastic Constant Matrix: (Units=GPa)
#
#
# Indices 1 2 3 4 5 6 
#
# 1 198.5147 33.4836 91.6513 0.0000 0.0000 0.0000
# 2 33.4836 39.1258 34.2287 0.0000 0.0000 0.0000
# 3 91.6513 34.2287 170.5386 0.0000 0.0000 0.0000
# 4 0.0000 0.0000 0.0000 17.8716 0.0000 0.0000
# 5 0.0000 0.0000 0.0000 0.0000 43.4281 0.0000
# 6 0.0000 0.0000 0.0000 0.0000 0.0000 30.1237
#
#
#
# Elastic Compliance Matrix: (Units=1/GPa)
#
#
# Indices 1 2 3 4 5 6 
#
# 1 0.007032 -0.003290 -0.003119 0.000000 0.000000 0.000000
# 2 -0.003290 0.032541 -0.004763 0.000000 0.000000 0.000000
# 3 -0.003119 -0.004763 0.008496 0.000000 0.000000 0.000000
# 4 0.000000 0.000000 0.000000 0.055955 0.000000 0.000000
# 5 0.000000 0.000000 0.000000 0.000000 0.023027 0.000000
# 6 0.000000 0.000000 0.000000 0.000000 0.000000 0.033196
#
#
# Mechanical properties :
#
#
# Convention : Reuss Voigt Hill
#
# Bulk Modulus (GPa) = 38.87216 80.76737 59.81976
# Shear Modulus (GPa) = 26.15522 34.87236 30.51379
#
# Velocity S-wave (km/s) = 3.70349 4.27634 4.00018
# Velocity P-wave (km/s) = 6.21871 8.16928 7.25980
#
# Compressibility (1/GPa) = 0.02572535
#
# Stress axis : x y z
#
# Youngs Moduli (GPa) = 142.20123 30.73048 117.70097
#
# Poissons Ratio (x) = 0.10109 0.36712
# Poissons Ratio (y) = 0.46777 0.56066
# Poissons Ratio (z) = 0.44354 0.14638
#
# Static dielectric constant tensor:
#      x y z
#    x 1.646280 0.000000 0.000000 
#    y 0.000000 1.662490 0.000000 
#    z 0.000000 0.000000 1.646230 
# 
# From -- ./inp_files/26732.got.cif
#   From: 2010.05.17/outbox.cif.g08.bks.cpg/sg42_14_cif.got.tgz:26732.got - 2010.06.03 19:03:34.
