data_PCOD9368446
_publ_section_title
;
Structure prediction by ZEFSAII (Michael W. Deem and Ramdas Pophale) SiO2 
 PCOD9368446
Probable space group: F M M 2
;
_chemical_formula_sum "Si O2"
_cell_formula_units_Z 80
_cell_length_a 14.118415
_cell_length_b 16.984834
_cell_length_c 14.932696
_cell_angle_alpha 90.000000
_cell_angle_beta 90.000000
_cell_angle_gamma 90.000000
_cell_volume 3580.844599
_symmetry_space_group_name_H-M "F M M 2"
_symmetry_group_IT_number 42
_symmetry_cell_setting 'orthorhombic'
loop_
_space_group_symop_operation_xyz
x,y,z
-x,-y,z
-x,y,z
x,-y,z
x,1/2+y,1/2+z
-x,1/2-y,1/2+z
-x,1/2+y,1/2+z
x,1/2-y,1/2+z
1/2+x,y,1/2+z
1/2-x,-y,1/2+z
1/2-x,y,1/2+z
1/2+x,-y,1/2+z
1/2+x,1/2+y,z
1/2-x,1/2-y,z
1/2-x,1/2+y,z
1/2+x,1/2-y,z
loop_
_atom_site_type_symbol
_atom_site_label
_atom_site_fract_x
_atom_site_fract_y
_atom_site_fract_z
Si Si1 0.107094 0.298231 0.208680
Si Si2 0.301907 0.371399 0.226198
Si Si3 0.864704 0.258998 0.002952
Si Si4 0.152224 0.586783 0.520478
Si Si5 0.647009 0.583528 0.416816
O O1 0.188225 0.360829 0.232618
O O2 0.149350 0.214134 0.237506
O O3 0.107738 0.288964 0.101219
O O4 0.000000 0.312569 0.239778
O O5 0.328415 0.401934 0.127303
O O6 0.337871 0.418342 0.310847
O O7 0.750000 0.250000 0.000950
O O8 0.896507 0.168615 0.989824
O O9 0.894451 0.330613 0.939765
O O10 0.108648 0.500000 0.507147
O O11 0.252041 0.584847 0.468110
O O12 0.602188 0.500000 0.444748
#
# Coordination Sequence:
#
# PCOD9368446 Si02
#       5
#    16  16  16  16  16
#     4  10  19  34  57  85 115 156 195 238 297 351
#     4  10  19  35  58  80 119 154 196 246 288 353
#     4   9  16  34  54  82 112 144 191 241 279 352
#     4   9  17  31  55  86 111 145 195 236 294 349
#     4  10  19  31  58  86 113 157 198 240 295 345
#
# _framework density 22.341097999999999
#
# number of rings (size 3 to 8) (size 9 to 14) (size 15 to 20)
#    0.000    2.400    6.000    0.600    8.400    0.000 
#    0.000    1.000    0.000   21.600    0.000   16.800 
#    0.000    0.000    0.000    0.000    0.000    0.000 
#
# Total GULP energy -111429.492970 kJ/mol
# GULP energy per Si atom -5571.474649 kJ/mol
# Density = 2.229025 g / cm^3
# Si number density = 22.341098 Si / 1000 Ang^3
#
#
#
# Elastic Constant Matrix: (Units=GPa)
#
#
# Indices 1 2 3 4 5 6 
#
# 1 125.3465 24.8841 -2.2652 0.0000 0.0000 0.0000
# 2 24.8841 189.3506 40.0425 0.0000 0.0000 0.0000
# 3 -2.2652 40.0425 82.6325 0.0000 0.0000 0.0000
# 4 0.0000 0.0000 0.0000 -210.3826 0.0000 0.0000
# 5 0.0000 0.0000 0.0000 0.0000 -12.5435 0.0000
# 6 0.0000 0.0000 0.0000 0.0000 0.0000 -24.4886
#
#
#
# Elastic Compliance Matrix: (Units=1/GPa)
#
#
# Indices 1 2 3 4 5 6 
#
# 1 0.008243 -0.001260 0.000837 0.000000 0.000000 0.000000
# 2 -0.001260 0.006077 -0.002979 0.000000 0.000000 0.000000
# 3 0.000837 -0.002979 0.013568 0.000000 0.000000 0.000000
# 4 0.000000 0.000000 0.000000 -0.004753 0.000000 0.000000
# 5 0.000000 0.000000 0.000000 0.000000 -0.079723 0.000000
# 6 0.000000 0.000000 0.000000 0.000000 0.000000 -0.040835
#
#
# Mechanical properties :
#
#
# Convention : Reuss Voigt Hill
#
# Bulk Modulus (GPa) = 47.43216 58.07249 52.75233
# Shear Modulus (GPa) = -59.81625 -27.17172 -43.49399
#
# Velocity S-wave (km/s) = -5.17998 -3.49122 -4.41706
# Velocity P-wave (km/s) = 3.80779 3.13026 1.53310
#
# Compressibility (1/GPa) = 0.02108274
#
# Stress axis : x y z
#
# Youngs Moduli (GPa) = 121.31228 164.55846 73.70043
#
# Poissons Ratio (x) = 0.20738 -0.06166
# Poissons Ratio (y) = 0.15288 0.21958
# Poissons Ratio (z) = -0.10150 0.49027
#
# Static dielectric constant tensor:
#      x y z
#    x 1.812460 0.000000 0.000000 
#    y 0.000000 1.908940 0.000000 
#    z 0.000000 0.000000 1.804160 
# 
# From -- ./inp_files/14974.got.cif
#   From: 2010.05.17/outbox.cif.g08.bks.cpg/sg42_8_cif.got.tgz:14974.got - 2010.06.03 19:03:34.
