data_PCOD9368958
_publ_section_title
;
Structure prediction by ZEFSAII (Michael W. Deem and Ramdas Pophale) SiO2 
 PCOD9368958
Probable space group: F M M 2
;
_chemical_formula_sum "Si O2"
_cell_formula_units_Z 80
_cell_length_a 29.644444
_cell_length_b 15.348847
_cell_length_c 7.774754
_cell_angle_alpha 90.000000
_cell_angle_beta 90.000000
_cell_angle_gamma 90.000000
_cell_volume 3537.575543
_symmetry_space_group_name_H-M "F M M 2"
_symmetry_group_IT_number 42
_symmetry_cell_setting 'orthorhombic'
loop_
_space_group_symop_operation_xyz
x,y,z
-x,-y,z
-x,y,z
x,-y,z
x,1/2+y,1/2+z
-x,1/2-y,1/2+z
-x,1/2+y,1/2+z
x,1/2-y,1/2+z
1/2+x,y,1/2+z
1/2-x,-y,1/2+z
1/2-x,y,1/2+z
1/2+x,-y,1/2+z
1/2+x,1/2+y,z
1/2-x,1/2-y,z
1/2-x,1/2+y,z
1/2+x,1/2-y,z
loop_
_atom_site_type_symbol
_atom_site_label
_atom_site_fract_x
_atom_site_fract_y
_atom_site_fract_z
Si Si1 0.400876 0.103791 0.313690
Si Si2 0.449359 0.393180 0.485162
Si Si3 0.303266 0.404195 0.787016
Si Si4 0.124325 0.393764 0.703332
Si Si5 0.778817 0.835630 0.136735
O O1 0.352601 0.116207 0.216537
O O2 0.393487 0.132615 0.511307
O O3 0.409487 0.000000 0.328520
O O4 0.437228 0.138087 0.178444
O O5 0.500000 0.367089 0.437050
O O6 0.448152 0.500000 0.486893
O O7 0.411713 0.366272 0.346760
O O8 0.308458 0.500000 0.868133
O O9 0.260644 0.405665 0.664635
O O10 0.293099 0.338900 0.939921
O O11 0.128131 0.500000 0.706756
O O12 0.174517 0.354914 0.733909
O O13 0.750000 0.750000 0.170068
#
# Coordination Sequence:
#
# PCOD9368958 Si02
#       5
#    16  16  16  16  16
#     4   8  16  30  47  72 105 141 186 238 287 340
#     4   9  17  29  50  82 114 147 193 248 302 352
#     4  10  20  35  54  77 109 155 198 235 290 355
#     4   9  18  33  52  76 114 160 197 238 297 362
#     4  11  22  35  52  81 118 150 194 243 291 347
#
# _framework density 22.614359
#
# number of rings (size 3 to 8) (size 9 to 14) (size 15 to 20)
#    0.000    2.600    0.000    3.600    2.800    0.800 
#    0.000    4.000    0.000    0.000    0.000    1.400 
#    0.000    0.000    0.000    0.000    0.000    0.400 
#
# Total GULP energy -111445.748142 kJ/mol
# GULP energy per Si atom -5572.287407 kJ/mol
# Density = 2.256289 g / cm^3
# Si number density = 22.614359 Si / 1000 Ang^3
#
#
#
# Elastic Constant Matrix: (Units=GPa)
#
#
# Indices 1 2 3 4 5 6 
#
# 1 118.2713 25.6376 40.9692 0.0000 0.0000 0.0000
# 2 25.6376 44.7909 14.0426 0.0000 0.0000 0.0000
# 3 40.9692 14.0426 67.0155 0.0000 0.0000 0.0000
# 4 0.0000 0.0000 0.0000 292.8947 0.0000 0.0000
# 5 0.0000 0.0000 0.0000 0.0000 42.2205 0.0000
# 6 0.0000 0.0000 0.0000 0.0000 0.0000 3.3883
#
#
#
# Elastic Compliance Matrix: (Units=1/GPa)
#
#
# Indices 1 2 3 4 5 6 
#
# 1 0.011591 -0.004723 -0.006096 0.000000 0.000000 0.000000
# 2 -0.004723 0.025820 -0.002523 0.000000 0.000000 0.000000
# 3 -0.006096 -0.002523 0.019177 0.000000 0.000000 0.000000
# 4 0.000000 0.000000 0.000000 0.003414 0.000000 0.000000
# 5 0.000000 0.000000 0.000000 0.000000 0.023685 0.000000
# 6 0.000000 0.000000 0.000000 0.000000 0.000000 0.295133
#
#
# Mechanical properties :
#
#
# Convention : Reuss Voigt Hill
#
# Bulk Modulus (GPa) = 33.44043 43.48626 38.46335
# Shear Modulus (GPa) = 12.03447 77.66257 44.84852
#
# Velocity S-wave (km/s) = 2.30936 5.86658 4.45813
# Velocity P-wave (km/s) = 4.68297 8.07219 6.59888
#
# Compressibility (1/GPa) = 0.02990392
#
# Stress axis : x y z
#
# Youngs Moduli (GPa) = 86.27637 38.72904 52.14474
#
# Poissons Ratio (x) = 0.18292 0.31788
# Poissons Ratio (y) = 0.40749 0.13156
# Poissons Ratio (z) = 0.52595 0.09772
#
# Static dielectric constant tensor:
#      x y z
#    x 1.866070 0.000000 0.000000 
#    y 0.000000 -5.657700 0.000000 
#    z 0.000000 0.000000 1.828280 
# 
# From -- ./inp_files/3494.got.cif
#   From: 2010.05.17/outbox.cif.g08.bks.cpg/sg42_2_cif.got.tgz:3494.got - 2010.06.03 19:03:34.
