data_PCOD9368070
_publ_section_title
;
Structure prediction by ZEFSAII (Michael W. Deem and Ramdas Pophale) SiO2 
 PCOD9368070
Probable space group: A B A 2
;
_chemical_formula_sum "Si O2"
_cell_formula_units_Z 30
_cell_length_a 18.000000
_cell_length_b 9.000000
_cell_length_c 18.000000
_cell_angle_alpha 90.000000
_cell_angle_beta 90.000000
_cell_angle_gamma 90.000000
_cell_volume 2916.000000
_symmetry_space_group_name_H-M "A B A 2"
_symmetry_group_IT_number 41
_symmetry_cell_setting 'orthorhombic'
loop_
_space_group_symop_operation_xyz
x,y,z
-x,-y,z
1/2-x,y,1/2+z
1/2+x,-y,1/2+z
x,1/2+y,1/2+z
-x,1/2-y,1/2+z
1/2-x,1/2+y,z
1/2+x,1/2-y,z
loop_
_atom_site_type_symbol
_atom_site_label
_atom_site_fract_x
_atom_site_fract_y
_atom_site_fract_z
Si Si1 0.335589 0.070197 0.359310
Si Si2 0.400919 0.355028 0.664897
Si Si3 0.000000 0.500000 0.293594
Si Si4 0.590703 0.983535 0.675861
Si Si5 0.416454 0.016511 0.006791
Si Si6 0.668304 0.229608 0.577425
Si Si7 0.235509 0.552362 0.204610
Si Si8 0.725960 0.145601 0.944733
O O1 0.300477 0.114420 0.279935
O O2 0.308379 0.198976 0.415652
O O3 0.426154 0.050778 0.343147
O O4 0.288398 0.926477 0.389484
O O5 0.458021 0.390236 0.733576
O O6 0.418652 0.441154 0.588841
O O7 0.317665 0.406953 0.689651
O O8 0.407869 0.182992 0.645539
O O9 0.614708 0.113679 0.619855
O O10 0.500000 0.000000 0.700316
O O11 0.675460 0.976811 0.717218
O O12 0.500000 0.000000 0.975155
O O13 0.387981 0.180962 0.024485
O O14 0.348804 0.950478 0.958193
O O15 0.710998 0.339438 0.635889
O O16 0.731192 0.160215 0.523832
#
# Coordination Sequence:
#
# PCOD9368070 Si02
#       8
#     8   8   4   8   8   8   8   8
#     4  11  28  47  74 101 148 193 247 296 378 451
#     4  10  22  43  73 102 137 185 240 292 376 415
#     4  10  24  50  76 102 144 198 244 308 372 446
#     4  12  25  36  68 114 135 170 241 313 345 419
#     4  11  22  42  70  99 138 185 232 291 354 430
#     4  11  24  45  70 100 142 185 246 298 359 434
#     4  10  24  46  72  95 139 195 232 297 367 439
#     4  12  26  48  69 104 144 202 236 291 376 454
#
# _framework density 10.288066000000001
#
# number of rings (size 3 to 8) (size 9 to 14) (size 15 to 20)
#    0.000    1.067    2.000    4.000   11.200    1.067 
#    1.200    0.667    0.000    0.000    0.000    0.000 
#    0.000    0.000    0.000    0.000    0.000    0.000 
#
# Total GULP energy -167016.938629 kJ/mol
# GULP energy per Si atom -5567.231288 kJ/mol
# Density = 1.026465 g / cm^3
# Si number density = 10.288066 Si / 1000 Ang^3
#
#
#
# Elastic Constant Matrix: (Units=GPa)
#
#
# Indices 1 2 3 4 5 6 
#
# 1 209.7992 23.0890 22.0366 0.0000 0.0000 0.0000
# 2 23.0890 74.4086 -6.7646 0.0000 0.0000 0.0000
# 3 22.0366 -6.7646 49.0252 0.0000 0.0000 0.0000
# 4 0.0000 0.0000 0.0000 23.8284 0.0000 0.0000
# 5 0.0000 0.0000 0.0000 0.0000 41.9674 0.0000
# 6 0.0000 0.0000 0.0000 0.0000 0.0000 36.5658
#
#
#
# Elastic Compliance Matrix: (Units=1/GPa)
#
#
# Indices 1 2 3 4 5 6 
#
# 1 0.005247 -0.001866 -0.002616 0.000000 0.000000 0.000000
# 2 -0.001866 0.014274 0.002808 0.000000 0.000000 0.000000
# 3 -0.002616 0.002808 0.021961 0.000000 0.000000 0.000000
# 4 0.000000 0.000000 0.000000 0.041967 0.000000 0.000000
# 5 0.000000 0.000000 0.000000 0.000000 0.023828 0.000000
# 6 0.000000 0.000000 0.000000 0.000000 0.000000 0.027348
#
#
# Mechanical properties :
#
#
# Convention : Reuss Voigt Hill
#
# Bulk Modulus (GPa) = 26.22317 45.55057 35.88687
# Shear Modulus (GPa) = 33.18249 40.13045 36.65647
#
# Velocity S-wave (km/s) = 4.02016 4.42106 4.22537
# Velocity P-wave (km/s) = 5.85842 6.94598 6.42525
#
# Compressibility (1/GPa) = 0.03813422
#
# Stress axis : x y z
#
# Youngs Moduli (GPa) = 190.60143 70.05957 45.53549
#
# Poissons Ratio (x) = 0.13072 0.11911
# Poissons Ratio (y) = 0.35563 -0.12787
# Poissons Ratio (z) = 0.49856 -0.19674
#
# Static dielectric constant tensor:
#      x y z
#    x 1.777350 0.000000 0.000000 
#    y 0.000000 1.808140 0.000000 
#    z 0.000000 0.000000 1.742110 
# 
# From -- ./inp_files/10590.got.cif
#   From: 2010.05.17/outbox.ucp.g08.bks.cvg/sg41_6_cif.got.tgz:10590.got - 2010.06.11 16:28:22.
