data_PCOD9368544
_publ_section_title
;
Structure prediction by ZEFSAII (Michael W. Deem and Ramdas Pophale) SiO2 
 PCOD9368544
Probable space group: F M M 2
;
_chemical_formula_sum "Si O2"
_cell_formula_units_Z 96
_cell_length_a 7.394487
_cell_length_b 22.593682
_cell_length_c 24.365411
_cell_angle_alpha 90.000000
_cell_angle_beta 90.000000
_cell_angle_gamma 90.000000
_cell_volume 4070.697244
_symmetry_space_group_name_H-M "F M M 2"
_symmetry_group_IT_number 42
_symmetry_cell_setting 'orthorhombic'
loop_
_space_group_symop_operation_xyz
x,y,z
-x,-y,z
-x,y,z
x,-y,z
x,1/2+y,1/2+z
-x,1/2-y,1/2+z
-x,1/2+y,1/2+z
x,1/2-y,1/2+z
1/2+x,y,1/2+z
1/2-x,-y,1/2+z
1/2-x,y,1/2+z
1/2+x,-y,1/2+z
1/2+x,1/2+y,z
1/2-x,1/2-y,z
1/2-x,1/2+y,z
1/2+x,1/2-y,z
loop_
_atom_site_type_symbol
_atom_site_label
_atom_site_fract_x
_atom_site_fract_y
_atom_site_fract_z
Si Si1 0.291644 0.067125 0.630090
Si Si2 0.779181 0.129850 0.960514
Si Si3 0.219414 0.500000 0.458919
Si Si4 0.217992 0.895219 0.752503
Si Si5 0.218318 0.500000 0.333283
Si Si6 0.716037 0.183909 0.569328
Si Si7 0.715370 0.818272 0.346070
O O1 0.500000 0.062531 0.611188
O O2 0.291963 0.084830 0.694263
O O3 0.212531 0.125746 0.600962
O O4 0.215093 0.000000 0.623471
O O5 0.716387 0.145358 0.899113
O O6 0.000000 0.129940 0.958321
O O7 0.723777 0.064078 0.980462
O O8 0.721920 0.176762 0.006284
O O9 0.279078 0.500000 0.395416
O O10 0.000000 0.500000 0.461715
O O11 0.278489 0.836479 0.784957
O O12 0.000000 0.894903 0.745268
O O13 0.268838 0.943816 0.797801
O O14 0.000000 0.500000 0.336711
O O15 0.500000 0.178557 0.569926
O O16 0.750000 0.250000 0.591047
O O17 0.500000 0.829208 0.344994
O O18 0.750000 0.750000 0.356689
#
# Coordination Sequence:
#
# PCOD9368544 Si02
#       7
#    16  16   8  16   8  16  16
#     4  10  22  38  56  81 111 141 179 229 278 322
#     4   9  17  30  52  81 109 137 173 220 272 321
#     4   9  14  24  49  83 111 133 167 220 271 316
#     4  10  19  33  55  80 105 136 176 217 260 315
#     4   9  14  26  48  77 107 129 161 208 255 306
#     4  10  22  39  58  80 108 144 184 224 271 324
#     4  10  20  33  51  79 110 141 178 218 263 319
#
# _framework density 23.583183999999999
#
# number of rings (size 3 to 8) (size 9 to 14) (size 15 to 20)
#    0.000    2.333    2.500    0.500    1.167    2.000 
#    0.000    3.333    0.000    0.000    0.000    1.167 
#    0.000    0.000    0.000    0.000    0.000    0.000 
#
# Total GULP energy -133886.124269 kJ/mol
# GULP energy per Si atom -5578.588511 kJ/mol
# Density = 2.352951 g / cm^3
# Si number density = 23.583184 Si / 1000 Ang^3
#
#
#
# Elastic Constant Matrix: (Units=GPa)
#
#
# Indices 1 2 3 4 5 6 
#
# 1 78.9500 1.2722 -0.7200 0.0000 0.0000 0.0000
# 2 1.2722 179.6907 55.3513 0.0000 0.0000 0.0000
# 3 -0.7200 55.3513 73.4804 0.0000 0.0000 0.0000
# 4 0.0000 0.0000 0.0000 50.8485 0.0000 0.0000
# 5 0.0000 0.0000 0.0000 0.0000 5.5576 0.0000
# 6 0.0000 0.0000 0.0000 0.0000 0.0000 13.2266
#
#
#
# Elastic Compliance Matrix: (Units=1/GPa)
#
#
# Indices 1 2 3 4 5 6 
#
# 1 0.012671 -0.000167 0.000250 0.000000 0.000000 0.000000
# 2 -0.000167 0.007249 -0.005462 0.000000 0.000000 0.000000
# 3 0.000250 -0.005462 0.017726 0.000000 0.000000 0.000000
# 4 0.000000 0.000000 0.000000 0.019666 0.000000 0.000000
# 5 0.000000 0.000000 0.000000 0.000000 0.179935 0.000000
# 6 0.000000 0.000000 0.000000 0.000000 0.000000 0.075605
#
#
# Mechanical properties :
#
#
# Convention : Reuss Voigt Hill
#
# Bulk Modulus (GPa) = 37.19127 49.32532 43.25830
# Shear Modulus (GPa) = 15.03428 32.34104 23.68766
#
# Velocity S-wave (km/s) = 2.52762 3.70721 3.17271
# Velocity P-wave (km/s) = 4.93183 6.26780 5.63952
#
# Compressibility (1/GPa) = 0.02688803
#
# Stress axis : x y z
#
# Youngs Moduli (GPa) = 78.91912 137.95399 56.41454
#
# Poissons Ratio (x) = 0.02299 -0.01408
# Poissons Ratio (y) = 0.01315 0.30814
# Poissons Ratio (z) = -0.01970 0.75350
#
# Static dielectric constant tensor:
#      x y z
#    x 1.953670 0.000000 0.000000 
#    y 0.000000 1.917580 0.000000 
#    z 0.000000 0.000000 1.860220 
# 
# From -- ./inp_files/28849.got.cif
#   From: 2010.05.17/outbox.cif.g08.bks.cpg/sg42_15_cif.got.tgz:28849.got - 2010.06.03 19:03:34.
