data_PCOD9368171
_publ_section_title
;
Structure prediction by ZEFSAII (Michael W. Deem and Ramdas Pophale) SiO2 
 PCOD9368171
Probable space group: F M M 2
;
_chemical_formula_sum "Si O2"
_cell_formula_units_Z 88
_cell_length_a 13.714958
_cell_length_b 23.266308
_cell_length_c 13.423982
_cell_angle_alpha 90.000000
_cell_angle_beta 90.000000
_cell_angle_gamma 90.000000
_cell_volume 4283.544827
_symmetry_space_group_name_H-M "F M M 2"
_symmetry_group_IT_number 42
_symmetry_cell_setting 'orthorhombic'
loop_
_space_group_symop_operation_xyz
x,y,z
-x,-y,z
-x,y,z
x,-y,z
x,1/2+y,1/2+z
-x,1/2-y,1/2+z
-x,1/2+y,1/2+z
x,1/2-y,1/2+z
1/2+x,y,1/2+z
1/2-x,-y,1/2+z
1/2-x,y,1/2+z
1/2+x,-y,1/2+z
1/2+x,1/2+y,z
1/2-x,1/2-y,z
1/2-x,1/2+y,z
1/2+x,1/2-y,z
loop_
_atom_site_type_symbol
_atom_site_label
_atom_site_fract_x
_atom_site_fract_y
_atom_site_fract_z
Si Si1 0.387819 0.861720 0.068440
Si Si2 0.613470 0.271758 0.049701
Si Si3 0.390232 0.433076 0.933511
Si Si4 0.315949 0.609432 0.138039
Si Si5 0.301296 0.373162 0.349042
Si Si6 0.750000 0.750000 0.868257
O O1 0.500000 0.877287 0.089963
O O2 0.375233 0.793284 0.090234
O O3 0.301585 0.894794 0.125013
O O4 0.364958 0.870690 0.950108
O O5 0.500000 0.282255 0.039268
O O6 0.657483 0.324765 0.109311
O O7 0.664925 0.270375 0.942796
O O8 0.500000 0.411579 0.912461
O O9 0.385676 0.500000 0.906756
O O10 0.302711 0.399897 0.879376
O O11 0.368191 0.426360 0.051520
O O12 0.343435 0.596222 0.251523
O O13 0.284525 0.307137 0.315229
#
# Coordination Sequence:
#
# PCOD9368171 Si02
#       6
#    16  16  16  16  16   8
#     4   9  19  35  50  75 116 156 183 221 276 342
#     4  10  17  31  52  74 112 154 189 226 273 333
#     4  10  22  42  64  84 111 151 198 247 295 341
#     4  11  20  34  57  84 111 146 191 242 284 339
#     4  10  22  34  58  83 118 149 190 237 286 346
#     4  10  18  34  52  82 118 156 190 226 286 354
#
# _framework density 20.543731999999999
#
# number of rings (size 3 to 8) (size 9 to 14) (size 15 to 20)
#    0.000    2.000    5.455    0.545    2.545    2.909 
#    0.000    0.000    0.000    8.727    0.000    0.000 
#    0.000    0.000    0.000    0.000    0.000    0.000 
#
# Total GULP energy -122691.470007 kJ/mol
# GULP energy per Si atom -5576.885000 kJ/mol
# Density = 2.049697 g / cm^3
# Si number density = 20.543732 Si / 1000 Ang^3
#
#
#
# Elastic Constant Matrix: (Units=GPa)
#
#
# Indices 1 2 3 4 5 6 
#
# 1 109.2190 10.1958 -12.2066 0.0000 0.0000 0.0000
# 2 10.1958 33.9210 9.7846 0.0000 0.0000 0.0000
# 3 -12.2066 9.7846 52.7392 0.0000 0.0000 0.0000
# 4 0.0000 0.0000 0.0000 3.2769 0.0000 0.0000
# 5 0.0000 0.0000 0.0000 0.0000 -11.2132 0.0000
# 6 0.0000 0.0000 0.0000 0.0000 0.0000 18.9315
#
#
#
# Elastic Compliance Matrix: (Units=1/GPa)
#
#
# Indices 1 2 3 4 5 6 
#
# 1 0.009847 -0.003822 0.002988 0.000000 0.000000 0.000000
# 2 -0.003822 0.032630 -0.006938 0.000000 0.000000 0.000000
# 3 0.002988 -0.006938 0.020940 0.000000 0.000000 0.000000
# 4 0.000000 0.000000 0.000000 0.305162 0.000000 0.000000
# 5 0.000000 0.000000 0.000000 0.000000 -0.089181 0.000000
# 6 0.000000 0.000000 0.000000 0.000000 0.000000 0.052822
#
#
# Mechanical properties :
#
#
# Convention : Reuss Voigt Hill
#
# Bulk Modulus (GPa) = 20.88847 23.49185 22.19016
# Shear Modulus (GPa) = 13.74675 14.73940 14.24308
#
# Velocity S-wave (km/s) = 2.58959 2.68146 2.63593
# Velocity P-wave (km/s) = 4.37392 4.58768 4.48208
#
# Compressibility (1/GPa) = 0.04787331
#
# Stress axis : x y z
#
# Youngs Moduli (GPa) = 101.55781 30.64633 47.75531
#
# Poissons Ratio (x) = 0.11712 -0.14269
# Poissons Ratio (y) = 0.38811 0.33134
# Poissons Ratio (z) = -0.30346 0.21263
#
# Static dielectric constant tensor:
#      x y z
#    x 1.738090 0.000000 0.000000 
#    y 0.000000 1.738750 0.000000 
#    z 0.000000 0.000000 1.729890 
# 
# From -- ./inp_files/14119.got.cif
#   From: 2010.05.17/outbox.cif.g08.bks.cpg/sg42_8_cif.got.tgz:14119.got - 2010.06.03 19:03:34.
