data_PCOD9368637
_publ_section_title
;
Structure prediction by ZEFSAII (Michael W. Deem and Ramdas Pophale) SiO2 
 PCOD9368637
Probable space group: F M M 2
;
_chemical_formula_sum "Si O2"
_cell_formula_units_Z 104
_cell_length_a 12.069447
_cell_length_b 24.310299
_cell_length_c 19.330590
_cell_angle_alpha 90.000000
_cell_angle_beta 90.000000
_cell_angle_gamma 90.000000
_cell_volume 5671.824470
_symmetry_space_group_name_H-M "F M M 2"
_symmetry_group_IT_number 42
_symmetry_cell_setting 'orthorhombic'
loop_
_space_group_symop_operation_xyz
x,y,z
-x,-y,z
-x,y,z
x,-y,z
x,1/2+y,1/2+z
-x,1/2-y,1/2+z
-x,1/2+y,1/2+z
x,1/2-y,1/2+z
1/2+x,y,1/2+z
1/2-x,-y,1/2+z
1/2-x,y,1/2+z
1/2+x,-y,1/2+z
1/2+x,1/2+y,z
1/2-x,1/2-y,z
1/2-x,1/2+y,z
1/2+x,1/2-y,z
loop_
_atom_site_type_symbol
_atom_site_label
_atom_site_fract_x
_atom_site_fract_y
_atom_site_fract_z
Si Si1 0.500000 0.137510 0.337200
Si Si2 0.000000 0.064219 0.963041
Si Si3 0.000000 0.940028 0.714456
Si Si4 0.124959 0.223891 0.130553
Si Si5 0.126732 0.133315 0.250443
Si Si6 0.734843 0.562581 0.643496
Si Si7 0.736199 0.815498 0.375964
Si Si8 0.194359 0.137699 0.021484
O O1 0.500000 0.082631 0.383703
O O2 0.500000 0.114381 0.260626
O O3 0.390634 0.170942 0.356019
O O4 0.106044 0.093290 0.995658
O O5 0.000000 0.000000 0.973301
O O6 0.889842 0.939136 0.669846
O O7 0.000000 0.000000 0.751785
O O8 0.250000 0.250000 0.132295
O O9 0.123771 0.185116 0.198037
O O10 0.131645 0.186517 0.061730
O O11 0.000000 0.251846 0.129904
O O12 0.190586 0.086721 0.206261
O O13 0.188792 0.152618 0.319848
O O14 0.000000 0.116885 0.264716
O O15 0.770003 0.500000 0.625569
O O16 0.738566 0.604942 0.579811
O O17 0.750000 0.750000 0.372894
O O18 0.754630 0.837835 0.454062
#
# Coordination Sequence:
#
# PCOD9368637 Si02
#       8
#     8   8   8  16  16  16  16  16
#     4  10  21  38  61  88 121 151 205 255 295 358
#     4  10  19  34  62  88 113 154 201 254 305 350
#     4  10  19  38  63  90 122 155 197 251 310 364
#     4  10  20  39  60  86 123 161 209 263 309 363
#     4  10  22  40  60  88 120 154 206 256 301 370
#     4  10  21  39  64  90 120 158 196 248 311 367
#     4  11  23  40  60  86 120 165 204 247 301 357
#     4  10  21  39  56  87 125 154 202 254 299 367
#
# _framework density 18.336251000000001
#
# number of rings (size 3 to 8) (size 9 to 14) (size 15 to 20)
#    0.000    1.846    2.308    1.615    2.154    0.308 
#    8.308    0.769    0.000    0.000    0.000    0.000 
#    0.000    0.000    0.000    0.000    0.000    0.000 
#
# Total GULP energy -144847.475294 kJ/mol
# GULP energy per Si atom -5571.056742 kJ/mol
# Density = 1.829452 g / cm^3
# Si number density = 18.336251 Si / 1000 Ang^3
#
#
#
# Elastic Constant Matrix: (Units=GPa)
#
#
# Indices 1 2 3 4 5 6 
#
# 1 135.0406 39.5231 37.0506 0.0000 0.0000 0.0000
# 2 39.5231 60.3244 19.1638 0.0000 0.0000 0.0000
# 3 37.0506 19.1638 108.0241 0.0000 0.0000 0.0000
# 4 0.0000 0.0000 0.0000 20.7273 0.0000 0.0000
# 5 0.0000 0.0000 0.0000 0.0000 10.0680 0.0000
# 6 0.0000 0.0000 0.0000 0.0000 0.0000 -15.8649
#
#
#
# Elastic Compliance Matrix: (Units=1/GPa)
#
#
# Indices 1 2 3 4 5 6 
#
# 1 0.009684 -0.005606 -0.002327 0.000000 0.000000 0.000000
# 2 -0.005606 0.020812 -0.001769 0.000000 0.000000 0.000000
# 3 -0.002327 -0.001769 0.010369 0.000000 0.000000 0.000000
# 4 0.000000 0.000000 0.000000 0.048246 0.000000 0.000000
# 5 0.000000 0.000000 0.000000 0.000000 0.099325 0.000000
# 6 0.000000 0.000000 0.000000 0.000000 0.000000 -0.063032
#
#
# Mechanical properties :
#
#
# Convention : Reuss Voigt Hill
#
# Bulk Modulus (GPa) = 46.59610 54.98490 50.79050
# Shear Modulus (GPa) = 32.90302 16.82951 24.86626
#
# Velocity S-wave (km/s) = 4.24066 3.03285 3.68656
# Velocity P-wave (km/s) = 7.03170 6.50510 6.77352
#
# Compressibility (1/GPa) = 0.02146102
#
# Stress axis : x y z
#
# Youngs Moduli (GPa) = 103.25996 48.04957 96.43897
#
# Poissons Ratio (x) = 0.26935 0.22442
# Poissons Ratio (y) = 0.57884 0.17064
# Poissons Ratio (z) = 0.24030 0.08502
#
# Static dielectric constant tensor:
#      x y z
#    x 1.641130 0.000000 0.000000 
#    y 0.000000 1.637050 0.000000 
#    z 0.000000 0.000000 1.642530 
# 
# From -- ./inp_files/19316.got.cif
#   From: 2010.05.17/outbox.cif.g08.bks.cpg/sg42_10_cif.got.tgz:19316.got - 2010.06.03 19:03:34.
