data_PCOD9368943
_publ_section_title
;
Structure prediction by ZEFSAII (Michael W. Deem and Ramdas Pophale) SiO2 
 PCOD9368943
Probable space group: F M M 2
;
_chemical_formula_sum "Si O2"
_cell_formula_units_Z 36
_cell_length_a 14.351314
_cell_length_b 19.995489
_cell_length_c 5.064142
_cell_angle_alpha 90.000000
_cell_angle_beta 90.000000
_cell_angle_gamma 90.000000
_cell_volume 1453.213993
_symmetry_space_group_name_H-M "F M M 2"
_symmetry_group_IT_number 42
_symmetry_cell_setting 'orthorhombic'
loop_
_space_group_symop_operation_xyz
x,y,z
-x,-y,z
-x,y,z
x,-y,z
x,1/2+y,1/2+z
-x,1/2-y,1/2+z
-x,1/2+y,1/2+z
x,1/2-y,1/2+z
1/2+x,y,1/2+z
1/2-x,-y,1/2+z
1/2-x,y,1/2+z
1/2+x,-y,1/2+z
1/2+x,1/2+y,z
1/2-x,1/2-y,z
1/2-x,1/2+y,z
1/2+x,1/2-y,z
loop_
_atom_site_type_symbol
_atom_site_label
_atom_site_fract_x
_atom_site_fract_y
_atom_site_fract_z
Si Si1 0.641821 0.000000 0.919420
Si Si2 0.000000 0.000000 0.919216
Si Si3 0.802589 0.851314 0.420347
Si Si4 0.000000 0.791573 0.580421
O O1 0.698283 0.068663 0.918221
O O2 0.579708 0.000000 0.654552
O O3 0.579892 0.000000 0.184576
O O4 0.727162 0.826745 0.632769
O O5 0.906206 0.830519 0.505559
O O6 0.000000 0.773070 0.888493
#
# Coordination Sequence:
#
# PCOD9368943 Si02
#       4
#     8   4  16   8
#     4  11  22  41  68 106 142 172 220 278 346 418
#     4  10  20  34  64  96 140 186 212 256 328 406
#     4  12  26  45  73 104 138 179 224 282 346 408
#     4  12  28  48  70  99 136 183 238 284 330 396
#
# _framework density 24.772677999999999
#
# number of rings (size 3 to 8) (size 9 to 14) (size 15 to 20)
#    0.000    0.444    0.000    9.333    0.000    8.889 
#    0.000    0.000    0.000    0.000    0.000    0.000 
#    0.000    0.000    0.000    0.000    0.000    0.000 
#
# Total GULP energy -50208.797427 kJ/mol
# GULP energy per Si atom -5578.755270 kJ/mol
# Density = 2.471629 g / cm^3
# Si number density = 24.772678 Si / 1000 Ang^3
#
#
#
# Elastic Constant Matrix: (Units=GPa)
#
#
# Indices 1 2 3 4 5 6 
#
# 1 99.0807 4.4354 20.0300 0.0011 -0.0015 -0.0005
# 2 4.4354 80.3376 -17.8322 0.0004 -0.0011 -0.0003
# 3 20.0300 -17.8322 207.5604 0.0030 -0.0041 -0.0017
# 4 0.0011 0.0004 0.0030 5.5995 -0.0009 0.0001
# 5 -0.0015 -0.0011 -0.0041 -0.0009 52.8126 0.0008
# 6 -0.0005 -0.0003 -0.0017 0.0001 0.0008 20.8572
#
#
#
# Elastic Compliance Matrix: (Units=1/GPa)
#
#
# Indices 1 2 3 4 5 6 
#
# 1 0.010345 -0.000808 -0.001068 -0.000001 0.000000 0.000000
# 2 -0.000808 0.012753 0.001174 -0.000001 0.000000 0.000000
# 3 -0.001068 0.001174 0.005022 -0.000003 0.000000 0.000000
# 4 -0.000001 -0.000001 -0.000003 0.178589 0.000003 -0.000001
# 5 0.000000 0.000000 0.000000 0.000003 0.018935 -0.000001
# 6 0.000000 0.000000 0.000000 -0.000001 -0.000001 0.047945
#
#
# Mechanical properties :
#
#
# Convention : Reuss Voigt Hill
#
# Bulk Modulus (GPa) = 37.43269 44.47169 40.95219
# Shear Modulus (GPa) = 17.61200 41.21021 29.41110
#
# Velocity S-wave (km/s) = 2.66925 4.08307 3.44937
# Velocity P-wave (km/s) = 4.96418 6.34188 5.69485
#
# Compressibility (1/GPa) = 0.02671462
#
# Stress axis : x y z
#
# Youngs Moduli (GPa) = 96.66688 78.41550 199.13412
#
# Poissons Ratio (x) = 0.06337 0.21262
# Poissons Ratio (y) = 0.07812 -0.23370
# Poissons Ratio (z) = 0.10321 -0.09203
#
# Static dielectric constant tensor:
#      x y z
#    x 1.907330 0.000000 0.000000 
#    y 0.000000 1.989830 0.000000 
#    z 0.000000 0.000000 1.900150 
# 
# From -- ./inp_files/220.got.cif
#   From: 2010.05.17/outbox.cif.g08.bks.cpg/sg42_1_cif.got.tgz:220.got - 2010.06.03 19:03:34.
