data_PCOD9368334
_publ_section_title
;
Structure prediction by ZEFSAII (Michael W. Deem and Ramdas Pophale) SiO2 
 PCOD9368334
Probable space group: F M M 2
;
_chemical_formula_sum "Si O2"
_cell_formula_units_Z 120
_cell_length_a 29.447037
_cell_length_b 22.417991
_cell_length_c 8.460261
_cell_angle_alpha 90.000000
_cell_angle_beta 90.000000
_cell_angle_gamma 90.000000
_cell_volume 5584.985550
_symmetry_space_group_name_H-M "F M M 2"
_symmetry_group_IT_number 42
_symmetry_cell_setting 'orthorhombic'
loop_
_space_group_symop_operation_xyz
x,y,z
-x,-y,z
-x,y,z
x,-y,z
x,1/2+y,1/2+z
-x,1/2-y,1/2+z
-x,1/2+y,1/2+z
x,1/2-y,1/2+z
1/2+x,y,1/2+z
1/2-x,-y,1/2+z
1/2-x,y,1/2+z
1/2+x,-y,1/2+z
1/2+x,1/2+y,z
1/2-x,1/2-y,z
1/2-x,1/2+y,z
1/2+x,1/2-y,z
loop_
_atom_site_type_symbol
_atom_site_label
_atom_site_fract_x
_atom_site_fract_y
_atom_site_fract_z
Si Si1 0.000000 0.792966 0.294461
Si Si2 0.185906 0.658142 0.751778
Si Si3 0.948003 0.927538 0.906050
Si Si4 0.895815 0.928539 0.231146
Si Si5 0.729579 0.316709 0.913503
Si Si6 0.572811 0.244974 0.539487
Si Si7 0.552795 0.427436 0.553277
Si Si8 0.639224 0.785359 0.287427
O O1 0.959711 0.790105 0.158207
O O2 0.960345 0.782084 0.428913
O O3 0.151912 0.604229 0.729972
O O4 0.226931 0.644150 0.871213
O O5 0.210549 0.674657 0.587831
O O6 0.156811 0.716540 0.799681
O O7 0.922272 0.914481 0.068556
O O8 0.000000 0.905240 0.916876
O O9 0.949812 0.000000 0.900714
O O10 0.930798 0.909329 0.730016
O O11 0.921875 0.909972 0.392367
O O12 0.891032 0.000000 0.236732
O O13 0.750000 0.250000 0.897689
O O14 0.685647 0.322371 0.799554
O O15 0.605365 0.203890 0.432785
O O16 0.608067 0.286458 0.634176
O O17 0.500000 0.408763 0.538700
O O18 0.553159 0.500000 0.552860
#
# Coordination Sequence:
#
# PCOD9368334 Si02
#       8
#     8  16  16  16  16  16  16  16
#     4   8  16  28  48  80 118 158 188 200 264 338
#     4  11  23  38  58  87 112 141 187 249 301 354
#     4   8  14  28  56  87 114 153 200 244 291 334
#     4  10  20  36  57  85 122 161 196 232 287 357
#     4  10  21  39  62  87 110 135 184 255 310 345
#     4   9  16  29  54  81 111 155 187 217 267 339
#     4   8  14  28  56  87 116 153 198 246 291 332
#     4  10  18  33  60  85 107 140 188 238 291 333
#
# _framework density 21.486179
#
# number of rings (size 3 to 8) (size 9 to 14) (size 15 to 20)
#    0.000    2.667    1.333    2.400    1.867    1.600 
#    2.400    0.667   17.600    0.000    0.000    0.000 
#    0.000    0.000    0.000    0.000    0.000    0.000 
#
# Total GULP energy -167044.981274 kJ/mol
# GULP energy per Si atom -5568.166042 kJ/mol
# Density = 2.143728 g / cm^3
# Si number density = 21.486179 Si / 1000 Ang^3
#
#
#
# Elastic Constant Matrix: (Units=GPa)
#
#
# Indices 1 2 3 4 5 6 
#
# 1 157.0441 28.3816 95.6276 -0.0003 -0.0001 0.0000
# 2 28.3816 54.8349 19.9344 -0.0003 -0.0001 0.0001
# 3 95.6276 19.9344 153.4670 -0.0005 -0.0003 0.0002
# 4 -0.0003 -0.0003 -0.0005 7.2185 -0.0002 0.0001
# 5 -0.0001 -0.0001 -0.0003 -0.0002 47.7894 0.0000
# 6 0.0000 0.0001 0.0002 0.0001 0.0000 12.5735
#
#
#
# Elastic Compliance Matrix: (Units=1/GPa)
#
#
# Indices 1 2 3 4 5 6 
#
# 1 0.010801 -0.003300 -0.006302 0.000000 0.000000 0.000000
# 2 -0.003300 0.020148 -0.000561 0.000001 0.000000 0.000000
# 3 -0.006302 -0.000561 0.010516 0.000000 0.000000 0.000000
# 4 0.000000 0.000001 0.000000 0.138532 0.000001 -0.000001
# 5 0.000000 0.000000 0.000000 0.000001 0.020925 0.000000
# 6 0.000000 0.000000 0.000000 -0.000001 0.000000 0.079532
#
#
# Mechanical properties :
#
#
# Convention : Reuss Voigt Hill
#
# Bulk Modulus (GPa) = 47.30319 72.58148 59.94233
# Shear Modulus (GPa) = 16.24289 28.27646 22.25967
#
# Velocity S-wave (km/s) = 2.75247 3.63165 3.22219
# Velocity P-wave (km/s) = 5.67141 7.17210 6.46544
#
# Compressibility (1/GPa) = 0.02114022
#
# Stress axis : x y z
#
# Youngs Moduli (GPa) = 92.58152 49.63187 95.09571
#
# Poissons Ratio (x) = 0.16377 0.59928
# Poissons Ratio (y) = 0.30548 0.05336
# Poissons Ratio (z) = 0.58343 0.02785
#
# Static dielectric constant tensor:
#      x y z
#    x 1.765470 0.000000 0.000000 
#    y 0.000000 1.820050 0.000000 
#    z 0.000000 0.000000 1.837750 
# 
# From -- ./inp_files/5361.got.cif
#   From: 2010.05.17/outbox.cif.g08.bks.cpg/sg42_3_cif.got.tgz:5361.got - 2010.06.03 19:03:34.
