data_PCOD9368067
_publ_section_title
;
Structure prediction by ZEFSAII (Michael W. Deem and Ramdas Pophale) SiO2 
 PCOD9368067
Probable space group: A B A 2
;
_chemical_formula_sum "Si O2"
_cell_formula_units_Z 24
_cell_length_a 9.000000
_cell_length_b 15.000000
_cell_length_c 18.000000
_cell_angle_alpha 90.000000
_cell_angle_beta 90.000000
_cell_angle_gamma 90.000000
_cell_volume 2430.000000
_symmetry_space_group_name_H-M "A B A 2"
_symmetry_group_IT_number 41
_symmetry_cell_setting 'orthorhombic'
loop_
_space_group_symop_operation_xyz
x,y,z
-x,-y,z
1/2-x,y,1/2+z
1/2+x,-y,1/2+z
x,1/2+y,1/2+z
-x,1/2-y,1/2+z
1/2-x,1/2+y,z
1/2+x,1/2-y,z
loop_
_atom_site_type_symbol
_atom_site_label
_atom_site_fract_x
_atom_site_fract_y
_atom_site_fract_z
Si Si1 0.569037 0.238405 0.580270
Si Si2 0.822836 0.177746 0.687323
Si Si3 0.416395 0.409056 0.403567
Si Si4 0.332544 0.985802 0.294795
Si Si5 0.673791 0.772445 0.472363
Si Si6 0.692711 0.329759 0.315114
O O1 0.673697 0.184604 0.637446
O O2 0.458824 0.295930 0.632570
O O3 0.463919 0.188724 0.519728
O O4 0.684789 0.287816 0.525469
O O5 0.838070 0.081723 0.725517
O O6 0.816494 0.250039 0.755350
O O7 0.500000 0.500000 0.430796
O O8 0.274720 0.442119 0.356503
O O9 0.363571 0.333544 0.461700
O O10 0.532420 0.359055 0.348053
O O11 0.500000 0.000000 0.322532
O O12 0.264421 0.082900 0.277684
O O13 0.710595 0.805926 0.389176
#
# Coordination Sequence:
#
# PCOD9368067 Si02
#       6
#     8   8   8   8   8   8
#     4  10  24  38  67  93 139 188 213 270 362 414
#     4  11  22  44  65  97 135 181 228 284 339 421
#     4  10  22  40  63 102 137 170 225 297 341 395
#     4  11  24  38  69 105 129 171 235 287 337 399
#     4  11  21  42  68 100 131 185 229 283 349 413
#     4  11  23  40  76  94 132 176 237 290 342 396
#
# _framework density 9.8765429999999999
#
# number of rings (size 3 to 8) (size 9 to 14) (size 15 to 20)
#    0.000    1.333    3.333    2.000    4.667    0.000 
#    0.000    6.667    7.333    0.000    0.000    0.000 
#    0.000    0.000    0.000    0.000    0.000    0.000 
#
# Total GULP energy -134001.932193 kJ/mol
# GULP energy per Si atom -5583.413841 kJ/mol
# Density = 0.985406 g / cm^3
# Si number density = 9.876543 Si / 1000 Ang^3
#
#
#
# Elastic Constant Matrix: (Units=GPa)
#
#
# Indices 1 2 3 4 5 6 
#
# 1 143.0986 30.0457 38.8014 0.0000 0.0000 0.0000
# 2 30.0457 108.3846 47.9155 0.0000 0.0000 0.0000
# 3 38.8014 47.9155 113.5470 0.0000 0.0000 0.0000
# 4 0.0000 0.0000 0.0000 29.1172 0.0000 0.0000
# 5 0.0000 0.0000 0.0000 0.0000 38.7242 0.0000
# 6 0.0000 0.0000 0.0000 0.0000 0.0000 22.6000
#
#
#
# Elastic Compliance Matrix: (Units=1/GPa)
#
#
# Indices 1 2 3 4 5 6 
#
# 1 0.007830 -0.001214 -0.002163 0.000000 0.000000 0.000000
# 2 -0.001214 0.011531 -0.004451 0.000000 0.000000 0.000000
# 3 -0.002163 -0.004451 0.011424 0.000000 0.000000 0.000000
# 4 0.000000 0.000000 0.000000 0.034344 0.000000 0.000000
# 5 0.000000 0.000000 0.000000 0.000000 0.025824 0.000000
# 6 0.000000 0.000000 0.000000 0.000000 0.000000 0.044248
#
#
# Mechanical properties :
#
#
# Convention : Reuss Voigt Hill
#
# Bulk Modulus (GPa) = 66.10185 66.50618 66.30401
# Shear Modulus (GPa) = 32.07197 34.63945 33.35571
#
# Velocity S-wave (km/s) = 4.03382 4.19217 4.11376
# Velocity P-wave (km/s) = 7.43184 7.56136 7.49688
#
# Compressibility (1/GPa) = 0.01512817
#
# Stress axis : x y z
#
# Youngs Moduli (GPa) = 127.71915 86.72519 87.53219
#
# Poissons Ratio (x) = 0.10530 0.18935
# Poissons Ratio (y) = 0.15507 0.38960
# Poissons Ratio (z) = 0.27628 0.38601
#
# Static dielectric constant tensor:
#      x y z
#    x 1.754100 0.000000 0.000000 
#    y 0.000000 1.692290 0.000000 
#    z 0.000000 0.000000 1.685470 
# 
# From -- ./inp_files/9647.got.cif
#   From: 2010.05.17/outbox.ucp.g08.bks.cvg/sg41_5_cif.got.tgz:9647.got - 2010.06.11 16:28:22.
