data_PCOD9368507
_publ_section_title
;
Structure prediction by ZEFSAII (Michael W. Deem and Ramdas Pophale) SiO2 
 PCOD9368507
Probable space group: F M M 2
;
_chemical_formula_sum "Si O2"
_cell_formula_units_Z 96
_cell_length_a 7.642018
_cell_length_b 29.059685
_cell_length_c 21.275719
_cell_angle_alpha 90.000000
_cell_angle_beta 90.000000
_cell_angle_gamma 90.000000
_cell_volume 4724.797549
_symmetry_space_group_name_H-M "F M M 2"
_symmetry_group_IT_number 42
_symmetry_cell_setting 'orthorhombic'
loop_
_space_group_symop_operation_xyz
x,y,z
-x,-y,z
-x,y,z
x,-y,z
x,1/2+y,1/2+z
-x,1/2-y,1/2+z
-x,1/2+y,1/2+z
x,1/2-y,1/2+z
1/2+x,y,1/2+z
1/2-x,-y,1/2+z
1/2-x,y,1/2+z
1/2+x,-y,1/2+z
1/2+x,1/2+y,z
1/2-x,1/2-y,z
1/2-x,1/2+y,z
1/2+x,1/2-y,z
loop_
_atom_site_type_symbol
_atom_site_label
_atom_site_fract_x
_atom_site_fract_y
_atom_site_fract_z
Si Si1 0.294211 0.398894 0.152860
Si Si2 0.212121 0.553408 0.779846
Si Si3 0.289696 0.801641 0.339959
Si Si4 0.215072 0.446717 0.525673
Si Si5 0.705241 0.891665 0.404808
Si Si6 0.292098 0.301684 0.696084
O O1 0.500000 0.409845 0.153659
O O2 0.222881 0.419495 0.218177
O O3 0.224644 0.422897 0.090235
O O4 0.274821 0.343962 0.155000
O O5 0.261471 0.500000 0.775897
O O6 0.278824 0.576465 0.843423
O O7 0.000000 0.555991 0.781759
O O8 0.500000 0.806327 0.336668
O O9 0.250000 0.750000 0.361346
O O10 0.220236 0.842184 0.384118
O O11 0.222649 0.806482 0.267997
O O12 0.268217 0.500000 0.522333
O O13 0.277542 0.417775 0.465462
O O14 0.000000 0.446555 0.524960
O O15 0.500000 0.884339 0.418218
O O16 0.500000 0.305986 0.698535
O O17 0.250000 0.250000 0.674470
#
# Coordination Sequence:
#
# PCOD9368507 Si02
#       6
#    16  16  16  16  16  16
#     4  10  19  33  53  77 105 139 178 217 259 307
#     4  10  20  32  49  75 105 135 172 219 265 311
#     4   9  18  31  50  76 104 132 167 211 258 310
#     4   9  18  33  54  77 104 142 182 216 255 309
#     4  10  19  34  54  78 104 135 176 220 262 309
#     4  10  19  33  53  79 108 137 173 215 265 316
#
# _framework density 20.318331000000001
#
# number of rings (size 3 to 8) (size 9 to 14) (size 15 to 20)
#    0.000    2.333    1.667    1.500    0.000    4.333 
#    0.000    1.667    0.000    4.500    0.000    0.000 
#    0.000    0.000    0.000    0.000    0.000    0.000 
#
# Total GULP energy -133980.063536 kJ/mol
# GULP energy per Si atom -5582.502647 kJ/mol
# Density = 2.027209 g / cm^3
# Si number density = 20.318331 Si / 1000 Ang^3
#
#
#
# Elastic Constant Matrix: (Units=GPa)
#
#
# Indices 1 2 3 4 5 6 
#
# 1 35.4030 -13.6352 -3.9653 0.0000 0.0000 0.0000
# 2 -13.6352 149.5556 65.2416 0.0000 0.0000 0.0000
# 3 -3.9653 65.2416 123.1389 0.0000 0.0000 0.0000
# 4 0.0000 0.0000 0.0000 34.9747 0.0000 0.0000
# 5 0.0000 0.0000 0.0000 0.0000 7.6179 0.0000
# 6 0.0000 0.0000 0.0000 0.0000 0.0000 13.5973
#
#
#
# Elastic Compliance Matrix: (Units=1/GPa)
#
#
# Indices 1 2 3 4 5 6 
#
# 1 0.029310 0.002940 -0.000614 0.000000 0.000000 0.000000
# 2 0.002940 0.008991 -0.004669 0.000000 0.000000 0.000000
# 3 -0.000614 -0.004669 0.010575 0.000000 0.000000 0.000000
# 4 0.000000 0.000000 0.000000 0.028592 0.000000 0.000000
# 5 0.000000 0.000000 0.000000 0.000000 0.131269 0.000000
# 6 0.000000 0.000000 0.000000 0.000000 0.000000 0.073544
#
#
# Mechanical properties :
#
#
# Convention : Reuss Voigt Hill
#
# Bulk Modulus (GPa) = 22.62952 44.81997 33.72474
# Shear Modulus (GPa) = 16.57288 28.60173 22.58731
#
# Velocity S-wave (km/s) = 2.85908 3.75598 3.33779
# Velocity P-wave (km/s) = 4.69689 6.39661 5.61148
#
# Compressibility (1/GPa) = 0.04419006
#
# Stress axis : x y z
#
# Youngs Moduli (GPa) = 34.11837 111.21767 94.56296
#
# Poissons Ratio (x) = -0.32698 0.05805
# Poissons Ratio (y) = -0.10031 0.44153
# Poissons Ratio (z) = 0.02094 0.51929
#
# Static dielectric constant tensor:
#      x y z
#    x 1.759460 0.000000 0.000000 
#    y 0.000000 1.715420 0.000000 
#    z 0.000000 0.000000 1.701960 
# 
# From -- ./inp_files/19133.got.cif
#   From: 2010.05.17/outbox.cif.g08.bks.cpg/sg42_10_cif.got.tgz:19133.got - 2010.06.03 19:03:34.
