data_PCOD9368345
_publ_section_title
;
Structure prediction by ZEFSAII (Michael W. Deem and Ramdas Pophale) SiO2 
 PCOD9368345
Probable space group: F M M 2
;
_chemical_formula_sum "Si O2"
_cell_formula_units_Z 116
_cell_length_a 7.896016
_cell_length_b 30.171747
_cell_length_c 26.024200
_cell_angle_alpha 90.000000
_cell_angle_beta 90.000000
_cell_angle_gamma 90.000000
_cell_volume 6199.916849
_symmetry_space_group_name_H-M "F M M 2"
_symmetry_group_IT_number 42
_symmetry_cell_setting 'orthorhombic'
loop_
_space_group_symop_operation_xyz
x,y,z
-x,-y,z
-x,y,z
x,-y,z
x,1/2+y,1/2+z
-x,1/2-y,1/2+z
-x,1/2+y,1/2+z
x,1/2-y,1/2+z
1/2+x,y,1/2+z
1/2-x,-y,1/2+z
1/2-x,y,1/2+z
1/2+x,-y,1/2+z
1/2+x,1/2+y,z
1/2-x,1/2-y,z
1/2-x,1/2+y,z
1/2+x,1/2-y,z
loop_
_atom_site_type_symbol
_atom_site_label
_atom_site_fract_x
_atom_site_fract_y
_atom_site_fract_z
Si Si1 0.295013 0.051337 0.176520
Si Si2 0.500000 0.500000 0.010650
Si Si3 0.206878 0.896781 0.779618
Si Si4 0.196447 0.384913 0.584106
Si Si5 0.205740 0.052170 0.882171
Si Si6 0.189042 0.068124 0.492235
Si Si7 0.298586 0.702349 0.643543
Si Si8 0.296238 0.298297 0.761249
O O1 0.500000 0.051041 0.177307
O O2 0.238470 0.079756 0.226352
O O3 0.240133 0.075935 0.124614
O O4 0.237954 0.000000 0.178568
O O5 0.347843 0.537527 0.007881
O O6 0.257797 0.925704 0.828740
O O7 0.261374 0.845438 0.784214
O O8 0.000000 0.897072 0.778436
O O9 0.297548 0.391280 0.531527
O O10 0.234539 0.339046 0.612056
O O11 0.000000 0.386588 0.572678
O O12 0.282586 0.075981 0.931771
O O13 0.000000 0.053783 0.885882
O O14 0.251546 0.000000 0.884444
O O15 0.000000 0.049225 0.498745
O O16 0.500000 0.698872 0.646608
O O17 0.250000 0.750000 0.621390
O O18 0.232066 0.700980 0.702210
O O19 0.500000 0.299702 0.760649
O O20 0.250000 0.250000 0.783599
#
# Coordination Sequence:
#
# PCOD9368345 Si02
#       8
#    16   4  16  16  16  16  16  16
#     4  10  20  34  52  79 112 155 196 232 291 357
#     4  12  22  44  60  90 116 152 206 252 292 352
#     4   9  17  32  55  81 112 150 191 238 292 348
#     4  12  24  38  55  82 119 156 198 245 294 351
#     4  10  18  34  57  83 112 148 197 245 289 346
#     4  12  24  40  62  87 118 157 200 252 299 344
#     4  10  19  35  58  84 113 148 192 240 295 355
#     4   9  17  31  52  79 111 146 190 236 289 350
#
# _framework density 18.709928000000001
#
# number of rings (size 3 to 8) (size 9 to 14) (size 15 to 20)
#    0.000    1.655    3.448    2.276    0.966    2.483 
#    0.000    1.379    0.000    2.483    0.000    3.862 
#    0.000    0.000    0.000    0.000    0.000    0.000 
#
# Total GULP energy -161526.746138 kJ/mol
# GULP energy per Si atom -5569.887798 kJ/mol
# Density = 1.866734 g / cm^3
# Si number density = 18.709928 Si / 1000 Ang^3
#
#
#
# Elastic Constant Matrix: (Units=GPa)
#
#
# Indices 1 2 3 4 5 6 
#
# 1 73.7740 11.3455 9.5747 0.0000 0.0000 0.0000
# 2 11.3455 107.2547 45.0539 0.0000 0.0000 0.0000
# 3 9.5747 45.0539 98.8129 0.0000 0.0000 0.0000
# 4 0.0000 0.0000 0.0000 67.2263 0.0000 0.0000
# 5 0.0000 0.0000 0.0000 0.0000 17.1138 0.0000
# 6 0.0000 0.0000 0.0000 0.0000 0.0000 20.8229
#
#
#
# Elastic Compliance Matrix: (Units=1/GPa)
#
#
# Indices 1 2 3 4 5 6 
#
# 1 0.013834 -0.001114 -0.000833 0.000000 0.000000 0.000000
# 2 -0.001114 0.011622 -0.005191 0.000000 0.000000 0.000000
# 3 -0.000833 -0.005191 0.012568 0.000000 0.000000 0.000000
# 4 0.000000 0.000000 0.000000 0.014875 0.000000 0.000000
# 5 0.000000 0.000000 0.000000 0.000000 0.058432 0.000000
# 6 0.000000 0.000000 0.000000 0.000000 0.000000 0.048024
#
#
# Mechanical properties :
#
#
# Convention : Reuss Voigt Hill
#
# Bulk Modulus (GPa) = 42.10707 45.75442 43.93075
# Shear Modulus (GPa) = 27.54111 35.29045 31.41578
#
# Velocity S-wave (km/s) = 3.84083 4.34774 4.10212
# Velocity P-wave (km/s) = 6.49795 7.05064 6.77993
#
# Compressibility (1/GPa) = 0.02374898
#
# Stress axis : x y z
#
# Youngs Moduli (GPa) = 72.28437 86.04352 79.56873
#
# Poissons Ratio (x) = 0.09582 0.06626
# Poissons Ratio (y) = 0.08049 0.41306
# Poissons Ratio (z) = 0.06020 0.44667
#
# Static dielectric constant tensor:
#      x y z
#    x 1.683330 0.000000 0.000000 
#    y 0.000000 1.642170 0.000000 
#    z 0.000000 0.000000 1.654170 
# 
# From -- ./inp_files/28469.got.cif
#   From: 2010.05.17/outbox.cif.g08.bks.cpg/sg42_15_cif.got.tgz:28469.got - 2010.06.03 19:03:34.
