data_PCOD9368720
_publ_section_title
;
Structure prediction by ZEFSAII (Michael W. Deem and Ramdas Pophale) SiO2 
 PCOD9368720
Probable space group: F M M 2
;
_chemical_formula_sum "Si O2"
_cell_formula_units_Z 120
_cell_length_a 27.597222
_cell_length_b 16.477550
_cell_length_c 13.017049
_cell_angle_alpha 90.000000
_cell_angle_beta 90.000000
_cell_angle_gamma 90.000000
_cell_volume 5919.302640
_symmetry_space_group_name_H-M "F M M 2"
_symmetry_group_IT_number 42
_symmetry_cell_setting 'orthorhombic'
loop_
_space_group_symop_operation_xyz
x,y,z
-x,-y,z
-x,y,z
x,-y,z
x,1/2+y,1/2+z
-x,1/2-y,1/2+z
-x,1/2+y,1/2+z
x,1/2-y,1/2+z
1/2+x,y,1/2+z
1/2-x,-y,1/2+z
1/2-x,y,1/2+z
1/2+x,-y,1/2+z
1/2+x,1/2+y,z
1/2-x,1/2-y,z
1/2-x,1/2+y,z
1/2+x,1/2-y,z
loop_
_atom_site_type_symbol
_atom_site_label
_atom_site_fract_x
_atom_site_fract_y
_atom_site_fract_z
Si Si1 0.824028 0.849406 0.436690
Si Si2 0.058537 0.906162 0.034802
Si Si3 0.225000 0.904768 0.017462
Si Si4 0.324717 0.089856 0.296363
Si Si5 0.442370 0.863285 0.768906
Si Si6 0.271736 0.659551 0.221516
Si Si7 0.607351 0.213014 0.372003
Si Si8 0.886499 0.000000 0.403912
O O1 0.773958 0.853355 0.498393
O O2 0.806073 0.856641 0.318041
O O3 0.855127 0.767905 0.438096
O O4 0.855299 0.927990 0.462064
O O5 0.070938 0.875395 0.149379
O O6 0.000000 0.904832 0.026695
O O7 0.074784 0.000000 0.023581
O O8 0.080620 0.849239 0.947237
O O9 0.201681 0.865403 0.117625
O O10 0.235815 0.000000 0.033703
O O11 0.193250 0.902324 0.914796
O O12 0.275858 0.103355 0.232533
O O13 0.363113 0.161368 0.287168
O O14 0.344382 0.000000 0.278806
O O15 0.500000 0.874924 0.777400
O O16 0.427296 0.776055 0.813925
O O17 0.415186 0.929389 0.837777
O O18 0.250000 0.750000 0.225435
#
# Coordination Sequence:
#
# PCOD9368720 Si02
#       8
#    16  16  16  16  16  16  16   8
#     4  10  22  38  54  82 121 148 202 248 289 348
#     4  10  21  40  64  91 121 153 196 249 307 377
#     4  10  22  37  56  77 110 161 197 237 290 342
#     4  10  22  39  55  79 115 153 198 245 285 347
#     4  10  21  39  63  92 122 154 193 246 315 373
#     4  11  22  36  56  78 110 162 197 236 292 346
#     4  11  22  36  58  91 120 155 194 256 303 361
#     4  10  19  36  62  82 118 152 188 250 301 352
#
# _framework density 20.272658
#
# number of rings (size 3 to 8) (size 9 to 14) (size 15 to 20)
#    0.000    1.733    2.667    1.400    3.733    3.200 
#    2.400    0.000    0.000    0.000    1.733    0.000 
#    0.000    0.000    0.000    0.000    0.000    0.000 
#
# Total GULP energy -167111.583151 kJ/mol
# GULP energy per Si atom -5570.386105 kJ/mol
# Density = 2.022652 g / cm^3
# Si number density = 20.272658 Si / 1000 Ang^3
#
#
#
# Elastic Constant Matrix: (Units=GPa)
#
#
# Indices 1 2 3 4 5 6 
#
# 1 42.5648 16.7280 -0.3167 0.0000 0.0000 0.0000
# 2 16.7280 122.6856 1.8265 0.0000 0.0000 0.0000
# 3 -0.3167 1.8265 47.0279 0.0000 0.0000 0.0000
# 4 0.0000 0.0000 0.0000 19.6784 0.0000 0.0000
# 5 0.0000 0.0000 0.0000 0.0000 -9.0411 0.0000
# 6 0.0000 0.0000 0.0000 0.0000 0.0000 26.7648
#
#
#
# Elastic Compliance Matrix: (Units=1/GPa)
#
#
# Indices 1 2 3 4 5 6 
#
# 1 0.024828 -0.003390 0.000299 0.000000 0.000000 0.000000
# 2 -0.003390 0.008618 -0.000358 0.000000 0.000000 0.000000
# 3 0.000299 -0.000358 0.021280 0.000000 0.000000 0.000000
# 4 0.000000 0.000000 0.000000 0.050817 0.000000 0.000000
# 5 0.000000 0.000000 0.000000 0.000000 -0.110606 0.000000
# 6 0.000000 0.000000 0.000000 0.000000 0.000000 0.037363
#
#
# Mechanical properties :
#
#
# Convention : Reuss Voigt Hill
#
# Bulk Modulus (GPa) = 20.90765 27.63934 24.27349
# Shear Modulus (GPa) = 90.67802 20.41644 55.54723
#
# Velocity S-wave (km/s) = 6.69525 3.17691 5.24019
# Velocity P-wave (km/s) = 8.37282 5.20773 6.97225
#
# Compressibility (1/GPa) = 0.04782939
#
# Stress axis : x y z
#
# Youngs Moduli (GPa) = 40.27721 116.03059 46.99273
#
# Poissons Ratio (x) = 0.39331 -0.01404
# Poissons Ratio (y) = 0.13653 0.01680
# Poissons Ratio (z) = -0.01204 0.04149
#
# Static dielectric constant tensor:
#      x y z
#    x 1.730400 0.000000 0.000000 
#    y 0.000000 1.724350 0.000000 
#    z 0.000000 0.000000 1.739180 
# 
# From -- ./inp_files/17446.got.cif
#   From: 2010.05.17/outbox.cif.g08.bks.cpg/sg42_9_cif.got.tgz:17446.got - 2010.06.03 19:03:34.
