data_PCOD9368670
_publ_section_title
;
Structure prediction by ZEFSAII (Michael W. Deem and Ramdas Pophale) SiO2 
 PCOD9368670
Probable space group: F M M 2
;
_chemical_formula_sum "Si O2"
_cell_formula_units_Z 80
_cell_length_a 10.478992
_cell_length_b 16.093769
_cell_length_c 23.691774
_cell_angle_alpha 90.000000
_cell_angle_beta 90.000000
_cell_angle_gamma 90.000000
_cell_volume 3995.534210
_symmetry_space_group_name_H-M "F M M 2"
_symmetry_group_IT_number 42
_symmetry_cell_setting 'orthorhombic'
loop_
_space_group_symop_operation_xyz
x,y,z
-x,-y,z
-x,y,z
x,-y,z
x,1/2+y,1/2+z
-x,1/2-y,1/2+z
-x,1/2+y,1/2+z
x,1/2-y,1/2+z
1/2+x,y,1/2+z
1/2-x,-y,1/2+z
1/2-x,y,1/2+z
1/2+x,-y,1/2+z
1/2+x,1/2+y,z
1/2-x,1/2-y,z
1/2-x,1/2+y,z
1/2+x,1/2-y,z
loop_
_atom_site_type_symbol
_atom_site_label
_atom_site_fract_x
_atom_site_fract_y
_atom_site_fract_z
Si Si1 0.500000 0.826979 0.740731
Si Si2 0.000000 0.859760 0.601338
Si Si3 0.256007 0.596185 0.300261
Si Si4 0.353565 0.900025 0.418471
Si Si5 0.243892 0.649716 0.539599
Si Si6 0.000000 0.128374 0.731160
Si Si7 0.000000 0.343059 0.611357
O O1 0.627935 0.854825 0.772430
O O2 0.500000 0.728030 0.735376
O O3 0.500000 0.863525 0.677298
O O4 0.126106 0.882861 0.566853
O O5 0.000000 0.893479 0.664990
O O6 0.000000 0.758250 0.606745
O O7 0.295719 0.500000 0.305760
O O8 0.216945 0.629598 0.361989
O O9 0.127967 0.598996 0.262422
O O10 0.500000 0.868792 0.420520
O O11 0.282454 0.877699 0.475948
O O12 0.359794 0.000000 0.414075
O O13 0.250000 0.750000 0.539816
O O14 0.124817 0.625524 0.578985
#
# Coordination Sequence:
#
# PCOD9368670 Si02
#       7
#     8   8  16  16  16   8   8
#     4  11  23  38  63  94 120 149 202 255 294 341
#     4   9  20  34  55  88 118 149 184 241 304 337
#     4  11  23  41  61  86 122 162 197 244 304 356
#     4  10  21  40  61  80 113 160 198 234 293 359
#     4  10  19  35  60  86 114 148 194 240 286 343
#     4  11  21  40  65  86 120 163 200 235 292 371
#     4   9  18  36  57  82 120 155 184 235 296 349
#
# _framework density 20.022352999999999
#
# number of rings (size 3 to 8) (size 9 to 14) (size 15 to 20)
#    0.000    1.800    2.000    2.400    0.000    5.600 
#    0.000    7.500    0.000    0.000    0.000    0.000 
#    0.000    0.000    0.000    0.000    0.000    0.000 
#
# Total GULP energy -111777.114906 kJ/mol
# GULP energy per Si atom -5588.855745 kJ/mol
# Density = 1.997678 g / cm^3
# Si number density = 20.022353 Si / 1000 Ang^3
#
#
#
# Elastic Constant Matrix: (Units=GPa)
#
#
# Indices 1 2 3 4 5 6 
#
# 1 175.1181 14.6449 109.0533 0.0000 0.0000 0.0000
# 2 14.6449 28.5141 12.0394 0.0000 0.0000 0.0000
# 3 109.0533 12.0394 218.0325 0.0000 0.0000 0.0000
# 4 0.0000 0.0000 0.0000 39.0419 0.0000 0.0000
# 5 0.0000 0.0000 0.0000 0.0000 22.0269 0.0000
# 6 0.0000 0.0000 0.0000 0.0000 0.0000 23.8278
#
#
#
# Elastic Compliance Matrix: (Units=1/GPa)
#
#
# Indices 1 2 3 4 5 6 
#
# 1 0.008482 -0.002626 -0.004097 0.000000 0.000000 0.000000
# 2 -0.002626 0.036721 -0.000714 0.000000 0.000000 0.000000
# 3 -0.004097 -0.000714 0.006675 0.000000 0.000000 0.000000
# 4 0.000000 0.000000 0.000000 0.025614 0.000000 0.000000
# 5 0.000000 0.000000 0.000000 0.000000 0.045399 0.000000
# 6 0.000000 0.000000 0.000000 0.000000 0.000000 0.041968
#
#
# Mechanical properties :
#
#
# Convention : Reuss Voigt Hill
#
# Bulk Modulus (GPa) = 27.02526 77.01554 52.02040
# Shear Modulus (GPa) = 26.03261 36.04114 31.03687
#
# Velocity S-wave (km/s) = 3.60971 4.24730 3.94142
# Velocity P-wave (km/s) = 5.55879 7.91208 6.83744
#
# Compressibility (1/GPa) = 0.03700242
#
# Stress axis : x y z
#
# Youngs Moduli (GPa) = 117.90289 27.23261 149.80816
#
# Poissons Ratio (x) = 0.07152 0.61379
# Poissons Ratio (y) = 0.30964 0.10698
# Poissons Ratio (z) = 0.48307 0.01945
#
# Static dielectric constant tensor:
#      x y z
#    x 1.692320 0.000000 0.000000 
#    y 0.000000 1.717380 0.000000 
#    z 0.000000 0.000000 1.679850 
# 
# From -- ./inp_files/24295.got.cif
#   From: 2010.05.17/outbox.cif.g08.bks.cpg/sg42_13_cif.got.tgz:24295.got - 2010.06.03 19:03:34.
