data_PCOD9368668
_publ_section_title
;
Structure prediction by ZEFSAII (Michael W. Deem and Ramdas Pophale) SiO2 
 PCOD9368668
Probable space group: F M M 2
;
_chemical_formula_sum "Si O2"
_cell_formula_units_Z 112
_cell_length_a 14.193037
_cell_length_b 23.581007
_cell_length_c 13.498761
_cell_angle_alpha 90.000000
_cell_angle_beta 90.000000
_cell_angle_gamma 90.000000
_cell_volume 4517.847739
_symmetry_space_group_name_H-M "F M M 2"
_symmetry_group_IT_number 42
_symmetry_cell_setting 'orthorhombic'
loop_
_space_group_symop_operation_xyz
x,y,z
-x,-y,z
-x,y,z
x,-y,z
x,1/2+y,1/2+z
-x,1/2-y,1/2+z
-x,1/2+y,1/2+z
x,1/2-y,1/2+z
1/2+x,y,1/2+z
1/2-x,-y,1/2+z
1/2-x,y,1/2+z
1/2+x,-y,1/2+z
1/2+x,1/2+y,z
1/2-x,1/2-y,z
1/2-x,1/2+y,z
1/2+x,1/2-y,z
loop_
_atom_site_type_symbol
_atom_site_label
_atom_site_fract_x
_atom_site_fract_y
_atom_site_fract_z
Si Si1 0.229717 0.935179 0.100840
Si Si2 0.393637 0.125916 0.003775
Si Si3 0.143156 0.743364 0.463744
Si Si4 0.605371 0.831449 0.279829
Si Si5 0.613395 0.390798 0.281682
Si Si6 0.886367 0.564659 0.399267
Si Si7 0.613747 0.224363 0.679255
O O1 0.169774 0.925530 0.199921
O O2 0.263637 0.000000 0.097588
O O3 0.318377 0.893947 0.084148
O O4 0.161232 0.926514 0.005853
O O5 0.500000 0.108051 0.027058
O O6 0.366080 0.099010 0.897035
O O7 0.394700 0.193745 0.985577
O O8 0.250000 0.750000 0.432198
O O9 0.095951 0.707191 0.378633
O O10 0.140479 0.710113 0.567536
O O11 0.500000 0.844764 0.241794
O O12 0.649012 0.889355 0.319656
O O13 0.653024 0.786342 0.206710
O O14 0.500000 0.397870 0.268731
O O15 0.636555 0.325187 0.255408
O O16 0.868069 0.500000 0.367785
O O17 0.000000 0.571957 0.408514
O O18 0.500000 0.229570 0.681382
#
# Coordination Sequence:
#
# PCOD9368668 Si02
#       7
#    16  16  16  16  16  16  16
#     4  11  24  43  67  99 135 178 235 300 363 426
#     4  11  24  45  70  98 141 191 239 295 366 437
#     4  12  23  37  60  94 135 175 217 280 349 417
#     4  10  19  35  59  89 126 169 216 266 329 408
#     4  10  21  42  72 104 138 180 236 299 360 431
#     4   9  18  35  61  94 135 179 224 282 350 417
#     4  10  20  36  61  91 126 168 216 271 337 412
#
# _framework density 24.790564
#
# number of rings (size 3 to 8) (size 9 to 14) (size 15 to 20)
#    0.000    1.571    1.429    4.286    0.000    4.571 
#    7.714    1.429    0.000    0.857    0.000    2.000 
#    0.000    0.000    0.000    0.000    0.000    0.000 
#
# Total GULP energy -156860.760001 kJ/mol
# GULP energy per Si atom -5602.170000 kJ/mol
# Density = 2.473414 g / cm^3
# Si number density = 24.790564 Si / 1000 Ang^3
#
#
#
# Elastic Constant Matrix: (Units=GPa)
#
#
# Indices 1 2 3 4 5 6 
#
# 1 96.9006 11.6778 9.7622 0.0000 0.0000 0.0000
# 2 11.6778 113.4932 14.6426 0.0000 0.0000 0.0000
# 3 9.7622 14.6426 123.2748 0.0000 0.0000 0.0000
# 4 0.0000 0.0000 0.0000 39.3062 0.0000 0.0000
# 5 0.0000 0.0000 0.0000 0.0000 24.0364 0.0000
# 6 0.0000 0.0000 0.0000 0.0000 0.0000 26.6283
#
#
#
# Elastic Compliance Matrix: (Units=1/GPa)
#
#
# Indices 1 2 3 4 5 6 
#
# 1 0.010511 -0.000989 -0.000715 0.000000 0.000000 0.000000
# 2 -0.000989 0.009041 -0.000996 0.000000 0.000000 0.000000
# 3 -0.000715 -0.000996 0.008287 0.000000 0.000000 0.000000
# 4 0.000000 0.000000 0.000000 0.025441 0.000000 0.000000
# 5 0.000000 0.000000 0.000000 0.000000 0.041604 0.000000
# 6 0.000000 0.000000 0.000000 0.000000 0.000000 0.037554
#
#
# Mechanical properties :
#
#
# Convention : Reuss Voigt Hill
#
# Bulk Modulus (GPa) = 44.56377 45.09263 44.82820
# Shear Modulus (GPa) = 34.40737 37.83322 36.12029
#
# Velocity S-wave (km/s) = 3.72952 3.91079 3.82123
# Velocity P-wave (km/s) = 6.04656 6.21460 6.13116
#
# Compressibility (1/GPa) = 0.02243975
#
# Stress axis : x y z
#
# Youngs Moduli (GPa) = 95.13751 110.60302 120.67346
#
# Poissons Ratio (x) = 0.10942 0.08627
# Poissons Ratio (y) = 0.09412 0.12014
# Poissons Ratio (z) = 0.06801 0.11011
#
# Static dielectric constant tensor:
#      x y z
#    x 1.956700 0.000000 0.000000 
#    y 0.000000 1.948600 0.000000 
#    z 0.000000 0.000000 1.943890 
# 
# From -- ./inp_files/14214.got.cif
#   From: 2010.05.17/outbox.cif.g08.bks.cpg/sg42_8_cif.got.tgz:14214.got - 2010.06.03 19:03:34.
