data_PCOD9368944
_publ_section_title
;
Structure prediction by ZEFSAII (Michael W. Deem and Ramdas Pophale) SiO2 
 PCOD9368944
Probable space group: F M M 2
;
_chemical_formula_sum "Si O2"
_cell_formula_units_Z 100
_cell_length_a 22.878181
_cell_length_b 10.063135
_cell_length_c 23.922159
_cell_angle_alpha 90.000000
_cell_angle_beta 90.000000
_cell_angle_gamma 90.000000
_cell_volume 5507.508335
_symmetry_space_group_name_H-M "F M M 2"
_symmetry_group_IT_number 42
_symmetry_cell_setting 'orthorhombic'
loop_
_space_group_symop_operation_xyz
x,y,z
-x,-y,z
-x,y,z
x,-y,z
x,1/2+y,1/2+z
-x,1/2-y,1/2+z
-x,1/2+y,1/2+z
x,1/2-y,1/2+z
1/2+x,y,1/2+z
1/2-x,-y,1/2+z
1/2-x,y,1/2+z
1/2+x,-y,1/2+z
1/2+x,1/2+y,z
1/2-x,1/2-y,z
1/2-x,1/2+y,z
1/2+x,1/2-y,z
loop_
_atom_site_type_symbol
_atom_site_label
_atom_site_fract_x
_atom_site_fract_y
_atom_site_fract_z
Si Si1 0.500000 0.851167 0.213200
Si Si2 0.500000 0.500000 0.862555
Si Si3 0.000000 0.861153 0.311418
Si Si4 0.400022 0.725394 0.862504
Si Si5 0.304995 0.843815 0.448087
Si Si6 0.194610 0.844432 0.082279
Si Si7 0.194629 0.154240 0.768232
Si Si8 0.376242 0.349141 0.653033
O O1 0.500000 0.751012 0.264112
O O2 0.442085 0.838578 0.176225
O O3 0.500000 0.000000 0.239747
O O4 0.448693 0.612778 0.864827
O O5 0.940980 0.849463 0.347675
O O6 0.000000 0.000000 0.280331
O O7 0.361307 0.718213 0.918037
O O8 0.354639 0.696839 0.812511
O O9 0.250000 0.750000 0.433231
O O10 0.311034 0.842895 0.515164
O O11 0.297912 0.000000 0.431093
O O12 0.250000 0.750000 0.096617
O O13 0.140908 0.767985 0.111074
O O14 0.201197 0.000000 0.099559
O O15 0.250000 0.250000 0.772433
O O16 0.165731 0.162510 0.706963
O O17 0.210494 0.000000 0.778383
O O18 0.368708 0.500000 0.629786
#
# Coordination Sequence:
#
# PCOD9368944 Si02
#       8
#     8   4   8  16  16  16  16  16
#     4  10  21  39  65  85 113 159 205 245 290 363
#     4  10  20  34  66  82 106 156 210 238 276 350
#     4  11  25  38  57  88 122 157 197 245 300 349
#     4  11  21  37  61  84 116 155 201 240 295 354
#     4  10  21  38  62  90 118 156 201 247 305 359
#     4  10  21  38  60  85 118 155 198 245 300 360
#     4  11  22  35  55  87 120 152 193 242 300 355
#     4  10  21  37  60  87 115 155 206 242 296 359
#
# _framework density 18.157031
#
# number of rings (size 3 to 8) (size 9 to 14) (size 15 to 20)
#    0.000    1.600    3.200    1.440    2.240    4.480 
#    0.000    1.600    0.000    0.960    0.000    0.000 
#    0.000    0.000    0.000    0.000    0.000    0.000 
#
# Total GULP energy -139224.931440 kJ/mol
# GULP energy per Si atom -5568.997258 kJ/mol
# Density = 1.811570 g / cm^3
# Si number density = 18.157031 Si / 1000 Ang^3
#
#
#
# Elastic Constant Matrix: (Units=GPa)
#
#
# Indices 1 2 3 4 5 6 
#
# 1 147.4866 75.1344 31.3200 0.0000 0.0000 0.0000
# 2 75.1344 140.2110 40.5830 0.0000 0.0000 0.0000
# 3 31.3200 40.5830 34.8650 0.0000 0.0000 0.0000
# 4 0.0000 0.0000 0.0000 14.3233 0.0000 0.0000
# 5 0.0000 0.0000 0.0000 0.0000 23.0709 0.0000
# 6 0.0000 0.0000 0.0000 0.0000 0.0000 395.5169
#
#
#
# Elastic Compliance Matrix: (Units=1/GPa)
#
#
# Indices 1 2 3 4 5 6 
#
# 1 0.009684 -0.004029 -0.004010 0.000000 0.000000 0.000000
# 2 -0.004029 0.012432 -0.010852 0.000000 0.000000 0.000000
# 3 -0.004010 -0.010852 0.044916 0.000000 0.000000 0.000000
# 4 0.000000 0.000000 0.000000 0.069816 0.000000 0.000000
# 5 0.000000 0.000000 0.000000 0.000000 0.043345 0.000000
# 6 0.000000 0.000000 0.000000 0.000000 0.000000 0.002528
#
#
# Mechanical properties :
#
#
# Convention : Reuss Voigt Hill
#
# Bulk Modulus (GPa) = 34.18700 68.51526 51.35113
# Shear Modulus (GPa) = 21.71531 98.28392 59.99961
#
# Velocity S-wave (km/s) = 3.46204 7.36529 5.75470
# Velocity P-wave (km/s) = 5.90342 10.49508 8.51461
#
# Compressibility (1/GPa) = 0.02925089
#
# Stress axis : x y z
#
# Youngs Moduli (GPa) = 103.26069 80.43809 22.26395
#
# Poissons Ratio (x) = 0.32407 0.08928
# Poissons Ratio (y) = 0.41601 0.24160
# Poissons Ratio (z) = 0.41408 0.87289
#
# Static dielectric constant tensor:
#      x y z
#    x 1.610040 0.000000 0.000000 
#    y 0.000000 1.622180 0.000000 
#    z 0.000000 0.000000 1.635020 
# 
# From -- ./inp_files/31585.got.cif
#   From: 2010.05.17/outbox.cif.g08.bks.cpg/sg42_16_cif.got.tgz:31585.got - 2010.06.03 19:03:34.
