data_PCOD9368924
_publ_section_title
;
Structure prediction by ZEFSAII (Michael W. Deem and Ramdas Pophale) SiO2 
 PCOD9368924
Probable space group: F M M 2
;
_chemical_formula_sum "Si O2"
_cell_formula_units_Z 128
_cell_length_a 17.893198
_cell_length_b 16.954813
_cell_length_c 22.690382
_cell_angle_alpha 90.000000
_cell_angle_beta 90.000000
_cell_angle_gamma 90.000000
_cell_volume 6883.713383
_symmetry_space_group_name_H-M "F M M 2"
_symmetry_group_IT_number 42
_symmetry_cell_setting 'orthorhombic'
loop_
_space_group_symop_operation_xyz
x,y,z
-x,-y,z
-x,y,z
x,-y,z
x,1/2+y,1/2+z
-x,1/2-y,1/2+z
-x,1/2+y,1/2+z
x,1/2-y,1/2+z
1/2+x,y,1/2+z
1/2-x,-y,1/2+z
1/2-x,y,1/2+z
1/2+x,-y,1/2+z
1/2+x,1/2+y,z
1/2-x,1/2-y,z
1/2-x,1/2+y,z
1/2+x,1/2-y,z
loop_
_atom_site_type_symbol
_atom_site_label
_atom_site_fract_x
_atom_site_fract_y
_atom_site_fract_z
Si Si1 0.160915 0.745272 0.378090
Si Si2 0.660196 0.254135 0.006303
Si Si3 0.847887 0.588856 0.727591
Si Si4 0.796649 0.329953 0.260603
Si Si5 0.917010 0.366706 0.165233
Si Si6 0.910772 0.413365 0.034299
Si Si7 0.414939 0.686271 0.122220
Si Si8 0.914556 0.410740 0.848593
O O1 0.250000 0.750000 0.383002
O O2 0.136433 0.714016 0.441838
O O3 0.154945 0.693966 0.318299
O O4 0.128018 0.833122 0.370666
O O5 0.750000 0.250000 0.012783
O O6 0.630350 0.163845 0.010355
O O7 0.624549 0.304904 0.058962
O O8 0.842587 0.500000 0.706769
O O9 0.772755 0.610481 0.763764
O O10 0.866608 0.641290 0.671171
O O11 0.911201 0.595953 0.777470
O O12 0.750000 0.250000 0.243332
O O13 0.852593 0.366404 0.213250
O O14 0.899285 0.412086 0.105001
O O15 0.920861 0.275669 0.145249
O O16 0.000000 0.390545 0.186221
O O17 0.888423 0.500000 0.011201
O O18 0.000000 0.404014 0.024902
O O19 0.500000 0.654677 0.117985
O O20 0.886155 0.500000 0.862488
O O21 0.000000 0.406705 0.869299
#
# Coordination Sequence:
#
# PCOD9368924 Si02
#       8
#    16  16  16  16  16  16  16  16
#     4  10  20  38  54  77 112 158 197 235 276 332
#     4  10  22  36  56  78 114 155 199 235 272 331
#     4  11  22  35  57  86 113 144 183 233 297 351
#     4  11  19  34  56  78 112 148 191 235 280 335
#     4   9  18  31  52  81 111 147 182 225 284 342
#     4   9  19  36  57  83 116 150 186 236 295 343
#     4  10  20  35  54  80 114 148 184 228 278 339
#     4  10  20  34  56  88 120 146 181 237 299 350
#
# _framework density 18.594615000000001
#
# number of rings (size 3 to 8) (size 9 to 14) (size 15 to 20)
#    0.000    2.000    3.750    1.500    3.500    4.250 
#    0.000    1.250    0.000    1.500    0.000    0.000 
#    0.000    2.500    0.000    0.000    0.000    0.000 
#
# Total GULP energy -178167.866849 kJ/mol
# GULP energy per Si atom -5567.745839 kJ/mol
# Density = 1.855229 g / cm^3
# Si number density = 18.594615 Si / 1000 Ang^3
#
#
#
# Elastic Constant Matrix: (Units=GPa)
#
#
# Indices 1 2 3 4 5 6 
#
# 1 70.3178 19.0073 34.6330 0.0000 0.0000 0.0000
# 2 19.0073 76.2137 27.9757 0.0000 0.0000 0.0000
# 3 34.6330 27.9757 91.2143 0.0000 0.0000 0.0000
# 4 0.0000 0.0000 0.0000 10.6484 0.0000 0.0000
# 5 0.0000 0.0000 0.0000 0.0000 104.4527 0.0000
# 6 0.0000 0.0000 0.0000 0.0000 0.0000 18.1829
#
#
#
# Elastic Compliance Matrix: (Units=1/GPa)
#
#
# Indices 1 2 3 4 5 6 
#
# 1 0.017816 -0.002209 -0.006087 0.000000 0.000000 0.000000
# 2 -0.002209 0.015059 -0.003780 0.000000 0.000000 0.000000
# 3 -0.006087 -0.003780 0.014434 0.000000 0.000000 0.000000
# 4 0.000000 0.000000 0.000000 0.093911 0.000000 0.000000
# 5 0.000000 0.000000 0.000000 0.000000 0.009574 0.000000
# 6 0.000000 0.000000 0.000000 0.000000 0.000000 0.054997
#
#
# Mechanical properties :
#
#
# Convention : Reuss Voigt Hill
#
# Bulk Modulus (GPa) = 43.18302 44.55306 43.86804
# Shear Modulus (GPa) = 21.03828 37.06546 29.05187
#
# Velocity S-wave (km/s) = 3.36730 4.46953 3.95698
# Velocity P-wave (km/s) = 6.19614 7.11673 6.67233
#
# Compressibility (1/GPa) = 0.02315725
#
# Stress axis : x y z
#
# Youngs Moduli (GPa) = 56.12848 66.40355 69.28195
#
# Poissons Ratio (x) = 0.14668 0.42173
# Poissons Ratio (y) = 0.12398 0.26189
# Poissons Ratio (z) = 0.34166 0.25101
#
# Static dielectric constant tensor:
#      x y z
#    x 1.652720 0.000000 0.000000 
#    y 0.000000 1.657200 0.000000 
#    z 0.000000 0.000000 1.702650 
# 
# From -- ./inp_files/30023.got.cif
#   From: 2010.05.17/outbox.cif.g08.bks.cpg/sg42_16_cif.got.tgz:30023.got - 2010.06.03 19:03:34.
