data_PCOD9368650
_publ_section_title
;
Structure prediction by ZEFSAII (Michael W. Deem and Ramdas Pophale) SiO2 
 PCOD9368650
Probable space group: F M M 2
;
_chemical_formula_sum "Si O2"
_cell_formula_units_Z 96
_cell_length_a 24.365306
_cell_length_b 8.484241
_cell_length_c 26.006977
_cell_angle_alpha 90.000000
_cell_angle_beta 90.000000
_cell_angle_gamma 90.000000
_cell_volume 5376.191625
_symmetry_space_group_name_H-M "F M M 2"
_symmetry_group_IT_number 42
_symmetry_cell_setting 'orthorhombic'
loop_
_space_group_symop_operation_xyz
x,y,z
-x,-y,z
-x,y,z
x,-y,z
x,1/2+y,1/2+z
-x,1/2-y,1/2+z
-x,1/2+y,1/2+z
x,1/2-y,1/2+z
1/2+x,y,1/2+z
1/2-x,-y,1/2+z
1/2-x,y,1/2+z
1/2+x,-y,1/2+z
1/2+x,1/2+y,z
1/2-x,1/2-y,z
1/2-x,1/2+y,z
1/2+x,1/2-y,z
loop_
_atom_site_type_symbol
_atom_site_label
_atom_site_fract_x
_atom_site_fract_y
_atom_site_fract_z
Si Si1 0.381125 0.689256 0.427050
Si Si2 0.812030 0.812033 0.023979
Si Si3 0.689452 0.309823 0.716372
Si Si4 0.189178 0.689110 0.334144
Si Si5 0.500000 0.692214 0.583467
Si Si6 0.000000 0.691966 0.963921
Si Si7 0.118506 0.808942 0.620680
O O1 0.380095 0.500000 0.428462
O O2 0.344054 0.751857 0.473761
O O3 0.355102 0.747140 0.373987
O O4 0.443763 0.742623 0.436770
O O5 0.750000 0.750000 0.023790
O O6 0.843970 0.749799 0.073982
O O7 0.811541 0.000000 0.024205
O O8 0.690573 0.500000 0.716085
O O9 0.750000 0.250000 0.701821
O O10 0.678469 0.259386 0.775154
O O11 0.645046 0.257089 0.674541
O O12 0.189603 0.500000 0.335912
O O13 0.250000 0.750000 0.348334
O O14 0.500000 0.500000 0.583404
O O15 0.500000 0.741976 0.523699
O O16 0.443915 0.743542 0.610731
O O17 0.000000 0.500000 0.964180
O O18 0.118882 0.000000 0.619688
#
# Coordination Sequence:
#
# PCOD9368650 Si02
#       7
#    16  16  16  16   8   8  16
#     4  11  21  37  58  80 106 141 184 224 266 321
#     4  12  24  36  52  79 111 142 174 221 276 326
#     4   9  19  34  55  80 109 143 180 222 269 322
#     4  10  20  36  55  81 112 144 181 223 274 323
#     4   9  16  32  57  80 106 144 184 220 261 318
#     4   9  18  34  57  80 104 142 184 220 263 322
#     4  10  19  35  57  81 108 143 184 222 263 318
#
# _framework density 17.856506
#
# number of rings (size 3 to 8) (size 9 to 14) (size 15 to 20)
#    0.000    1.833    1.667    3.500    0.000    2.667 
#    0.000    3.750    0.000    2.000    0.000    0.000 
#    0.000    0.000    0.000    0.000    0.000    0.000 
#
# Total GULP energy -134029.644654 kJ/mol
# GULP energy per Si atom -5584.568527 kJ/mol
# Density = 1.781586 g / cm^3
# Si number density = 17.856506 Si / 1000 Ang^3
#
#
#
# Elastic Constant Matrix: (Units=GPa)
#
#
# Indices 1 2 3 4 5 6 
#
# 1 202.5309 30.3950 111.4414 0.0000 0.0000 0.0000
# 2 30.3950 34.9422 22.3545 0.0000 0.0000 0.0000
# 3 111.4414 22.3545 129.5750 0.0000 0.0000 0.0000
# 4 0.0000 0.0000 0.0000 22.4300 0.0000 0.0000
# 5 0.0000 0.0000 0.0000 0.0000 18.4668 0.0000
# 6 0.0000 0.0000 0.0000 0.0000 0.0000 20.0744
#
#
#
# Elastic Compliance Matrix: (Units=1/GPa)
#
#
# Indices 1 2 3 4 5 6 
#
# 1 0.009740 -0.003499 -0.007773 0.000000 0.000000 0.000000
# 2 -0.003499 0.033427 -0.002757 0.000000 0.000000 0.000000
# 3 -0.007773 -0.002757 0.014878 0.000000 0.000000 0.000000
# 4 0.000000 0.000000 0.000000 0.044583 0.000000 0.000000
# 5 0.000000 0.000000 0.000000 0.000000 0.054151 0.000000
# 6 0.000000 0.000000 0.000000 0.000000 0.000000 0.049815
#
#
# Mechanical properties :
#
#
# Convention : Reuss Voigt Hill
#
# Bulk Modulus (GPa) = 33.34927 77.26999 55.30963
# Shear Modulus (GPa) = 20.43753 25.71806 23.07779
#
# Velocity S-wave (km/s) = 3.38678 3.79920 3.59890
# Velocity P-wave (km/s) = 5.83185 7.91277 6.95062
#
# Compressibility (1/GPa) = 0.02998567
#
# Stress axis : x y z
#
# Youngs Moduli (GPa) = 102.67235 29.91628 67.21171
#
# Poissons Ratio (x) = 0.10469 0.52243
# Poissons Ratio (y) = 0.35929 0.18531
# Poissons Ratio (z) = 0.79807 0.08248
#
# Static dielectric constant tensor:
#      x y z
#    x 1.591170 0.000000 0.000000 
#    y 0.000000 1.608450 0.000000 
#    z 0.000000 0.000000 1.599170 
# 
# From -- ./inp_files/28126.got.cif
#   From: 2010.05.17/outbox.cif.g08.bks.cpg/sg42_15_cif.got.tgz:28126.got - 2010.06.03 19:03:34.
