data_PCOD9368690
_publ_section_title
;
Structure prediction by ZEFSAII (Michael W. Deem and Ramdas Pophale) SiO2 
 PCOD9368690
Probable space group: F M M 2
;
_chemical_formula_sum "Si O2"
_cell_formula_units_Z 96
_cell_length_a 21.844484
_cell_length_b 20.087513
_cell_length_c 12.490762
_cell_angle_alpha 90.000000
_cell_angle_beta 90.000000
_cell_angle_gamma 90.000000
_cell_volume 5480.963307
_symmetry_space_group_name_H-M "F M M 2"
_symmetry_group_IT_number 42
_symmetry_cell_setting 'orthorhombic'
loop_
_space_group_symop_operation_xyz
x,y,z
-x,-y,z
-x,y,z
x,-y,z
x,1/2+y,1/2+z
-x,1/2-y,1/2+z
-x,1/2+y,1/2+z
x,1/2-y,1/2+z
1/2+x,y,1/2+z
1/2-x,-y,1/2+z
1/2-x,y,1/2+z
1/2+x,-y,1/2+z
1/2+x,1/2+y,z
1/2-x,1/2-y,z
1/2-x,1/2+y,z
1/2+x,1/2-y,z
loop_
_atom_site_type_symbol
_atom_site_label
_atom_site_fract_x
_atom_site_fract_y
_atom_site_fract_z
Si Si1 0.750000 0.250000 0.747421
Si Si2 0.868094 0.500000 0.221092
Si Si3 0.154654 0.500000 0.468006
Si Si4 0.207657 0.000000 0.499064
Si Si5 0.429395 0.859567 0.257579
Si Si6 0.863318 0.274940 0.093993
Si Si7 0.283350 0.853817 0.926674
Si Si8 0.860173 0.353829 0.475124
O O1 0.806315 0.228581 0.674741
O O2 0.726996 0.187349 0.817977
O O3 0.833811 0.500000 0.337819
O O4 0.908424 0.433660 0.225290
O O5 0.828192 0.500000 0.112420
O O6 0.220101 0.500000 0.524590
O O7 0.122358 0.569288 0.495189
O O8 0.198051 0.931630 0.432346
O O9 0.500000 0.858265 0.289288
O O10 0.415952 0.813460 0.156019
O O11 0.386858 0.838400 0.357619
O O12 0.834304 0.314256 0.993773
O O13 0.882217 0.201665 0.056716
O O14 0.214239 0.850304 0.975897
#
# Coordination Sequence:
#
# PCOD9368690 Si02
#       8
#     8   8   8   8  16  16  16  16
#     4  12  20  34  54  80 116 152 184 226 294 352
#     4  10  19  38  58  76 115 153 189 232 286 348
#     4   8  20  33  51  82 113 144 184 234 289 331
#     4  10  20  31  53  82 114 145 182 232 285 333
#     4  11  23  37  57  83 114 152 194 236 278 342
#     4  12  20  34  58  81 114 151 188 230 291 344
#     4  11  19  33  52  83 112 145 184 233 285 338
#     4  10  19  36  54  80 111 148 188 238 285 331
#
# _framework density 17.515169
#
# number of rings (size 3 to 8) (size 9 to 14) (size 15 to 20)
#    0.000    1.333    6.667    0.250    0.000    0.667 
#    0.000    0.000    0.000    0.000    0.000    0.000 
#    0.000    0.000    0.000    0.000    0.000    0.000 
#
# Total GULP energy -133752.606089 kJ/mol
# GULP energy per Si atom -5573.025254 kJ/mol
# Density = 1.747530 g / cm^3
# Si number density = 17.515169 Si / 1000 Ang^3
#
#
#
# Elastic Constant Matrix: (Units=GPa)
#
#
# Indices 1 2 3 4 5 6 
#
# 1 41.6503 8.3710 9.7341 0.0000 0.0000 0.0000
# 2 8.3710 113.6855 43.4983 0.0000 0.0000 0.0000
# 3 9.7341 43.4983 54.4896 0.0000 0.0000 0.0000
# 4 0.0000 0.0000 0.0000 22.3065 0.0000 0.0000
# 5 0.0000 0.0000 0.0000 0.0000 13.1380 0.0000
# 6 0.0000 0.0000 0.0000 0.0000 0.0000 7.0044
#
#
#
# Elastic Compliance Matrix: (Units=1/GPa)
#
#
# Indices 1 2 3 4 5 6 
#
# 1 0.025058 -0.000191 -0.004324 0.000000 0.000000 0.000000
# 2 -0.000191 0.012666 -0.010077 0.000000 0.000000 0.000000
# 3 -0.004324 -0.010077 0.027169 0.000000 0.000000 0.000000
# 4 0.000000 0.000000 0.000000 0.044830 0.000000 0.000000
# 5 0.000000 0.000000 0.000000 0.000000 0.076115 0.000000
# 6 0.000000 0.000000 0.000000 0.000000 0.000000 0.142767
#
#
# Mechanical properties :
#
#
# Convention : Reuss Voigt Hill
#
# Bulk Modulus (GPa) = 28.00378 37.00358 32.50368
# Shear Modulus (GPa) = 13.52478 18.37126 15.94802
#
# Velocity S-wave (km/s) = 2.78182 3.24215 3.02077
# Velocity P-wave (km/s) = 5.13235 5.93193 5.54657
#
# Compressibility (1/GPa) = 0.03570946
#
# Stress axis : x y z
#
# Youngs Moduli (GPa) = 39.90681 78.95244 36.80675
#
# Poissons Ratio (x) = 0.01504 0.15917
# Poissons Ratio (y) = 0.00760 0.37090
# Poissons Ratio (z) = 0.17257 0.79560
#
# Static dielectric constant tensor:
#      x y z
#    x 1.557100 0.000000 0.000000 
#    y 0.000000 1.647560 0.000000 
#    z 0.000000 0.000000 1.601150 
# 
# From -- ./inp_files/9575.got.cif
#   From: 2010.05.17/outbox.cif.g08.bks.cpg/sg42_5_cif.got.tgz:9575.got - 2010.06.03 19:03:34.
