data_PCOD9368418
_publ_section_title
;
Structure prediction by ZEFSAII (Michael W. Deem and Ramdas Pophale) SiO2 
 PCOD9368418
Probable space group: F M M 2
;
_chemical_formula_sum "Si O2"
_cell_formula_units_Z 96
_cell_length_a 7.830122
_cell_length_b 19.073789
_cell_length_c 32.286120
_cell_angle_alpha 90.000000
_cell_angle_beta 90.000000
_cell_angle_gamma 90.000000
_cell_volume 4821.935085
_symmetry_space_group_name_H-M "F M M 2"
_symmetry_group_IT_number 42
_symmetry_cell_setting 'orthorhombic'
loop_
_space_group_symop_operation_xyz
x,y,z
-x,-y,z
-x,y,z
x,-y,z
x,1/2+y,1/2+z
-x,1/2-y,1/2+z
-x,1/2+y,1/2+z
x,1/2-y,1/2+z
1/2+x,y,1/2+z
1/2-x,-y,1/2+z
1/2-x,y,1/2+z
1/2+x,-y,1/2+z
1/2+x,1/2+y,z
1/2-x,1/2-y,z
1/2-x,1/2+y,z
1/2+x,1/2-y,z
loop_
_atom_site_type_symbol
_atom_site_label
_atom_site_fract_x
_atom_site_fract_y
_atom_site_fract_z
Si Si1 0.708503 0.581277 0.757980
Si Si2 0.702056 0.668175 0.088025
Si Si3 0.202641 0.168616 0.680312
Si Si4 0.291473 0.581459 0.850396
Si Si5 0.790371 0.081043 0.009528
Si Si6 0.205637 0.331602 0.429312
O O1 0.500000 0.584200 0.757918
O O2 0.755443 0.500000 0.752818
O O3 0.773672 0.626211 0.719429
O O4 0.763315 0.603629 0.804151
O O5 0.500000 0.665456 0.084834
O O6 0.750000 0.750000 0.083371
O O7 0.747136 0.644066 0.134387
O O8 0.771249 0.620100 0.051090
O O9 0.250000 0.250000 0.683518
O O10 0.000000 0.163336 0.682211
O O11 0.500000 0.582239 0.850616
O O12 0.242023 0.500000 0.856997
O O13 0.231331 0.631310 0.887242
O O14 0.000000 0.081194 0.009651
O O15 0.737436 0.000000 0.007662
O O16 0.734645 0.125168 0.969445
O O17 0.250000 0.250000 0.431628
O O18 0.000000 0.336720 0.428965
#
# Coordination Sequence:
#
# PCOD9368418 Si02
#       6
#    16  16  16  16  16  16
#     4   8  15  28  46  69  95 122 155 196 236 271
#     4  10  19  32  50  69  93 124 156 193 234 276
#     4  10  19  31  48  69  95 125 156 192 233 277
#     4   8  14  27  48  71  93 121 159 196 228 269
#     4   9  18  32  50  72  95 121 156 195 232 272
#     4  10  19  31  50  74  98 124 154 190 231 276
#
# _framework density 19.909020000000002
#
# number of rings (size 3 to 8) (size 9 to 14) (size 15 to 20)
#    0.000    2.833    0.000    4.000    0.000    3.333 
#    0.000    0.833    0.000    8.000    0.000    4.667 
#    0.000    0.000    0.000    0.000    0.000    0.000 
#
# Total GULP energy -133877.573427 kJ/mol
# GULP energy per Si atom -5578.232226 kJ/mol
# Density = 1.986371 g / cm^3
# Si number density = 19.909020 Si / 1000 Ang^3
#
#
#
# Elastic Constant Matrix: (Units=GPa)
#
#
# Indices 1 2 3 4 5 6 
#
# 1 25.5283 3.4272 11.3314 0.0000 0.0000 0.0000
# 2 3.4272 128.9730 137.2036 0.0000 0.0000 0.0000
# 3 11.3314 137.2036 247.1814 0.0000 0.0000 0.0000
# 4 0.0000 0.0000 0.0000 45.6448 0.0000 0.0000
# 5 0.0000 0.0000 0.0000 0.0000 1.8959 0.0000
# 6 0.0000 0.0000 0.0000 0.0000 0.0000 14.7009
#
#
#
# Elastic Compliance Matrix: (Units=1/GPa)
#
#
# Indices 1 2 3 4 5 6 
#
# 1 0.040236 0.002181 -0.003055 0.000000 0.000000 0.000000
# 2 0.002181 0.019052 -0.010675 0.000000 0.000000 0.000000
# 3 -0.003055 -0.010675 0.010111 0.000000 0.000000 0.000000
# 4 0.000000 0.000000 0.000000 0.021908 0.000000 0.000000
# 5 0.000000 0.000000 0.000000 0.000000 0.527460 0.000000
# 6 0.000000 0.000000 0.000000 0.000000 0.000000 0.068023
#
#
# Mechanical properties :
#
#
# Convention : Reuss Voigt Hill
#
# Bulk Modulus (GPa) = 21.59833 78.40079 49.99956
# Shear Modulus (GPa) = 6.89349 29.09635 17.99492
#
# Velocity S-wave (km/s) = 1.86280 3.82706 3.00968
# Velocity P-wave (km/s) = 3.93684 7.68072 6.10296
#
# Compressibility (1/GPa) = 0.04629988
#
# Stress axis : x y z
#
# Youngs Moduli (GPa) = 24.85365 52.48748 98.89997
#
# Poissons Ratio (x) = -0.11446 0.30214
# Poissons Ratio (y) = -0.05420 1.05579
# Poissons Ratio (z) = 0.07593 0.56032
#
# Static dielectric constant tensor:
#      x y z
#    x 1.740580 0.000000 0.000000 
#    y 0.000000 1.676360 0.000000 
#    z 0.000000 0.000000 1.729920 
# 
# From -- ./inp_files/31428.got.cif
#   From: 2010.05.17/outbox.cif.g08.bks.cpg/sg42_16_cif.got.tgz:31428.got - 2010.06.03 19:03:34.
