data_PCOD9368343
_publ_section_title
;
Structure prediction by ZEFSAII (Michael W. Deem and Ramdas Pophale) SiO2 
 PCOD9368343
Probable space group: F M M 2
;
_chemical_formula_sum "Si O2"
_cell_formula_units_Z 116
_cell_length_a 15.574497
_cell_length_b 17.829548
_cell_length_c 22.542855
_cell_angle_alpha 90.000000
_cell_angle_beta 90.000000
_cell_angle_gamma 90.000000
_cell_volume 6259.840685
_symmetry_space_group_name_H-M "F M M 2"
_symmetry_group_IT_number 42
_symmetry_cell_setting 'orthorhombic'
loop_
_space_group_symop_operation_xyz
x,y,z
-x,-y,z
-x,y,z
x,-y,z
x,1/2+y,1/2+z
-x,1/2-y,1/2+z
-x,1/2+y,1/2+z
x,1/2-y,1/2+z
1/2+x,y,1/2+z
1/2-x,-y,1/2+z
1/2-x,y,1/2+z
1/2+x,-y,1/2+z
1/2+x,1/2+y,z
1/2-x,1/2-y,z
1/2-x,1/2+y,z
1/2+x,1/2-y,z
loop_
_atom_site_type_symbol
_atom_site_label
_atom_site_fract_x
_atom_site_fract_y
_atom_site_fract_z
Si Si1 0.097934 0.817212 0.708330
Si Si2 0.731258 0.418020 0.642767
Si Si3 0.400572 0.911071 0.329800
Si Si4 0.099149 0.719081 0.533069
Si Si5 0.783045 0.165363 0.927959
Si Si6 0.000000 0.500000 0.021881
Si Si7 0.097081 0.154827 0.166560
Si Si8 0.338252 0.612887 0.519875
O O1 0.166856 0.855155 0.666019
O O2 0.104700 0.860802 0.770364
O O3 0.111457 0.727625 0.708343
O O4 0.000000 0.828099 0.685606
O O5 0.699362 0.500000 0.661241
O O6 0.824967 0.402790 0.669433
O O7 0.726199 0.414334 0.571492
O O8 0.500000 0.904871 0.351075
O O9 0.333634 0.876213 0.376053
O O10 0.384810 0.000000 0.318779
O O11 0.152647 0.675368 0.483640
O O12 0.102130 0.685140 0.598880
O O13 0.139211 0.801402 0.534658
O O14 0.000000 0.723189 0.514975
O O15 0.750000 0.250000 0.912112
O O16 0.705477 0.116446 0.955273
O O17 0.076136 0.435551 0.022182
O O18 0.000000 0.126540 0.176668
#
# Coordination Sequence:
#
# PCOD9368343 Si02
#       8
#    16  16  16  16  16   4  16  16
#     4  10  22  38  62  89 115 152 203 247 301 362
#     4  12  23  34  55  87 124 156 195 247 304 363
#     4  10  22  42  63  89 122 157 197 256 311 356
#     4  10  18  34  56  81 115 155 201 242 294 348
#     4  10  22  37  60  86 117 158 208 249 288 365
#     4  12  24  36  52  84 130 164 194 256 320 366
#     4  10  21  37  59  82 115 160 201 248 294 358
#     4  11  22  34  52  86 121 160 198 243 303 365
#
# _framework density 18.530823000000002
#
# number of rings (size 3 to 8) (size 9 to 14) (size 15 to 20)
#    0.000    1.517    4.138    1.241    1.931    2.207 
#    0.000    0.000    0.000    0.000    1.793    0.000 
#    0.000    0.000    0.000    0.000    0.000    0.000 
#
# Total GULP energy -161521.646463 kJ/mol
# GULP energy per Si atom -5569.711947 kJ/mol
# Density = 1.848865 g / cm^3
# Si number density = 18.530823 Si / 1000 Ang^3
#
#
#
# Elastic Constant Matrix: (Units=GPa)
#
#
# Indices 1 2 3 4 5 6 
#
# 1 78.3392 24.9211 26.4300 0.0000 0.0000 0.0000
# 2 24.9211 38.0003 15.9070 0.0000 0.0000 0.0000
# 3 26.4300 15.9070 49.0761 0.0000 0.0000 0.0000
# 4 0.0000 0.0000 0.0000 253.9299 0.0000 0.0000
# 5 0.0000 0.0000 0.0000 0.0000 27.7870 0.0000
# 6 0.0000 0.0000 0.0000 0.0000 0.0000 -94.4243
#
#
#
# Elastic Compliance Matrix: (Units=1/GPa)
#
#
# Indices 1 2 3 4 5 6 
#
# 1 0.017869 -0.008898 -0.006740 0.000000 0.000000 0.000000
# 2 -0.008898 0.034877 -0.006513 0.000000 0.000000 0.000000
# 3 -0.006740 -0.006513 0.026117 0.000000 0.000000 0.000000
# 4 0.000000 0.000000 0.000000 0.003938 0.000000 0.000000
# 5 0.000000 0.000000 0.000000 0.000000 0.035988 0.000000
# 6 0.000000 0.000000 0.000000 0.000000 0.000000 -0.010590
#
#
# Mechanical properties :
#
#
# Convention : Reuss Voigt Hill
#
# Bulk Modulus (GPa) = 28.93238 33.32578 31.12908
# Shear Modulus (GPa) = 30.48398 44.00235 37.24317
#
# Velocity S-wave (km/s) = 4.06031 4.87822 4.48794
# Velocity P-wave (km/s) = 6.13421 7.05354 6.60988
#
# Compressibility (1/GPa) = 0.03456336
#
# Stress axis : x y z
#
# Youngs Moduli (GPa) = 55.96187 28.67205 38.28906
#
# Poissons Ratio (x) = 0.25512 0.25805
# Poissons Ratio (y) = 0.49794 0.24937
# Poissons Ratio (z) = 0.37716 0.18674
#
# Static dielectric constant tensor:
#      x y z
#    x 1.657360 0.000000 0.000000 
#    y 0.000000 1.630090 0.000000 
#    z 0.000000 0.000000 1.637240 
# 
# From -- ./inp_files/29623.got.cif
#   From: 2010.05.17/outbox.cif.g08.bks.cpg/sg42_15_cif.got.tgz:29623.got - 2010.06.03 19:03:34.
