data_PCOD9368899
_publ_section_title
;
Structure prediction by ZEFSAII (Michael W. Deem and Ramdas Pophale) SiO2 
 PCOD9368899
Probable space group: F M M 2
;
_chemical_formula_sum "Si O2"
_cell_formula_units_Z 96
_cell_length_a 18.481465
_cell_length_b 8.881259
_cell_length_c 31.953813
_cell_angle_alpha 90.000000
_cell_angle_beta 90.000000
_cell_angle_gamma 90.000000
_cell_volume 5244.856603
_symmetry_space_group_name_H-M "F M M 2"
_symmetry_group_IT_number 42
_symmetry_cell_setting 'orthorhombic'
loop_
_space_group_symop_operation_xyz
x,y,z
-x,-y,z
-x,y,z
x,-y,z
x,1/2+y,1/2+z
-x,1/2-y,1/2+z
-x,1/2+y,1/2+z
x,1/2-y,1/2+z
1/2+x,y,1/2+z
1/2-x,-y,1/2+z
1/2-x,y,1/2+z
1/2+x,-y,1/2+z
1/2+x,1/2+y,z
1/2-x,1/2-y,z
1/2-x,1/2+y,z
1/2+x,1/2-y,z
loop_
_atom_site_type_symbol
_atom_site_label
_atom_site_fract_x
_atom_site_fract_y
_atom_site_fract_z
Si Si1 0.170503 0.680964 0.232110
Si Si2 0.083509 0.816555 0.814455
Si Si3 0.670537 0.180223 0.570335
Si Si4 0.414344 0.678778 0.493139
Si Si5 0.087988 0.673972 0.406423
Si Si6 0.584734 0.180984 0.654760
O O1 0.174410 0.500000 0.231396
O O2 0.250000 0.750000 0.228792
O O3 0.132660 0.729075 0.275634
O O4 0.122498 0.738065 0.193552
O O5 0.110417 0.768335 0.860505
O O6 0.000000 0.767931 0.808322
O O7 0.082441 0.000000 0.815737
O O8 0.750000 0.250000 0.573105
O O9 0.629998 0.239710 0.529266
O O10 0.624676 0.221746 0.611602
O O11 0.675527 0.000000 0.568614
O O12 0.500000 0.715480 0.497332
O O13 0.406123 0.500000 0.496925
O O14 0.390474 0.732144 0.446964
O O15 0.110715 0.500000 0.411610
O O16 0.000000 0.674358 0.404834
O O17 0.500000 0.218794 0.652487
O O18 0.591099 0.000000 0.660044
#
# Coordination Sequence:
#
# PCOD9368899 Si02
#       6
#    16  16  16  16  16  16
#     4  11  22  36  55  80 112 148 184 222 268 320
#     4   8  15  30  53  79 104 136 183 231 271 318
#     4  11  23  39  58  80 109 144 180 219 268 324
#     4  10  20  34  54  82 113 143 181 227 270 317
#     4   8  14  28  52  78 104 138 181 227 273 319
#     4  10  22  40  61  85 110 137 175 222 269 321
#
# _framework density 18.303647000000002
#
# number of rings (size 3 to 8) (size 9 to 14) (size 15 to 20)
#    0.000    2.333    0.000    4.000    0.000    5.333 
#    0.000    2.500    0.000    6.000    0.000    0.000 
#    0.000    0.000    0.000    0.000    0.000    0.000 
#
# Total GULP energy -133958.378563 kJ/mol
# GULP energy per Si atom -5581.599107 kJ/mol
# Density = 1.826199 g / cm^3
# Si number density = 18.303647 Si / 1000 Ang^3
#
#
#
# Elastic Constant Matrix: (Units=GPa)
#
#
# Indices 1 2 3 4 5 6 
#
# 1 117.0523 51.9283 96.0077 0.0000 0.0000 0.0000
# 2 51.9283 42.2408 62.6101 0.0000 0.0000 0.0000
# 3 96.0077 62.6101 200.2046 0.0000 0.0000 0.0000
# 4 0.0000 0.0000 0.0000 27.3318 0.0000 0.0000
# 5 0.0000 0.0000 0.0000 0.0000 -16.6611 0.0000
# 6 0.0000 0.0000 0.0000 0.0000 0.0000 18.7150
#
#
#
# Elastic Compliance Matrix: (Units=1/GPa)
#
#
# Indices 1 2 3 4 5 6 
#
# 1 0.020064 -0.019394 -0.003557 0.000000 0.000000 0.000000
# 2 -0.019394 0.062875 -0.010363 0.000000 0.000000 0.000000
# 3 -0.003557 -0.010363 0.009941 0.000000 0.000000 0.000000
# 4 0.000000 0.000000 0.000000 0.036587 0.000000 0.000000
# 5 0.000000 0.000000 0.000000 0.000000 -0.060020 0.000000
# 6 0.000000 0.000000 0.000000 0.000000 0.000000 0.053433
#
#
# Mechanical properties :
#
#
# Convention : Reuss Voigt Hill
#
# Bulk Modulus (GPa) = 38.08929 86.73222 62.41075
# Shear Modulus (GPa) = 25.21948 15.80724 20.51336
#
# Velocity S-wave (km/s) = 3.71595 2.94192 3.35136
# Velocity P-wave (km/s) = 6.26625 7.68296 7.01049
#
# Compressibility (1/GPa) = 0.02625410
#
# Stress axis : x y z
#
# Youngs Moduli (GPa) = 49.83991 15.90447 100.59128
#
# Poissons Ratio (x) = 0.30845 0.35777
# Poissons Ratio (y) = 0.96660 1.04240
# Poissons Ratio (z) = 0.17726 0.16481
#
# Static dielectric constant tensor:
#      x y z
#    x 1.602660 0.000000 0.000000 
#    y 0.000000 1.612380 0.000000 
#    z 0.000000 0.000000 1.625940 
# 
# From -- ./inp_files/31441.got.cif
#   From: 2010.05.17/outbox.cif.g08.bks.cpg/sg42_16_cif.got.tgz:31441.got - 2010.06.03 19:03:34.
