data_PCOD9368546
_publ_section_title
;
Structure prediction by ZEFSAII (Michael W. Deem and Ramdas Pophale) SiO2 
 PCOD9368546
Probable space group: F M M 2
;
_chemical_formula_sum "Si O2"
_cell_formula_units_Z 116
_cell_length_a 17.094037
_cell_length_b 13.489605
_cell_length_c 23.574798
_cell_angle_alpha 90.000000
_cell_angle_beta 90.000000
_cell_angle_gamma 90.000000
_cell_volume 5436.155270
_symmetry_space_group_name_H-M "F M M 2"
_symmetry_group_IT_number 42
_symmetry_cell_setting 'orthorhombic'
loop_
_space_group_symop_operation_xyz
x,y,z
-x,-y,z
-x,y,z
x,-y,z
x,1/2+y,1/2+z
-x,1/2-y,1/2+z
-x,1/2+y,1/2+z
x,1/2-y,1/2+z
1/2+x,y,1/2+z
1/2-x,-y,1/2+z
1/2-x,y,1/2+z
1/2+x,-y,1/2+z
1/2+x,1/2+y,z
1/2-x,1/2-y,z
1/2-x,1/2+y,z
1/2+x,1/2-y,z
loop_
_atom_site_type_symbol
_atom_site_label
_atom_site_fract_x
_atom_site_fract_y
_atom_site_fract_z
Si Si1 0.193836 0.878819 0.458660
Si Si2 0.866899 0.616854 0.279286
Si Si3 0.646609 0.389250 0.906011
Si Si4 0.585821 0.755818 0.176802
Si Si5 0.811802 0.615551 0.739901
Si Si6 0.590177 0.117882 0.063347
Si Si7 0.500000 0.000000 0.447075
Si Si8 0.588912 0.379426 0.351978
O O1 0.282558 0.848662 0.443364
O O2 0.152675 0.847362 0.516804
O O3 0.138834 0.847575 0.406317
O O4 0.192359 0.000000 0.461812
O O5 0.887372 0.500000 0.277853
O O6 0.874226 0.653688 0.344215
O O7 0.914644 0.673433 0.231695
O O8 0.776887 0.630921 0.259752
O O9 0.678190 0.500000 0.887841
O O10 0.569288 0.414667 0.940988
O O11 0.500000 0.706449 0.172530
O O12 0.655784 0.679611 0.188211
O O13 0.598205 0.821805 0.121313
O O14 0.820605 0.500000 0.726841
O O15 0.866227 0.640977 0.793654
O O16 0.500000 0.130283 0.042505
O O17 0.600453 0.000000 0.074080
O O18 0.500000 0.342951 0.352231
O O19 0.585920 0.500000 0.355390
#
# Coordination Sequence:
#
# PCOD9368546 Si02
#       8
#    16  16  16  16  16  16   4  16
#     4   9  14  26  48  76 117 157 194 240 297 360
#     4  10  19  33  55  81 118 160 200 243 296 363
#     4   8  15  26  45  79 119 160 194 235 295 355
#     4  11  23  34  51  82 124 165 203 250 302 363
#     4  10  20  36  54  79 117 160 206 257 302 362
#     4   9  18  32  49  79 123 165 203 248 300 362
#     4   8  16  24  44  80 130 160 190 252 288 370
#     4   9  15  24  45  77 110 148 192 237 296 360
#
# _framework density 21.338612000000001
#
# number of rings (size 3 to 8) (size 9 to 14) (size 15 to 20)
#    0.414    2.207    1.379    1.655    0.966    3.310 
#    0.000    0.000    0.000    0.000    7.172    0.000 
#   10.345    1.379    0.000    5.655    0.000    0.000 
#
# Total GULP energy -161634.984281 kJ/mol
# GULP energy per Si atom -5573.620148 kJ/mol
# Density = 2.129004 g / cm^3
# Si number density = 21.338612 Si / 1000 Ang^3
#
#
#
# Elastic Constant Matrix: (Units=GPa)
#
#
# Indices 1 2 3 4 5 6 
#
# 1 139.3210 17.0702 46.4054 0.0000 0.0000 0.0000
# 2 17.0702 50.3435 12.7524 0.0000 0.0000 0.0000
# 3 46.4054 12.7524 84.6577 0.0000 0.0000 0.0000
# 4 0.0000 0.0000 0.0000 25.5877 0.0000 0.0000
# 5 0.0000 0.0000 0.0000 0.0000 28.2355 0.0000
# 6 0.0000 0.0000 0.0000 0.0000 0.0000 27.3142
#
#
#
# Elastic Compliance Matrix: (Units=1/GPa)
#
#
# Indices 1 2 3 4 5 6 
#
# 1 0.008946 -0.001862 -0.004623 0.000000 0.000000 0.000000
# 2 -0.001862 0.021039 -0.002148 0.000000 0.000000 0.000000
# 3 -0.004623 -0.002148 0.014670 0.000000 0.000000 0.000000
# 4 0.000000 0.000000 0.000000 0.039081 0.000000 0.000000
# 5 0.000000 0.000000 0.000000 0.000000 0.035416 0.000000
# 6 0.000000 0.000000 0.000000 0.000000 0.000000 0.036611
#
#
# Mechanical properties :
#
#
# Convention : Reuss Voigt Hill
#
# Bulk Modulus (GPa) = 36.51311 47.41981 41.96646
# Shear Modulus (GPa) = 27.44837 29.43378 28.44108
#
# Velocity S-wave (km/s) = 3.59043 3.71801 3.65478
# Velocity P-wave (km/s) = 5.85975 6.37983 6.12531
#
# Compressibility (1/GPa) = 0.02738742
#
# Stress axis : x y z
#
# Youngs Moduli (GPa) = 111.78543 47.53042 68.16597
#
# Poissons Ratio (x) = 0.08851 0.31514
# Poissons Ratio (y) = 0.20817 0.14645
# Poissons Ratio (z) = 0.51680 0.10212
#
# Static dielectric constant tensor:
#      x y z
#    x 1.768920 0.000000 0.000000 
#    y 0.000000 1.876230 0.000000 
#    z 0.000000 0.000000 1.725610 
# 
# From -- ./inp_files/29948.got.cif
#   From: 2010.05.17/outbox.cif.g08.bks.cpg/sg42_15_cif.got.tgz:29948.got - 2010.06.03 19:03:34.
