data_PCOD9368110
_publ_section_title
;
Structure prediction by ZEFSAII (Michael W. Deem and Ramdas Pophale) SiO2 
 PCOD9368110
Probable space group: F M M 2
;
_chemical_formula_sum "Si O2"
_cell_formula_units_Z 48
_cell_length_a 14.102120
_cell_length_b 5.471053
_cell_length_c 28.944354
_cell_angle_alpha 90.000000
_cell_angle_beta 90.000000
_cell_angle_gamma 90.000000
_cell_volume 2233.156651
_symmetry_space_group_name_H-M "F M M 2"
_symmetry_group_IT_number 42
_symmetry_cell_setting 'orthorhombic'
loop_
_space_group_symop_operation_xyz
x,y,z
-x,-y,z
-x,y,z
x,-y,z
x,1/2+y,1/2+z
-x,1/2-y,1/2+z
-x,1/2+y,1/2+z
x,1/2-y,1/2+z
1/2+x,y,1/2+z
1/2-x,-y,1/2+z
1/2-x,y,1/2+z
1/2+x,-y,1/2+z
1/2+x,1/2+y,z
1/2-x,1/2-y,z
1/2-x,1/2+y,z
1/2+x,1/2-y,z
loop_
_atom_site_type_symbol
_atom_site_label
_atom_site_fract_x
_atom_site_fract_y
_atom_site_fract_z
Si Si1 0.651766 0.500000 0.417120
Si Si2 0.860474 0.500000 0.268978
Si Si3 0.635012 0.000000 0.455027
Si Si4 0.813569 0.500000 0.162533
Si Si5 0.000000 0.500000 0.539329
Si Si6 0.000000 0.500000 0.098104
Si Si7 0.852427 0.000000 0.307665
O O1 0.602787 0.249719 0.431240
O O2 0.751669 0.500000 0.445273
O O3 0.665516 0.500000 0.362319
O O4 0.859369 0.500000 0.213822
O O5 0.898918 0.749431 0.290758
O O6 0.750024 0.500000 0.283520
O O7 0.592973 0.000000 0.506266
O O8 0.750000 0.750000 0.157773
O O9 0.902578 0.500000 0.127740
O O10 0.000000 0.749760 0.568442
#
# Coordination Sequence:
#
# PCOD9368110 Si02
#       7
#     8   8   8   8   4   4   8
#     4  10  19  35  60 101 119 173 221 262 305 396
#     4  10  16  29  56  94 120 174 209 256 317 390
#     4  10  20  37  61  84 126 160 217 262 331 390
#     4  12  23  47  72 103 135 183 231 277 361 412
#     4  12  26  50  64  91 132 179 210 292 378 390
#     4  12  30  50  70 103 136 173 230 308 352 420
#     4  10  16  28  56  93 136 159 226 256 303 383
#
# _framework density 21.494236000000001
#
# number of rings (size 3 to 8) (size 9 to 14) (size 15 to 20)
#    0.000    1.333    3.333    7.000    0.000    0.000 
#   18.000    0.000    0.000   11.000    0.000    0.000 
#    0.000    0.000    0.000    0.000    0.000    0.000 
#
# Total GULP energy -66955.448435 kJ/mol
# GULP energy per Si atom -5579.620703 kJ/mol
# Density = 2.144531 g / cm^3
# Si number density = 21.494236 Si / 1000 Ang^3
#
#
#
# Elastic Constant Matrix: (Units=GPa)
#
#
# Indices 1 2 3 4 5 6 
#
# 1 133.3651 43.9451 56.1114 0.0000 0.0000 0.0000
# 2 43.9451 268.3569 85.6103 0.0000 0.0000 0.0000
# 3 56.1114 85.6103 185.2164 0.0000 0.0000 0.0000
# 4 0.0000 0.0000 0.0000 46.5222 0.0000 0.0000
# 5 0.0000 0.0000 0.0000 0.0000 262.2125 0.0000
# 6 0.0000 0.0000 0.0000 0.0000 0.0000 -14.3039
#
#
#
# Elastic Compliance Matrix: (Units=1/GPa)
#
#
# Indices 1 2 3 4 5 6 
#
# 1 0.008700 -0.000685 -0.002319 0.000000 0.000000 0.000000
# 2 -0.000685 0.004425 -0.001838 0.000000 0.000000 0.000000
# 3 -0.002319 -0.001838 0.006951 0.000000 0.000000 0.000000
# 4 0.000000 0.000000 0.000000 0.021495 0.000000 0.000000
# 5 0.000000 0.000000 0.000000 0.000000 0.003814 0.000000
# 6 0.000000 0.000000 0.000000 0.000000 0.000000 -0.069911
#
#
# Mechanical properties :
#
#
# Convention : Reuss Voigt Hill
#
# Bulk Modulus (GPa) = 96.22518 106.47469 101.34993
# Shear Modulus (GPa) = -439.39286 85.63758 -176.87764
#
# Velocity S-wave (km/s) = -14.31319 6.31891 -9.08127
# Velocity P-wave (km/s) = 15.10931 10.14308 7.91863
#
# Compressibility (1/GPa) = 0.01039229
#
# Stress axis : x y z
#
# Youngs Moduli (GPa) = 114.94841 225.99907 143.86251
#
# Poissons Ratio (x) = 0.15477 0.33362
# Poissons Ratio (y) = 0.07872 0.26438
# Poissons Ratio (z) = 0.26657 0.41533
#
# Static dielectric constant tensor:
#      x y z
#    x 1.764030 0.000000 0.000000 
#    y 0.000000 1.921930 0.000000 
#    z 0.000000 0.000000 1.726150 
# 
# From -- ./inp_files/32352.got.cif
#   From: 2010.05.17/outbox.cif.g08.bks.cpg/sg42_17_cif.got.tgz:32352.got - 2010.06.03 19:03:34.
