data_PCOD9368854
_publ_section_title
;
Structure prediction by ZEFSAII (Michael W. Deem and Ramdas Pophale) SiO2 
 PCOD9368854
Probable space group: F M M 2
;
_chemical_formula_sum "Si O2"
_cell_formula_units_Z 116
_cell_length_a 7.581043
_cell_length_b 31.111390
_cell_length_c 26.098896
_cell_angle_alpha 90.000000
_cell_angle_beta 90.000000
_cell_angle_gamma 90.000000
_cell_volume 6155.601713
_symmetry_space_group_name_H-M "F M M 2"
_symmetry_group_IT_number 42
_symmetry_cell_setting 'orthorhombic'
loop_
_space_group_symop_operation_xyz
x,y,z
-x,-y,z
-x,y,z
x,-y,z
x,1/2+y,1/2+z
-x,1/2-y,1/2+z
-x,1/2+y,1/2+z
x,1/2-y,1/2+z
1/2+x,y,1/2+z
1/2-x,-y,1/2+z
1/2-x,y,1/2+z
1/2+x,-y,1/2+z
1/2+x,1/2+y,z
1/2-x,1/2-y,z
1/2-x,1/2+y,z
1/2+x,1/2-y,z
loop_
_atom_site_type_symbol
_atom_site_label
_atom_site_fract_x
_atom_site_fract_y
_atom_site_fract_z
Si Si1 0.211050 0.047464 0.722420
Si Si2 0.500000 0.500000 0.065942
Si Si3 0.706337 0.159487 0.066318
Si Si4 0.212215 0.299858 0.964033
Si Si5 0.790878 0.797799 0.167532
Si Si6 0.212120 0.200022 0.349004
Si Si7 0.789472 0.141191 0.256712
Si Si8 0.284706 0.933924 0.103610
O O1 0.260689 0.090198 0.753464
O O2 0.259153 0.054930 0.662815
O O3 0.000000 0.045694 0.724135
O O4 0.278432 0.000000 0.738310
O O5 0.658002 0.463255 0.069809
O O6 0.500000 0.153099 0.057031
O O7 0.724016 0.195357 0.110036
O O8 0.766133 0.115037 0.091278
O O9 0.784203 0.172864 0.011660
O O10 0.250000 0.250000 0.974588
O O11 0.279390 0.309061 0.906606
O O12 0.000000 0.304851 0.962332
O O13 0.750000 0.750000 0.186795
O O14 0.719303 0.834225 0.206106
O O15 0.000000 0.802474 0.164919
O O16 0.250000 0.250000 0.336293
O O17 0.278665 0.166645 0.306471
O O18 0.000000 0.196265 0.350522
O O19 0.000000 0.147387 0.256356
O O20 0.500000 0.939969 0.097481
#
# Coordination Sequence:
#
# PCOD9368854 Si02
#       8
#    16   4  16  16  16  16  16  16
#     4  10  20  34  51  74 103 137 173 218 266 321
#     4  12  22  32  60  78 108 152 182 228 276 326
#     4  10  20  34  51  74 106 139 174 219 267 320
#     4   9  18  33  53  75 101 137 176 222 269 310
#     4  11  22  32  46  70 105 143 176 206 257 321
#     4   9  18  34  53  76 103 133 177 222 263 319
#     4  10  21  33  50  75 103 134 174 218 262 320
#     4  10  21  35  52  80 112 143 183 226 276 333
#
# _framework density 18.844622999999999
#
# number of rings (size 3 to 8) (size 9 to 14) (size 15 to 20)
#    0.000    2.069    2.069    1.448    1.931    3.034 
#    0.000    0.000    0.000    0.000    1.793    0.000 
#    0.000    0.000    0.000    0.000    0.000    0.000 
#
# Total GULP energy -161437.993159 kJ/mol
# GULP energy per Si atom -5566.827350 kJ/mol
# Density = 1.880173 g / cm^3
# Si number density = 18.844623 Si / 1000 Ang^3
#
#
#
# Elastic Constant Matrix: (Units=GPa)
#
#
# Indices 1 2 3 4 5 6 
#
# 1 46.5664 -2.5875 2.5346 0.0000 0.0000 0.0000
# 2 -2.5875 132.4975 63.9350 0.0000 0.0000 0.0000
# 3 2.5346 63.9350 99.2701 0.0000 0.0000 0.0000
# 4 0.0000 0.0000 0.0000 -16.2692 0.0000 0.0000
# 5 0.0000 0.0000 0.0000 0.0000 -2.5128 0.0000
# 6 0.0000 0.0000 0.0000 0.0000 0.0000 28.2841
#
#
#
# Elastic Compliance Matrix: (Units=1/GPa)
#
#
# Indices 1 2 3 4 5 6 
#
# 1 0.021595 0.000998 -0.001194 0.000000 0.000000 0.000000
# 2 0.000998 0.010997 -0.007108 0.000000 0.000000 0.000000
# 3 -0.001194 -0.007108 0.014682 0.000000 0.000000 0.000000
# 4 0.000000 0.000000 0.000000 -0.061466 0.000000 0.000000
# 5 0.000000 0.000000 0.000000 0.000000 -0.397962 0.000000
# 6 0.000000 0.000000 0.000000 0.000000 0.000000 0.035356
#
#
# Mechanical properties :
#
#
# Convention : Reuss Voigt Hill
#
# Bulk Modulus (GPa) = 30.61327 45.12200 37.86764
# Shear Modulus (GPa) = -14.23277 16.19722 0.98223
#
# Velocity S-wave (km/s) = -2.75120 2.93493 0.72274
# Velocity P-wave (km/s) = 2.48762 5.95662 4.56451
#
# Compressibility (1/GPa) = 0.03266557
#
# Stress axis : x y z
#
# Youngs Moduli (GPa) = 46.30667 90.93718 68.11140
#
# Poissons Ratio (x) = -0.09075 0.08133
# Poissons Ratio (y) = -0.04621 0.48413
# Poissons Ratio (z) = 0.05529 0.64637
#
# Static dielectric constant tensor:
#      x y z
#    x 1.714930 0.000000 0.000000 
#    y 0.000000 1.684820 0.000000 
#    z 0.000000 0.000000 1.673700 
# 
# From -- ./inp_files/30909.got.cif
#   From: 2010.05.17/outbox.cif.g08.bks.cpg/sg42_16_cif.got.tgz:30909.got - 2010.06.03 19:03:34.
