data_PCOD9368284
_publ_section_title
;
Structure prediction by ZEFSAII (Michael W. Deem and Ramdas Pophale) SiO2 
 PCOD9368284
Probable space group: F M M 2
;
_chemical_formula_sum "Si O2"
_cell_formula_units_Z 72
_cell_length_a 7.872177
_cell_length_b 27.392826
_cell_length_c 18.583412
_cell_angle_alpha 90.000000
_cell_angle_beta 90.000000
_cell_angle_gamma 90.000000
_cell_volume 4007.348796
_symmetry_space_group_name_H-M "F M M 2"
_symmetry_group_IT_number 42
_symmetry_cell_setting 'orthorhombic'
loop_
_space_group_symop_operation_xyz
x,y,z
-x,-y,z
-x,y,z
x,-y,z
x,1/2+y,1/2+z
-x,1/2-y,1/2+z
-x,1/2+y,1/2+z
x,1/2-y,1/2+z
1/2+x,y,1/2+z
1/2-x,-y,1/2+z
1/2-x,y,1/2+z
1/2+x,-y,1/2+z
1/2+x,1/2+y,z
1/2-x,1/2-y,z
1/2-x,1/2+y,z
1/2+x,1/2-y,z
loop_
_atom_site_type_symbol
_atom_site_label
_atom_site_fract_x
_atom_site_fract_y
_atom_site_fract_z
Si Si1 0.200689 0.804922 0.935650
Si Si2 0.316527 0.905802 0.879131
Si Si3 0.000000 0.624740 0.150316
Si Si4 0.000000 0.556998 0.289505
Si Si5 0.500000 0.056826 0.010789
Si Si6 0.702057 0.805582 0.607108
O O1 0.250000 0.750000 0.914253
O O2 0.288976 0.848329 0.892590
O O3 0.000000 0.810917 0.926599
O O4 0.238441 0.810040 0.021050
O O5 0.500000 0.913816 0.842792
O O6 0.164560 0.929569 0.836519
O O7 0.342193 0.929680 0.958253
O O8 0.000000 0.590981 0.219811
O O9 0.000000 0.590609 0.079938
O O10 0.831143 0.658199 0.146579
O O11 0.000000 0.500000 0.270989
O O12 0.500000 0.000000 0.028537
O O13 0.500000 0.813959 0.618304
O O14 0.750000 0.750000 0.626745
#
# Coordination Sequence:
#
# PCOD9368284 Si02
#       6
#    16  16   8   8   8  16
#     4  10  18  31  60  98 130 158 199 253 304 363
#     4  10  21  40  65  90 118 162 209 252 300 369
#     4  12  23  40  63  94 125 163 199 259 306 361
#     4  12  27  44  62  86 125 167 206 254 324 369
#     4  10  21  40  67  90 118 158 216 267 298 344
#     4  10  19  34  61  93 126 161 199 244 303 366
#
# _framework density 17.966991
#
# number of rings (size 3 to 8) (size 9 to 14) (size 15 to 20)
#    0.667    0.889    4.444    1.667    1.556    0.889 
#    0.000    1.111    0.000    1.333    0.000    0.000 
#    0.000    0.000    0.000    0.000    0.000    0.000 
#
# Total GULP energy -100412.170815 kJ/mol
# GULP energy per Si atom -5578.453934 kJ/mol
# Density = 1.792610 g / cm^3
# Si number density = 17.966991 Si / 1000 Ang^3
#
#
#
# Elastic Constant Matrix: (Units=GPa)
#
#
# Indices 1 2 3 4 5 6 
#
# 1 119.3436 56.3733 46.5244 0.0000 0.0000 0.0000
# 2 56.3733 142.3989 40.6364 0.0000 0.0000 0.0000
# 3 46.5244 40.6364 69.0833 0.0000 0.0000 0.0000
# 4 0.0000 0.0000 0.0000 14.2976 0.0000 0.0000
# 5 0.0000 0.0000 0.0000 0.0000 -13.0307 0.0000
# 6 0.0000 0.0000 0.0000 0.0000 0.0000 13.8802
#
#
#
# Elastic Compliance Matrix: (Units=1/GPa)
#
#
# Indices 1 2 3 4 5 6 
#
# 1 0.012359 -0.003025 -0.006544 0.000000 0.000000 0.000000
# 2 -0.003025 0.009180 -0.003362 0.000000 0.000000 0.000000
# 3 -0.006544 -0.003362 0.020860 0.000000 0.000000 0.000000
# 4 0.000000 0.000000 0.000000 0.069942 0.000000 0.000000
# 5 0.000000 0.000000 0.000000 0.000000 -0.076742 0.000000
# 6 0.000000 0.000000 0.000000 0.000000 0.000000 0.072045
#
#
# Mechanical properties :
#
#
# Convention : Reuss Voigt Hill
#
# Bulk Modulus (GPa) = 60.47385 68.65488 64.56436
# Shear Modulus (GPa) = 35.96647 15.51555 25.74101
#
# Velocity S-wave (km/s) = 4.47901 2.94183 3.78919
# Velocity P-wave (km/s) = 7.77689 7.05930 7.42677
#
# Compressibility (1/GPa) = 0.01653607
#
# Stress axis : x y z
#
# Youngs Moduli (GPa) = 80.91111 108.93573 47.93879
#
# Poissons Ratio (x) = 0.32958 0.31370
# Poissons Ratio (y) = 0.24479 0.16118
# Poissons Ratio (z) = 0.52946 0.36627
#
# Static dielectric constant tensor:
#      x y z
#    x 1.743160 0.000000 0.000000 
#    y 0.000000 1.611900 0.000000 
#    z 0.000000 0.000000 1.597820 
# 
# From -- ./inp_files/12187.got.cif
#   From: 2010.05.17/outbox.cif.g08.bks.cpg/sg42_7_cif.got.tgz:12187.got - 2010.06.03 19:03:34.
