data_PCOD9368413
_publ_section_title
;
Structure prediction by ZEFSAII (Michael W. Deem and Ramdas Pophale) SiO2 
 PCOD9368413
Probable space group: F M M 2
;
_chemical_formula_sum "Si O2"
_cell_formula_units_Z 96
_cell_length_a 18.629182
_cell_length_b 11.174550
_cell_length_c 22.584266
_cell_angle_alpha 90.000000
_cell_angle_beta 90.000000
_cell_angle_gamma 90.000000
_cell_volume 4701.428212
_symmetry_space_group_name_H-M "F M M 2"
_symmetry_group_IT_number 42
_symmetry_cell_setting 'orthorhombic'
loop_
_space_group_symop_operation_xyz
x,y,z
-x,-y,z
-x,y,z
x,-y,z
x,1/2+y,1/2+z
-x,1/2-y,1/2+z
-x,1/2+y,1/2+z
x,1/2-y,1/2+z
1/2+x,y,1/2+z
1/2-x,-y,1/2+z
1/2-x,y,1/2+z
1/2+x,-y,1/2+z
1/2+x,1/2+y,z
1/2-x,1/2-y,z
1/2-x,1/2+y,z
1/2+x,1/2-y,z
loop_
_atom_site_type_symbol
_atom_site_label
_atom_site_fract_x
_atom_site_fract_y
_atom_site_fract_z
Si Si1 0.581387 0.279665 0.738070
Si Si2 0.338014 0.631538 0.319739
Si Si3 0.704743 0.634952 0.455232
Si Si4 0.915015 0.133037 0.123347
Si Si5 0.229802 0.626589 0.207624
Si Si6 0.413975 0.366687 0.550699
O O1 0.500000 0.323470 0.733258
O O2 0.603728 0.229649 0.801800
O O3 0.589892 0.167575 0.692651
O O4 0.645321 0.367663 0.720689
O O5 0.371548 0.500000 0.317374
O O6 0.306860 0.647169 0.384868
O O7 0.275443 0.632687 0.269322
O O8 0.735337 0.500000 0.465999
O O9 0.750000 0.750000 0.475404
O O10 0.629201 0.638225 0.489550
O O11 0.889663 0.251982 0.088971
O O12 0.000000 0.127563 0.110292
O O13 0.886060 0.000000 0.110435
O O14 0.247352 0.500000 0.178860
O O15 0.250000 0.750000 0.175293
O O16 0.500000 0.359929 0.543115
O O17 0.399183 0.500000 0.577228
#
# Coordination Sequence:
#
# PCOD9368413 Si02
#       6
#    16  16  16  16  16  16
#     4  10  19  30  50  82 113 138 171 217 265 312
#     4   9  18  34  54  75 105 144 178 211 257 313
#     4  10  20  35  56  80 106 138 176 218 265 316
#     4   9  18  33  53  77 106 140 176 214 259 312
#     4   9  18  33  51  72 102 141 178 209 252 309
#     4   9  19  36  56  78 104 135 174 219 266 314
#
# _framework density 20.419326999999999
#
# number of rings (size 3 to 8) (size 9 to 14) (size 15 to 20)
#    0.000    2.667    0.000    2.000    0.000    4.000 
#    0.000    5.833    0.000    2.000    0.000    4.667 
#    0.000    0.000    0.000    0.000    0.000    0.000 
#
# Total GULP energy -133644.219841 kJ/mol
# GULP energy per Si atom -5568.509160 kJ/mol
# Density = 2.037285 g / cm^3
# Si number density = 20.419327 Si / 1000 Ang^3
#
#
#
# Elastic Constant Matrix: (Units=GPa)
#
#
# Indices 1 2 3 4 5 6 
#
# 1 99.1816 34.8980 24.0233 0.0000 0.0000 0.0000
# 2 34.8980 182.7810 28.1243 0.0000 0.0000 0.0000
# 3 24.0233 28.1243 35.9290 0.0000 0.0000 0.0000
# 4 0.0000 0.0000 0.0000 -7.0968 0.0000 0.0000
# 5 0.0000 0.0000 0.0000 0.0000 17.2904 0.0000
# 6 0.0000 0.0000 0.0000 0.0000 0.0000 9.6545
#
#
#
# Elastic Compliance Matrix: (Units=1/GPa)
#
#
# Indices 1 2 3 4 5 6 
#
# 1 0.012269 -0.001228 -0.007242 0.000000 0.000000 0.000000
# 2 -0.001228 0.006343 -0.004144 0.000000 0.000000 0.000000
# 3 -0.007242 -0.004144 0.035919 0.000000 0.000000 0.000000
# 4 0.000000 0.000000 0.000000 -0.140908 0.000000 0.000000
# 5 0.000000 0.000000 0.000000 0.000000 0.057836 0.000000
# 6 0.000000 0.000000 0.000000 0.000000 0.000000 0.103579
#
#
# Mechanical properties :
#
#
# Convention : Reuss Voigt Hill
#
# Bulk Modulus (GPa) = 34.12696 54.66476 44.39586
# Shear Modulus (GPa) = 45.44098 19.35934 32.40016
#
# Velocity S-wave (km/s) = 4.72252 3.08245 3.98771
# Velocity P-wave (km/s) = 6.81804 6.28473 6.55681
#
# Compressibility (1/GPa) = 0.02930235
#
# Stress axis : x y z
#
# Youngs Moduli (GPa) = 81.50783 157.65006 27.84057
#
# Poissons Ratio (x) = 0.19362 0.20162
# Poissons Ratio (y) = 0.10010 0.11537
# Poissons Ratio (z) = 0.59028 0.65332
#
# Static dielectric constant tensor:
#      x y z
#    x 1.730940 0.000000 0.000000 
#    y 0.000000 1.800340 0.000000 
#    z 0.000000 0.000000 1.713670 
# 
# From -- ./inp_files/26422.got.cif
#   From: 2010.05.17/outbox.cif.g08.bks.cpg/sg42_14_cif.got.tgz:26422.got - 2010.06.03 19:03:34.
