data_PCOD9368783
_publ_section_title
;
Structure prediction by ZEFSAII (Michael W. Deem and Ramdas Pophale) SiO2 
 PCOD9368783
Probable space group: F M M 2
;
_chemical_formula_sum "Si O2"
_cell_formula_units_Z 96
_cell_length_a 9.178877
_cell_length_b 18.586289
_cell_length_c 32.365846
_cell_angle_alpha 90.000000
_cell_angle_beta 90.000000
_cell_angle_gamma 90.000000
_cell_volume 5521.654129
_symmetry_space_group_name_H-M "F M M 2"
_symmetry_group_IT_number 42
_symmetry_cell_setting 'orthorhombic'
loop_
_space_group_symop_operation_xyz
x,y,z
-x,-y,z
-x,y,z
x,-y,z
x,1/2+y,1/2+z
-x,1/2-y,1/2+z
-x,1/2+y,1/2+z
x,1/2-y,1/2+z
1/2+x,y,1/2+z
1/2-x,-y,1/2+z
1/2-x,y,1/2+z
1/2+x,-y,1/2+z
1/2+x,1/2+y,z
1/2-x,1/2-y,z
1/2-x,1/2+y,z
1/2+x,1/2-y,z
loop_
_atom_site_type_symbol
_atom_site_label
_atom_site_fract_x
_atom_site_fract_y
_atom_site_fract_z
Si Si1 0.673587 0.827392 0.658350
Si Si2 0.671391 0.913178 0.992946
Si Si3 0.826844 0.672836 0.564090
Si Si4 0.677335 0.416502 0.402530
Si Si5 0.830506 0.587854 0.812686
Si Si6 0.830975 0.586715 0.229607
O O1 0.500000 0.820381 0.663500
O O2 0.750000 0.750000 0.662897
O O3 0.701935 0.852481 0.611185
O O4 0.739976 0.879851 0.692346
O O5 0.500000 0.895495 0.998136
O O6 0.762781 0.879652 0.029733
O O7 0.682322 0.000000 0.992967
O O8 0.720020 0.886153 0.947234
O O9 0.750000 0.750000 0.559444
O O10 0.000000 0.680758 0.559407
O O11 0.500000 0.416921 0.402167
O O12 0.724562 0.500000 0.402746
O O13 0.721276 0.385657 0.357949
O O14 0.827271 0.500000 0.814361
O O15 0.735261 0.610296 0.773685
O O16 0.000000 0.607912 0.806635
O O17 0.821795 0.500000 0.228072
O O18 0.000000 0.607442 0.226304
#
# Coordination Sequence:
#
# PCOD9368783 Si02
#       6
#    16  16  16  16  16  16
#     4  10  21  37  55  72  93 125 164 203 245 295
#     4   9  17  30  50  76 104 132 162 198 241 286
#     4  10  21  36  53  72  95 126 164 203 244 293
#     4   7  11  22  42  68  96 127 162 196 232 279
#     4   8  13  24  44  68  95 128 164 199 236 280
#     4  10  20  32  48  74 105 132 161 199 241 285
#
# _framework density 17.386095000000001
#
# number of rings (size 3 to 8) (size 9 to 14) (size 15 to 20)
#    0.000    3.000    0.000    3.500    0.000    4.000 
#    0.000    4.167    0.000    4.000    0.000    4.667 
#    0.000    0.000    0.000    0.000    0.000    0.000 
#
# Total GULP energy -133646.786096 kJ/mol
# GULP energy per Si atom -5568.616087 kJ/mol
# Density = 1.734652 g / cm^3
# Si number density = 17.386095 Si / 1000 Ang^3
#
#
#
# Elastic Constant Matrix: (Units=GPa)
#
#
# Indices 1 2 3 4 5 6 
#
# 1 80.7710 23.6240 83.2839 0.0000 0.0000 0.0000
# 2 23.6240 11.7967 39.5199 0.0000 0.0000 0.0000
# 3 83.2839 39.5199 178.3288 0.0000 0.0000 0.0000
# 4 0.0000 0.0000 0.0000 -26.1181 0.0000 0.0000
# 5 0.0000 0.0000 0.0000 0.0000 27.2966 0.0000
# 6 0.0000 0.0000 0.0000 0.0000 0.0000 23.8139
#
#
#
# Elastic Compliance Matrix: (Units=1/GPa)
#
#
# Indices 1 2 3 4 5 6 
#
# 1 0.030222 -0.051394 -0.002725 0.000000 0.000000 0.000000
# 2 -0.051394 0.416497 -0.068299 0.000000 0.000000 0.000000
# 3 -0.002725 -0.068299 0.022016 0.000000 0.000000 0.000000
# 4 0.000000 0.000000 0.000000 -0.038288 0.000000 0.000000
# 5 0.000000 0.000000 0.000000 0.000000 0.036635 0.000000
# 6 0.000000 0.000000 0.000000 0.000000 0.000000 0.041992
#
#
# Mechanical properties :
#
#
# Convention : Reuss Voigt Hill
#
# Bulk Modulus (GPa) = 4.46629 62.63914 33.55271
# Shear Modulus (GPa) = 6.03469 13.29638 9.66553
#
# Velocity S-wave (km/s) = 1.86508 2.76845 2.36038
# Velocity P-wave (km/s) = 2.68561 6.80629 5.17388
#
# Compressibility (1/GPa) = 0.22389971
#
# Stress axis : x y z
#
# Youngs Moduli (GPa) = 33.08825 2.40098 45.42123
#
# Poissons Ratio (x) = 0.12340 0.12377
# Poissons Ratio (y) = 1.70053 3.10221
# Poissons Ratio (z) = 0.09016 0.16398
#
# Static dielectric constant tensor:
#      x y z
#    x 1.575830 0.000000 0.000000 
#    y 0.000000 1.571090 0.000000 
#    z 0.000000 0.000000 1.624750 
# 
# From -- ./inp_files/31420.got.cif
#   From: 2010.05.17/outbox.cif.g08.bks.cpg/sg42_16_cif.got.tgz:31420.got - 2010.06.03 19:03:34.
