data_PCOD9368567
_publ_section_title
;
Structure prediction by ZEFSAII (Michael W. Deem and Ramdas Pophale) SiO2 
 PCOD9368567
Probable space group: F M M 2
;
_chemical_formula_sum "Si O2"
_cell_formula_units_Z 72
_cell_length_a 20.336091
_cell_length_b 10.360478
_cell_length_c 17.627026
_cell_angle_alpha 90.000000
_cell_angle_beta 90.000000
_cell_angle_gamma 90.000000
_cell_volume 3713.866724
_symmetry_space_group_name_H-M "F M M 2"
_symmetry_group_IT_number 42
_symmetry_cell_setting 'orthorhombic'
loop_
_space_group_symop_operation_xyz
x,y,z
-x,-y,z
-x,y,z
x,-y,z
x,1/2+y,1/2+z
-x,1/2-y,1/2+z
-x,1/2+y,1/2+z
x,1/2-y,1/2+z
1/2+x,y,1/2+z
1/2-x,-y,1/2+z
1/2-x,y,1/2+z
1/2+x,-y,1/2+z
1/2+x,1/2+y,z
1/2-x,1/2-y,z
1/2-x,1/2+y,z
1/2+x,1/2-y,z
loop_
_atom_site_type_symbol
_atom_site_label
_atom_site_fract_x
_atom_site_fract_y
_atom_site_fract_z
Si Si1 0.572704 0.853328 0.965010
Si Si2 0.750000 0.250000 0.249808
Si Si3 0.713976 0.500000 0.150040
Si Si4 0.925331 0.000000 0.208648
Si Si5 0.893083 0.253533 0.307764
Si Si6 0.838881 0.000000 0.569390
Si Si7 0.429267 0.000000 0.213400
O O1 0.500000 0.826490 0.997713
O O2 0.587322 0.761357 0.895135
O O3 0.569936 0.000000 0.932010
O O4 0.629816 0.875018 0.026932
O O5 0.735252 0.373419 0.197293
O O6 0.814735 0.268283 0.299771
O O7 0.634599 0.500000 0.147811
O O8 0.760568 0.500000 0.076221
O O9 0.914665 0.874004 0.261266
O O10 0.000000 0.000000 0.178835
O O11 0.923845 0.375287 0.265899
O O12 0.871162 0.000000 0.652411
O O13 0.500000 0.000000 0.172648
#
# Coordination Sequence:
#
# PCOD9368567 Si02
#       7
#    16   8   8   8  16   8   8
#     4   9  18  34  59  85 114 156 209 245 281 358
#     4  10  20  36  56  90 118 162 196 262 298 356
#     4  10  20  36  59  84 124 157 202 252 308 357
#     4  10  19  33  58  90 121 159 202 250 305 367
#     4  11  20  35  60  91 127 155 208 254 304 356
#     4  10  19  38  56  86 119 165 200 247 298 368
#     4  12  22  33  59  96 126 153 198 261 315 348
#
# _framework density 19.386801999999999
#
# number of rings (size 3 to 8) (size 9 to 14) (size 15 to 20)
#    0.667    1.111    3.333    2.667    0.000    0.000 
#    0.000    1.111    0.000    2.667    0.000    4.667 
#    0.000    0.000    0.000    0.000    0.000    0.000 
#
# Total GULP energy -100310.859927 kJ/mol
# GULP energy per Si atom -5572.825551 kJ/mol
# Density = 1.934268 g / cm^3
# Si number density = 19.386802 Si / 1000 Ang^3
#
#
#
# Elastic Constant Matrix: (Units=GPa)
#
#
# Indices 1 2 3 4 5 6 
#
# 1 177.9332 8.5436 33.6330 0.0000 0.0000 0.0000
# 2 8.5436 93.4526 14.7517 0.0000 0.0000 0.0000
# 3 33.6330 14.7517 67.0654 0.0000 0.0000 0.0000
# 4 0.0000 0.0000 0.0000 21.3609 0.0000 0.0000
# 5 0.0000 0.0000 0.0000 0.0000 6.7919 0.0000
# 6 0.0000 0.0000 0.0000 0.0000 0.0000 43.1507
#
#
#
# Elastic Compliance Matrix: (Units=1/GPa)
#
#
# Indices 1 2 3 4 5 6 
#
# 1 0.006209 -0.000079 -0.003097 0.000000 0.000000 0.000000
# 2 -0.000079 0.011087 -0.002399 0.000000 0.000000 0.000000
# 3 -0.003097 -0.002399 0.016991 0.000000 0.000000 0.000000
# 4 0.000000 0.000000 0.000000 0.046814 0.000000 0.000000
# 5 0.000000 0.000000 0.000000 0.000000 0.147234 0.000000
# 6 0.000000 0.000000 0.000000 0.000000 0.000000 0.023175
#
#
# Mechanical properties :
#
#
# Convention : Reuss Voigt Hill
#
# Bulk Modulus (GPa) = 43.21848 50.25641 46.73744
# Shear Modulus (GPa) = 18.49303 33.02891 25.76097
#
# Velocity S-wave (km/s) = 3.09187 4.13204 3.64921
# Velocity P-wave (km/s) = 5.92346 6.98171 6.47425
#
# Compressibility (1/GPa) = 0.02313825
#
# Stress axis : x y z
#
# Youngs Moduli (GPa) = 161.05184 90.19969 58.85326
#
# Poissons Ratio (x) = 0.00711 0.18224
# Poissons Ratio (y) = 0.01270 0.14119
# Poissons Ratio (z) = 0.49870 0.21639
#
# Static dielectric constant tensor:
#      x y z
#    x 1.757300 0.000000 0.000000 
#    y 0.000000 1.662430 0.000000 
#    z 0.000000 0.000000 1.657700 
# 
# From -- ./inp_files/21472.got.cif
#   From: 2010.05.17/outbox.cif.g08.bks.cpg/sg42_11_cif.got.tgz:21472.got - 2010.06.03 19:03:34.
