data_PCOD9368213
_publ_section_title
;
Structure prediction by ZEFSAII (Michael W. Deem and Ramdas Pophale) SiO2 
 PCOD9368213
Probable space group: F M M 2
;
_chemical_formula_sum "Si O2"
_cell_formula_units_Z 120
_cell_length_a 13.822432
_cell_length_b 23.016345
_cell_length_c 21.197392
_cell_angle_alpha 90.000000
_cell_angle_beta 90.000000
_cell_angle_gamma 90.000000
_cell_volume 6743.777795
_symmetry_space_group_name_H-M "F M M 2"
_symmetry_group_IT_number 42
_symmetry_cell_setting 'orthorhombic'
loop_
_space_group_symop_operation_xyz
x,y,z
-x,-y,z
-x,y,z
x,-y,z
x,1/2+y,1/2+z
-x,1/2-y,1/2+z
-x,1/2+y,1/2+z
x,1/2-y,1/2+z
1/2+x,y,1/2+z
1/2-x,-y,1/2+z
1/2-x,y,1/2+z
1/2+x,-y,1/2+z
1/2+x,1/2+y,z
1/2-x,1/2-y,z
1/2-x,1/2+y,z
1/2+x,1/2-y,z
loop_
_atom_site_type_symbol
_atom_site_label
_atom_site_fract_x
_atom_site_fract_y
_atom_site_fract_z
Si Si1 0.112560 0.842940 0.113130
Si Si2 0.611207 0.246387 0.896329
Si Si3 0.114456 0.861493 0.964013
Si Si4 0.617781 0.365432 0.332540
Si Si5 0.117212 0.434797 0.709084
Si Si6 0.799718 0.431641 0.953436
Si Si7 0.110804 0.671739 0.025445
Si Si8 0.250000 0.750000 0.611530
O O1 0.140670 0.904615 0.142714
O O2 0.177075 0.793562 0.144969
O O3 0.000000 0.832727 0.126833
O O4 0.123119 0.841826 0.037349
O O5 0.500000 0.258629 0.878476
O O6 0.650668 0.308526 0.919260
O O7 0.651269 0.201028 0.845152
O O8 0.610268 0.207882 0.960096
O O9 0.186125 0.914974 0.954171
O O10 0.000000 0.872411 0.953444
O O11 0.500000 0.364740 0.336189
O O12 0.647440 0.393207 0.266278
O O13 0.655628 0.407196 0.388207
O O14 0.155082 0.500000 0.715171
O O15 0.000000 0.437976 0.712320
O O16 0.815837 0.500000 0.960393
O O17 0.848877 0.391720 0.007620
O O18 0.180878 0.707483 0.070905
O O19 0.000000 0.669587 0.048236
#
# Coordination Sequence:
#
# PCOD9368213 Si02
#       8
#    16  16  16  16  16  16  16   8
#     4  10  20  33  52  75 103 139 179 219 259 312
#     4   8  14  27  48  72  96 123 159 203 255 307
#     4  10  19  33  50  73 104 139 175 217 264 319
#     4   9  18  32  53  78 102 130 168 214 266 320
#     4   9  18  34  54  75 102 139 177 216 266 316
#     4  11  21  31  46  73 105 136 172 214 264 321
#     4  10  18  29  47  70  98 132 165 204 255 313
#     4  12  18  32  50  72 102 132 174 212 258 310
#
# _framework density 17.794180999999998
#
# number of rings (size 3 to 8) (size 9 to 14) (size 15 to 20)
#    0.000    2.267    2.667    2.000    0.000    4.000 
#    0.000    2.667    0.000    0.000    0.000    0.933 
#    0.000    2.133    0.000    0.000    0.000    0.000 
#
# Total GULP energy -167094.269007 kJ/mol
# GULP energy per Si atom -5569.808967 kJ/mol
# Density = 1.775368 g / cm^3
# Si number density = 17.794181 Si / 1000 Ang^3
#
#
#
# Elastic Constant Matrix: (Units=GPa)
#
#
# Indices 1 2 3 4 5 6 
#
# 1 77.4036 19.2224 10.7934 0.0000 0.0000 0.0000
# 2 19.2224 93.1607 35.7224 0.0000 0.0000 0.0000
# 3 10.7934 35.7224 36.1226 0.0000 0.0000 0.0000
# 4 0.0000 0.0000 0.0000 21.7808 0.0000 0.0000
# 5 0.0000 0.0000 0.0000 0.0000 1.9523 0.0000
# 6 0.0000 0.0000 0.0000 0.0000 0.0000 25.4765
#
#
#
# Elastic Compliance Matrix: (Units=1/GPa)
#
#
# Indices 1 2 3 4 5 6 
#
# 1 0.013715 -0.002027 -0.002093 0.000000 0.000000 0.000000
# 2 -0.002027 0.017590 -0.016790 0.000000 0.000000 0.000000
# 3 -0.002093 -0.016790 0.044913 0.000000 0.000000 0.000000
# 4 0.000000 0.000000 0.000000 0.045912 0.000000 0.000000
# 5 0.000000 0.000000 0.000000 0.000000 0.512213 0.000000
# 6 0.000000 0.000000 0.000000 0.000000 0.000000 0.039252
#
#
# Mechanical properties :
#
#
# Convention : Reuss Voigt Hill
#
# Bulk Modulus (GPa) = 29.07200 37.57370 33.32285
# Shear Modulus (GPa) = 6.87871 19.23851 13.05861
#
# Velocity S-wave (km/s) = 1.96827 3.29168 2.71194
# Velocity P-wave (km/s) = 4.64100 5.96728 5.34543
#
# Compressibility (1/GPa) = 0.03439735
#
# Stress axis : x y z
#
# Youngs Moduli (GPa) = 72.91491 56.84892 22.26539
#
# Poissons Ratio (x) = 0.11524 0.04661
# Poissons Ratio (y) = 0.14781 0.37383
# Poissons Ratio (z) = 0.15263 0.95449
#
# Static dielectric constant tensor:
#      x y z
#    x 1.639450 0.000000 0.000000 
#    y 0.000000 1.626550 0.000000 
#    z 0.000000 0.000000 1.607610 
# 
# From -- ./inp_files/25522.got.cif
#   From: 2010.05.17/outbox.cif.g08.bks.cpg/sg42_13_cif.got.tgz:25522.got - 2010.06.03 19:03:34.
