data_PCOD9368183
_publ_section_title
;
Structure prediction by ZEFSAII (Michael W. Deem and Ramdas Pophale) SiO2 
 PCOD9368183
Probable space group: F M M 2
;
_chemical_formula_sum "Si O2"
_cell_formula_units_Z 88
_cell_length_a 23.011432
_cell_length_b 14.659281
_cell_length_c 14.059517
_cell_angle_alpha 90.000000
_cell_angle_beta 90.000000
_cell_angle_gamma 90.000000
_cell_volume 4742.711603
_symmetry_space_group_name_H-M "F M M 2"
_symmetry_group_IT_number 42
_symmetry_cell_setting 'orthorhombic'
loop_
_space_group_symop_operation_xyz
x,y,z
-x,-y,z
-x,y,z
x,-y,z
x,1/2+y,1/2+z
-x,1/2-y,1/2+z
-x,1/2+y,1/2+z
x,1/2-y,1/2+z
1/2+x,y,1/2+z
1/2-x,-y,1/2+z
1/2-x,y,1/2+z
1/2+x,-y,1/2+z
1/2+x,1/2+y,z
1/2-x,1/2-y,z
1/2-x,1/2+y,z
1/2+x,1/2-y,z
loop_
_atom_site_type_symbol
_atom_site_label
_atom_site_fract_x
_atom_site_fract_y
_atom_site_fract_z
Si Si1 0.753556 0.500000 0.989751
Si Si2 0.629030 0.359723 0.719331
Si Si3 0.382662 0.854937 0.724360
Si Si4 0.431192 0.500000 0.076739
Si Si5 0.565623 0.000000 0.857785
Si Si6 0.742793 0.853427 0.647295
Si Si7 0.638576 0.500000 0.880284
Si Si8 0.612643 0.500000 0.554963
O O1 0.708731 0.500000 0.901393
O O2 0.737135 0.413831 0.054348
O O3 0.824521 0.500000 0.998001
O O4 0.609271 0.254450 0.722788
O O5 0.698552 0.371052 0.704738
O O6 0.618465 0.413711 0.816787
O O7 0.606781 0.413815 0.626025
O O8 0.403680 0.909227 0.817054
O O9 0.313693 0.867626 0.710825
O O10 0.413336 0.910961 0.639015
O O11 0.500000 0.500000 0.059239
O O12 0.393934 0.500000 0.980718
O O13 0.500000 0.000000 0.820516
O O14 0.567396 0.000000 0.970592
O O15 0.750000 0.750000 0.615462
#
# Coordination Sequence:
#
# PCOD9368183 Si02
#       8
#     8  16  16   8   8  16   8   8
#     4  10  17  33  57  84 115 159 180 236 300 347
#     4   9  21  37  58  86 124 149 190 238 304 362
#     4  10  19  38  59  84 118 154 189 251 293 344
#     4  11  23  40  62  85 114 158 211 246 286 347
#     4  11  24  40  59  87 115 154 214 250 282 346
#     4   9  17  33  55  86 118 151 188 231 292 364
#     4  11  21  36  58  90 120 150 197 243 296 354
#     4   9  21  39  58  82 120 157 198 235 294 360
#
# _framework density 18.554786
#
# number of rings (size 3 to 8) (size 9 to 14) (size 15 to 20)
#    0.000    2.182    1.818    2.182    2.545    1.455 
#    3.273    7.273    0.000    0.000    0.000    0.000 
#    0.000    0.000    0.000    0.000    0.000    0.000 
#
# Total GULP energy -122554.427508 kJ/mol
# GULP energy per Si atom -5570.655796 kJ/mol
# Density = 1.851255 g / cm^3
# Si number density = 18.554786 Si / 1000 Ang^3
#
#
#
# Elastic Constant Matrix: (Units=GPa)
#
#
# Indices 1 2 3 4 5 6 
#
# 1 53.2589 36.6577 19.8450 0.0000 0.0000 0.0000
# 2 36.6577 128.1529 62.4197 0.0000 0.0000 0.0000
# 3 19.8450 62.4197 106.1499 0.0000 0.0000 0.0000
# 4 0.0000 0.0000 0.0000 11.3334 0.0000 0.0000
# 5 0.0000 0.0000 0.0000 0.0000 15.6457 0.0000
# 6 0.0000 0.0000 0.0000 0.0000 0.0000 8.0844
#
#
#
# Elastic Compliance Matrix: (Units=1/GPa)
#
#
# Indices 1 2 3 4 5 6 
#
# 1 0.023408 -0.006396 -0.000615 0.000000 0.000000 0.000000
# 2 -0.006396 0.012683 -0.006262 0.000000 0.000000 0.000000
# 3 -0.000615 -0.006262 0.013218 0.000000 0.000000 0.000000
# 4 0.000000 0.000000 0.000000 0.088235 0.000000 0.000000
# 5 0.000000 0.000000 0.000000 0.000000 0.063915 0.000000
# 6 0.000000 0.000000 0.000000 0.000000 0.000000 0.123696
#
#
# Mechanical properties :
#
#
# Convention : Reuss Voigt Hill
#
# Bulk Modulus (GPa) = 43.93287 58.37850 51.15569
# Shear Modulus (GPa) = 13.91640 18.25532 16.08586
#
# Velocity S-wave (km/s) = 2.74161 3.14006 2.94758
# Velocity P-wave (km/s) = 5.80954 6.68414 6.26212
#
# Compressibility (1/GPa) = 0.02276200
#
# Stress axis : x y z
#
# Youngs Moduli (GPa) = 42.72077 78.84614 75.65444
#
# Poissons Ratio (x) = 0.50432 0.04653
# Poissons Ratio (y) = 0.27325 0.47376
# Poissons Ratio (z) = 0.02627 0.49375
#
# Static dielectric constant tensor:
#      x y z
#    x 1.662540 0.000000 0.000000 
#    y 0.000000 1.621630 0.000000 
#    z 0.000000 0.000000 1.622100 
# 
# From -- ./inp_files/16514.got.cif
#   From: 2010.05.17/outbox.cif.g08.bks.cpg/sg42_9_cif.got.tgz:16514.got - 2010.06.03 19:03:34.
