data_PCOD9368715
_publ_section_title
;
Structure prediction by ZEFSAII (Michael W. Deem and Ramdas Pophale) SiO2 
 PCOD9368715
Probable space group: F M M 2
;
_chemical_formula_sum "Si O2"
_cell_formula_units_Z 100
_cell_length_a 7.927892
_cell_length_b 21.127936
_cell_length_c 30.437168
_cell_angle_alpha 90.000000
_cell_angle_beta 90.000000
_cell_angle_gamma 90.000000
_cell_volume 5098.225481
_symmetry_space_group_name_H-M "F M M 2"
_symmetry_group_IT_number 42
_symmetry_cell_setting 'orthorhombic'
loop_
_space_group_symop_operation_xyz
x,y,z
-x,-y,z
-x,y,z
x,-y,z
x,1/2+y,1/2+z
-x,1/2-y,1/2+z
-x,1/2+y,1/2+z
x,1/2-y,1/2+z
1/2+x,y,1/2+z
1/2-x,-y,1/2+z
1/2-x,y,1/2+z
1/2+x,-y,1/2+z
1/2+x,1/2+y,z
1/2-x,1/2-y,z
1/2-x,1/2+y,z
1/2+x,1/2-y,z
loop_
_atom_site_type_symbol
_atom_site_label
_atom_site_fract_x
_atom_site_fract_y
_atom_site_fract_z
Si Si1 0.696611 0.321570 0.425650
Si Si2 0.796708 0.821667 0.655503
Si Si3 0.800181 0.070947 0.590312
Si Si4 0.000000 0.500000 0.348480
Si Si5 0.198008 0.570771 0.492018
Si Si6 0.695712 0.396956 0.339792
Si Si7 0.202737 0.177636 0.756200
O O1 0.500000 0.325820 0.434919
O O2 0.750000 0.250000 0.434523
O O3 0.776701 0.375579 0.456015
O O4 0.724136 0.340912 0.375134
O O5 0.750000 0.750000 0.643091
O O6 0.730699 0.874507 0.621896
O O7 0.741318 0.833462 0.705774
O O8 0.000000 0.824317 0.655720
O O9 0.779834 0.086250 0.538871
O O10 0.000000 0.067465 0.599158
O O11 0.729358 0.000000 0.597375
O O12 0.847870 0.445742 0.347611
O O13 0.256795 0.500000 0.477657
O O14 0.000000 0.566444 0.500389
O O15 0.500000 0.419385 0.346176
O O16 0.714636 0.369213 0.290942
O O17 0.250000 0.250000 0.766863
O O18 0.000000 0.170518 0.758464
#
# Coordination Sequence:
#
# PCOD9368715 Si02
#       7
#    16  16  16   4  16  16  16
#     4  11  25  41  63  92 122 156 204 255 302 367
#     4   9  19  34  56  87 116 155 202 248 304 364
#     4   9  18  36  57  81 114 156 202 250 303 364
#     4  12  26  44  68  90 132 172 200 268 308 370
#     4  10  22  38  61  86 117 158 202 247 308 374
#     4  11  25  43  65  95 127 167 214 253 309 374
#     4  10  19  36  60  90 122 164 208 259 314 370
#
# _framework density 19.614668999999999
#
# number of rings (size 3 to 8) (size 9 to 14) (size 15 to 20)
#    0.000    1.920    0.800    2.160    3.360    4.160 
#    1.440    1.600    0.000    0.000    0.000    0.000 
#    0.000    0.000    0.000    0.000    0.000    0.000 
#
# Total GULP energy -139225.194091 kJ/mol
# GULP energy per Si atom -5569.007764 kJ/mol
# Density = 1.957002 g / cm^3
# Si number density = 19.614669 Si / 1000 Ang^3
#
#
#
# Elastic Constant Matrix: (Units=GPa)
#
#
# Indices 1 2 3 4 5 6 
#
# 1 73.3867 26.5437 11.1503 0.0000 0.0000 0.0000
# 2 26.5437 111.7763 66.0384 0.0000 0.0000 0.0000
# 3 11.1503 66.0384 78.5701 0.0000 0.0000 0.0000
# 4 0.0000 0.0000 0.0000 131.4520 0.0000 0.0000
# 5 0.0000 0.0000 0.0000 0.0000 16.3806 0.0000
# 6 0.0000 0.0000 0.0000 0.0000 0.0000 33.4645
#
#
#
# Elastic Compliance Matrix: (Units=1/GPa)
#
#
# Indices 1 2 3 4 5 6 
#
# 1 0.015023 -0.004585 0.001721 0.000000 0.000000 0.000000
# 2 -0.004585 0.019170 -0.015462 0.000000 0.000000 0.000000
# 3 0.001721 -0.015462 0.025479 0.000000 0.000000 0.000000
# 4 0.000000 0.000000 0.000000 0.007607 0.000000 0.000000
# 5 0.000000 0.000000 0.000000 0.000000 0.061048 0.000000
# 6 0.000000 0.000000 0.000000 0.000000 0.000000 0.029882
#
#
# Mechanical properties :
#
#
# Convention : Reuss Voigt Hill
#
# Bulk Modulus (GPa) = 43.43686 52.35534 47.89610
# Shear Modulus (GPa) = 24.68717 46.92614 35.80666
#
# Velocity S-wave (km/s) = 3.55153 4.89652 4.27723
# Velocity P-wave (km/s) = 6.24588 7.66275 6.99031
#
# Compressibility (1/GPa) = 0.02302192
#
# Stress axis : x y z
#
# Youngs Moduli (GPa) = 66.56407 52.16429 39.24793
#
# Poissons Ratio (x) = 0.23915 -0.06756
# Poissons Ratio (y) = 0.30516 0.60685
# Poissons Ratio (z) = -0.11457 0.80656
#
# Static dielectric constant tensor:
#      x y z
#    x 1.703390 0.000000 0.000000 
#    y 0.000000 1.666390 0.000000 
#    z 0.000000 0.000000 1.682230 
# 
# From -- ./inp_files/31532.got.cif
#   From: 2010.05.17/outbox.cif.g08.bks.cpg/sg42_16_cif.got.tgz:31532.got - 2010.06.03 19:03:34.
