data_PCOD9368245
_publ_section_title
;
Structure prediction by ZEFSAII (Michael W. Deem and Ramdas Pophale) SiO2 
 PCOD9368245
Probable space group: F M M 2
;
_chemical_formula_sum "Si O2"
_cell_formula_units_Z 80
_cell_length_a 26.734435
_cell_length_b 8.828787
_cell_length_c 18.467542
_cell_angle_alpha 90.000000
_cell_angle_beta 90.000000
_cell_angle_gamma 90.000000
_cell_volume 4358.942548
_symmetry_space_group_name_H-M "F M M 2"
_symmetry_group_IT_number 42
_symmetry_cell_setting 'orthorhombic'
loop_
_space_group_symop_operation_xyz
x,y,z
-x,-y,z
-x,y,z
x,-y,z
x,1/2+y,1/2+z
-x,1/2-y,1/2+z
-x,1/2+y,1/2+z
x,1/2-y,1/2+z
1/2+x,y,1/2+z
1/2-x,-y,1/2+z
1/2-x,y,1/2+z
1/2+x,-y,1/2+z
1/2+x,1/2+y,z
1/2-x,1/2-y,z
1/2-x,1/2+y,z
1/2+x,1/2-y,z
loop_
_atom_site_type_symbol
_atom_site_label
_atom_site_fract_x
_atom_site_fract_y
_atom_site_fract_z
Si Si1 0.000000 0.319456 0.347510
Si Si2 0.197725 0.180720 0.104313
Si Si3 0.390311 0.824294 0.360771
Si Si4 0.895353 0.177896 0.686275
Si Si5 0.198773 0.179193 0.444362
Si Si6 0.000000 0.179078 0.189579
O O1 0.947271 0.293053 0.386567
O O2 0.000000 0.218778 0.275370
O O3 0.000000 0.500000 0.325906
O O4 0.250000 0.250000 0.132590
O O5 0.150776 0.235988 0.150576
O O6 0.200944 0.000000 0.102922
O O7 0.191794 0.244589 0.022945
O O8 0.391698 0.808558 0.273646
O O9 0.348742 0.719709 0.395789
O O10 0.378479 0.000000 0.377595
O O11 0.948594 0.246610 0.662030
O O12 0.893294 0.000000 0.668518
O O13 0.250000 0.250000 0.413212
O O14 0.204667 0.000000 0.452779
O O15 0.000000 0.000000 0.178034
#
# Coordination Sequence:
#
# PCOD9368245 Si02
#       6
#     8  16  16  16  16   8
#     4   8  16  32  53  76 107 144 175 211 263 317
#     4  11  22  38  58  79 106 140 179 221 270 324
#     4   9  18  34  56  81 108 139 176 218 262 310
#     4  10  20  36  57  81 110 143 180 221 265 314
#     4  11  22  37  56  77 105 141 179 219 267 320
#     4  10  18  30  51  80 111 142 177 217 265 317
#
# _framework density 18.353073999999999
#
# number of rings (size 3 to 8) (size 9 to 14) (size 15 to 20)
#    0.000    2.000    0.000    7.500    0.000    4.800 
#    0.000    1.000    0.000    1.200    0.000    0.000 
#    0.000    0.000    0.000    0.000    0.000    0.000 
#
# Total GULP energy -111625.331410 kJ/mol
# GULP energy per Si atom -5581.266571 kJ/mol
# Density = 1.831130 g / cm^3
# Si number density = 18.353074 Si / 1000 Ang^3
#
#
#
# Elastic Constant Matrix: (Units=GPa)
#
#
# Indices 1 2 3 4 5 6 
#
# 1 171.6882 91.7553 36.5072 0.0000 0.0000 0.0000
# 2 91.7553 170.5110 30.0395 0.0000 0.0000 0.0000
# 3 36.5072 30.0395 14.3742 0.0000 0.0000 0.0000
# 4 0.0000 0.0000 0.0000 23.7682 0.0000 0.0000
# 5 0.0000 0.0000 0.0000 0.0000 95.2967 0.0000
# 6 0.0000 0.0000 0.0000 0.0000 0.0000 35.5911
#
#
#
# Elastic Compliance Matrix: (Units=1/GPa)
#
#
# Indices 1 2 3 4 5 6 
#
# 1 0.013029 -0.001870 -0.029184 0.000000 0.000000 0.000000
# 2 -0.001870 0.009551 -0.015210 0.000000 0.000000 0.000000
# 3 -0.029184 -0.015210 0.175474 0.000000 0.000000 0.000000
# 4 0.000000 0.000000 0.000000 0.042073 0.000000 0.000000
# 5 0.000000 0.000000 0.000000 0.000000 0.010494 0.000000
# 6 0.000000 0.000000 0.000000 0.000000 0.000000 0.028097
#
#
# Mechanical properties :
#
#
# Convention : Reuss Voigt Hill
#
# Bulk Modulus (GPa) = 9.47619 74.79749 42.13684
# Shear Modulus (GPa) = 12.30253 44.14929 28.22591
#
# Velocity S-wave (km/s) = 2.59187 4.90996 3.92591
# Velocity P-wave (km/s) = 3.75920 8.54324 6.59994
#
# Compressibility (1/GPa) = 0.10552765
#
# Stress axis : x y z
#
# Youngs Moduli (GPa) = 76.74930 104.70638 5.69883
#
# Poissons Ratio (x) = 0.19580 0.16631
# Poissons Ratio (y) = 0.14352 0.08668
# Poissons Ratio (z) = 2.23984 1.59254
#
# Static dielectric constant tensor:
#      x y z
#    x 1.653880 0.000000 0.000000 
#    y 0.000000 1.613620 0.000000 
#    z 0.000000 0.000000 1.617570 
# 
# From -- ./inp_files/18318.got.cif
#   From: 2010.05.17/outbox.cif.g08.bks.cpg/sg42_10_cif.got.tgz:18318.got - 2010.06.03 19:03:34.
