data_PCOD9368928
_publ_section_title
;
Structure prediction by ZEFSAII (Michael W. Deem and Ramdas Pophale) SiO2 
 PCOD9368928
Probable space group: F M M 2
;
_chemical_formula_sum "Si O2"
_cell_formula_units_Z 80
_cell_length_a 15.784556
_cell_length_b 8.842819
_cell_length_c 29.605862
_cell_angle_alpha 90.000000
_cell_angle_beta 90.000000
_cell_angle_gamma 90.000000
_cell_volume 4132.385380
_symmetry_space_group_name_H-M "F M M 2"
_symmetry_group_IT_number 42
_symmetry_cell_setting 'orthorhombic'
loop_
_space_group_symop_operation_xyz
x,y,z
-x,-y,z
-x,y,z
x,-y,z
x,1/2+y,1/2+z
-x,1/2-y,1/2+z
-x,1/2+y,1/2+z
x,1/2-y,1/2+z
1/2+x,y,1/2+z
1/2-x,-y,1/2+z
1/2-x,y,1/2+z
1/2+x,-y,1/2+z
1/2+x,1/2+y,z
1/2-x,1/2-y,z
1/2-x,1/2+y,z
1/2+x,1/2-y,z
loop_
_atom_site_type_symbol
_atom_site_label
_atom_site_fract_x
_atom_site_fract_y
_atom_site_fract_z
Si Si1 0.000000 0.316216 0.038420
Si Si2 0.160525 0.318017 0.381401
Si Si3 0.661515 0.819484 0.096072
Si Si4 0.000000 0.817564 0.433409
Si Si5 0.398925 0.679283 0.781973
Si Si6 0.897814 0.676759 0.687982
O O1 0.916514 0.265411 0.065167
O O2 0.000000 0.500000 0.039995
O O3 0.000000 0.273382 0.986140
O O4 0.159764 0.500000 0.384960
O O5 0.250000 0.250000 0.396406
O O6 0.145740 0.277863 0.328591
O O7 0.082904 0.249014 0.409286
O O8 0.750000 0.750000 0.080869
O O9 0.643162 0.768849 0.147319
O O10 0.665597 0.000000 0.094064
O O11 0.000000 0.000000 0.430027
O O12 0.500000 0.705778 0.787996
O O13 0.387548 0.500000 0.774464
O O14 0.370475 0.767325 0.737425
O O15 0.879096 0.500000 0.682339
O O16 0.000000 0.697798 0.685605
#
# Coordination Sequence:
#
# PCOD9368928 Si02
#       6
#     8  16  16   8  16  16
#     4   9  22  43  66  89 118 155 198 247 308 367
#     4  11  23  41  63  93 126 163 207 252 303 364
#     4  11  22  40  63  89 121 159 200 246 299 358
#     4  11  23  43  68  93 122 157 200 255 314 371
#     4   9  18  35  58  83 119 165 206 246 295 352
#     4  10  20  34  56  89 124 159 203 246 292 353
#
# _framework density 19.359279000000001
#
# number of rings (size 3 to 8) (size 9 to 14) (size 15 to 20)
#    0.000    1.800    2.000    2.100    0.000    4.000 
#    0.000    8.000    0.000    0.000    0.000    0.000 
#    0.000    0.000    0.000    0.000    0.000    0.000 
#
# Total GULP energy -111788.004675 kJ/mol
# GULP energy per Si atom -5589.400234 kJ/mol
# Density = 1.931522 g / cm^3
# Si number density = 19.359279 Si / 1000 Ang^3
#
#
#
# Elastic Constant Matrix: (Units=GPa)
#
#
# Indices 1 2 3 4 5 6 
#
# 1 148.4321 60.3305 81.8728 0.0000 0.0000 0.0000
# 2 60.3305 60.9464 46.9703 0.0000 0.0000 0.0000
# 3 81.8728 46.9703 131.4375 0.0000 0.0000 0.0000
# 4 0.0000 0.0000 0.0000 22.5969 0.0000 0.0000
# 5 0.0000 0.0000 0.0000 0.0000 -5.9121 0.0000
# 6 0.0000 0.0000 0.0000 0.0000 0.0000 30.7694
#
#
#
# Elastic Compliance Matrix: (Units=1/GPa)
#
#
# Indices 1 2 3 4 5 6 
#
# 1 0.013233 -0.009311 -0.004915 0.000000 0.000000 0.000000
# 2 -0.009311 0.029196 -0.004634 0.000000 0.000000 0.000000
# 3 -0.004915 -0.004634 0.012326 0.000000 0.000000 0.000000
# 4 0.000000 0.000000 0.000000 0.044254 0.000000 0.000000
# 5 0.000000 0.000000 0.000000 0.000000 -0.169145 0.000000
# 6 0.000000 0.000000 0.000000 0.000000 0.000000 0.032500
#
#
# Mechanical properties :
#
#
# Convention : Reuss Voigt Hill
#
# Bulk Modulus (GPa) = 58.70408 79.90705 69.30556
# Shear Modulus (GPa) = 868.00646 19.60035 443.80341
#
# Velocity S-wave (km/s) = 21.19765 3.18536 15.15729
# Velocity P-wave (km/s) = 25.09004 7.40906 18.49870
#
# Compressibility (1/GPa) = 0.01703459
#
# Stress axis : x y z
#
# Youngs Moduli (GPa) = 75.57014 34.25181 81.13032
#
# Poissons Ratio (x) = 0.31891 0.39879
# Poissons Ratio (y) = 0.70362 0.37592
# Poissons Ratio (z) = 0.37146 0.15871
#
# Static dielectric constant tensor:
#      x y z
#    x 1.682720 0.000000 0.000000 
#    y 0.000000 1.645780 0.000000 
#    z 0.000000 0.000000 1.648750 
# 
# From -- ./inp_files/31293.got.cif
#   From: 2010.05.17/outbox.cif.g08.bks.cpg/sg42_16_cif.got.tgz:31293.got - 2010.06.03 19:03:34.
