data_PCOD9368053
_publ_section_title
;
Structure prediction by ZEFSAII (Michael W. Deem and Ramdas Pophale) SiO2 
 PCOD9368053
Probable space group: A B A 2
;
_chemical_formula_sum "Si O2"
_cell_formula_units_Z 26
_cell_length_a 9.000000
_cell_length_b 21.000000
_cell_length_c 15.000000
_cell_angle_alpha 90.000000
_cell_angle_beta 90.000000
_cell_angle_gamma 90.000000
_cell_volume 2835.000000
_symmetry_space_group_name_H-M "A B A 2"
_symmetry_group_IT_number 41
_symmetry_cell_setting 'orthorhombic'
loop_
_space_group_symop_operation_xyz
x,y,z
-x,-y,z
1/2-x,y,1/2+z
1/2+x,-y,1/2+z
x,1/2+y,1/2+z
-x,1/2-y,1/2+z
1/2-x,1/2+y,z
1/2+x,1/2-y,z
loop_
_atom_site_type_symbol
_atom_site_label
_atom_site_fract_x
_atom_site_fract_y
_atom_site_fract_z
Si Si1 0.552737 0.145305 0.753950
Si Si2 0.500000 0.000000 0.243043
Si Si3 0.719780 0.386255 0.821289
Si Si4 0.843476 0.669042 0.946484
Si Si5 0.183952 0.197997 0.485927
Si Si6 0.434491 0.208450 0.184936
Si Si7 0.683845 0.108695 0.134870
O O1 0.391227 0.114627 0.781092
O O2 0.654282 0.144752 0.844384
O O3 0.538626 0.218461 0.716331
O O4 0.652290 0.110746 0.678421
O O5 0.617352 0.951304 0.298979
O O6 0.405256 0.951543 0.178555
O O7 0.736032 0.358079 0.924629
O O8 0.639633 0.330294 0.765680
O O9 0.745482 0.732612 0.958869
O O10 0.012857 0.691659 0.958719
O O11 0.810818 0.618066 0.026452
O O12 0.169357 0.198657 0.595308
O O13 0.589465 0.171851 0.163924
#
# Coordination Sequence:
#
# PCOD9368053 Si02
#       7
#     8   4   8   8   8   8   8
#     4  11  20  34  62  96 123 157 215 273 334 386
#     4  10  24  46  62  78 130 186 226 256 318 390
#     4  10  22  38  60  90 127 173 218 262 320 397
#     4  10  21  34  57  92 127 158 195 264 326 386
#     4  10  20  33  56  92 129 155 201 260 336 384
#     4  10  19  34  59  92 130 158 200 271 341 391
#     4  10  22  39  59  86 122 173 208 263 317 388
#
# _framework density 9.1710759999999993
#
# number of rings (size 3 to 8) (size 9 to 14) (size 15 to 20)
#    0.000    1.846    3.077    0.923    4.308    0.615 
#    0.000    6.154    0.000    0.000    0.000    0.000 
#    0.000    0.000    0.000    0.000    0.000    0.000 
#
# Total GULP energy -144753.860811 kJ/mol
# GULP energy per Si atom -5567.456185 kJ/mol
# Density = 0.915020 g / cm^3
# Si number density = 9.171076 Si / 1000 Ang^3
#
#
#
# Elastic Constant Matrix: (Units=GPa)
#
#
# Indices 1 2 3 4 5 6 
#
# 1 71.3437 26.1103 17.7760 0.0000 0.0000 0.0000
# 2 26.1103 98.0351 24.5761 0.0000 0.0000 0.0000
# 3 17.7760 24.5761 114.7439 0.0000 0.0000 0.0000
# 4 0.0000 0.0000 0.0000 32.7321 0.0000 0.0000
# 5 0.0000 0.0000 0.0000 0.0000 35.4269 0.0000
# 6 0.0000 0.0000 0.0000 0.0000 0.0000 36.7848
#
#
#
# Elastic Compliance Matrix: (Units=1/GPa)
#
#
# Indices 1 2 3 4 5 6 
#
# 1 0.015816 -0.003802 -0.001636 0.000000 0.000000 0.000000
# 2 -0.003802 0.011693 -0.001915 0.000000 0.000000 0.000000
# 3 -0.001636 -0.001915 0.009379 0.000000 0.000000 0.000000
# 4 0.000000 0.000000 0.000000 0.030551 0.000000 0.000000
# 5 0.000000 0.000000 0.000000 0.000000 0.028227 0.000000
# 6 0.000000 0.000000 0.000000 0.000000 0.000000 0.027185
#
#
# Mechanical properties :
#
#
# Convention : Reuss Voigt Hill
#
# Bulk Modulus (GPa) = 45.08401 46.78306 45.93354
# Shear Modulus (GPa) = 34.49425 35.36611 34.93018
#
# Velocity S-wave (km/s) = 4.34129 4.39581 4.36864
# Velocity P-wave (km/s) = 7.05421 7.16417 7.10941
#
# Compressibility (1/GPa) = 0.02218081
#
# Stress axis : x y z
#
# Youngs Moduli (GPa) = 63.22802 85.51922 106.62423
#
# Poissons Ratio (x) = 0.32516 0.17441
# Poissons Ratio (y) = 0.24041 0.20423
# Poissons Ratio (z) = 0.10343 0.16381
#
# Static dielectric constant tensor:
#      x y z
#    x 1.668820 0.000000 0.000000 
#    y 0.000000 1.628820 0.000000 
#    z 0.000000 0.000000 1.706430 
# 
# From -- ./inp_files/7420.got.cif
#   From: 2010.05.17/outbox.ucp.g08.bks.cvg/sg41_4_cif.got.tgz:7420.got - 2010.06.11 16:28:22.
