data_PCOD9368757
_publ_section_title
;
Structure prediction by ZEFSAII (Michael W. Deem and Ramdas Pophale) SiO2 
 PCOD9368757
Probable space group: F M M 2
;
_chemical_formula_sum "Si O2"
_cell_formula_units_Z 112
_cell_length_a 22.023251
_cell_length_b 15.270289
_cell_length_c 16.840834
_cell_angle_alpha 90.000000
_cell_angle_beta 90.000000
_cell_angle_gamma 90.000000
_cell_volume 5663.596177
_symmetry_space_group_name_H-M "F M M 2"
_symmetry_group_IT_number 42
_symmetry_cell_setting 'orthorhombic'
loop_
_space_group_symop_operation_xyz
x,y,z
-x,-y,z
-x,y,z
x,-y,z
x,1/2+y,1/2+z
-x,1/2-y,1/2+z
-x,1/2+y,1/2+z
x,1/2-y,1/2+z
1/2+x,y,1/2+z
1/2-x,-y,1/2+z
1/2-x,y,1/2+z
1/2+x,-y,1/2+z
1/2+x,1/2+y,z
1/2-x,1/2-y,z
1/2-x,1/2+y,z
1/2+x,1/2-y,z
loop_
_atom_site_type_symbol
_atom_site_label
_atom_site_fract_x
_atom_site_fract_y
_atom_site_fract_z
Si Si1 0.929515 0.399119 0.100390
Si Si2 0.184780 0.654595 0.195787
Si Si3 0.318882 0.139460 0.659495
Si Si4 0.138795 0.594874 0.832403
Si Si5 0.730581 0.849264 0.375268
Si Si6 0.126658 0.902851 0.990669
Si Si7 0.571009 0.280576 0.448059
O O1 0.928201 0.500000 0.073533
O O2 0.878075 0.387738 0.167498
O O3 0.000000 0.379988 0.124648
O O4 0.912850 0.335582 0.027405
O O5 0.247273 0.613773 0.160510
O O6 0.181724 0.755246 0.167399
O O7 0.196314 0.654016 0.290339
O O8 0.352552 0.106058 0.738314
O O9 0.353688 0.109462 0.581750
O O10 0.110865 0.500000 0.850715
O O11 0.207259 0.599099 0.864798
O O12 0.104803 0.674908 0.874181
O O13 0.750000 0.750000 0.396846
O O14 0.687718 0.891877 0.439576
O O15 0.086790 0.820492 0.962969
O O16 0.100575 0.000000 0.978560
O O17 0.500000 0.290882 0.435541
#
# Coordination Sequence:
#
# PCOD9368757 Si02
#       7
#    16  16  16  16  16  16  16
#     4  10  22  39  63  96 130 169 216 262 313 377
#     4  10  19  38  64  90 131 172 210 259 314 375
#     4  10  21  38  61  97 129 166 207 259 323 386
#     4  11  22  40  66  95 129 164 210 268 323 376
#     4  11  21  40  63  94 130 167 207 258 322 384
#     4  12  25  40  64  95 129 167 212 261 321 390
#     4  11  24  44  67  89 125 171 217 268 316 375
#
# _framework density 19.775421999999999
#
# number of rings (size 3 to 8) (size 9 to 14) (size 15 to 20)
#    0.000    1.286    5.714    1.286    4.000    4.571 
#    0.000    3.571    0.000    1.714    0.000    0.000 
#    0.000    0.000    0.000    0.000    0.000    0.000 
#
# Total GULP energy -156386.536457 kJ/mol
# GULP energy per Si atom -5585.233445 kJ/mol
# Density = 1.973041 g / cm^3
# Si number density = 19.775422 Si / 1000 Ang^3
#
#
#
# Elastic Constant Matrix: (Units=GPa)
#
#
# Indices 1 2 3 4 5 6 
#
# 1 64.1425 20.2010 38.8671 0.0000 0.0000 0.0000
# 2 20.2010 132.2332 23.5787 0.0000 0.0000 0.0000
# 3 38.8671 23.5787 46.7293 0.0000 0.0000 0.0000
# 4 0.0000 0.0000 0.0000 -56.4713 0.0000 0.0000
# 5 0.0000 0.0000 0.0000 0.0000 23.6663 0.0000
# 6 0.0000 0.0000 0.0000 0.0000 0.0000 17.4855
#
#
#
# Elastic Compliance Matrix: (Units=1/GPa)
#
#
# Indices 1 2 3 4 5 6 
#
# 1 0.031435 -0.000154 -0.026068 0.000000 0.000000 0.000000
# 2 -0.000154 0.008311 -0.004065 0.000000 0.000000 0.000000
# 3 -0.026068 -0.004065 0.045133 0.000000 0.000000 0.000000
# 4 0.000000 0.000000 0.000000 -0.017708 0.000000 0.000000
# 5 0.000000 0.000000 0.000000 0.000000 0.042254 0.000000
# 6 0.000000 0.000000 0.000000 0.000000 0.000000 0.057190
#
#
# Mechanical properties :
#
#
# Convention : Reuss Voigt Hill
#
# Bulk Modulus (GPa) = 41.14572 45.37762 43.26167
# Shear Modulus (GPa) = 21.25022 7.63330 14.44176
#
# Velocity S-wave (km/s) = 3.28163 1.96682 2.70532
# Velocity P-wave (km/s) = 5.93384 5.30605 5.62870
#
# Compressibility (1/GPa) = 0.02430387
#
# Stress axis : x y z
#
# Youngs Moduli (GPa) = 31.81198 120.32494 22.15656
#
# Poissons Ratio (x) = 0.01853 0.57758
# Poissons Ratio (y) = 0.00490 0.09008
# Poissons Ratio (z) = 0.82928 0.48917
#
# Static dielectric constant tensor:
#      x y z
#    x 1.672450 0.000000 0.000000 
#    y 0.000000 1.748430 0.000000 
#    z 0.000000 0.000000 1.685100 
# 
# From -- ./inp_files/16571.got.cif
#   From: 2010.05.17/outbox.cif.g08.bks.cpg/sg42_9_cif.got.tgz:16571.got - 2010.06.03 19:03:34.
