data_PCOD9368993
_publ_section_title
;
Structure prediction by ZEFSAII (Michael W. Deem and Ramdas Pophale) SiO2 
 PCOD9368993
Probable space group: F M M 2
;
_chemical_formula_sum "Si O2"
_cell_formula_units_Z 80
_cell_length_a 15.952135
_cell_length_b 8.921161
_cell_length_c 29.440484
_cell_angle_alpha 90.000000
_cell_angle_beta 90.000000
_cell_angle_gamma 90.000000
_cell_volume 4189.721341
_symmetry_space_group_name_H-M "F M M 2"
_symmetry_group_IT_number 42
_symmetry_cell_setting 'orthorhombic'
loop_
_space_group_symop_operation_xyz
x,y,z
-x,-y,z
-x,y,z
x,-y,z
x,1/2+y,1/2+z
-x,1/2-y,1/2+z
-x,1/2+y,1/2+z
x,1/2-y,1/2+z
1/2+x,y,1/2+z
1/2-x,-y,1/2+z
1/2-x,y,1/2+z
1/2+x,-y,1/2+z
1/2+x,1/2+y,z
1/2-x,1/2-y,z
1/2-x,1/2+y,z
1/2+x,1/2-y,z
loop_
_atom_site_type_symbol
_atom_site_label
_atom_site_fract_x
_atom_site_fract_y
_atom_site_fract_z
Si Si1 0.658064 0.820576 0.375000
Si Si2 0.402883 0.327396 0.464004
Si Si3 0.664033 0.320890 0.052811
Si Si4 0.158161 0.680144 0.271125
Si Si5 0.500000 0.180740 0.610791
Si Si6 0.000000 0.318485 0.210445
O O1 0.750000 0.750000 0.380470
O O2 0.604503 0.748501 0.414943
O O3 0.631973 0.785287 0.323246
O O4 0.660315 0.000000 0.379922
O O5 0.500000 0.324822 0.478009
O O6 0.374490 0.500000 0.461607
O O7 0.351464 0.239144 0.501961
O O8 0.670163 0.500000 0.052206
O O9 0.750000 0.250000 0.070573
O O10 0.583514 0.277144 0.082886
O O11 0.166519 0.500000 0.268073
O O12 0.250000 0.750000 0.262604
O O13 0.084207 0.728598 0.237394
O O14 0.500000 0.254187 0.660041
O O15 0.500000 0.000000 0.615007
O O16 0.000000 0.500000 0.209332
#
# Coordination Sequence:
#
# PCOD9368993 Si02
#       6
#    16  16  16  16   8   8
#     4  10  20  35  57  82 117 158 199 241 287 343
#     4  11  23  37  56  86 122 157 199 244 290 346
#     4  11  23  42  65  89 119 156 198 242 295 353
#     4   9  20  38  60  87 119 156 198 242 289 347
#     4  10  24  44  63  88 119 151 194 245 297 358
#     4  10  22  40  63  88 117 153 194 243 299 354
#
# _framework density 19.094348
#
# number of rings (size 3 to 8) (size 9 to 14) (size 15 to 20)
#    0.000    1.800    1.000    2.400    1.400    5.200 
#    0.000    4.000    0.000    0.000    0.000    0.000 
#    0.000    0.000    0.000    0.000    0.000    0.000 
#
# Total GULP energy -111714.896222 kJ/mol
# GULP energy per Si atom -5585.744811 kJ/mol
# Density = 1.905089 g / cm^3
# Si number density = 19.094348 Si / 1000 Ang^3
#
#
#
# Elastic Constant Matrix: (Units=GPa)
#
#
# Indices 1 2 3 4 5 6 
#
# 1 135.3226 49.6298 84.7417 0.0000 0.0000 0.0000
# 2 49.6298 60.7263 49.7216 0.0000 0.0000 0.0000
# 3 84.7417 49.7216 129.4352 0.0000 0.0000 0.0000
# 4 0.0000 0.0000 0.0000 34.3026 0.0000 0.0000
# 5 0.0000 0.0000 0.0000 0.0000 18.9970 0.0000
# 6 0.0000 0.0000 0.0000 0.0000 0.0000 30.2022
#
#
#
# Elastic Compliance Matrix: (Units=1/GPa)
#
#
# Indices 1 2 3 4 5 6 
#
# 1 0.013729 -0.005632 -0.006825 0.000000 0.000000 0.000000
# 2 -0.005632 0.026334 -0.006428 0.000000 0.000000 0.000000
# 3 -0.006825 -0.006428 0.014664 0.000000 0.000000 0.000000
# 4 0.000000 0.000000 0.000000 0.029152 0.000000 0.000000
# 5 0.000000 0.000000 0.000000 0.000000 0.052640 0.000000
# 6 0.000000 0.000000 0.000000 0.000000 0.000000 0.033110
#
#
# Mechanical properties :
#
#
# Convention : Reuss Voigt Hill
#
# Bulk Modulus (GPa) = 58.97862 77.07448 68.02655
# Shear Modulus (GPa) = 23.46831 26.12642 24.79737
#
# Velocity S-wave (km/s) = 3.50961 3.70304 3.60762
# Velocity P-wave (km/s) = 6.88319 7.66394 7.28403
#
# Compressibility (1/GPa) = 0.01695530
#
# Stress axis : x y z
#
# Youngs Moduli (GPa) = 72.83622 37.97368 68.19552
#
# Poissons Ratio (x) = 0.21388 0.46544
# Poissons Ratio (y) = 0.41024 0.43839
# Poissons Ratio (z) = 0.49711 0.24411
#
# Static dielectric constant tensor:
#      x y z
#    x 1.649070 0.000000 0.000000 
#    y 0.000000 1.643120 0.000000 
#    z 0.000000 0.000000 1.643500 
# 
# From -- ./inp_files/31281.got.cif
#   From: 2010.05.17/outbox.cif.g08.bks.cpg/sg42_16_cif.got.tgz:31281.got - 2010.06.03 19:03:34.
