data_PCOD9368529
_publ_section_title
;
Structure prediction by ZEFSAII (Michael W. Deem and Ramdas Pophale) SiO2 
 PCOD9368529
Probable space group: F M M 2
;
_chemical_formula_sum "Si O2"
_cell_formula_units_Z 80
_cell_length_a 8.589858
_cell_length_b 26.914162
_cell_length_c 19.634726
_cell_angle_alpha 90.000000
_cell_angle_beta 90.000000
_cell_angle_gamma 90.000000
_cell_volume 4539.329327
_symmetry_space_group_name_H-M "F M M 2"
_symmetry_group_IT_number 42
_symmetry_cell_setting 'orthorhombic'
loop_
_space_group_symop_operation_xyz
x,y,z
-x,-y,z
-x,y,z
x,-y,z
x,1/2+y,1/2+z
-x,1/2-y,1/2+z
-x,1/2+y,1/2+z
x,1/2-y,1/2+z
1/2+x,y,1/2+z
1/2-x,-y,1/2+z
1/2-x,y,1/2+z
1/2+x,-y,1/2+z
1/2+x,1/2+y,z
1/2-x,1/2-y,z
1/2-x,1/2+y,z
1/2+x,1/2-y,z
loop_
_atom_site_type_symbol
_atom_site_label
_atom_site_fract_x
_atom_site_fract_y
_atom_site_fract_z
Si Si1 0.686708 0.196472 0.127490
Si Si2 0.183627 0.500000 0.219822
Si Si3 0.314496 0.110031 0.881231
Si Si4 0.315141 0.196466 0.475522
Si Si5 0.310531 0.107765 0.227358
Si Si6 0.813645 0.500000 0.870768
O O1 0.500000 0.198225 0.125161
O O2 0.750000 0.250000 0.150239
O O3 0.734611 0.152765 0.178468
O O4 0.748464 0.187767 0.051253
O O5 0.243013 0.445884 0.197602
O O6 0.216884 0.500000 0.300813
O O7 0.000000 0.500000 0.205933
O O8 0.500000 0.116938 0.883805
O O9 0.235071 0.151906 0.926548
O O10 0.257795 0.113591 0.803024
O O11 0.280576 0.053097 0.905134
O O12 0.500000 0.199875 0.479286
O O13 0.250000 0.250000 0.451908
O O14 0.500000 0.107001 0.232587
O O15 0.000000 0.500000 0.854497
#
# Coordination Sequence:
#
# PCOD9368529 Si02
#       6
#    16   8  16  16  16   8
#     4  10  20  35  53  73 100 133 169 207 252 304
#     4   8  14  28  49  72  99 131 165 203 249 296
#     4  10  19  33  54  79 106 135 170 210 252 299
#     4  11  22  37  55  74 100 134 172 212 258 307
#     4   9  18  32  52  77 103 132 168 209 251 297
#     4   8  16  30  49  74 103 135 167 203 249 298
#
# _framework density 17.623749
#
# number of rings (size 3 to 8) (size 9 to 14) (size 15 to 20)
#    0.000    2.400    0.000    4.200    0.000    3.200 
#    0.000    3.000    0.000    3.600    0.000    0.000 
#    0.000    0.000    0.000    0.000    0.000    0.000 
#
# Total GULP energy -111467.338127 kJ/mol
# GULP energy per Si atom -5573.366906 kJ/mol
# Density = 1.758364 g / cm^3
# Si number density = 17.623749 Si / 1000 Ang^3
#
#
#
# Elastic Constant Matrix: (Units=GPa)
#
#
# Indices 1 2 3 4 5 6 
#
# 1 57.6178 48.3504 22.9037 0.0000 0.0000 0.0000
# 2 48.3504 200.7238 84.3922 0.0000 0.0000 0.0000
# 3 22.9037 84.3922 52.5771 0.0000 0.0000 0.0000
# 4 0.0000 0.0000 0.0000 12.2672 0.0000 0.0000
# 5 0.0000 0.0000 0.0000 0.0000 23.9760 0.0000
# 6 0.0000 0.0000 0.0000 0.0000 0.0000 23.5522
#
#
#
# Elastic Compliance Matrix: (Units=1/GPa)
#
#
# Indices 1 2 3 4 5 6 
#
# 1 0.021938 -0.003895 -0.003305 0.000000 0.000000 0.000000
# 2 -0.003895 0.016014 -0.024007 0.000000 0.000000 0.000000
# 3 -0.003305 -0.024007 0.058993 0.000000 0.000000 0.000000
# 4 0.000000 0.000000 0.000000 0.081518 0.000000 0.000000
# 5 0.000000 0.000000 0.000000 0.000000 0.041708 0.000000
# 6 0.000000 0.000000 0.000000 0.000000 0.000000 0.042459
#
#
# Mechanical properties :
#
#
# Convention : Reuss Voigt Hill
#
# Bulk Modulus (GPa) = 28.95917 69.13457 49.04687
# Shear Modulus (GPa) = 14.85642 22.31057 18.58349
#
# Velocity S-wave (km/s) = 2.90656 3.56186 3.25076
# Velocity P-wave (km/s) = 5.26609 7.49860 6.47923
#
# Compressibility (1/GPa) = 0.03453137
#
# Stress axis : x y z
#
# Youngs Moduli (GPa) = 45.58321 62.44653 16.95104
#
# Poissons Ratio (x) = 0.24322 0.05602
# Poissons Ratio (y) = 0.17754 0.40695
# Poissons Ratio (z) = 0.15064 1.49916
#
# Static dielectric constant tensor:
#      x y z
#    x 1.602610 0.000000 0.000000 
#    y 0.000000 1.641690 0.000000 
#    z 0.000000 0.000000 1.555110 
# 
# From -- ./inp_files/18248.got.cif
#   From: 2010.05.17/outbox.cif.g08.bks.cpg/sg42_10_cif.got.tgz:18248.got - 2010.06.03 19:03:34.
