data_PCOD9368814
_publ_section_title
;
Structure prediction by ZEFSAII (Michael W. Deem and Ramdas Pophale) SiO2 
 PCOD9368814
Probable space group: F M M 2
;
_chemical_formula_sum "Si O2"
_cell_formula_units_Z 96
_cell_length_a 19.302482
_cell_length_b 8.791131
_cell_length_c 32.601754
_cell_angle_alpha 90.000000
_cell_angle_beta 90.000000
_cell_angle_gamma 90.000000
_cell_volume 5532.212759
_symmetry_space_group_name_H-M "F M M 2"
_symmetry_group_IT_number 42
_symmetry_cell_setting 'orthorhombic'
loop_
_space_group_symop_operation_xyz
x,y,z
-x,-y,z
-x,y,z
x,-y,z
x,1/2+y,1/2+z
-x,1/2-y,1/2+z
-x,1/2+y,1/2+z
x,1/2-y,1/2+z
1/2+x,y,1/2+z
1/2-x,-y,1/2+z
1/2-x,y,1/2+z
1/2+x,-y,1/2+z
1/2+x,1/2+y,z
1/2-x,1/2-y,z
1/2-x,1/2+y,z
1/2+x,1/2-y,z
loop_
_atom_site_type_symbol
_atom_site_label
_atom_site_fract_x
_atom_site_fract_y
_atom_site_fract_z
Si Si1 0.327771 0.181775 0.239340
Si Si2 0.672637 0.182154 0.148419
Si Si3 0.827946 0.817857 0.321532
Si Si4 0.919145 0.183349 0.488736
Si Si5 0.081364 0.818280 0.075980
Si Si6 0.827075 0.183392 0.411891
O O1 0.250000 0.250000 0.238253
O O2 0.356530 0.218740 0.194139
O O3 0.361692 0.250363 0.280346
O O4 0.323974 0.000000 0.243475
O O5 0.750000 0.250000 0.145268
O O6 0.625409 0.247532 0.112582
O O7 0.677071 0.000000 0.145325
O O8 0.750000 0.750000 0.322651
O O9 0.856921 0.778134 0.366591
O O10 0.824599 0.000000 0.317752
O O11 0.895732 0.255560 0.531637
O O12 0.874303 0.233360 0.449754
O O13 0.000000 0.222821 0.482714
O O14 0.914515 0.000000 0.491992
O O15 0.000000 0.778007 0.080601
O O16 0.087637 0.000000 0.076540
O O17 0.750000 0.250000 0.415508
O O18 0.822097 0.000000 0.413158
#
# Coordination Sequence:
#
# PCOD9368814 Si02
#       6
#    16  16  16  16  16  16
#     4   9  16  26  42  66  94 124 157 191 230 277
#     4  10  20  33  51  75 101 129 162 201 244 288
#     4   9  15  24  40  63  92 123 154 189 230 277
#     4   9  18  34  53  69  90 124 163 198 235 285
#     4  10  21  36  53  73  97 126 162 202 244 293
#     4   9  18  30  46  71  97 123 156 194 236 278
#
# _framework density 17.352912
#
# number of rings (size 3 to 8) (size 9 to 14) (size 15 to 20)
#    0.000    2.667    0.000    3.000    0.000    5.000 
#    0.000    1.667    0.000    1.000    0.000    2.333 
#    0.000    0.000    0.000    0.000    0.000    0.000 
#
# Total GULP energy -133684.225683 kJ/mol
# GULP energy per Si atom -5570.176070 kJ/mol
# Density = 1.731342 g / cm^3
# Si number density = 17.352912 Si / 1000 Ang^3
#
#
#
# Elastic Constant Matrix: (Units=GPa)
#
#
# Indices 1 2 3 4 5 6 
#
# 1 34.6753 21.0434 66.7046 0.0000 0.0000 0.0000
# 2 21.0434 45.2415 61.2517 0.0000 0.0000 0.0000
# 3 66.7046 61.2517 230.0006 0.0000 0.0000 0.0000
# 4 0.0000 0.0000 0.0000 39.6936 0.0000 0.0000
# 5 0.0000 0.0000 0.0000 0.0000 -12.6725 0.0000
# 6 0.0000 0.0000 0.0000 0.0000 0.0000 18.0018
#
#
#
# Elastic Compliance Matrix: (Units=1/GPa)
#
#
# Indices 1 2 3 4 5 6 
#
# 1 0.066854 -0.007578 -0.017371 0.000000 0.000000 0.000000
# 2 -0.007578 0.035426 -0.007237 0.000000 0.000000 0.000000
# 3 -0.017371 -0.007237 0.011313 0.000000 0.000000 0.000000
# 4 0.000000 0.000000 0.000000 0.025193 0.000000 0.000000
# 5 0.000000 0.000000 0.000000 0.000000 -0.078911 0.000000
# 6 0.000000 0.000000 0.000000 0.000000 0.000000 0.055550
#
#
# Mechanical properties :
#
#
# Convention : Reuss Voigt Hill
#
# Bulk Modulus (GPa) = 20.31615 67.54631 43.93123
# Shear Modulus (GPa) = 25.48386 19.73241 22.60814
#
# Velocity S-wave (km/s) = 3.83634 3.37579 3.61341
# Velocity P-wave (km/s) = 5.59968 7.36235 6.54066
#
# Compressibility (1/GPa) = 0.04922192
#
# Stress axis : x y z
#
# Youngs Moduli (GPa) = 14.95797 28.22806 88.39497
#
# Poissons Ratio (x) = 0.21391 1.53550
# Poissons Ratio (y) = 0.11335 0.63967
# Poissons Ratio (z) = 0.25983 0.20427
#
# Static dielectric constant tensor:
#      x y z
#    x 1.554020 0.000000 0.000000 
#    y 0.000000 1.580950 0.000000 
#    z 0.000000 0.000000 1.643660 
# 
# From -- ./inp_files/31415.got.cif
#   From: 2010.05.17/outbox.cif.g08.bks.cpg/sg42_16_cif.got.tgz:31415.got - 2010.06.03 19:03:34.
