data_PCOD9368307
_publ_section_title
;
Structure prediction by ZEFSAII (Michael W. Deem and Ramdas Pophale) SiO2 
 PCOD9368307
Probable space group: F M M 2
;
_chemical_formula_sum "Si O2"
_cell_formula_units_Z 96
_cell_length_a 29.111173
_cell_length_b 8.403526
_cell_length_c 21.198110
_cell_angle_alpha 90.000000
_cell_angle_beta 90.000000
_cell_angle_gamma 90.000000
_cell_volume 5185.831420
_symmetry_space_group_name_H-M "F M M 2"
_symmetry_group_IT_number 42
_symmetry_cell_setting 'orthorhombic'
loop_
_space_group_symop_operation_xyz
x,y,z
-x,-y,z
-x,y,z
x,-y,z
x,1/2+y,1/2+z
-x,1/2-y,1/2+z
-x,1/2+y,1/2+z
x,1/2-y,1/2+z
1/2+x,y,1/2+z
1/2-x,-y,1/2+z
1/2-x,y,1/2+z
1/2+x,-y,1/2+z
1/2+x,1/2+y,z
1/2-x,1/2-y,z
1/2-x,1/2+y,z
1/2+x,1/2-y,z
loop_
_atom_site_type_symbol
_atom_site_label
_atom_site_fract_x
_atom_site_fract_y
_atom_site_fract_z
Si Si1 0.392599 0.809135 0.798580
Si Si2 0.699581 0.810852 0.351339
Si Si3 0.946749 0.192624 0.676189
Si Si4 0.947324 0.694161 0.923109
Si Si5 0.395003 0.694274 0.549707
Si Si6 0.300403 0.309417 0.494282
O O1 0.340773 0.747815 0.805919
O O2 0.419449 0.749158 0.737527
O O3 0.419552 0.754101 0.861500
O O4 0.392099 0.000000 0.798339
O O5 0.750000 0.750000 0.332595
O O6 0.690717 0.746416 0.422367
O O7 0.700130 0.000000 0.353990
O O8 0.920022 0.247344 0.613296
O O9 0.000000 0.245805 0.676689
O O10 0.947136 0.000000 0.675598
O O11 0.947029 0.500000 0.923086
O O12 0.000000 0.746149 0.920386
O O13 0.923183 0.744794 0.987751
O O14 0.395311 0.500000 0.550518
O O15 0.342286 0.744245 0.538674
O O16 0.299884 0.500000 0.493256
O O17 0.250000 0.250000 0.513012
#
# Coordination Sequence:
#
# PCOD9368307 Si02
#       6
#    16  16  16  16  16  16
#     4  11  21  36  56  82 114 149 190 232 281 340
#     4  11  21  35  57  85 115 147 184 230 286 339
#     4  10  21  37  57  81 112 151 193 237 287 340
#     4   9  16  28  51  80 105 135 184 237 277 322
#     4   9  17  32  54  80 109 144 189 235 280 332
#     4  10  18  32  54  83 114 146 184 230 283 339
#
# _framework density 18.511979
#
# number of rings (size 3 to 8) (size 9 to 14) (size 15 to 20)
#    0.000    2.000    1.667    4.500    0.000    3.000 
#    0.000    2.500    0.000    2.000    0.000    0.000 
#    0.000    0.000    0.000    0.000    0.000    0.000 
#
# Total GULP energy -133993.276357 kJ/mol
# GULP energy per Si atom -5583.053182 kJ/mol
# Density = 1.846985 g / cm^3
# Si number density = 18.511979 Si / 1000 Ang^3
#
#
#
# Elastic Constant Matrix: (Units=GPa)
#
#
# Indices 1 2 3 4 5 6 
#
# 1 203.2831 33.7051 105.4052 0.0000 0.0000 0.0000
# 2 33.7051 40.7237 24.5445 -0.0001 0.0000 0.0001
# 3 105.4052 24.5445 151.2376 0.0000 0.0000 0.0000
# 4 0.0000 -0.0001 0.0000 18.1207 0.0000 0.0000
# 5 0.0000 0.0000 0.0000 0.0000 34.5789 0.0000
# 6 0.0000 0.0001 0.0000 0.0000 0.0000 3.9557
#
#
#
# Elastic Compliance Matrix: (Units=1/GPa)
#
#
# Indices 1 2 3 4 5 6 
#
# 1 0.008175 -0.003693 -0.005098 0.000000 0.000000 0.000000
# 2 -0.003693 0.028887 -0.002114 0.000000 0.000000 0.000000
# 3 -0.005098 -0.002114 0.010508 0.000000 0.000000 0.000000
# 4 0.000000 0.000000 0.000000 0.055185 0.000000 0.000000
# 5 0.000000 0.000000 0.000000 0.000000 0.028919 0.000000
# 6 0.000000 0.000000 0.000000 0.000000 0.000000 0.252798
#
#
# Mechanical properties :
#
#
# Convention : Reuss Voigt Hill
#
# Bulk Modulus (GPa) = 38.82130 80.28377 59.55253
# Shear Modulus (GPa) = 12.05194 26.77038 19.41116
#
# Velocity S-wave (km/s) = 2.55431 3.80690 3.24168
# Velocity P-wave (km/s) = 5.45121 7.92376 6.80080
#
# Compressibility (1/GPa) = 0.02575906
#
# Stress axis : x y z
#
# Youngs Moduli (GPa) = 122.32178 34.61801 95.16172
#
# Poissons Ratio (x) = 0.12786 0.48516
# Poissons Ratio (y) = 0.45179 0.20116
# Poissons Ratio (z) = 0.62363 0.07318
#
# Static dielectric constant tensor:
#      x y z
#    x 1.644600 0.000000 0.000000 
#    y 0.000000 1.640930 0.000000 
#    z 0.000000 0.000000 1.608430 
# 
# From -- ./inp_files/23734.got.cif
#   From: 2010.05.17/outbox.cif.g08.bks.cpg/sg42_12_cif.got.tgz:23734.got - 2010.06.03 19:03:34.
