data_PCOD9368128
_publ_section_title
;
Structure prediction by ZEFSAII (Michael W. Deem and Ramdas Pophale) SiO2 
 PCOD9368128
Probable space group: F M M 2
;
_chemical_formula_sum "Si O2"
_cell_formula_units_Z 96
_cell_length_a 19.295036
_cell_length_b 8.593753
_cell_length_c 32.719791
_cell_angle_alpha 90.000000
_cell_angle_beta 90.000000
_cell_angle_gamma 90.000000
_cell_volume 5425.490174
_symmetry_space_group_name_H-M "F M M 2"
_symmetry_group_IT_number 42
_symmetry_cell_setting 'orthorhombic'
loop_
_space_group_symop_operation_xyz
x,y,z
-x,-y,z
-x,y,z
x,-y,z
x,1/2+y,1/2+z
-x,1/2-y,1/2+z
-x,1/2+y,1/2+z
x,1/2-y,1/2+z
1/2+x,y,1/2+z
1/2-x,-y,1/2+z
1/2-x,y,1/2+z
1/2+x,-y,1/2+z
1/2+x,1/2+y,z
1/2-x,1/2-y,z
1/2-x,1/2+y,z
1/2+x,1/2-y,z
loop_
_atom_site_type_symbol
_atom_site_label
_atom_site_fract_x
_atom_site_fract_y
_atom_site_fract_z
Si Si1 0.329051 0.185311 0.243030
Si Si2 0.671713 0.312927 0.157725
Si Si3 0.671110 0.686552 0.326874
Si Si4 0.919799 0.187854 0.492954
Si Si5 0.080213 0.812412 0.080420
Si Si6 0.828118 0.187889 0.416778
O O1 0.250000 0.250000 0.243242
O O2 0.358676 0.249852 0.200563
O O3 0.361444 0.243685 0.285668
O O4 0.327116 0.000000 0.242367
O O5 0.673925 0.500000 0.159669
O O6 0.750000 0.250000 0.153469
O O7 0.626498 0.263566 0.118792
O O8 0.672485 0.500000 0.323095
O O9 0.750000 0.750000 0.328137
O O10 0.642485 0.729585 0.371695
O O11 0.894691 0.248448 0.536845
O O12 0.874376 0.242092 0.454655
O O13 0.000000 0.237114 0.488283
O O14 0.918329 0.000000 0.493533
O O15 0.000000 0.762797 0.085637
O O16 0.081405 0.000000 0.078832
O O17 0.750000 0.250000 0.420365
O O18 0.825289 0.000000 0.417836
#
# Coordination Sequence:
#
# PCOD9368128 Si02
#       6
#    16  16  16  16  16  16
#     4  10  17  26  42  65  93 122 153 187 225 271
#     4  10  19  31  48  70  96 122 151 190 231 272
#     4   9  15  25  41  62  90 121 152 186 225 269
#     4   9  18  33  51  69  91 121 156 191 228 273
#     4   9  19  35  52  69  90 120 157 192 228 273
#     4   9  18  30  46  70  96 122 153 190 230 270
#
# _framework density 17.694254000000001
#
# number of rings (size 3 to 8) (size 9 to 14) (size 15 to 20)
#    0.000    2.667    0.000    4.500    0.000    3.333 
#    0.000    3.333    0.000    1.000    0.000    4.667 
#    0.000    0.000    0.000    0.000    0.000    0.000 
#
# Total GULP energy -133697.104996 kJ/mol
# GULP energy per Si atom -5570.712708 kJ/mol
# Density = 1.765398 g / cm^3
# Si number density = 17.694254 Si / 1000 Ang^3
#
#
#
# Elastic Constant Matrix: (Units=GPa)
#
#
# Indices 1 2 3 4 5 6 
#
# 1 33.2200 13.9753 64.1793 0.0000 0.0000 0.0000
# 2 13.9753 52.0738 47.0715 0.0000 0.0000 0.0000
# 3 64.1793 47.0715 231.5058 0.0000 0.0000 0.0000
# 4 0.0000 0.0000 0.0000 32.1182 0.0000 0.0000
# 5 0.0000 0.0000 0.0000 0.0000 -10.5071 0.0000
# 6 0.0000 0.0000 0.0000 0.0000 0.0000 14.0075
#
#
#
# Elastic Compliance Matrix: (Units=1/GPa)
#
#
# Indices 1 2 3 4 5 6 
#
# 1 0.064902 -0.001414 -0.017705 0.000000 0.000000 0.000000
# 2 -0.001414 0.023559 -0.004398 0.000000 0.000000 0.000000
# 3 -0.017705 -0.004398 0.010122 0.000000 0.000000 0.000000
# 4 0.000000 0.000000 0.000000 0.031135 0.000000 0.000000
# 5 0.000000 0.000000 0.000000 0.000000 -0.095174 0.000000
# 6 0.000000 0.000000 0.000000 0.000000 0.000000 0.071390
#
#
# Mechanical properties :
#
#
# Convention : Reuss Voigt Hill
#
# Bulk Modulus (GPa) = 19.39906 63.02799 41.21352
# Shear Modulus (GPa) = 29.38550 19.89530 24.64040
#
# Velocity S-wave (km/s) = 4.07964 3.35684 3.73576
# Velocity P-wave (km/s) = 5.76008 7.12196 6.47692
#
# Compressibility (1/GPa) = 0.05154889
#
# Stress axis : x y z
#
# Youngs Moduli (GPa) = 15.40776 42.44733 98.79357
#
# Poissons Ratio (x) = 0.06001 1.74915
# Poissons Ratio (y) = 0.02178 0.43451
# Poissons Ratio (z) = 0.27280 0.18669
#
# Static dielectric constant tensor:
#      x y z
#    x 1.580020 0.000000 0.000000 
#    y 0.000000 1.600120 0.000000 
#    z 0.000000 0.000000 1.660660 
# 
# From -- ./inp_files/30431.got.cif
#   From: 2010.05.17/outbox.cif.g08.bks.cpg/sg42_16_cif.got.tgz:30431.got - 2010.06.03 19:03:34.
