data_PCOD9368627
_publ_section_title
;
Structure prediction by ZEFSAII (Michael W. Deem and Ramdas Pophale) SiO2 
 PCOD9368627
Probable space group: F M M 2
;
_chemical_formula_sum "Si O2"
_cell_formula_units_Z 88
_cell_length_a 17.322103
_cell_length_b 26.035695
_cell_length_c 9.176023
_cell_angle_alpha 90.000000
_cell_angle_beta 90.000000
_cell_angle_gamma 90.000000
_cell_volume 4138.322053
_symmetry_space_group_name_H-M "F M M 2"
_symmetry_group_IT_number 42
_symmetry_cell_setting 'orthorhombic'
loop_
_space_group_symop_operation_xyz
x,y,z
-x,-y,z
-x,y,z
x,-y,z
x,1/2+y,1/2+z
-x,1/2-y,1/2+z
-x,1/2+y,1/2+z
x,1/2-y,1/2+z
1/2+x,y,1/2+z
1/2-x,-y,1/2+z
1/2-x,y,1/2+z
1/2+x,-y,1/2+z
1/2+x,1/2+y,z
1/2-x,1/2-y,z
1/2-x,1/2+y,z
1/2+x,1/2-y,z
loop_
_atom_site_type_symbol
_atom_site_label
_atom_site_fract_x
_atom_site_fract_y
_atom_site_fract_z
Si Si1 0.087901 0.708313 0.257360
Si Si2 0.244480 0.000000 0.376640
Si Si3 0.182254 0.341672 0.474014
Si Si4 0.250000 0.250000 0.644177
Si Si5 0.913184 0.388652 0.038132
Si Si6 0.695661 0.891170 0.776387
Si Si7 0.148099 0.000000 0.646122
O O1 0.104756 0.685043 0.417674
O O2 0.166509 0.741982 0.225737
O O3 0.089383 0.659069 0.149429
O O4 0.000000 0.730541 0.248674
O O5 0.204951 0.950519 0.308954
O O6 0.331107 0.000000 0.316415
O O7 0.225706 0.000000 0.546533
O O8 0.237299 0.298525 0.541595
O O9 0.224496 0.365908 0.333536
O O10 0.175741 0.380069 0.609843
O O11 0.888477 0.444512 0.104929
O O12 0.000000 0.396281 0.989961
O O13 0.865038 0.373050 0.896346
#
# Coordination Sequence:
#
# PCOD9368627 Si02
#       7
#    16   8  16   8  16  16   8
#     4  11  25  45  67  98 134 175 230 280 340 412
#     4  10  20  32  58  92 128 164 216 269 321 400
#     4  12  23  40  66  95 126 173 221 278 331 392
#     4  12  24  44  70  92 130 178 222 280 344 396
#     4  10  21  39  61  91 132 176 219 270 333 402
#     4  11  21  38  63  96 133 171 224 269 329 398
#     4  10  19  34  58  92 125 168 214 273 326 398
#
# _framework density 21.264657
#
# number of rings (size 3 to 8) (size 9 to 14) (size 15 to 20)
#    0.000    1.091    3.636    4.091    0.000    1.455 
#    0.000    1.818    0.000    0.000    0.000    1.273 
#    0.000    0.000    0.000    0.182    0.000    0.091 
#
# Total GULP energy -122621.575109 kJ/mol
# GULP energy per Si atom -5573.707960 kJ/mol
# Density = 2.121626 g / cm^3
# Si number density = 21.264657 Si / 1000 Ang^3
#
#
#
# Elastic Constant Matrix: (Units=GPa)
#
#
# Indices 1 2 3 4 5 6 
#
# 1 136.7411 12.7843 28.8031 0.0000 0.0000 0.0000
# 2 12.7843 50.7061 2.3944 0.0000 0.0000 0.0000
# 3 28.8031 2.3944 64.3421 0.0000 0.0000 0.0000
# 4 0.0000 0.0000 0.0000 5.5120 0.0000 0.0000
# 5 0.0000 0.0000 0.0000 0.0000 23.2740 0.0000
# 6 0.0000 0.0000 0.0000 0.0000 0.0000 21.8904
#
#
#
# Elastic Compliance Matrix: (Units=1/GPa)
#
#
# Indices 1 2 3 4 5 6 
#
# 1 0.008255 -0.001910 -0.003624 0.000000 0.000000 0.000000
# 2 -0.001910 0.020198 0.000103 0.000000 0.000000 0.000000
# 3 -0.003624 0.000103 0.017161 0.000000 0.000000 0.000000
# 4 0.000000 0.000000 0.000000 0.181422 0.000000 0.000000
# 5 0.000000 0.000000 0.000000 0.000000 0.042966 0.000000
# 6 0.000000 0.000000 0.000000 0.000000 0.000000 0.045682
#
#
# Mechanical properties :
#
#
# Convention : Reuss Voigt Hill
#
# Bulk Modulus (GPa) = 28.77556 37.75031 33.26294
# Shear Modulus (GPa) = 14.78718 23.98911 19.38814
#
# Velocity S-wave (km/s) = 2.63988 3.36240 3.02280
# Velocity P-wave (km/s) = 4.78053 5.73284 5.27820
#
# Compressibility (1/GPa) = 0.03475171
#
# Stress axis : x y z
#
# Youngs Moduli (GPa) = 121.13705 49.50929 58.27319
#
# Poissons Ratio (x) = 0.09457 0.21120
# Poissons Ratio (y) = 0.23139 -0.00603
# Poissons Ratio (z) = 0.43904 -0.00512
#
# Static dielectric constant tensor:
#      x y z
#    x 1.825960 0.000000 0.000000 
#    y 0.000000 1.833830 0.000000 
#    z 0.000000 0.000000 1.810520 
# 
# From -- ./inp_files/3659.got.cif
#   From: 2010.05.17/outbox.cif.g08.bks.cpg/sg42_2_cif.got.tgz:3659.got - 2010.06.03 19:03:34.
