data_PCOD9368838
_publ_section_title
;
Structure prediction by ZEFSAII (Michael W. Deem and Ramdas Pophale) SiO2 
 PCOD9368838
Probable space group: F M M 2
;
_chemical_formula_sum "Si O2"
_cell_formula_units_Z 112
_cell_length_a 13.989186
_cell_length_b 14.521031
_cell_length_c 28.777095
_cell_angle_alpha 90.000000
_cell_angle_beta 90.000000
_cell_angle_gamma 90.000000
_cell_volume 5845.704361
_symmetry_space_group_name_H-M "F M M 2"
_symmetry_group_IT_number 42
_symmetry_cell_setting 'orthorhombic'
loop_
_space_group_symop_operation_xyz
x,y,z
-x,-y,z
-x,y,z
x,-y,z
x,1/2+y,1/2+z
-x,1/2-y,1/2+z
-x,1/2+y,1/2+z
x,1/2-y,1/2+z
1/2+x,y,1/2+z
1/2-x,-y,1/2+z
1/2-x,y,1/2+z
1/2+x,-y,1/2+z
1/2+x,1/2+y,z
1/2-x,1/2-y,z
1/2-x,1/2+y,z
1/2+x,1/2-y,z
loop_
_atom_site_type_symbol
_atom_site_label
_atom_site_fract_x
_atom_site_fract_y
_atom_site_fract_z
Si Si1 0.273717 0.145105 0.387300
Si Si2 0.111638 0.398759 0.477667
Si Si3 0.386385 0.774073 0.564925
Si Si4 0.389224 0.390510 0.699313
Si Si5 0.775500 0.889820 0.604905
Si Si6 0.114544 0.802034 0.796184
Si Si7 0.887111 0.098243 0.324609
O O1 0.250000 0.250000 0.399124
O O2 0.326849 0.104731 0.431223
O O3 0.338279 0.148327 0.340526
O O4 0.174903 0.100266 0.371322
O O5 0.124696 0.500000 0.500121
O O6 0.132705 0.318592 0.514344
O O7 0.000000 0.390391 0.464854
O O8 0.500000 0.774284 0.572907
O O9 0.328058 0.842306 0.599305
O O10 0.342365 0.672229 0.571023
O O11 0.500000 0.362680 0.689014
O O12 0.390306 0.500000 0.707388
O O13 0.321296 0.373320 0.655610
O O14 0.357079 0.342522 0.746687
O O15 0.775441 0.000000 0.596183
O O16 0.138263 0.693174 0.798902
O O17 0.000000 0.811937 0.800003
O O18 0.000000 0.102718 0.334098
O O19 0.867707 0.000000 0.300380
#
# Coordination Sequence:
#
# PCOD9368838 Si02
#       7
#    16  16  16  16  16  16  16
#     4  10  20  33  55  83 116 152 194 236 288 342
#     4  10  21  37  59  86 117 151 189 240 300 359
#     4  10  22  40  62  90 124 159 197 251 313 365
#     4   9  18  34  59  90 119 147 189 248 302 348
#     4  10  21  39  66  92 117 157 206 251 304 368
#     4   9  18  34  56  84 117 150 187 235 291 346
#     4   9  18  34  54  76 110 158 201 234 276 337
#
# _framework density 19.159368000000001
#
# number of rings (size 3 to 8) (size 9 to 14) (size 15 to 20)
#    0.000    2.429    0.000    1.714    2.000    3.429 
#    7.714    1.429    0.000    0.857    0.000    4.000 
#    0.000    0.000    0.000    0.000    0.000    0.000 
#
# Total GULP energy -156115.179934 kJ/mol
# GULP energy per Si atom -5575.542141 kJ/mol
# Density = 1.911576 g / cm^3
# Si number density = 19.159368 Si / 1000 Ang^3
#
#
#
# Elastic Constant Matrix: (Units=GPa)
#
#
# Indices 1 2 3 4 5 6 
#
# 1 83.0879 33.1807 40.6818 0.0000 0.0000 0.0000
# 2 33.1807 98.2654 37.9752 0.0000 0.0000 0.0000
# 3 40.6818 37.9752 84.0675 0.0000 0.0000 0.0000
# 4 0.0000 0.0000 0.0000 -2.2915 0.0000 0.0000
# 5 0.0000 0.0000 0.0000 0.0000 30.0622 0.0000
# 6 0.0000 0.0000 0.0000 0.0000 0.0000 19.1565
#
#
#
# Elastic Compliance Matrix: (Units=1/GPa)
#
#
# Indices 1 2 3 4 5 6 
#
# 1 0.016475 -0.003007 -0.006614 0.000000 0.000000 0.000000
# 2 -0.003007 0.012878 -0.004362 0.000000 0.000000 0.000000
# 3 -0.006614 -0.004362 0.017066 0.000000 0.000000 0.000000
# 4 0.000000 0.000000 0.000000 -0.436398 0.000000 0.000000
# 5 0.000000 0.000000 0.000000 0.000000 0.033264 0.000000
# 6 0.000000 0.000000 0.000000 0.000000 0.000000 0.052201
#
#
# Mechanical properties :
#
#
# Convention : Reuss Voigt Hill
#
# Bulk Modulus (GPa) = 54.19303 54.34403 54.26853
# Shear Modulus (GPa) = -18.49133 19.62432 0.56650
#
# Velocity S-wave (km/s) = -3.11003 3.20389 0.54435
# Velocity P-wave (km/s) = 3.93070 6.48940 5.36483
#
# Compressibility (1/GPa) = 0.01845256
#
# Stress axis : x y z
#
# Youngs Moduli (GPa) = 60.69936 77.65451 58.59495
#
# Poissons Ratio (x) = 0.23349 0.38755
# Poissons Ratio (y) = 0.18251 0.25559
# Poissons Ratio (z) = 0.40147 0.33873
#
# Static dielectric constant tensor:
#      x y z
#    x 1.688760 0.000000 0.000000 
#    y 0.000000 1.706340 0.000000 
#    z 0.000000 0.000000 1.638260 
# 
# From -- ./inp_files/32592.got.cif
#   From: 2010.05.17/outbox.cif.g08.bks.cpg/sg42_17_cif.got.tgz:32592.got - 2010.06.03 19:03:34.
