data_PCOD9368705
_publ_section_title
;
Structure prediction by ZEFSAII (Michael W. Deem and Ramdas Pophale) SiO2 
 PCOD9368705
Probable space group: F M M 2
;
_chemical_formula_sum "Si O2"
_cell_formula_units_Z 116
_cell_length_a 7.953454
_cell_length_b 30.372555
_cell_length_c 25.881695
_cell_angle_alpha 90.000000
_cell_angle_beta 90.000000
_cell_angle_gamma 90.000000
_cell_volume 6252.156145
_symmetry_space_group_name_H-M "F M M 2"
_symmetry_group_IT_number 42
_symmetry_cell_setting 'orthorhombic'
loop_
_space_group_symop_operation_xyz
x,y,z
-x,-y,z
-x,y,z
x,-y,z
x,1/2+y,1/2+z
-x,1/2-y,1/2+z
-x,1/2+y,1/2+z
x,1/2-y,1/2+z
1/2+x,y,1/2+z
1/2-x,-y,1/2+z
1/2-x,y,1/2+z
1/2+x,-y,1/2+z
1/2+x,1/2+y,z
1/2-x,1/2-y,z
1/2-x,1/2+y,z
1/2+x,1/2-y,z
loop_
_atom_site_type_symbol
_atom_site_label
_atom_site_fract_x
_atom_site_fract_y
_atom_site_fract_z
Si Si1 0.000000 0.000000 0.771036
Si Si2 0.200228 0.050552 0.133331
Si Si3 0.699741 0.605074 0.533989
Si Si4 0.700054 0.702729 0.399097
Si Si5 0.194127 0.567494 0.749472
Si Si6 0.696228 0.115228 0.341101
Si Si7 0.202397 0.702214 0.017879
Si Si8 0.796171 0.948976 0.433413
O O1 0.847502 0.962803 0.768845
O O2 0.272160 0.076435 0.084918
O O3 0.229672 0.073298 0.188594
O O4 0.000000 0.048413 0.125939
O O5 0.264481 0.000000 0.136688
O O6 0.500000 0.608620 0.525337
O O7 0.763269 0.655307 0.540257
O O8 0.765165 0.578859 0.483380
O O9 0.500000 0.699605 0.401629
O O10 0.750000 0.750000 0.376839
O O11 0.764359 0.661230 0.368136
O O12 0.763979 0.701390 0.458302
O O13 0.204412 0.608535 0.787908
O O14 0.000000 0.550215 0.752555
O O15 0.500000 0.113509 0.331037
O O16 0.743809 0.076577 0.381723
O O17 0.250000 0.750000 0.040458
O O18 0.000000 0.701641 0.018167
O O19 0.000000 0.949747 0.434740
O O20 0.738734 0.000000 0.434387
#
# Coordination Sequence:
#
# PCOD9368705 Si02
#       8
#     4  16  16  16  16  16  16  16
#     4  12  22  40  64  90 112 156 210 244 296 356
#     4  10  22  38  57  81 113 151 194 242 294 337
#     4  10  20  35  56  81 111 149 192 237 289 348
#     4  10  19  36  59  83 114 149 189 240 295 353
#     4  11  24  41  60  87 121 155 199 256 298 341
#     4  12  24  37  56  85 117 155 201 242 294 356
#     4   9  18  33  54  81 111 145 188 234 291 349
#     4  10  21  36  52  76 113 158 191 231 297 352
#
# _framework density 18.553599999999999
#
# number of rings (size 3 to 8) (size 9 to 14) (size 15 to 20)
#    0.000    1.655    2.759    2.276    1.931    2.759 
#    0.000    0.000    0.000    0.828    0.000    1.931 
#    0.000    0.000    0.000    0.000    0.000    0.000 
#
# Total GULP energy -161465.280086 kJ/mol
# GULP energy per Si atom -5567.768279 kJ/mol
# Density = 1.851137 g / cm^3
# Si number density = 18.553600 Si / 1000 Ang^3
#
#
#
# Elastic Constant Matrix: (Units=GPa)
#
#
# Indices 1 2 3 4 5 6 
#
# 1 58.5891 12.6678 6.1169 0.0000 0.0000 0.0000
# 2 12.6678 119.0631 53.0933 0.0000 0.0000 0.0000
# 3 6.1169 53.0933 90.6238 0.0000 0.0000 0.0000
# 4 0.0000 0.0000 0.0000 52.7867 0.0000 0.0000
# 5 0.0000 0.0000 0.0000 0.0000 18.6150 0.0000
# 6 0.0000 0.0000 0.0000 0.0000 0.0000 28.8261
#
#
#
# Elastic Compliance Matrix: (Units=1/GPa)
#
#
# Indices 1 2 3 4 5 6 
#
# 1 0.017471 -0.001804 -0.000122 0.000000 0.000000 0.000000
# 2 -0.001804 0.011555 -0.006648 0.000000 0.000000 0.000000
# 3 -0.000122 -0.006648 0.014938 0.000000 0.000000 0.000000
# 4 0.000000 0.000000 0.000000 0.018944 0.000000 0.000000
# 5 0.000000 0.000000 0.000000 0.000000 0.053720 0.000000
# 6 0.000000 0.000000 0.000000 0.000000 0.000000 0.034691
#
#
# Mechanical properties :
#
#
# Convention : Reuss Voigt Hill
#
# Bulk Modulus (GPa) = 37.29277 45.78135 41.53706
# Shear Modulus (GPa) = 28.18381 33.13877 30.66129
#
# Velocity S-wave (km/s) = 3.90172 4.23082 4.06960
# Velocity P-wave (km/s) = 6.35937 6.97103 6.67221
#
# Compressibility (1/GPa) = 0.02681485
#
# Stress axis : x y z
#
# Youngs Moduli (GPa) = 57.23806 86.53912 66.94428
#
# Poissons Ratio (x) = 0.15615 0.00818
# Poissons Ratio (y) = 0.10328 0.44506
# Poissons Ratio (z) = 0.00699 0.57533
#
# Static dielectric constant tensor:
#      x y z
#    x 1.661270 0.000000 0.000000 
#    y 0.000000 1.651670 0.000000 
#    z 0.000000 0.000000 1.634180 
# 
# From -- ./inp_files/28509.got.cif
#   From: 2010.05.17/outbox.cif.g08.bks.cpg/sg42_15_cif.got.tgz:28509.got - 2010.06.03 19:03:34.
