data_PCOD9368465
_publ_section_title
;
Structure prediction by ZEFSAII (Michael W. Deem and Ramdas Pophale) SiO2 
 PCOD9368465
Probable space group: F M M 2
;
_chemical_formula_sum "Si O2"
_cell_formula_units_Z 112
_cell_length_a 15.726071
_cell_length_b 16.660874
_cell_length_c 23.577301
_cell_angle_alpha 90.000000
_cell_angle_beta 90.000000
_cell_angle_gamma 90.000000
_cell_volume 6177.490697
_symmetry_space_group_name_H-M "F M M 2"
_symmetry_group_IT_number 42
_symmetry_cell_setting 'orthorhombic'
loop_
_space_group_symop_operation_xyz
x,y,z
-x,-y,z
-x,y,z
x,-y,z
x,1/2+y,1/2+z
-x,1/2-y,1/2+z
-x,1/2+y,1/2+z
x,1/2-y,1/2+z
1/2+x,y,1/2+z
1/2-x,-y,1/2+z
1/2-x,y,1/2+z
1/2+x,-y,1/2+z
1/2+x,1/2+y,z
1/2-x,1/2-y,z
1/2-x,1/2+y,z
1/2+x,1/2-y,z
loop_
_atom_site_type_symbol
_atom_site_label
_atom_site_fract_x
_atom_site_fract_y
_atom_site_fract_z
Si Si1 0.162202 0.787464 0.509100
Si Si2 0.101646 0.088785 0.416912
Si Si3 0.593959 0.171565 0.600758
Si Si4 0.099204 0.588617 0.210082
Si Si5 0.850014 0.244274 0.213329
Si Si6 0.102912 0.090179 0.286322
Si Si7 0.273285 0.089709 0.103188
O O1 0.250000 0.750000 0.487487
O O2 0.122829 0.839849 0.459353
O O3 0.108309 0.719144 0.541664
O O4 0.188374 0.847783 0.559287
O O5 0.130262 0.100640 0.351872
O O6 0.000000 0.084491 0.414329
O O7 0.132528 0.000000 0.435968
O O8 0.500000 0.134484 0.601754
O O9 0.601278 0.232684 0.653795
O O10 0.674639 0.113834 0.611276
O O11 0.110124 0.500000 0.237889
O O12 0.118231 0.672589 0.241661
O O13 0.167827 0.591132 0.159079
O O14 0.000000 0.591235 0.191315
O O15 0.750000 0.250000 0.201170
O O16 0.865220 0.164321 0.249538
O O17 0.000000 0.091477 0.284093
O O18 0.129746 0.000000 0.267478
O O19 0.277247 0.000000 0.080120
#
# Coordination Sequence:
#
# PCOD9368465 Si02
#       7
#    16  16  16  16  16  16  16
#     4  10  19  32  51  77 107 138 176 218 270 325
#     4   9  18  34  55  79 105 134 176 226 273 323
#     4  11  21  34  51  75 107 143 182 222 268 328
#     4  10  20  34  52  74 105 142 179 222 268 318
#     4  12  21  35  54  76 110 145 182 226 277 323
#     4   9  20  37  56  80 107 139 184 231 275 330
#     4  10  20  34  49  74 107 137 178 222 262 321
#
# _framework density 18.130338999999999
#
# number of rings (size 3 to 8) (size 9 to 14) (size 15 to 20)
#    0.000    1.857    2.857    3.429    0.000    2.571 
#    0.000    1.429    0.000    0.000    0.000    1.000 
#    0.000    4.571    0.000    0.000    0.000    0.000 
#
# Total GULP energy -156000.347767 kJ/mol
# GULP energy per Si atom -5571.440992 kJ/mol
# Density = 1.808907 g / cm^3
# Si number density = 18.130339 Si / 1000 Ang^3
#
#
#
# Elastic Constant Matrix: (Units=GPa)
#
#
# Indices 1 2 3 4 5 6 
#
# 1 87.1557 22.2461 14.2824 0.0000 0.0000 0.0000
# 2 22.2461 94.8597 30.2277 0.0000 0.0000 0.0000
# 3 14.2824 30.2277 53.6534 0.0000 0.0000 0.0000
# 4 0.0000 0.0000 0.0000 22.4585 0.0000 0.0000
# 5 0.0000 0.0000 0.0000 0.0000 11.7597 0.0000
# 6 0.0000 0.0000 0.0000 0.0000 0.0000 28.6433
#
#
#
# Elastic Compliance Matrix: (Units=1/GPa)
#
#
# Indices 1 2 3 4 5 6 
#
# 1 0.012382 -0.002259 -0.002023 0.000000 0.000000 0.000000
# 2 -0.002259 0.013261 -0.006870 0.000000 0.000000 0.000000
# 3 -0.002023 -0.006870 0.023047 0.000000 0.000000 0.000000
# 4 0.000000 0.000000 0.000000 0.044527 0.000000 0.000000
# 5 0.000000 0.000000 0.000000 0.000000 0.085036 0.000000
# 6 0.000000 0.000000 0.000000 0.000000 0.000000 0.034912
#
#
# Mechanical properties :
#
#
# Convention : Reuss Voigt Hill
#
# Bulk Modulus (GPa) = 37.89922 41.02012 39.45967
# Shear Modulus (GPa) = 20.46972 23.83315 22.15144
#
# Velocity S-wave (km/s) = 3.36375 3.62960 3.49920
# Velocity P-wave (km/s) = 6.00296 6.34347 6.17556
#
# Compressibility (1/GPa) = 0.02638577
#
# Stress axis : x y z
#
# Youngs Moduli (GPa) = 80.76313 75.41083 43.38960
#
# Poissons Ratio (x) = 0.17035 0.08779
# Poissons Ratio (y) = 0.18244 0.29807
# Poissons Ratio (z) = 0.16341 0.51804
#
# Static dielectric constant tensor:
#      x y z
#    x 1.647210 0.000000 0.000000 
#    y 0.000000 1.687220 0.000000 
#    z 0.000000 0.000000 1.611460 
# 
# From -- ./inp_files/32602.got.cif
#   From: 2010.05.17/outbox.cif.g08.bks.cpg/sg42_17_cif.got.tgz:32602.got - 2010.06.03 19:03:34.
