data_PCOD9368807
_publ_section_title
;
Structure prediction by ZEFSAII (Michael W. Deem and Ramdas Pophale) SiO2 
 PCOD9368807
Probable space group: F M M 2
;
_chemical_formula_sum "Si O2"
_cell_formula_units_Z 96
_cell_length_a 19.233744
_cell_length_b 7.616790
_cell_length_c 32.089493
_cell_angle_alpha 90.000000
_cell_angle_beta 90.000000
_cell_angle_gamma 90.000000
_cell_volume 4701.091117
_symmetry_space_group_name_H-M "F M M 2"
_symmetry_group_IT_number 42
_symmetry_cell_setting 'orthorhombic'
loop_
_space_group_symop_operation_xyz
x,y,z
-x,-y,z
-x,y,z
x,-y,z
x,1/2+y,1/2+z
-x,1/2-y,1/2+z
-x,1/2+y,1/2+z
x,1/2-y,1/2+z
1/2+x,y,1/2+z
1/2-x,-y,1/2+z
1/2-x,y,1/2+z
1/2+x,-y,1/2+z
1/2+x,1/2+y,z
1/2-x,1/2-y,z
1/2-x,1/2+y,z
1/2+x,1/2-y,z
loop_
_atom_site_type_symbol
_atom_site_label
_atom_site_fract_x
_atom_site_fract_y
_atom_site_fract_z
Si Si1 0.669190 0.789115 0.981040
Si Si2 0.580520 0.214058 0.058784
Si Si3 0.921411 0.708113 0.308355
Si Si4 0.831052 0.791135 0.388139
Si Si5 0.080703 0.714281 0.151828
Si Si6 0.668482 0.211203 0.230661
O O1 0.750000 0.750000 0.987866
O O2 0.651605 0.721876 0.934570
O O3 0.660195 0.000000 0.980000
O O4 0.625007 0.721150 0.019862
O O5 0.500000 0.262255 0.053568
O O6 0.602383 0.270528 0.105255
O O7 0.583743 0.000000 0.058728
O O8 0.927387 0.500000 0.300963
O O9 0.881556 0.728931 0.351885
O O10 0.873589 0.779194 0.270903
O O11 0.000000 0.780203 0.309014
O O12 0.750000 0.750000 0.379330
O O13 0.837012 0.000000 0.389470
O O14 0.081155 0.500000 0.151969
O O15 0.131042 0.775354 0.188517
O O16 0.000000 0.765622 0.158832
O O17 0.750000 0.250000 0.232548
O O18 0.662509 0.000000 0.230484
#
# Coordination Sequence:
#
# PCOD9368807 Si02
#       6
#    16  16  16  16  16  16
#     4   9  18  31  48  71  98 127 158 195 238 282
#     4   8  14  26  46  71  96 123 158 198 236 276
#     4  10  21  36  53  73  98 128 162 202 247 294
#     4  10  20  34  52  73  99 131 166 204 245 290
#     4   8  14  27  48  71  94 123 160 198 234 277
#     4  10  20  33  50  73  99 126 158 196 239 286
#
# _framework density 20.420791000000001
#
# number of rings (size 3 to 8) (size 9 to 14) (size 15 to 20)
#    0.000    2.833    0.000    2.500    0.000    6.333 
#    0.000    1.667    0.000    2.000    0.000    2.333 
#    0.000    0.000    0.000    0.000    0.000    0.000 
#
# Total GULP energy -133903.284206 kJ/mol
# GULP energy per Si atom -5579.303509 kJ/mol
# Density = 2.037431 g / cm^3
# Si number density = 20.420791 Si / 1000 Ang^3
#
#
#
# Elastic Constant Matrix: (Units=GPa)
#
#
# Indices 1 2 3 4 5 6 
#
# 1 151.2737 2.1277 150.1443 0.0000 0.0000 0.0000
# 2 2.1277 42.4497 5.4709 0.0000 0.0000 0.0000
# 3 150.1443 5.4709 230.4592 0.0000 0.0000 0.0000
# 4 0.0000 0.0000 0.0000 1.9523 0.0000 0.0000
# 5 0.0000 0.0000 0.0000 0.0000 47.2857 0.0000
# 6 0.0000 0.0000 0.0000 0.0000 0.0000 17.6024
#
#
#
# Elastic Compliance Matrix: (Units=1/GPa)
#
#
# Indices 1 2 3 4 5 6 
#
# 1 0.018725 0.000636 -0.012214 0.000000 0.000000 0.000000
# 2 0.000636 0.023651 -0.000976 0.000000 0.000000 0.000000
# 3 -0.012214 -0.000976 0.012320 0.000000 0.000000 0.000000
# 4 0.000000 0.000000 0.000000 0.512214 0.000000 0.000000
# 5 0.000000 0.000000 0.000000 0.000000 0.021148 0.000000
# 6 0.000000 0.000000 0.000000 0.000000 0.000000 0.056810
#
#
# Mechanical properties :
#
#
# Convention : Reuss Voigt Hill
#
# Bulk Modulus (GPa) = 33.79818 82.18538 57.99178
# Shear Modulus (GPa) = 7.35469 31.13072 19.24271
#
# Velocity S-wave (km/s) = 1.89984 3.90867 3.07304
# Velocity P-wave (km/s) = 4.62594 7.79125 6.40714
#
# Compressibility (1/GPa) = 0.02958739
#
# Stress axis : x y z
#
# Youngs Moduli (GPa) = 53.40574 42.28118 81.16974
#
# Poissons Ratio (x) = -0.02687 0.99142
# Poissons Ratio (y) = -0.03395 0.07919
# Poissons Ratio (z) = 0.65231 0.04125
#
# Static dielectric constant tensor:
#      x y z
#    x 1.675330 0.000000 0.000000 
#    y 0.000000 1.786370 0.000000 
#    z 0.000000 0.000000 1.741350 
# 
# From -- ./inp_files/31422.got.cif
#   From: 2010.05.17/outbox.cif.g08.bks.cpg/sg42_16_cif.got.tgz:31422.got - 2010.06.03 19:03:34.
