data_PCOD9368509
_publ_section_title
;
Structure prediction by ZEFSAII (Michael W. Deem and Ramdas Pophale) SiO2 
 PCOD9368509
Probable space group: F M M 2
;
_chemical_formula_sum "Si O2"
_cell_formula_units_Z 128
_cell_length_a 20.066727
_cell_length_b 19.906111
_cell_length_c 19.252337
_cell_angle_alpha 90.000000
_cell_angle_beta 90.000000
_cell_angle_gamma 90.000000
_cell_volume 7690.355546
_symmetry_space_group_name_H-M "F M M 2"
_symmetry_group_IT_number 42
_symmetry_cell_setting 'orthorhombic'
loop_
_space_group_symop_operation_xyz
x,y,z
-x,-y,z
-x,y,z
x,-y,z
x,1/2+y,1/2+z
-x,1/2-y,1/2+z
-x,1/2+y,1/2+z
x,1/2-y,1/2+z
1/2+x,y,1/2+z
1/2-x,-y,1/2+z
1/2-x,y,1/2+z
1/2+x,-y,1/2+z
1/2+x,1/2+y,z
1/2-x,1/2-y,z
1/2-x,1/2+y,z
1/2+x,1/2-y,z
loop_
_atom_site_type_symbol
_atom_site_label
_atom_site_fract_x
_atom_site_fract_y
_atom_site_fract_z
Si Si1 0.685195 0.076291 0.533350
Si Si2 0.185195 0.923709 0.339194
Si Si3 0.577430 0.707307 0.869263
Si Si4 0.424379 0.169727 0.768966
Si Si5 0.664297 0.922901 0.366789
Si Si6 0.577430 0.792693 0.003281
Si Si7 0.164297 0.577099 0.005755
Si Si8 0.424379 0.830273 0.603578
O O1 0.672861 0.077404 0.450458
O O2 0.763725 0.092045 0.540086
O O3 0.633199 0.124062 0.571072
O O4 0.674868 0.000000 0.557740
O O5 0.133199 0.875938 0.301472
O O6 0.263725 0.907955 0.332459
O O7 0.172861 0.922596 0.422086
O O8 0.174868 0.000000 0.314804
O O9 0.500000 0.692283 0.884797
O O10 0.581266 0.757601 0.804531
O O11 0.614644 0.638175 0.853499
O O12 0.603658 0.750000 0.936272
O O13 0.500000 0.144903 0.785588
O O14 0.418085 0.172989 0.686272
O O15 0.645002 0.000000 0.347888
O O16 0.500000 0.807717 0.987747
O O17 0.581267 0.742398 0.068014
O O18 0.614644 0.861825 0.019046
O O19 0.145002 0.500000 0.024656
O O20 0.500000 0.855097 0.586957
#
# Coordination Sequence:
#
# PCOD9368509 Si02
#       8
#    16  16  16  16  16  16  16  16
#     4   9  18  33  51  75 107 139 176 217 260 318
#     4   9  18  33  51  75 107 139 176 217 260 318
#     4  10  19  33  53  78 106 138 180 224 263 312
#     4  10  21  36  53  77 111 145 176 219 274 324
#     4   9  18  33  53  77 105 137 175 222 268 307
#     4  10  19  33  53  78 106 138 180 224 263 312
#     4   9  18  33  53  77 105 137 175 222 268 307
#     4  10  21  36  53  77 111 145 176 219 274 324
#
# _framework density 16.644224000000001
#
# number of rings (size 3 to 8) (size 9 to 14) (size 15 to 20)
#    0.000    2.500    2.500    1.500    0.000    2.500 
#    0.000    6.250    0.000    2.250    0.000    3.500 
#    0.000    0.000    0.000    0.000    0.000    0.000 
#
# Total GULP energy -178212.218419 kJ/mol
# GULP energy per Si atom -5569.131826 kJ/mol
# Density = 1.660634 g / cm^3
# Si number density = 16.644224 Si / 1000 Ang^3
#
#
#
# Elastic Constant Matrix: (Units=GPa)
#
#
# Indices 1 2 3 4 5 6 
#
# 1 108.4130 99.7140 39.3134 0.0000 0.0000 0.0000
# 2 99.7140 126.3937 32.2410 0.0000 0.0000 0.0000
# 3 39.3134 32.2410 50.0116 0.0000 0.0000 0.0000
# 4 0.0000 0.0000 0.0000 13.2868 0.0000 0.0000
# 5 0.0000 0.0000 0.0000 0.0000 22.6813 0.0000
# 6 0.0000 0.0000 0.0000 0.0000 0.0000 36.3644
#
#
#
# Elastic Compliance Matrix: (Units=1/GPa)
#
#
# Indices 1 2 3 4 5 6 
#
# 1 0.039780 -0.028013 -0.013211 0.000000 0.000000 0.000000
# 2 -0.028013 0.029196 0.003199 0.000000 0.000000 0.000000
# 3 -0.013211 0.003199 0.028318 0.000000 0.000000 0.000000
# 4 0.000000 0.000000 0.000000 0.075263 0.000000 0.000000
# 5 0.000000 0.000000 0.000000 0.000000 0.044089 0.000000
# 6 0.000000 0.000000 0.000000 0.000000 0.000000 0.027499
#
#
# Mechanical properties :
#
#
# Convention : Reuss Voigt Hill
#
# Bulk Modulus (GPa) = 47.07357 69.70613 58.38985
# Shear Modulus (GPa) = 15.27754 22.03649 18.65701
#
# Velocity S-wave (km/s) = 3.03295 3.64259 3.35166
# Velocity P-wave (km/s) = 6.37250 7.72414 7.08064
#
# Compressibility (1/GPa) = 0.02124334
#
# Stress axis : x y z
#
# Youngs Moduli (GPa) = 25.13807 34.25144 35.31289
#
# Poissons Ratio (x) = 0.95950 0.46653
# Poissons Ratio (y) = 0.70420 -0.11297
# Poissons Ratio (z) = 0.33211 -0.10957
#
# Static dielectric constant tensor:
#      x y z
#    x 1.577050 0.000000 0.000000 
#    y 0.000000 1.552510 0.000000 
#    z 0.000000 0.000000 1.553910 
# 
# From -- ./inp_files/21927.got.cif
#   From: 2010.05.17/outbox.cif.g08.bks.cpg/sg42_11_cif.got.tgz:21927.got - 2010.06.03 19:03:34.
