data_PCOD9368695
_publ_section_title
;
Structure prediction by ZEFSAII (Michael W. Deem and Ramdas Pophale) SiO2 
 PCOD9368695
Probable space group: F M M 2
;
_chemical_formula_sum "Si O2"
_cell_formula_units_Z 96
_cell_length_a 13.737982
_cell_length_b 14.331723
_cell_length_c 24.218061
_cell_angle_alpha 90.000000
_cell_angle_beta 90.000000
_cell_angle_gamma 90.000000
_cell_volume 4768.268664
_symmetry_space_group_name_H-M "F M M 2"
_symmetry_group_IT_number 42
_symmetry_cell_setting 'orthorhombic'
loop_
_space_group_symop_operation_xyz
x,y,z
-x,-y,z
-x,y,z
x,-y,z
x,1/2+y,1/2+z
-x,1/2-y,1/2+z
-x,1/2+y,1/2+z
x,1/2-y,1/2+z
1/2+x,y,1/2+z
1/2-x,-y,1/2+z
1/2-x,y,1/2+z
1/2+x,-y,1/2+z
1/2+x,1/2+y,z
1/2-x,1/2-y,z
1/2-x,1/2+y,z
1/2+x,1/2-y,z
loop_
_atom_site_type_symbol
_atom_site_label
_atom_site_fract_x
_atom_site_fract_y
_atom_site_fract_z
Si Si1 0.615444 0.099859 0.793140
Si Si2 0.381942 0.105907 0.439099
Si Si3 0.724523 0.643652 0.714278
Si Si4 0.883131 0.692804 0.324221
Si Si5 0.203694 0.395545 0.093666
Si Si6 0.614868 0.206158 0.551722
O O1 0.500000 0.104729 0.783612
O O2 0.675349 0.100490 0.736359
O O3 0.643415 0.196947 0.822639
O O4 0.636020 0.000000 0.821514
O O5 0.500000 0.102743 0.436879
O O6 0.348252 0.143129 0.379822
O O7 0.359190 0.175301 0.489244
O O8 0.348012 0.000000 0.449749
O O9 0.750000 0.750000 0.700459
O O10 0.656455 0.645744 0.768388
O O11 0.680713 0.602800 0.658885
O O12 0.000000 0.687631 0.323427
O O13 0.191456 0.500000 0.071110
O O14 0.315559 0.360240 0.088120
O O15 0.142599 0.313260 0.064604
O O16 0.500000 0.191248 0.560706
#
# Coordination Sequence:
#
# PCOD9368695 Si02
#       6
#    16  16  16  16  16  16
#     4   9  18  33  53  80 117 157 195 234 282 347
#     4   9  18  36  62  88 113 149 202 254 296 349
#     4  10  19  36  55  84 120 159 192 241 295 355
#     4   9  19  35  59  89 119 150 190 242 297 356
#     4  11  23  40  61  90 125 159 203 254 303 363
#     4  10  22  42  64  86 119 161 206 255 304 351
#
# _framework density 20.133092999999999
#
# number of rings (size 3 to 8) (size 9 to 14) (size 15 to 20)
#    0.000    2.333    1.667    1.000    0.000    4.000 
#    9.000    0.833    0.000    3.000    0.000    0.000 
#    0.000    0.000    0.000    0.000    0.000    0.000 
#
# Total GULP energy -133800.337289 kJ/mol
# GULP energy per Si atom -5575.014054 kJ/mol
# Density = 2.008727 g / cm^3
# Si number density = 20.133093 Si / 1000 Ang^3
#
#
#
# Elastic Constant Matrix: (Units=GPa)
#
#
# Indices 1 2 3 4 5 6 
#
# 1 51.3126 17.8441 25.8244 0.0000 0.0000 0.0000
# 2 17.8441 147.3014 64.4485 0.0000 0.0000 0.0000
# 3 25.8244 64.4485 132.7061 0.0000 0.0000 0.0000
# 4 0.0000 0.0000 0.0000 0.2738 0.0000 0.0000
# 5 0.0000 0.0000 0.0000 0.0000 26.5677 0.0000
# 6 0.0000 0.0000 0.0000 0.0000 0.0000 10.4656
#
#
#
# Elastic Compliance Matrix: (Units=1/GPa)
#
#
# Indices 1 2 3 4 5 6 
#
# 1 0.021718 -0.000993 -0.003744 0.000000 0.000000 0.000000
# 2 -0.000993 0.008666 -0.004015 0.000000 0.000000 0.000000
# 3 -0.003744 -0.004015 0.010214 0.000000 0.000000 0.000000
# 4 0.000000 0.000000 0.000000 3.652213 0.000000 0.000000
# 5 0.000000 0.000000 0.000000 0.000000 0.037640 0.000000
# 6 0.000000 0.000000 0.000000 0.000000 0.000000 0.095551
#
#
# Mechanical properties :
#
#
# Convention : Reuss Voigt Hill
#
# Bulk Modulus (GPa) = 43.30243 60.83934 52.07088
# Shear Modulus (GPa) = 1.29830 22.34163 11.81996
#
# Velocity S-wave (km/s) = 0.80390 3.33483 2.42563
# Velocity P-wave (km/s) = 4.73460 6.71657 5.81071
#
# Compressibility (1/GPa) = 0.02309339
#
# Stress axis : x y z
#
# Youngs Moduli (GPa) = 46.04488 115.39464 97.90366
#
# Poissons Ratio (x) = 0.11456 0.36657
# Poissons Ratio (y) = 0.04571 0.39312
# Poissons Ratio (z) = 0.17240 0.46336
#
# Static dielectric constant tensor:
#      x y z
#    x 1.727260 0.000000 0.000000 
#    y 0.000000 1.780190 0.000000 
#    z 0.000000 0.000000 1.709140 
# 
# From -- ./inp_files/25104.got.cif
#   From: 2010.05.17/outbox.cif.g08.bks.cpg/sg42_13_cif.got.tgz:25104.got - 2010.06.03 19:03:34.
