data_PCOD9368801
_publ_section_title
;
Structure prediction by ZEFSAII (Michael W. Deem and Ramdas Pophale) SiO2 
 PCOD9368801
Probable space group: F M M 2
;
_chemical_formula_sum "Si O2"
_cell_formula_units_Z 128
_cell_length_a 14.206166
_cell_length_b 17.644730
_cell_length_c 22.058296
_cell_angle_alpha 90.000000
_cell_angle_beta 90.000000
_cell_angle_gamma 90.000000
_cell_volume 5529.219901
_symmetry_space_group_name_H-M "F M M 2"
_symmetry_group_IT_number 42
_symmetry_cell_setting 'orthorhombic'
loop_
_space_group_symop_operation_xyz
x,y,z
-x,-y,z
-x,y,z
x,-y,z
x,1/2+y,1/2+z
-x,1/2-y,1/2+z
-x,1/2+y,1/2+z
x,1/2-y,1/2+z
1/2+x,y,1/2+z
1/2-x,-y,1/2+z
1/2-x,y,1/2+z
1/2+x,-y,1/2+z
1/2+x,1/2+y,z
1/2-x,1/2-y,z
1/2-x,1/2+y,z
1/2+x,1/2-y,z
loop_
_atom_site_type_symbol
_atom_site_label
_atom_site_fract_x
_atom_site_fract_y
_atom_site_fract_z
Si Si1 0.611304 0.420483 0.186730
Si Si2 0.645061 0.741834 0.522648
Si Si3 0.114423 0.079763 0.846100
Si Si4 0.114359 0.780026 0.256629
Si Si5 0.613891 0.117456 0.208428
Si Si6 0.614103 0.240742 0.389824
Si Si7 0.146735 0.915602 0.573293
Si Si8 0.639070 0.085457 0.543434
O O1 0.500000 0.421264 0.201445
O O2 0.653696 0.500000 0.205920
O O3 0.654112 0.351366 0.222087
O O4 0.616462 0.413811 0.114888
O O5 0.750000 0.750000 0.549281
O O6 0.649265 0.723048 0.451380
O O7 0.602948 0.666649 0.554821
O O8 0.605961 0.829421 0.523265
O O9 0.137401 0.084421 0.774673
O O10 0.145347 0.153353 0.882485
O O11 0.000000 0.081465 0.848329
O O12 0.148308 0.000000 0.871405
O O13 0.135937 0.705686 0.218330
O O14 0.144014 0.777646 0.326396
O O15 0.000000 0.781004 0.258399
O O16 0.500000 0.107729 0.201092
O O17 0.657775 0.087752 0.146377
O O18 0.500000 0.242622 0.392309
O O19 0.247874 0.915052 0.540271
O O20 0.105355 0.000000 0.560194
O O21 0.607267 0.000000 0.521213
#
# Coordination Sequence:
#
# PCOD9368801 Si02
#       8
#    16  16  16  16  16  16  16  16
#     4   9  16  28  49  74  96 118 147 184 227 280
#     4  10  21  36  50  65  91 127 161 194 234 273
#     4   8  14  26  45  71  99 119 139 179 237 289
#     4   8  15  29  47  69  97 123 147 184 236 280
#     4   9  16  27  47  72  96 123 153 186 227 277
#     4   9  18  32  49  67  89 121 159 194 227 269
#     4  10  20  33  48  67  95 128 157 189 231 275
#     4   9  19  34  50  70  96 123 151 188 236 283
#
# _framework density 23.149739
#
# number of rings (size 3 to 8) (size 9 to 14) (size 15 to 20)
#    0.000    3.000    0.000    2.625    0.000    2.250 
#    0.000    3.125    0.000    0.750    0.000    0.000 
#    0.000    0.000    0.000    0.000    0.000    0.000 
#
# Total GULP energy -178356.501612 kJ/mol
# GULP energy per Si atom -5573.640675 kJ/mol
# Density = 2.309705 g / cm^3
# Si number density = 23.149739 Si / 1000 Ang^3
#
#
#
# Elastic Constant Matrix: (Units=GPa)
#
#
# Indices 1 2 3 4 5 6 
#
# 1 78.8356 3.8762 -4.5240 0.0000 0.0000 0.0000
# 2 3.8762 186.5053 56.7253 0.0000 0.0000 0.0000
# 3 -4.5240 56.7253 83.3280 0.0000 0.0000 0.0000
# 4 0.0000 0.0000 0.0000 -5.7646 0.0000 0.0000
# 5 0.0000 0.0000 0.0000 0.0000 18.2628 0.0000
# 6 0.0000 0.0000 0.0000 0.0000 0.0000 -3.2666
#
#
#
# Elastic Compliance Matrix: (Units=1/GPa)
#
#
# Indices 1 2 3 4 5 6 
#
# 1 0.012777 -0.000601 0.001103 0.000000 0.000000 0.000000
# 2 -0.000601 0.006790 -0.004655 0.000000 0.000000 0.000000
# 3 0.001103 -0.004655 0.015229 0.000000 0.000000 0.000000
# 4 0.000000 0.000000 0.000000 -0.173473 0.000000 0.000000
# 5 0.000000 0.000000 0.000000 0.000000 0.054756 0.000000
# 6 0.000000 0.000000 0.000000 0.000000 0.000000 -0.306129
#
#
# Mechanical properties :
#
#
# Convention : Reuss Voigt Hill
#
# Bulk Modulus (GPa) = 37.74897 51.20266 44.47581
# Shear Modulus (GPa) = -13.40799 21.35242 3.97221
#
# Velocity S-wave (km/s) = -2.40924 3.04033 1.31134
# Velocity P-wave (km/s) = 2.93302 5.87289 4.64185
#
# Compressibility (1/GPa) = 0.02649079
#
# Stress axis : x y z
#
# Youngs Moduli (GPa) = 78.26285 147.27407 65.66214
#
# Poissons Ratio (x) = 0.08851 -0.07241
# Poissons Ratio (y) = 0.04703 0.30565
# Poissons Ratio (z) = -0.08631 0.68555
#
# Static dielectric constant tensor:
#      x y z
#    x 1.913620 0.000000 0.000000 
#    y 0.000000 1.956730 0.000000 
#    z 0.000000 0.000000 1.787980 
# 
# From -- ./inp_files/26608.got.cif
#   From: 2010.05.17/outbox.cif.g08.bks.cpg/sg42_14_cif.got.tgz:26608.got - 2010.06.03 19:03:34.
