data_PCOD9368314
_publ_section_title
;
Structure prediction by ZEFSAII (Michael W. Deem and Ramdas Pophale) SiO2 
 PCOD9368314
Probable space group: F M M 2
;
_chemical_formula_sum "Si O2"
_cell_formula_units_Z 128
_cell_length_a 24.893825
_cell_length_b 23.494817
_cell_length_c 10.664230
_cell_angle_alpha 90.000000
_cell_angle_beta 90.000000
_cell_angle_gamma 90.000000
_cell_volume 6237.250722
_symmetry_space_group_name_H-M "F M M 2"
_symmetry_group_IT_number 42
_symmetry_cell_setting 'orthorhombic'
loop_
_space_group_symop_operation_xyz
x,y,z
-x,-y,z
-x,y,z
x,-y,z
x,1/2+y,1/2+z
-x,1/2-y,1/2+z
-x,1/2+y,1/2+z
x,1/2-y,1/2+z
1/2+x,y,1/2+z
1/2-x,-y,1/2+z
1/2-x,y,1/2+z
1/2+x,-y,1/2+z
1/2+x,1/2+y,z
1/2-x,1/2-y,z
1/2-x,1/2+y,z
1/2+x,1/2-y,z
loop_
_atom_site_type_symbol
_atom_site_label
_atom_site_fract_x
_atom_site_fract_y
_atom_site_fract_z
Si Si1 0.879371 0.437296 0.923250
Si Si2 0.743967 0.161852 0.079432
Si Si3 0.060813 0.734530 0.013612
Si Si4 0.059423 0.148808 0.280422
Si Si5 0.766544 0.906003 0.326237
Si Si6 0.371611 0.149238 0.154898
Si Si7 0.861000 0.170957 0.060836
Si Si8 0.852595 0.565693 0.383590
O O1 0.890787 0.500000 0.970040
O O2 0.925343 0.412707 0.834554
O O3 0.822667 0.436561 0.850199
O O4 0.873988 0.394217 0.038351
O O5 0.761439 0.113792 0.182412
O O6 0.687186 0.178795 0.141561
O O7 0.800345 0.194903 0.070302
O O8 0.733396 0.142856 0.935446
O O9 0.059359 0.692299 0.896040
O O10 0.000000 0.753442 0.038603
O O11 0.084114 0.697467 0.130074
O O12 0.101603 0.785576 0.984404
O O13 0.107640 0.166853 0.190876
O O14 0.000000 0.148214 0.223183
O O15 0.711313 0.937907 0.356862
O O16 0.375123 0.107353 0.273694
O O17 0.859475 0.107297 0.003021
O O18 0.872750 0.500000 0.390437
#
# Coordination Sequence:
#
# PCOD9368314 Si02
#       8
#    16  16  16  16  16  16  16  16
#     4  10  18  32  58  86 116 159 204 249 304 363
#     4   9  18  34  58  87 126 159 201 247 316 372
#     4  10  23  42  66  87 112 159 216 263 309 370
#     4  10  22  40  58  84 118 156 210 264 309 367
#     4   9  17  33  53  87 122 165 201 243 294 376
#     4   9  20  38  61  89 125 159 204 256 301 371
#     4  11  22  38  62  90 122 162 204 259 314 378
#     4  10  21  37  59  93 131 163 197 247 315 380
#
# _framework density 20.521863
#
# number of rings (size 3 to 8) (size 9 to 14) (size 15 to 20)
#    0.000    2.250    1.250    1.125    1.750    1.250 
#    0.000    3.750    0.000    3.750    0.000    0.000 
#    0.000    0.000    0.000    0.000    0.000    0.000 
#
# Total GULP energy -178180.191644 kJ/mol
# GULP energy per Si atom -5568.130989 kJ/mol
# Density = 2.047515 g / cm^3
# Si number density = 20.521863 Si / 1000 Ang^3
#
#
#
# Elastic Constant Matrix: (Units=GPa)
#
#
# Indices 1 2 3 4 5 6 
#
# 1 98.4526 28.3775 15.4262 -0.0001 0.0000 0.0000
# 2 28.3775 101.9997 11.2179 -0.0001 0.0000 0.0000
# 3 15.4262 11.2179 57.1290 -0.0001 0.0001 0.0002
# 4 -0.0001 -0.0001 -0.0001 13.9973 0.0001 0.0001
# 5 0.0000 0.0000 0.0001 0.0001 23.6000 -0.0001
# 6 0.0000 0.0000 0.0002 0.0001 -0.0001 11.1673
#
#
#
# Elastic Compliance Matrix: (Units=1/GPa)
#
#
# Indices 1 2 3 4 5 6 
#
# 1 0.011383 -0.002891 -0.002506 0.000000 0.000000 0.000000
# 2 -0.002891 0.010755 -0.001331 0.000000 0.000000 0.000000
# 3 -0.002506 -0.001331 0.018442 0.000000 0.000000 0.000000
# 4 0.000000 0.000000 0.000000 0.071442 0.000000 -0.000001
# 5 0.000000 0.000000 0.000000 0.000000 0.042373 0.000000
# 6 0.000000 0.000000 0.000000 -0.000001 0.000000 0.089547
#
#
# Mechanical properties :
#
#
# Convention : Reuss Voigt Hill
#
# Bulk Modulus (GPa) = 36.86849 40.84717 38.85783
# Shear Modulus (GPa) = 18.76591 23.25690 21.01140
#
# Velocity S-wave (km/s) = 3.02724 3.37007 3.20324
# Velocity P-wave (km/s) = 5.49758 5.92373 5.71463
#
# Compressibility (1/GPa) = 0.02712343
#
# Stress axis : x y z
#
# Youngs Moduli (GPa) = 87.84866 92.98221 54.22316
#
# Poissons Ratio (x) = 0.26884 0.13588
# Poissons Ratio (y) = 0.25400 0.07217
# Poissons Ratio (z) = 0.22015 0.12377
#
# Static dielectric constant tensor:
#      x y z
#    x 1.759360 0.000000 0.000000 
#    y 0.000000 1.748740 0.000000 
#    z 0.000000 0.000000 1.781440 
# 
# From -- ./inp_files/10367.got.cif
#   From: 2010.05.17/outbox.cif.g08.bks.cpg/sg42_6_cif.got.tgz:10367.got - 2010.06.03 19:03:34.
