data_PCOD9368997
_publ_section_title
;
Structure prediction by ZEFSAII (Michael W. Deem and Ramdas Pophale) SiO2 
 PCOD9368997
Probable space group: F M M 2
;
_chemical_formula_sum "Si O2"
_cell_formula_units_Z 80
_cell_length_a 8.787204
_cell_length_b 18.627486
_cell_length_c 26.220212
_cell_angle_alpha 90.000000
_cell_angle_beta 90.000000
_cell_angle_gamma 90.000000
_cell_volume 4291.816582
_symmetry_space_group_name_H-M "F M M 2"
_symmetry_group_IT_number 42
_symmetry_cell_setting 'orthorhombic'
loop_
_space_group_symop_operation_xyz
x,y,z
-x,-y,z
-x,y,z
x,-y,z
x,1/2+y,1/2+z
-x,1/2-y,1/2+z
-x,1/2+y,1/2+z
x,1/2-y,1/2+z
1/2+x,y,1/2+z
1/2-x,-y,1/2+z
1/2-x,y,1/2+z
1/2+x,-y,1/2+z
1/2+x,1/2+y,z
1/2-x,1/2-y,z
1/2-x,1/2+y,z
1/2+x,1/2-y,z
loop_
_atom_site_type_symbol
_atom_site_label
_atom_site_fract_x
_atom_site_fract_y
_atom_site_fract_z
Si Si1 0.318897 0.170400 0.736330
Si Si2 0.316819 0.083718 0.141781
Si Si3 0.317568 0.329229 0.540455
Si Si4 0.317568 0.829229 0.432205
Si Si5 0.183181 0.583718 0.330879
O O1 0.500000 0.175010 0.736330
O O2 0.250000 0.250000 0.736330
O O3 0.261710 0.127790 0.686691
O O4 0.261710 0.127790 0.785969
O O5 0.500000 0.088814 0.148316
O O6 0.279290 0.118707 0.087196
O O7 0.274910 0.000000 0.143694
O O8 0.500000 0.323945 0.536400
O O9 0.250000 0.250000 0.550413
O O10 0.250000 0.353831 0.486330
O O11 0.500000 0.823945 0.436260
O O12 0.250000 0.750000 0.422247
O O13 0.279290 0.881293 0.385464
O O14 0.225090 0.500000 0.328966
O O15 0.000000 0.588814 0.324344
#
# Coordination Sequence:
#
# PCOD9368997 Si02
#       5
#    16  16  16  16  16
#     4  12  25  40  61  87 113 147 191 236 283 336
#     4  10  22  40  60  84 117 153 187 230 286 341
#     4  10  20  35  57  83 112 149 191 234 280 331
#     4  10  20  35  57  83 112 149 191 234 280 331
#     4  10  22  40  60  84 117 153 187 230 286 341
#
# _framework density 18.640125000000001
#
# number of rings (size 3 to 8) (size 9 to 14) (size 15 to 20)
#    0.000    1.600    0.000    6.000    0.000   10.400 
#    0.000    0.000    0.000    0.000    0.000    0.000 
#    0.000    0.000    0.000    0.000    0.000    0.000 
#
# Total GULP energy -111815.856043 kJ/mol
# GULP energy per Si atom -5590.792802 kJ/mol
# Density = 1.859770 g / cm^3
# Si number density = 18.640125 Si / 1000 Ang^3
#
#
#
# Elastic Constant Matrix: (Units=GPa)
#
#
# Indices 1 2 3 4 5 6 
#
# 1 73.9033 77.7428 88.2977 0.0000 0.0000 0.0000
# 2 77.7428 172.8286 138.4703 0.0000 0.0000 0.0000
# 3 88.2977 138.4703 193.4685 0.0000 0.0000 0.0000
# 4 0.0000 0.0000 0.0000 -307.9482 0.0000 0.0000
# 5 0.0000 0.0000 0.0000 0.0000 35.8332 0.0000
# 6 0.0000 0.0000 0.0000 0.0000 0.0000 23.6062
#
#
#
# Elastic Compliance Matrix: (Units=1/GPa)
#
#
# Indices 1 2 3 4 5 6 
#
# 1 0.032536 -0.006420 -0.010255 0.000000 0.000000 0.000000
# 2 -0.006420 0.014831 -0.007685 0.000000 0.000000 0.000000
# 3 -0.010255 -0.007685 0.015349 0.000000 0.000000 0.000000
# 4 0.000000 0.000000 0.000000 -0.003247 0.000000 0.000000
# 5 0.000000 0.000000 0.000000 0.000000 0.027907 0.000000
# 6 0.000000 0.000000 0.000000 0.000000 0.000000 0.042362
#
#
# Mechanical properties :
#
#
# Convention : Reuss Voigt Hill
#
# Bulk Modulus (GPa) = 71.43874 116.58021 94.00948
# Shear Modulus (GPa) = 27.30398 -40.65580 -6.67591
#
# Velocity S-wave (km/s) = 3.83142 -4.67528 -1.89453
# Velocity P-wave (km/s) = 7.61456 5.79086 6.76445
#
# Compressibility (1/GPa) = 0.01399801
#
# Stress axis : x y z
#
# Youngs Moduli (GPa) = 30.73477 67.42565 65.14916
#
# Poissons Ratio (x) = 0.43285 0.66808
# Poissons Ratio (y) = 0.19731 0.50068
# Poissons Ratio (z) = 0.31517 0.51817
#
# Static dielectric constant tensor:
#      x y z
#    x 1.629240 0.000000 0.000000 
#    y 0.000000 1.611350 0.000000 
#    z 0.000000 0.000000 1.623860 
# 
# From -- ./inp_files/31260.got.cif
#   From: 2010.05.17/outbox.cif.g08.bks.cpg/sg42_16_cif.got.tgz:31260.got - 2010.06.03 19:03:34.
