data_PCOD9368210
_publ_section_title
;
Structure prediction by ZEFSAII (Michael W. Deem and Ramdas Pophale) SiO2 
 PCOD9368210
Probable space group: F M M 2
;
_chemical_formula_sum "Si O2"
_cell_formula_units_Z 112
_cell_length_a 7.515049
_cell_length_b 30.074858
_cell_length_c 26.487456
_cell_angle_alpha 90.000000
_cell_angle_beta 90.000000
_cell_angle_gamma 90.000000
_cell_volume 5986.536716
_symmetry_space_group_name_H-M "F M M 2"
_symmetry_group_IT_number 42
_symmetry_cell_setting 'orthorhombic'
loop_
_space_group_symop_operation_xyz
x,y,z
-x,-y,z
-x,y,z
x,-y,z
x,1/2+y,1/2+z
-x,1/2-y,1/2+z
-x,1/2+y,1/2+z
x,1/2-y,1/2+z
1/2+x,y,1/2+z
1/2-x,-y,1/2+z
1/2-x,y,1/2+z
1/2+x,-y,1/2+z
1/2+x,1/2+y,z
1/2-x,1/2-y,z
1/2-x,1/2+y,z
1/2+x,1/2-y,z
loop_
_atom_site_type_symbol
_atom_site_label
_atom_site_fract_x
_atom_site_fract_y
_atom_site_fract_z
Si Si1 0.712848 0.299379 0.553840
Si Si2 0.782379 0.392306 0.094564
Si Si3 0.217055 0.448906 0.189319
Si Si4 0.786688 0.550045 0.303141
Si Si5 0.217457 0.448838 0.996264
Si Si6 0.286896 0.799281 0.938070
Si Si7 0.212467 0.607632 0.900055
O O1 0.500000 0.303703 0.550879
O O2 0.750000 0.250000 0.573814
O O3 0.777172 0.341692 0.585327
O O4 0.781357 0.301662 0.495979
O O5 0.721815 0.415436 0.146079
O O6 0.000000 0.392418 0.095513
O O7 0.729696 0.421765 0.046134
O O8 0.267836 0.500000 0.177936
O O9 0.275732 0.438551 0.246507
O O10 0.000000 0.447992 0.189021
O O11 0.721821 0.500000 0.315979
O O12 0.745068 0.584905 0.346542
O O13 0.000000 0.547571 0.300351
O O14 0.275386 0.500000 0.997272
O O15 0.278718 0.423303 0.945969
O O16 0.000000 0.449105 0.995813
O O17 0.500000 0.802647 0.940862
O O18 0.250000 0.750000 0.917774
O O19 0.220516 0.842000 0.907410
O O20 0.000000 0.609303 0.906176
#
# Coordination Sequence:
#
# PCOD9368210 Si02
#       7
#    16  16  16  16  16  16  16
#     4   9  16  27  43  64  90 115 142 177 217 263
#     4   9  14  23  41  64  88 113 142 179 220 258
#     4   8  14  25  42  64  88 115 149 185 217 252
#     4   9  18  31  45  64  91 121 154 188 218 257
#     4   9  15  22  36  62  92 115 136 170 218 265
#     4   9  17  29  44  64  91 117 146 183 221 266
#     4  10  18  29  45  67  92 117 147 184 224 267
#
# _framework density 18.708646000000002
#
# number of rings (size 3 to 8) (size 9 to 14) (size 15 to 20)
#    0.000    3.000    1.429    1.714    0.000    3.143 
#    0.000    0.000    0.000    1.714    0.000    4.000 
#    0.000    3.429    0.000    0.000    0.000    0.000 
#
# Total GULP energy -156135.188257 kJ/mol
# GULP energy per Si atom -5576.256723 kJ/mol
# Density = 1.866606 g / cm^3
# Si number density = 18.708646 Si / 1000 Ang^3
#
#
#
# Elastic Constant Matrix: (Units=GPa)
#
#
# Indices 1 2 3 4 5 6 
#
# 1 46.2607 5.9872 2.6104 0.0000 0.0000 0.0000
# 2 5.9872 214.7249 120.6205 0.0000 0.0000 0.0000
# 3 2.6104 120.6205 133.0243 0.0000 0.0000 0.0000
# 4 0.0000 0.0000 0.0000 19.9597 0.0000 0.0000
# 5 0.0000 0.0000 0.0000 0.0000 -1.9405 0.0000
# 6 0.0000 0.0000 0.0000 0.0000 0.0000 11.7489
#
#
#
# Elastic Compliance Matrix: (Units=1/GPa)
#
#
# Indices 1 2 3 4 5 6 
#
# 1 0.021699 -0.000746 0.000250 0.000000 0.000000 0.000000
# 2 -0.000746 0.009518 -0.008616 0.000000 0.000000 0.000000
# 3 0.000250 -0.008616 0.015325 0.000000 0.000000 0.000000
# 4 0.000000 0.000000 0.000000 0.050101 0.000000 0.000000
# 5 0.000000 0.000000 0.000000 0.000000 -0.515341 0.000000
# 6 0.000000 0.000000 0.000000 0.000000 0.000000 0.085115
#
#
# Mechanical properties :
#
#
# Convention : Reuss Voigt Hill
#
# Bulk Modulus (GPa) = 35.31125 72.49402 53.90264
# Shear Modulus (GPa) = -16.34401 23.60641 3.63120
#
# Velocity S-wave (km/s) = -2.95889 3.55602 1.39468
# Velocity P-wave (km/s) = 2.69108 7.46281 5.60961
#
# Compressibility (1/GPa) = 0.02831958
#
# Stress axis : x y z
#
# Youngs Moduli (GPa) = 46.08509 105.06794 65.25407
#
# Poissons Ratio (x) = 0.07834 -0.01633
# Poissons Ratio (y) = 0.03436 0.56220
# Poissons Ratio (z) = -0.01154 0.90522
#
# Static dielectric constant tensor:
#      x y z
#    x 1.736950 0.000000 0.000000 
#    y 0.000000 1.661570 0.000000 
#    z 0.000000 0.000000 1.623500 
# 
# From -- ./inp_files/24555.got.cif
#   From: 2010.05.17/outbox.cif.g08.bks.cpg/sg42_13_cif.got.tgz:24555.got - 2010.06.03 19:03:34.
