data_PCOD9368793
_publ_section_title
;
Structure prediction by ZEFSAII (Michael W. Deem and Ramdas Pophale) SiO2 
 PCOD9368793
Probable space group: F M M 2
;
_chemical_formula_sum "Si O2"
_cell_formula_units_Z 104
_cell_length_a 29.049973
_cell_length_b 12.154005
_cell_length_c 17.341365
_cell_angle_alpha 90.000000
_cell_angle_beta 90.000000
_cell_angle_gamma 90.000000
_cell_volume 6122.776732
_symmetry_space_group_name_H-M "F M M 2"
_symmetry_group_IT_number 42
_symmetry_cell_setting 'orthorhombic'
loop_
_space_group_symop_operation_xyz
x,y,z
-x,-y,z
-x,y,z
x,-y,z
x,1/2+y,1/2+z
-x,1/2-y,1/2+z
-x,1/2+y,1/2+z
x,1/2-y,1/2+z
1/2+x,y,1/2+z
1/2-x,-y,1/2+z
1/2-x,y,1/2+z
1/2+x,-y,1/2+z
1/2+x,1/2+y,z
1/2-x,1/2-y,z
1/2-x,1/2+y,z
1/2+x,1/2-y,z
loop_
_atom_site_type_symbol
_atom_site_label
_atom_site_fract_x
_atom_site_fract_y
_atom_site_fract_z
Si Si1 0.944400 0.500000 0.822650
Si Si2 0.597816 0.693935 0.603278
Si Si3 0.055508 0.500000 0.001627
Si Si4 0.750000 0.750000 0.080343
Si Si5 0.445864 0.235800 0.759756
Si Si6 0.161230 0.868230 0.014885
Si Si7 0.633322 0.131657 0.338185
Si Si8 0.814928 0.622588 0.195454
O O1 0.929419 0.500000 0.911974
O O2 0.930800 0.611123 0.779035
O O3 0.000000 0.500000 0.824054
O O4 0.574183 0.609787 0.543928
O O5 0.563935 0.735526 0.670589
O O6 0.624240 0.796705 0.563726
O O7 0.637221 0.626910 0.648775
O O8 0.000000 0.500000 0.004946
O O9 0.778809 0.675239 0.138611
O O10 0.787942 0.819224 0.032734
O O11 0.500000 0.248137 0.776312
O O12 0.414508 0.312826 0.813684
O O13 0.148170 0.850239 0.925602
O O14 0.159659 0.000000 0.030970
O O15 0.671731 0.175263 0.277580
O O16 0.629185 0.000000 0.326394
O O17 0.799230 0.500000 0.211649
#
# Coordination Sequence:
#
# PCOD9368793 Si02
#       8
#     8  16   8   8  16  16  16  16
#     4   9  20  34  50  72 106 143 179 229 278 326
#     4  10  20  33  55  81 108 144 183 236 288 339
#     4  11  20  34  56  84 110 143 197 249 286 332
#     4  10  20  32  56  82 104 146 184 232 274 346
#     4  10  20  35  55  79 109 149 192 231 279 344
#     4  10  21  37  56  82 115 149 185 233 293 352
#     4   9  19  35  55  78 110 145 179 230 286 335
#     4   9  17  33  51  74 103 134 176 221 276 327
#
# _framework density 16.985758000000001
#
# number of rings (size 3 to 8) (size 9 to 14) (size 15 to 20)
#    0.000    2.308    0.769    1.846    2.154    0.923 
#    0.000    0.769    0.000    1.846    0.000    0.000 
#    0.000    0.000    0.000    0.000    0.000    0.000 
#
# Total GULP energy -144805.283206 kJ/mol
# GULP energy per Si atom -5569.433969 kJ/mol
# Density = 1.694710 g / cm^3
# Si number density = 16.985758 Si / 1000 Ang^3
#
#
#
# Elastic Constant Matrix: (Units=GPa)
#
#
# Indices 1 2 3 4 5 6 
#
# 1 86.9226 42.1748 39.8257 0.0000 0.0000 0.0000
# 2 42.1748 95.8051 54.8445 0.0000 0.0000 0.0000
# 3 39.8257 54.8445 94.9191 0.0000 0.0000 0.0000
# 4 0.0000 0.0000 0.0000 62.0770 0.0000 0.0000
# 5 0.0000 0.0000 0.0000 0.0000 24.3398 0.0000
# 6 0.0000 0.0000 0.0000 0.0000 0.0000 14.6464
#
#
#
# Elastic Compliance Matrix: (Units=1/GPa)
#
#
# Indices 1 2 3 4 5 6 
#
# 1 0.015507 -0.004635 -0.003828 0.000000 0.000000 0.000000
# 2 -0.004635 0.016982 -0.007868 0.000000 0.000000 0.000000
# 3 -0.003828 -0.007868 0.016688 0.000000 0.000000 0.000000
# 4 0.000000 0.000000 0.000000 0.016109 0.000000 0.000000
# 5 0.000000 0.000000 0.000000 0.000000 0.041085 0.000000
# 6 0.000000 0.000000 0.000000 0.000000 0.000000 0.068276
#
#
# Mechanical properties :
#
#
# Convention : Reuss Voigt Hill
#
# Bulk Modulus (GPa) = 60.55074 61.25966 60.90520
# Shear Modulus (GPa) = 23.49465 29.59942 26.54704
#
# Velocity S-wave (km/s) = 3.72317 4.17898 3.95764
# Velocity P-wave (km/s) = 7.36261 7.70900 7.53780
#
# Compressibility (1/GPa) = 0.01651507
#
# Stress axis : x y z
#
# Youngs Moduli (GPa) = 64.48505 58.88549 59.92499
#
# Poissons Ratio (x) = 0.27293 0.22942
# Poissons Ratio (y) = 0.29889 0.47147
# Poissons Ratio (z) = 0.24688 0.46329
#
# Static dielectric constant tensor:
#      x y z
#    x 1.576950 0.000000 0.000000 
#    y 0.000000 1.568130 0.000000 
#    z 0.000000 0.000000 1.574070 
# 
# From -- ./inp_files/22586.got.cif
#   From: 2010.05.17/outbox.cif.g08.bks.cpg/sg42_12_cif.got.tgz:22586.got - 2010.06.03 19:03:34.
