data_PCOD9368248
_publ_section_title
;
Structure prediction by ZEFSAII (Michael W. Deem and Ramdas Pophale) SiO2 
 PCOD9368248
Probable space group: F M M 2
;
_chemical_formula_sum "Si O2"
_cell_formula_units_Z 88
_cell_length_a 8.962185
_cell_length_b 25.273700
_cell_length_c 20.623692
_cell_angle_alpha 90.000000
_cell_angle_beta 90.000000
_cell_angle_gamma 90.000000
_cell_volume 4671.422463
_symmetry_space_group_name_H-M "F M M 2"
_symmetry_group_IT_number 42
_symmetry_cell_setting 'orthorhombic'
loop_
_space_group_symop_operation_xyz
x,y,z
-x,-y,z
-x,y,z
x,-y,z
x,1/2+y,1/2+z
-x,1/2-y,1/2+z
-x,1/2+y,1/2+z
x,1/2-y,1/2+z
1/2+x,y,1/2+z
1/2-x,-y,1/2+z
1/2-x,y,1/2+z
1/2+x,-y,1/2+z
1/2+x,1/2+y,z
1/2-x,1/2-y,z
1/2-x,1/2+y,z
1/2+x,1/2-y,z
loop_
_atom_site_type_symbol
_atom_site_label
_atom_site_fract_x
_atom_site_fract_y
_atom_site_fract_z
Si Si1 0.167170 0.882042 0.108940
Si Si2 0.334010 0.500000 0.462729
Si Si3 0.833709 0.500000 0.252807
Si Si4 0.680376 0.882843 0.245808
Si Si5 0.250331 0.500000 0.607854
Si Si6 0.821577 0.307662 0.852695
Si Si7 0.179310 0.115958 0.472865
O O1 0.261713 0.870185 0.173374
O O2 0.000000 0.860150 0.112833
O O3 0.160082 0.945969 0.107961
O O4 0.246929 0.868683 0.041210
O O5 0.500000 0.500000 0.433547
O O6 0.341382 0.500000 0.541293
O O7 0.264265 0.442426 0.449150
O O8 0.764955 0.557629 0.266621
O O9 0.841986 0.500000 0.174248
O O10 0.000000 0.500000 0.281180
O O11 0.500000 0.883691 0.246107
O O12 0.746503 0.840488 0.294812
O O13 0.750000 0.250000 0.856750
O O14 0.793344 0.340701 0.918329
O O15 0.000000 0.304335 0.843156
O O16 0.000000 0.110499 0.482278
#
# Coordination Sequence:
#
# PCOD9368248 Si02
#       7
#    16   8   8  16   8  16  16
#     4  10  18  30  52  83 116 147 183 225 271 325
#     4   8  13  26  50  79 110 142 176 216 266 327
#     4   8  15  28  50  81 114 148 182 220 270 327
#     4  10  20  36  58  84 116 151 187 227 275 331
#     4   8  14  24  42  74 115 152 179 212 263 324
#     4  11  24  42  61  80 106 144 190 237 286 336
#     4   9  19  35  56  82 112 146 182 222 273 332
#
# _framework density 18.837944
#
# number of rings (size 3 to 8) (size 9 to 14) (size 15 to 20)
#    0.000    2.545    0.000    2.182    0.000    6.545 
#    0.000    3.182    0.000    4.364    0.000    0.000 
#    0.000    0.000    0.000    0.000    0.000    0.000 
#
# Total GULP energy -122550.941867 kJ/mol
# GULP energy per Si atom -5570.497358 kJ/mol
# Density = 1.879507 g / cm^3
# Si number density = 18.837944 Si / 1000 Ang^3
#
#
#
# Elastic Constant Matrix: (Units=GPa)
#
#
# Indices 1 2 3 4 5 6 
#
# 1 87.2685 49.7291 58.1967 0.0000 0.0000 0.0000
# 2 49.7291 138.1744 75.0207 0.0000 0.0000 0.0000
# 3 58.1967 75.0207 118.6938 0.0000 0.0000 0.0000
# 4 0.0000 0.0000 0.0000 132.1033 0.0000 0.0000
# 5 0.0000 0.0000 0.0000 0.0000 22.4251 0.0000
# 6 0.0000 0.0000 0.0000 0.0000 0.0000 -1.0383
#
#
#
# Elastic Compliance Matrix: (Units=1/GPa)
#
#
# Indices 1 2 3 4 5 6 
#
# 1 0.017579 -0.002507 -0.007034 0.000000 0.000000 0.000000
# 2 -0.002507 0.011376 -0.005961 0.000000 0.000000 0.000000
# 3 -0.007034 -0.005961 0.015641 0.000000 0.000000 0.000000
# 4 0.000000 0.000000 0.000000 0.007570 0.000000 0.000000
# 5 0.000000 0.000000 0.000000 0.000000 0.044593 0.000000
# 6 0.000000 0.000000 0.000000 0.000000 0.000000 -0.963133
#
#
# Mechanical properties :
#
#
# Convention : Reuss Voigt Hill
#
# Bulk Modulus (GPa) = 73.57625 78.89219 76.23422
# Shear Modulus (GPa) = -6.01801 41.44404 17.71301
#
# Velocity S-wave (km/s) = -1.78929 4.69554 3.06973
# Velocity P-wave (km/s) = 5.90538 8.44794 7.28839
#
# Compressibility (1/GPa) = 0.01359134
#
# Stress axis : x y z
#
# Youngs Moduli (GPa) = 56.88751 87.90400 63.93255
#
# Poissons Ratio (x) = 0.22041 0.44971
# Poissons Ratio (y) = 0.14264 0.38109
# Poissons Ratio (z) = 0.40015 0.52398
#
# Static dielectric constant tensor:
#      x y z
#    x 1.672220 0.000000 0.000000 
#    y 0.000000 1.667780 0.000000 
#    z 0.000000 0.000000 1.638330 
# 
# From -- ./inp_files/23576.got.cif
#   From: 2010.05.17/outbox.cif.g08.bks.cpg/sg42_12_cif.got.tgz:23576.got - 2010.06.03 19:03:34.
