data_PCOD9368044
_publ_section_title
;
Structure prediction by ZEFSAII (Michael W. Deem and Ramdas Pophale) SiO2 
 PCOD9368044
Probable space group: A B A 2
;
_chemical_formula_sum "Si O2"
_cell_formula_units_Z 28
_cell_length_a 7.038117
_cell_length_b 16.732020
_cell_length_c 9.482334
_cell_angle_alpha 90.000000
_cell_angle_beta 90.000000
_cell_angle_gamma 90.000000
_cell_volume 1116.657805
_symmetry_space_group_name_H-M "A B A 2"
_symmetry_group_IT_number 41
_symmetry_cell_setting 'orthorhombic'
loop_
_space_group_symop_operation_xyz
x,y,z
-x,-y,z
1/2-x,y,1/2+z
1/2+x,-y,1/2+z
x,1/2+y,1/2+z
-x,1/2-y,1/2+z
1/2-x,1/2+y,z
1/2+x,1/2-y,z
loop_
_atom_site_type_symbol
_atom_site_label
_atom_site_fract_x
_atom_site_fract_y
_atom_site_fract_z
Si Si1 0.624647 0.864273 0.252340
Si Si2 0.500000 0.000000 0.468148
Si Si3 0.446148 0.814763 0.750167
Si Si4 0.807293 0.614642 0.033558
O O1 0.581881 0.929540 0.370489
O O2 0.546449 0.776966 0.298415
O O3 0.505942 0.888331 0.114255
O O4 0.846937 0.851260 0.225789
O O5 0.324399 0.962853 0.552865
O O6 0.318365 0.817474 0.610068
O O7 0.344720 0.866588 0.871171
#
# Coordination Sequence:
#
# PCOD9368044 Si02
#       4
#     8   4   8   8
#     4  12  29  50  83 121 166 218 276 344 410 506
#     4  12  30  52  76 124 170 212 270 348 430 476
#     4  12  29  52  87 117 168 222 287 329 425 507
#     4  12  29  54  82 124 162 221 273 352 414 499
#
# _framework density 25.074826000000002
#
# number of rings (size 3 to 8) (size 9 to 14) (size 15 to 20)
#    0.000    0.000    5.714    0.000   16.000    1.143 
#    0.000    0.000    0.000    0.000    0.000    0.000 
#    0.000    0.000    0.000    0.000    0.000    0.000 
#
# Total GULP energy -78587.901691 kJ/mol
# GULP energy per Si atom -5613.421549 kJ/mol
# Density = 2.501775 g / cm^3
# Si number density = 25.074826 Si / 1000 Ang^3
#
#
#
# Elastic Constant Matrix: (Units=GPa)
#
#
# Indices 1 2 3 4 5 6 
#
# 1 207.8965 41.7353 50.9515 0.0000 0.0000 0.0000
# 2 41.7353 120.8275 8.9688 0.0000 0.0000 0.0000
# 3 50.9515 8.9688 79.6031 0.0000 0.0000 0.0000
# 4 0.0000 0.0000 0.0000 37.8561 0.0000 0.0000
# 5 0.0000 0.0000 0.0000 0.0000 52.2018 0.0000
# 6 0.0000 0.0000 0.0000 0.0000 0.0000 51.4716
#
#
#
# Elastic Compliance Matrix: (Units=1/GPa)
#
#
# Indices 1 2 3 4 5 6 
#
# 1 0.006080 -0.001827 -0.003686 0.000000 0.000000 0.000000
# 2 -0.001827 0.008895 0.000167 0.000000 0.000000 0.000000
# 3 -0.003686 0.000167 0.014903 0.000000 0.000000 0.000000
# 4 0.000000 0.000000 0.000000 0.026416 0.000000 0.000000
# 5 0.000000 0.000000 0.000000 0.000000 0.019156 0.000000
# 6 0.000000 0.000000 0.000000 0.000000 0.000000 0.019428
#
#
# Mechanical properties :
#
#
# Convention : Reuss Voigt Hill
#
# Bulk Modulus (GPa) = 52.11956 67.95980 60.03968
# Shear Modulus (GPa) = 44.65695 48.75065 46.70380
#
# Velocity S-wave (km/s) = 4.22471 4.41410 4.32044
# Velocity P-wave (km/s) = 6.68044 7.28976 6.99174
#
# Compressibility (1/GPa) = 0.01918665
#
# Stress axis : x y z
#
# Youngs Moduli (GPa) = 164.47074 112.42545 67.10169
#
# Poissons Ratio (x) = 0.20535 0.24733
# Poissons Ratio (y) = 0.30041 -0.01120
# Poissons Ratio (z) = 0.60622 -0.01877
#
# Static dielectric constant tensor:
#      x y z
#    x 1.965790 0.000000 0.000000 
#    y 0.000000 2.001010 0.000000 
#    z 0.000000 0.000000 1.915770 
# 
# From -- ./inp_files/1601.got.cif
#   From: 2010.05.17/outbox.cif.g08.bks.cpg/sg41_1_cif.got.tgz:1601.got - 2010.06.03 18:54:24.
