data_PCOD9368020
_publ_section_title
;
Structure prediction by ZEFSAII (Michael W. Deem and Ramdas Pophale) SiO2 
 PCOD9368020
Probable space group: A B A 2
;
_chemical_formula_sum "Si O2"
_cell_formula_units_Z 48
_cell_length_a 9.274068
_cell_length_b 8.695076
_cell_length_c 21.252729
_cell_angle_alpha 90.000000
_cell_angle_beta 90.000000
_cell_angle_gamma 90.000000
_cell_volume 1713.792992
_symmetry_space_group_name_H-M "A B A 2"
_symmetry_group_IT_number 41
_symmetry_cell_setting 'orthorhombic'
loop_
_space_group_symop_operation_xyz
x,y,z
-x,-y,z
1/2-x,y,1/2+z
1/2+x,-y,1/2+z
x,1/2+y,1/2+z
-x,1/2-y,1/2+z
1/2-x,1/2+y,z
1/2+x,1/2-y,z
loop_
_atom_site_type_symbol
_atom_site_label
_atom_site_fract_x
_atom_site_fract_y
_atom_site_fract_z
Si Si1 0.170208 0.387314 0.292410
Si Si2 0.783804 0.435091 0.495199
Si Si3 0.000000 0.000000 0.641149
Si Si4 0.141722 0.206035 0.869927
Si Si5 0.000000 0.000000 0.414986
Si Si6 0.577078 0.728973 0.210382
Si Si7 0.226788 0.329627 0.585541
O O1 0.207293 0.290021 0.354939
O O2 0.134201 0.560343 0.320277
O O3 0.321368 0.369623 0.255290
O O4 0.107596 0.595398 0.186940
O O5 0.872594 0.359265 0.439783
O O6 0.633524 0.466847 0.460405
O O7 0.838992 0.592911 0.523548
O O8 0.757842 0.339228 0.558918
O O9 0.112747 0.892924 0.604163
O O10 0.069599 0.776943 0.747315
O O11 0.041942 0.356037 0.872355
O O12 0.613666 0.653660 0.142454
#
# Coordination Sequence:
#
# PCOD9368020 Si02
#       7
#     8   8   4   8   4   8   8
#     4  12  29  55  88 129 190 237 332 375 475 567
#     4  12  26  51  86 134 178 235 309 397 472 570
#     4  12  25  56  78 130 190 234 315 380 474 572
#     4  12  28  55  88 134 179 258 310 400 472 574
#     4  12  27  54  94 128 190 242 315 390 502 556
#     4  12  28  53  90 128 180 256 301 404 458 567
#     4  12  26  50  89 131 185 236 308 383 478 569
#
# _framework density 28.008047000000001
#
# number of rings (size 3 to 8) (size 9 to 14) (size 15 to 20)
#    0.000    0.000    6.667    1.500    2.333    0.667 
#    6.000    3.333    0.000    0.000    0.000    0.000 
#    0.000    0.000    0.000    0.000    0.000    0.000 
#
# Total GULP energy -133819.116995 kJ/mol
# GULP energy per Si atom -5575.796541 kJ/mol
# Density = 2.794430 g / cm^3
# Si number density = 28.008047 Si / 1000 Ang^3
#
#
#
# Elastic Constant Matrix: (Units=GPa)
#
#
# Indices 1 2 3 4 5 6 
#
# 1 75.5487 80.5110 58.4172 0.0000 0.0000 0.0000
# 2 80.5110 142.2938 49.5356 0.0000 0.0000 0.0000
# 3 58.4172 49.5356 189.9144 0.0000 0.0000 0.0000
# 4 0.0000 0.0000 0.0000 31.7952 0.0000 0.0000
# 5 0.0000 0.0000 0.0000 0.0000 53.7717 0.0000
# 6 0.0000 0.0000 0.0000 0.0000 0.0000 46.3488
#
#
#
# Elastic Compliance Matrix: (Units=1/GPa)
#
#
# Indices 1 2 3 4 5 6 
#
# 1 0.040574 -0.020471 -0.007141 0.000000 0.000000 0.000000
# 2 -0.020471 0.018058 0.001587 0.000000 0.000000 0.000000
# 3 -0.007141 0.001587 0.007048 0.000000 0.000000 0.000000
# 4 0.000000 0.000000 0.000000 0.031451 0.000000 0.000000
# 5 0.000000 0.000000 0.000000 0.000000 0.018597 0.000000
# 6 0.000000 0.000000 0.000000 0.000000 0.000000 0.021576
#
#
# Mechanical properties :
#
#
# Convention : Reuss Voigt Hill
#
# Bulk Modulus (GPa) = 73.36999 87.18716 80.27857
# Shear Modulus (GPa) = 25.78683 41.00267 33.39475
#
# Velocity S-wave (km/s) = 3.03759 3.83032 3.45675
# Velocity P-wave (km/s) = 6.20931 7.12452 6.68260
#
# Compressibility (1/GPa) = 0.01362955
#
# Stress axis : x y z
#
# Youngs Moduli (GPa) = 24.64650 55.37709 141.88064
#
# Poissons Ratio (x) = 1.13363 1.01315
# Poissons Ratio (y) = 0.50454 -0.22513
# Poissons Ratio (z) = 0.17600 -0.08787
#
# Static dielectric constant tensor:
#      x y z
#    x 2.261190 0.000000 0.000000 
#    y 0.000000 2.463100 0.000000 
#    z 0.000000 0.000000 2.199530 
# 
# From -- ./inp_files/12124.got.cif
#   From: 2010.05.17/outbox.cif.g08.bks.cpg/sg41_7_cif.got.tgz:12124.got - 2010.06.03 18:54:24.
