data_PCOD9368729
_publ_section_title
;
Structure prediction by ZEFSAII (Michael W. Deem and Ramdas Pophale) SiO2 
 PCOD9368729
Probable space group: F M M 2
;
_chemical_formula_sum "Si O2"
_cell_formula_units_Z 72
_cell_length_a 27.430940
_cell_length_b 11.278983
_cell_length_c 8.977735
_cell_angle_alpha 90.000000
_cell_angle_beta 90.000000
_cell_angle_gamma 90.000000
_cell_volume 2777.649316
_symmetry_space_group_name_H-M "F M M 2"
_symmetry_group_IT_number 42
_symmetry_cell_setting 'orthorhombic'
loop_
_space_group_symop_operation_xyz
x,y,z
-x,-y,z
-x,y,z
x,-y,z
x,1/2+y,1/2+z
-x,1/2-y,1/2+z
-x,1/2+y,1/2+z
x,1/2-y,1/2+z
1/2+x,y,1/2+z
1/2-x,-y,1/2+z
1/2-x,y,1/2+z
1/2+x,-y,1/2+z
1/2+x,1/2+y,z
1/2-x,1/2-y,z
1/2-x,1/2+y,z
1/2+x,1/2-y,z
loop_
_atom_site_type_symbol
_atom_site_label
_atom_site_fract_x
_atom_site_fract_y
_atom_site_fract_z
Si Si1 0.551674 0.500000 0.938290
Si Si2 0.305038 0.706638 0.940974
Si Si3 0.447528 0.249661 0.777377
Si Si4 0.649651 0.000000 0.622661
Si Si5 0.560679 0.500000 0.357401
Si Si6 0.138928 0.637184 0.141819
O O1 0.500000 0.500000 0.025086
O O2 0.550795 0.621709 0.849603
O O3 0.603754 0.500000 0.011312
O O4 0.250000 0.750000 0.922905
O O5 0.316509 0.612298 0.074911
O O6 0.332620 0.824306 0.995623
O O7 0.326839 0.651829 0.788818
O O8 0.500000 0.232197 0.701384
O O9 0.402894 0.264538 0.666929
O O10 0.438872 0.141345 0.890186
O O11 0.614097 0.000000 0.767745
O O12 0.500000 0.500000 0.332083
O O13 0.121467 0.500000 0.130903
#
# Coordination Sequence:
#
# PCOD9368729 Si02
#       6
#     8  16  16   8   8  16
#     4  10  19  36  67  97 133 189 236 283 361 439
#     4  12  27  48  72 102 141 187 243 305 358 418
#     4  10  19  36  65 101 139 183 229 288 360 437
#     4  12  21  42  68  96 140 186 241 292 358 436
#     4  10  21  36  61  99 139 185 236 285 359 445
#     4  12  25  49  73 105 143 187 242 301 362 435
#
# _framework density 25.921199000000001
#
# number of rings (size 3 to 8) (size 9 to 14) (size 15 to 20)
#    0.000    0.889    6.667    1.000    1.556    0.000 
#    4.000    1.111    0.000    0.000    0.000    0.000 
#    0.000    0.000    0.000    0.000    0.000    0.000 
#
# Total GULP energy -100260.547614 kJ/mol
# GULP energy per Si atom -5570.030423 kJ/mol
# Density = 2.586220 g / cm^3
# Si number density = 25.921199 Si / 1000 Ang^3
#
#
#
# Elastic Constant Matrix: (Units=GPa)
#
#
# Indices 1 2 3 4 5 6 
#
# 1 152.9156 18.9869 5.8933 0.0000 0.0000 0.0000
# 2 18.9869 206.2476 19.2698 0.0000 0.0000 0.0000
# 3 5.8933 19.2698 29.3970 0.0000 0.0000 0.0000
# 4 0.0000 0.0000 0.0000 32.6775 0.0000 0.0000
# 5 0.0000 0.0000 0.0000 0.0000 137.6851 0.0000
# 6 0.0000 0.0000 0.0000 0.0000 0.0000 59.3790
#
#
#
# Elastic Compliance Matrix: (Units=1/GPa)
#
#
# Indices 1 2 3 4 5 6 
#
# 1 0.006642 -0.000519 -0.000991 0.000000 0.000000 0.000000
# 2 -0.000519 0.005205 -0.003308 0.000000 0.000000 0.000000
# 3 -0.000991 -0.003308 0.036384 0.000000 0.000000 0.000000
# 4 0.000000 0.000000 0.000000 0.030602 0.000000 0.000000
# 5 0.000000 0.000000 0.000000 0.000000 0.007263 0.000000
# 6 0.000000 0.000000 0.000000 0.000000 0.000000 0.016841
#
#
# Mechanical properties :
#
#
# Convention : Reuss Voigt Hill
#
# Bulk Modulus (GPa) = 25.91010 52.98447 39.44728
# Shear Modulus (GPa) = 39.85976 68.90901 54.38439
#
# Velocity S-wave (km/s) = 3.92564 5.16156 4.58543
# Velocity P-wave (km/s) = 5.52856 7.48380 6.57922
#
# Compressibility (1/GPa) = 0.03859499
#
# Stress axis : x y z
#
# Youngs Moduli (GPa) = 150.55276 192.10882 27.48437
#
# Poissons Ratio (x) = 0.09967 0.02725
# Poissons Ratio (y) = 0.07811 0.09092
# Poissons Ratio (z) = 0.14927 0.63552
#
# Static dielectric constant tensor:
#      x y z
#    x 2.114540 0.000000 0.000000 
#    y 0.000000 2.145490 0.000000 
#    z 0.000000 0.000000 2.178620 
# 
# From -- ./inp_files/10551.got.cif
#   From: 2010.05.17/outbox.cif.g08.bks.cpg/sg42_6_cif.got.tgz:10551.got - 2010.06.03 19:03:34.
