data_PCOD9368742
_publ_section_title
;
Structure prediction by ZEFSAII (Michael W. Deem and Ramdas Pophale) SiO2 
 PCOD9368742
Probable space group: F M M 2
;
_chemical_formula_sum "Si O2"
_cell_formula_units_Z 100
_cell_length_a 21.694838
_cell_length_b 15.137798
_cell_length_c 14.314553
_cell_angle_alpha 90.000000
_cell_angle_beta 90.000000
_cell_angle_gamma 90.000000
_cell_volume 4701.072058
_symmetry_space_group_name_H-M "F M M 2"
_symmetry_group_IT_number 42
_symmetry_cell_setting 'orthorhombic'
loop_
_space_group_symop_operation_xyz
x,y,z
-x,-y,z
-x,y,z
x,-y,z
x,1/2+y,1/2+z
-x,1/2-y,1/2+z
-x,1/2+y,1/2+z
x,1/2-y,1/2+z
1/2+x,y,1/2+z
1/2-x,-y,1/2+z
1/2-x,y,1/2+z
1/2+x,-y,1/2+z
1/2+x,1/2+y,z
1/2-x,1/2-y,z
1/2-x,1/2+y,z
1/2+x,1/2-y,z
loop_
_atom_site_type_symbol
_atom_site_label
_atom_site_fract_x
_atom_site_fract_y
_atom_site_fract_z
Si Si1 0.734254 0.900291 0.010060
Si Si2 0.500000 0.000000 0.047186
Si Si3 0.644397 0.103429 0.304503
Si Si4 0.282123 0.106946 0.795406
Si Si5 0.151311 0.326505 0.617678
Si Si6 0.892515 0.129319 0.606529
Si Si7 0.931547 0.897426 0.975596
O O1 0.786509 0.839687 0.056173
O O2 0.674336 0.904370 0.074135
O O3 0.760979 0.000000 0.004000
O O4 0.711628 0.875712 0.906094
O O5 0.445677 0.077758 0.052887
O O6 0.711792 0.138977 0.277521
O O7 0.599671 0.109749 0.216506
O O8 0.613173 0.143208 0.396450
O O9 0.656829 0.000000 0.322333
O O10 0.328217 0.153763 0.723553
O O11 0.287378 0.000000 0.779772
O O12 0.117338 0.233987 0.600307
O O13 0.101940 0.393443 0.574625
O O14 0.000000 0.858294 0.976467
O O15 0.937558 0.000000 0.949219
#
# Coordination Sequence:
#
# PCOD9368742 Si02
#       7
#    16   4  16  16  16  16  16
#     4  11  21  42  68 103 140 182 228 280 364 433
#     4  12  28  52  72  88 138 198 258 280 356 464
#     4  10  19  37  62  99 128 175 225 279 355 417
#     4  10  21  37  68 100 144 183 216 284 361 437
#     4  12  24  40  66 104 142 176 235 301 357 416
#     4  12  26  42  69  96 130 183 235 303 349 415
#     4  10  22  39  64  95 138 187 236 289 357 431
#
# _framework density 21.271743000000001
#
# number of rings (size 3 to 8) (size 9 to 14) (size 15 to 20)
#    0.000    1.120    4.800    1.920    2.240    1.280 
#    2.880    0.000    1.760    0.000    0.000    0.000 
#    0.000    0.000    0.000    0.000    0.000    0.000 
#
# Total GULP energy -139245.140138 kJ/mol
# GULP energy per Si atom -5569.805606 kJ/mol
# Density = 2.122333 g / cm^3
# Si number density = 21.271743 Si / 1000 Ang^3
#
#
#
# Elastic Constant Matrix: (Units=GPa)
#
#
# Indices 1 2 3 4 5 6 
#
# 1 107.9325 27.1597 20.5654 0.0000 0.0000 0.0000
# 2 27.1597 82.9076 13.4694 0.0000 0.0000 0.0000
# 3 20.5654 13.4694 101.1557 0.0000 0.0000 0.0000
# 4 0.0000 0.0000 0.0000 158.9115 0.0000 0.0000
# 5 0.0000 0.0000 0.0000 0.0000 8.8140 0.0000
# 6 0.0000 0.0000 0.0000 0.0000 0.0000 68.2234
#
#
#
# Elastic Compliance Matrix: (Units=1/GPa)
#
#
# Indices 1 2 3 4 5 6 
#
# 1 0.010374 -0.003123 -0.001693 0.000000 0.000000 0.000000
# 2 -0.003123 0.013269 -0.001132 0.000000 0.000000 0.000000
# 3 -0.001693 -0.001132 0.010381 0.000000 0.000000 0.000000
# 4 0.000000 0.000000 0.000000 0.006293 0.000000 0.000000
# 5 0.000000 0.000000 0.000000 0.000000 0.113456 0.000000
# 6 0.000000 0.000000 0.000000 0.000000 0.000000 0.014658
#
#
# Mechanical properties :
#
#
# Convention : Reuss Voigt Hill
#
# Bulk Modulus (GPa) = 45.19456 46.04278 45.61867
# Shear Modulus (GPa) = 26.63815 62.57654 44.60734
#
# Velocity S-wave (km/s) = 3.54259 5.42969 4.58429
# Velocity P-wave (km/s) = 6.16650 7.81030 7.03656
#
# Compressibility (1/GPa) = 0.02212656
#
# Stress axis : x y z
#
# Youngs Moduli (GPa) = 96.39889 75.36573 96.33282
#
# Poissons Ratio (x) = 0.23538 0.16310
# Poissons Ratio (y) = 0.30107 0.10903
# Poissons Ratio (z) = 0.16322 0.08530
#
# Static dielectric constant tensor:
#      x y z
#    x 1.768180 0.000000 0.000000 
#    y 0.000000 1.862060 0.000000 
#    z 0.000000 0.000000 1.796590 
# 
# From -- ./inp_files/15977.got.cif
#   From: 2010.05.17/outbox.cif.g08.bks.cpg/sg42_8_cif.got.tgz:15977.got - 2010.06.03 19:03:34.
