data_PCOD9368116
_publ_section_title
;
Structure prediction by ZEFSAII (Michael W. Deem and Ramdas Pophale) SiO2 
 PCOD9368116
Probable space group: F M M 2
;
_chemical_formula_sum "Si O2"
_cell_formula_units_Z 88
_cell_length_a 24.150221
_cell_length_b 14.215195
_cell_length_c 13.967753
_cell_angle_alpha 90.000000
_cell_angle_beta 90.000000
_cell_angle_gamma 90.000000
_cell_volume 4795.131013
_symmetry_space_group_name_H-M "F M M 2"
_symmetry_group_IT_number 42
_symmetry_cell_setting 'orthorhombic'
loop_
_space_group_symop_operation_xyz
x,y,z
-x,-y,z
-x,y,z
x,-y,z
x,1/2+y,1/2+z
-x,1/2-y,1/2+z
-x,1/2+y,1/2+z
x,1/2-y,1/2+z
1/2+x,y,1/2+z
1/2-x,-y,1/2+z
1/2-x,y,1/2+z
1/2+x,-y,1/2+z
1/2+x,1/2+y,z
1/2-x,1/2-y,z
1/2-x,1/2+y,z
1/2+x,1/2-y,z
loop_
_atom_site_type_symbol
_atom_site_label
_atom_site_fract_x
_atom_site_fract_y
_atom_site_fract_z
Si Si1 0.621764 0.272425 0.710220
Si Si2 0.184535 0.762435 0.513514
Si Si3 0.121982 0.887950 0.367060
Si Si4 0.120816 0.889936 0.893355
Si Si5 0.500000 0.732032 0.163860
Si Si6 0.500000 0.889400 0.471791
Si Si7 0.500000 0.388881 0.356412
O O1 0.661855 0.275696 0.620200
O O2 0.626813 0.173631 0.769536
O O3 0.634808 0.351244 0.788722
O O4 0.558446 0.284832 0.673999
O O5 0.250000 0.750000 0.511334
O O6 0.164405 0.846917 0.444299
O O7 0.154883 0.670409 0.469545
O O8 0.058960 0.867212 0.404430
O O9 0.127740 0.000000 0.352057
O O10 0.055546 0.871581 0.911915
O O11 0.131014 0.000000 0.903124
O O12 0.500000 0.662280 0.254790
O O13 0.500000 0.673763 0.065961
O O14 0.500000 0.000000 0.498974
O O15 0.500000 0.500000 0.339605
#
# Coordination Sequence:
#
# PCOD9368116 Si02
#       7
#    16  16  16  16   8   8   8
#     4  10  21  36  59  88 118 154 192 236 292 352
#     4  11  24  40  57  82 115 156 206 246 283 339
#     4   9  20  38  61  87 117 147 186 239 297 350
#     4  10  22  40  61  89 121 154 190 241 297 353
#     4  10  16  30  56  89 119 155 180 227 292 348
#     4  10  18  32  60  92 121 151 188 233 292 359
#     4   8  15  30  55  89 118 140 178 230 284 351
#
# _framework density 18.351949000000001
#
# number of rings (size 3 to 8) (size 9 to 14) (size 15 to 20)
#    0.000    2.182    1.818    0.818    0.000    8.727 
#    0.000    0.000    0.000    3.273    0.000    0.000 
#    0.000    0.000    0.000    0.000    0.000    0.000 
#
# Total GULP energy -122757.048677 kJ/mol
# GULP energy per Si atom -5579.865849 kJ/mol
# Density = 1.831018 g / cm^3
# Si number density = 18.351949 Si / 1000 Ang^3
#
#
#
# Elastic Constant Matrix: (Units=GPa)
#
#
# Indices 1 2 3 4 5 6 
#
# 1 101.4404 2.6120 30.1482 0.0000 0.0000 0.0000
# 2 2.6120 71.3317 4.7875 0.0000 0.0000 0.0000
# 3 30.1482 4.7875 74.6901 0.0000 0.0000 0.0000
# 4 0.0000 0.0000 0.0000 6.2559 0.0000 0.0000
# 5 0.0000 0.0000 0.0000 0.0000 -97.4192 0.0000
# 6 0.0000 0.0000 0.0000 0.0000 0.0000 17.3643
#
#
#
# Elastic Compliance Matrix: (Units=1/GPa)
#
#
# Indices 1 2 3 4 5 6 
#
# 1 0.011203 -0.000107 -0.004515 0.000000 0.000000 0.000000
# 2 -0.000107 0.014081 -0.000859 0.000000 0.000000 0.000000
# 3 -0.004515 -0.000859 0.015266 0.000000 0.000000 0.000000
# 4 0.000000 0.000000 0.000000 0.159848 0.000000 0.000000
# 5 0.000000 0.000000 0.000000 0.000000 -0.010265 0.000000
# 6 0.000000 0.000000 0.000000 0.000000 0.000000 0.057589
#
#
# Mechanical properties :
#
#
# Convention : Reuss Voigt Hill
#
# Bulk Modulus (GPa) = 33.79922 35.83974 34.81948
# Shear Modulus (GPa) = 18.61870 -0.76550 8.92660
#
# Velocity S-wave (km/s) = 3.18863 -0.64655 2.20787
# Velocity P-wave (km/s) = 5.65807 4.36052 5.05113
#
# Compressibility (1/GPa) = 0.02958648
#
# Stress axis : x y z
#
# Youngs Moduli (GPa) = 89.26471 71.01968 65.50428
#
# Poissons Ratio (x) = 0.00761 0.29575
# Poissons Ratio (y) = 0.00957 0.05629
# Poissons Ratio (z) = 0.40303 0.06103
#
# Static dielectric constant tensor:
#      x y z
#    x 1.646530 0.000000 0.000000 
#    y 0.000000 1.635100 0.000000 
#    z 0.000000 0.000000 1.602810 
# 
# From -- ./inp_files/7876.got.cif
#   From: 2010.05.17/outbox.cif.g08.bks.cpg/sg42_4_cif.got.tgz:7876.got - 2010.06.03 19:03:34.
