data_PCOD9368295
_publ_section_title
;
Structure prediction by ZEFSAII (Michael W. Deem and Ramdas Pophale) SiO2 
 PCOD9368295
Probable space group: F M M 2
;
_chemical_formula_sum "Si O2"
_cell_formula_units_Z 96
_cell_length_a 16.420941
_cell_length_b 16.954664
_cell_length_c 19.083887
_cell_angle_alpha 90.000000
_cell_angle_beta 90.000000
_cell_angle_gamma 90.000000
_cell_volume 5313.174316
_symmetry_space_group_name_H-M "F M M 2"
_symmetry_group_IT_number 42
_symmetry_cell_setting 'orthorhombic'
loop_
_space_group_symop_operation_xyz
x,y,z
-x,-y,z
-x,y,z
x,-y,z
x,1/2+y,1/2+z
-x,1/2-y,1/2+z
-x,1/2+y,1/2+z
x,1/2-y,1/2+z
1/2+x,y,1/2+z
1/2-x,-y,1/2+z
1/2-x,y,1/2+z
1/2+x,-y,1/2+z
1/2+x,1/2+y,z
1/2-x,1/2-y,z
1/2-x,1/2+y,z
1/2+x,1/2-y,z
loop_
_atom_site_type_symbol
_atom_site_label
_atom_site_fract_x
_atom_site_fract_y
_atom_site_fract_z
Si Si1 0.405051 0.413825 0.332590
Si Si2 0.904993 0.690010 0.278137
Si Si3 0.846628 0.760792 0.412582
Si Si4 0.169389 0.408066 0.167339
Si Si5 0.651366 0.660737 0.196785
Si Si6 0.348717 0.238050 0.071916
O O1 0.500000 0.413103 0.350040
O O2 0.369919 0.500000 0.347065
O O3 0.364717 0.345158 0.377519
O O4 0.396714 0.395143 0.249845
O O5 0.885706 0.696941 0.360026
O O6 0.881441 0.610834 0.237807
O O7 0.848989 0.757021 0.240823
O O8 0.000000 0.709677 0.266842
O O9 0.750000 0.750000 0.413496
O O10 0.877209 0.757653 0.492238
O O11 0.166286 0.500000 0.148562
O O12 0.261910 0.380228 0.183547
O O13 0.136887 0.347191 0.107982
O O14 0.618325 0.692466 0.122451
O O15 0.250000 0.250000 0.072439
#
# Coordination Sequence:
#
# PCOD9368295 Si02
#       6
#    16  16  16  16  16  16
#     4  10  20  33  50  74 102 129 160 203 251 292
#     4  10  19  32  50  72 101 133 166 203 239 286
#     4  10  18  32  52  73  98 130 168 204 241 288
#     4  10  19  32  53  78 101 127 160 202 252 297
#     4   9  16  32  52  72  95 126 169 204 236 284
#     4   8  17  31  49  73 100 128 161 204 245 286
#
# _framework density 18.068294999999999
#
# number of rings (size 3 to 8) (size 9 to 14) (size 15 to 20)
#    0.000    2.500    0.000    6.000    0.000    1.667 
#    0.000    8.333    0.000    5.000    0.000    0.000 
#    0.000    0.000    0.000    0.000    0.000    0.000 
#
# Total GULP energy -133621.788582 kJ/mol
# GULP energy per Si atom -5567.574524 kJ/mol
# Density = 1.802717 g / cm^3
# Si number density = 18.068295 Si / 1000 Ang^3
#
#
#
# Elastic Constant Matrix: (Units=GPa)
#
#
# Indices 1 2 3 4 5 6 
#
# 1 38.2441 17.0802 20.0173 0.0000 0.0000 0.0000
# 2 17.0802 78.4355 48.4524 0.0000 0.0000 0.0000
# 3 20.0173 48.4524 152.9139 0.0000 0.0000 0.0000
# 4 0.0000 0.0000 0.0000 14.5622 0.0000 0.0000
# 5 0.0000 0.0000 0.0000 0.0000 -34.5246 0.0000
# 6 0.0000 0.0000 0.0000 0.0000 0.0000 16.6159
#
#
#
# Elastic Compliance Matrix: (Units=1/GPa)
#
#
# Indices 1 2 3 4 5 6 
#
# 1 0.029589 -0.005036 -0.002278 0.000000 0.000000 0.000000
# 2 -0.005036 0.016709 -0.004635 0.000000 0.000000 0.000000
# 3 -0.002278 -0.004635 0.008307 0.000000 0.000000 0.000000
# 4 0.000000 0.000000 0.000000 0.068671 0.000000 0.000000
# 5 0.000000 0.000000 0.000000 0.000000 -0.028965 0.000000
# 6 0.000000 0.000000 0.000000 0.000000 0.000000 0.060183
#
#
# Mechanical properties :
#
#
# Convention : Reuss Voigt Hill
#
# Bulk Modulus (GPa) = 32.56622 48.96594 40.76608
# Shear Modulus (GPa) = 26.50710 11.60027 19.05368
#
# Velocity S-wave (km/s) = 3.83436 2.53657 3.25089
# Velocity P-wave (km/s) = 6.13728 5.97814 6.05824
#
# Compressibility (1/GPa) = 0.03070666
#
# Stress axis : x y z
#
# Youngs Moduli (GPa) = 33.79605 59.84645 120.38759
#
# Poissons Ratio (x) = 0.30141 0.27419
# Poissons Ratio (y) = 0.17021 0.55803
# Poissons Ratio (z) = 0.07697 0.27740
#
# Static dielectric constant tensor:
#      x y z
#    x 1.629660 0.000000 0.000000 
#    y 0.000000 1.640540 0.000000 
#    z 0.000000 0.000000 1.655530 
# 
# From -- ./inp_files/20820.got.cif
#   From: 2010.05.17/outbox.cif.g08.bks.cpg/sg42_11_cif.got.tgz:20820.got - 2010.06.03 19:03:34.
