data_PCOD9368151
_publ_section_title
;
Structure prediction by ZEFSAII (Michael W. Deem and Ramdas Pophale) SiO2 
 PCOD9368151
Probable space group: F M M 2
;
_chemical_formula_sum "Si O2"
_cell_formula_units_Z 88
_cell_length_a 13.629019
_cell_length_b 22.905646
_cell_length_c 18.382832
_cell_angle_alpha 90.000000
_cell_angle_beta 90.000000
_cell_angle_gamma 90.000000
_cell_volume 5738.779784
_symmetry_space_group_name_H-M "F M M 2"
_symmetry_group_IT_number 42
_symmetry_cell_setting 'orthorhombic'
loop_
_space_group_symop_operation_xyz
x,y,z
-x,-y,z
-x,y,z
x,-y,z
x,1/2+y,1/2+z
-x,1/2-y,1/2+z
-x,1/2+y,1/2+z
x,1/2-y,1/2+z
1/2+x,y,1/2+z
1/2-x,-y,1/2+z
1/2-x,y,1/2+z
1/2+x,-y,1/2+z
1/2+x,1/2+y,z
1/2-x,1/2-y,z
1/2-x,1/2+y,z
1/2+x,1/2-y,z
loop_
_atom_site_type_symbol
_atom_site_label
_atom_site_fract_x
_atom_site_fract_y
_atom_site_fract_z
Si Si1 0.881107 0.433690 0.347470
Si Si2 0.717522 0.316900 0.118290
Si Si3 0.118079 0.340609 0.469138
Si Si4 0.613411 0.146419 0.212422
Si Si5 0.888351 0.218172 0.263345
Si Si6 0.250000 0.250000 0.883437
O O1 0.844543 0.500000 0.348469
O O2 0.857291 0.396667 0.419431
O O3 0.852730 0.398065 0.275017
O O4 0.000000 0.435383 0.345108
O O5 0.750000 0.250000 0.101080
O O6 0.814319 0.351350 0.143945
O O7 0.650236 0.312110 0.190303
O O8 0.659990 0.343285 0.050520
O O9 0.173609 0.286827 0.430637
O O10 0.000000 0.332579 0.468942
O O11 0.500000 0.134144 0.193266
O O12 0.615163 0.212017 0.246231
O O13 0.815012 0.209400 0.330158
O O14 0.000000 0.202515 0.279856
#
# Coordination Sequence:
#
# PCOD9368151 Si02
#       6
#    16  16  16  16  16   8
#     4   9  17  31  51  71  93 126 165 204 242 277
#     4  10  18  31  44  68 100 130 156 191 240 301
#     4  11  21  32  46  70 103 132 159 199 243 290
#     4   9  16  29  48  68  91 121 160 201 236 277
#     4  10  17  28  45  65  93 127 154 190 237 282
#     4  12  18  30  46  68  96 126 162 198 238 290
#
# _framework density 15.33427
#
# number of rings (size 3 to 8) (size 9 to 14) (size 15 to 20)
#    0.000    2.000    5.455    1.091    0.000    0.727 
#    0.000    0.909    0.000    0.000    0.000    0.000 
#    0.000   21.818    0.000    0.000    0.000    0.000 
#
# Total GULP energy -122570.034325 kJ/mol
# GULP energy per Si atom -5571.365197 kJ/mol
# Density = 1.529937 g / cm^3
# Si number density = 15.334270 Si / 1000 Ang^3
#
#
#
# Elastic Constant Matrix: (Units=GPa)
#
#
# Indices 1 2 3 4 5 6 
#
# 1 103.7878 26.8040 59.1938 0.0000 0.0000 0.0000
# 2 26.8040 66.6121 46.5707 0.0000 0.0000 0.0000
# 3 59.1938 46.5707 120.1731 0.0000 0.0000 0.0000
# 4 0.0000 0.0000 0.0000 8.9512 0.0000 0.0000
# 5 0.0000 0.0000 0.0000 0.0000 31.9845 0.0000
# 6 0.0000 0.0000 0.0000 0.0000 0.0000 10.5830
#
#
#
# Elastic Compliance Matrix: (Units=1/GPa)
#
#
# Indices 1 2 3 4 5 6 
#
# 1 0.013455 -0.001071 -0.006212 0.000000 0.000000 0.000000
# 2 -0.001071 0.020676 -0.007485 0.000000 0.000000 0.000000
# 3 -0.006212 -0.007485 0.014282 0.000000 0.000000 0.000000
# 4 0.000000 0.000000 0.000000 0.111717 0.000000 0.000000
# 5 0.000000 0.000000 0.000000 0.000000 0.031265 0.000000
# 6 0.000000 0.000000 0.000000 0.000000 0.000000 0.094491
#
#
# Mechanical properties :
#
#
# Convention : Reuss Voigt Hill
#
# Bulk Modulus (GPa) = 52.97646 61.74554 57.36100
# Shear Modulus (GPa) = 15.54168 20.83738 18.18953
#
# Velocity S-wave (km/s) = 3.18705 3.69029 3.44786
# Velocity P-wave (km/s) = 6.94016 7.64928 7.30333
#
# Compressibility (1/GPa) = 0.01887631
#
# Stress axis : x y z
#
# Youngs Moduli (GPa) = 74.32316 48.36448 70.01724
#
# Poissons Ratio (x) = 0.05178 0.43498
# Poissons Ratio (y) = 0.07958 0.52410
# Poissons Ratio (z) = 0.46173 0.36202
#
# Static dielectric constant tensor:
#      x y z
#    x 1.533780 0.000000 0.000000 
#    y 0.000000 1.501340 0.000000 
#    z 0.000000 0.000000 1.517830 
# 
# From -- ./inp_files/20039.got.cif
#   From: 2010.05.17/outbox.cif.g08.bks.cpg/sg42_11_cif.got.tgz:20039.got - 2010.06.03 19:03:34.
