data_PCOD9368246
_publ_section_title
;
Structure prediction by ZEFSAII (Michael W. Deem and Ramdas Pophale) SiO2 
 PCOD9368246
Probable space group: F M M 2
;
_chemical_formula_sum "Si O2"
_cell_formula_units_Z 104
_cell_length_a 29.248357
_cell_length_b 15.844700
_cell_length_c 10.382636
_cell_angle_alpha 90.000000
_cell_angle_beta 90.000000
_cell_angle_gamma 90.000000
_cell_volume 4811.639975
_symmetry_space_group_name_H-M "F M M 2"
_symmetry_group_IT_number 42
_symmetry_cell_setting 'orthorhombic'
loop_
_space_group_symop_operation_xyz
x,y,z
-x,-y,z
-x,y,z
x,-y,z
x,1/2+y,1/2+z
-x,1/2-y,1/2+z
-x,1/2+y,1/2+z
x,1/2-y,1/2+z
1/2+x,y,1/2+z
1/2-x,-y,1/2+z
1/2-x,y,1/2+z
1/2+x,-y,1/2+z
1/2+x,1/2+y,z
1/2-x,1/2-y,z
1/2-x,1/2+y,z
1/2+x,1/2-y,z
loop_
_atom_site_type_symbol
_atom_site_label
_atom_site_fract_x
_atom_site_fract_y
_atom_site_fract_z
Si Si1 0.250000 0.750000 0.852620
Si Si2 0.000000 0.902335 0.256392
Si Si3 0.000000 0.902335 0.948849
Si Si4 0.600032 0.395482 0.875140
Si Si5 0.629762 0.094659 0.102621
Si Si6 0.833344 0.601408 0.602621
Si Si7 0.773113 0.348562 0.102620
Si Si8 0.399968 0.395482 0.330101
O O1 0.222225 0.803425 0.744131
O O2 0.222225 0.696575 0.961110
O O3 0.048726 0.866510 0.298836
O O4 0.000000 0.000000 0.302261
O O5 0.000000 0.903470 0.102621
O O6 0.951274 0.866510 0.906405
O O7 0.000000 0.000000 0.902980
O O8 0.600558 0.500000 0.879519
O O9 0.613287 0.364951 0.734046
O O10 0.638034 0.369026 0.978827
O O11 0.684491 0.089615 0.102620
O O12 0.610426 0.000000 0.102621
O O13 0.613287 0.135049 0.971195
O O14 0.834286 0.500000 0.602621
O O15 0.780054 0.625011 0.602620
O O16 0.861966 0.630974 0.726414
O O17 0.399442 0.500000 0.325722
#
# Coordination Sequence:
#
# PCOD9368246 Si02
#       8
#     8   8   8  16  16  16  16  16
#     4  10  24  38  54  70  92 136 180 212 244 290
#     4   9  14  25  43  63  99 144 171 195 225 281
#     4   9  14  25  43  63  99 144 171 195 225 281
#     4   9  17  27  43  70 103 138 171 195 235 296
#     4  10  20  32  48  76 109 135 159 202 257 304
#     4  10  18  30  52  78 101 133 169 202 247 304
#     4  11  21  38  54  72 103 131 168 212 250 295
#     4   9  17  27  43  70 103 138 171 195 235 296
#
# _framework density 21.614253000000001
#
# number of rings (size 3 to 8) (size 9 to 14) (size 15 to 20)
#    0.000    2.308    1.538    2.308    0.000    0.615 
#    0.000    9.231    0.000    0.000    0.000    0.000 
#    0.000   86.154    0.000    0.000    0.000    0.000 
#
# Total GULP energy -144745.869237 kJ/mol
# GULP energy per Si atom -5567.148817 kJ/mol
# Density = 2.156506 g / cm^3
# Si number density = 21.614253 Si / 1000 Ang^3
#
#
#
# Elastic Constant Matrix: (Units=GPa)
#
#
# Indices 1 2 3 4 5 6 
#
# 1 191.2572 1.8577 79.7362 0.0000 0.0000 0.0000
# 2 1.8577 13.9466 17.1580 0.0000 0.0000 0.0000
# 3 79.7362 17.1580 192.1785 0.0000 0.0000 0.0000
# 4 0.0000 0.0000 0.0000 1.7361 0.0000 0.0000
# 5 0.0000 0.0000 0.0000 0.0000 -15.5209 0.0000
# 6 0.0000 0.0000 0.0000 0.0000 0.0000 -7.6799
#
#
#
# Elastic Compliance Matrix: (Units=1/GPa)
#
#
# Indices 1 2 3 4 5 6 
#
# 1 0.006413 0.002718 -0.002903 0.000000 0.000000 0.000000
# 2 0.002718 0.081701 -0.008422 0.000000 0.000000 0.000000
# 3 -0.002903 -0.008422 0.007160 0.000000 0.000000 0.000000
# 4 0.000000 0.000000 0.000000 0.575999 0.000000 0.000000
# 5 0.000000 0.000000 0.000000 0.000000 -0.064429 0.000000
# 6 0.000000 0.000000 0.000000 0.000000 0.000000 -0.130210
#
#
# Mechanical properties :
#
#
# Convention : Reuss Voigt Hill
#
# Bulk Modulus (GPa) = 12.81090 66.09846 39.45468
# Shear Modulus (GPa) = 9.61781 15.61575 12.61678
#
# Velocity S-wave (km/s) = 2.11173 2.69080 2.41866
# Velocity P-wave (km/s) = 3.44758 6.34833 5.10818
#
# Compressibility (1/GPa) = 0.07805855
#
# Stress axis : x y z
#
# Youngs Moduli (GPa) = 155.94439 12.23972 139.66490
#
# Poissons Ratio (x) = -0.03326 0.40548
# Poissons Ratio (y) = -0.42379 1.17625
# Poissons Ratio (z) = 0.45274 0.10308
#
# Static dielectric constant tensor:
#      x y z
#    x 1.755770 0.000000 0.000000 
#    y 0.000000 1.870170 0.000000 
#    z 0.000000 0.000000 1.770830 
# 
# From -- ./inp_files/5621.got.cif
#   From: 2010.05.17/outbox.cif.g08.bks.cpg/sg42_3_cif.got.tgz:5621.got - 2010.06.03 19:03:34.
