data_PCOD9368508
_publ_section_title
;
Structure prediction by ZEFSAII (Michael W. Deem and Ramdas Pophale) SiO2 
 PCOD9368508
Probable space group: F M M 2
;
_chemical_formula_sum "Si O2"
_cell_formula_units_Z 128
_cell_length_a 19.508664
_cell_length_b 22.055669
_cell_length_c 14.623500
_cell_angle_alpha 90.000000
_cell_angle_beta 90.000000
_cell_angle_gamma 90.000000
_cell_volume 6292.150384
_symmetry_space_group_name_H-M "F M M 2"
_symmetry_group_IT_number 42
_symmetry_cell_setting 'orthorhombic'
loop_
_space_group_symop_operation_xyz
x,y,z
-x,-y,z
-x,y,z
x,-y,z
x,1/2+y,1/2+z
-x,1/2-y,1/2+z
-x,1/2+y,1/2+z
x,1/2-y,1/2+z
1/2+x,y,1/2+z
1/2-x,-y,1/2+z
1/2-x,y,1/2+z
1/2+x,-y,1/2+z
1/2+x,1/2+y,z
1/2-x,1/2-y,z
1/2-x,1/2+y,z
1/2+x,1/2-y,z
loop_
_atom_site_type_symbol
_atom_site_label
_atom_site_fract_x
_atom_site_fract_y
_atom_site_fract_z
Si Si1 0.781657 0.066575 0.970070
Si Si2 0.922412 0.623115 0.729110
Si Si3 0.923435 0.734460 0.229064
Si Si4 0.779988 0.811950 0.766118
Si Si5 0.422417 0.376823 0.007937
Si Si6 0.923434 0.265609 0.008194
Si Si7 0.279919 0.188037 0.971417
Si Si8 0.718350 0.933436 0.767321
O O1 0.749888 0.063077 0.868762
O O2 0.772735 0.000000 0.012086
O O3 0.861889 0.083510 0.966600
O O4 0.745461 0.125282 0.014391
O O5 0.912488 0.694446 0.751343
O O6 0.917948 0.618130 0.618522
O O7 0.861901 0.583432 0.770445
O O8 0.000000 0.606167 0.755625
O O9 0.861440 0.695300 0.267238
O O10 0.921674 0.730015 0.118633
O O11 0.000000 0.717219 0.259808
O O12 0.750000 0.750000 0.723142
O O13 0.754613 0.874710 0.723167
O O14 0.750084 0.812610 0.868792
O O15 0.500000 0.393771 0.981396
O O16 0.412514 0.305476 0.985821
O O17 0.861380 0.304753 0.970123
O O18 0.000000 0.282890 0.977477
O O19 0.250000 0.250000 0.014438
O O20 0.727457 0.000000 0.725337
#
# Coordination Sequence:
#
# PCOD9368508 Si02
#       8
#    16  16  16  16  16  16  16  16
#     4  10  21  36  52  73 108 145 175 212 260 313
#     4   9  18  33  54  81 109 135 168 212 265 321
#     4   9  18  33  54  80 108 138 172 213 263 312
#     4  10  19  33  53  78 106 134 176 218 255 306
#     4   9  18  33  54  81 109 135 168 212 265 321
#     4   9  18  33  54  80 108 138 172 213 263 312
#     4  10  19  33  53  78 106 134 176 218 255 306
#     4  10  21  36  52  73 108 145 175 212 260 313
#
# _framework density 20.342807000000001
#
# number of rings (size 3 to 8) (size 9 to 14) (size 15 to 20)
#    0.000    2.500    2.500    1.500    0.000    2.500 
#    0.000    8.750    0.000    2.250    0.000    1.750 
#    0.000    0.000    0.000    0.000    0.000    0.000 
#
# Total GULP energy -178617.016015 kJ/mol
# GULP energy per Si atom -5581.781750 kJ/mol
# Density = 2.029651 g / cm^3
# Si number density = 20.342807 Si / 1000 Ang^3
#
#
#
# Elastic Constant Matrix: (Units=GPa)
#
#
# Indices 1 2 3 4 5 6 
#
# 1 191.7562 81.3590 41.7830 0.0000 0.0000 0.0000
# 2 81.3590 169.0912 14.8817 0.0000 0.0000 0.0000
# 3 41.7830 14.8817 67.6799 0.0000 0.0000 0.0000
# 4 0.0000 0.0000 0.0000 -60.2647 0.0000 0.0000
# 5 0.0000 0.0000 0.0000 0.0000 37.9206 0.0000
# 6 0.0000 0.0000 0.0000 0.0000 0.0000 7.7480
#
#
#
# Elastic Compliance Matrix: (Units=1/GPa)
#
#
# Indices 1 2 3 4 5 6 
#
# 1 0.007432 -0.003235 -0.003877 0.000000 0.000000 0.000000
# 2 -0.003235 0.007439 0.000361 0.000000 0.000000 0.000000
# 3 -0.003877 0.000361 0.017090 0.000000 0.000000 0.000000
# 4 0.000000 0.000000 0.000000 -0.016593 0.000000 0.000000
# 5 0.000000 0.000000 0.000000 0.000000 0.026371 0.000000
# 6 0.000000 0.000000 0.000000 0.000000 0.000000 0.129065
#
#
# Mechanical properties :
#
#
# Convention : Reuss Voigt Hill
#
# Bulk Modulus (GPa) = 54.17292 78.28606 66.22949
# Shear Modulus (GPa) = 26.25266 16.44771 21.35018
#
# Velocity S-wave (km/s) = 3.59627 2.84655 3.24314
# Velocity P-wave (km/s) = 6.62812 7.02643 6.83018
#
# Compressibility (1/GPa) = 0.01845941
#
# Stress axis : x y z
#
# Youngs Moduli (GPa) = 134.54878 134.43368 58.51531
#
# Poissons Ratio (x) = 0.43487 0.22687
# Poissons Ratio (y) = 0.43524 -0.02115
# Poissons Ratio (z) = 0.52166 -0.04859
#
# Static dielectric constant tensor:
#      x y z
#    x 1.727910 0.000000 0.000000 
#    y 0.000000 1.769820 0.000000 
#    z 0.000000 0.000000 1.867490 
# 
# From -- ./inp_files/21218.got.cif
#   From: 2010.05.17/outbox.cif.g08.bks.cpg/sg42_11_cif.got.tgz:21218.got - 2010.06.03 19:03:34.
