data_PCOD9368321
_publ_section_title
;
Structure prediction by ZEFSAII (Michael W. Deem and Ramdas Pophale) SiO2 
 PCOD9368321
Probable space group: F M M 2
;
_chemical_formula_sum "Si O2"
_cell_formula_units_Z 100
_cell_length_a 22.710521
_cell_length_b 27.192228
_cell_length_c 8.719710
_cell_angle_alpha 90.000000
_cell_angle_beta 90.000000
_cell_angle_gamma 90.000000
_cell_volume 5384.853990
_symmetry_space_group_name_H-M "F M M 2"
_symmetry_group_IT_number 42
_symmetry_cell_setting 'orthorhombic'
loop_
_space_group_symop_operation_xyz
x,y,z
-x,-y,z
-x,y,z
x,-y,z
x,1/2+y,1/2+z
-x,1/2-y,1/2+z
-x,1/2+y,1/2+z
x,1/2-y,1/2+z
1/2+x,y,1/2+z
1/2-x,-y,1/2+z
1/2-x,y,1/2+z
1/2+x,-y,1/2+z
1/2+x,1/2+y,z
1/2-x,1/2-y,z
1/2-x,1/2+y,z
1/2+x,1/2-y,z
loop_
_atom_site_type_symbol
_atom_site_label
_atom_site_fract_x
_atom_site_fract_y
_atom_site_fract_z
Si Si1 0.428625 0.812767 0.466760
Si Si2 0.000000 0.500000 0.560407
Si Si3 0.928864 0.286582 0.124431
Si Si4 0.713722 0.558461 0.983794
Si Si5 0.069127 0.387499 0.979442
Si Si6 0.903735 0.915218 0.130132
Si Si7 0.329594 0.059613 0.150649
O O1 0.500000 0.812304 0.466112
O O2 0.407911 0.766598 0.569186
O O3 0.408494 0.803362 0.292408
O O4 0.410743 0.864688 0.536638
O O5 0.051857 0.543232 0.568027
O O6 0.000000 0.283051 0.132953
O O7 0.916186 0.330019 0.003958
O O8 0.720355 0.500000 0.968227
O O9 0.689318 0.576027 0.820536
O O10 0.777422 0.576627 0.036795
O O11 0.663619 0.568165 0.109561
O O12 0.080763 0.405120 0.807069
O O13 0.109132 0.418330 0.095232
O O14 0.000000 0.393984 0.014116
O O15 0.333358 0.000000 0.148696
#
# Coordination Sequence:
#
# PCOD9368321 Si02
#       7
#    16   4  16  16  16  16  16
#     4  10  18  33  54  81 111 151 191 240 291 345
#     4  12  24  36  52  86 128 160 194 242 282 356
#     4   9  19  33  54  80 113 146 193 240 289 346
#     4  10  21  39  57  80 108 153 200 243 283 346
#     4  11  22  36  55  85 119 153 190 238 297 343
#     4  12  22  36  57  83 121 158 196 235 294 345
#     4  10  22  38  58  80 110 151 200 243 291 344
#
# _framework density 18.570606000000002
#
# number of rings (size 3 to 8) (size 9 to 14) (size 15 to 20)
#    0.000    1.600    2.400    2.880    1.120    4.160 
#    1.440    0.000    0.000    1.920    0.000    6.720 
#    0.000    0.000    0.000    0.000    0.000    0.000 
#
# Total GULP energy -139277.476680 kJ/mol
# GULP energy per Si atom -5571.099067 kJ/mol
# Density = 1.852834 g / cm^3
# Si number density = 18.570606 Si / 1000 Ang^3
#
#
#
# Elastic Constant Matrix: (Units=GPa)
#
#
# Indices 1 2 3 4 5 6 
#
# 1 65.6528 21.1219 33.4591 0.0000 0.0000 -0.0001
# 2 21.1219 81.8641 28.8616 -0.0003 0.0003 0.0001
# 3 33.4591 28.8616 66.1394 -0.0004 0.0001 0.0001
# 4 0.0000 -0.0003 -0.0004 23.7758 0.0001 0.0000
# 5 0.0000 0.0003 0.0001 0.0001 23.7344 0.0000
# 6 -0.0001 0.0001 0.0001 0.0000 0.0000 12.3130
#
#
#
# Elastic Compliance Matrix: (Units=1/GPa)
#
#
# Indices 1 2 3 4 5 6 
#
# 1 0.020785 -0.001957 -0.009661 0.000000 0.000000 0.000000
# 2 -0.001957 0.014621 -0.005390 0.000000 0.000000 0.000000
# 3 -0.009661 -0.005390 0.022359 0.000000 0.000000 0.000000
# 4 0.000000 0.000000 0.000000 0.042060 0.000000 0.000000
# 5 0.000000 0.000000 0.000000 0.000000 0.042133 0.000000
# 6 0.000000 0.000000 0.000000 0.000000 0.000000 0.081215
#
#
# Mechanical properties :
#
#
# Convention : Reuss Voigt Hill
#
# Bulk Modulus (GPa) = 42.10742 42.28240 42.19491
# Shear Modulus (GPa) = 18.86055 20.64555 19.75305
#
# Velocity S-wave (km/s) = 3.19033 3.33788 3.26494
# Velocity P-wave (km/s) = 6.02448 6.13785 6.08143
#
# Compressibility (1/GPa) = 0.02374878
#
# Stress axis : x y z
#
# Youngs Moduli (GPa) = 48.11227 68.39690 44.72463
#
# Poissons Ratio (x) = 0.13383 0.43208
# Poissons Ratio (y) = 0.09414 0.24107
# Poissons Ratio (z) = 0.46481 0.36867
#
# Static dielectric constant tensor:
#      x y z
#    x 1.630000 0.000000 0.000000 
#    y 0.000000 1.630990 0.000000 
#    z 0.000000 0.000000 1.676390 
# 
# From -- ./inp_files/4227.got.cif
#   From: 2010.05.17/outbox.cif.g08.bks.cpg/sg42_3_cif.got.tgz:4227.got - 2010.06.03 19:03:34.
