data_PCOD9368367
_publ_section_title
;
Structure prediction by ZEFSAII (Michael W. Deem and Ramdas Pophale) SiO2 
 PCOD9368367
Probable space group: F M M 2
;
_chemical_formula_sum "Si O2"
_cell_formula_units_Z 116
_cell_length_a 8.002030
_cell_length_b 31.129102
_cell_length_c 25.425998
_cell_angle_alpha 90.000000
_cell_angle_beta 90.000000
_cell_angle_gamma 90.000000
_cell_volume 6333.514603
_symmetry_space_group_name_H-M "F M M 2"
_symmetry_group_IT_number 42
_symmetry_cell_setting 'orthorhombic'
loop_
_space_group_symop_operation_xyz
x,y,z
-x,-y,z
-x,y,z
x,-y,z
x,1/2+y,1/2+z
-x,1/2-y,1/2+z
-x,1/2+y,1/2+z
x,1/2-y,1/2+z
1/2+x,y,1/2+z
1/2-x,-y,1/2+z
1/2-x,y,1/2+z
1/2+x,-y,1/2+z
1/2+x,1/2+y,z
1/2-x,1/2-y,z
1/2-x,1/2+y,z
1/2+x,1/2-y,z
loop_
_atom_site_type_symbol
_atom_site_label
_atom_site_fract_x
_atom_site_fract_y
_atom_site_fract_z
Si Si1 0.803390 0.701978 0.785460
Si Si2 0.700008 0.797840 0.468984
Si Si3 0.810052 0.939161 0.541927
Si Si4 0.202130 0.361382 0.377591
Si Si5 0.194211 0.153310 0.069291
Si Si6 0.702939 0.048455 0.421557
Si Si7 0.500000 0.000000 0.570913
Si Si8 0.806700 0.201164 0.667420
O O1 0.750000 0.750000 0.803764
O O2 0.762679 0.665061 0.827209
O O3 0.719153 0.692960 0.729260
O O4 0.000000 0.703880 0.776138
O O5 0.500000 0.798925 0.467168
O O6 0.750000 0.750000 0.453904
O O7 0.760380 0.834023 0.428315
O O8 0.752956 0.810358 0.527914
O O9 0.794020 0.889646 0.557743
O O10 0.780649 0.945053 0.479264
O O11 0.651660 0.963435 0.567584
O O12 0.000000 0.953151 0.554663
O O13 0.252313 0.411177 0.385229
O O14 0.000000 0.360823 0.376516
O O15 0.210151 0.169971 0.128351
O O16 0.000000 0.144394 0.057245
O O17 0.500000 0.049976 0.428155
O O18 0.744323 0.000000 0.403032
O O19 0.750000 0.250000 0.658291
O O20 0.000000 0.197089 0.654240
#
# Coordination Sequence:
#
# PCOD9368367 Si02
#       8
#    16  16  16  16  16  16   4  16
#     4  11  22  38  58  82 110 148 194 245 297 348
#     4  10  21  33  50  74 115 159 190 225 283 346
#     4  12  22  35  59  86 116 158 199 241 301 360
#     4  10  20  35  55  81 115 152 189 234 294 350
#     4  11  21  38  56  82 120 156 193 243 295 349
#     4  10  18  35  57  82 116 154 191 240 295 348
#     4  12  22  40  56  82 124 156 194 256 292 350
#     4  11  22  38  59  85 112 150 198 246 294 351
#
# _framework density 18.315265
#
# number of rings (size 3 to 8) (size 9 to 14) (size 15 to 20)
#    0.000    1.241    3.448    4.759    0.000    4.414 
#    0.000    0.000    0.000    0.000    1.793    0.000 
#    0.000    0.000    0.000    0.000    0.000    0.000 
#
# Total GULP energy -161614.725490 kJ/mol
# GULP energy per Si atom -5572.921569 kJ/mol
# Density = 1.827358 g / cm^3
# Si number density = 18.315265 Si / 1000 Ang^3
#
#
#
# Elastic Constant Matrix: (Units=GPa)
#
#
# Indices 1 2 3 4 5 6 
#
# 1 81.0741 18.7352 2.3577 0.0000 0.0000 0.0000
# 2 18.7352 142.6504 47.2648 0.0000 0.0000 0.0000
# 3 2.3577 47.2648 55.1503 0.0000 0.0000 0.0000
# 4 0.0000 0.0000 0.0000 67.8548 0.0000 0.0000
# 5 0.0000 0.0000 0.0000 0.0000 134.2651 0.0000
# 6 0.0000 0.0000 0.0000 0.0000 0.0000 14.7297
#
#
#
# Elastic Compliance Matrix: (Units=1/GPa)
#
#
# Indices 1 2 3 4 5 6 
#
# 1 0.012781 -0.002092 0.001246 0.000000 0.000000 0.000000
# 2 -0.002092 0.010132 -0.008594 0.000000 0.000000 0.000000
# 3 0.001246 -0.008594 0.025444 0.000000 0.000000 0.000000
# 4 0.000000 0.000000 0.000000 0.014737 0.000000 0.000000
# 5 0.000000 0.000000 0.000000 0.000000 0.007448 0.000000
# 6 0.000000 0.000000 0.000000 0.000000 0.000000 0.067890
#
#
# Mechanical properties :
#
#
# Convention : Reuss Voigt Hill
#
# Bulk Modulus (GPa) = 33.92260 46.17670 40.04965
# Shear Modulus (GPa) = 29.91519 57.40442 43.65980
#
# Velocity S-wave (km/s) = 4.04585 5.60450 4.88771
# Velocity P-wave (km/s) = 6.35507 8.19435 7.33261
#
# Compressibility (1/GPa) = 0.02947887
#
# Stress axis : x y z
#
# Youngs Moduli (GPa) = 78.23820 98.69337 39.30140
#
# Poissons Ratio (x) = 0.20642 -0.04897
# Poissons Ratio (y) = 0.16364 0.33777
# Poissons Ratio (z) = -0.09749 0.84819
#
# Static dielectric constant tensor:
#      x y z
#    x 1.551740 0.000000 0.000000 
#    y 0.000000 1.616010 0.000000 
#    z 0.000000 0.000000 1.611060 
# 
# From -- ./inp_files/28495.got.cif
#   From: 2010.05.17/outbox.cif.g08.bks.cpg/sg42_15_cif.got.tgz:28495.got - 2010.06.03 19:03:34.
