data_PCOD9368537
_publ_section_title
;
Structure prediction by ZEFSAII (Michael W. Deem and Ramdas Pophale) SiO2 
 PCOD9368537
Probable space group: F M M 2
;
_chemical_formula_sum "Si O2"
_cell_formula_units_Z 96
_cell_length_a 24.024465
_cell_length_b 8.770442
_cell_length_c 20.235427
_cell_angle_alpha 90.000000
_cell_angle_beta 90.000000
_cell_angle_gamma 90.000000
_cell_volume 4263.709225
_symmetry_space_group_name_H-M "F M M 2"
_symmetry_group_IT_number 42
_symmetry_cell_setting 'orthorhombic'
loop_
_space_group_symop_operation_xyz
x,y,z
-x,-y,z
-x,y,z
x,-y,z
x,1/2+y,1/2+z
-x,1/2-y,1/2+z
-x,1/2+y,1/2+z
x,1/2-y,1/2+z
1/2+x,y,1/2+z
1/2-x,-y,1/2+z
1/2-x,y,1/2+z
1/2+x,-y,1/2+z
1/2+x,1/2+y,z
1/2-x,1/2-y,z
1/2-x,1/2+y,z
1/2+x,1/2-y,z
loop_
_atom_site_type_symbol
_atom_site_label
_atom_site_fract_x
_atom_site_fract_y
_atom_site_fract_z
Si Si1 0.662095 0.670272 0.725700
Si Si2 0.063777 0.681309 0.552195
Si Si3 0.193026 0.820527 0.876750
Si Si4 0.190275 0.177150 0.578783
Si Si5 0.057246 0.319148 0.765072
Si Si6 0.581275 0.819433 0.913903
O O1 0.638368 0.500000 0.729854
O O2 0.690215 0.696580 0.796675
O O3 0.695782 0.679377 0.658873
O O4 0.610041 0.780168 0.722773
O O5 0.068492 0.500000 0.563511
O O6 0.126631 0.752953 0.568290
O O7 0.059296 0.724499 0.474865
O O8 0.000000 0.725700 0.578587
O O9 0.250000 0.750000 0.899424
O O10 0.146295 0.717077 0.909391
O O11 0.186075 0.000000 0.891759
O O12 0.250000 0.250000 0.554898
O O13 0.187902 0.000000 0.557088
O O14 0.055521 0.500000 0.769613
O O15 0.062056 0.266420 0.841077
O O16 0.000000 0.258860 0.736509
O O17 0.569928 0.000000 0.921749
#
# Coordination Sequence:
#
# PCOD9368537 Si02
#       6
#    16  16  16  16  16  16
#     4   9  20  36  55  82 115 152 193 239 292 351
#     4  11  25  44  65  90 121 159 204 254 308 364
#     4  10  19  33  54  83 118 153 192 238 292 353
#     4  11  24  43  66  91 121 159 205 255 307 362
#     4   9  18  32  53  83 117 152 190 235 289 349
#     4  10  20  36  58  84 115 152 195 242 294 353
#
# _framework density 22.515608
#
# number of rings (size 3 to 8) (size 9 to 14) (size 15 to 20)
#    0.000    2.000    0.000    3.000    0.000    6.333 
#    0.000    6.667    0.000    0.000    0.000    0.000 
#    0.000    0.000    0.000    0.000    0.000    0.000 
#
# Total GULP energy -133617.104484 kJ/mol
# GULP energy per Si atom -5567.379354 kJ/mol
# Density = 2.246436 g / cm^3
# Si number density = 22.515608 Si / 1000 Ang^3
#
#
#
# Elastic Constant Matrix: (Units=GPa)
#
#
# Indices 1 2 3 4 5 6 
#
# 1 157.7181 65.4223 3.9809 0.0000 0.0000 0.0000
# 2 65.4223 57.9901 15.5108 0.0000 0.0000 0.0000
# 3 3.9809 15.5108 70.2620 0.0000 0.0000 0.0000
# 4 0.0000 0.0000 0.0000 24.9616 0.0000 0.0000
# 5 0.0000 0.0000 0.0000 0.0000 143.8498 0.0000
# 6 0.0000 0.0000 0.0000 0.0000 0.0000 -26.4316
#
#
#
# Elastic Compliance Matrix: (Units=1/GPa)
#
#
# Indices 1 2 3 4 5 6 
#
# 1 0.012323 -0.014577 0.002520 0.000000 0.000000 0.000000
# 2 -0.014577 0.035569 -0.007026 0.000000 0.000000 0.000000
# 3 0.002520 -0.007026 0.015641 0.000000 0.000000 0.000000
# 4 0.000000 0.000000 0.000000 0.040062 0.000000 0.000000
# 5 0.000000 0.000000 0.000000 0.000000 0.006952 0.000000
# 6 0.000000 0.000000 0.000000 0.000000 0.000000 -0.037834
#
#
# Mechanical properties :
#
#
# Convention : Reuss Voigt Hill
#
# Bulk Modulus (GPa) = 39.42228 50.64426 45.03327
# Shear Modulus (GPa) = 41.89922 41.87969 41.88946
#
# Velocity S-wave (km/s) = 4.31849 4.31748 4.31799
# Velocity P-wave (km/s) = 6.51250 6.88448 6.70107
#
# Compressibility (1/GPa) = 0.02536637
#
# Stress axis : x y z
#
# Youngs Moduli (GPa) = 81.14701 28.11476 63.93557
#
# Poissons Ratio (x) = 0.40982 -0.16110
# Poissons Ratio (y) = 1.18285 0.44922
# Poissons Ratio (z) = -0.20447 0.19754
#
# Static dielectric constant tensor:
#      x y z
#    x 1.329380 0.000000 0.000000 
#    y 0.000000 1.781740 0.000000 
#    z 0.000000 0.000000 1.858720 
# 
# From -- ./inp_files/27032.got.cif
#   From: 2010.05.17/outbox.cif.g08.bks.cpg/sg42_14_cif.got.tgz:27032.got - 2010.06.03 19:03:34.
