data_PCOD9368340
_publ_section_title
;
Structure prediction by ZEFSAII (Michael W. Deem and Ramdas Pophale) SiO2 
 PCOD9368340
Probable space group: F M M 2
;
_chemical_formula_sum "Si O2"
_cell_formula_units_Z 104
_cell_length_a 15.632386
_cell_length_b 22.836104
_cell_length_c 17.251304
_cell_angle_alpha 90.000000
_cell_angle_beta 90.000000
_cell_angle_gamma 90.000000
_cell_volume 6158.418676
_symmetry_space_group_name_H-M "F M M 2"
_symmetry_group_IT_number 42
_symmetry_cell_setting 'orthorhombic'
loop_
_space_group_symop_operation_xyz
x,y,z
-x,-y,z
-x,y,z
x,-y,z
x,1/2+y,1/2+z
-x,1/2-y,1/2+z
-x,1/2+y,1/2+z
x,1/2-y,1/2+z
1/2+x,y,1/2+z
1/2-x,-y,1/2+z
1/2-x,y,1/2+z
1/2+x,-y,1/2+z
1/2+x,1/2+y,z
1/2-x,1/2-y,z
1/2-x,1/2+y,z
1/2+x,1/2-y,z
loop_
_atom_site_type_symbol
_atom_site_label
_atom_site_fract_x
_atom_site_fract_y
_atom_site_fract_z
Si Si1 0.797032 0.313656 0.554370
Si Si2 0.361521 0.375523 0.618304
Si Si3 0.263894 0.364355 0.888648
Si Si4 0.097745 0.429953 0.952904
Si Si5 0.598245 0.930047 0.284369
Si Si6 0.750000 0.750000 0.784014
Si Si7 0.907519 0.749004 0.665789
O O1 0.750000 0.250000 0.547419
O O2 0.736949 0.356624 0.604669
O O3 0.802540 0.341826 0.470137
O O4 0.882130 0.298572 0.601191
O O5 0.391984 0.410373 0.542726
O O6 0.377764 0.409643 0.697515
O O7 0.407158 0.312709 0.625822
O O8 0.174678 0.397610 0.907445
O O9 0.333174 0.403239 0.843453
O O10 0.246920 0.307492 0.836456
O O11 0.107876 0.500000 0.946774
O O12 0.000000 0.415009 0.928350
O O13 0.500000 0.910675 0.299932
O O14 0.600739 0.000000 0.288432
O O15 0.832840 0.751072 0.729022
O O16 0.000000 0.737450 0.700464
#
# Coordination Sequence:
#
# PCOD9368340 Si02
#       7
#    16  16  16  16  16   8  16
#     4   9  18  35  53  76 107 138 177 216 262 320
#     4  10  18  34  55  79 106 137 177 227 273 310
#     4  11  22  36  56  78 112 146 174 220 276 325
#     4  10  21  37  57  81 108 142 187 231 269 316
#     4  11  22  35  53  79 110 143 180 220 268 324
#     4  12  22  36  54  80 112 138 178 222 266 330
#     4  11  20  34  55  77 107 145 178 217 266 318
#
# _framework density 16.887453000000001
#
# number of rings (size 3 to 8) (size 9 to 14) (size 15 to 20)
#    0.000    1.538    4.615    2.308    0.000    2.462 
#    0.000    0.000    0.000    0.000    0.000    0.000 
#    0.000    9.846    0.000    0.000    0.000    0.000 
#
# Total GULP energy -145023.876669 kJ/mol
# GULP energy per Si atom -5577.841410 kJ/mol
# Density = 1.684902 g / cm^3
# Si number density = 16.887453 Si / 1000 Ang^3
#
#
#
# Elastic Constant Matrix: (Units=GPa)
#
#
# Indices 1 2 3 4 5 6 
#
# 1 144.1360 59.9500 81.7873 0.0000 0.0000 0.0000
# 2 59.9500 87.9457 47.6440 0.0000 0.0000 0.0000
# 3 81.7873 47.6440 100.8827 0.0000 0.0000 0.0000
# 4 0.0000 0.0000 0.0000 10.5859 0.0000 0.0000
# 5 0.0000 0.0000 0.0000 0.0000 10.4372 0.0000
# 6 0.0000 0.0000 0.0000 0.0000 0.0000 7.9952
#
#
#
# Elastic Compliance Matrix: (Units=1/GPa)
#
#
# Indices 1 2 3 4 5 6 
#
# 1 0.014108 -0.004597 -0.009267 0.000000 0.000000 0.000000
# 2 -0.004597 0.016778 -0.004197 0.000000 0.000000 0.000000
# 3 -0.009267 -0.004197 0.019407 0.000000 0.000000 0.000000
# 4 0.000000 0.000000 0.000000 0.094465 0.000000 0.000000
# 5 0.000000 0.000000 0.000000 0.000000 0.095811 0.000000
# 6 0.000000 0.000000 0.000000 0.000000 0.000000 0.125075
#
#
# Mechanical properties :
#
#
# Convention : Reuss Voigt Hill
#
# Bulk Modulus (GPa) = 70.56069 79.08078 74.82073
# Shear Modulus (GPa) = 12.30046 15.37588 13.83817
#
# Velocity S-wave (km/s) = 2.70178 3.02071 2.86568
# Velocity P-wave (km/s) = 7.18376 7.68739 7.43984
#
# Compressibility (1/GPa) = 0.01417220
#
# Stress axis : x y z
#
# Youngs Moduli (GPa) = 70.88148 59.60222 51.52717
#
# Poissons Ratio (x) = 0.27399 0.47748
# Poissons Ratio (y) = 0.32584 0.21626
# Poissons Ratio (z) = 0.65683 0.25015
#
# Static dielectric constant tensor:
#      x y z
#    x 1.589150 0.000000 0.000000 
#    y 0.000000 1.558330 0.000000 
#    z 0.000000 0.000000 1.554870 
# 
# From -- ./inp_files/20086.got.cif
#   From: 2010.05.17/outbox.cif.g08.bks.cpg/sg42_11_cif.got.tgz:20086.got - 2010.06.03 19:03:34.
