data_PCOD9368212
_publ_section_title
;
Structure prediction by ZEFSAII (Michael W. Deem and Ramdas Pophale) SiO2 
 PCOD9368212
Probable space group: F M M 2
;
_chemical_formula_sum "Si O2"
_cell_formula_units_Z 128
_cell_length_a 14.409069
_cell_length_b 18.478873
_cell_length_c 23.923509
_cell_angle_alpha 90.000000
_cell_angle_beta 90.000000
_cell_angle_gamma 90.000000
_cell_volume 6369.953796
_symmetry_space_group_name_H-M "F M M 2"
_symmetry_group_IT_number 42
_symmetry_cell_setting 'orthorhombic'
loop_
_space_group_symop_operation_xyz
x,y,z
-x,-y,z
-x,y,z
x,-y,z
x,1/2+y,1/2+z
-x,1/2-y,1/2+z
-x,1/2+y,1/2+z
x,1/2-y,1/2+z
1/2+x,y,1/2+z
1/2-x,-y,1/2+z
1/2-x,y,1/2+z
1/2+x,-y,1/2+z
1/2+x,1/2+y,z
1/2-x,1/2-y,z
1/2-x,1/2+y,z
1/2+x,1/2-y,z
loop_
_atom_site_type_symbol
_atom_site_label
_atom_site_fract_x
_atom_site_fract_y
_atom_site_fract_z
Si Si1 0.887250 0.083690 0.858110
Si Si2 0.275452 0.914103 0.665537
Si Si3 0.885790 0.699406 0.452682
Si Si4 0.604768 0.327890 0.077853
Si Si5 0.850332 0.710712 0.162496
Si Si6 0.609719 0.586194 0.276953
Si Si7 0.102396 0.320062 0.876734
Si Si8 0.149448 0.288754 0.284929
O O1 0.859738 0.132969 0.911705
O O2 0.851516 0.128098 0.804224
O O3 0.000000 0.083617 0.855958
O O4 0.856894 0.000000 0.860492
O O5 0.337643 0.884090 0.614840
O O6 0.177574 0.873110 0.659082
O O7 0.328405 0.891845 0.723414
O O8 0.267728 0.000000 0.665022
O O9 0.856627 0.685146 0.516016
O O10 0.852739 0.777410 0.428419
O O11 0.000000 0.703387 0.452121
O O12 0.500000 0.355326 0.072608
O O13 0.602582 0.251935 0.111783
O O14 0.750000 0.750000 0.163939
O O15 0.891961 0.721494 0.223708
O O16 0.500000 0.607123 0.269392
O O17 0.612397 0.500000 0.279383
O O18 0.643090 0.618442 0.336443
O O19 0.095427 0.254030 0.832590
O O20 0.000000 0.345798 0.893731
O O21 0.250000 0.250000 0.286168
#
# Coordination Sequence:
#
# PCOD9368212 Si02
#       8
#    16  16  16  16  16  16  16  16
#     4   9  18  33  52  74 100 128 158 194 239 292
#     4  10  20  33  49  71 102 134 159 191 243 299
#     4   8  16  30  49  72  95 123 159 200 245 285
#     4  10  19  32  52  75  96 123 165 210 243 277
#     4   9  19  33  48  69  97 131 165 198 240 287
#     4   9  16  26  45  75 103 125 156 199 243 288
#     4   9  16  29  48  68  95 128 160 197 241 289
#     4  10  18  29  46  71  98 126 161 196 237 286
#
# _framework density 20.094338
#
# number of rings (size 3 to 8) (size 9 to 14) (size 15 to 20)
#    0.000    2.750    0.000    3.750    0.000    3.750 
#    0.000    9.375    0.000    1.125    0.000    1.750 
#    0.000    0.000    0.000    0.000    0.000    0.000 
#
# Total GULP energy -178316.256936 kJ/mol
# GULP energy per Si atom -5572.383029 kJ/mol
# Density = 2.004860 g / cm^3
# Si number density = 20.094338 Si / 1000 Ang^3
#
#
#
# Elastic Constant Matrix: (Units=GPa)
#
#
# Indices 1 2 3 4 5 6 
#
# 1 38.9260 4.0491 -3.2085 0.0000 0.0000 0.0000
# 2 4.0491 116.7601 36.2381 0.0000 0.0000 0.0000
# 3 -3.2085 36.2381 109.1999 0.0000 0.0000 0.0000
# 4 0.0000 0.0000 0.0000 27.3894 0.0000 0.0000
# 5 0.0000 0.0000 0.0000 0.0000 24.8489 0.0000
# 6 0.0000 0.0000 0.0000 0.0000 0.0000 22.5386
#
#
#
# Elastic Compliance Matrix: (Units=1/GPa)
#
#
# Indices 1 2 3 4 5 6 
#
# 1 0.025919 -0.001266 0.001182 0.000000 0.000000 0.000000
# 2 -0.001266 0.009610 -0.003226 0.000000 0.000000 0.000000
# 3 0.001182 -0.003226 0.010263 0.000000 0.000000 0.000000
# 4 0.000000 0.000000 0.000000 0.036510 0.000000 0.000000
# 5 0.000000 0.000000 0.000000 0.000000 0.040243 0.000000
# 6 0.000000 0.000000 0.000000 0.000000 0.000000 0.044368
#
#
# Mechanical properties :
#
#
# Convention : Reuss Voigt Hill
#
# Bulk Modulus (GPa) = 25.52911 37.67150 31.60030
# Shear Modulus (GPa) = 26.79659 30.14252 28.46955
#
# Velocity S-wave (km/s) = 3.65573 3.87725 3.76812
# Velocity P-wave (km/s) = 5.52733 6.23154 5.88997
#
# Compressibility (1/GPa) = 0.03917097
#
# Stress axis : x y z
#
# Youngs Moduli (GPa) = 38.58202 104.06094 97.43880
#
# Poissons Ratio (x) = 0.13169 -0.11513
# Poissons Ratio (y) = 0.04883 0.31436
# Poissons Ratio (z) = -0.04559 0.33572
#
# Static dielectric constant tensor:
#      x y z
#    x 1.691470 0.000000 0.000000 
#    y 0.000000 1.745520 0.000000 
#    z 0.000000 0.000000 1.721030 
# 
# From -- ./inp_files/30016.got.cif
#   From: 2010.05.17/outbox.cif.g08.bks.cpg/sg42_16_cif.got.tgz:30016.got - 2010.06.03 19:03:34.
