data_PCOD9368963
_publ_section_title
;
Structure prediction by ZEFSAII (Michael W. Deem and Ramdas Pophale) SiO2 
 PCOD9368963
Probable space group: F M M 2
;
_chemical_formula_sum "Si O2"
_cell_formula_units_Z 104
_cell_length_a 28.216132
_cell_length_b 19.683470
_cell_length_c 9.401163
_cell_angle_alpha 90.000000
_cell_angle_beta 90.000000
_cell_angle_gamma 90.000000
_cell_volume 5221.324965
_symmetry_space_group_name_H-M "F M M 2"
_symmetry_group_IT_number 42
_symmetry_cell_setting 'orthorhombic'
loop_
_space_group_symop_operation_xyz
x,y,z
-x,-y,z
-x,y,z
x,-y,z
x,1/2+y,1/2+z
-x,1/2-y,1/2+z
-x,1/2+y,1/2+z
x,1/2-y,1/2+z
1/2+x,y,1/2+z
1/2-x,-y,1/2+z
1/2-x,y,1/2+z
1/2+x,-y,1/2+z
1/2+x,1/2+y,z
1/2-x,1/2-y,z
1/2-x,1/2+y,z
1/2+x,1/2-y,z
loop_
_atom_site_type_symbol
_atom_site_label
_atom_site_fract_x
_atom_site_fract_y
_atom_site_fract_z
Si Si1 0.395173 0.072014 0.804030
Si Si2 0.660548 0.422549 0.603058
Si Si3 0.000000 0.358798 0.478421
Si Si4 0.139950 0.286701 0.733602
Si Si5 0.500000 0.700380 0.532768
Si Si6 0.500000 0.396927 0.292556
Si Si7 0.579456 0.658147 0.754172
Si Si8 0.799112 0.789336 0.508377
O O1 0.383923 0.139993 0.716799
O O2 0.450559 0.072186 0.840891
O O3 0.383200 0.000000 0.732923
O O4 0.366058 0.076165 0.950560
O O5 0.675419 0.500000 0.635971
O O6 0.621811 0.392755 0.712845
O O7 0.700206 0.363986 0.581769
O O8 0.045982 0.368135 0.379766
O O9 0.000000 0.280973 0.531013
O O10 0.000000 0.400602 0.622629
O O11 0.102416 0.231297 0.790294
O O12 0.161672 0.254495 0.592481
O O13 0.182226 0.294407 0.847519
O O14 0.500000 0.676249 0.369597
O O15 0.545532 0.671962 0.617912
O O16 0.750000 0.750000 0.515999
#
# Coordination Sequence:
#
# PCOD9368963 Si02
#       8
#    16  16   8  16   8   8  16  16
#     4  10  20  35  54  80 111 151 197 235 273 328
#     4   9  19  38  62  83 109 150 199 232 270 346
#     4  11  23  30  50  81 124 152 191 248 288 327
#     4  10  21  36  61  84 112 147 187 234 288 342
#     4  11  19  34  51  81 115 157 205 240 274 324
#     4  12  21  32  53  78 117 153 197 240 283 329
#     4  10  21  36  54  82 114 158 195 237 282 329
#     4  10  21  38  63  90 114 140 181 238 299 349
#
# _framework density 19.918316000000001
#
# number of rings (size 3 to 8) (size 9 to 14) (size 15 to 20)
#    0.000    1.846    1.538    3.462    6.462    0.000 
#    0.000    3.846    0.000    9.231    0.000    0.000 
#    0.000    0.000    0.000    0.000    0.000    0.000 
#
# Total GULP energy -145111.355508 kJ/mol
# GULP energy per Si atom -5581.205981 kJ/mol
# Density = 1.987298 g / cm^3
# Si number density = 19.918316 Si / 1000 Ang^3
#
#
#
# Elastic Constant Matrix: (Units=GPa)
#
#
# Indices 1 2 3 4 5 6 
#
# 1 85.0426 37.5688 4.4968 0.0000 0.0000 0.0000
# 2 37.5688 145.1885 5.2098 0.0000 0.0000 0.0000
# 3 4.4968 5.2098 53.0053 -0.0001 0.0000 0.0000
# 4 0.0000 0.0000 -0.0001 17.3802 0.0000 0.0000
# 5 0.0000 0.0000 0.0000 0.0000 13.2104 0.0000
# 6 0.0000 0.0000 0.0000 0.0000 0.0000 10.6242
#
#
#
# Elastic Compliance Matrix: (Units=1/GPa)
#
#
# Indices 1 2 3 4 5 6 
#
# 1 0.013310 -0.003416 -0.000793 0.000000 0.000000 0.000000
# 2 -0.003416 0.007788 -0.000476 0.000000 0.000000 0.000000
# 3 -0.000793 -0.000476 0.018980 0.000000 0.000000 0.000000
# 4 0.000000 0.000000 0.000000 0.057537 0.000000 0.000000
# 5 0.000000 0.000000 0.000000 0.000000 0.075698 0.000000
# 6 0.000000 0.000000 0.000000 0.000000 0.000000 0.094125
#
#
# Mechanical properties :
#
#
# Convention : Reuss Voigt Hill
#
# Bulk Modulus (GPa) = 32.56399 41.97635 37.27017
# Shear Modulus (GPa) = 17.41899 23.97371 20.69635
#
# Velocity S-wave (km/s) = 2.96044 3.47306 3.22694
# Velocity P-wave (km/s) = 5.29810 6.09941 5.71282
#
# Compressibility (1/GPa) = 0.03070877
#
# Stress axis : x y z
#
# Youngs Moduli (GPa) = 75.13368 128.39511 52.68673
#
# Poissons Ratio (x) = 0.43853 0.04180
# Poissons Ratio (y) = 0.25662 0.02507
# Poissons Ratio (z) = 0.05962 0.06108
#
# Static dielectric constant tensor:
#      x y z
#    x 1.702880 0.000000 0.000000 
#    y 0.000000 1.751980 0.000000 
#    z 0.000000 0.000000 1.696920 
# 
# From -- ./inp_files/5616.got.cif
#   From: 2010.05.17/outbox.cif.g08.bks.cpg/sg42_3_cif.got.tgz:5616.got - 2010.06.03 19:03:34.
