data_PCOD9368955
_publ_section_title
;
Structure prediction by ZEFSAII (Michael W. Deem and Ramdas Pophale) SiO2 
 PCOD9368955
Probable space group: F M M 2
;
_chemical_formula_sum "Si O2"
_cell_formula_units_Z 80
_cell_length_a 7.819183
_cell_length_b 18.259442
_cell_length_c 30.514320
_cell_angle_alpha 90.000000
_cell_angle_beta 90.000000
_cell_angle_gamma 90.000000
_cell_volume 4356.649036
_symmetry_space_group_name_H-M "F M M 2"
_symmetry_group_IT_number 42
_symmetry_cell_setting 'orthorhombic'
loop_
_space_group_symop_operation_xyz
x,y,z
-x,-y,z
-x,y,z
x,-y,z
x,1/2+y,1/2+z
-x,1/2-y,1/2+z
-x,1/2+y,1/2+z
x,1/2-y,1/2+z
1/2+x,y,1/2+z
1/2-x,-y,1/2+z
1/2-x,y,1/2+z
1/2+x,-y,1/2+z
1/2+x,1/2+y,z
1/2-x,1/2-y,z
1/2-x,1/2+y,z
1/2+x,1/2-y,z
loop_
_atom_site_type_symbol
_atom_site_label
_atom_site_fract_x
_atom_site_fract_y
_atom_site_fract_z
Si Si1 0.000000 0.910536 0.494720
Si Si2 0.708441 0.915779 0.655645
Si Si3 0.303197 0.589375 0.058270
Si Si4 0.500000 0.910705 0.894230
Si Si5 0.191474 0.412323 0.332088
Si Si6 0.795218 0.834875 0.243089
O O1 0.168813 0.887598 0.521495
O O2 0.000000 0.885890 0.444437
O O3 0.000000 0.000000 0.494506
O O4 0.500000 0.916383 0.655459
O O5 0.756214 0.888374 0.607172
O O6 0.765947 0.869072 0.697104
O O7 0.764850 0.000000 0.660771
O O8 0.500000 0.612578 0.050762
O O9 0.305068 0.500000 0.059196
O O10 0.333882 0.887696 0.866697
O O11 0.500000 0.000000 0.895240
O O12 0.209439 0.500000 0.326660
O O13 0.219457 0.375677 0.285086
O O14 0.000000 0.396923 0.347944
O O15 0.750000 0.750000 0.244879
O O16 0.000000 0.844162 0.245082
#
# Coordination Sequence:
#
# PCOD9368955 Si02
#       6
#     8  16  16   8  16  16
#     4   9  16  26  44  73 102 130 162 204 258 306
#     4   8  15  29  50  72  99 140 176 206 254 308
#     4   8  14  26  43  67 101 133 164 202 247 302
#     4   9  18  32  50  73 104 136 167 210 264 310
#     4  10  20  35  54  76 104 138 175 214 260 314
#     4  11  21  34  51  74 108 139 178 217 260 307
#
# _framework density 18.362738
#
# number of rings (size 3 to 8) (size 9 to 14) (size 15 to 20)
#    0.000    2.800    1.000    2.400    0.000    1.600 
#    3.600    4.000    0.000    0.000    0.000    1.400 
#    0.000    0.000    0.000    0.000    0.000    0.000 
#
# Total GULP energy -111521.162648 kJ/mol
# GULP energy per Si atom -5576.058132 kJ/mol
# Density = 1.832094 g / cm^3
# Si number density = 18.362738 Si / 1000 Ang^3
#
#
#
# Elastic Constant Matrix: (Units=GPa)
#
#
# Indices 1 2 3 4 5 6 
#
# 1 110.6636 29.5911 89.0678 0.0000 0.0000 0.0000
# 2 29.5911 15.5076 33.7172 0.0000 0.0000 0.0000
# 3 89.0678 33.7172 191.7287 0.0000 0.0000 0.0000
# 4 0.0000 0.0000 0.0000 -0.4276 0.0000 0.0000
# 5 0.0000 0.0000 0.0000 0.0000 9.4526 0.0000
# 6 0.0000 0.0000 0.0000 0.0000 0.0000 12.3296
#
#
#
# Elastic Compliance Matrix: (Units=1/GPa)
#
#
# Indices 1 2 3 4 5 6 
#
# 1 0.020394 -0.029655 -0.004259 0.000000 0.000000 0.000000
# 2 -0.029655 0.147527 -0.012168 0.000000 0.000000 0.000000
# 3 -0.004259 -0.012168 0.009334 0.000000 0.000000 0.000000
# 4 0.000000 0.000000 0.000000 -2.338505 0.000000 0.000000
# 5 0.000000 0.000000 0.000000 0.000000 0.105791 0.000000
# 6 0.000000 0.000000 0.000000 0.000000 0.000000 0.081106
#
#
# Mechanical properties :
#
#
# Convention : Reuss Voigt Hill
#
# Bulk Modulus (GPa) = 11.75207 69.18356 40.46782
# Shear Modulus (GPa) = -2.69712 15.30584 6.30436
#
# Velocity S-wave (km/s) = -1.21326 2.89022 1.85491
# Velocity P-wave (km/s) = 2.10979 6.99254 5.16463
#
# Compressibility (1/GPa) = 0.08509136
#
# Stress axis : x y z
#
# Youngs Moduli (GPa) = 49.03439 6.77844 107.13598
#
# Poissons Ratio (x) = 0.20102 0.45628
# Poissons Ratio (y) = 1.45412 1.30358
# Poissons Ratio (z) = 0.20883 0.08248
#
# Static dielectric constant tensor:
#      x y z
#    x 1.658280 0.000000 0.000000 
#    y 0.000000 1.590700 0.000000 
#    z 0.000000 0.000000 1.619050 
# 
# From -- ./inp_files/27829.got.cif
#   From: 2010.05.17/outbox.cif.g08.bks.cpg/sg42_14_cif.got.tgz:27829.got - 2010.06.03 19:03:34.
