data_PCOD9368450
_publ_section_title
;
Structure prediction by ZEFSAII (Michael W. Deem and Ramdas Pophale) SiO2 
 PCOD9368450
Probable space group: F M M 2
;
_chemical_formula_sum "Si O2"
_cell_formula_units_Z 116
_cell_length_a 26.629333
_cell_length_b 7.566642
_cell_length_c 27.391104
_cell_angle_alpha 90.000000
_cell_angle_beta 90.000000
_cell_angle_gamma 90.000000
_cell_volume 5519.160352
_symmetry_space_group_name_H-M "F M M 2"
_symmetry_group_IT_number 42
_symmetry_cell_setting 'orthorhombic'
loop_
_space_group_symop_operation_xyz
x,y,z
-x,-y,z
-x,y,z
x,-y,z
x,1/2+y,1/2+z
-x,1/2-y,1/2+z
-x,1/2+y,1/2+z
x,1/2-y,1/2+z
1/2+x,y,1/2+z
1/2-x,-y,1/2+z
1/2-x,y,1/2+z
1/2+x,-y,1/2+z
1/2+x,1/2+y,z
1/2-x,1/2-y,z
1/2-x,1/2+y,z
1/2+x,1/2-y,z
loop_
_atom_site_type_symbol
_atom_site_label
_atom_site_fract_x
_atom_site_fract_y
_atom_site_fract_z
Si Si1 0.090198 0.795813 0.691600
Si Si2 0.306435 0.710745 0.238269
Si Si3 0.500000 0.000000 0.059679
Si Si4 0.083573 0.294934 0.584037
Si Si5 0.157973 0.702879 0.842226
Si Si6 0.191541 0.303071 0.555419
Si Si7 0.055181 0.714220 0.296925
Si Si8 0.307976 0.710892 0.444659
O O1 0.149529 0.784831 0.704310
O O2 0.075684 0.700655 0.642322
O O3 0.063852 0.729851 0.740927
O O4 0.075625 0.000000 0.684821
O O5 0.313913 0.500000 0.239547
O O6 0.250000 0.750000 0.222162
O O7 0.314674 0.779966 0.294089
O O8 0.544073 0.157453 0.061844
O O9 0.080106 0.500000 0.565647
O O10 0.140897 0.221272 0.577500
O O11 0.175972 0.500000 0.846111
O O12 0.099814 0.708942 0.828478
O O13 0.164963 0.779536 0.896045
O O14 0.190235 0.500000 0.575317
O O15 0.250000 0.250000 0.562484
O O16 0.181847 0.295262 0.497140
O O17 0.059709 0.500000 0.297663
O O18 0.000000 0.763627 0.313706
O O19 0.316176 0.500000 0.450778
O O20 0.250000 0.750000 0.434521
#
# Coordination Sequence:
#
# PCOD9368450 Si02
#       8
#    16  16   4  16  16  16  16  16
#     4  10  20  35  57  82 113 151 195 247 303 358
#     4  10  19  32  49  74 113 154 194 241 297 362
#     4  12  26  44  72  90 128 172 202 270 308 374
#     4  11  25  43  65  97 127 163 214 259 315 376
#     4   9  19  33  49  76 109 145 188 236 285 349
#     4  10  22  39  64  94 125 157 199 254 311 380
#     4   9  19  33  53  77 105 142 189 235 287 345
#     4  10  19  32  56  85 114 148 189 235 293 359
#
# _framework density 21.017690000000002
#
# number of rings (size 3 to 8) (size 9 to 14) (size 15 to 20)
#    0.000    2.069    0.690    3.103    2.897    3.034 
#    0.000    1.379    1.517    0.000    0.000    0.000 
#    0.000    0.000    0.000    0.000    0.000    0.000 
#
# Total GULP energy -161463.689280 kJ/mol
# GULP energy per Si atom -5567.713423 kJ/mol
# Density = 2.096985 g / cm^3
# Si number density = 21.017690 Si / 1000 Ang^3
#
#
#
# Elastic Constant Matrix: (Units=GPa)
#
#
# Indices 1 2 3 4 5 6 
#
# 1 72.8045 12.8950 4.4680 0.0000 0.0000 -0.0004
# 2 12.8950 83.5684 -4.9829 -0.0001 0.0001 -0.0007
# 3 4.4680 -4.9829 29.7821 0.0000 0.0000 0.0000
# 4 0.0000 -0.0001 0.0000 13.5182 0.0000 0.0000
# 5 0.0000 0.0001 0.0000 0.0000 2.5859 0.0000
# 6 -0.0004 -0.0007 0.0000 0.0000 0.0000 29.1512
#
#
#
# Elastic Compliance Matrix: (Units=1/GPa)
#
#
# Indices 1 2 3 4 5 6 
#
# 1 0.014309 -0.002360 -0.002541 0.000000 0.000000 0.000000
# 2 -0.002360 0.012476 0.002441 0.000000 0.000000 0.000000
# 3 -0.002541 0.002441 0.034367 0.000000 0.000000 0.000000
# 4 0.000000 0.000000 0.000000 0.073974 0.000000 0.000000
# 5 0.000000 0.000000 0.000000 0.000000 0.386717 0.000000
# 6 0.000000 0.000000 0.000000 0.000000 0.000000 0.034304
#
#
# Mechanical properties :
#
#
# Convention : Reuss Voigt Hill
#
# Bulk Modulus (GPa) = 17.78321 23.43503 20.60912
# Shear Modulus (GPa) = 8.62350 20.63605 14.62978
#
# Velocity S-wave (km/s) = 2.02778 3.13684 2.64118
# Velocity P-wave (km/s) = 3.73657 4.92889 4.37355
#
# Compressibility (1/GPa) = 0.05623282
#
# Stress axis : x y z
#
# Youngs Moduli (GPa) = 69.88463 80.15459 29.09768
#
# Poissons Ratio (x) = 0.18913 0.07395
# Poissons Ratio (y) = 0.16489 -0.07104
# Poissons Ratio (z) = 0.17761 -0.19568
#
# Static dielectric constant tensor:
#      x y z
#    x 1.771950 0.000000 0.000000 
#    y 0.000000 1.790320 0.000000 
#    z 0.000000 0.000000 1.762560 
# 
# From -- ./inp_files/30722.got.cif
#   From: 2010.05.17/outbox.cif.g08.bks.cpg/sg42_16_cif.got.tgz:30722.got - 2010.06.03 19:03:34.
