data_PCOD9368089
_publ_section_title
;
Structure prediction by ZEFSAII (Michael W. Deem and Ramdas Pophale) SiO2 
 PCOD9368089
Probable space group: F M M 2
;
_chemical_formula_sum "Si O2"
_cell_formula_units_Z 64
_cell_length_a 5.458067
_cell_length_b 14.715889
_cell_length_c 37.365206
_cell_angle_alpha 90.000000
_cell_angle_beta 90.000000
_cell_angle_gamma 90.000000
_cell_volume 3001.184859
_symmetry_space_group_name_H-M "F M M 2"
_symmetry_group_IT_number 42
_symmetry_cell_setting 'orthorhombic'
loop_
_space_group_symop_operation_xyz
x,y,z
-x,-y,z
-x,y,z
x,-y,z
x,1/2+y,1/2+z
-x,1/2-y,1/2+z
-x,1/2+y,1/2+z
x,1/2-y,1/2+z
1/2+x,y,1/2+z
1/2-x,-y,1/2+z
1/2-x,y,1/2+z
1/2+x,-y,1/2+z
1/2+x,1/2+y,z
1/2-x,1/2-y,z
1/2-x,1/2+y,z
1/2+x,1/2-y,z
loop_
_atom_site_type_symbol
_atom_site_label
_atom_site_fract_x
_atom_site_fract_y
_atom_site_fract_z
Si Si1 0.000000 0.608095 0.881208
Si Si2 0.000000 0.145123 0.759637
Si Si3 0.000000 0.639824 0.115386
Si Si4 0.000000 0.389534 0.343330
Si Si5 0.000000 0.648996 0.729942
Si Si6 0.000000 0.348668 0.644715
Si Si7 0.000000 0.809126 0.458130
Si Si8 0.000000 0.190150 0.537176
O O1 0.251379 0.641817 0.862984
O O2 0.000000 0.629120 0.923211
O O3 0.000000 0.500000 0.876227
O O4 0.249983 0.104854 0.743788
O O5 0.000000 0.140097 0.802242
O O6 0.000000 0.249841 0.746779
O O7 0.000000 0.748022 0.126369
O O8 0.250954 0.605071 0.132025
O O9 0.000000 0.630259 0.072748
O O10 0.000000 0.500000 0.343858
O O11 0.000000 0.659646 0.687356
O O12 0.750000 0.750000 0.456499
O O13 0.000000 0.853820 0.497698
O O14 0.250000 0.250000 0.539325
#
# Coordination Sequence:
#
# PCOD9368089 Si02
#       8
#     8   8   8   8   8   8   8   8
#     4  10  21  40  57  75 101 137 177 214 253 311
#     4  10  18  32  45  66  96 123 158 193 259 289
#     4  10  14  22  36  59  85 129 159 188 218 289
#     4  10  21  37  57  73  93 127 174 219 248 296
#     4  10  19  30  43  68 100 135 149 203 244 309
#     4  10  16  23  39  59  90 130 164 182 229 291
#     4  10  21  35  52  79 110 136 162 217 263 310
#     4  10  16  27  41  63  99 131 152 194 252 289
#
# _framework density 21.324912999999999
#
# number of rings (size 3 to 8) (size 9 to 14) (size 15 to 20)
#    0.000    2.000    2.500    5.250    0.000    0.000 
#   13.500    0.000    0.000    0.000    0.000    0.000 
#    0.000   11.000    0.000    0.000    0.000    0.000 
#
# Total GULP energy -89312.195151 kJ/mol
# GULP energy per Si atom -5582.012197 kJ/mol
# Density = 2.127638 g / cm^3
# Si number density = 21.324913 Si / 1000 Ang^3
#
#
#
# Elastic Constant Matrix: (Units=GPa)
#
#
# Indices 1 2 3 4 5 6 
#
# 1 242.8388 20.5836 79.6371 0.0000 0.0000 0.0000
# 2 20.5836 59.7492 17.0631 0.0000 0.0000 0.0000
# 3 79.6371 17.0631 206.7134 0.0000 0.0000 0.0000
# 4 0.0000 0.0000 0.0000 0.7592 0.0000 0.0000
# 5 0.0000 0.0000 0.0000 0.0000 45.0045 0.0000
# 6 0.0000 0.0000 0.0000 0.0000 0.0000 -15.0734
#
#
#
# Elastic Compliance Matrix: (Units=1/GPa)
#
#
# Indices 1 2 3 4 5 6 
#
# 1 0.004789 -0.001150 -0.001750 0.000000 0.000000 0.000000
# 2 -0.001150 0.017417 -0.000995 0.000000 0.000000 0.000000
# 3 -0.001750 -0.000995 0.005594 0.000000 0.000000 0.000000
# 4 0.000000 0.000000 0.000000 1.317104 0.000000 0.000000
# 5 0.000000 0.000000 0.000000 0.000000 0.022220 0.000000
# 6 0.000000 0.000000 0.000000 0.000000 0.000000 -0.066342
#
#
# Mechanical properties :
#
#
# Convention : Reuss Voigt Hill
#
# Bulk Modulus (GPa) = 49.97389 82.65211 66.31300
# Shear Modulus (GPa) = 3.80158 32.27258 18.03708
#
# Velocity S-wave (km/s) = 1.33662 3.89443 2.91146
# Velocity P-wave (km/s) = 5.08601 7.68536 6.51660
#
# Compressibility (1/GPa) = 0.02001045
#
# Stress axis : x y z
#
# Youngs Moduli (GPa) = 208.79391 57.41560 178.76346
#
# Poissons Ratio (x) = 0.06604 0.31287
# Poissons Ratio (y) = 0.24014 0.17779
# Poissons Ratio (z) = 0.36543 0.05710
#
# Static dielectric constant tensor:
#      x y z
#    x 1.864040 0.000000 0.000000 
#    y 0.000000 1.754950 0.000000 
#    z 0.000000 0.000000 1.719880 
# 
# From -- ./inp_files/33521.got.cif
#   From: 2010.05.17/outbox.cif.g08.bks.cpg/sg42_17_cif.got.tgz:33521.got - 2010.06.03 19:03:34.
