data_PCOD9368836
_publ_section_title
;
Structure prediction by ZEFSAII (Michael W. Deem and Ramdas Pophale) SiO2 
 PCOD9368836
Probable space group: F M M 2
;
_chemical_formula_sum "Si O2"
_cell_formula_units_Z 96
_cell_length_a 16.293060
_cell_length_b 14.927615
_cell_length_c 18.328536
_cell_angle_alpha 90.000000
_cell_angle_beta 90.000000
_cell_angle_gamma 90.000000
_cell_volume 4457.802868
_symmetry_space_group_name_H-M "F M M 2"
_symmetry_group_IT_number 42
_symmetry_cell_setting 'orthorhombic'
loop_
_space_group_symop_operation_xyz
x,y,z
-x,-y,z
-x,y,z
x,-y,z
x,1/2+y,1/2+z
-x,1/2-y,1/2+z
-x,1/2+y,1/2+z
x,1/2-y,1/2+z
1/2+x,y,1/2+z
1/2-x,-y,1/2+z
1/2-x,y,1/2+z
1/2+x,-y,1/2+z
1/2+x,1/2+y,z
1/2-x,1/2-y,z
1/2-x,1/2+y,z
1/2+x,1/2-y,z
loop_
_atom_site_type_symbol
_atom_site_label
_atom_site_fract_x
_atom_site_fract_y
_atom_site_fract_z
Si Si1 0.767675 0.893371 0.004150
Si Si2 0.410282 0.108564 0.002237
Si Si3 0.336319 0.600473 0.848740
Si Si4 0.587348 0.285416 0.350167
Si Si5 0.593020 0.394568 0.104654
Si Si6 0.784435 0.842109 0.230171
O O1 0.678630 0.865390 0.035200
O O2 0.849914 0.854364 0.040388
O O3 0.770563 0.000000 0.017319
O O4 0.774581 0.881782 0.917020
O O5 0.500000 0.126177 0.038074
O O6 0.407105 0.000000 0.990071
O O7 0.411009 0.161793 0.926016
O O8 0.368446 0.500000 0.858288
O O9 0.401895 0.678935 0.857210
O O10 0.290030 0.606921 0.770586
O O11 0.500000 0.306451 0.314508
O O12 0.659937 0.314585 0.298479
O O13 0.500000 0.357258 0.111994
O O14 0.582561 0.500000 0.090119
O O15 0.653598 0.387498 0.174101
O O16 0.750000 0.750000 0.196723
#
# Coordination Sequence:
#
# PCOD9368836 Si02
#       6
#    16  16  16  16  16  16
#     4   9  18  34  56  81 113 153 190 234 290 351
#     4   9  17  31  54  85 117 150 189 238 294 343
#     4  10  20  35  57  81 113 156 196 236 288 345
#     4  10  20  33  54  84 115 145 191 243 286 342
#     4  10  21  37  59  86 116 152 194 241 294 350
#     4  10  20  36  55  82 112 153 194 241 291 342
#
# _framework density 21.535271999999999
#
# number of rings (size 3 to 8) (size 9 to 14) (size 15 to 20)
#    0.000    2.333    1.667    1.000    0.000    1.667 
#    3.000    3.333    0.000    4.000    0.000    4.667 
#    0.000    0.000    0.000    0.000    0.000    0.000 
#
# Total GULP energy -133607.904987 kJ/mol
# GULP energy per Si atom -5566.996041 kJ/mol
# Density = 2.148626 g / cm^3
# Si number density = 21.535272 Si / 1000 Ang^3
#
#
#
# Elastic Constant Matrix: (Units=GPa)
#
#
# Indices 1 2 3 4 5 6 
#
# 1 133.5490 5.3955 26.9342 0.0000 0.0000 0.0000
# 2 5.3955 53.2760 7.3268 0.0000 0.0000 0.0000
# 3 26.9342 7.3268 51.4351 0.0000 0.0000 0.0000
# 4 0.0000 0.0000 0.0000 13.3244 0.0000 0.0000
# 5 0.0000 0.0000 0.0000 0.0000 -34.9043 0.0000
# 6 0.0000 0.0000 0.0000 0.0000 0.0000 22.4595
#
#
#
# Elastic Compliance Matrix: (Units=1/GPa)
#
#
# Indices 1 2 3 4 5 6 
#
# 1 0.008375 -0.000250 -0.004350 0.000000 0.000000 0.000000
# 2 -0.000250 0.019153 -0.002597 0.000000 0.000000 0.000000
# 3 -0.004350 -0.002597 0.022090 0.000000 0.000000 0.000000
# 4 0.000000 0.000000 0.000000 0.075050 0.000000 0.000000
# 5 0.000000 0.000000 0.000000 0.000000 -0.028650 0.000000
# 6 0.000000 0.000000 0.000000 0.000000 0.000000 0.044525
#
#
# Mechanical properties :
#
#
# Convention : Reuss Voigt Hill
#
# Bulk Modulus (GPa) = 28.39053 35.28590 31.83821
# Shear Modulus (GPa) = 29.99775 13.41615 21.70695
#
# Velocity S-wave (km/s) = 3.73629 2.49867 3.17830
# Velocity P-wave (km/s) = 5.64136 4.97446 5.31838
#
# Compressibility (1/GPa) = 0.03522301
#
# Stress axis : x y z
#
# Youngs Moduli (GPa) = 119.39819 52.21200 45.26940
#
# Poissons Ratio (x) = 0.01305 0.19693
# Poissons Ratio (y) = 0.02984 0.11758
# Poissons Ratio (z) = 0.51940 0.13561
#
# Static dielectric constant tensor:
#      x y z
#    x 1.858930 0.000000 0.000000 
#    y 0.000000 1.829770 0.000000 
#    z 0.000000 0.000000 1.796950 
# 
# From -- ./inp_files/25100.got.cif
#   From: 2010.05.17/outbox.cif.g08.bks.cpg/sg42_13_cif.got.tgz:25100.got - 2010.06.03 19:03:34.
