data_PCOD9368219
_publ_section_title
;
Structure prediction by ZEFSAII (Michael W. Deem and Ramdas Pophale) SiO2 
 PCOD9368219
Probable space group: F M M 2
;
_chemical_formula_sum "Si O2"
_cell_formula_units_Z 128
_cell_length_a 17.128271
_cell_length_b 23.865338
_cell_length_c 19.646349
_cell_angle_alpha 90.000000
_cell_angle_beta 90.000000
_cell_angle_gamma 90.000000
_cell_volume 8030.876917
_symmetry_space_group_name_H-M "F M M 2"
_symmetry_group_IT_number 42
_symmetry_cell_setting 'orthorhombic'
loop_
_space_group_symop_operation_xyz
x,y,z
-x,-y,z
-x,y,z
x,-y,z
x,1/2+y,1/2+z
-x,1/2-y,1/2+z
-x,1/2+y,1/2+z
x,1/2-y,1/2+z
1/2+x,y,1/2+z
1/2-x,-y,1/2+z
1/2-x,y,1/2+z
1/2+x,-y,1/2+z
1/2+x,1/2+y,z
1/2-x,1/2-y,z
1/2-x,1/2+y,z
1/2+x,1/2-y,z
loop_
_atom_site_type_symbol
_atom_site_label
_atom_site_fract_x
_atom_site_fract_y
_atom_site_fract_z
Si Si1 0.828526 0.835400 0.072220
Si Si2 0.090410 0.736253 0.989504
Si Si3 0.406457 0.755747 0.339696
Si Si4 0.594324 0.564330 0.697925
Si Si5 0.594119 0.934386 0.489970
Si Si6 0.644275 0.161285 0.101659
Si Si7 0.094673 0.385811 0.343015
Si Si8 0.658180 0.763804 0.696210
O O1 0.735125 0.836639 0.080174
O O2 0.857702 0.816253 0.146980
O O3 0.856589 0.784549 0.023355
O O4 0.863597 0.892230 0.041885
O O5 0.114004 0.727721 0.911418
O O6 0.000000 0.755966 0.990114
O O7 0.098180 0.680919 0.034962
O O8 0.500000 0.755142 0.332847
O O9 0.381279 0.820874 0.344304
O O10 0.371481 0.729493 0.272079
O O11 0.500000 0.567381 0.697522
O O12 0.617545 0.500000 0.689621
O O13 0.624975 0.603268 0.637544
O O14 0.620937 0.586398 0.772268
O O15 0.500000 0.926767 0.495309
O O16 0.617473 0.916781 0.412760
O O17 0.611142 0.000000 0.501213
O O18 0.623979 0.208922 0.158292
O O19 0.000000 0.387122 0.342223
O O20 0.750000 0.750000 0.698006
#
# Coordination Sequence:
#
# PCOD9368219 Si02
#       8
#    16  16  16  16  16  16  16  16
#     4  10  20  33  47  70  99 128 163 194 235 284
#     4  10  19  32  50  71  97 126 159 198 239 284
#     4  10  18  29  49  73  94 123 157 189 237 289
#     4  10  19  31  50  73  96 127 162 195 238 285
#     4  10  19  32  51  73  97 127 161 197 239 284
#     4  10  20  33  47  69  99 129 161 196 234 283
#     4   9  16  29  47  73 100 120 152 196 238 287
#     4   9  19  32  46  67  97 127 157 191 232 284
#
# _framework density 15.938484000000001
#
# number of rings (size 3 to 8) (size 9 to 14) (size 15 to 20)
#    0.000    2.250    2.500    2.250    0.000    5.500 
#    0.000    0.000    0.000    0.000    0.000    0.875 
#    0.000    3.000    0.000    0.000    0.000    0.000 
#
# Total GULP energy -178337.421515 kJ/mol
# GULP energy per Si atom -5573.044422 kJ/mol
# Density = 1.590221 g / cm^3
# Si number density = 15.938484 Si / 1000 Ang^3
#
#
#
# Elastic Constant Matrix: (Units=GPa)
#
#
# Indices 1 2 3 4 5 6 
#
# 1 23.4854 17.1226 32.6025 0.0000 0.0000 0.0000
# 2 17.1226 81.5789 68.1150 0.0000 0.0000 0.0000
# 3 32.6025 68.1150 157.2907 0.0000 0.0000 0.0000
# 4 0.0000 0.0000 0.0000 22.6757 0.0000 0.0000
# 5 0.0000 0.0000 0.0000 0.0000 -35.3215 0.0000
# 6 0.0000 0.0000 0.0000 0.0000 0.0000 15.7076
#
#
#
# Elastic Compliance Matrix: (Units=1/GPa)
#
#
# Indices 1 2 3 4 5 6 
#
# 1 0.060407 -0.003484 -0.011012 0.000000 0.000000 0.000000
# 2 -0.003484 0.019402 -0.007680 0.000000 0.000000 0.000000
# 3 -0.011012 -0.007680 0.011966 0.000000 0.000000 0.000000
# 4 0.000000 0.000000 0.000000 0.044100 0.000000 0.000000
# 5 0.000000 0.000000 0.000000 0.000000 -0.028311 0.000000
# 6 0.000000 0.000000 0.000000 0.000000 0.000000 0.063664
#
#
# Mechanical properties :
#
#
# Convention : Reuss Voigt Hill
#
# Bulk Modulus (GPa) = 21.08704 55.33723 38.21214
# Shear Modulus (GPa) = 21.60891 10.24667 15.92779
#
# Velocity S-wave (km/s) = 3.68607 2.53828 3.16465
# Velocity P-wave (km/s) = 5.60135 6.58674 6.11393
#
# Compressibility (1/GPa) = 0.04742249
#
# Stress axis : x y z
#
# Youngs Moduli (GPa) = 16.55442 51.54220 83.57098
#
# Poissons Ratio (x) = 0.17958 0.92029
# Poissons Ratio (y) = 0.05768 0.64180
# Poissons Ratio (z) = 0.18230 0.39583
#
# Static dielectric constant tensor:
#      x y z
#    x 1.539210 0.000000 0.000000 
#    y 0.000000 1.525640 0.000000 
#    z 0.000000 0.000000 1.543510 
# 
# From -- ./inp_files/21245.got.cif
#   From: 2010.05.17/outbox.cif.g08.bks.cpg/sg42_11_cif.got.tgz:21245.got - 2010.06.03 19:03:34.
