data_PCOD9368189
_publ_section_title
;
Structure prediction by ZEFSAII (Michael W. Deem and Ramdas Pophale) SiO2 
 PCOD9368189
Probable space group: F M M 2
;
_chemical_formula_sum "Si O2"
_cell_formula_units_Z 84
_cell_length_a 24.304022
_cell_length_b 7.563462
_cell_length_c 21.635716
_cell_angle_alpha 90.000000
_cell_angle_beta 90.000000
_cell_angle_gamma 90.000000
_cell_volume 3977.132418
_symmetry_space_group_name_H-M "F M M 2"
_symmetry_group_IT_number 42
_symmetry_cell_setting 'orthorhombic'
loop_
_space_group_symop_operation_xyz
x,y,z
-x,-y,z
-x,y,z
x,-y,z
x,1/2+y,1/2+z
-x,1/2-y,1/2+z
-x,1/2+y,1/2+z
x,1/2-y,1/2+z
1/2+x,y,1/2+z
1/2-x,-y,1/2+z
1/2-x,y,1/2+z
1/2+x,-y,1/2+z
1/2+x,1/2+y,z
1/2-x,1/2-y,z
1/2-x,1/2+y,z
1/2+x,1/2-y,z
loop_
_atom_site_type_symbol
_atom_site_label
_atom_site_fract_x
_atom_site_fract_y
_atom_site_fract_z
Si Si1 0.879232 0.204318 0.850550
Si Si2 0.596016 0.797706 0.981327
Si Si3 0.000000 0.713914 0.162098
Si Si4 0.314300 0.787643 0.231419
Si Si5 0.500000 0.205382 0.806927
Si Si6 0.500000 0.500000 0.975916
Si Si7 0.381934 0.713611 0.614193
O O1 0.871840 0.293394 0.916668
O O2 0.846023 0.280155 0.792208
O O3 0.944032 0.212944 0.833028
O O4 0.863694 0.000000 0.857723
O O5 0.547780 0.655574 0.975805
O O6 0.575457 0.000000 0.990554
O O7 0.630183 0.747854 0.042884
O O8 0.055622 0.774081 0.128740
O O9 0.000000 0.500000 0.162592
O O10 0.000000 0.773530 0.233037
O O11 0.250000 0.750000 0.233514
O O12 0.342172 0.719725 0.168206
O O13 0.321865 0.000000 0.231931
O O14 0.500000 0.000000 0.824003
O O15 0.381885 0.500000 0.619637
#
# Coordination Sequence:
#
# PCOD9368189 Si02
#       7
#    16  16   8  16   8   4  16
#     4  11  22  41  62  87 125 168 212 256 314 384
#     4  11  23  40  62  89 131 173 211 254 311 380
#     4  10  17  35  59  83 118 161 197 239 304 377
#     4  10  22  42  67  91 121 162 213 273 327 371
#     4  12  23  33  52  91 126 158 202 253 310 377
#     4  12  22  40  58  98 132 174 212 248 314 374
#     4   9  19  39  63  87 119 164 206 248 313 382
#
# _framework density 21.120743999999998
#
# number of rings (size 3 to 8) (size 9 to 14) (size 15 to 20)
#    0.000    1.524    2.857    2.857    0.000    3.048 
#    5.143    0.952    0.000    4.571    0.000    0.000 
#    0.000    0.000    0.000    0.000    0.000    0.000 
#
# Total GULP energy -117066.236070 kJ/mol
# GULP energy per Si atom -5574.582670 kJ/mol
# Density = 2.107267 g / cm^3
# Si number density = 21.120744 Si / 1000 Ang^3
#
#
#
# Elastic Constant Matrix: (Units=GPa)
#
#
# Indices 1 2 3 4 5 6 
#
# 1 109.5440 -0.7102 79.4048 0.0000 0.0000 0.0000
# 2 -0.7102 100.9804 13.5459 0.0000 0.0000 -0.0001
# 3 79.4048 13.5459 223.5288 0.0000 0.0000 0.0000
# 4 0.0000 0.0000 0.0000 20.3672 0.0000 0.0000
# 5 0.0000 0.0000 0.0000 0.0000 -3.6099 0.0000
# 6 0.0000 -0.0001 0.0000 0.0000 0.0000 21.2844
#
#
#
# Elastic Compliance Matrix: (Units=1/GPa)
#
#
# Indices 1 2 3 4 5 6 
#
# 1 0.012341 0.000680 -0.004425 0.000000 0.000000 0.000000
# 2 0.000680 0.010022 -0.000849 0.000000 0.000000 0.000000
# 3 -0.004425 -0.000849 0.006097 0.000000 0.000000 0.000000
# 4 0.000000 0.000000 0.000000 0.049099 0.000000 0.000000
# 5 0.000000 0.000000 0.000000 0.000000 -0.277017 0.000000
# 6 0.000000 0.000000 0.000000 0.000000 0.000000 0.046983
#
#
# Mechanical properties :
#
#
# Convention : Reuss Voigt Hill
#
# Bulk Modulus (GPa) = 51.88865 68.72601 60.30733
# Shear Modulus (GPa) = -36.53231 30.39585 -3.06823
#
# Velocity S-wave (km/s) = -4.16346 3.79772 -1.20659
# Velocity P-wave (km/s) = 1.22816 7.20003 5.16473
#
# Compressibility (1/GPa) = 0.01927204
#
# Stress axis : x y z
#
# Youngs Moduli (GPa) = 81.03232 99.78458 164.01297
#
# Poissons Ratio (x) = -0.06789 0.72577
# Poissons Ratio (y) = -0.05513 0.13925
# Poissons Ratio (z) = 0.35857 0.08472
#
# Static dielectric constant tensor:
#      x y z
#    x 1.707120 0.000000 0.000000 
#    y 0.000000 1.781450 0.000000 
#    z 0.000000 0.000000 1.818900 
# 
# From -- ./inp_files/30421.got.cif
#   From: 2010.05.17/outbox.cif.g08.bks.cpg/sg42_16_cif.got.tgz:30421.got - 2010.06.03 19:03:34.
