data_PCOD9368901
_publ_section_title
;
Structure prediction by ZEFSAII (Michael W. Deem and Ramdas Pophale) SiO2 
 PCOD9368901
Probable space group: F M M 2
;
_chemical_formula_sum "Si O2"
_cell_formula_units_Z 104
_cell_length_a 18.525581
_cell_length_b 16.276481
_cell_length_c 17.224165
_cell_angle_alpha 90.000000
_cell_angle_beta 90.000000
_cell_angle_gamma 90.000000
_cell_volume 5193.624298
_symmetry_space_group_name_H-M "F M M 2"
_symmetry_group_IT_number 42
_symmetry_cell_setting 'orthorhombic'
loop_
_space_group_symop_operation_xyz
x,y,z
-x,-y,z
-x,y,z
x,-y,z
x,1/2+y,1/2+z
-x,1/2-y,1/2+z
-x,1/2+y,1/2+z
x,1/2-y,1/2+z
1/2+x,y,1/2+z
1/2-x,-y,1/2+z
1/2-x,y,1/2+z
1/2+x,-y,1/2+z
1/2+x,1/2+y,z
1/2-x,1/2-y,z
1/2-x,1/2+y,z
1/2+x,1/2-y,z
loop_
_atom_site_type_symbol
_atom_site_label
_atom_site_fract_x
_atom_site_fract_y
_atom_site_fract_z
Si Si1 0.414495 0.340054 0.151740
Si Si2 0.200585 0.405766 0.959019
Si Si3 0.082887 0.500000 0.383201
Si Si4 0.750000 0.750000 0.286721
Si Si5 0.323056 0.405672 0.274161
Si Si6 0.915546 0.000000 0.068770
Si Si7 0.347550 0.667443 0.908029
Si Si8 0.085058 0.285064 0.029552
O O1 0.500000 0.336874 0.142090
O O2 0.395471 0.367285 0.238395
O O3 0.383756 0.416488 0.102127
O O4 0.390639 0.255569 0.111536
O O5 0.209186 0.500000 0.984664
O O6 0.180046 0.407308 0.867258
O O7 0.277486 0.359574 0.958143
O O8 0.138862 0.357363 0.004812
O O9 0.084598 0.500000 0.476902
O O10 0.122640 0.414424 0.365815
O O11 0.000000 0.500000 0.356713
O O12 0.733346 0.664049 0.245255
O O13 0.682769 0.770869 0.343115
O O14 0.311654 0.500000 0.249229
O O15 0.000000 0.000000 0.093176
O O16 0.403431 0.713379 0.964277
O O17 0.000000 0.307561 0.031533
#
# Coordination Sequence:
#
# PCOD9368901 Si02
#       8
#    16  16   8   8  16   8  16  16
#     4  10  20  34  54  82 116 148 184 239 297 342
#     4  10  21  38  59  84 116 156 196 238 297 355
#     4  11  20  30  53  86 115 155 197 240 296 351
#     4  10  22  38  54  84 116 154 196 244 300 354
#     4  10  20  37  59  82 113 154 195 241 294 350
#     4   9  16  28  45  74 114 139 171 228 289 333
#     4  11  18  35  56  80 117 151 192 244 291 350
#     4  11  21  35  57  85 117 152 192 244 299 351
#
# _framework density 20.024552
#
# number of rings (size 3 to 8) (size 9 to 14) (size 15 to 20)
#    0.000    1.692    6.154    0.462    1.077    0.923 
#    2.769    1.538    0.000    0.000    0.000    0.000 
#    0.000    0.000    0.000    0.000    0.000    0.000 
#
# Total GULP energy -144820.589615 kJ/mol
# GULP energy per Si atom -5570.022677 kJ/mol
# Density = 1.997898 g / cm^3
# Si number density = 20.024552 Si / 1000 Ang^3
#
#
#
# Elastic Constant Matrix: (Units=GPa)
#
#
# Indices 1 2 3 4 5 6 
#
# 1 67.0768 36.2090 3.8607 0.0000 0.0000 0.0000
# 2 36.2090 130.4846 -0.6220 0.0000 0.0000 0.0000
# 3 3.8607 -0.6220 15.2752 0.0000 0.0000 0.0000
# 4 0.0000 0.0000 0.0000 23.3641 0.0000 0.0000
# 5 0.0000 0.0000 0.0000 0.0000 18.1486 0.0000
# 6 0.0000 0.0000 0.0000 0.0000 0.0000 32.0692
#
#
#
# Elastic Compliance Matrix: (Units=1/GPa)
#
#
# Indices 1 2 3 4 5 6 
#
# 1 0.017869 -0.004981 -0.004719 0.000000 0.000000 0.000000
# 2 -0.004981 0.009054 0.001628 0.000000 0.000000 0.000000
# 3 -0.004719 0.001628 0.066725 0.000000 0.000000 0.000000
# 4 0.000000 0.000000 0.000000 0.042801 0.000000 0.000000
# 5 0.000000 0.000000 0.000000 0.000000 0.055101 0.000000
# 6 0.000000 0.000000 0.000000 0.000000 0.000000 0.031183
#
#
# Mechanical properties :
#
#
# Convention : Reuss Voigt Hill
#
# Bulk Modulus (GPa) = 12.90284 32.41466 22.65875
# Shear Modulus (GPa) = 18.88858 26.27562 22.58210
#
# Velocity S-wave (km/s) = 3.07460 3.62632 3.36180
# Velocity P-wave (km/s) = 4.36598 5.81001 5.13897
#
# Compressibility (1/GPa) = 0.07750229
#
# Stress axis : x y z
#
# Youngs Moduli (GPa) = 55.96376 110.45203 14.98694
#
# Poissons Ratio (x) = 0.55016 0.07072
# Poissons Ratio (y) = 0.27876 -0.02439
# Poissons Ratio (z) = 0.26409 -0.17977
#
# Static dielectric constant tensor:
#      x y z
#    x 1.738260 0.000000 0.000000 
#    y 0.000000 1.775240 0.000000 
#    z 0.000000 0.000000 1.728330 
# 
# From -- ./inp_files/20919.got.cif
#   From: 2010.05.17/outbox.cif.g08.bks.cpg/sg42_11_cif.got.tgz:20919.got - 2010.06.03 19:03:34.
