data_PCOD9368712
_publ_section_title
;
Structure prediction by ZEFSAII (Michael W. Deem and Ramdas Pophale) SiO2 
 PCOD9368712
Probable space group: F M M 2
;
_chemical_formula_sum "Si O2"
_cell_formula_units_Z 112
_cell_length_a 25.131331
_cell_length_b 14.309098
_cell_length_c 15.192218
_cell_angle_alpha 90.000000
_cell_angle_beta 90.000000
_cell_angle_gamma 90.000000
_cell_volume 5463.223049
_symmetry_space_group_name_H-M "F M M 2"
_symmetry_group_IT_number 42
_symmetry_cell_setting 'orthorhombic'
loop_
_space_group_symop_operation_xyz
x,y,z
-x,-y,z
-x,y,z
x,-y,z
x,1/2+y,1/2+z
-x,1/2-y,1/2+z
-x,1/2+y,1/2+z
x,1/2-y,1/2+z
1/2+x,y,1/2+z
1/2-x,-y,1/2+z
1/2-x,y,1/2+z
1/2+x,-y,1/2+z
1/2+x,1/2+y,z
1/2-x,1/2-y,z
1/2-x,1/2+y,z
1/2+x,1/2-y,z
loop_
_atom_site_type_symbol
_atom_site_label
_atom_site_fract_x
_atom_site_fract_y
_atom_site_fract_z
Si Si1 0.440736 0.112329 0.436490
Si Si2 0.672840 0.104339 0.981273
Si Si3 0.056409 0.611868 0.053834
Si Si4 0.590643 0.386582 0.741747
Si Si5 0.792264 0.111513 0.789459
Si Si6 0.264145 0.392487 0.123133
Si Si7 0.674680 0.307903 0.966428
O O1 0.500000 0.134334 0.471463
O O2 0.439829 0.132812 0.331845
O O3 0.387689 0.164141 0.470122
O O4 0.432590 0.000000 0.446888
O O5 0.686358 0.202062 0.935870
O O6 0.679744 0.000000 0.941381
O O7 0.610797 0.121670 0.001650
O O8 0.707476 0.103358 0.071125
O O9 0.052169 0.500000 0.062262
O O10 0.065093 0.649777 0.152364
O O11 0.000000 0.645842 0.016350
O O12 0.592852 0.500000 0.735237
O O13 0.650861 0.352010 0.754342
O O14 0.746147 0.141628 0.722392
O O15 0.795305 0.129796 0.893372
O O16 0.792593 0.000000 0.778333
O O17 0.284543 0.500000 0.123170
O O18 0.300810 0.328825 0.061856
#
# Coordination Sequence:
#
# PCOD9368712 Si02
#       7
#    16  16  16  16  16  16  16
#     4   9  17  29  49  82 122 154 183 231 293 352
#     4  10  21  36  51  73 112 156 192 241 293 329
#     4   9  15  25  46  74 103 142 190 231 277 337
#     4   8  12  23  45  76 109 143 175 217 281 341
#     4   9  17  32  57  86 116 145 179 232 296 349
#     4  10  19  36  60  83 112 145 183 237 299 357
#     4  11  21  34  56  85 116 156 198 236 286 355
#
# _framework density 20.500717999999999
#
# number of rings (size 3 to 8) (size 9 to 14) (size 15 to 20)
#    0.000    2.571    1.429    3.000    0.000    2.286 
#    0.000    2.857    0.000    2.571    0.000    0.000 
#    0.000    0.000    0.000    0.286    0.000    2.857 
#
# Total GULP energy -155968.669286 kJ/mol
# GULP energy per Si atom -5570.309617 kJ/mol
# Density = 2.045406 g / cm^3
# Si number density = 20.500718 Si / 1000 Ang^3
#
#
#
# Elastic Constant Matrix: (Units=GPa)
#
#
# Indices 1 2 3 4 5 6 
#
# 1 113.3092 20.1820 16.1303 0.0000 0.0000 0.0000
# 2 20.1820 91.2936 9.1732 0.0000 0.0000 0.0000
# 3 16.1303 9.1732 43.2135 0.0000 0.0000 0.0000
# 4 0.0000 0.0000 0.0000 -0.4637 0.0000 0.0000
# 5 0.0000 0.0000 0.0000 0.0000 7.2259 0.0000
# 6 0.0000 0.0000 0.0000 0.0000 0.0000 6.1558
#
#
#
# Elastic Compliance Matrix: (Units=1/GPa)
#
#
# Indices 1 2 3 4 5 6 
#
# 1 0.009602 -0.001801 -0.003202 0.000000 0.000000 0.000000
# 2 -0.001801 0.011530 -0.001775 0.000000 0.000000 0.000000
# 3 -0.003202 -0.001775 0.024713 0.000000 0.000000 0.000000
# 4 0.000000 0.000000 0.000000 -2.156431 0.000000 0.000000
# 5 0.000000 0.000000 0.000000 0.000000 0.138391 0.000000
# 6 0.000000 0.000000 0.000000 0.000000 0.000000 0.162449
#
#
# Mechanical properties :
#
#
# Convention : Reuss Voigt Hill
#
# Bulk Modulus (GPa) = 30.97043 37.64302 34.30673
# Shear Modulus (GPa) = -2.80045 16.07232 6.63593
#
# Velocity S-wave (km/s) = -1.17004 2.80302 1.80110
# Velocity P-wave (km/s) = 3.64890 5.37378 4.59304
#
# Compressibility (1/GPa) = 0.03228886
#
# Stress axis : x y z
#
# Youngs Moduli (GPa) = 104.14517 86.72882 40.46464
#
# Poissons Ratio (x) = 0.15620 0.12956
# Poissons Ratio (y) = 0.18756 0.07184
# Poissons Ratio (z) = 0.33346 0.15397
#
# Static dielectric constant tensor:
#      x y z
#    x 1.819350 0.000000 0.000000 
#    y 0.000000 1.756380 0.000000 
#    z 0.000000 0.000000 1.722810 
# 
# From -- ./inp_files/17080.got.cif
#   From: 2010.05.17/outbox.cif.g08.bks.cpg/sg42_9_cif.got.tgz:17080.got - 2010.06.03 19:03:34.
