data_PCOD9368884
_publ_section_title
;
Structure prediction by ZEFSAII (Michael W. Deem and Ramdas Pophale) SiO2 
 PCOD9368884
Probable space group: F M M 2
;
_chemical_formula_sum "Si O2"
_cell_formula_units_Z 104
_cell_length_a 22.270643
_cell_length_b 9.691904
_cell_length_c 26.781564
_cell_angle_alpha 90.000000
_cell_angle_beta 90.000000
_cell_angle_gamma 90.000000
_cell_volume 5780.664913
_symmetry_space_group_name_H-M "F M M 2"
_symmetry_group_IT_number 42
_symmetry_cell_setting 'orthorhombic'
loop_
_space_group_symop_operation_xyz
x,y,z
-x,-y,z
-x,y,z
x,-y,z
x,1/2+y,1/2+z
-x,1/2-y,1/2+z
-x,1/2+y,1/2+z
x,1/2-y,1/2+z
1/2+x,y,1/2+z
1/2-x,-y,1/2+z
1/2-x,y,1/2+z
1/2+x,-y,1/2+z
1/2+x,1/2+y,z
1/2-x,1/2-y,z
1/2-x,1/2+y,z
1/2+x,1/2-y,z
loop_
_atom_site_type_symbol
_atom_site_label
_atom_site_fract_x
_atom_site_fract_y
_atom_site_fract_z
Si Si1 0.633008 0.839781 0.942540
Si Si2 0.676944 0.152359 0.589916
Si Si3 0.807455 0.165610 0.684145
Si Si4 0.431572 0.834786 0.241600
Si Si5 0.067379 0.340737 0.523945
Si Si6 0.250000 0.750000 0.497459
Si Si7 0.069070 0.337043 0.843078
O O1 0.616128 0.797597 0.886248
O O2 0.617089 0.000000 0.946334
O O3 0.593138 0.753258 0.980560
O O4 0.700927 0.820222 0.961929
O O5 0.689831 0.276775 0.627442
O O6 0.608786 0.168537 0.572335
O O7 0.713512 0.158067 0.537683
O O8 0.686321 0.000000 0.612759
O O9 0.750000 0.250000 0.706362
O O10 0.872678 0.198288 0.708369
O O11 0.798975 0.000000 0.686566
O O12 0.500000 0.802777 0.222338
O O13 0.424792 0.753440 0.293553
O O14 0.430104 0.000000 0.249780
O O15 0.069662 0.500000 0.507209
O O16 0.000000 0.302277 0.535873
O O17 0.076662 0.500000 0.831436
O O18 0.000000 0.319719 0.861705
#
# Coordination Sequence:
#
# PCOD9368884 Si02
#       7
#    16  16  16  16  16   8  16
#     4  10  20  34  54  80 110 146 187 229 272 325
#     4  10  20  34  54  77 106 145 187 227 271 327
#     4  11  23  38  59  84 112 146 186 232 284 339
#     4   9  20  40  62  84 111 145 187 233 282 338
#     4   9  19  34  51  77 112 145 180 226 277 329
#     4  10  20  34  54  76 110 146 190 224 274 316
#     4   9  18  34  57  84 112 143 180 224 276 330
#
# _framework density 17.991011
#
# number of rings (size 3 to 8) (size 9 to 14) (size 15 to 20)
#    0.000    2.308    0.769    1.385    0.000    6.462 
#    1.385    1.538    0.000    0.000    0.000    0.000 
#    0.000    0.000    0.000    0.000    0.000    0.000 
#
# Total GULP energy -144767.658224 kJ/mol
# GULP energy per Si atom -5567.986855 kJ/mol
# Density = 1.795006 g / cm^3
# Si number density = 17.991011 Si / 1000 Ang^3
#
#
#
# Elastic Constant Matrix: (Units=GPa)
#
#
# Indices 1 2 3 4 5 6 
#
# 1 148.8882 38.8387 53.2523 0.0000 0.0000 0.0000
# 2 38.8387 56.4526 25.3339 0.0000 0.0000 0.0000
# 3 53.2523 25.3339 68.0023 0.0000 0.0000 0.0000
# 4 0.0000 0.0000 0.0000 47.3418 0.0000 0.0000
# 5 0.0000 0.0000 0.0000 0.0000 25.5640 0.0000
# 6 0.0000 0.0000 0.0000 0.0000 0.0000 23.7057
#
#
#
# Elastic Compliance Matrix: (Units=1/GPa)
#
#
# Indices 1 2 3 4 5 6 
#
# 1 0.010049 -0.004061 -0.006357 0.000000 0.000000 0.000000
# 2 -0.004061 0.022911 -0.005355 0.000000 0.000000 0.000000
# 3 -0.006357 -0.005355 0.021678 0.000000 0.000000 0.000000
# 4 0.000000 0.000000 0.000000 0.021123 0.000000 0.000000
# 5 0.000000 0.000000 0.000000 0.000000 0.039118 0.000000
# 6 0.000000 0.000000 0.000000 0.000000 0.000000 0.042184
#
#
# Mechanical properties :
#
#
# Convention : Reuss Voigt Hill
#
# Bulk Modulus (GPa) = 43.30340 56.46589 49.88464
# Shear Modulus (GPa) = 25.47028 29.71683 27.59355
#
# Velocity S-wave (km/s) = 3.76669 4.06859 3.92055
# Velocity P-wave (km/s) = 6.56041 7.31608 6.94853
#
# Compressibility (1/GPa) = 0.02309288
#
# Stress axis : x y z
#
# Youngs Moduli (GPa) = 99.50818 43.64673 46.12902
#
# Poissons Ratio (x) = 0.17726 0.29323
# Poissons Ratio (y) = 0.40412 0.24703
# Poissons Ratio (z) = 0.63254 0.23373
#
# Static dielectric constant tensor:
#      x y z
#    x 1.675150 0.000000 0.000000 
#    y 0.000000 1.613300 0.000000 
#    z 0.000000 0.000000 1.587140 
# 
# From -- ./inp_files/33237.got.cif
#   From: 2010.05.17/outbox.cif.g08.bks.cpg/sg42_17_cif.got.tgz:33237.got - 2010.06.03 19:03:34.
