data_PCOD9368333
_publ_section_title
;
Structure prediction by ZEFSAII (Michael W. Deem and Ramdas Pophale) SiO2 
 PCOD9368333
Probable space group: F M M 2
;
_chemical_formula_sum "Si O2"
_cell_formula_units_Z 96
_cell_length_a 11.475730
_cell_length_b 15.219400
_cell_length_c 28.929093
_cell_angle_alpha 90.000000
_cell_angle_beta 90.000000
_cell_angle_gamma 90.000000
_cell_volume 5052.573858
_symmetry_space_group_name_H-M "F M M 2"
_symmetry_group_IT_number 42
_symmetry_cell_setting 'orthorhombic'
loop_
_space_group_symop_operation_xyz
x,y,z
-x,-y,z
-x,y,z
x,-y,z
x,1/2+y,1/2+z
-x,1/2-y,1/2+z
-x,1/2+y,1/2+z
x,1/2-y,1/2+z
1/2+x,y,1/2+z
1/2-x,-y,1/2+z
1/2-x,y,1/2+z
1/2+x,-y,1/2+z
1/2+x,1/2+y,z
1/2-x,1/2-y,z
1/2-x,1/2+y,z
1/2+x,1/2-y,z
loop_
_atom_site_type_symbol
_atom_site_label
_atom_site_fract_x
_atom_site_fract_y
_atom_site_fract_z
Si Si1 0.249430 0.650244 0.840150
Si Si2 0.000000 0.397896 0.323178
Si Si3 0.782868 0.106354 0.659525
Si Si4 0.146563 0.320898 0.059798
Si Si5 0.365587 0.106319 0.743599
Si Si6 0.637270 0.000000 0.899260
Si Si7 0.000000 0.393410 0.222305
Si Si8 0.360259 0.000000 0.003165
O O1 0.250000 0.750000 0.854666
O O2 0.381410 0.621704 0.847635
O O3 0.211272 0.641978 0.786196
O O4 0.172048 0.585116 0.869928
O O5 0.000000 0.500000 0.313760
O O6 0.000000 0.352987 0.272967
O O7 0.815486 0.153079 0.611985
O O8 0.671899 0.131204 0.691296
O O9 0.886341 0.129608 0.694400
O O10 0.780416 0.000000 0.651677
O O11 0.250000 0.250000 0.045922
O O12 0.167099 0.409578 0.029926
O O13 0.000000 0.301648 0.058082
O O14 0.500000 0.128362 0.751861
O O15 0.351617 0.000000 0.745859
O O16 0.500000 0.000000 0.903661
O O17 0.688511 0.000000 0.951010
O O18 0.000000 0.500000 0.223696
O O19 0.500000 0.000000 0.000501
#
# Coordination Sequence:
#
# PCOD9368333 Si02
#       8
#    16   8  16  16  16   8   8   8
#     4  12  25  38  62  95 128 166 210 260 313 374
#     4  11  20  40  60  85 126 170 216 259 303 357
#     4  10  18  33  59  89 120 168 215 254 296 359
#     4  11  23  41  69 101 130 164 212 266 319 385
#     4  10  20  36  56  86 129 174 215 258 307 363
#     4  11  24  47  70  91 123 163 208 263 324 387
#     4   9  16  28  54  82 112 160 218 248 283 338
#     4   9  22  46  75  94 116 163 214 259 320 395
#
# _framework density 19.000218
#
# number of rings (size 3 to 8) (size 9 to 14) (size 15 to 20)
#    0.000    1.500    5.000    0.500    2.333    2.000 
#    0.000    0.417    3.667    0.000    0.000    0.000 
#    0.000    0.000    0.000    0.000    0.000    0.000 
#
# Total GULP energy -133658.053187 kJ/mol
# GULP energy per Si atom -5569.085549 kJ/mol
# Density = 1.895697 g / cm^3
# Si number density = 19.000218 Si / 1000 Ang^3
#
#
#
# Elastic Constant Matrix: (Units=GPa)
#
#
# Indices 1 2 3 4 5 6 
#
# 1 103.2270 39.1274 22.8273 0.0000 0.0000 0.0000
# 2 39.1274 102.2058 41.2819 0.0000 0.0000 0.0000
# 3 22.8273 41.2819 87.3958 0.0000 0.0000 0.0000
# 4 0.0000 0.0000 0.0000 -1.5792 0.0000 0.0000
# 5 0.0000 0.0000 0.0000 0.0000 19.7586 0.0000
# 6 0.0000 0.0000 0.0000 0.0000 0.0000 14.2300
#
#
#
# Elastic Compliance Matrix: (Units=1/GPa)
#
#
# Indices 1 2 3 4 5 6 
#
# 1 0.011422 -0.003915 -0.001134 0.000000 0.000000 0.000000
# 2 -0.003915 0.013433 -0.005323 0.000000 0.000000 0.000000
# 3 -0.001134 -0.005323 0.014253 0.000000 0.000000 0.000000
# 4 0.000000 0.000000 0.000000 -0.633220 0.000000 0.000000
# 5 0.000000 0.000000 0.000000 0.000000 0.050611 0.000000
# 6 0.000000 0.000000 0.000000 0.000000 0.000000 0.070274
#
#
# Mechanical properties :
#
#
# Convention : Reuss Voigt Hill
#
# Bulk Modulus (GPa) = 54.45291 55.47797 54.96544
# Shear Modulus (GPa) = -11.20163 19.12134 3.95986
#
# Velocity S-wave (km/s) = -2.43070 3.17578 1.44521
# Velocity P-wave (km/s) = 4.56547 6.53525 5.63706
#
# Compressibility (1/GPa) = 0.01836449
#
# Stress axis : x y z
#
# Youngs Moduli (GPa) = 87.55046 74.44585 70.16263
#
# Poissons Ratio (x) = 0.29142 0.07959
# Poissons Ratio (y) = 0.34272 0.37344
# Poissons Ratio (z) = 0.09931 0.39624
#
# Static dielectric constant tensor:
#      x y z
#    x 1.700490 0.000000 0.000000 
#    y 0.000000 1.683520 0.000000 
#    z 0.000000 0.000000 1.658410 
# 
# From -- ./inp_files/34145.got.cif
#   From: 2010.05.17/outbox.cif.g08.bks.cpg/sg42_18_cif.got.tgz:34145.got - 2010.06.03 19:03:34.
