data_PCOD9368741
_publ_section_title
;
Structure prediction by ZEFSAII (Michael W. Deem and Ramdas Pophale) SiO2 
 PCOD9368741
Probable space group: F M M 2
;
_chemical_formula_sum "Si O2"
_cell_formula_units_Z 72
_cell_length_a 13.860365
_cell_length_b 19.285711
_cell_length_c 14.220531
_cell_angle_alpha 90.000000
_cell_angle_beta 90.000000
_cell_angle_gamma 90.000000
_cell_volume 3801.247391
_symmetry_space_group_name_H-M "F M M 2"
_symmetry_group_IT_number 42
_symmetry_cell_setting 'orthorhombic'
loop_
_space_group_symop_operation_xyz
x,y,z
-x,-y,z
-x,y,z
x,-y,z
x,1/2+y,1/2+z
-x,1/2-y,1/2+z
-x,1/2+y,1/2+z
x,1/2-y,1/2+z
1/2+x,y,1/2+z
1/2-x,-y,1/2+z
1/2-x,y,1/2+z
1/2+x,-y,1/2+z
1/2+x,1/2+y,z
1/2-x,1/2-y,z
1/2-x,1/2+y,z
1/2+x,1/2-y,z
loop_
_atom_site_type_symbol
_atom_site_label
_atom_site_fract_x
_atom_site_fract_y
_atom_site_fract_z
Si Si1 0.300972 0.854575 0.949320
Si Si2 0.111121 0.714189 0.761903
Si Si3 0.889188 0.633551 0.348585
Si Si4 0.616714 0.500000 0.729738
Si Si5 0.750000 0.250000 0.602575
Si Si6 0.616244 0.000000 0.014520
O O1 0.346522 0.824029 0.853606
O O2 0.186305 0.859390 0.932219
O O3 0.311720 0.801141 0.035666
O O4 0.344985 0.929481 0.969110
O O5 0.113118 0.795890 0.788654
O O6 0.178978 0.707288 0.671316
O O7 0.000000 0.694026 0.745756
O O8 0.855562 0.568992 0.285402
O O9 0.000000 0.622200 0.378368
O O10 0.500000 0.500000 0.726415
O O11 0.650035 0.500000 0.622963
O O12 0.500000 0.000000 0.011193
#
# Coordination Sequence:
#
# PCOD9368741 Si02
#       6
#    16  16  16   8   8   8
#     4  12  23  42  64  92 133 168 218 269 319 390
#     4  11  23  40  62  92 130 168 210 268 329 384
#     4  10  19  37  62  90 125 164 209 266 323 378
#     4   9  19  36  60  88 117 157 214 259 315 383
#     4  12  22  40  64  96 128 164 218 266 322 388
#     4  11  25  40  63  96 125 173 221 267 324 385
#
# _framework density 18.94115
#
# number of rings (size 3 to 8) (size 9 to 14) (size 15 to 20)
#    0.000    1.111    4.444    2.667    0.000    4.444 
#    0.000    0.000    0.000    0.000    0.000    0.000 
#    0.000    0.000    0.000    0.000    0.000    0.000 
#
# Total GULP energy -100535.021833 kJ/mol
# GULP energy per Si atom -5585.278991 kJ/mol
# Density = 1.889804 g / cm^3
# Si number density = 18.941150 Si / 1000 Ang^3
#
#
#
# Elastic Constant Matrix: (Units=GPa)
#
#
# Indices 1 2 3 4 5 6 
#
# 1 91.9676 4.5086 32.8969 0.0000 0.0000 0.0000
# 2 4.5086 110.8757 37.4176 0.0000 0.0000 0.0000
# 3 32.8969 37.4176 110.8658 0.0000 0.0000 0.0000
# 4 0.0000 0.0000 0.0000 21.1889 0.0000 0.0000
# 5 0.0000 0.0000 0.0000 0.0000 20.1875 0.0000
# 6 0.0000 0.0000 0.0000 0.0000 0.0000 17.8843
#
#
#
# Elastic Compliance Matrix: (Units=1/GPa)
#
#
# Indices 1 2 3 4 5 6 
#
# 1 0.012230 0.000821 -0.003906 0.000000 0.000000 0.000000
# 2 0.000821 0.010234 -0.003697 0.000000 0.000000 0.000000
# 3 -0.003906 -0.003697 0.011427 0.000000 0.000000 0.000000
# 4 0.000000 0.000000 0.000000 0.047195 0.000000 0.000000
# 5 0.000000 0.000000 0.000000 0.000000 0.049536 0.000000
# 6 0.000000 0.000000 0.000000 0.000000 0.000000 0.055915
#
#
# Mechanical properties :
#
#
# Convention : Reuss Voigt Hill
#
# Bulk Modulus (GPa) = 49.19953 51.48394 50.34174
# Shear Modulus (GPa) = 24.16901 27.77786 25.97343
#
# Velocity S-wave (km/s) = 3.57600 3.83369 3.70708
# Velocity P-wave (km/s) = 6.56366 6.84370 6.70514
#
# Compressibility (1/GPa) = 0.02032540
#
# Stress axis : x y z
#
# Youngs Moduli (GPa) = 81.76360 97.71819 87.51310
#
# Poissons Ratio (x) = -0.08021 0.34184
# Poissons Ratio (y) = -0.06712 0.32357
# Poissons Ratio (z) = 0.31938 0.36131
#
# Static dielectric constant tensor:
#      x y z
#    x 1.671480 0.000000 0.000000 
#    y 0.000000 1.666510 0.000000 
#    z 0.000000 0.000000 1.652080 
# 
# From -- ./inp_files/13708.got.cif
#   From: 2010.05.17/outbox.cif.g08.bks.cpg/sg42_7_cif.got.tgz:13708.got - 2010.06.03 19:03:34.
