data_PCOD9368863
_publ_section_title
;
Structure prediction by ZEFSAII (Michael W. Deem and Ramdas Pophale) SiO2 
 PCOD9368863
Probable space group: F M M 2
;
_chemical_formula_sum "Si O2"
_cell_formula_units_Z 128
_cell_length_a 19.373964
_cell_length_b 18.912975
_cell_length_c 20.003573
_cell_angle_alpha 90.000000
_cell_angle_beta 90.000000
_cell_angle_gamma 90.000000
_cell_volume 7329.695152
_symmetry_space_group_name_H-M "F M M 2"
_symmetry_group_IT_number 42
_symmetry_cell_setting 'orthorhombic'
loop_
_space_group_symop_operation_xyz
x,y,z
-x,-y,z
-x,y,z
x,-y,z
x,1/2+y,1/2+z
-x,1/2-y,1/2+z
-x,1/2+y,1/2+z
x,1/2-y,1/2+z
1/2+x,y,1/2+z
1/2-x,-y,1/2+z
1/2-x,y,1/2+z
1/2+x,-y,1/2+z
1/2+x,1/2+y,z
1/2-x,1/2-y,z
1/2-x,1/2+y,z
1/2+x,1/2-y,z
loop_
_atom_site_type_symbol
_atom_site_label
_atom_site_fract_x
_atom_site_fract_y
_atom_site_fract_z
Si Si1 0.314445 0.080947 0.154040
Si Si2 0.922408 0.275081 0.946433
Si Si3 0.421797 0.161507 0.327439
Si Si4 0.579713 0.322482 0.077084
Si Si5 0.419290 0.295956 0.676358
Si Si6 0.278160 0.830173 0.919277
Si Si7 0.295922 0.417636 0.035410
Si Si8 0.784103 0.581460 0.307643
O O1 0.373350 0.140006 0.148623
O O2 0.258389 0.088993 0.096167
O O3 0.281163 0.089976 0.227647
O O4 0.341683 0.000000 0.151768
O O5 0.914886 0.216243 0.888070
O O6 0.858548 0.327584 0.938622
O O7 0.000000 0.305262 0.941172
O O8 0.917060 0.233959 0.016460
O O9 0.500000 0.132353 0.328866
O O10 0.413024 0.201699 0.256587
O O11 0.362031 0.103352 0.328875
O O12 0.500000 0.345820 0.083220
O O13 0.600781 0.278176 0.142811
O O14 0.632166 0.384221 0.059186
O O15 0.500000 0.307010 0.659719
O O16 0.250000 0.750000 0.918598
O O17 0.265358 0.866470 0.848030
O O18 0.234440 0.873933 0.973380
O O19 0.303128 0.500000 0.018187
O O20 0.770403 0.500000 0.324318
#
# Coordination Sequence:
#
# PCOD9368863 Si02
#       8
#    16  16  16  16  16  16  16  16
#     4   9  20  35  52  77 111 145 181 221 268 316
#     4  10  20  34  52  76 109 137 171 221 264 308
#     4   9  17  31  50  78 111 141 175 216 266 323
#     4  10  20  35  54  78 105 138 176 220 270 323
#     4   9  18  31  51  78 108 141 181 220 262 316
#     4  12  21  35  57  83 106 139 181 220 266 319
#     4  11  23  38  55  79 108 141 177 222 272 325
#     4  10  20  35  53  78 111 144 178 224 270 319
#
# _framework density 17.463208999999999
#
# number of rings (size 3 to 8) (size 9 to 14) (size 15 to 20)
#    0.000    2.000    2.500    1.125    0.000    1.750 
#    0.000    2.500    0.000    6.000    0.000    1.750 
#    0.000    0.000    0.000    0.250    0.000    0.125 
#
# Total GULP energy -178542.655134 kJ/mol
# GULP energy per Si atom -5579.457973 kJ/mol
# Density = 1.742346 g / cm^3
# Si number density = 17.463209 Si / 1000 Ang^3
#
#
#
# Elastic Constant Matrix: (Units=GPa)
#
#
# Indices 1 2 3 4 5 6 
#
# 1 54.0962 31.5769 6.6226 0.0000 0.0000 0.0000
# 2 31.5769 88.8002 27.3932 0.0000 0.0000 0.0000
# 3 6.6226 27.3932 44.7459 0.0000 0.0000 0.0000
# 4 0.0000 0.0000 0.0000 25.1594 0.0000 0.0000
# 5 0.0000 0.0000 0.0000 0.0000 22.2212 0.0000
# 6 0.0000 0.0000 0.0000 0.0000 0.0000 24.2004
#
#
#
# Elastic Compliance Matrix: (Units=1/GPa)
#
#
# Indices 1 2 3 4 5 6 
#
# 1 0.023474 -0.008970 0.002017 0.000000 0.000000 0.000000
# 2 -0.008970 0.017310 -0.009270 0.000000 0.000000 0.000000
# 3 0.002017 -0.009270 0.027725 0.000000 0.000000 0.000000
# 4 0.000000 0.000000 0.000000 0.039747 0.000000 0.000000
# 5 0.000000 0.000000 0.000000 0.000000 0.045002 0.000000
# 6 0.000000 0.000000 0.000000 0.000000 0.000000 0.041322
#
#
# Mechanical properties :
#
#
# Convention : Reuss Voigt Hill
#
# Bulk Modulus (GPa) = 27.72811 35.42533 31.57672
# Shear Modulus (GPa) = 20.91647 22.45285 21.68466
#
# Velocity S-wave (km/s) = 3.46460 3.58959 3.52765
# Velocity P-wave (km/s) = 5.64952 6.12453 5.89182
#
# Compressibility (1/GPa) = 0.03606448
#
# Stress axis : x y z
#
# Youngs Moduli (GPa) = 42.59970 57.76908 36.06874
#
# Poissons Ratio (x) = 0.51816 -0.07274
# Poissons Ratio (y) = 0.38210 0.33435
# Poissons Ratio (z) = -0.08591 0.53551
#
# Static dielectric constant tensor:
#      x y z
#    x 1.600340 0.000000 0.000000 
#    y 0.000000 1.563600 0.000000 
#    z 0.000000 0.000000 1.603960 
# 
# From -- ./inp_files/26605.got.cif
#   From: 2010.05.17/outbox.cif.g08.bks.cpg/sg42_14_cif.got.tgz:26605.got - 2010.06.03 19:03:34.
