data_PCOD9368988
_publ_section_title
;
Structure prediction by ZEFSAII (Michael W. Deem and Ramdas Pophale) SiO2 
 PCOD9368988
Probable space group: F M M 2
;
_chemical_formula_sum "Si O2"
_cell_formula_units_Z 96
_cell_length_a 8.771168
_cell_length_b 25.914367
_cell_length_c 23.958316
_cell_angle_alpha 90.000000
_cell_angle_beta 90.000000
_cell_angle_gamma 90.000000
_cell_volume 5445.707655
_symmetry_space_group_name_H-M "F M M 2"
_symmetry_group_IT_number 42
_symmetry_cell_setting 'orthorhombic'
loop_
_space_group_symop_operation_xyz
x,y,z
-x,-y,z
-x,y,z
x,-y,z
x,1/2+y,1/2+z
-x,1/2-y,1/2+z
-x,1/2+y,1/2+z
x,1/2-y,1/2+z
1/2+x,y,1/2+z
1/2-x,-y,1/2+z
1/2-x,y,1/2+z
1/2+x,-y,1/2+z
1/2+x,1/2+y,z
1/2-x,1/2-y,z
1/2-x,1/2+y,z
1/2+x,1/2-y,z
loop_
_atom_site_type_symbol
_atom_site_label
_atom_site_fract_x
_atom_site_fract_y
_atom_site_fract_z
Si Si1 0.682043 0.901641 0.850260
Si Si2 0.184018 0.061047 0.964748
Si Si3 0.818213 0.000000 0.786052
Si Si4 0.183235 0.598914 0.587670
Si Si5 0.816840 0.806658 0.783035
Si Si6 0.181901 0.193777 0.653617
Si Si7 0.316611 0.000000 0.663449
O O1 0.500000 0.902035 0.847134
O O2 0.737376 0.910283 0.913471
O O3 0.747068 0.849523 0.823271
O O4 0.749404 0.949601 0.815431
O O5 0.000000 0.064737 0.959106
O O6 0.222044 0.000000 0.963425
O O7 0.227814 0.084803 0.024499
O O8 0.770402 0.000000 0.721607
O O9 0.000000 0.000000 0.792491
O O10 0.256343 0.650150 0.612633
O O11 0.221314 0.550506 0.627328
O O12 0.000000 0.604336 0.588411
O O13 0.750000 0.750000 0.794862
O O14 0.777075 0.819048 0.718210
O O15 0.000000 0.805988 0.787795
O O16 0.250000 0.250000 0.641117
O O17 0.000000 0.196364 0.650403
O O18 0.500000 0.000000 0.673335
#
# Coordination Sequence:
#
# PCOD9368988 Si02
#       7
#    16  16   8  16  16  16   8
#     4  12  24  38  58  86 116 151 195 242 291 344
#     4  10  20  38  61  83 113 156 197 236 288 346
#     4  12  24  37  54  81 117 154 190 236 291 346
#     4  10  20  36  59  86 116 151 191 233 283 343
#     4  10  21  39  62  88 119 155 193 237 290 347
#     4  10  21  37  59  86 116 152 192 236 288 341
#     4  10  20  35  56  85 117 148 184 230 285 346
#
# _framework density 17.628564000000001
#
# number of rings (size 3 to 8) (size 9 to 14) (size 15 to 20)
#    0.000    1.500    1.667    4.250    0.000    6.000 
#    0.000    0.833    0.000    4.000    0.000    0.000 
#    0.000    0.000    0.000    0.000    0.000    0.000 
#
# Total GULP energy -134145.604241 kJ/mol
# GULP energy per Si atom -5589.400177 kJ/mol
# Density = 1.758844 g / cm^3
# Si number density = 17.628564 Si / 1000 Ang^3
#
#
#
# Elastic Constant Matrix: (Units=GPa)
#
#
# Indices 1 2 3 4 5 6 
#
# 1 75.2746 62.2781 67.9825 0.0000 0.0000 0.0000
# 2 62.2781 147.5549 100.6211 0.0000 0.0000 0.0000
# 3 67.9825 100.6211 150.9186 0.0000 0.0000 0.0000
# 4 0.0000 0.0000 0.0000 -12.6211 0.0000 0.0000
# 5 0.0000 0.0000 0.0000 0.0000 30.0059 0.0000
# 6 0.0000 0.0000 0.0000 0.0000 0.0000 26.5062
#
#
#
# Elastic Compliance Matrix: (Units=1/GPa)
#
#
# Indices 1 2 3 4 5 6 
#
# 1 0.024343 -0.005128 -0.007546 0.000000 0.000000 0.000000
# 2 -0.005128 0.013508 -0.006696 0.000000 0.000000 0.000000
# 3 -0.007546 -0.006696 0.014490 0.000000 0.000000 0.000000
# 4 0.000000 0.000000 0.000000 -0.079232 0.000000 0.000000
# 5 0.000000 0.000000 0.000000 0.000000 0.033327 0.000000
# 6 0.000000 0.000000 0.000000 0.000000 0.000000 0.037727
#
#
# Mechanical properties :
#
#
# Convention : Reuss Voigt Hill
#
# Bulk Modulus (GPa) = 73.53296 92.83461 83.18378
# Shear Modulus (GPa) = 57.18517 18.30263 37.74390
#
# Velocity S-wave (km/s) = 5.70170 3.22566 4.63218
# Velocity P-wave (km/s) = 9.22761 8.16388 8.71200
#
# Compressibility (1/GPa) = 0.01359934
#
# Stress axis : x y z
#
# Youngs Moduli (GPa) = 41.07988 74.03208 69.01523
#
# Poissons Ratio (x) = 0.37967 0.52080
# Poissons Ratio (y) = 0.21067 0.46211
# Poissons Ratio (z) = 0.31000 0.49570
#
# Static dielectric constant tensor:
#      x y z
#    x 1.587870 0.000000 0.000000 
#    y 0.000000 1.566860 0.000000 
#    z 0.000000 0.000000 1.585290 
# 
# From -- ./inp_files/28083.got.cif
#   From: 2010.05.17/outbox.cif.g08.bks.cpg/sg42_15_cif.got.tgz:28083.got - 2010.06.03 19:03:34.
