data_PCOD9368647
_publ_section_title
;
Structure prediction by ZEFSAII (Michael W. Deem and Ramdas Pophale) SiO2 
 PCOD9368647
Probable space group: F M M 2
;
_chemical_formula_sum "Si O2"
_cell_formula_units_Z 100
_cell_length_a 21.506134
_cell_length_b 7.534131
_cell_length_c 30.242069
_cell_angle_alpha 90.000000
_cell_angle_beta 90.000000
_cell_angle_gamma 90.000000
_cell_volume 4900.123373
_symmetry_space_group_name_H-M "F M M 2"
_symmetry_group_IT_number 42
_symmetry_cell_setting 'orthorhombic'
loop_
_space_group_symop_operation_xyz
x,y,z
-x,-y,z
-x,y,z
x,-y,z
x,1/2+y,1/2+z
-x,1/2-y,1/2+z
-x,1/2+y,1/2+z
x,1/2-y,1/2+z
1/2+x,y,1/2+z
1/2-x,-y,1/2+z
1/2-x,y,1/2+z
1/2+x,-y,1/2+z
1/2+x,1/2+y,z
1/2-x,1/2-y,z
1/2-x,1/2+y,z
1/2+x,1/2-y,z
loop_
_atom_site_type_symbol
_atom_site_label
_atom_site_fract_x
_atom_site_fract_y
_atom_site_fract_z
Si Si1 0.107565 0.703557 0.126720
Si Si2 0.569276 0.783315 0.980359
Si Si3 0.321556 0.211567 0.712985
Si Si4 0.678708 0.287111 0.313622
Si Si5 0.430218 0.216494 0.877957
Si Si6 0.679479 0.210389 0.042362
Si Si7 0.500000 0.500000 0.117844
O O1 0.088649 0.500000 0.116326
O O2 0.133213 0.710028 0.176460
O O3 0.162739 0.756323 0.092750
O O4 0.053751 0.844021 0.119740
O O5 0.500000 0.726687 0.995300
O O6 0.577736 0.730912 0.929176
O O7 0.569061 0.000000 0.981064
O O8 0.625152 0.716526 0.010758
O O9 0.250000 0.250000 0.701289
O O10 0.330513 0.278170 0.763295
O O11 0.330915 0.000000 0.712899
O O12 0.672917 0.500000 0.312121
O O13 0.750000 0.250000 0.327091
O O14 0.625743 0.220739 0.346903
O O15 0.500000 0.270193 0.863697
O O16 0.429364 0.000000 0.877389
O O17 0.750000 0.250000 0.030102
O O18 0.674135 0.000000 0.038902
#
# Coordination Sequence:
#
# PCOD9368647 Si02
#       7
#    16  16  16  16  16  16   4
#     4  11  24  42  63  89 123 160 201 244 297 357
#     4   8  15  30  52  76 108 147 191 239 296 357
#     4  10  19  35  56  84 116 156 201 252 302 357
#     4   9  18  31  51  82 111 145 190 238 289 348
#     4   8  14  28  50  77 106 145 191 238 291 351
#     4  10  22  36  56  85 115 150 196 247 295 352
#     4  12  26  44  64  90 124 160 200 248 296 362
#
# _framework density 20.407651000000001
#
# number of rings (size 3 to 8) (size 9 to 14) (size 15 to 20)
#    0.000    2.560    0.800    2.160    2.240    2.560 
#    1.440    0.000    0.000    0.480    0.000    2.240 
#    0.000    0.000    0.000    0.000    0.000    0.000 
#
# Total GULP energy -139253.921619 kJ/mol
# GULP energy per Si atom -5570.156865 kJ/mol
# Density = 2.036120 g / cm^3
# Si number density = 20.407651 Si / 1000 Ang^3
#
#
#
# Elastic Constant Matrix: (Units=GPa)
#
#
# Indices 1 2 3 4 5 6 
#
# 1 177.3843 22.5369 87.7090 0.0001 -0.0002 0.0019
# 2 22.5369 81.2624 9.3338 0.0002 0.0000 0.0031
# 3 87.7090 9.3338 83.7984 0.0000 -0.0002 -0.0004
# 4 0.0001 0.0002 0.0000 1.7225 -0.0001 -0.0001
# 5 -0.0002 0.0000 -0.0002 -0.0001 -287.8555 0.0002
# 6 0.0019 0.0031 -0.0004 -0.0001 0.0002 33.8964
#
#
#
# Elastic Compliance Matrix: (Units=1/GPa)
#
#
# Indices 1 2 3 4 5 6 
#
# 1 0.011969 -0.001905 -0.012315 -0.000001 0.000000 -0.000001
# 2 -0.001905 0.012768 0.000572 -0.000001 0.000000 -0.000001
# 3 -0.012315 0.000572 0.024760 0.000001 0.000000 0.000001
# 4 -0.000001 -0.000001 0.000001 0.580562 0.000000 0.000002
# 5 0.000000 0.000000 0.000000 0.000000 -0.003474 0.000000
# 6 -0.000001 -0.000001 0.000001 0.000002 0.000000 0.029502
#
#
# Mechanical properties :
#
#
# Convention : Reuss Voigt Hill
#
# Bulk Modulus (GPa) = 45.04521 64.62271 54.83396
# Shear Modulus (GPa) = 7.23815 -35.58963 -14.17574
#
# Velocity S-wave (km/s) = 1.88533 -4.18058 -2.63844
# Velocity P-wave (km/s) = 5.18266 2.90374 4.20069
#
# Compressibility (1/GPa) = 0.02219992
#
# Stress axis : x y z
#
# Youngs Moduli (GPa) = 83.55010 78.31804 40.38816
#
# Poissons Ratio (x) = 0.14918 0.49739
# Poissons Ratio (y) = 0.15915 -0.02308
# Poissons Ratio (z) = 1.02894 -0.04476
#
# Static dielectric constant tensor:
#      x y z
#    x 1.766520 0.000000 0.000000 
#    y 0.000000 1.776810 0.000000 
#    z 0.000000 0.000000 1.728140 
# 
# From -- ./inp_files/34699.got.cif
#   From: 2010.05.17/outbox.cif.g08.bks.cpg/sg42_18_cif.got.tgz:34699.got - 2010.06.03 19:03:34.
