data_PCOD9368051
_publ_section_title
;
Structure prediction by ZEFSAII (Michael W. Deem and Ramdas Pophale) SiO2 
 PCOD9368051
Probable space group: A B A 2
;
_chemical_formula_sum "Si O2"
_cell_formula_units_Z 30
_cell_length_a 24.000000
_cell_length_b 15.000000
_cell_length_c 9.000000
_cell_angle_alpha 90.000000
_cell_angle_beta 90.000000
_cell_angle_gamma 90.000000
_cell_volume 3240.000000
_symmetry_space_group_name_H-M "A B A 2"
_symmetry_group_IT_number 41
_symmetry_cell_setting 'orthorhombic'
loop_
_space_group_symop_operation_xyz
x,y,z
-x,-y,z
1/2-x,y,1/2+z
1/2+x,-y,1/2+z
x,1/2+y,1/2+z
-x,1/2-y,1/2+z
1/2-x,1/2+y,z
1/2+x,1/2-y,z
loop_
_atom_site_type_symbol
_atom_site_label
_atom_site_fract_x
_atom_site_fract_y
_atom_site_fract_z
Si Si1 0.000000 0.000000 0.022581
Si Si2 0.388341 0.204434 0.263780
Si Si3 0.116453 0.018494 0.925717
Si Si4 0.709213 0.662269 0.219389
Si Si5 0.475749 0.865425 0.784122
Si Si6 0.370343 0.991919 0.779269
Si Si7 0.097577 0.171890 0.419036
Si Si8 0.675253 0.159437 0.372155
O O1 0.002474 0.912179 0.129954
O O2 0.947729 0.007532 0.916727
O O3 0.381126 0.118634 0.367145
O O4 0.331434 0.260117 0.275938
O O5 0.439610 0.274296 0.284390
O O6 0.396729 0.172543 0.095535
O O7 0.151920 0.940709 0.848689
O O8 0.126374 0.011579 0.102937
O O9 0.682818 0.572765 0.292811
O O10 0.772909 0.676204 0.263798
O O11 0.698668 0.660145 0.041858
O O12 0.427408 0.938764 0.827034
O O13 0.532882 0.844191 0.872106
O O14 0.368997 0.086314 0.858902
O O15 0.126894 0.264489 0.364190
#
# Coordination Sequence:
#
# PCOD9368051 Si02
#       8
#     4   8   8   8   8   8   8   8
#     4  10  18  38  62  80 116 158 190 224 292 364
#     4  10  24  36  59  88 122 145 195 241 290 334
#     4  10  21  39  58  86 114 157 189 234 288 350
#     4   9  21  43  58  84 113 157 193 244 281 347
#     4  10  19  37  60  83 115 155 187 230 284 358
#     4   9  19  39  64  78 112 157 196 227 294 345
#     4  11  20  37  59  90 113 151 190 241 288 345
#     4  10  23  39  62  82 119 152 200 237 293 338
#
# _framework density 9.2592590000000001
#
# number of rings (size 3 to 8) (size 9 to 14) (size 15 to 20)
#    0.000    2.133    2.667    2.400    3.733    3.200 
#    2.400    6.667    0.000    0.000    0.000    0.000 
#    0.000    0.000    0.000    0.000    0.000    0.000 
#
# Total GULP energy -167066.949447 kJ/mol
# GULP energy per Si atom -5568.898315 kJ/mol
# Density = 0.923818 g / cm^3
# Si number density = 9.259259 Si / 1000 Ang^3
#
#
#
# Elastic Constant Matrix: (Units=GPa)
#
#
# Indices 1 2 3 4 5 6 
#
# 1 86.4674 38.1506 25.8737 0.0000 0.0000 0.0000
# 2 38.1506 138.6612 42.6893 0.0000 0.0000 0.0000
# 3 25.8737 42.6893 24.3377 0.0000 0.0000 0.0000
# 4 0.0000 0.0000 0.0000 26.4155 0.0000 0.0000
# 5 0.0000 0.0000 0.0000 0.0000 24.9155 0.0000
# 6 0.0000 0.0000 0.0000 0.0000 0.0000 22.8670
#
#
#
# Elastic Compliance Matrix: (Units=1/GPa)
#
#
# Indices 1 2 3 4 5 6 
#
# 1 0.017200 0.001950 -0.021706 0.000000 0.000000 0.000000
# 2 0.001950 0.015900 -0.029962 0.000000 0.000000 0.000000
# 3 -0.021706 -0.029962 0.116719 0.000000 0.000000 0.000000
# 4 0.000000 0.000000 0.000000 0.037857 0.000000 0.000000
# 5 0.000000 0.000000 0.000000 0.000000 0.040136 0.000000
# 6 0.000000 0.000000 0.000000 0.000000 0.000000 0.043731
#
#
# Mechanical properties :
#
#
# Convention : Reuss Voigt Hill
#
# Bulk Modulus (GPa) = 19.84801 51.43261 35.64031
# Shear Modulus (GPa) = 12.89418 24.35645 18.62532
#
# Velocity S-wave (km/s) = 2.64158 3.63057 3.17482
# Velocity P-wave (km/s) = 4.47718 6.73859 5.72074
#
# Compressibility (1/GPa) = 0.05038289
#
# Stress axis : x y z
#
# Youngs Moduli (GPa) = 58.14064 62.89502 8.56755
#
# Poissons Ratio (x) = -0.12267 0.18597
# Poissons Ratio (y) = -0.11340 0.25670
# Poissons Ratio (z) = 1.26202 1.88446
#
# Static dielectric constant tensor:
#      x y z
#    x 1.659880 0.000000 0.000000 
#    y 0.000000 1.662220 0.000000 
#    z 0.000000 0.000000 1.648320 
# 
# From -- ./inp_files/3669.got.cif
#   From: 2010.05.17/outbox.ucp.g08.bks.cvg/sg41_2_cif.got.tgz:3669.got - 2010.06.11 16:28:22.
