data_PCOD9368303
_publ_section_title
;
Structure prediction by ZEFSAII (Michael W. Deem and Ramdas Pophale) SiO2 
 PCOD9368303
Probable space group: F M M 2
;
_chemical_formula_sum "Si O2"
_cell_formula_units_Z 96
_cell_length_a 25.936444
_cell_length_b 7.636830
_cell_length_c 24.526635
_cell_angle_alpha 90.000000
_cell_angle_beta 90.000000
_cell_angle_gamma 90.000000
_cell_volume 4858.044887
_symmetry_space_group_name_H-M "F M M 2"
_symmetry_group_IT_number 42
_symmetry_cell_setting 'orthorhombic'
loop_
_space_group_symop_operation_xyz
x,y,z
-x,-y,z
-x,y,z
x,-y,z
x,1/2+y,1/2+z
-x,1/2-y,1/2+z
-x,1/2+y,1/2+z
x,1/2-y,1/2+z
1/2+x,y,1/2+z
1/2-x,-y,1/2+z
1/2-x,y,1/2+z
1/2+x,-y,1/2+z
1/2+x,1/2+y,z
1/2-x,1/2-y,z
1/2-x,1/2+y,z
1/2+x,1/2-y,z
loop_
_atom_site_type_symbol
_atom_site_label
_atom_site_fract_x
_atom_site_fract_y
_atom_site_fract_z
Si Si1 0.190943 0.291913 0.142420
Si Si2 0.408654 0.293835 0.207576
Si Si3 0.439932 0.785382 0.826529
Si Si4 0.896769 0.293337 0.939274
Si Si5 0.000000 0.289248 0.504763
Si Si6 0.690786 0.710651 0.519054
Si Si7 0.500000 0.214680 0.629916
O O1 0.185857 0.500000 0.140497
O O2 0.250000 0.250000 0.156741
O O3 0.148543 0.226547 0.184540
O O4 0.181222 0.222473 0.080810
O O5 0.419971 0.500000 0.211598
O O6 0.418289 0.224083 0.268309
O O7 0.449784 0.225233 0.163444
O O8 0.500000 0.735526 0.831664
O O9 0.408037 0.722153 0.878922
O O10 0.438833 0.000000 0.827590
O O11 0.886341 0.500000 0.932526
O O12 0.849819 0.219692 0.975083
O O13 0.949126 0.273141 0.973644
O O14 0.000000 0.227648 0.567383
O O15 0.000000 0.500000 0.504202
O O16 0.685229 0.500000 0.521320
O O17 0.750000 0.750000 0.505127
O O18 0.500000 0.000000 0.628207
#
# Coordination Sequence:
#
# PCOD9368303 Si02
#       7
#    16  16  16  16   8  16   8
#     4  10  20  35  53  76 104 135 171 211 259 308
#     4  10  18  32  54  77 101 134 175 212 249 300
#     4   9  16  30  54  77  98 135 179 208 238 297
#     4  10  19  34  54  75 101 136 174 209 251 307
#     4  11  21  30  45  75 107 133 164 211 262 304
#     4   9  19  34  54  77 102 134 171 211 257 308
#     4   9  18  30  47  73 105 135 166 205 256 312
#
# _framework density 19.761036000000001
#
# number of rings (size 3 to 8) (size 9 to 14) (size 15 to 20)
#    0.000    2.333    1.667    1.750    0.000    1.333 
#    0.000    2.917    0.000    2.000    0.000    0.000 
#    0.000    0.000    0.000    0.000    0.000    0.000 
#
# Total GULP energy -133970.522690 kJ/mol
# GULP energy per Si atom -5582.105112 kJ/mol
# Density = 1.971606 g / cm^3
# Si number density = 19.761036 Si / 1000 Ang^3
#
#
#
# Elastic Constant Matrix: (Units=GPa)
#
#
# Indices 1 2 3 4 5 6 
#
# 1 97.2137 -20.3205 70.0916 0.0000 0.0000 -0.0001
# 2 -20.3205 33.3531 -7.5224 0.0000 0.0000 -0.0001
# 3 70.0916 -7.5224 153.7946 0.0000 0.0000 0.0000
# 4 0.0000 0.0000 0.0000 6.4926 0.0000 0.0000
# 5 0.0000 0.0000 0.0000 0.0000 -3.1592 0.0000
# 6 -0.0001 -0.0001 0.0000 0.0000 0.0000 14.8765
#
#
#
# Elastic Compliance Matrix: (Units=1/GPa)
#
#
# Indices 1 2 3 4 5 6 
#
# 1 0.017662 0.009045 -0.007607 0.000000 0.000000 0.000000
# 2 0.009045 0.034949 -0.002413 0.000000 0.000000 0.000000
# 3 -0.007607 -0.002413 0.009851 0.000000 0.000000 0.000000
# 4 0.000000 0.000000 0.000000 0.154021 0.000000 0.000000
# 5 0.000000 0.000000 0.000000 0.000000 -0.316534 0.000000
# 6 0.000000 0.000000 0.000000 0.000000 0.000000 0.067220
#
#
# Mechanical properties :
#
#
# Convention : Reuss Voigt Hill
#
# Bulk Modulus (GPa) = 16.52566 40.98432 28.75499
# Shear Modulus (GPa) = -466.81179 19.78283 -223.51448
#
# Velocity S-wave (km/s) = -15.38640 3.16745 -10.64679
# Velocity P-wave (km/s) = 17.52923 5.84483 11.68572
#
# Compressibility (1/GPa) = 0.06051197
#
# Stress axis : x y z
#
# Youngs Moduli (GPa) = 56.61879 28.61338 101.51208
#
# Poissons Ratio (x) = -0.25881 0.77220
# Poissons Ratio (y) = -0.51211 0.24493
# Poissons Ratio (z) = 0.43070 0.06904
#
# Static dielectric constant tensor:
#      x y z
#    x 1.646850 0.000000 0.000000 
#    y 0.000000 1.740620 0.000000 
#    z 0.000000 0.000000 1.704120 
# 
# From -- ./inp_files/28099.got.cif
#   From: 2010.05.17/outbox.cif.g08.bks.cpg/sg42_15_cif.got.tgz:28099.got - 2010.06.03 19:03:34.
