data_PCOD9368098
_publ_section_title
;
Structure prediction by ZEFSAII (Michael W. Deem and Ramdas Pophale) SiO2 
 PCOD9368098
Probable space group: F M M 2
;
_chemical_formula_sum "Si O2"
_cell_formula_units_Z 72
_cell_length_a 35.207165
_cell_length_b 24.889172
_cell_length_c 5.379598
_cell_angle_alpha 90.000000
_cell_angle_beta 90.000000
_cell_angle_gamma 90.000000
_cell_volume 4714.018994
_symmetry_space_group_name_H-M "F M M 2"
_symmetry_group_IT_number 42
_symmetry_cell_setting 'orthorhombic'
loop_
_space_group_symop_operation_xyz
x,y,z
-x,-y,z
-x,y,z
x,-y,z
x,1/2+y,1/2+z
-x,1/2-y,1/2+z
-x,1/2+y,1/2+z
x,1/2-y,1/2+z
1/2+x,y,1/2+z
1/2-x,-y,1/2+z
1/2-x,y,1/2+z
1/2+x,-y,1/2+z
1/2+x,1/2+y,z
1/2-x,1/2-y,z
1/2-x,1/2+y,z
1/2+x,1/2-y,z
loop_
_atom_site_type_symbol
_atom_site_label
_atom_site_fract_x
_atom_site_fract_y
_atom_site_fract_z
Si Si1 0.077877 0.690127 0.790860
Si Si2 0.774110 0.000000 0.253125
Si Si3 0.275309 0.117357 0.826715
Si Si4 0.454702 0.187614 0.290844
Si Si5 0.333006 0.215478 0.793013
O O1 0.059149 0.750007 0.788762
O O2 0.063311 0.663381 0.539039
O O3 0.122871 0.697923 0.795533
O O4 0.062295 0.663275 0.039837
O O5 0.793290 0.057528 0.301342
O O6 0.741271 0.000000 0.468941
O O7 0.246260 0.121498 0.592227
O O8 0.305741 0.164346 0.804765
O O9 0.500000 0.186367 0.294776
O O10 0.326401 0.248156 0.537746
#
# Coordination Sequence:
#
# PCOD9368098 Si02
#       5
#    16   8  16  16  16
#     4  10  16  27  36  56  82 114 146 168 217 253
#     4   8  16  34  54  68  84 102 145 200 235 256
#     4  10  21  35  51  69  85 116 155 192 226 258
#     4  10  16  25  41  56  75 113 157 181 200 242
#     4  12  21  32  45  62  97 128 147 174 223 276
#
# _framework density 15.27359
#
# number of rings (size 3 to 8) (size 9 to 14) (size 15 to 20)
#    0.000    1.778    4.444    4.667    0.000    2.667 
#    0.000    0.000    0.000    0.000    0.000    0.000 
#    0.000    0.000    0.000   11.000    0.000    0.000 
#
# Total GULP energy -100211.971248 kJ/mol
# GULP energy per Si atom -5567.331736 kJ/mol
# Density = 1.523883 g / cm^3
# Si number density = 15.273590 Si / 1000 Ang^3
#
#
#
# Elastic Constant Matrix: (Units=GPa)
#
#
# Indices 1 2 3 4 5 6 
#
# 1 57.2445 53.1156 20.7920 0.0008 -0.0018 -0.0020
# 2 53.1156 65.4794 21.9871 -0.0084 0.0000 -0.0028
# 3 20.7920 21.9871 140.9515 -0.0064 -0.0030 -0.0033
# 4 0.0008 -0.0084 -0.0064 10.3821 -0.0003 -0.0009
# 5 -0.0018 0.0000 -0.0030 -0.0003 17.5931 -0.0002
# 6 -0.0020 -0.0028 -0.0033 -0.0009 -0.0002 -1.2714
#
#
#
# Elastic Compliance Matrix: (Units=1/GPa)
#
#
# Indices 1 2 3 4 5 6 
#
# 1 0.070958 -0.057032 -0.001571 -0.000052 0.000007 0.000019
# 2 -0.057032 0.061956 -0.001252 0.000054 -0.000006 -0.000045
# 3 -0.001571 -0.001252 0.007522 0.000004 0.000001 -0.000014
# 4 -0.000052 0.000054 0.000004 0.096320 0.000002 -0.000066
# 5 0.000007 -0.000006 0.000001 0.000002 0.056840 -0.000010
# 6 0.000019 -0.000045 -0.000014 -0.000066 -0.000010 -0.786508
#
#
# Mechanical properties :
#
#
# Convention : Reuss Voigt Hill
#
# Bulk Modulus (GPa) = 48.24801 50.60720 49.42760
# Shear Modulus (GPa) = -13.65022 16.52614 1.43796
#
# Velocity S-wave (km/s) = -2.99275 3.29296 0.97135
# Velocity P-wave (km/s) = 4.44024 6.90390 5.80429
#
# Compressibility (1/GPa) = 0.02072624
#
# Stress axis : x y z
#
# Youngs Moduli (GPa) = 14.09279 16.14054 132.95115
#
# Poissons Ratio (x) = 0.92054 0.20882
# Poissons Ratio (y) = 0.80375 0.16639
# Poissons Ratio (z) = 0.02214 0.02020
#
# Static dielectric constant tensor:
#      x y z
#    x 1.481270 0.000010 0.000000 
#    y 0.000010 1.530740 -0.000010 
#    z 0.000000 -0.000010 1.758290 
# 
# From -- ./inp_files/929.got.cif
#   From: 2010.05.17/outbox.cif.g08.bks.cpg/sg42_1_cif.got.tgz:929.got - 2010.06.03 19:03:34.
