data_PCOD9368685
_publ_section_title
;
Structure prediction by ZEFSAII (Michael W. Deem and Ramdas Pophale) SiO2 
 PCOD9368685
Probable space group: F M M 2
;
_chemical_formula_sum "Si O2"
_cell_formula_units_Z 96
_cell_length_a 19.257474
_cell_length_b 14.114483
_cell_length_c 17.247706
_cell_angle_alpha 90.000000
_cell_angle_beta 90.000000
_cell_angle_gamma 90.000000
_cell_volume 4688.086712
_symmetry_space_group_name_H-M "F M M 2"
_symmetry_group_IT_number 42
_symmetry_cell_setting 'orthorhombic'
loop_
_space_group_symop_operation_xyz
x,y,z
-x,-y,z
-x,y,z
x,-y,z
x,1/2+y,1/2+z
-x,1/2-y,1/2+z
-x,1/2+y,1/2+z
x,1/2-y,1/2+z
1/2+x,y,1/2+z
1/2-x,-y,1/2+z
1/2-x,y,1/2+z
1/2+x,-y,1/2+z
1/2+x,1/2+y,z
1/2-x,1/2-y,z
1/2-x,1/2+y,z
1/2+x,1/2-y,z
loop_
_atom_site_type_symbol
_atom_site_label
_atom_site_fract_x
_atom_site_fract_y
_atom_site_fract_z
Si Si1 0.286815 0.887818 0.495990
Si Si2 0.358452 0.703181 0.544272
Si Si3 0.423514 0.106799 0.908106
Si Si4 0.082627 0.716794 0.207712
Si Si5 0.312156 0.886965 0.313577
Si Si6 0.664233 0.891471 0.754885
O O1 0.335999 0.813179 0.539850
O O2 0.209678 0.858617 0.523178
O O3 0.296609 0.866765 0.403929
O O4 0.298715 0.000000 0.508297
O O5 0.411501 0.680922 0.475446
O O6 0.390578 0.675160 0.626347
O O7 0.500000 0.118501 0.872180
O O8 0.365496 0.112107 0.842521
O O9 0.420025 0.000000 0.941106
O O10 0.121269 0.665063 0.278910
O O11 0.114138 0.822414 0.209176
O O12 0.000000 0.714064 0.213587
O O13 0.244403 0.861246 0.262136
O O14 0.320566 0.000000 0.307442
O O15 0.661368 0.000000 0.728120
#
# Coordination Sequence:
#
# PCOD9368685 Si02
#       6
#    16  16  16  16  16  16
#     4  10  22  41  65  94 120 159 220 274 312 364
#     4  11  23  38  61  92 130 171 205 255 322 385
#     4  10  19  35  63  95 126 163 211 264 314 367
#     4  12  27  42  60  94 137 173 207 252 320 390
#     4  10  22  42  69  95 123 161 215 270 315 370
#     4  10  21  39  65  95 124 164 218 267 310 364
#
# _framework density 20.477436999999998
#
# number of rings (size 3 to 8) (size 9 to 14) (size 15 to 20)
#    0.000    1.500    1.667    3.000    7.000    3.333 
#    0.000    0.833    0.000    3.500    0.000    0.000 
#    0.000    0.000    0.000    0.000    0.000    0.000 
#
# Total GULP energy -134089.440839 kJ/mol
# GULP energy per Si atom -5587.060035 kJ/mol
# Density = 2.043083 g / cm^3
# Si number density = 20.477437 Si / 1000 Ang^3
#
#
#
# Elastic Constant Matrix: (Units=GPa)
#
#
# Indices 1 2 3 4 5 6 
#
# 1 133.5332 41.2440 49.5792 0.0000 0.0000 0.0000
# 2 41.2440 83.9052 24.3534 0.0000 0.0000 0.0000
# 3 49.5792 24.3534 69.3074 0.0000 0.0000 0.0000
# 4 0.0000 0.0000 0.0000 0.9131 0.0000 0.0000
# 5 0.0000 0.0000 0.0000 0.0000 26.1853 0.0000
# 6 0.0000 0.0000 0.0000 0.0000 0.0000 22.1139
#
#
#
# Elastic Compliance Matrix: (Units=1/GPa)
#
#
# Indices 1 2 3 4 5 6 
#
# 1 0.011046 -0.003492 -0.006674 0.000000 0.000000 0.000000
# 2 -0.003492 0.014376 -0.002553 0.000000 0.000000 0.000000
# 3 -0.006674 -0.002553 0.020100 0.000000 0.000000 0.000000
# 4 0.000000 0.000000 0.000000 1.095113 0.000000 0.000000
# 5 0.000000 0.000000 0.000000 0.000000 0.038189 0.000000
# 6 0.000000 0.000000 0.000000 0.000000 0.000000 0.045220
#
#
# Mechanical properties :
#
#
# Convention : Reuss Voigt Hill
#
# Bulk Modulus (GPa) = 49.79604 57.45544 53.62574
# Shear Modulus (GPa) = 3.98033 21.28041 12.63037
#
# Velocity S-wave (km/s) = 1.39570 3.22718 2.48623
# Velocity P-wave (km/s) = 5.19304 6.48113 5.87251
#
# Compressibility (1/GPa) = 0.02008192
#
# Stress axis : x y z
#
# Youngs Moduli (GPa) = 90.53457 69.56069 49.75088
#
# Poissons Ratio (x) = 0.24292 0.33205
# Poissons Ratio (y) = 0.31617 0.12703
# Poissons Ratio (z) = 0.60426 0.17761
#
# Static dielectric constant tensor:
#      x y z
#    x 1.754710 0.000000 0.000000 
#    y 0.000000 1.756850 0.000000 
#    z 0.000000 0.000000 1.747430 
# 
# From -- ./inp_files/15838.got.cif
#   From: 2010.05.17/outbox.cif.g08.bks.cpg/sg42_8_cif.got.tgz:15838.got - 2010.06.03 19:03:34.
