data_PCOD9368706
_publ_section_title
;
Structure prediction by ZEFSAII (Michael W. Deem and Ramdas Pophale) SiO2 
 PCOD9368706
Probable space group: F M M 2
;
_chemical_formula_sum "Si O2"
_cell_formula_units_Z 56
_cell_length_a 29.176391
_cell_length_b 16.877724
_cell_length_c 5.042235
_cell_angle_alpha 90.000000
_cell_angle_beta 90.000000
_cell_angle_gamma 90.000000
_cell_volume 2482.953200
_symmetry_space_group_name_H-M "F M M 2"
_symmetry_group_IT_number 42
_symmetry_cell_setting 'orthorhombic'
loop_
_space_group_symop_operation_xyz
x,y,z
-x,-y,z
-x,y,z
x,-y,z
x,1/2+y,1/2+z
-x,1/2-y,1/2+z
-x,1/2+y,1/2+z
x,1/2-y,1/2+z
1/2+x,y,1/2+z
1/2-x,-y,1/2+z
1/2-x,y,1/2+z
1/2+x,-y,1/2+z
1/2+x,1/2+y,z
1/2-x,1/2-y,z
1/2-x,1/2+y,z
1/2+x,1/2-y,z
loop_
_atom_site_type_symbol
_atom_site_label
_atom_site_fract_x
_atom_site_fract_y
_atom_site_fract_z
Si Si1 0.500000 0.807495 0.984061
Si Si2 0.630589 0.304082 0.886905
Si Si3 0.447909 0.090476 0.628759
Si Si4 0.780176 0.093606 0.011779
O O1 0.500000 0.740042 0.753894
O O2 0.542660 0.863706 0.905951
O O3 0.629585 0.268675 0.593921
O O4 0.587903 0.140179 0.461992
O O5 0.676515 0.353782 0.939459
O O6 0.500000 0.088371 0.511594
O O7 0.433217 0.000000 0.667460
O O8 0.739207 0.109382 0.804197
O O9 0.791606 0.000000 0.990258
#
# Coordination Sequence:
#
# PCOD9368706 Si02
#       4
#     8  16  16  16
#     4  10  19  36  59  84 116 150 192 244 297 348
#     4  12  25  40  64  94 126 164 204 257 311 365
#     4   9  21  42  64  90 124 167 209 254 305 369
#     4  10  22  42  66  91 124 164 205 253 307 369
#
# _framework density 22.553788999999998
#
# number of rings (size 3 to 8) (size 9 to 14) (size 15 to 20)
#    0.857    0.857    0.000    4.286    0.000    3.429 
#    0.000   10.000    0.000    0.000    0.000    0.000 
#    0.000    0.000    0.000    0.000    0.000    0.000 
#
# Total GULP energy -78324.988970 kJ/mol
# GULP energy per Si atom -5594.642069 kJ/mol
# Density = 2.250246 g / cm^3
# Si number density = 22.553789 Si / 1000 Ang^3
#
#
#
# Elastic Constant Matrix: (Units=GPa)
#
#
# Indices 1 2 3 4 5 6 
#
# 1 97.0775 43.2679 -9.4513 -0.0001 0.0002 0.0003
# 2 43.2679 99.5465 1.5960 0.0010 -0.0005 -0.0003
# 3 -9.4513 1.5960 58.2615 0.0020 -0.0010 -0.0009
# 4 -0.0001 0.0010 0.0020 7.7817 -0.0002 -0.0004
# 5 0.0002 -0.0005 -0.0010 -0.0002 22.6073 0.0003
# 6 0.0003 -0.0003 -0.0009 -0.0004 0.0003 62.2905
#
#
#
# Elastic Compliance Matrix: (Units=1/GPa)
#
#
# Indices 1 2 3 4 5 6 
#
# 1 0.013071 -0.005718 0.002277 0.000000 0.000000 0.000000
# 2 -0.005718 0.012551 -0.001271 -0.000001 0.000000 0.000000
# 3 0.002277 -0.001271 0.017568 -0.000004 0.000001 0.000000
# 4 0.000000 -0.000001 -0.000004 0.128506 0.000001 0.000001
# 5 0.000000 0.000000 0.000001 0.000001 0.044234 0.000000
# 6 0.000000 0.000000 0.000000 0.000001 0.000000 0.016054
#
#
# Mechanical properties :
#
#
# Convention : Reuss Voigt Hill
#
# Bulk Modulus (GPa) = 29.61542 36.19008 32.90275
# Shear Modulus (GPa) = 19.78910 33.16743 26.47827
#
# Velocity S-wave (km/s) = 2.96534 3.83899 3.43009
# Velocity P-wave (km/s) = 4.98837 5.97758 5.50524
#
# Compressibility (1/GPa) = 0.03376620
#
# Stress axis : x y z
#
# Youngs Moduli (GPa) = 76.50376 79.67342 56.92103
#
# Poissons Ratio (x) = 0.45557 -0.12961
# Poissons Ratio (y) = 0.43744 0.07237
# Poissons Ratio (z) = -0.17421 0.10130
#
# Static dielectric constant tensor:
#      x y z
#    x 1.842220 0.000000 0.000000 
#    y 0.000000 1.825970 0.000000 
#    z 0.000000 0.000000 1.838130 
# 
# From -- ./inp_files/1316.got.cif
#   From: 2010.05.17/outbox.cif.g08.bks.cpg/sg42_1_cif.got.tgz:1316.got - 2010.06.03 19:03:34.
