data_PCOD9368932
_publ_section_title
;
Structure prediction by ZEFSAII (Michael W. Deem and Ramdas Pophale) SiO2 
 PCOD9368932
Probable space group: F M M 2
;
_chemical_formula_sum "Si O2"
_cell_formula_units_Z 112
_cell_length_a 23.195495
_cell_length_b 15.371132
_cell_length_c 16.658257
_cell_angle_alpha 90.000000
_cell_angle_beta 90.000000
_cell_angle_gamma 90.000000
_cell_volume 5939.351866
_symmetry_space_group_name_H-M "F M M 2"
_symmetry_group_IT_number 42
_symmetry_cell_setting 'orthorhombic'
loop_
_space_group_symop_operation_xyz
x,y,z
-x,-y,z
-x,y,z
x,-y,z
x,1/2+y,1/2+z
-x,1/2-y,1/2+z
-x,1/2+y,1/2+z
x,1/2-y,1/2+z
1/2+x,y,1/2+z
1/2-x,-y,1/2+z
1/2-x,y,1/2+z
1/2+x,-y,1/2+z
1/2+x,1/2+y,z
1/2-x,1/2-y,z
1/2-x,1/2+y,z
1/2+x,1/2-y,z
loop_
_atom_site_type_symbol
_atom_site_label
_atom_site_fract_x
_atom_site_fract_y
_atom_site_fract_z
Si Si1 0.269501 0.341724 0.703950
Si Si2 0.678104 0.600922 0.430917
Si Si3 0.151836 0.903495 0.162157
Si Si4 0.932867 0.746392 0.205293
Si Si5 0.876865 0.098425 0.602788
Si Si6 0.188143 0.599809 0.476705
Si Si7 0.351108 0.775626 0.344596
O O1 0.250000 0.250000 0.664815
O O2 0.210837 0.394250 0.712702
O O3 0.315900 0.390005 0.649327
O O4 0.301642 0.314140 0.785531
O O5 0.673585 0.500000 0.403350
O O6 0.637497 0.610716 0.509279
O O7 0.744046 0.615398 0.460153
O O8 0.661431 0.676346 0.369179
O O9 0.106822 0.828896 0.183184
O O10 0.127533 0.000000 0.172240
O O11 0.172907 0.892623 0.070181
O O12 0.917799 0.670397 0.141893
O O13 0.909004 0.717646 0.292472
O O14 0.000000 0.766043 0.205693
O O15 0.897854 0.000000 0.615325
O O16 0.176303 0.500000 0.452111
O O17 0.151856 0.666810 0.424130
#
# Coordination Sequence:
#
# PCOD9368932 Si02
#       7
#    16  16  16  16  16  16  16
#     4  11  19  34  55  95 125 154 186 231 304 368
#     4  10  20  34  57  94 130 156 183 230 303 382
#     4  11  22  39  63  89 121 158 200 249 304 363
#     4  11  26  44  59  82 116 163 220 261 294 340
#     4  10  20  37  64  92 121 155 194 246 305 363
#     4  10  21  35  58  93 126 153 183 233 309 382
#     4  11  23  36  57  87 124 160 196 243 298 362
#
# _framework density 18.857275999999999
#
# number of rings (size 3 to 8) (size 9 to 14) (size 15 to 20)
#    0.000    1.429    4.286    2.571    0.000    4.000 
#    0.000    2.857    0.000    1.714    0.000    0.000 
#    0.000    0.000    0.000    0.000    0.000    0.000 
#
# Total GULP energy -156419.354681 kJ/mol
# GULP energy per Si atom -5586.405524 kJ/mol
# Density = 1.881436 g / cm^3
# Si number density = 18.857276 Si / 1000 Ang^3
#
#
#
# Elastic Constant Matrix: (Units=GPa)
#
#
# Indices 1 2 3 4 5 6 
#
# 1 89.5141 21.1159 12.4942 0.0000 0.0000 0.0000
# 2 21.1159 90.1213 36.3169 0.0000 0.0000 0.0000
# 3 12.4942 36.3169 68.3897 0.0000 0.0000 0.0000
# 4 0.0000 0.0000 0.0000 23.6547 0.0000 0.0000
# 5 0.0000 0.0000 0.0000 0.0000 12.4799 0.0000
# 6 0.0000 0.0000 0.0000 0.0000 0.0000 7.7214
#
#
#
# Elastic Compliance Matrix: (Units=1/GPa)
#
#
# Indices 1 2 3 4 5 6 
#
# 1 0.011866 -0.002426 -0.000880 0.000000 0.000000 0.000000
# 2 -0.002426 0.014613 -0.007317 0.000000 0.000000 0.000000
# 3 -0.000880 -0.007317 0.018668 0.000000 0.000000 0.000000
# 4 0.000000 0.000000 0.000000 0.042275 0.000000 0.000000
# 5 0.000000 0.000000 0.000000 0.000000 0.080129 0.000000
# 6 0.000000 0.000000 0.000000 0.000000 0.000000 0.129510
#
#
# Mechanical properties :
#
#
# Convention : Reuss Voigt Hill
#
# Bulk Modulus (GPa) = 41.83568 43.09770 42.46669
# Shear Modulus (GPa) = 15.32455 20.64440 17.98447
#
# Velocity S-wave (km/s) = 2.85381 3.31232 3.09158
# Velocity P-wave (km/s) = 5.75261 6.12641 5.94245
#
# Compressibility (1/GPa) = 0.02390304
#
# Stress axis : x y z
#
# Youngs Moduli (GPa) = 84.27110 68.43196 53.56697
#
# Poissons Ratio (x) = 0.16601 0.04712
# Poissons Ratio (y) = 0.20443 0.39194
# Poissons Ratio (z) = 0.07413 0.50070
#
# Static dielectric constant tensor:
#      x y z
#    x 1.616300 0.000000 0.000000 
#    y 0.000000 1.677480 0.000000 
#    z 0.000000 0.000000 1.683130 
# 
# From -- ./inp_files/16548.got.cif
#   From: 2010.05.17/outbox.cif.g08.bks.cpg/sg42_9_cif.got.tgz:16548.got - 2010.06.03 19:03:34.
