data_PCOD9368360
_publ_section_title
;
Structure prediction by ZEFSAII (Michael W. Deem and Ramdas Pophale) SiO2 
 PCOD9368360
Probable space group: F M M 2
;
_chemical_formula_sum "Si O2"
_cell_formula_units_Z 120
_cell_length_a 30.095506
_cell_length_b 14.018741
_cell_length_c 13.740191
_cell_angle_alpha 90.000000
_cell_angle_beta 90.000000
_cell_angle_gamma 90.000000
_cell_volume 5797.001750
_symmetry_space_group_name_H-M "F M M 2"
_symmetry_group_IT_number 42
_symmetry_cell_setting 'orthorhombic'
loop_
_space_group_symop_operation_xyz
x,y,z
-x,-y,z
-x,y,z
x,-y,z
x,1/2+y,1/2+z
-x,1/2-y,1/2+z
-x,1/2+y,1/2+z
x,1/2-y,1/2+z
1/2+x,y,1/2+z
1/2-x,-y,1/2+z
1/2-x,y,1/2+z
1/2+x,-y,1/2+z
1/2+x,1/2+y,z
1/2-x,1/2-y,z
1/2-x,1/2+y,z
1/2+x,1/2-y,z
loop_
_atom_site_type_symbol
_atom_site_label
_atom_site_fract_x
_atom_site_fract_y
_atom_site_fract_z
Si Si1 0.416240 0.112376 0.763690
Si Si2 0.549030 0.209176 0.349270
Si Si3 0.321093 0.887568 0.473539
Si Si4 0.365442 0.889686 0.270376
Si Si5 0.250000 0.250000 0.920779
Si Si6 0.678165 0.890073 0.854432
Si Si7 0.627130 0.891156 0.058520
Si Si8 0.413441 0.309258 0.054040
O O1 0.443362 0.177268 0.839000
O O2 0.363543 0.131100 0.783861
O O3 0.428685 0.145707 0.655144
O O4 0.423094 0.000000 0.776918
O O5 0.500000 0.183646 0.315301
O O6 0.589360 0.168025 0.286008
O O7 0.556962 0.172786 0.458906
O O8 0.332951 0.869591 0.359481
O O9 0.279088 0.820405 0.488226
O O10 0.364659 0.853255 0.531049
O O11 0.313316 0.000000 0.489210
O O12 0.347642 0.877711 0.161451
O O13 0.377722 0.000000 0.282219
O O14 0.281366 0.182580 0.855143
O O15 0.692011 0.000000 0.838716
O O16 0.657327 0.882142 0.963199
O O17 0.592465 0.804867 0.058539
O O18 0.609252 0.000000 0.057707
#
# Coordination Sequence:
#
# PCOD9368360 Si02
#       8
#    16  16  16  16   8  16  16  16
#     4  11  23  42  65  88 120 165 210 248 298 366
#     4  11  23  38  60  92 124 151 192 249 307 363
#     4  10  21  37  56  83 117 157 200 245 301 362
#     4   9  19  38  62  84 113 155 199 243 295 361
#     4  12  20  34  56  88 120 154 192 256 308 360
#     4  10  21  38  59  85 118 158 203 251 302 361
#     4  10  18  34  62  87 109 150 207 248 289 355
#     4  11  21  40  63  86 116 163 205 245 295 361
#
# _framework density 20.700354999999998
#
# number of rings (size 3 to 8) (size 9 to 14) (size 15 to 20)
#    0.000    1.600    4.000    1.600    0.000    1.600 
#    0.000    2.667    0.000    4.800    0.000    0.000 
#    0.000    0.000    0.000    0.000    0.000    0.000 
#
# Total GULP energy -167422.201667 kJ/mol
# GULP energy per Si atom -5580.740056 kJ/mol
# Density = 2.065324 g / cm^3
# Si number density = 20.700355 Si / 1000 Ang^3
#
#
#
# Elastic Constant Matrix: (Units=GPa)
#
#
# Indices 1 2 3 4 5 6 
#
# 1 53.1623 42.1763 1.6894 0.0000 0.0000 0.0000
# 2 42.1763 67.0500 7.7473 0.0000 0.0000 0.0000
# 3 1.6894 7.7473 92.8122 0.0000 0.0000 0.0000
# 4 0.0000 0.0000 0.0000 25.7092 0.0000 0.0000
# 5 0.0000 0.0000 0.0000 0.0000 2.1910 0.0000
# 6 0.0000 0.0000 0.0000 0.0000 0.0000 11.3232
#
#
#
# Elastic Compliance Matrix: (Units=1/GPa)
#
#
# Indices 1 2 3 4 5 6 
#
# 1 0.037705 -0.023868 0.001306 0.000000 0.000000 0.000000
# 2 -0.023868 0.030169 -0.002084 0.000000 0.000000 0.000000
# 3 0.001306 -0.002084 0.010925 0.000000 0.000000 0.000000
# 4 0.000000 0.000000 0.000000 0.038897 0.000000 0.000000
# 5 0.000000 0.000000 0.000000 0.000000 0.456412 0.000000
# 6 0.000000 0.000000 0.000000 0.000000 0.000000 0.088314
#
#
# Mechanical properties :
#
#
# Convention : Reuss Voigt Hill
#
# Bulk Modulus (GPa) = 33.89129 35.13894 34.51512
# Shear Modulus (GPa) = 6.92955 18.60546 12.76750
#
# Velocity S-wave (km/s) = 1.83162 3.00125 2.48619
# Velocity P-wave (km/s) = 4.56957 5.38720 4.99514
#
# Compressibility (1/GPa) = 0.02950611
#
# Stress axis : x y z
#
# Youngs Moduli (GPa) = 26.52194 33.14686 91.53645
#
# Poissons Ratio (x) = 0.79116 -0.11955
# Poissons Ratio (y) = 0.63303 0.19075
# Poissons Ratio (z) = -0.03464 0.06907
#
# Static dielectric constant tensor:
#      x y z
#    x 1.751100 0.000000 0.000000 
#    y 0.000000 1.772960 0.000000 
#    z 0.000000 0.000000 1.760150 
# 
# From -- ./inp_files/17426.got.cif
#   From: 2010.05.17/outbox.cif.g08.bks.cpg/sg42_9_cif.got.tgz:17426.got - 2010.06.03 19:03:34.
