data_PCOD9368257
_publ_section_title
;
Structure prediction by ZEFSAII (Michael W. Deem and Ramdas Pophale) SiO2 
 PCOD9368257
Probable space group: F M M 2
;
_chemical_formula_sum "Si O2"
_cell_formula_units_Z 64
_cell_length_a 13.420083
_cell_length_b 14.461862
_cell_length_c 12.703665
_cell_angle_alpha 90.000000
_cell_angle_beta 90.000000
_cell_angle_gamma 90.000000
_cell_volume 2465.519533
_symmetry_space_group_name_H-M "F M M 2"
_symmetry_group_IT_number 42
_symmetry_cell_setting 'orthorhombic'
loop_
_space_group_symop_operation_xyz
x,y,z
-x,-y,z
-x,y,z
x,-y,z
x,1/2+y,1/2+z
-x,1/2-y,1/2+z
-x,1/2+y,1/2+z
x,1/2-y,1/2+z
1/2+x,y,1/2+z
1/2-x,-y,1/2+z
1/2-x,y,1/2+z
1/2+x,-y,1/2+z
1/2+x,1/2+y,z
1/2-x,1/2-y,z
1/2-x,1/2+y,z
1/2+x,1/2-y,z
loop_
_atom_site_type_symbol
_atom_site_label
_atom_site_fract_x
_atom_site_fract_y
_atom_site_fract_z
Si Si1 0.616793 0.803630 0.468820
Si Si2 0.385750 0.654917 0.210873
Si Si3 0.173723 0.367549 0.258734
Si Si4 0.882135 0.901183 0.521303
O O1 0.500000 0.787059 0.452879
O O2 0.626886 0.845015 0.585178
O O3 0.643456 0.877680 0.379472
O O4 0.659853 0.696948 0.477296
O O5 0.500000 0.630517 0.237489
O O6 0.289324 0.604631 0.254073
O O7 0.359895 0.759206 0.247555
O O8 0.128067 0.401698 0.148828
O O9 0.000000 0.900955 0.498404
O O10 0.841142 0.000000 0.483803
#
# Coordination Sequence:
#
# PCOD9368257 Si02
#       4
#    16  16  16  16
#     4   9  17  32  55  82 109 140 185 238 284 328
#     4   9  19  32  49  78 111 139 178 236 289 329
#     4  10  18  30  55  81 105 143 194 236 272 332
#     4   9  18  33  54  85 123 155 188 238 296 349
#
# _framework density 25.958017999999999
#
# number of rings (size 3 to 8) (size 9 to 14) (size 15 to 20)
#    0.000    2.750    0.000    3.750    0.000    8.000 
#    0.000    0.000    0.000   26.250    0.000   15.750 
#    0.000   18.000    0.000    0.000    0.000    0.000 
#
# Total GULP energy -89181.886808 kJ/mol
# GULP energy per Si atom -5573.867925 kJ/mol
# Density = 2.589894 g / cm^3
# Si number density = 25.958018 Si / 1000 Ang^3
#
#
#
# Elastic Constant Matrix: (Units=GPa)
#
#
# Indices 1 2 3 4 5 6 
#
# 1 61.4037 15.1845 56.3237 0.0000 0.0000 0.0000
# 2 15.1845 109.3642 37.1489 0.0000 0.0000 0.0000
# 3 56.3237 37.1489 147.3736 0.0000 0.0000 0.0000
# 4 0.0000 0.0000 0.0000 -7.1298 0.0000 0.0000
# 5 0.0000 0.0000 0.0000 0.0000 37.2388 0.0000
# 6 0.0000 0.0000 0.0000 0.0000 0.0000 -0.6325
#
#
#
# Elastic Compliance Matrix: (Units=1/GPa)
#
#
# Indices 1 2 3 4 5 6 
#
# 1 0.025083 -0.000248 -0.009524 0.000000 0.000000 0.000000
# 2 -0.000248 0.010002 -0.002427 0.000000 0.000000 0.000000
# 3 -0.009524 -0.002427 0.011037 0.000000 0.000000 0.000000
# 4 0.000000 0.000000 0.000000 -0.140257 0.000000 0.000000
# 5 0.000000 0.000000 0.000000 0.000000 0.026854 0.000000
# 6 0.000000 0.000000 0.000000 0.000000 0.000000 -1.581010
#
#
# Mechanical properties :
#
#
# Convention : Reuss Voigt Hill
#
# Bulk Modulus (GPa) = 46.02761 59.49508 52.76134
# Shear Modulus (GPa) = -3.09281 19.86092 8.38406
#
# Velocity S-wave (km/s) = -1.09273 2.76908 1.79913
# Velocity P-wave (km/s) = 4.02219 5.76135 4.96846
#
# Compressibility (1/GPa) = 0.02172609
#
# Stress axis : x y z
#
# Youngs Moduli (GPa) = 39.86794 99.97554 90.60392
#
# Poissons Ratio (x) = 0.02475 0.86290
# Poissons Ratio (y) = 0.00987 0.21987
# Poissons Ratio (z) = 0.37970 0.24262
#
# Static dielectric constant tensor:
#      x y z
#    x 2.060120 0.000000 0.000000 
#    y 0.000000 2.141700 0.000000 
#    z 0.000000 0.000000 2.052790 
# 
# From -- ./inp_files/13586.got.cif
#   From: 2010.05.17/outbox.cif.g08.bks.cpg/sg42_7_cif.got.tgz:13586.got - 2010.06.03 19:03:34.
