data_PCOD9368583
_publ_section_title
;
Structure prediction by ZEFSAII (Michael W. Deem and Ramdas Pophale) SiO2 
 PCOD9368583
Probable space group: F M M 2
;
_chemical_formula_sum "Si O2"
_cell_formula_units_Z 116
_cell_length_a 31.529243
_cell_length_b 7.902341
_cell_length_c 24.840960
_cell_angle_alpha 90.000000
_cell_angle_beta 90.000000
_cell_angle_gamma 90.000000
_cell_volume 6189.245157
_symmetry_space_group_name_H-M "F M M 2"
_symmetry_group_IT_number 42
_symmetry_cell_setting 'orthorhombic'
loop_
_space_group_symop_operation_xyz
x,y,z
-x,-y,z
-x,y,z
x,-y,z
x,1/2+y,1/2+z
-x,1/2-y,1/2+z
-x,1/2+y,1/2+z
x,1/2-y,1/2+z
1/2+x,y,1/2+z
1/2-x,-y,1/2+z
1/2-x,y,1/2+z
1/2+x,-y,1/2+z
1/2+x,1/2+y,z
1/2-x,1/2-y,z
1/2-x,1/2+y,z
1/2+x,1/2-y,z
loop_
_atom_site_type_symbol
_atom_site_label
_atom_site_fract_x
_atom_site_fract_y
_atom_site_fract_z
Si Si1 0.202428 0.201531 0.651640
Si Si2 0.000000 0.000000 0.088439
Si Si3 0.547076 0.295672 0.395680
Si Si4 0.384705 0.306266 0.184275
Si Si5 0.566768 0.688414 0.584242
Si Si6 0.952770 0.202486 0.770432
Si Si7 0.797796 0.704409 0.027835
Si Si8 0.880821 0.801642 0.473963
O O1 0.250000 0.250000 0.667878
O O2 0.165042 0.268847 0.689313
O O3 0.196016 0.265135 0.589757
O O4 0.199520 0.000000 0.650415
O O5 0.036156 0.848181 0.088195
O O6 0.500000 0.235642 0.414241
O O7 0.546691 0.500000 0.401071
O O8 0.551000 0.251251 0.332952
O O9 0.586810 0.228174 0.429775
O O10 0.389374 0.500000 0.168372
O O11 0.402581 0.194877 0.135686
O O12 0.414565 0.274484 0.235444
O O13 0.547005 0.500000 0.583113
O O14 0.593976 0.703635 0.530056
O O15 0.000000 0.261184 0.751624
O O16 0.952008 0.000000 0.765791
O O17 0.801410 0.500000 0.029398
O O18 0.750000 0.750000 0.011830
O O19 0.834435 0.769920 0.987987
O O20 0.874628 0.000000 0.459175
#
# Coordination Sequence:
#
# PCOD9368583 Si02
#       8
#    16   4  16  16  16  16  16  16
#     4  10  19  34  55  82 115 153 189 233 289 346
#     4  12  26  40  48  86 116 160 202 228 292 352
#     4   9  18  35  57  81 105 142 192 241 286 342
#     4  12  23  37  57  85 115 149 196 243 288 351
#     4  11  23  40  56  80 119 158 194 238 288 349
#     4  10  22  39  57  80 108 149 192 240 299 345
#     4   9  17  31  51  78 110 146 185 224 277 342
#     4   9  18  35  58  80 112 152 189 231 289 344
#
# _framework density 18.742189
#
# number of rings (size 3 to 8) (size 9 to 14) (size 15 to 20)
#    0.000    1.931    2.069    2.276    1.931    1.379 
#    2.483    0.000    0.000    0.828    0.000    3.862 
#    0.000    0.000    0.000    0.000    0.000    0.000 
#
# Total GULP energy -161511.844171 kJ/mol
# GULP energy per Si atom -5569.373937 kJ/mol
# Density = 1.869953 g / cm^3
# Si number density = 18.742189 Si / 1000 Ang^3
#
#
#
# Elastic Constant Matrix: (Units=GPa)
#
#
# Indices 1 2 3 4 5 6 
#
# 1 187.5204 31.5598 60.3335 0.0000 -0.0001 0.0000
# 2 31.5598 76.2745 4.4286 0.0000 -0.0003 0.0000
# 3 60.3335 4.4286 55.3476 0.0000 0.0000 0.0000
# 4 0.0000 0.0000 0.0000 11.4612 -0.0001 0.0000
# 5 -0.0001 -0.0003 0.0000 -0.0001 36.7947 0.0001
# 6 0.0000 0.0000 0.0000 0.0000 0.0001 21.0697
#
#
#
# Elastic Compliance Matrix: (Units=1/GPa)
#
#
# Indices 1 2 3 4 5 6 
#
# 1 0.008902 -0.003134 -0.009453 0.000000 0.000000 0.000000
# 2 -0.003134 0.014275 0.002274 0.000000 0.000000 0.000000
# 3 -0.009453 0.002274 0.028190 0.000000 0.000000 0.000000
# 4 0.000000 0.000000 0.000000 0.087251 0.000000 0.000000
# 5 0.000000 0.000000 0.000000 0.000000 0.027178 0.000000
# 6 0.000000 0.000000 0.000000 0.000000 0.000000 0.047461
#
#
# Mechanical properties :
#
#
# Convention : Reuss Voigt Hill
#
# Bulk Modulus (GPa) = 32.52911 56.86513 44.69712
# Shear Modulus (GPa) = 20.48093 28.71983 24.60038
#
# Velocity S-wave (km/s) = 3.30930 3.91879 3.62687
# Velocity P-wave (km/s) = 5.65647 7.13319 6.43732
#
# Compressibility (1/GPa) = 0.03074170
#
# Stress axis : x y z
#
# Youngs Moduli (GPa) = 112.33919 70.05075 35.47371
#
# Poissons Ratio (x) = 0.21956 0.33532
# Poissons Ratio (y) = 0.35211 -0.08068
# Poissons Ratio (z) = 1.06191 -0.15933
#
# Static dielectric constant tensor:
#      x y z
#    x 1.681180 0.000000 0.000000 
#    y 0.000000 1.672440 0.000000 
#    z 0.000000 0.000000 1.622670 
# 
# From -- ./inp_files/28488.got.cif
#   From: 2010.05.17/outbox.cif.g08.bks.cpg/sg42_15_cif.got.tgz:28488.got - 2010.06.03 19:03:34.
