data_PCOD9368636
_publ_section_title
;
Structure prediction by ZEFSAII (Michael W. Deem and Ramdas Pophale) SiO2 
 PCOD9368636
Probable space group: F M M 2
;
_chemical_formula_sum "Si O2"
_cell_formula_units_Z 96
_cell_length_a 15.271362
_cell_length_b 14.525185
_cell_length_c 18.240673
_cell_angle_alpha 90.000000
_cell_angle_beta 90.000000
_cell_angle_gamma 90.000000
_cell_volume 4046.134379
_symmetry_space_group_name_H-M "F M M 2"
_symmetry_group_IT_number 42
_symmetry_cell_setting 'orthorhombic'
loop_
_space_group_symop_operation_xyz
x,y,z
-x,-y,z
-x,y,z
x,-y,z
x,1/2+y,1/2+z
-x,1/2-y,1/2+z
-x,1/2+y,1/2+z
x,1/2-y,1/2+z
1/2+x,y,1/2+z
1/2-x,-y,1/2+z
1/2-x,y,1/2+z
1/2+x,-y,1/2+z
1/2+x,1/2+y,z
1/2-x,1/2-y,z
1/2-x,1/2+y,z
1/2+x,1/2-y,z
loop_
_atom_site_type_symbol
_atom_site_label
_atom_site_fract_x
_atom_site_fract_y
_atom_site_fract_z
Si Si1 0.658821 0.096908 0.153420
Si Si2 0.129541 0.605390 0.661713
Si Si3 0.899808 0.604130 0.395793
Si Si4 0.602701 0.901524 0.984523
Si Si5 0.144739 0.755196 0.769188
Si Si6 0.341483 0.209710 0.521048
O O1 0.764278 0.099984 0.155201
O O2 0.623262 0.097296 0.071414
O O3 0.625920 0.181668 0.198891
O O4 0.631016 0.000000 0.187762
O O5 0.098133 0.500000 0.657936
O O6 0.111896 0.656080 0.739626
O O7 0.106274 0.667785 0.590280
O O8 0.883937 0.500000 0.368680
O O9 0.891059 0.683411 0.335132
O O10 0.835198 0.626919 0.463158
O O11 0.000000 0.607681 0.424337
O O12 0.500000 0.905235 0.970930
O O13 0.639669 0.000000 0.954931
O O14 0.627818 0.795673 0.970138
O O15 0.250000 0.750000 0.780217
O O16 0.250000 0.250000 0.550047
#
# Coordination Sequence:
#
# PCOD9368636 Si02
#       6
#    16  16  16  16  16  16
#     4   9  16  30  54  86 118 145 186 242 297 352
#     4  10  19  34  61  94 122 150 196 254 306 361
#     4  11  26  44  61  86 123 167 211 258 314 373
#     4  10  20  33  53  86 122 155 192 238 298 357
#     4  10  19  38  60  89 116 155 202 253 307 364
#     4  12  21  39  63  92 126 161 206 253 305 366
#
# _framework density 23.72635
#
# number of rings (size 3 to 8) (size 9 to 14) (size 15 to 20)
#    0.000    1.667    3.333    2.500    0.000    2.000 
#    0.000    2.500    0.000    3.500    0.000    0.000 
#    0.000    0.000    0.000    0.000    0.000    0.000 
#
# Total GULP energy -133689.363820 kJ/mol
# GULP energy per Si atom -5570.390159 kJ/mol
# Density = 2.367235 g / cm^3
# Si number density = 23.726350 Si / 1000 Ang^3
#
#
#
# Elastic Constant Matrix: (Units=GPa)
#
#
# Indices 1 2 3 4 5 6 
#
# 1 34.6719 29.5706 1.3358 0.0000 0.0000 0.0000
# 2 29.5706 179.4675 41.7976 0.0000 0.0000 0.0000
# 3 1.3358 41.7976 72.0056 0.0000 0.0000 0.0000
# 4 0.0000 0.0000 0.0000 -52.1360 0.0000 0.0000
# 5 0.0000 0.0000 0.0000 0.0000 -266.3852 0.0000
# 6 0.0000 0.0000 0.0000 0.0000 0.0000 18.0133
#
#
#
# Elastic Compliance Matrix: (Units=1/GPa)
#
#
# Indices 1 2 3 4 5 6 
#
# 1 0.034124 -0.006331 0.003042 0.000000 0.000000 0.000000
# 2 -0.006331 0.007618 -0.004304 0.000000 0.000000 0.000000
# 3 0.003042 -0.004304 0.016330 0.000000 0.000000 0.000000
# 4 0.000000 0.000000 0.000000 -0.019181 0.000000 0.000000
# 5 0.000000 0.000000 0.000000 0.000000 -0.003754 0.000000
# 6 0.000000 0.000000 0.000000 0.000000 0.000000 0.055515
#
#
# Mechanical properties :
#
#
# Convention : Reuss Voigt Hill
#
# Bulk Modulus (GPa) = 23.31830 47.95035 35.63432
# Shear Modulus (GPa) = 41.62024 -45.87220 -2.12598
#
# Velocity S-wave (km/s) = 4.19283 -4.40180 -0.94762
# Velocity P-wave (km/s) = 5.76968 2.36238 3.72212
#
# Compressibility (1/GPa) = 0.04288478
#
# Stress axis : x y z
#
# Youngs Moduli (GPa) = 29.30477 131.27332 61.23693
#
# Poissons Ratio (x) = 0.83110 -0.18628
# Poissons Ratio (y) = 0.18553 0.26359
# Poissons Ratio (z) = -0.08914 0.56506
#
# Static dielectric constant tensor:
#      x y z
#    x 2.386140 0.000000 0.000000 
#    y 0.000000 2.090920 0.000000 
#    z 0.000000 0.000000 1.856960 
# 
# From -- ./inp_files/25118.got.cif
#   From: 2010.05.17/outbox.cif.g08.bks.cpg/sg42_13_cif.got.tgz:25118.got - 2010.06.03 19:03:34.
