data_PCOD9368562
_publ_section_title
;
Structure prediction by ZEFSAII (Michael W. Deem and Ramdas Pophale) SiO2 
 PCOD9368562
Probable space group: F M M 2
;
_chemical_formula_sum "Si O2"
_cell_formula_units_Z 112
_cell_length_a 15.140790
_cell_length_b 28.487899
_cell_length_c 14.865282
_cell_angle_alpha 90.000000
_cell_angle_beta 90.000000
_cell_angle_gamma 90.000000
_cell_volume 6411.831624
_symmetry_space_group_name_H-M "F M M 2"
_symmetry_group_IT_number 42
_symmetry_cell_setting 'orthorhombic'
loop_
_space_group_symop_operation_xyz
x,y,z
-x,-y,z
-x,y,z
x,-y,z
x,1/2+y,1/2+z
-x,1/2-y,1/2+z
-x,1/2+y,1/2+z
x,1/2-y,1/2+z
1/2+x,y,1/2+z
1/2-x,-y,1/2+z
1/2-x,y,1/2+z
1/2+x,-y,1/2+z
1/2+x,1/2+y,z
1/2-x,1/2-y,z
1/2-x,1/2+y,z
1/2+x,1/2-y,z
loop_
_atom_site_type_symbol
_atom_site_label
_atom_site_fract_x
_atom_site_fract_y
_atom_site_fract_z
Si Si1 0.196161 0.945046 0.501190
Si Si2 0.186913 0.589177 0.663178
Si Si3 0.000000 0.944053 0.247763
Si Si4 0.000000 0.443651 0.956625
Si Si5 0.746137 0.628245 0.346552
Si Si6 0.603079 0.184028 0.605886
Si Si7 0.401840 0.195171 0.405453
Si Si8 0.657845 0.278034 0.292071
O O1 0.254862 0.939246 0.591216
O O2 0.230456 0.908976 0.425518
O O3 0.091557 0.932232 0.507218
O O4 0.201522 0.000000 0.472864
O O5 0.242490 0.600381 0.752769
O O6 0.163379 0.638446 0.616436
O O7 0.091181 0.570072 0.697300
O O8 0.000000 0.925747 0.352071
O O9 0.000000 0.000000 0.252329
O O10 0.000000 0.500000 0.949059
O O11 0.834837 0.657357 0.365120
O O12 0.673740 0.670316 0.334464
O O13 0.500000 0.170439 0.608885
O O14 0.622163 0.205761 0.508968
O O15 0.621512 0.215836 0.692004
O O16 0.500000 0.175095 0.403819
O O17 0.399628 0.243757 0.352246
O O18 0.750000 0.250000 0.286855
#
# Coordination Sequence:
#
# PCOD9368562 Si02
#       8
#    16  16   8   8  16  16  16  16
#     4  11  22  39  62  88 121 158 198 248 302 356
#     4  11  21  36  58  90 120 153 198 248 301 352
#     4  11  20  34  60  91 116 152 206 260 298 347
#     4   9  20  38  60  83 114 156 202 248 298 351
#     4  10  21  38  59  86 117 157 196 251 302 352
#     4  10  19  33  57  81 111 147 187 235 293 351
#     4  10  20  38  57  81 119 156 192 238 302 363
#     4   9  20  35  55  82 113 151 194 243 290 352
#
# _framework density 17.467707000000001
#
# number of rings (size 3 to 8) (size 9 to 14) (size 15 to 20)
#    0.000    1.857    3.571    0.857    0.000    2.286 
#    5.143    0.000    0.000    0.000    0.000    0.000 
#    0.000    0.000    0.000    0.000    0.000    0.000 
#
# Total GULP energy -155963.199504 kJ/mol
# GULP energy per Si atom -5570.114268 kJ/mol
# Density = 1.742795 g / cm^3
# Si number density = 17.467707 Si / 1000 Ang^3
#
#
#
# Elastic Constant Matrix: (Units=GPa)
#
#
# Indices 1 2 3 4 5 6 
#
# 1 93.7176 25.6773 61.3892 0.0000 0.0000 0.0000
# 2 25.6773 79.6142 50.7447 0.0000 0.0000 0.0000
# 3 61.3892 50.7447 112.5628 0.0000 0.0000 0.0000
# 4 0.0000 0.0000 0.0000 32.5140 0.0000 0.0000
# 5 0.0000 0.0000 0.0000 0.0000 32.5612 0.0000
# 6 0.0000 0.0000 0.0000 0.0000 0.0000 8.4614
#
#
#
# Elastic Compliance Matrix: (Units=1/GPa)
#
#
# Indices 1 2 3 4 5 6 
#
# 1 0.016620 0.000585 -0.009328 0.000000 0.000000 0.000000
# 2 0.000585 0.017646 -0.008274 0.000000 0.000000 0.000000
# 3 -0.009328 -0.008274 0.017701 0.000000 0.000000 0.000000
# 4 0.000000 0.000000 0.000000 0.030756 0.000000 0.000000
# 5 0.000000 0.000000 0.000000 0.000000 0.030711 0.000000
# 6 0.000000 0.000000 0.000000 0.000000 0.000000 0.118184
#
#
# Mechanical properties :
#
#
# Convention : Reuss Voigt Hill
#
# Bulk Modulus (GPa) = 55.76221 62.39077 59.07649
# Shear Modulus (GPa) = 18.40738 24.57954 21.49346
#
# Velocity S-wave (km/s) = 3.24974 3.75526 3.51161
# Velocity P-wave (km/s) = 6.78774 7.38904 7.09476
#
# Compressibility (1/GPa) = 0.01793329
#
# Stress axis : x y z
#
# Youngs Moduli (GPa) = 60.16702 56.67159 56.49294
#
# Poissons Ratio (x) = -0.03316 0.52698
# Poissons Ratio (y) = -0.03521 0.46742
# Poissons Ratio (z) = 0.56125 0.46890
#
# Static dielectric constant tensor:
#      x y z
#    x 1.607520 0.000000 0.000000 
#    y 0.000000 1.580680 0.000000 
#    z 0.000000 0.000000 1.601330 
# 
# From -- ./inp_files/14446.got.cif
#   From: 2010.05.17/outbox.cif.g08.bks.cpg/sg42_8_cif.got.tgz:14446.got - 2010.06.03 19:03:34.
