data_PCOD9368236
_publ_section_title
;
Structure prediction by ZEFSAII (Michael W. Deem and Ramdas Pophale) SiO2 
 PCOD9368236
Probable space group: F M M 2
;
_chemical_formula_sum "Si O2"
_cell_formula_units_Z 120
_cell_length_a 23.004101
_cell_length_b 23.690800
_cell_length_c 9.142721
_cell_angle_alpha 90.000000
_cell_angle_beta 90.000000
_cell_angle_gamma 90.000000
_cell_volume 4982.650887
_symmetry_space_group_name_H-M "F M M 2"
_symmetry_group_IT_number 42
_symmetry_cell_setting 'orthorhombic'
loop_
_space_group_symop_operation_xyz
x,y,z
-x,-y,z
-x,y,z
x,-y,z
x,1/2+y,1/2+z
-x,1/2-y,1/2+z
-x,1/2+y,1/2+z
x,1/2-y,1/2+z
1/2+x,y,1/2+z
1/2-x,-y,1/2+z
1/2-x,y,1/2+z
1/2+x,-y,1/2+z
1/2+x,1/2+y,z
1/2-x,1/2-y,z
1/2-x,1/2+y,z
1/2+x,1/2-y,z
loop_
_atom_site_type_symbol
_atom_site_label
_atom_site_fract_x
_atom_site_fract_y
_atom_site_fract_z
Si Si1 0.935424 0.112388 0.453990
Si Si2 0.184581 0.762943 0.415587
Si Si3 0.000000 0.178036 0.794928
Si Si4 0.897866 0.155977 0.969731
Si Si5 0.579406 0.712988 0.255002
Si Si6 0.368364 0.562327 0.182787
Si Si7 0.253913 0.934214 0.353561
Si Si8 0.183846 0.626673 0.104308
O O1 0.939489 0.177145 0.396939
O O2 0.915115 0.080353 0.307104
O O3 0.881525 0.107230 0.563414
O O4 0.000000 0.097556 0.508656
O O5 0.250000 0.750000 0.377514
O O6 0.148409 0.705649 0.438638
O O7 0.149038 0.790146 0.280623
O O8 0.184787 0.807770 0.550744
O O9 0.949769 0.226541 0.757419
O O10 0.946396 0.138696 0.853247
O O11 0.935063 0.184589 0.102426
O O12 0.868519 0.103548 0.046935
O O13 0.382170 0.500000 0.133909
O O14 0.305829 0.563624 0.259660
O O15 0.229980 0.905715 0.500853
O O16 0.297890 0.893398 0.265239
O O17 0.273173 0.000000 0.371468
#
# Coordination Sequence:
#
# PCOD9368236 Si02
#       8
#    16  16   8  16  16  16  16  16
#     4   9  17  32  55  82 119 156 205 265 314 362
#     4  10  21  34  52  81 117 151 190 247 307 368
#     4  10  18  30  49  72 101 142 192 234 284 358
#     4  10  20  33  53  79 108 152 191 239 302 362
#     4   9  18  32  50  72 105 149 193 239 297 363
#     4   9  19  33  52  82 117 155 199 252 310 363
#     4  10  20  38  60  86 124 162 208 254 305 378
#     4  10  21  36  60  93 120 164 209 261 319 374
#
# _framework density 24.083566000000001
#
# number of rings (size 3 to 8) (size 9 to 14) (size 15 to 20)
#    0.000    2.400    0.667    2.400    2.800    2.400 
#    0.000    0.000    0.000    0.000    0.000    0.933 
#    0.000    3.733    0.000    1.200    0.000    0.000 
#
# Total GULP energy -167153.750773 kJ/mol
# GULP energy per Si atom -5571.791692 kJ/mol
# Density = 2.402875 g / cm^3
# Si number density = 24.083566 Si / 1000 Ang^3
#
#
#
# Elastic Constant Matrix: (Units=GPa)
#
#
# Indices 1 2 3 4 5 6 
#
# 1 164.2568 3.0628 41.9309 -0.0002 0.0001 0.0001
# 2 3.0628 72.0944 25.6222 -0.0002 -0.0001 0.0001
# 3 41.9309 25.6222 85.6885 -0.0003 0.0010 0.0002
# 4 -0.0002 -0.0002 -0.0003 19.7074 0.0014 0.0002
# 5 0.0001 -0.0001 0.0010 0.0014 -64.1420 -0.0006
# 6 0.0001 0.0001 0.0002 0.0002 -0.0006 32.1423
#
#
#
# Elastic Compliance Matrix: (Units=1/GPa)
#
#
# Indices 1 2 3 4 5 6 
#
# 1 0.007025 0.001033 -0.003747 0.000000 0.000000 0.000000
# 2 0.001033 0.015672 -0.005192 0.000000 0.000000 0.000000
# 3 -0.003747 -0.005192 0.015056 0.000000 0.000000 0.000000
# 4 0.000000 0.000000 0.000000 0.050742 0.000001 0.000000
# 5 0.000000 0.000000 0.000000 0.000001 -0.015590 0.000000
# 6 0.000000 0.000000 0.000000 0.000000 0.000000 0.031112
#
#
# Mechanical properties :
#
#
# Convention : Reuss Voigt Hill
#
# Bulk Modulus (GPa) = 45.57341 51.47462 48.52401
# Shear Modulus (GPa) = 39.32631 14.30312 26.81472
#
# Velocity S-wave (km/s) = 4.04531 2.43964 3.34039
# Velocity P-wave (km/s) = 6.38620 5.41808 5.92195
#
# Compressibility (1/GPa) = 0.02194262
#
# Stress axis : x y z
#
# Youngs Moduli (GPa) = 142.34497 63.80836 66.41893
#
# Poissons Ratio (x) = -0.06592 0.24885
# Poissons Ratio (y) = -0.14706 0.34483
# Poissons Ratio (z) = 0.53331 0.33127
#
# Static dielectric constant tensor:
#      x y z
#    x 2.078200 0.000000 0.000000 
#    y 0.000000 1.959570 0.000000 
#    z 0.000000 0.000000 2.017180 
# 
# From -- ./inp_files/9711.got.cif
#   From: 2010.05.17/outbox.cif.g08.bks.cpg/sg42_5_cif.got.tgz:9711.got - 2010.06.03 19:03:34.
