data_PCOD9368349
_publ_section_title
;
Structure prediction by ZEFSAII (Michael W. Deem and Ramdas Pophale) SiO2 
 PCOD9368349
Probable space group: F M M 2
;
_chemical_formula_sum "Si O2"
_cell_formula_units_Z 80
_cell_length_a 18.203442
_cell_length_b 25.210602
_cell_length_c 8.963326
_cell_angle_alpha 90.000000
_cell_angle_beta 90.000000
_cell_angle_gamma 90.000000
_cell_volume 4113.447159
_symmetry_space_group_name_H-M "F M M 2"
_symmetry_group_IT_number 42
_symmetry_cell_setting 'orthorhombic'
loop_
_space_group_symop_operation_xyz
x,y,z
-x,-y,z
-x,y,z
x,-y,z
x,1/2+y,1/2+z
-x,1/2-y,1/2+z
-x,1/2+y,1/2+z
x,1/2-y,1/2+z
1/2+x,y,1/2+z
1/2-x,-y,1/2+z
1/2-x,y,1/2+z
1/2+x,-y,1/2+z
1/2+x,1/2+y,z
1/2-x,1/2-y,z
1/2-x,1/2+y,z
1/2+x,1/2-y,z
loop_
_atom_site_type_symbol
_atom_site_label
_atom_site_fract_x
_atom_site_fract_y
_atom_site_fract_z
Si Si1 0.376157 0.821354 0.797660
Si Si2 0.267632 0.588454 0.584442
Si Si3 0.582534 0.769239 0.484167
Si Si4 0.204803 0.162072 0.835326
Si Si5 0.856796 0.056792 0.308170
O O1 0.403882 0.789684 0.652153
O O2 0.407576 0.792776 0.944810
O O3 0.287200 0.816639 0.804573
O O4 0.392956 0.884669 0.788990
O O5 0.216324 0.623496 0.476163
O O6 0.313478 0.627639 0.690566
O O7 0.212215 0.558220 0.693359
O O8 0.321103 0.558320 0.473063
O O9 0.500000 0.784713 0.442044
O O10 0.644049 0.796494 0.381381
O O11 0.896034 0.000000 0.287047
#
# Coordination Sequence:
#
# PCOD9368349 Si02
#       5
#    16  16  16  16  16
#     4  10  24  38  58  92 120 162 202 243 308 357
#     4   8  17  31  56  89 122 150 203 240 310 340
#     4  12  24  40  60  90 124 160 199 253 301 364
#     4  10  18  37  60  88 118 163 190 254 291 366
#     4  10  18  34  57  87 123 156 201 256 296 351
#
# _framework density 19.448407
#
# number of rings (size 3 to 8) (size 9 to 14) (size 15 to 20)
#    0.000    2.400    4.000    1.800    5.600    1.600 
#    0.000    0.000    0.000    2.400    0.000    0.000 
#    0.000    0.000    0.000    0.000    0.000    0.000 
#
# Total GULP energy -111396.482464 kJ/mol
# GULP energy per Si atom -5569.824123 kJ/mol
# Density = 1.940414 g / cm^3
# Si number density = 19.448407 Si / 1000 Ang^3
#
#
#
# Elastic Constant Matrix: (Units=GPa)
#
#
# Indices 1 2 3 4 5 6 
#
# 1 61.9596 20.0421 3.0283 0.0000 0.0000 0.0000
# 2 20.0421 149.1225 47.7859 0.0000 0.0000 0.0000
# 3 3.0283 47.7859 104.4081 0.0000 -0.0001 0.0000
# 4 0.0000 0.0000 0.0000 -4.5711 0.0000 0.0000
# 5 0.0000 0.0000 -0.0001 0.0000 14.0075 0.0000
# 6 0.0000 0.0000 0.0000 0.0000 0.0000 -1.4839
#
#
#
# Elastic Compliance Matrix: (Units=1/GPa)
#
#
# Indices 1 2 3 4 5 6 
#
# 1 0.016910 -0.002479 0.000644 0.000000 0.000000 0.000000
# 2 -0.002479 0.008222 -0.003691 0.000000 0.000000 0.000000
# 3 0.000644 -0.003691 0.011248 0.000000 0.000000 0.000000
# 4 0.000000 0.000000 0.000000 -0.218767 0.000000 0.000000
# 5 0.000000 0.000000 0.000000 0.000000 0.071390 0.000000
# 6 0.000000 0.000000 0.000000 0.000000 0.000000 -0.673899
#
#
# Mechanical properties :
#
#
# Convention : Reuss Voigt Hill
#
# Bulk Modulus (GPa) = 39.48162 50.80031 45.14097
# Shear Modulus (GPa) = -6.53253 17.89944 5.68345
#
# Velocity S-wave (km/s) = -1.83472 3.03703 1.71134
# Velocity P-wave (km/s) = 3.98202 6.20285 5.21209
#
# Compressibility (1/GPa) = 0.02532824
#
# Stress axis : x y z
#
# Youngs Moduli (GPa) = 59.13665 121.62636 88.90084
#
# Poissons Ratio (x) = 0.30153 -0.05727
# Poissons Ratio (y) = 0.14661 0.32814
# Poissons Ratio (z) = -0.03810 0.44894
#
# Static dielectric constant tensor:
#      x y z
#    x 1.651120 0.000000 0.000000 
#    y 0.000000 1.772610 0.000000 
#    z 0.000000 0.000000 1.716600 
# 
# From -- ./inp_files/3499.got.cif
#   From: 2010.05.17/outbox.cif.g08.bks.cpg/sg42_2_cif.got.tgz:3499.got - 2010.06.03 19:03:34.
