data_PCOD9368396
_publ_section_title
;
Structure prediction by ZEFSAII (Michael W. Deem and Ramdas Pophale) SiO2 
 PCOD9368396
Probable space group: F M M 2
;
_chemical_formula_sum "Si O2"
_cell_formula_units_Z 96
_cell_length_a 9.121655
_cell_length_b 26.836814
_cell_length_c 23.207963
_cell_angle_alpha 90.000000
_cell_angle_beta 90.000000
_cell_angle_gamma 90.000000
_cell_volume 5681.220191
_symmetry_space_group_name_H-M "F M M 2"
_symmetry_group_IT_number 42
_symmetry_cell_setting 'orthorhombic'
loop_
_space_group_symop_operation_xyz
x,y,z
-x,-y,z
-x,y,z
x,-y,z
x,1/2+y,1/2+z
-x,1/2-y,1/2+z
-x,1/2+y,1/2+z
x,1/2-y,1/2+z
1/2+x,y,1/2+z
1/2-x,-y,1/2+z
1/2-x,y,1/2+z
1/2+x,-y,1/2+z
1/2+x,1/2+y,z
1/2-x,1/2-y,z
1/2-x,1/2+y,z
1/2+x,1/2-y,z
loop_
_atom_site_type_symbol
_atom_site_label
_atom_site_fract_x
_atom_site_fract_y
_atom_site_fract_z
Si Si1 0.328248 0.803052 0.665900
Si Si2 0.324434 0.057675 0.492075
Si Si3 0.163680 0.705227 0.989619
Si Si4 0.834445 0.379761 0.085321
Si Si5 0.175052 0.858653 0.898886
Si Si6 0.171621 0.302845 0.803757
O O1 0.500000 0.799831 0.649638
O O2 0.250000 0.750000 0.652983
O O3 0.253385 0.850158 0.634593
O O4 0.317739 0.809780 0.734929
O O5 0.500000 0.063132 0.499118
O O6 0.248472 0.076370 0.551048
O O7 0.284509 0.092430 0.436898
O O8 0.289815 0.000000 0.481177
O O9 0.250000 0.750000 0.018183
O O10 0.263099 0.686524 0.937443
O O11 0.000000 0.719021 0.971116
O O12 0.153558 0.661328 0.035059
O O13 0.000000 0.393509 0.103474
O O14 0.251636 0.847976 0.838034
O O15 0.000000 0.857222 0.893314
O O16 0.250000 0.250000 0.817133
O O17 0.000000 0.300012 0.819306
#
# Coordination Sequence:
#
# PCOD9368396 Si02
#       6
#    16  16  16  16  16  16
#     4  10  20  33  50  72 101 137 172 205 242 288
#     4   9  19  36  56  76  98 126 161 204 256 307
#     4  10  19  29  42  64  95 127 157 192 236 287
#     4  10  20  32  49  73  99 128 163 203 246 294
#     4  10  19  31  49  71  95 125 161 201 245 293
#     4  10  20  33  49  71 101 136 171 203 239 285
#
# _framework density 16.897777000000001
#
# number of rings (size 3 to 8) (size 9 to 14) (size 15 to 20)
#    0.000    2.167    0.000    3.500    0.000    6.333 
#    0.000    0.000    0.000    1.000    0.000    4.667 
#    0.000    0.000    0.000    0.000    0.000    0.000 
#
# Total GULP energy -133747.696620 kJ/mol
# GULP energy per Si atom -5572.820692 kJ/mol
# Density = 1.685932 g / cm^3
# Si number density = 16.897777 Si / 1000 Ang^3
#
#
#
# Elastic Constant Matrix: (Units=GPa)
#
#
# Indices 1 2 3 4 5 6 
#
# 1 111.1125 57.3128 48.7013 0.0000 0.0000 0.0000
# 2 57.3128 87.3923 36.5300 0.0000 0.0000 0.0000
# 3 48.7013 36.5300 72.4574 0.0000 0.0000 0.0000
# 4 0.0000 0.0000 0.0000 23.9230 0.0000 0.0000
# 5 0.0000 0.0000 0.0000 0.0000 25.2173 0.0000
# 6 0.0000 0.0000 0.0000 0.0000 0.0000 20.6030
#
#
#
# Elastic Compliance Matrix: (Units=1/GPa)
#
#
# Indices 1 2 3 4 5 6 
#
# 1 0.015919 -0.007560 -0.006888 0.000000 0.000000 0.000000
# 2 -0.007560 0.018089 -0.004038 0.000000 0.000000 0.000000
# 3 -0.006888 -0.004038 0.020467 0.000000 0.000000 0.000000
# 4 0.000000 0.000000 0.000000 0.041801 0.000000 0.000000
# 5 0.000000 0.000000 0.000000 0.000000 0.039655 0.000000
# 6 0.000000 0.000000 0.000000 0.000000 0.000000 0.048537
#
#
# Mechanical properties :
#
#
# Convention : Reuss Voigt Hill
#
# Bulk Modulus (GPa) = 57.13807 61.78337 59.46072
# Shear Modulus (GPa) = 21.99999 22.50987 22.25493
#
# Velocity S-wave (km/s) = 3.61216 3.65378 3.63303
# Velocity P-wave (km/s) = 7.16131 7.37852 7.27072
#
# Compressibility (1/GPa) = 0.01750147
#
# Stress axis : x y z
#
# Youngs Moduli (GPa) = 62.81941 55.28301 48.86024
#
# Poissons Ratio (x) = 0.41797 0.33654
# Poissons Ratio (y) = 0.47495 0.19729
# Poissons Ratio (z) = 0.43269 0.22323
#
# Static dielectric constant tensor:
#      x y z
#    x 1.606350 0.000000 0.000000 
#    y 0.000000 1.602670 0.000000 
#    z 0.000000 0.000000 1.591510 
# 
# From -- ./inp_files/23678.got.cif
#   From: 2010.05.17/outbox.cif.g08.bks.cpg/sg42_12_cif.got.tgz:23678.got - 2010.06.03 19:03:34.
