data_PCOD9368391
_publ_section_title
;
Structure prediction by ZEFSAII (Michael W. Deem and Ramdas Pophale) SiO2 
 PCOD9368391
Probable space group: F M M 2
;
_chemical_formula_sum "Si O2"
_cell_formula_units_Z 96
_cell_length_a 7.399380
_cell_length_b 27.773709
_cell_length_c 24.021070
_cell_angle_alpha 90.000000
_cell_angle_beta 90.000000
_cell_angle_gamma 90.000000
_cell_volume 4936.527504
_symmetry_space_group_name_H-M "F M M 2"
_symmetry_group_IT_number 42
_symmetry_cell_setting 'orthorhombic'
loop_
_space_group_symop_operation_xyz
x,y,z
-x,-y,z
-x,y,z
x,-y,z
x,1/2+y,1/2+z
-x,1/2-y,1/2+z
-x,1/2+y,1/2+z
x,1/2-y,1/2+z
1/2+x,y,1/2+z
1/2-x,-y,1/2+z
1/2-x,y,1/2+z
1/2+x,-y,1/2+z
1/2+x,1/2+y,z
1/2-x,1/2-y,z
1/2-x,1/2+y,z
1/2+x,1/2-y,z
loop_
_atom_site_type_symbol
_atom_site_label
_atom_site_fract_x
_atom_site_fract_y
_atom_site_fract_z
Si Si1 0.783279 0.053717 0.006990
Si Si2 0.783430 0.693553 0.321903
Si Si3 0.705097 0.875522 0.417763
Si Si4 0.717948 0.444742 0.320629
Si Si5 0.216170 0.946263 0.638423
Si Si6 0.704168 0.627418 0.724989
O O1 0.748281 0.058232 0.072639
O O2 0.000000 0.053400 0.998693
O O3 0.716500 0.000000 0.989734
O O4 0.712299 0.099800 0.972639
O O5 0.750000 0.750000 0.324005
O O6 0.714531 0.666117 0.377618
O O7 0.714365 0.669603 0.264081
O O8 0.000000 0.684732 0.321412
O O9 0.500000 0.860051 0.431397
O O10 0.706093 0.920641 0.375830
O O11 0.500000 0.439271 0.320386
O O12 0.763502 0.500000 0.317519
O O13 0.797605 0.416115 0.269069
O O14 0.287983 0.899714 0.671787
O O15 0.000000 0.946676 0.647792
O O16 0.283880 0.000000 0.655575
O O17 0.500000 0.642843 0.709859
#
# Coordination Sequence:
#
# PCOD9368391 Si02
#       6
#    16  16  16  16  16  16
#     4   9  17  29  46  68  94 124 155 185 218 260
#     4   9  18  32  50  70  89 112 148 194 239 282
#     4   9  18  32  48  65  88 122 158 186 221 277
#     4  10  19  27  39  65  96 120 146 186 230 267
#     4   9  17  29  46  68  94 124 155 185 218 260
#     4   9  18  32  48  65  88 122 158 186 221 277
#
# _framework density 19.446869
#
# number of rings (size 3 to 8) (size 9 to 14) (size 15 to 20)
#    0.000    2.833    0.000    2.500    0.000    6.667 
#    0.000    3.333    0.000    1.000    0.000    7.000 
#    0.000    0.000    0.000    0.000    0.000    0.000 
#
# Total GULP energy -133618.600040 kJ/mol
# GULP energy per Si atom -5567.441668 kJ/mol
# Density = 1.940261 g / cm^3
# Si number density = 19.446869 Si / 1000 Ang^3
#
#
#
# Elastic Constant Matrix: (Units=GPa)
#
#
# Indices 1 2 3 4 5 6 
#
# 1 71.3614 7.2530 -4.0025 0.0000 0.0000 0.0000
# 2 7.2530 99.5836 47.7190 0.0000 0.0000 0.0000
# 3 -4.0025 47.7190 89.8232 0.0000 0.0000 0.0000
# 4 0.0000 0.0000 0.0000 19.1024 0.0000 0.0000
# 5 0.0000 0.0000 0.0000 0.0000 -2.9650 0.0000
# 6 0.0000 0.0000 0.0000 0.0000 0.0000 16.8077
#
#
#
# Elastic Compliance Matrix: (Units=1/GPa)
#
#
# Indices 1 2 3 4 5 6 
#
# 1 0.014286 -0.001805 0.001596 0.000000 0.000000 0.000000
# 2 -0.001805 0.013699 -0.007358 0.000000 0.000000 0.000000
# 3 0.001596 -0.007358 0.015113 0.000000 0.000000 0.000000
# 4 0.000000 0.000000 0.000000 0.052350 0.000000 0.000000
# 5 0.000000 0.000000 0.000000 0.000000 -0.337266 0.000000
# 6 0.000000 0.000000 0.000000 0.000000 0.000000 0.059497
#
#
# Mechanical properties :
#
#
# Convention : Reuss Voigt Hill
#
# Bulk Modulus (GPa) = 35.76149 40.30079 38.03114
# Shear Modulus (GPa) = -31.67261 20.57558 -5.54852
#
# Velocity S-wave (km/s) = -4.04006 3.25628 -1.69096
# Velocity P-wave (km/s) = 1.82580 5.90816 3.97321
#
# Compressibility (1/GPa) = 0.02796304
#
# Stress axis : x y z
#
# Youngs Moduli (GPa) = 69.99799 72.99680 66.16747
#
# Poissons Ratio (x) = 0.13176 -0.10557
# Poissons Ratio (y) = 0.12635 0.48687
# Poissons Ratio (z) = -0.11168 0.53713
#
# Static dielectric constant tensor:
#      x y z
#    x 1.752170 0.000000 0.000000 
#    y 0.000000 1.674420 0.000000 
#    z 0.000000 0.000000 1.868950 
# 
# From -- ./inp_files/27035.got.cif
#   From: 2010.05.17/outbox.cif.g08.bks.cpg/sg42_14_cif.got.tgz:27035.got - 2010.06.03 19:03:34.
