data_PCOD9368771
_publ_section_title
;
Structure prediction by ZEFSAII (Michael W. Deem and Ramdas Pophale) SiO2 
 PCOD9368771
Probable space group: F M M 2
;
_chemical_formula_sum "Si O2"
_cell_formula_units_Z 120
_cell_length_a 16.257167
_cell_length_b 27.453606
_cell_length_c 15.282481
_cell_angle_alpha 90.000000
_cell_angle_beta 90.000000
_cell_angle_gamma 90.000000
_cell_volume 6820.844177
_symmetry_space_group_name_H-M "F M M 2"
_symmetry_group_IT_number 42
_symmetry_cell_setting 'orthorhombic'
loop_
_space_group_symop_operation_xyz
x,y,z
-x,-y,z
-x,y,z
x,-y,z
x,1/2+y,1/2+z
-x,1/2-y,1/2+z
-x,1/2+y,1/2+z
x,1/2-y,1/2+z
1/2+x,y,1/2+z
1/2-x,-y,1/2+z
1/2-x,y,1/2+z
1/2+x,-y,1/2+z
1/2+x,1/2+y,z
1/2-x,1/2-y,z
1/2-x,1/2+y,z
1/2+x,1/2-y,z
loop_
_atom_site_type_symbol
_atom_site_label
_atom_site_fract_x
_atom_site_fract_y
_atom_site_fract_z
Si Si1 0.861003 0.129110 0.361780
Si Si2 0.900981 0.866861 0.073409
Si Si3 0.900156 0.291715 0.717435
Si Si4 0.750000 0.750000 0.464871
Si Si5 0.597001 0.320594 0.722859
Si Si6 0.597533 0.945341 0.714365
Si Si7 0.316062 0.150020 0.391839
Si Si8 0.093977 0.187308 0.527665
O O1 0.866415 0.175274 0.295659
O O2 0.893020 0.084184 0.304952
O O3 0.767204 0.119782 0.386454
O O4 0.904259 0.148029 0.449638
O O5 0.876178 0.818092 0.126953
O O6 0.871021 0.911354 0.134871
O O7 0.000000 0.867689 0.071144
O O8 0.867882 0.866250 0.975643
O O9 0.874510 0.235931 0.723845
O O10 0.000000 0.293662 0.723188
O O11 0.710346 0.794087 0.410518
O O12 0.829231 0.775835 0.511882
O O13 0.500000 0.320140 0.742069
O O14 0.640156 0.350605 0.798497
O O15 0.607886 0.336512 0.622596
O O16 0.500000 0.948897 0.699513
O O17 0.631850 0.000000 0.716606
O O18 0.000000 0.209491 0.529704
#
# Coordination Sequence:
#
# PCOD9368771 Si02
#       8
#    16  16  16   8  16  16  16  16
#     4  10  20  32  49  73 101 129 156 198 257 302
#     4   9  18  33  52  73  97 125 160 207 255 289
#     4   9  17  30  48  68  92 127 172 218 251 268
#     4  10  22  32  48  72  96 140 186 218 248 278
#     4  10  20  31  46  68  98 143 185 208 231 275
#     4   9  18  36  62  83  92 107 147 202 256 306
#     4  11  21  31  44  69 105 139 170 201 235 285
#     4  10  20  33  47  68 101 138 176 214 248 284
#
# _framework density 17.593129999999999
#
# number of rings (size 3 to 8) (size 9 to 14) (size 15 to 20)
#    0.000    2.267    0.000    4.800    0.000    9.067 
#    0.000    0.667    0.000    0.000    0.000    0.933 
#    0.000    3.200    0.000    0.000    0.000    0.267 
#
# Total GULP energy -167195.421096 kJ/mol
# GULP energy per Si atom -5573.180703 kJ/mol
# Density = 1.755309 g / cm^3
# Si number density = 17.593130 Si / 1000 Ang^3
#
#
#
# Elastic Constant Matrix: (Units=GPa)
#
#
# Indices 1 2 3 4 5 6 
#
# 1 57.1537 10.8595 38.0798 0.0000 0.0000 0.0000
# 2 10.8595 59.9414 31.3263 0.0000 0.0000 0.0000
# 3 38.0798 31.3263 130.6860 0.0000 0.0000 0.0000
# 4 0.0000 0.0000 0.0000 4.3541 0.0000 0.0000
# 5 0.0000 0.0000 0.0000 0.0000 86.0346 0.0000
# 6 0.0000 0.0000 0.0000 0.0000 0.0000 -30.0119
#
#
#
# Elastic Compliance Matrix: (Units=1/GPa)
#
#
# Indices 1 2 3 4 5 6 
#
# 1 0.021739 -0.000718 -0.006162 0.000000 0.000000 0.000000
# 2 -0.000718 0.019096 -0.004368 0.000000 0.000000 0.000000
# 3 -0.006162 -0.004368 0.010495 0.000000 0.000000 0.000000
# 4 0.000000 0.000000 0.000000 0.229668 0.000000 0.000000
# 5 0.000000 0.000000 0.000000 0.000000 0.011623 0.000000
# 6 0.000000 0.000000 0.000000 0.000000 0.000000 -0.033320
#
#
# Mechanical properties :
#
#
# Convention : Reuss Voigt Hill
#
# Bulk Modulus (GPa) = 34.68302 45.36805 40.02554
# Shear Modulus (GPa) = 17.15807 23.24305 20.20056
#
# Velocity S-wave (km/s) = 3.12632 3.63870 3.39220
# Velocity P-wave (km/s) = 5.72613 6.59521 6.17598
#
# Compressibility (1/GPa) = 0.02883255
#
# Stress axis : x y z
#
# Youngs Moduli (GPa) = 46.00064 52.36718 95.28700
#
# Poissons Ratio (x) = 0.03759 0.58718
# Poissons Ratio (y) = 0.03302 0.41624
# Poissons Ratio (z) = 0.28347 0.22875
#
# Static dielectric constant tensor:
#      x y z
#    x 1.630990 0.000000 0.000000 
#    y 0.000000 1.591100 0.000000 
#    z 0.000000 0.000000 1.619710 
# 
# From -- ./inp_files/14547.got.cif
#   From: 2010.05.17/outbox.cif.g08.bks.cpg/sg42_8_cif.got.tgz:14547.got - 2010.06.03 19:03:34.
