data_PCOD9368513
_publ_section_title
;
Structure prediction by ZEFSAII (Michael W. Deem and Ramdas Pophale) SiO2 
 PCOD9368513
Probable space group: F M M 2
;
_chemical_formula_sum "Si O2"
_cell_formula_units_Z 80
_cell_length_a 14.784714
_cell_length_b 8.216321
_cell_length_c 29.267511
_cell_angle_alpha 90.000000
_cell_angle_beta 90.000000
_cell_angle_gamma 90.000000
_cell_volume 3555.298882
_symmetry_space_group_name_H-M "F M M 2"
_symmetry_group_IT_number 42
_symmetry_cell_setting 'orthorhombic'
loop_
_space_group_symop_operation_xyz
x,y,z
-x,-y,z
-x,y,z
x,-y,z
x,1/2+y,1/2+z
-x,1/2-y,1/2+z
-x,1/2+y,1/2+z
x,1/2-y,1/2+z
1/2+x,y,1/2+z
1/2-x,-y,1/2+z
1/2-x,y,1/2+z
1/2+x,-y,1/2+z
1/2+x,1/2+y,z
1/2-x,1/2-y,z
1/2-x,1/2+y,z
1/2+x,1/2-y,z
loop_
_atom_site_type_symbol
_atom_site_label
_atom_site_fract_x
_atom_site_fract_y
_atom_site_fract_z
Si Si1 0.111322 0.000000 0.233550
Si Si2 0.892158 0.316158 0.476694
Si Si3 0.647867 0.807826 0.875959
Si Si4 0.110750 0.820151 0.572547
Si Si5 0.396725 0.676659 0.781590
Si Si6 0.610429 0.500000 0.127571
O O1 0.144336 0.835904 0.258201
O O2 0.135754 0.000000 0.180493
O O3 0.000000 0.000000 0.237146
O O4 0.854117 0.500000 0.477136
O O5 0.877365 0.236850 0.427580
O O6 0.860527 0.213428 0.520188
O O7 0.000000 0.329456 0.482571
O O8 0.750000 0.750000 0.870237
O O9 0.598747 0.711799 0.835660
O O10 0.635926 0.000000 0.868998
O O11 0.140210 0.665068 0.602192
O O12 0.000000 0.821404 0.573858
O O13 0.140720 0.000000 0.587576
O O14 0.500000 0.667562 0.764449
O O15 0.353833 0.500000 0.773404
O O16 0.500000 0.500000 0.125434
#
# Coordination Sequence:
#
# PCOD9368513 Si02
#       6
#     8  16  16  16  16   8
#     4   9  18  32  52  77 106 142 179 218 274 320
#     4  10  19  33  53  78 110 146 181 218 263 319
#     4  12  24  37  53  77 110 141 185 225 268 321
#     4   9  16  27  45  72 107 143 177 213 261 316
#     4  10  20  36  56  79 110 144 180 222 267 322
#     4   9  16  28  46  73 108 138 170 222 270 312
#
# _framework density 22.501624
#
# number of rings (size 3 to 8) (size 9 to 14) (size 15 to 20)
#    0.000    2.000    2.000    3.000    0.000    4.400 
#    0.000    4.000    0.000    0.000    0.000    1.400 
#    0.000    0.000    0.000    0.000    0.000    0.000 
#
# Total GULP energy -111745.326787 kJ/mol
# GULP energy per Si atom -5587.266339 kJ/mol
# Density = 2.245041 g / cm^3
# Si number density = 22.501624 Si / 1000 Ang^3
#
#
#
# Elastic Constant Matrix: (Units=GPa)
#
#
# Indices 1 2 3 4 5 6 
#
# 1 38.2392 11.8956 -2.5296 0.0000 0.0000 0.0000
# 2 11.8956 246.7664 90.7817 0.0000 0.0000 0.0000
# 3 -2.5296 90.7817 136.5187 0.0000 0.0000 0.0000
# 4 0.0000 0.0000 0.0000 26.4043 0.0000 0.0000
# 5 0.0000 0.0000 0.0000 0.0000 -42.8132 0.0000
# 6 0.0000 0.0000 0.0000 0.0000 0.0000 11.7332
#
#
#
# Elastic Compliance Matrix: (Units=1/GPa)
#
#
# Indices 1 2 3 4 5 6 
#
# 1 0.026879 -0.001958 0.001800 0.000000 0.000000 0.000000
# 2 -0.001958 0.005507 -0.003699 0.000000 0.000000 0.000000
# 3 0.001800 -0.003699 0.009818 0.000000 0.000000 0.000000
# 4 0.000000 0.000000 0.000000 0.037873 0.000000 0.000000
# 5 0.000000 0.000000 0.000000 0.000000 -0.023357 0.000000
# 6 0.000000 0.000000 0.000000 0.000000 0.000000 0.085229
#
#
# Mechanical properties :
#
#
# Convention : Reuss Voigt Hill
#
# Bulk Modulus (GPa) = 28.99258 69.09108 49.04183
# Shear Modulus (GPa) = 31.02531 20.48997 25.75764
#
# Velocity S-wave (km/s) = 3.71725 3.02089 3.38701
# Velocity P-wave (km/s) = 5.59791 6.55281 6.09409
#
# Compressibility (1/GPa) = 0.03449158
#
# Stress axis : x y z
#
# Youngs Moduli (GPa) = 37.20334 181.57178 101.85530
#
# Poissons Ratio (x) = 0.35551 -0.18334
# Poissons Ratio (y) = 0.07284 0.37672
# Poissons Ratio (z) = -0.06697 0.67156
#
# Static dielectric constant tensor:
#      x y z
#    x 1.843840 0.000000 0.000000 
#    y 0.000000 1.827770 0.000000 
#    z 0.000000 0.000000 1.799150 
# 
# From -- ./inp_files/31279.got.cif
#   From: 2010.05.17/outbox.cif.g08.bks.cpg/sg42_16_cif.got.tgz:31279.got - 2010.06.03 19:03:34.
