data_PCOD9368825
_publ_section_title
;
Structure prediction by ZEFSAII (Michael W. Deem and Ramdas Pophale) SiO2 
 PCOD9368825
Probable space group: F M M 2
;
_chemical_formula_sum "Si O2"
_cell_formula_units_Z 104
_cell_length_a 13.009117
_cell_length_b 24.377839
_cell_length_c 17.003019
_cell_angle_alpha 90.000000
_cell_angle_beta 90.000000
_cell_angle_gamma 90.000000
_cell_volume 5392.238144
_symmetry_space_group_name_H-M "F M M 2"
_symmetry_group_IT_number 42
_symmetry_cell_setting 'orthorhombic'
loop_
_space_group_symop_operation_xyz
x,y,z
-x,-y,z
-x,y,z
x,-y,z
x,1/2+y,1/2+z
-x,1/2-y,1/2+z
-x,1/2+y,1/2+z
x,1/2-y,1/2+z
1/2+x,y,1/2+z
1/2-x,-y,1/2+z
1/2-x,y,1/2+z
1/2+x,-y,1/2+z
1/2+x,1/2+y,z
1/2-x,1/2-y,z
1/2-x,1/2+y,z
1/2+x,1/2-y,z
loop_
_atom_site_type_symbol
_atom_site_label
_atom_site_fract_x
_atom_site_fract_y
_atom_site_fract_z
Si Si1 0.261204 0.561382 0.260330
Si Si2 0.880719 0.061931 0.915633
Si Si3 0.815191 0.669229 0.818206
Si Si4 0.880366 0.063617 0.607395
Si Si5 0.114341 0.778599 0.744847
Si Si6 0.265236 0.355241 0.494630
Si Si7 0.250000 0.250000 0.598921
O O1 0.306186 0.500000 0.256320
O O2 0.184410 0.562623 0.335179
O O3 0.338470 0.611287 0.276836
O O4 0.193428 0.570610 0.182606
O O5 0.830952 0.106332 0.972665
O O6 0.000000 0.072683 0.899750
O O7 0.871494 0.000000 0.948359
O O8 0.881658 0.720135 0.789199
O O9 0.699337 0.684400 0.788281
O O10 0.813604 0.663649 0.911749
O O11 0.844243 0.106803 0.542538
O O12 0.000000 0.071628 0.628424
O O13 0.869540 0.000000 0.580551
O O14 0.157084 0.765977 0.657717
O O15 0.000000 0.801574 0.744813
O O16 0.232013 0.302870 0.545156
#
# Coordination Sequence:
#
# PCOD9368825 Si02
#       7
#    16  16  16  16  16  16   8
#     4   9  17  32  55  79 106 138 173 215 253 292
#     4   9  18  33  54  79 105 138 178 214 251 297
#     4   9  20  36  55  79 102 134 177 213 253 309
#     4  10  20  33  52  79 108 139 173 210 257 307
#     4  10  21  39  59  75  98 133 175 221 258 299
#     4  11  21  35  52  76 111 139 166 212 262 309
#     4  10  22  36  52  80 106 134 174 208 258 320
#
# _framework density 19.286981999999998
#
# number of rings (size 3 to 8) (size 9 to 14) (size 15 to 20)
#    0.000    2.462    0.000    3.692    0.000    8.615 
#    0.000    1.538    0.000    0.462    0.000    0.000 
#    0.000    0.000    0.000    0.000    0.000    0.000 
#
# Total GULP energy -145093.230211 kJ/mol
# GULP energy per Si atom -5580.508854 kJ/mol
# Density = 1.924308 g / cm^3
# Si number density = 19.286982 Si / 1000 Ang^3
#
#
#
# Elastic Constant Matrix: (Units=GPa)
#
#
# Indices 1 2 3 4 5 6 
#
# 1 21.8641 -6.9540 -4.6406 0.0000 0.0000 0.0000
# 2 -6.9540 104.9759 50.5322 0.0000 0.0000 0.0000
# 3 -4.6406 50.5322 97.9052 0.0000 0.0000 0.0000
# 4 0.0000 0.0000 0.0000 42.7329 0.0000 0.0000
# 5 0.0000 0.0000 0.0000 0.0000 1.6222 0.0000
# 6 0.0000 0.0000 0.0000 0.0000 0.0000 5.9573
#
#
#
# Elastic Compliance Matrix: (Units=1/GPa)
#
#
# Indices 1 2 3 4 5 6 
#
# 1 0.046771 0.002703 0.000822 0.000000 0.000000 0.000000
# 2 0.002703 0.012831 -0.006495 0.000000 0.000000 0.000000
# 3 0.000822 -0.006495 0.013605 0.000000 0.000000 0.000000
# 4 0.000000 0.000000 0.000000 0.023401 0.000000 0.000000
# 5 0.000000 0.000000 0.000000 0.000000 0.616454 0.000000
# 6 0.000000 0.000000 0.000000 0.000000 0.000000 0.167861
#
#
# Mechanical properties :
#
#
# Convention : Reuss Voigt Hill
#
# Bulk Modulus (GPa) = 14.86604 33.62450 24.24527
# Shear Modulus (GPa) = 5.49882 22.44965 13.97424
#
# Velocity S-wave (km/s) = 1.69034 3.41542 2.69465
# Velocity P-wave (km/s) = 3.39620 5.74674 4.72013
#
# Compressibility (1/GPa) = 0.06726740
#
# Stress axis : x y z
#
# Youngs Moduli (GPa) = 21.38074 77.93433 73.50238
#
# Poissons Ratio (x) = -0.21062 -0.06042
# Poissons Ratio (y) = -0.05778 0.47737
# Poissons Ratio (z) = -0.01758 0.50615
#
# Static dielectric constant tensor:
#      x y z
#    x 1.640880 0.000000 0.000000 
#    y 0.000000 1.724830 0.000000 
#    z 0.000000 0.000000 1.652990 
# 
# From -- ./inp_files/19275.got.cif
#   From: 2010.05.17/outbox.cif.g08.bks.cpg/sg42_10_cif.got.tgz:19275.got - 2010.06.03 19:03:34.
