data_PCOD9368571
_publ_section_title
;
Structure prediction by ZEFSAII (Michael W. Deem and Ramdas Pophale) SiO2 
 PCOD9368571
Probable space group: F M M 2
;
_chemical_formula_sum "Si O2"
_cell_formula_units_Z 104
_cell_length_a 32.729756
_cell_length_b 9.903522
_cell_length_c 19.200804
_cell_angle_alpha 90.000000
_cell_angle_beta 90.000000
_cell_angle_gamma 90.000000
_cell_volume 6223.745894
_symmetry_space_group_name_H-M "F M M 2"
_symmetry_group_IT_number 42
_symmetry_cell_setting 'orthorhombic'
loop_
_space_group_symop_operation_xyz
x,y,z
-x,-y,z
-x,y,z
x,-y,z
x,1/2+y,1/2+z
-x,1/2-y,1/2+z
-x,1/2+y,1/2+z
x,1/2-y,1/2+z
1/2+x,y,1/2+z
1/2-x,-y,1/2+z
1/2-x,y,1/2+z
1/2+x,-y,1/2+z
1/2+x,1/2+y,z
1/2-x,1/2-y,z
1/2-x,1/2+y,z
1/2+x,1/2-y,z
loop_
_atom_site_type_symbol
_atom_site_label
_atom_site_fract_x
_atom_site_fract_y
_atom_site_fract_z
Si Si1 0.122637 0.341945 0.683850
Si Si2 0.829132 0.345416 0.084597
Si Si3 0.637200 0.841905 0.845393
Si Si4 0.046732 0.839238 0.087400
Si Si5 0.750000 0.750000 0.505121
Si Si6 0.284987 0.346184 0.867524
Si Si7 0.406970 0.155580 0.984000
O O1 0.130567 0.500000 0.669497
O O2 0.157066 0.253256 0.646177
O O3 0.122495 0.324140 0.766529
O O4 0.079202 0.307222 0.648392
O O5 0.830737 0.500000 0.108449
O O6 0.785191 0.314408 0.051878
O O7 0.863452 0.329342 0.024095
O O8 0.673416 0.736875 0.859644
O O9 0.602385 0.820276 0.903125
O O10 0.650994 0.000000 0.854035
O O11 0.000000 0.806333 0.105236
O O12 0.049196 0.000000 0.074498
O O13 0.061911 0.756688 0.020431
O O14 0.727817 0.848163 0.449341
O O15 0.286474 0.500000 0.841677
O O16 0.250000 0.250000 0.834143
O O17 0.420032 0.000000 0.993541
#
# Coordination Sequence:
#
# PCOD9368571 Si02
#       7
#    16  16  16  16   8  16  16
#     4   9  20  36  54  77 106 142 175 209 261 320
#     4  10  19  34  53  74 102 136 176 221 260 304
#     4  10  19  35  54  75 107 140 174 218 265 315
#     4   9  18  34  55  80 108 136 171 215 261 314
#     4  10  20  32  52  74 102 138 180 222 266 304
#     4  10  20  32  51  75 101 134 176 222 268 312
#     4   9  17  32  54  78 103 133 171 215 263 310
#
# _framework density 16.710193
#
# number of rings (size 3 to 8) (size 9 to 14) (size 15 to 20)
#    0.462    2.000    1.538    0.923    0.000    2.769 
#    1.385    0.769    0.000    2.769    0.000    0.000 
#    0.000    0.000    0.000    0.000    0.000    0.000 
#
# Total GULP energy -144796.273314 kJ/mol
# GULP energy per Si atom -5569.087435 kJ/mol
# Density = 1.667216 g / cm^3
# Si number density = 16.710193 Si / 1000 Ang^3
#
#
#
# Elastic Constant Matrix: (Units=GPa)
#
#
# Indices 1 2 3 4 5 6 
#
# 1 87.1489 48.7617 31.6441 0.0000 0.0000 0.0000
# 2 48.7617 82.7199 45.4317 0.0000 0.0000 0.0000
# 3 31.6441 45.4317 88.5908 0.0000 0.0000 0.0000
# 4 0.0000 0.0000 0.0000 14.6616 0.0000 0.0000
# 5 0.0000 0.0000 0.0000 0.0000 12.5319 0.0000
# 6 0.0000 0.0000 0.0000 0.0000 0.0000 15.1897
#
#
#
# Elastic Compliance Matrix: (Units=1/GPa)
#
#
# Indices 1 2 3 4 5 6 
#
# 1 0.017231 -0.009434 -0.001317 0.000000 0.000000 0.000000
# 2 -0.009434 0.021994 -0.007909 0.000000 0.000000 0.000000
# 3 -0.001317 -0.007909 0.015814 0.000000 0.000000 0.000000
# 4 0.000000 0.000000 0.000000 0.068205 0.000000 0.000000
# 5 0.000000 0.000000 0.000000 0.000000 0.079796 0.000000
# 6 0.000000 0.000000 0.000000 0.000000 0.000000 0.065834
#
#
# Mechanical properties :
#
#
# Convention : Reuss Voigt Hill
#
# Bulk Modulus (GPa) = 56.43632 56.68162 56.55897
# Shear Modulus (GPa) = 16.02032 17.31811 16.66922
#
# Velocity S-wave (km/s) = 3.09967 3.22278 3.16182
# Velocity P-wave (km/s) = 6.83063 6.91682 6.87386
#
# Compressibility (1/GPa) = 0.01771908
#
# Stress axis : x y z
#
# Youngs Moduli (GPa) = 58.03325 45.46609 63.23373
#
# Poissons Ratio (x) = 0.42895 0.08326
# Poissons Ratio (y) = 0.54751 0.50014
# Poissons Ratio (z) = 0.07642 0.35961
#
# Static dielectric constant tensor:
#      x y z
#    x 1.551300 0.000000 0.000000 
#    y 0.000000 1.570910 0.000000 
#    z 0.000000 0.000000 1.555440 
# 
# From -- ./inp_files/27351.got.cif
#   From: 2010.05.17/outbox.cif.g08.bks.cpg/sg42_14_cif.got.tgz:27351.got - 2010.06.03 19:03:34.
