data_PCOD9368297
_publ_section_title
;
Structure prediction by ZEFSAII (Michael W. Deem and Ramdas Pophale) SiO2 
 PCOD9368297
Probable space group: F M M 2
;
_chemical_formula_sum "Si O2"
_cell_formula_units_Z 80
_cell_length_a 7.685572
_cell_length_b 18.623892
_cell_length_c 30.470116
_cell_angle_alpha 90.000000
_cell_angle_beta 90.000000
_cell_angle_gamma 90.000000
_cell_volume 4361.348064
_symmetry_space_group_name_H-M "F M M 2"
_symmetry_group_IT_number 42
_symmetry_cell_setting 'orthorhombic'
loop_
_space_group_symop_operation_xyz
x,y,z
-x,-y,z
-x,y,z
x,-y,z
x,1/2+y,1/2+z
-x,1/2-y,1/2+z
-x,1/2+y,1/2+z
x,1/2-y,1/2+z
1/2+x,y,1/2+z
1/2-x,-y,1/2+z
1/2-x,y,1/2+z
1/2+x,-y,1/2+z
1/2+x,1/2+y,z
1/2-x,1/2-y,z
1/2-x,1/2+y,z
1/2+x,1/2-y,z
loop_
_atom_site_type_symbol
_atom_site_label
_atom_site_fract_x
_atom_site_fract_y
_atom_site_fract_z
Si Si1 0.287654 0.917528 0.212900
Si Si2 0.200131 0.912284 0.616003
Si Si3 0.500000 0.912680 0.550665
Si Si4 0.000000 0.913510 0.948819
Si Si5 0.198246 0.334475 0.896589
Si Si6 0.791777 0.333550 0.298740
O O1 0.500000 0.917036 0.212629
O O2 0.237876 0.889336 0.164661
O O3 0.229293 0.874652 0.255531
O O4 0.231409 0.000000 0.216617
O O5 0.330306 0.889215 0.577898
O O6 0.000000 0.890065 0.609011
O O7 0.200188 0.000000 0.617300
O O8 0.500000 0.891701 0.499989
O O9 0.500000 0.000000 0.551267
O O10 0.167699 0.880385 0.924851
O O11 0.000000 0.000000 0.945820
O O12 0.250000 0.250000 0.898418
O O13 0.213462 0.356470 0.845365
O O14 0.000000 0.342563 0.911338
O O15 0.750000 0.250000 0.293147
O O16 0.000000 0.342613 0.302421
#
# Coordination Sequence:
#
# PCOD9368297 Si02
#       6
#    16  16   8   8  16  16
#     4   8  15  28  49  76 105 143 183 222 273 321
#     4   8  14  28  49  73 105 143 182 221 268 334
#     4   9  18  32  52  79 110 141 177 228 288 333
#     4  11  24  40  60  93 123 145 191 256 303 337
#     4  11  21  40  64  84 112 159 203 235 289 362
#     4  10  18  32  52  79 109 148 189 227 270 336
#
# _framework density 18.342953000000001
#
# number of rings (size 3 to 8) (size 9 to 14) (size 15 to 20)
#    0.000    2.600    2.000    3.000    0.000    2.000 
#    3.600    2.000    0.000    1.200    0.000    0.000 
#    0.000    0.000    0.000    0.000    0.000    0.000 
#
# Total GULP energy -111530.799805 kJ/mol
# GULP energy per Si atom -5576.539990 kJ/mol
# Density = 1.830120 g / cm^3
# Si number density = 18.342953 Si / 1000 Ang^3
#
#
#
# Elastic Constant Matrix: (Units=GPa)
#
#
# Indices 1 2 3 4 5 6 
#
# 1 122.1173 27.4573 73.0956 0.0000 0.0000 0.0000
# 2 27.4573 34.2389 56.9609 0.0000 0.0000 0.0000
# 3 73.0956 56.9609 190.0033 0.0000 0.0000 0.0000
# 4 0.0000 0.0000 0.0000 0.1774 0.0000 0.0000
# 5 0.0000 0.0000 0.0000 0.0000 11.2225 0.0000
# 6 0.0000 0.0000 0.0000 0.0000 0.0000 19.9865
#
#
#
# Elastic Compliance Matrix: (Units=1/GPa)
#
#
# Indices 1 2 3 4 5 6 
#
# 1 0.010845 -0.003503 -0.003122 0.000000 0.000000 0.000000
# 2 -0.003503 0.059398 -0.016459 0.000000 0.000000 0.000000
# 3 -0.003122 -0.016459 0.011398 0.000000 0.000000 0.000000
# 4 0.000000 0.000000 0.000000 5.635676 0.000000 0.000000
# 5 0.000000 0.000000 0.000000 0.000000 0.089107 0.000000
# 6 0.000000 0.000000 0.000000 0.000000 0.000000 0.050034
#
#
# Mechanical properties :
#
#
# Convention : Reuss Voigt Hill
#
# Bulk Modulus (GPa) = 28.19079 73.48747 50.83913
# Shear Modulus (GPa) = 0.84539 18.86698 9.85619
#
# Velocity S-wave (km/s) = 0.67962 3.21061 2.32055
# Velocity P-wave (km/s) = 4.00224 7.34126 5.91236
#
# Compressibility (1/GPa) = 0.03547258
#
# Stress axis : x y z
#
# Youngs Moduli (GPa) = 92.20600 16.83570 87.73205
#
# Poissons Ratio (x) = 0.05898 0.27390
# Poissons Ratio (y) = 0.32303 1.44398
# Poissons Ratio (z) = 0.28787 0.27710
#
# Static dielectric constant tensor:
#      x y z
#    x 1.659680 0.000000 0.000000 
#    y 0.000000 1.603840 0.000000 
#    z 0.000000 0.000000 1.632560 
# 
# From -- ./inp_files/31296.got.cif
#   From: 2010.05.17/outbox.cif.g08.bks.cpg/sg42_16_cif.got.tgz:31296.got - 2010.06.03 19:03:34.
