data_PCOD9368075
_publ_section_title
;
Structure prediction by ZEFSAII (Michael W. Deem and Ramdas Pophale) SiO2 
 PCOD9368075
Probable space group: A B A 2
;
_chemical_formula_sum "Si O2"
_cell_formula_units_Z 28
_cell_length_a 15.000000
_cell_length_b 21.000000
_cell_length_c 9.000000
_cell_angle_alpha 90.000000
_cell_angle_beta 90.000000
_cell_angle_gamma 90.000000
_cell_volume 2835.000000
_symmetry_space_group_name_H-M "A B A 2"
_symmetry_group_IT_number 41
_symmetry_cell_setting 'orthorhombic'
loop_
_space_group_symop_operation_xyz
x,y,z
-x,-y,z
1/2-x,y,1/2+z
1/2+x,-y,1/2+z
x,1/2+y,1/2+z
-x,1/2-y,1/2+z
1/2-x,1/2+y,z
1/2+x,1/2-y,z
loop_
_atom_site_type_symbol
_atom_site_label
_atom_site_fract_x
_atom_site_fract_y
_atom_site_fract_z
Si Si1 0.319390 0.801551 0.549630
Si Si2 0.926333 0.595219 0.744766
Si Si3 0.472559 0.285624 0.802903
Si Si4 0.122262 0.551919 0.700767
Si Si5 0.242619 0.102470 0.467907
Si Si6 0.151472 0.172050 0.732817
Si Si7 0.606606 0.191437 0.979623
O O1 0.360267 0.861021 0.643969
O O2 0.390461 0.793642 0.415222
O O3 0.329344 0.740352 0.657388
O O4 0.215822 0.805328 0.494177
O O5 0.901167 0.521967 0.718987
O O6 0.032409 0.595475 0.704998
O O7 0.912471 0.620809 0.913594
O O8 0.549298 0.338947 0.781018
O O9 0.429310 0.283417 0.638873
O O10 0.539479 0.230880 0.867406
O O11 0.184525 0.568768 0.841665
O O12 0.178067 0.564618 0.550223
O O13 0.179872 0.124667 0.601897
O O14 0.288121 0.160766 0.377812
#
# Coordination Sequence:
#
# PCOD9368075 Si02
#       7
#     8   8   8   8   8   8   8
#     4  12  26  42  67 105 138 181 222 290 359 422
#     4  11  24  46  66  97 141 178 233 287 362 414
#     4  12  24  41  63  98 143 172 223 275 351 425
#     4  10  24  45  70  95 132 186 232 295 345 419
#     4  10  23  42  70  96 130 175 240 277 347 418
#     4  11  22  40  65  98 132 171 217 284 342 415
#     4  12  25  42  67  99 140 186 224 283 354 426
#
# _framework density 9.8765429999999999
#
# number of rings (size 3 to 8) (size 9 to 14) (size 15 to 20)
#    0.000    0.857    2.857    3.429    4.000    2.286 
#    0.000    0.000    0.000    6.857    0.000    0.000 
#    0.000    0.000    0.000    0.000    0.000    0.000 
#
# Total GULP energy -156062.419521 kJ/mol
# GULP energy per Si atom -5573.657840 kJ/mol
# Density = 0.985406 g / cm^3
# Si number density = 9.876543 Si / 1000 Ang^3
#
#
#
# Elastic Constant Matrix: (Units=GPa)
#
#
# Indices 1 2 3 4 5 6 
#
# 1 176.8724 42.8593 50.5902 0.0000 0.0000 0.0000
# 2 42.8593 73.1263 46.5394 0.0000 0.0000 0.0000
# 3 50.5902 46.5394 108.4342 0.0000 0.0000 0.0000
# 4 0.0000 0.0000 0.0000 20.9694 0.0000 0.0000
# 5 0.0000 0.0000 0.0000 0.0000 43.0994 0.0000
# 6 0.0000 0.0000 0.0000 0.0000 0.0000 27.3725
#
#
#
# Elastic Compliance Matrix: (Units=1/GPa)
#
#
# Indices 1 2 3 4 5 6 
#
# 1 0.006903 -0.002746 -0.002042 0.000000 0.000000 0.000000
# 2 -0.002746 0.019907 -0.007262 0.000000 0.000000 0.000000
# 3 -0.002042 -0.007262 0.013292 0.000000 0.000000 0.000000
# 4 0.000000 0.000000 0.000000 0.047689 0.000000 0.000000
# 5 0.000000 0.000000 0.000000 0.000000 0.023202 0.000000
# 6 0.000000 0.000000 0.000000 0.000000 0.000000 0.036533
#
#
# Mechanical properties :
#
#
# Convention : Reuss Voigt Hill
#
# Bulk Modulus (GPa) = 62.49980 70.93453 66.71716
# Shear Modulus (GPa) = 28.25479 32.85118 30.55299
#
# Velocity S-wave (km/s) = 3.78616 4.08253 3.93713
# Velocity P-wave (km/s) = 7.12900 7.62963 7.38356
#
# Compressibility (1/GPa) = 0.01600005
#
# Stress axis : x y z
#
# Youngs Moduli (GPa) = 144.85646 50.23429 75.23372
#
# Poissons Ratio (x) = 0.13797 0.15363
# Poissons Ratio (y) = 0.39785 0.54638
# Poissons Ratio (z) = 0.29580 0.36483
#
# Static dielectric constant tensor:
#      x y z
#    x 1.721800 0.000000 0.000000 
#    y 0.000000 1.737180 0.000000 
#    z 0.000000 0.000000 1.712530 
# 
# From -- ./inp_files/2696.got.cif
#   From: 2010.05.17/outbox.ucp.g08.bks.cvg/sg41_2_cif.got.tgz:2696.got - 2010.06.11 16:28:22.
