data_PCOD9368111
_publ_section_title
;
Structure prediction by ZEFSAII (Michael W. Deem and Ramdas Pophale) SiO2 
 PCOD9368111
Probable space group: F M M 2
;
_chemical_formula_sum "Si O2"
_cell_formula_units_Z 112
_cell_length_a 19.213439
_cell_length_b 15.240464
_cell_length_c 20.603128
_cell_angle_alpha 90.000000
_cell_angle_beta 90.000000
_cell_angle_gamma 90.000000
_cell_volume 6033.043490
_symmetry_space_group_name_H-M "F M M 2"
_symmetry_group_IT_number 42
_symmetry_cell_setting 'orthorhombic'
loop_
_space_group_symop_operation_xyz
x,y,z
-x,-y,z
-x,y,z
x,-y,z
x,1/2+y,1/2+z
-x,1/2-y,1/2+z
-x,1/2+y,1/2+z
x,1/2-y,1/2+z
1/2+x,y,1/2+z
1/2-x,-y,1/2+z
1/2-x,y,1/2+z
1/2+x,-y,1/2+z
1/2+x,1/2+y,z
1/2-x,1/2-y,z
1/2-x,1/2+y,z
1/2+x,1/2-y,z
loop_
_atom_site_type_symbol
_atom_site_label
_atom_site_fract_x
_atom_site_fract_y
_atom_site_fract_z
Si Si1 0.192295 0.101010 0.761240
Si Si2 0.102226 0.601129 0.455780
Si Si3 0.700144 0.837077 0.863820
Si Si4 0.773521 0.897010 0.138843
Si Si5 0.420192 0.781998 0.329861
Si Si6 0.756210 0.354453 0.996060
Si Si7 0.074504 0.606506 0.604740
O O1 0.253499 0.105176 0.815605
O O2 0.226599 0.140020 0.696136
O O3 0.125681 0.155593 0.783771
O O4 0.171872 0.000000 0.752085
O O5 0.083735 0.500000 0.440348
O O6 0.080949 0.667419 0.399505
O O7 0.184995 0.608062 0.465750
O O8 0.075175 0.624280 0.527459
O O9 0.750000 0.750000 0.869341
O O10 0.626470 0.805455 0.836461
O O11 0.690640 0.870973 0.937352
O O12 0.852206 0.859914 0.132957
O O13 0.781591 0.000000 0.154558
O O14 0.737734 0.891115 0.068302
O O15 0.500000 0.768666 0.310541
O O16 0.750000 0.250000 0.005621
O O17 0.076337 0.500000 0.609914
O O18 0.000000 0.636916 0.632055
#
# Coordination Sequence:
#
# PCOD9368111 Si02
#       7
#    16  16  16  16  16  16  16
#     4  10  20  35  54  78 106 139 181 228 271 317
#     4  10  17  27  46  78 108 130 163 211 269 325
#     4   9  18  34  51  73 104 139 179 215 258 321
#     4   9  19  31  48  76 105 136 180 225 269 316
#     4  11  21  33  52  77 109 140 170 220 279 328
#     4  10  16  29  50  74 101 138 178 214 256 314
#     4   8  14  25  42  67 102 133 157 197 255 314
#
# _framework density 18.564427999999999
#
# number of rings (size 3 to 8) (size 9 to 14) (size 15 to 20)
#    0.000    2.429    4.286    2.143    0.000    4.000 
#    0.000    0.714    0.000    2.143    0.000    0.000 
#    0.000    0.000    0.000    0.000    0.000    0.000 
#
# Total GULP energy -155938.364488 kJ/mol
# GULP energy per Si atom -5569.227303 kJ/mol
# Density = 1.852217 g / cm^3
# Si number density = 18.564428 Si / 1000 Ang^3
#
#
#
# Elastic Constant Matrix: (Units=GPa)
#
#
# Indices 1 2 3 4 5 6 
#
# 1 138.0814 19.3726 48.3291 0.0000 0.0000 0.0000
# 2 19.3726 16.9540 -6.4681 0.0000 0.0000 0.0000
# 3 48.3291 -6.4681 77.2306 0.0000 0.0000 0.0000
# 4 0.0000 0.0000 0.0000 19.3558 0.0000 0.0000
# 5 0.0000 0.0000 0.0000 0.0000 5.5945 0.0000
# 6 0.0000 0.0000 0.0000 0.0000 0.0000 9.9418
#
#
#
# Elastic Compliance Matrix: (Units=1/GPa)
#
#
# Indices 1 2 3 4 5 6 
#
# 1 0.013438 -0.019175 -0.010015 0.000000 0.000000 0.000000
# 2 -0.019175 0.088292 0.019394 0.000000 0.000000 0.000000
# 3 -0.010015 0.019394 0.020840 0.000000 0.000000 0.000000
# 4 0.000000 0.000000 0.000000 0.051664 0.000000 0.000000
# 5 0.000000 0.000000 0.000000 0.000000 0.178745 0.000000
# 6 0.000000 0.000000 0.000000 0.000000 0.000000 0.100585
#
#
# Mechanical properties :
#
#
# Convention : Reuss Voigt Hill
#
# Bulk Modulus (GPa) = 9.71088 39.41481 24.56284
# Shear Modulus (GPa) = 9.85256 18.38060 14.11658
#
# Velocity S-wave (km/s) = 2.30624 3.15000 2.76055
# Velocity P-wave (km/s) = 3.51197 5.87430 4.83949
#
# Compressibility (1/GPa) = 0.10297726
#
# Stress axis : x y z
#
# Youngs Moduli (GPa) = 74.41807 11.32599 47.98570
#
# Poissons Ratio (x) = 0.21718 0.48057
# Poissons Ratio (y) = 1.42698 -0.93063
# Poissons Ratio (z) = 0.74529 -0.21966
#
# Static dielectric constant tensor:
#      x y z
#    x 1.689420 0.000000 0.000000 
#    y 0.000000 1.645460 0.000000 
#    z 0.000000 0.000000 1.686070 
# 
# From -- ./inp_files/26072.got.cif
#   From: 2010.05.17/outbox.cif.g08.bks.cpg/sg42_14_cif.got.tgz:26072.got - 2010.06.03 19:03:34.
