data_PCOD9368159
_publ_section_title
;
Structure prediction by ZEFSAII (Michael W. Deem and Ramdas Pophale) SiO2 
 PCOD9368159
Probable space group: F M M 2
;
_chemical_formula_sum "Si O2"
_cell_formula_units_Z 48
_cell_length_a 17.884316
_cell_length_b 5.613783
_cell_length_c 20.714729
_cell_angle_alpha 90.000000
_cell_angle_beta 90.000000
_cell_angle_gamma 90.000000
_cell_volume 2079.731223
_symmetry_space_group_name_H-M "F M M 2"
_symmetry_group_IT_number 42
_symmetry_cell_setting 'orthorhombic'
loop_
_space_group_symop_operation_xyz
x,y,z
-x,-y,z
-x,y,z
x,-y,z
x,1/2+y,1/2+z
-x,1/2-y,1/2+z
-x,1/2+y,1/2+z
x,1/2-y,1/2+z
1/2+x,y,1/2+z
1/2-x,-y,1/2+z
1/2-x,y,1/2+z
1/2+x,-y,1/2+z
1/2+x,1/2+y,z
1/2-x,1/2-y,z
1/2-x,1/2+y,z
1/2+x,1/2-y,z
loop_
_atom_site_type_symbol
_atom_site_label
_atom_site_fract_x
_atom_site_fract_y
_atom_site_fract_z
Si Si1 0.500000 0.500000 0.293290
Si Si2 0.189502 0.500000 0.002284
Si Si3 0.125797 0.000000 0.185508
Si Si4 0.000000 0.000000 0.870737
Si Si5 0.661805 0.000000 0.143640
Si Si6 0.000000 0.500000 0.074905
Si Si7 0.500000 0.000000 0.575833
Si Si8 0.148432 0.500000 0.458126
O O1 0.572489 0.500000 0.247269
O O2 0.500000 0.748910 0.331995
O O3 0.211038 0.500000 0.078069
O O4 0.144632 0.257210 0.992437
O O5 0.259540 0.500000 0.952664
O O6 0.168776 0.748984 0.181288
O O7 0.071628 0.000000 0.122669
O O8 0.919760 0.000000 0.908065
O O9 0.574336 0.000000 0.119427
O O10 0.000000 0.248360 0.039054
#
# Coordination Sequence:
#
# PCOD9368159 Si02
#       8
#     4   8   8   4   8   4   4   8
#     4  11  22  38  60  90 133 174 215 278 338 373
#     4  10  21  40  63  91 128 172 212 261 335 401
#     4   9  17  30  49  84 123 158 201 243 301 386
#     4  12  24  41  64  92 127 170 227 291 324 358
#     4  10  17  29  53  85 123 164 195 237 307 397
#     4   8  14  21  35  66 105 140 176 211 258 332
#     4   7  12  22  35  56 101 144 172 214 260 319
#     4  10  23  41  61  92 127 167 226 279 321 387
#
# _framework density 23.079903999999999
#
# number of rings (size 3 to 8) (size 9 to 14) (size 15 to 20)
#    0.000    2.333    0.000    4.000    0.000    2.667 
#    0.000    3.333    0.000    0.000    0.000   93.333 
#    0.000    0.000    0.000    0.000    0.000    0.000 
#
# Total GULP energy -66801.519978 kJ/mol
# GULP energy per Si atom -5566.793332 kJ/mol
# Density = 2.302737 g / cm^3
# Si number density = 23.079904 Si / 1000 Ang^3
#
#
#
# Elastic Constant Matrix: (Units=GPa)
#
#
# Indices 1 2 3 4 5 6 
#
# 1 161.4380 42.4343 52.2450 0.0000 -0.0001 -0.0003
# 2 42.4343 344.0270 78.7057 0.0001 -0.0006 -0.0010
# 3 52.2450 78.7057 85.7319 0.0000 -0.0001 -0.0001
# 4 0.0000 0.0001 0.0000 43.8947 0.0001 -0.0001
# 5 -0.0001 -0.0006 -0.0001 0.0001 4.9583 0.0003
# 6 -0.0003 -0.0010 -0.0001 -0.0001 0.0003 -16.6421
#
#
#
# Elastic Compliance Matrix: (Units=1/GPa)
#
#
# Indices 1 2 3 4 5 6 
#
# 1 0.007723 0.000157 -0.004850 0.000000 0.000000 0.000000
# 2 0.000157 0.003683 -0.003477 0.000000 0.000000 0.000000
# 3 -0.004850 -0.003477 0.017812 0.000000 0.000000 0.000000
# 4 0.000000 0.000000 0.000000 0.022782 0.000000 0.000000
# 5 0.000000 0.000000 0.000000 0.000000 0.201683 0.000003
# 6 0.000000 0.000000 0.000000 0.000000 0.000003 -0.060089
#
#
# Mechanical properties :
#
#
# Convention : Reuss Voigt Hill
#
# Bulk Modulus (GPa) = 77.65597 104.21855 90.93726
# Shear Modulus (GPa) = 23.33987 34.29631 28.81809
#
# Velocity S-wave (km/s) = 3.18349 3.85902 3.53742
# Velocity P-wave (km/s) = 6.87258 8.06906 7.49473
#
# Compressibility (1/GPa) = 0.01287731
#
# Stress axis : x y z
#
# Youngs Moduli (GPa) = 129.48743 271.53575 56.14228
#
# Poissons Ratio (x) = -0.04266 0.27232
# Poissons Ratio (y) = -0.02034 0.19519
# Poissons Ratio (z) = 0.62808 0.94404
#
# Static dielectric constant tensor:
#      x y z
#    x 1.942140 0.000000 0.000000 
#    y 0.000000 1.930620 0.000000 
#    z 0.000000 0.000000 1.811680 
# 
# From -- ./inp_files/26272.got.cif
#   From: 2010.05.17/outbox.cif.g08.bks.cpg/sg42_14_cif.got.tgz:26272.got - 2010.06.03 19:03:34.
