data_PCOD9368844
_publ_section_title
;
Structure prediction by ZEFSAII (Michael W. Deem and Ramdas Pophale) SiO2 
 PCOD9368844
Probable space group: F M M 2
;
_chemical_formula_sum "Si O2"
_cell_formula_units_Z 112
_cell_length_a 21.848757
_cell_length_b 19.582432
_cell_length_c 11.688249
_cell_angle_alpha 90.000000
_cell_angle_beta 90.000000
_cell_angle_gamma 90.000000
_cell_volume 5000.838353
_symmetry_space_group_name_H-M "F M M 2"
_symmetry_group_IT_number 42
_symmetry_cell_setting 'orthorhombic'
loop_
_space_group_symop_operation_xyz
x,y,z
-x,-y,z
-x,y,z
x,-y,z
x,1/2+y,1/2+z
-x,1/2-y,1/2+z
-x,1/2+y,1/2+z
x,1/2-y,1/2+z
1/2+x,y,1/2+z
1/2-x,-y,1/2+z
1/2-x,y,1/2+z
1/2+x,-y,1/2+z
1/2+x,1/2+y,z
1/2-x,1/2-y,z
1/2-x,1/2+y,z
1/2+x,1/2-y,z
loop_
_atom_site_type_symbol
_atom_site_label
_atom_site_fract_x
_atom_site_fract_y
_atom_site_fract_z
Si Si1 0.733974 0.578717 0.104470
Si Si2 0.569499 0.640076 0.728716
Si Si3 0.631307 0.337833 0.966418
Si Si4 0.566429 0.795996 0.668953
Si Si5 0.930995 0.420735 0.989570
Si Si6 0.170311 0.863806 0.315066
Si Si7 0.298548 0.799029 0.019334
O O1 0.748371 0.500000 0.077213
O O2 0.704416 0.584783 0.230800
O O3 0.681753 0.610951 0.020327
O O4 0.790897 0.631450 0.092118
O O5 0.500000 0.628199 0.770645
O O6 0.613788 0.643951 0.837467
O O7 0.569776 0.714159 0.666974
O O8 0.581002 0.588839 0.624516
O O9 0.651078 0.258069 0.986136
O O10 0.572591 0.336399 0.050007
O O11 0.500000 0.812677 0.721394
O O12 0.626335 0.818031 0.737824
O O13 0.932991 0.500000 0.961482
O O14 0.000000 0.391899 0.969372
O O15 0.877491 0.390180 0.911288
O O16 0.219414 0.823957 0.391533
O O17 0.250000 0.750000 0.080068
#
# Coordination Sequence:
#
# PCOD9368844 Si02
#       7
#    16  16  16  16  16  16  16
#     4  10  24  42  62  90 122 162 216 273 321 372
#     4  10  20  34  59  94 132 165 203 253 309 378
#     4  10  20  39  62  92 125 170 209 257 319 377
#     4  10  20  33  59  95 128 156 200 255 309 375
#     4  10  22  39  60  92 132 172 210 249 308 386
#     4  11  21  40  67  89 124 162 209 261 320 376
#     4  10  22  41  63  89 117 160 208 265 320 373
#
# _framework density 22.396245
#
# number of rings (size 3 to 8) (size 9 to 14) (size 15 to 20)
#    0.000    1.857    1.429    2.143    0.000    4.571 
#    5.143    0.000    0.000    8.143    0.000    0.000 
#    0.000    0.000    0.000    0.000    0.000    0.000 
#
# Total GULP energy -155897.217784 kJ/mol
# GULP energy per Si atom -5567.757778 kJ/mol
# Density = 2.234527 g / cm^3
# Si number density = 22.396245 Si / 1000 Ang^3
#
#
#
# Elastic Constant Matrix: (Units=GPa)
#
#
# Indices 1 2 3 4 5 6 
#
# 1 55.1251 17.4944 10.3776 0.0000 0.0000 0.0000
# 2 17.4944 107.6976 17.8285 0.0000 0.0000 0.0000
# 3 10.3776 17.8285 95.5245 0.0000 0.0000 0.0000
# 4 0.0000 0.0000 0.0000 22.5392 0.0000 0.0000
# 5 0.0000 0.0000 0.0000 0.0000 36.5981 0.0000
# 6 0.0000 0.0000 0.0000 0.0000 0.0000 13.9087
#
#
#
# Elastic Compliance Matrix: (Units=1/GPa)
#
#
# Indices 1 2 3 4 5 6 
#
# 1 0.019350 -0.002884 -0.001564 0.000000 0.000000 0.000000
# 2 -0.002884 0.010011 -0.001555 0.000000 0.000000 0.000000
# 3 -0.001564 -0.001555 0.010929 0.000000 0.000000 0.000000
# 4 0.000000 0.000000 0.000000 0.044367 0.000000 0.000000
# 5 0.000000 0.000000 0.000000 0.000000 0.027324 0.000000
# 6 0.000000 0.000000 0.000000 0.000000 0.000000 0.071898
#
#
# Mechanical properties :
#
#
# Convention : Reuss Voigt Hill
#
# Bulk Modulus (GPa) = 35.35629 38.86093 37.10861
# Shear Modulus (GPa) = 24.35302 28.78563 26.56933
#
# Velocity S-wave (km/s) = 3.30111 3.58898 3.44805
# Velocity P-wave (km/s) = 5.50915 5.87908 5.69712
#
# Compressibility (1/GPa) = 0.02828351
#
# Stress axis : x y z
#
# Youngs Moduli (GPa) = 51.67870 99.88775 91.50258
#
# Poissons Ratio (x) = 0.28811 0.14310
# Poissons Ratio (y) = 0.14906 0.14230
# Poissons Ratio (z) = 0.08082 0.15534
#
# Static dielectric constant tensor:
#      x y z
#    x 2.005440 0.000000 0.000000 
#    y 0.000000 1.846130 0.000000 
#    z 0.000000 0.000000 1.844020 
# 
# From -- ./inp_files/10239.got.cif
#   From: 2010.05.17/outbox.cif.g08.bks.cpg/sg42_6_cif.got.tgz:10239.got - 2010.06.03 19:03:34.
