data_PCOD9368178
_publ_section_title
;
Structure prediction by ZEFSAII (Michael W. Deem and Ramdas Pophale) SiO2 
 PCOD9368178
Probable space group: F M M 2
;
_chemical_formula_sum "Si O2"
_cell_formula_units_Z 116
_cell_length_a 31.278356
_cell_length_b 7.761529
_cell_length_c 25.765072
_cell_angle_alpha 90.000000
_cell_angle_beta 90.000000
_cell_angle_gamma 90.000000
_cell_volume 6254.931577
_symmetry_space_group_name_H-M "F M M 2"
_symmetry_group_IT_number 42
_symmetry_cell_setting 'orthorhombic'
loop_
_space_group_symop_operation_xyz
x,y,z
-x,-y,z
-x,y,z
x,-y,z
x,1/2+y,1/2+z
-x,1/2-y,1/2+z
-x,1/2+y,1/2+z
x,1/2-y,1/2+z
1/2+x,y,1/2+z
1/2-x,-y,1/2+z
1/2-x,y,1/2+z
1/2+x,-y,1/2+z
1/2+x,1/2+y,z
1/2-x,1/2-y,z
1/2-x,1/2+y,z
1/2+x,1/2-y,z
loop_
_atom_site_type_symbol
_atom_site_label
_atom_site_fract_x
_atom_site_fract_y
_atom_site_fract_z
Si Si1 0.155159 0.797724 0.853740
Si Si2 0.438459 0.807207 0.881153
Si Si3 0.298743 0.705379 0.250779
Si Si4 0.702021 0.293930 0.953373
Si Si5 0.701119 0.292531 0.133086
Si Si6 0.500000 0.000000 0.349352
Si Si7 0.951995 0.790536 0.001314
Si Si8 0.138104 0.289175 0.543029
O O1 0.111127 0.706367 0.866827
O O2 0.170624 0.774364 0.795245
O O3 0.190641 0.735155 0.895202
O O4 0.148313 0.000000 0.863485
O O5 0.463349 0.652914 0.853431
O O6 0.452979 0.000000 0.868383
O O7 0.445009 0.775735 0.942804
O O8 0.303246 0.500000 0.249775
O O9 0.250000 0.750000 0.264701
O O10 0.305676 0.771476 0.192017
O O11 0.699711 0.500000 0.954378
O O12 0.750000 0.250000 0.969049
O O13 0.665894 0.231854 0.993292
O O14 0.698694 0.500000 0.134106
O O15 0.750000 0.250000 0.117251
O O16 0.664905 0.231144 0.093238
O O17 0.911273 0.736145 0.035778
O O18 0.000000 0.739967 0.018548
O O19 0.951455 0.000000 0.998290
O O20 0.137927 0.500000 0.543658
#
# Coordination Sequence:
#
# PCOD9368178 Si02
#       8
#    16  16  16  16  16   4  16  16
#     4  11  21  36  53  77 111 148 187 233 283 340
#     4  12  22  35  58  84 114 152 191 234 286 342
#     4  10  20  34  52  77 105 143 193 241 285 338
#     4  10  20  31  47  69 107 145 179 219 274 343
#     4   9  18  33  53  75 104 141 186 235 282 337
#     4  12  22  40  56  82 120 152 190 240 284 338
#     4  10  17  32  53  77 108 144 184 231 284 343
#     4   9  17  31  51  74 105 143 180 226 287 342
#
# _framework density 18.545365
#
# number of rings (size 3 to 8) (size 9 to 14) (size 15 to 20)
#    0.000    1.793    3.448    1.862    0.000    2.759 
#    0.000    0.690    0.000    0.000    1.793    0.000 
#    0.000    0.000    0.000    0.000    0.000    0.276 
#
# Total GULP energy -161566.443636 kJ/mol
# GULP energy per Si atom -5571.256677 kJ/mol
# Density = 1.850316 g / cm^3
# Si number density = 18.545365 Si / 1000 Ang^3
#
#
#
# Elastic Constant Matrix: (Units=GPa)
#
#
# Indices 1 2 3 4 5 6 
#
# 1 167.6538 17.5902 65.1260 -0.0001 0.0000 0.0000
# 2 17.5902 71.6259 8.0525 -0.0003 0.0001 -0.0001
# 3 65.1260 8.0525 74.6454 0.0000 0.0000 0.0001
# 4 -0.0001 -0.0003 0.0000 38.5665 0.0003 0.0002
# 5 0.0000 0.0001 0.0000 0.0003 42.0695 -0.0001
# 6 0.0000 -0.0001 0.0001 0.0002 -0.0001 8.3365
#
#
#
# Elastic Compliance Matrix: (Units=1/GPa)
#
#
# Indices 1 2 3 4 5 6 
#
# 1 0.009153 -0.001367 -0.007838 0.000000 0.000000 0.000000
# 2 -0.001367 0.014337 -0.000354 0.000000 0.000000 0.000000
# 3 -0.007838 -0.000354 0.020273 0.000000 0.000000 0.000000
# 4 0.000000 0.000000 0.000000 0.025929 0.000000 -0.000001
# 5 0.000000 0.000000 0.000000 0.000000 0.023770 0.000000
# 6 0.000000 0.000000 0.000000 -0.000001 0.000000 0.119954
#
#
# Mechanical properties :
#
#
# Convention : Reuss Voigt Hill
#
# Bulk Modulus (GPa) = 40.57609 55.05139 47.81374
# Shear Modulus (GPa) = 20.76843 32.67160 26.72001
#
# Velocity S-wave (km/s) = 3.35008 4.20183 3.79989
# Velocity P-wave (km/s) = 6.07379 7.29998 6.71493
#
# Compressibility (1/GPa) = 0.02464506
#
# Stress axis : x y z
#
# Youngs Moduli (GPa) = 109.25591 69.75022 49.32561
#
# Poissons Ratio (x) = 0.09532 0.38662
# Poissons Ratio (y) = 0.14931 0.01748
# Poissons Ratio (z) = 0.85636 0.02471
#
# Static dielectric constant tensor:
#      x y z
#    x 1.624220 0.000000 0.000000 
#    y 0.000000 1.672250 0.000000 
#    z 0.000000 0.000000 1.637150 
# 
# From -- ./inp_files/33490.got.cif
#   From: 2010.05.17/outbox.cif.g08.bks.cpg/sg42_17_cif.got.tgz:33490.got - 2010.06.03 19:03:34.
