data_PCOD9368948
_publ_section_title
;
Structure prediction by ZEFSAII (Michael W. Deem and Ramdas Pophale) SiO2 
 PCOD9368948
Probable space group: F M M 2
;
_chemical_formula_sum "Si O2"
_cell_formula_units_Z 112
_cell_length_a 24.472131
_cell_length_b 17.134682
_cell_length_c 14.636086
_cell_angle_alpha 90.000000
_cell_angle_beta 90.000000
_cell_angle_gamma 90.000000
_cell_volume 6137.235525
_symmetry_space_group_name_H-M "F M M 2"
_symmetry_group_IT_number 42
_symmetry_cell_setting 'orthorhombic'
loop_
_space_group_symop_operation_xyz
x,y,z
-x,-y,z
-x,y,z
x,-y,z
x,1/2+y,1/2+z
-x,1/2-y,1/2+z
-x,1/2+y,1/2+z
x,1/2-y,1/2+z
1/2+x,y,1/2+z
1/2-x,-y,1/2+z
1/2-x,y,1/2+z
1/2+x,-y,1/2+z
1/2+x,1/2+y,z
1/2-x,1/2-y,z
1/2-x,1/2+y,z
1/2+x,1/2-y,z
loop_
_atom_site_type_symbol
_atom_site_label
_atom_site_fract_x
_atom_site_fract_y
_atom_site_fract_z
Si Si1 0.625415 0.729999 0.375000
Si Si2 0.304236 0.090938 0.800804
Si Si3 0.435653 0.667889 0.752608
Si Si4 0.938919 0.000000 0.776348
Si Si5 0.281622 0.168670 0.429213
Si Si6 0.371458 0.654234 0.567197
Si Si7 0.562561 0.500000 0.555047
Si Si8 0.248762 0.906897 0.103345
O O1 0.648803 0.652862 0.325851
O O2 0.573022 0.762615 0.323606
O O3 0.668789 0.801070 0.368179
O O4 0.622955 0.713122 0.482871
O O5 0.257354 0.110118 0.874524
O O6 0.277373 0.107276 0.702292
O O7 0.320499 0.000000 0.805490
O O8 0.500000 0.658182 0.730327
O O9 0.415506 0.585109 0.796086
O O10 0.401507 0.680854 0.659857
O O11 0.940470 0.000000 0.665676
O O12 0.000000 0.000000 0.815226
O O13 0.250000 0.250000 0.447134
O O14 0.291034 0.128265 0.526144
O O15 0.403038 0.576657 0.532502
O O16 0.308470 0.632424 0.589102
O O17 0.500000 0.500000 0.520961
O O18 0.255672 0.000000 0.092514
#
# Coordination Sequence:
#
# PCOD9368948 Si02
#       8
#    16  16  16   8  16  16   8  16
#     4  11  24  37  59  85 119 158 192 239 292 354
#     4  10  22  37  57  82 120 157 193 236 285 346
#     4  10  22  40  61  87 116 147 193 247 295 347
#     4   7  14  34  58  79 106 136 178 239 291 332
#     4  10  20  35  52  82 116 152 189 234 282 344
#     4  11  20  35  62  85 116 151 194 241 296 343
#     4   9  18  32  56  87 112 142 192 245 296 336
#     4  11  21  35  57  83 115 156 192 237 285 348
#
# _framework density 18.249258000000001
#
# number of rings (size 3 to 8) (size 9 to 14) (size 15 to 20)
#    0.000    1.857    3.571    2.571    3.000    2.857 
#    2.571    0.000    0.000    0.000    0.000    0.000 
#    0.000    0.000    0.000    0.000    0.000    0.000 
#
# Total GULP energy -156040.976053 kJ/mol
# GULP energy per Si atom -5572.892002 kJ/mol
# Density = 1.820772 g / cm^3
# Si number density = 18.249258 Si / 1000 Ang^3
#
#
#
# Elastic Constant Matrix: (Units=GPa)
#
#
# Indices 1 2 3 4 5 6 
#
# 1 41.4141 31.4954 5.7898 0.0000 0.0000 0.0000
# 2 31.4954 77.2857 47.8324 0.0000 0.0000 0.0000
# 3 5.7898 47.8324 80.3783 0.0000 0.0000 0.0000
# 4 0.0000 0.0000 0.0000 32.3329 0.0000 0.0000
# 5 0.0000 0.0000 0.0000 0.0000 17.5122 0.0000
# 6 0.0000 0.0000 0.0000 0.0000 0.0000 23.2288
#
#
#
# Elastic Compliance Matrix: (Units=1/GPa)
#
#
# Indices 1 2 3 4 5 6 
#
# 1 0.040191 -0.023092 0.010847 0.000000 0.000000 0.000000
# 2 -0.023092 0.033750 -0.018421 0.000000 0.000000 0.000000
# 3 0.010847 -0.018421 0.022622 0.000000 0.000000 0.000000
# 4 0.000000 0.000000 0.000000 0.030928 0.000000 0.000000
# 5 0.000000 0.000000 0.000000 0.000000 0.057103 0.000000
# 6 0.000000 0.000000 0.000000 0.000000 0.000000 0.043050
#
#
# Mechanical properties :
#
#
# Convention : Reuss Voigt Hill
#
# Bulk Modulus (GPa) = 28.38401 41.03481 34.70941
# Shear Modulus (GPa) = 16.62670 22.21214 19.41942
#
# Velocity S-wave (km/s) = 3.02170 3.49256 3.26563
# Velocity P-wave (km/s) = 5.26892 6.22884 5.76888
#
# Compressibility (1/GPa) = 0.03523111
#
# Stress axis : x y z
#
# Youngs Moduli (GPa) = 24.88109 29.62942 44.20453
#
# Poissons Ratio (x) = 0.68419 -0.47947
# Poissons Ratio (y) = 0.57455 0.81430
# Poissons Ratio (z) = -0.26988 0.54581
#
# Static dielectric constant tensor:
#      x y z
#    x 1.644420 0.000000 0.000000 
#    y 0.000000 1.673040 0.000000 
#    z 0.000000 0.000000 1.625910 
# 
# From -- ./inp_files/17085.got.cif
#   From: 2010.05.17/outbox.cif.g08.bks.cpg/sg42_9_cif.got.tgz:17085.got - 2010.06.03 19:03:34.
