data_PCOD9368813
_publ_section_title
;
Structure prediction by ZEFSAII (Michael W. Deem and Ramdas Pophale) SiO2 
 PCOD9368813
Probable space group: F M M 2
;
_chemical_formula_sum "Si O2"
_cell_formula_units_Z 96
_cell_length_a 8.844978
_cell_length_b 25.625558
_cell_length_c 25.819066
_cell_angle_alpha 90.000000
_cell_angle_beta 90.000000
_cell_angle_gamma 90.000000
_cell_volume 5852.084868
_symmetry_space_group_name_H-M "F M M 2"
_symmetry_group_IT_number 42
_symmetry_cell_setting 'orthorhombic'
loop_
_space_group_symop_operation_xyz
x,y,z
-x,-y,z
-x,y,z
x,-y,z
x,1/2+y,1/2+z
-x,1/2-y,1/2+z
-x,1/2+y,1/2+z
x,1/2-y,1/2+z
1/2+x,y,1/2+z
1/2-x,-y,1/2+z
1/2-x,y,1/2+z
1/2+x,-y,1/2+z
1/2+x,1/2+y,z
1/2-x,1/2-y,z
1/2-x,1/2+y,z
1/2+x,1/2-y,z
loop_
_atom_site_type_symbol
_atom_site_label
_atom_site_fract_x
_atom_site_fract_y
_atom_site_fract_z
Si Si1 0.319887 0.890581 0.203970
Si Si2 0.680801 0.110158 0.081447
Si Si3 0.180559 0.307908 0.781567
Si Si4 0.673485 0.000000 0.705424
Si Si5 0.318919 0.691831 0.396954
Si Si6 0.819171 0.308302 0.502711
Si Si7 0.825620 0.500000 0.579735
O O1 0.500000 0.889807 0.209540
O O2 0.285273 0.883730 0.142773
O O3 0.246627 0.845496 0.238146
O O4 0.256212 0.946869 0.220922
O O5 0.500000 0.112760 0.074877
O O6 0.761175 0.154935 0.048546
O O7 0.741530 0.053234 0.064579
O O8 0.250000 0.250000 0.777334
O O9 0.213336 0.329844 0.839609
O O10 0.000000 0.303865 0.776816
O O11 0.674214 0.000000 0.642584
O O12 0.500000 0.000000 0.722897
O O13 0.500000 0.693983 0.404044
O O14 0.250000 0.750000 0.394874
O O15 0.242253 0.668627 0.448068
O O16 0.750000 0.250000 0.508291
O O17 0.000000 0.304851 0.501745
O O18 0.000000 0.500000 0.562432
#
# Coordination Sequence:
#
# PCOD9368813 Si02
#       7
#    16  16  16   8  16  16   8
#     4  10  20  33  51  74 101 132 166 203 244 290
#     4  10  20  34  51  73 101 133 166 202 244 291
#     4  10  20  33  51  74 101 132 165 202 246 293
#     4   9  17  31  51  72  97 128 165 205 242 286
#     4   9  17  31  50  71  95 126 164 203 242 289
#     4  11  21  33  51  74 100 131 165 204 247 293
#     4   9  17  31  51  74  97 126 165 205 242 286
#
# _framework density 16.404409999999999
#
# number of rings (size 3 to 8) (size 9 to 14) (size 15 to 20)
#    0.000    2.167    0.000    5.000    0.000    6.667 
#    0.000    0.000    0.000    1.000    0.000    1.167 
#    0.000    0.000    0.000    0.000    0.000    0.000 
#
# Total GULP energy -133810.613885 kJ/mol
# GULP energy per Si atom -5575.442245 kJ/mol
# Density = 1.636707 g / cm^3
# Si number density = 16.404410 Si / 1000 Ang^3
#
#
#
# Elastic Constant Matrix: (Units=GPa)
#
#
# Indices 1 2 3 4 5 6 
#
# 1 115.5858 59.3595 69.8665 0.0000 0.0000 0.0000
# 2 59.3595 105.8641 66.3705 0.0000 0.0000 0.0000
# 3 69.8665 66.3705 94.3355 0.0000 0.0000 0.0000
# 4 0.0000 0.0000 0.0000 -4.2966 0.0000 0.0000
# 5 0.0000 0.0000 0.0000 0.0000 25.2417 0.0000
# 6 0.0000 0.0000 0.0000 0.0000 0.0000 32.1891
#
#
#
# Elastic Compliance Matrix: (Units=1/GPa)
#
#
# Indices 1 2 3 4 5 6 
#
# 1 0.016108 -0.002778 -0.009975 0.000000 0.000000 0.000000
# 2 -0.002778 0.017380 -0.010170 0.000000 0.000000 0.000000
# 3 -0.009975 -0.010170 0.025144 0.000000 0.000000 0.000000
# 4 0.000000 0.000000 0.000000 -0.232745 0.000000 0.000000
# 5 0.000000 0.000000 0.000000 0.000000 0.039617 0.000000
# 6 0.000000 0.000000 0.000000 0.000000 0.000000 0.031066
#
#
# Mechanical properties :
#
#
# Convention : Reuss Voigt Hill
#
# Bulk Modulus (GPa) = 78.22102 78.55317 78.38709
# Shear Modulus (GPa) = -93.77176 18.63942 -37.56617
#
# Velocity S-wave (km/s) = -7.56879 3.37448 -4.79059
# Velocity P-wave (km/s) = 5.34750 7.94809 4.15791
#
# Compressibility (1/GPa) = 0.01278429
#
# Stress axis : x y z
#
# Youngs Moduli (GPa) = 62.08150 57.53749 39.77122
#
# Poissons Ratio (x) = 0.15984 0.39673
# Poissons Ratio (y) = 0.17246 0.40449
# Poissons Ratio (z) = 0.61928 0.58518
#
# Static dielectric constant tensor:
#      x y z
#    x 1.546020 0.000000 0.000000 
#    y 0.000000 1.478680 0.000000 
#    z 0.000000 0.000000 1.570080 
# 
# From -- ./inp_files/28072.got.cif
#   From: 2010.05.17/outbox.cif.g08.bks.cpg/sg42_15_cif.got.tgz:28072.got - 2010.06.03 19:03:34.
