data_PCOD9368112
_publ_section_title
;
Structure prediction by ZEFSAII (Michael W. Deem and Ramdas Pophale) SiO2 
 PCOD9368112
Probable space group: F M M 2
;
_chemical_formula_sum "Si O2"
_cell_formula_units_Z 128
_cell_length_a 19.991619
_cell_length_b 20.969655
_cell_length_c 17.379954
_cell_angle_alpha 90.000000
_cell_angle_beta 90.000000
_cell_angle_gamma 90.000000
_cell_volume 7285.978317
_symmetry_space_group_name_H-M "F M M 2"
_symmetry_group_IT_number 42
_symmetry_cell_setting 'orthorhombic'
loop_
_space_group_symop_operation_xyz
x,y,z
-x,-y,z
-x,y,z
x,-y,z
x,1/2+y,1/2+z
-x,1/2-y,1/2+z
-x,1/2+y,1/2+z
x,1/2-y,1/2+z
1/2+x,y,1/2+z
1/2-x,-y,1/2+z
1/2-x,y,1/2+z
1/2+x,-y,1/2+z
1/2+x,1/2+y,z
1/2-x,1/2-y,z
1/2-x,1/2+y,z
1/2+x,1/2-y,z
loop_
_atom_site_type_symbol
_atom_site_label
_atom_site_fract_x
_atom_site_fract_y
_atom_site_fract_z
Si Si1 0.423993 0.697321 0.583990
Si Si2 0.292387 0.570786 0.358856
Si Si3 0.784486 0.683365 0.160287
Si Si4 0.186077 0.573879 0.673460
Si Si5 0.792976 0.809985 0.844383
Si Si6 0.573998 0.875792 0.922869
Si Si7 0.576094 0.755545 0.810098
Si Si8 0.922592 0.824319 0.151678
O O1 0.500000 0.687350 0.615732
O O2 0.360339 0.675426 0.632723
O O3 0.420894 0.660294 0.504089
O O4 0.416254 0.774486 0.581297
O O5 0.266351 0.500000 0.373963
O O6 0.308783 0.575028 0.267098
O O7 0.238589 0.625667 0.377662
O O8 0.361661 0.581980 0.404189
O O9 0.750000 0.750000 0.132076
O O10 0.743404 0.619894 0.139470
O O11 0.781065 0.686308 0.252571
O O12 0.189000 0.500000 0.650064
O O13 0.119568 0.611900 0.649868
O O14 0.750000 0.750000 0.874445
O O15 0.871230 0.792862 0.847735
O O16 0.500000 0.906916 0.918459
O O17 0.575673 0.819291 0.860519
O O18 0.500000 0.731117 0.804895
O O19 0.598596 0.781391 0.726045
O O20 0.000000 0.839515 0.163156
#
# Coordination Sequence:
#
# PCOD9368112 Si02
#       8
#    16  16  16  16  16  16  16  16
#     4  10  20  33  52  76 104 140 183 226 269 310
#     4  10  20  33  50  75 109 143 174 216 271 327
#     4  10  17  31  51  72 101 139 177 219 264 308
#     4  10  19  31  50  79 109 140 174 216 270 324
#     4  10  16  29  51  76 101 134 175 219 264 309
#     4  10  20  34  50  77 111 140 175 220 267 323
#     4  10  17  29  51  76 104 136 177 225 266 306
#     4  10  17  30  51  77 107 142 179 221 267 317
#
# _framework density 17.567990999999999
#
# number of rings (size 3 to 8) (size 9 to 14) (size 15 to 20)
#    0.000    2.000    5.000    0.750    0.000    0.500 
#    2.250    1.875    0.000    1.500    0.000    3.500 
#    0.000    3.000    0.000    0.000    0.000    0.250 
#
# Total GULP energy -178176.279132 kJ/mol
# GULP energy per Si atom -5568.008723 kJ/mol
# Density = 1.752801 g / cm^3
# Si number density = 17.567991 Si / 1000 Ang^3
#
#
#
# Elastic Constant Matrix: (Units=GPa)
#
#
# Indices 1 2 3 4 5 6 
#
# 1 102.6443 68.3540 10.0405 0.0000 0.0000 0.0000
# 2 68.3540 129.8426 12.0965 0.0000 0.0000 0.0000
# 3 10.0405 12.0965 17.7279 0.0000 0.0000 0.0000
# 4 0.0000 0.0000 0.0000 12.5481 0.0000 0.0000
# 5 0.0000 0.0000 0.0000 0.0000 13.0645 0.0000
# 6 0.0000 0.0000 0.0000 0.0000 0.0000 24.4424
#
#
#
# Elastic Compliance Matrix: (Units=1/GPa)
#
#
# Indices 1 2 3 4 5 6 
#
# 1 0.015187 -0.007682 -0.003360 0.000000 0.000000 0.000000
# 2 -0.007682 0.012110 -0.003913 0.000000 0.000000 0.000000
# 3 -0.003360 -0.003913 0.060981 0.000000 0.000000 0.000000
# 4 0.000000 0.000000 0.000000 0.079694 0.000000 0.000000
# 5 0.000000 0.000000 0.000000 0.000000 0.076543 0.000000
# 6 0.000000 0.000000 0.000000 0.000000 0.000000 0.040913
#
#
# Mechanical properties :
#
#
# Convention : Reuss Voigt Hill
#
# Bulk Modulus (GPa) = 17.13224 47.91077 32.52151
# Shear Modulus (GPa) = 14.93471 20.65924 17.79698
#
# Velocity S-wave (km/s) = 2.91883 3.43295 3.18627
# Velocity P-wave (km/s) = 4.59701 6.56082 5.66466
#
# Compressibility (1/GPa) = 0.05836948
#
# Stress axis : x y z
#
# Youngs Moduli (GPa) = 65.84772 82.57559 16.39867
#
# Poissons Ratio (x) = 0.63433 0.05509
# Poissons Ratio (y) = 0.50583 0.06416
# Poissons Ratio (z) = 0.22122 0.32308
#
# Static dielectric constant tensor:
#      x y z
#    x 1.648900 0.000000 0.000000 
#    y 0.000000 1.596010 0.000000 
#    z 0.000000 0.000000 1.636610 
# 
# From -- ./inp_files/21966.got.cif
#   From: 2010.05.17/outbox.cif.g08.bks.cpg/sg42_11_cif.got.tgz:21966.got - 2010.06.03 19:03:34.
