data_PCOD9368122
_publ_section_title
;
Structure prediction by ZEFSAII (Michael W. Deem and Ramdas Pophale) SiO2 
 PCOD9368122
Probable space group: F M M 2
;
_chemical_formula_sum "Si O2"
_cell_formula_units_Z 96
_cell_length_a 19.141469
_cell_length_b 19.302675
_cell_length_c 15.630915
_cell_angle_alpha 90.000000
_cell_angle_beta 90.000000
_cell_angle_gamma 90.000000
_cell_volume 5775.334782
_symmetry_space_group_name_H-M "F M M 2"
_symmetry_group_IT_number 42
_symmetry_cell_setting 'orthorhombic'
loop_
_space_group_symop_operation_xyz
x,y,z
-x,-y,z
-x,y,z
x,-y,z
x,1/2+y,1/2+z
-x,1/2-y,1/2+z
-x,1/2+y,1/2+z
x,1/2-y,1/2+z
1/2+x,y,1/2+z
1/2-x,-y,1/2+z
1/2-x,y,1/2+z
1/2+x,-y,1/2+z
1/2+x,1/2+y,z
1/2-x,1/2-y,z
1/2-x,1/2+y,z
1/2+x,1/2-y,z
loop_
_atom_site_type_symbol
_atom_site_label
_atom_site_fract_x
_atom_site_fract_y
_atom_site_fract_z
Si Si1 0.219666 0.674021 0.542750
Si Si2 0.076458 0.790528 0.101265
Si Si3 0.817910 0.785203 0.850270
Si Si4 0.580223 0.840767 0.220330
Si Si5 0.421716 0.314049 0.438233
Si Si6 0.645573 0.918029 0.061716
O O1 0.250000 0.750000 0.567642
O O2 0.145624 0.664158 0.589653
O O3 0.206381 0.680667 0.440358
O O4 0.278433 0.618181 0.563647
O O5 0.082638 0.736119 0.178475
O O6 0.000000 0.824857 0.105274
O O7 0.076602 0.740550 0.017504
O O8 0.750000 0.750000 0.808171
O O9 0.862351 0.838587 0.794499
O O10 0.869450 0.721713 0.872990
O O11 0.500000 0.853482 0.247734
O O12 0.602751 0.892897 0.145169
O O13 0.500000 0.321543 0.404806
O O14 0.392928 0.384101 0.479826
O O15 0.649566 0.000000 0.057232
#
# Coordination Sequence:
#
# PCOD9368122 Si02
#       6
#    16  16  16  16  16  16
#     4  10  16  33  52  74 101 137 180 222 258 299
#     4   8  15  27  48  74  99 128 171 222 259 294
#     4  10  18  30  52  78 104 135 170 221 266 302
#     4  10  20  31  49  80 109 137 170 214 269 318
#     4   9  16  30  50  74 103 135 174 215 256 306
#     4  11  21  34  53  79 108 141 177 217 265 320
#
# _framework density 16.622413000000002
#
# number of rings (size 3 to 8) (size 9 to 14) (size 15 to 20)
#    0.000    2.333    6.667    2.000    2.333    2.000 
#    0.000    0.833    0.000    0.500    0.000    0.000 
#    0.000    0.000    0.000    0.000    0.000    0.000 
#
# Total GULP energy -133684.550424 kJ/mol
# GULP energy per Si atom -5570.189601 kJ/mol
# Density = 1.658458 g / cm^3
# Si number density = 16.622413 Si / 1000 Ang^3
#
#
#
# Elastic Constant Matrix: (Units=GPa)
#
#
# Indices 1 2 3 4 5 6 
#
# 1 130.2197 28.9800 10.9070 0.0000 0.0000 0.0000
# 2 28.9800 67.4908 10.9661 0.0000 0.0000 0.0000
# 3 10.9070 10.9661 23.0617 0.0000 0.0000 0.0000
# 4 0.0000 0.0000 0.0000 7.4337 0.0000 0.0000
# 5 0.0000 0.0000 0.0000 0.0000 14.8714 0.0000
# 6 0.0000 0.0000 0.0000 0.0000 0.0000 13.8216
#
#
#
# Elastic Compliance Matrix: (Units=1/GPa)
#
#
# Indices 1 2 3 4 5 6 
#
# 1 0.008623 -0.003295 -0.002512 0.000000 0.000000 0.000000
# 2 -0.003295 0.017316 -0.006676 0.000000 0.000000 0.000000
# 3 -0.002512 -0.006676 0.047724 0.000000 0.000000 0.000000
# 4 0.000000 0.000000 0.000000 0.134522 0.000000 0.000000
# 5 0.000000 0.000000 0.000000 0.000000 0.067243 0.000000
# 6 0.000000 0.000000 0.000000 0.000000 0.000000 0.072351
#
#
# Mechanical properties :
#
#
# Convention : Reuss Voigt Hill
#
# Bulk Modulus (GPa) = 20.53416 35.83093 28.18255
# Shear Modulus (GPa) = 12.85425 18.55328 15.70377
#
# Velocity S-wave (km/s) = 2.78386 3.34452 3.07699
# Velocity P-wave (km/s) = 4.76584 6.04293 5.44198
#
# Compressibility (1/GPa) = 0.04869933
#
# Stress axis : x y z
#
# Youngs Moduli (GPa) = 115.97056 57.74934 20.95365
#
# Poissons Ratio (x) = 0.19026 0.05263
# Poissons Ratio (y) = 0.38207 0.13989
# Poissons Ratio (z) = 0.29127 0.38553
#
# Static dielectric constant tensor:
#      x y z
#    x 1.630730 0.000000 0.000000 
#    y 0.000000 1.515500 0.000000 
#    z 0.000000 0.000000 1.601760 
# 
# From -- ./inp_files/21748.got.cif
#   From: 2010.05.17/outbox.cif.g08.bks.cpg/sg42_11_cif.got.tgz:21748.got - 2010.06.03 19:03:34.
