data_PCOD9368780
_publ_section_title
;
Structure prediction by ZEFSAII (Michael W. Deem and Ramdas Pophale) SiO2 
 PCOD9368780
Probable space group: F M M 2
;
_chemical_formula_sum "Si O2"
_cell_formula_units_Z 128
_cell_length_a 15.636704
_cell_length_b 21.370573
_cell_length_c 20.144067
_cell_angle_alpha 90.000000
_cell_angle_beta 90.000000
_cell_angle_gamma 90.000000
_cell_volume 6731.448682
_symmetry_space_group_name_H-M "F M M 2"
_symmetry_group_IT_number 42
_symmetry_cell_setting 'orthorhombic'
loop_
_space_group_symop_operation_xyz
x,y,z
-x,-y,z
-x,y,z
x,-y,z
x,1/2+y,1/2+z
-x,1/2-y,1/2+z
-x,1/2+y,1/2+z
x,1/2-y,1/2+z
1/2+x,y,1/2+z
1/2-x,-y,1/2+z
1/2-x,y,1/2+z
1/2+x,-y,1/2+z
1/2+x,1/2+y,z
1/2-x,1/2-y,z
1/2-x,1/2+y,z
1/2+x,1/2-y,z
loop_
_atom_site_type_symbol
_atom_site_label
_atom_site_fract_x
_atom_site_fract_y
_atom_site_fract_z
Si Si1 0.901402 0.842557 0.044280
Si Si2 0.152594 0.726336 0.958842
Si Si3 0.328404 0.700581 0.313335
Si Si4 0.595758 0.426037 0.692705
Si Si5 0.598567 0.926040 0.430193
Si Si6 0.601944 0.156297 0.078343
Si Si7 0.224805 0.424309 0.307763
Si Si8 0.897260 0.725936 0.667803
O O1 0.862710 0.826111 0.115708
O O2 0.000000 0.860331 0.055884
O O3 0.897866 0.780050 0.998964
O O4 0.864770 0.895260 0.996755
O O5 0.250000 0.750000 0.956776
O O6 0.124199 0.713651 0.883539
O O7 0.146697 0.667562 0.008409
O O8 0.250000 0.750000 0.314036
O O9 0.201761 0.872063 0.313872
O O10 0.373107 0.714990 0.243424
O O11 0.500000 0.399608 0.708240
O O12 0.589916 0.500000 0.700513
O O13 0.615953 0.407535 0.617502
O O14 0.669520 0.406592 0.742879
O O15 0.500000 0.903875 0.418417
O O16 0.660010 0.912942 0.368833
O O17 0.594412 0.000000 0.437902
O O18 0.500000 0.163199 0.066879
O O19 0.629225 0.208887 0.132851
O O20 0.245936 0.500000 0.306388
O O21 0.000000 0.725042 0.663731
#
# Coordination Sequence:
#
# PCOD9368780 Si02
#       8
#    16  16  16  16  16  16  16  16
#     4   9  18  33  50  72 100 125 155 199 248 290
#     4  10  20  32  48  70  97 128 161 199 241 284
#     4  11  22  35  52  75 100 129 169 206 241 288
#     4   9  17  30  50  75 101 129 161 196 238 294
#     4   9  16  28  50  76 100 129 161 193 238 297
#     4   9  18  33  51  73  99 125 156 198 248 291
#     4  10  20  34  49  71 106 137 161 198 247 293
#     4   9  19  34  52  73  98 127 161 205 248 288
#
# _framework density 19.015222999999999
#
# number of rings (size 3 to 8) (size 9 to 14) (size 15 to 20)
#    0.000    2.500    0.000    3.750    0.000    6.500 
#    0.000    4.375    0.000    4.875    0.000    0.000 
#    0.000    0.000    0.000    0.000    0.000    0.000 
#
# Total GULP energy -178203.826038 kJ/mol
# GULP energy per Si atom -5568.869564 kJ/mol
# Density = 1.897194 g / cm^3
# Si number density = 19.015223 Si / 1000 Ang^3
#
#
#
# Elastic Constant Matrix: (Units=GPa)
#
#
# Indices 1 2 3 4 5 6 
#
# 1 13.8306 2.8452 13.4736 0.0000 0.0000 0.0000
# 2 2.8452 11.4619 6.6234 0.0000 0.0000 0.0000
# 3 13.4736 6.6234 142.8776 0.0000 0.0000 0.0000
# 4 0.0000 0.0000 0.0000 33.1452 0.0000 0.0000
# 5 0.0000 0.0000 0.0000 0.0000 24.2275 0.0000
# 6 0.0000 0.0000 0.0000 0.0000 0.0000 21.4164
#
#
#
# Elastic Compliance Matrix: (Units=1/GPa)
#
#
# Indices 1 2 3 4 5 6 
#
# 1 0.082522 -0.016428 -0.007020 0.000000 0.000000 0.000000
# 2 -0.016428 0.092918 -0.002758 0.000000 0.000000 0.000000
# 3 -0.007020 -0.002758 0.007789 0.000000 0.000000 0.000000
# 4 0.000000 0.000000 0.000000 0.030170 0.000000 0.000000
# 5 0.000000 0.000000 0.000000 0.000000 0.041275 0.000000
# 6 0.000000 0.000000 0.000000 0.000000 0.000000 0.046693
#
#
# Mechanical properties :
#
#
# Convention : Reuss Voigt Hill
#
# Bulk Modulus (GPa) = 7.64433 23.78381 15.71407
# Shear Modulus (GPa) = 12.58226 25.43969 19.01098
#
# Velocity S-wave (km/s) = 2.57513 3.66164 3.16535
# Velocity P-wave (km/s) = 3.58756 5.51469 4.65201
#
# Compressibility (1/GPa) = 0.13081593
#
# Stress axis : x y z
#
# Youngs Moduli (GPa) = 12.11800 10.76223 128.38786
#
# Poissons Ratio (x) = 0.17680 0.90133
# Poissons Ratio (y) = 0.19907 0.35413
# Poissons Ratio (z) = 0.08507 0.02969
#
# Static dielectric constant tensor:
#      x y z
#    x 1.712430 0.000000 0.000000 
#    y 0.000000 1.701120 0.000000 
#    z 0.000000 0.000000 1.687150 
# 
# From -- ./inp_files/21980.got.cif
#   From: 2010.05.17/outbox.cif.g08.bks.cpg/sg42_11_cif.got.tgz:21980.got - 2010.06.03 19:03:34.
