data_PCOD9368230
_publ_section_title
;
Structure prediction by ZEFSAII (Michael W. Deem and Ramdas Pophale) SiO2 
 PCOD9368230
Probable space group: F M M 2
;
_chemical_formula_sum "Si O2"
_cell_formula_units_Z 128
_cell_length_a 17.627691
_cell_length_b 16.359851
_cell_length_c 23.730380
_cell_angle_alpha 90.000000
_cell_angle_beta 90.000000
_cell_angle_gamma 90.000000
_cell_volume 6843.518817
_symmetry_space_group_name_H-M "F M M 2"
_symmetry_group_IT_number 42
_symmetry_cell_setting 'orthorhombic'
loop_
_space_group_symop_operation_xyz
x,y,z
-x,-y,z
-x,y,z
x,-y,z
x,1/2+y,1/2+z
-x,1/2-y,1/2+z
-x,1/2+y,1/2+z
x,1/2-y,1/2+z
1/2+x,y,1/2+z
1/2-x,-y,1/2+z
1/2-x,y,1/2+z
1/2+x,-y,1/2+z
1/2+x,1/2+y,z
1/2-x,1/2-y,z
1/2-x,1/2+y,z
1/2+x,1/2-y,z
loop_
_atom_site_type_symbol
_atom_site_label
_atom_site_fract_x
_atom_site_fract_y
_atom_site_fract_z
Si Si1 0.705635 0.092752 0.258530
Si Si2 0.087649 0.907510 0.354189
Si Si3 0.670739 0.199289 0.164372
Si Si4 0.861508 0.157287 0.239112
Si Si5 0.592582 0.756401 0.928666
Si Si6 0.090373 0.089085 0.124021
Si Si7 0.908920 0.248580 0.557532
Si Si8 0.409486 0.405831 0.860270
O O1 0.680424 0.113843 0.195312
O O2 0.777510 0.151868 0.265492
O O3 0.639581 0.104978 0.303700
O O4 0.732308 0.000000 0.263855
O O5 0.088414 0.875032 0.289958
O O6 0.120749 0.834288 0.392487
O O7 0.000000 0.914739 0.371537
O O8 0.120819 0.000000 0.357600
O O9 0.750000 0.250000 0.157398
O O10 0.624863 0.254842 0.210339
O O11 0.630194 0.193330 0.104818
O O12 0.868966 0.100569 0.183942
O O13 0.500000 0.757865 0.927940
O O14 0.612604 0.668346 0.901772
O O15 0.616601 0.762772 0.993634
O O16 0.109578 0.160593 0.080779
O O17 0.000000 0.095432 0.135424
O O18 0.106437 0.000000 0.100403
O O19 0.000000 0.238885 0.559532
O O20 0.500000 0.398866 0.849315
O O21 0.396479 0.500000 0.880498
#
# Coordination Sequence:
#
# PCOD9368230 Si02
#       8
#    16  16  16  16  16  16  16  16
#     4  10  19  31  48  70  95 121 151 188 229 275
#     4  10  19  30  47  71  97 125 155 187 227 276
#     4   9  19  33  48  68  94 123 152 186 232 278
#     4  10  18  30  48  70  97 124 149 183 231 282
#     4   9  18  33  50  68  93 124 157 194 233 270
#     4   9  16  26  44  72  99 119 145 185 231 278
#     4   9  18  32  49  67  89 121 159 193 225 268
#     4   9  18  32  50  71  94 121 154 192 233 276
#
# _framework density 18.703827
#
# number of rings (size 3 to 8) (size 9 to 14) (size 15 to 20)
#    0.000    2.625    0.000    2.250    0.000    2.500 
#    0.000    4.375    0.000    0.750    0.000    0.000 
#    0.000    0.000    0.000    0.000    0.000    0.000 
#
# Total GULP energy -178140.199940 kJ/mol
# GULP energy per Si atom -5566.881248 kJ/mol
# Density = 1.866126 g / cm^3
# Si number density = 18.703827 Si / 1000 Ang^3
#
#
#
# Elastic Constant Matrix: (Units=GPa)
#
#
# Indices 1 2 3 4 5 6 
#
# 1 19.9667 17.3714 21.0506 0.0000 0.0000 0.0000
# 2 17.3714 70.6498 54.0041 0.0000 0.0000 0.0000
# 3 21.0506 54.0041 126.0040 0.0000 0.0000 0.0000
# 4 0.0000 0.0000 0.0000 14.9414 0.0000 0.0000
# 5 0.0000 0.0000 0.0000 0.0000 8.0067 0.0000
# 6 0.0000 0.0000 0.0000 0.0000 0.0000 14.0324
#
#
#
# Elastic Compliance Matrix: (Units=1/GPa)
#
#
# Indices 1 2 3 4 5 6 
#
# 1 0.066745 -0.011731 -0.006123 0.000000 0.000000 0.000000
# 2 -0.011731 0.023113 -0.007946 0.000000 0.000000 0.000000
# 3 -0.006123 -0.007946 0.012365 0.000000 0.000000 0.000000
# 4 0.000000 0.000000 0.000000 0.066928 0.000000 0.000000
# 5 0.000000 0.000000 0.000000 0.000000 0.124896 0.000000
# 6 0.000000 0.000000 0.000000 0.000000 0.000000 0.071264
#
#
# Mechanical properties :
#
#
# Convention : Reuss Voigt Hill
#
# Bulk Modulus (GPa) = 19.75405 44.60809 32.18107
# Shear Modulus (GPa) = 11.52648 15.67572 13.60110
#
# Velocity S-wave (km/s) = 2.48516 2.89814 2.69956
# Velocity P-wave (km/s) = 4.33810 5.92456 5.19228
#
# Compressibility (1/GPa) = 0.05062252
#
# Stress axis : x y z
#
# Youngs Moduli (GPa) = 14.98241 43.26640 80.87516
#
# Poissons Ratio (x) = 0.50756 0.49518
# Poissons Ratio (y) = 0.17576 0.64264
# Poissons Ratio (z) = 0.09173 0.34380
#
# Static dielectric constant tensor:
#      x y z
#    x 1.704390 0.000000 0.000000 
#    y 0.000000 1.696950 0.000000 
#    z 0.000000 0.000000 1.624910 
# 
# From -- ./inp_files/30004.got.cif
#   From: 2010.05.17/outbox.cif.g08.bks.cpg/sg42_16_cif.got.tgz:30004.got - 2010.06.03 19:03:34.
