data_PCOD9368743
_publ_section_title
;
Structure prediction by ZEFSAII (Michael W. Deem and Ramdas Pophale) SiO2 
 PCOD9368743
Probable space group: F M M 2
;
_chemical_formula_sum "Si O2"
_cell_formula_units_Z 100
_cell_length_a 15.116141
_cell_length_b 26.819233
_cell_length_c 13.284231
_cell_angle_alpha 90.000000
_cell_angle_beta 90.000000
_cell_angle_gamma 90.000000
_cell_volume 5385.471186
_symmetry_space_group_name_H-M "F M M 2"
_symmetry_group_IT_number 42
_symmetry_cell_setting 'orthorhombic'
loop_
_space_group_symop_operation_xyz
x,y,z
-x,-y,z
-x,y,z
x,-y,z
x,1/2+y,1/2+z
-x,1/2-y,1/2+z
-x,1/2+y,1/2+z
x,1/2-y,1/2+z
1/2+x,y,1/2+z
1/2-x,-y,1/2+z
1/2-x,y,1/2+z
1/2+x,-y,1/2+z
1/2+x,1/2+y,z
1/2-x,1/2-y,z
1/2-x,1/2+y,z
1/2+x,1/2-y,z
loop_
_atom_site_type_symbol
_atom_site_label
_atom_site_fract_x
_atom_site_fract_y
_atom_site_fract_z
Si Si1 0.895352 0.197922 0.795850
Si Si2 0.645272 0.416786 0.333418
Si Si3 0.100227 0.689649 0.769460
Si Si4 0.801144 0.622879 0.449770
Si Si5 0.000000 0.000000 0.386335
Si Si6 0.738916 0.193869 0.114371
Si Si7 0.103801 0.442209 0.611240
O O1 0.884052 0.256837 0.822064
O O2 0.850432 0.161508 0.876338
O O3 0.844163 0.191084 0.689884
O O4 0.000000 0.188166 0.787896
O O5 0.609867 0.359737 0.335841
O O6 0.739660 0.414405 0.386967
O O7 0.577458 0.456256 0.379200
O O8 0.653422 0.429985 0.215020
O O9 0.173938 0.685381 0.683234
O O10 0.000000 0.691091 0.728212
O O11 0.739812 0.654444 0.525722
O O12 0.868006 0.592670 0.520305
O O13 0.750000 0.250000 0.074402
O O14 0.118010 0.500000 0.585713
O O15 0.000000 0.435730 0.635567
#
# Coordination Sequence:
#
# PCOD9368743 Si02
#       7
#    16  16  16  16   4  16  16
#     4  10  22  40  59  89 134 169 197 251 319 385
#     4  12  22  39  64  88 120 158 206 264 321 359
#     4  10  19  37  63  88 122 168 207 249 311 372
#     4  12  24  36  65  94 121 160 210 263 315 371
#     4  12  24  44  64  88 122 170 208 276 318 388
#     4  10  22  38  59  87 130 166 207 250 309 381
#     4  11  22  41  63  88 118 157 207 262 310 366
#
# _framework density 18.568477000000001
#
# number of rings (size 3 to 8) (size 9 to 14) (size 15 to 20)
#    0.000    1.120    5.600    0.480    3.360    0.640 
#    1.440    0.000    0.000    0.000    0.000    0.000 
#    0.000    0.000    0.000    0.000    0.000    0.000 
#
# Total GULP energy -139295.656878 kJ/mol
# GULP energy per Si atom -5571.826275 kJ/mol
# Density = 1.852621 g / cm^3
# Si number density = 18.568477 Si / 1000 Ang^3
#
#
#
# Elastic Constant Matrix: (Units=GPa)
#
#
# Indices 1 2 3 4 5 6 
#
# 1 78.0821 33.5615 26.7998 0.0000 0.0000 0.0000
# 2 33.5615 108.2853 40.8544 0.0000 0.0000 0.0000
# 3 26.7998 40.8544 67.2427 0.0000 0.0000 0.0000
# 4 0.0000 0.0000 0.0000 14.0521 0.0000 0.0000
# 5 0.0000 0.0000 0.0000 0.0000 1.8164 0.0000
# 6 0.0000 0.0000 0.0000 0.0000 0.0000 34.9074
#
#
#
# Elastic Compliance Matrix: (Units=1/GPa)
#
#
# Indices 1 2 3 4 5 6 
#
# 1 0.015668 -0.003244 -0.004274 0.000000 0.000000 0.000000
# 2 -0.003244 0.012653 -0.006395 0.000000 0.000000 0.000000
# 3 -0.004274 -0.006395 0.020460 0.000000 0.000000 0.000000
# 4 0.000000 0.000000 0.000000 0.071164 0.000000 0.000000
# 5 0.000000 0.000000 0.000000 0.000000 0.550531 0.000000
# 6 0.000000 0.000000 0.000000 0.000000 0.000000 0.028647
#
#
# Mechanical properties :
#
#
# Convention : Reuss Voigt Hill
#
# Bulk Modulus (GPa) = 47.71753 50.67127 49.19440
# Shear Modulus (GPa) = 6.81262 20.31483 13.56372
#
# Velocity S-wave (km/s) = 1.91752 3.31123 2.70565
# Velocity P-wave (km/s) = 5.53683 6.47820 6.02592
#
# Compressibility (1/GPa) = 0.02095666
#
# Stress axis : x y z
#
# Youngs Moduli (GPa) = 63.82387 79.03402 48.87587
#
# Poissons Ratio (x) = 0.25636 0.20889
# Poissons Ratio (y) = 0.20702 0.31254
# Poissons Ratio (z) = 0.27277 0.50539
#
# Static dielectric constant tensor:
#      x y z
#    x 1.641150 0.000000 0.000000 
#    y 0.000000 1.673490 0.000000 
#    z 0.000000 0.000000 1.628580 
# 
# From -- ./inp_files/8055.got.cif
#   From: 2010.05.17/outbox.cif.g08.bks.cpg/sg42_5_cif.got.tgz:8055.got - 2010.06.03 19:03:34.
