data_PCOD9368309
_publ_section_title
;
Structure prediction by ZEFSAII (Michael W. Deem and Ramdas Pophale) SiO2 
 PCOD9368309
Probable space group: F M M 2
;
_chemical_formula_sum "Si O2"
_cell_formula_units_Z 88
_cell_length_a 13.515117
_cell_length_b 14.260806
_cell_length_c 24.548933
_cell_angle_alpha 90.000000
_cell_angle_beta 90.000000
_cell_angle_gamma 90.000000
_cell_volume 4731.474483
_symmetry_space_group_name_H-M "F M M 2"
_symmetry_group_IT_number 42
_symmetry_cell_setting 'orthorhombic'
loop_
_space_group_symop_operation_xyz
x,y,z
-x,-y,z
-x,y,z
x,-y,z
x,1/2+y,1/2+z
-x,1/2-y,1/2+z
-x,1/2+y,1/2+z
x,1/2-y,1/2+z
1/2+x,y,1/2+z
1/2-x,-y,1/2+z
1/2-x,y,1/2+z
1/2+x,-y,1/2+z
1/2+x,1/2+y,z
1/2-x,1/2-y,z
1/2-x,1/2+y,z
1/2+x,1/2-y,z
loop_
_atom_site_type_symbol
_atom_site_label
_atom_site_fract_x
_atom_site_fract_y
_atom_site_fract_z
Si Si1 0.620151 0.392931 0.353940
Si Si2 0.381247 0.200311 0.963825
Si Si3 0.115108 0.396977 0.513078
Si Si4 0.750000 0.250000 0.156468
Si Si5 0.693820 0.394278 0.573908
Si Si6 0.118641 0.611862 0.729158
O O1 0.500000 0.392110 0.354597
O O2 0.651792 0.500000 0.363226
O O3 0.655373 0.332755 0.405050
O O4 0.646330 0.366548 0.292284
O O5 0.500000 0.193612 0.962715
O O6 0.356990 0.308348 0.976499
O O7 0.347539 0.137812 0.015220
O O8 0.128695 0.500000 0.487015
O O9 0.187484 0.395268 0.564440
O O10 0.000000 0.387972 0.528040
O O11 0.678954 0.185348 0.118594
O O12 0.815980 0.178625 0.191600
O O13 0.661084 0.500000 0.587191
O O14 0.136475 0.500000 0.719980
O O15 0.000000 0.626531 0.722378
#
# Coordination Sequence:
#
# PCOD9368309 Si02
#       6
#    16  16  16   8  16  16
#     4   8  15  31  56  82 105 134 179 230 273 320
#     4  10  18  32  55  82 111 141 173 216 276 334
#     4   9  18  33  51  73 105 145 185 219 257 316
#     4  12  22  36  54  84 110 148 188 236 274 326
#     4  11  22  35  51  76 112 144 176 220 272 331
#     4   9  20  40  63  84 107 144 195 242 279 321
#
# _framework density 18.598852999999998
#
# number of rings (size 3 to 8) (size 9 to 14) (size 15 to 20)
#    0.000    2.364    1.818    2.182    0.000    2.545 
#    3.273    1.818    0.000    2.727    0.000    2.545 
#    0.000    0.000    0.000    0.000    0.000    0.000 
#
# Total GULP energy -122619.726343 kJ/mol
# GULP energy per Si atom -5573.623925 kJ/mol
# Density = 1.855652 g / cm^3
# Si number density = 18.598853 Si / 1000 Ang^3
#
#
#
# Elastic Constant Matrix: (Units=GPa)
#
#
# Indices 1 2 3 4 5 6 
#
# 1 27.9786 16.7299 19.5596 0.0000 0.0000 0.0000
# 2 16.7299 124.1090 69.3317 0.0000 0.0000 0.0000
# 3 19.5596 69.3317 108.6615 0.0000 0.0000 0.0000
# 4 0.0000 0.0000 0.0000 33.9775 0.0000 0.0000
# 5 0.0000 0.0000 0.0000 0.0000 21.0720 0.0000
# 6 0.0000 0.0000 0.0000 0.0000 0.0000 25.0495
#
#
#
# Elastic Compliance Matrix: (Units=1/GPa)
#
#
# Indices 1 2 3 4 5 6 
#
# 1 0.041268 -0.002196 -0.006027 0.000000 0.000000 0.000000
# 2 -0.002196 0.012637 -0.007668 0.000000 0.000000 0.000000
# 3 -0.006027 -0.007668 0.015180 0.000000 0.000000 0.000000
# 4 0.000000 0.000000 0.000000 0.029431 0.000000 0.000000
# 5 0.000000 0.000000 0.000000 0.000000 0.047456 0.000000
# 6 0.000000 0.000000 0.000000 0.000000 0.000000 0.039921
#
#
# Mechanical properties :
#
#
# Convention : Reuss Voigt Hill
#
# Bulk Modulus (GPa) = 26.80716 52.44352 39.62534
# Shear Modulus (GPa) = 21.72869 26.36167 24.04518
#
# Velocity S-wave (km/s) = 3.42172 3.76890 3.59950
# Velocity P-wave (km/s) = 5.48229 6.87007 6.21504
#
# Compressibility (1/GPa) = 0.03730347
#
# Stress axis : x y z
#
# Youngs Moduli (GPa) = 24.23164 79.13331 65.87495
#
# Poissons Ratio (x) = 0.17376 0.39706
# Poissons Ratio (y) = 0.05321 0.50511
# Poissons Ratio (z) = 0.14606 0.60677
#
# Static dielectric constant tensor:
#      x y z
#    x 1.662690 0.000000 0.000000 
#    y 0.000000 1.665540 0.000000 
#    z 0.000000 0.000000 1.650090 
# 
# From -- ./inp_files/24986.got.cif
#   From: 2010.05.17/outbox.cif.g08.bks.cpg/sg42_13_cif.got.tgz:24986.got - 2010.06.03 19:03:34.
