data_PCOD9368468
_publ_section_title
;
Structure prediction by ZEFSAII (Michael W. Deem and Ramdas Pophale) SiO2 
 PCOD9368468
Probable space group: F M M 2
;
_chemical_formula_sum "Si O2"
_cell_formula_units_Z 100
_cell_length_a 7.361261
_cell_length_b 26.160298
_cell_length_c 19.852586
_cell_angle_alpha 90.000000
_cell_angle_beta 90.000000
_cell_angle_gamma 90.000000
_cell_volume 3823.067704
_symmetry_space_group_name_H-M "F M M 2"
_symmetry_group_IT_number 42
_symmetry_cell_setting 'orthorhombic'
loop_
_space_group_symop_operation_xyz
x,y,z
-x,-y,z
-x,y,z
x,-y,z
x,1/2+y,1/2+z
-x,1/2-y,1/2+z
-x,1/2+y,1/2+z
x,1/2-y,1/2+z
1/2+x,y,1/2+z
1/2-x,-y,1/2+z
1/2-x,y,1/2+z
1/2+x,-y,1/2+z
1/2+x,1/2+y,z
1/2-x,1/2-y,z
1/2-x,1/2+y,z
1/2+x,1/2-y,z
loop_
_atom_site_type_symbol
_atom_site_label
_atom_site_fract_x
_atom_site_fract_y
_atom_site_fract_z
Si Si1 0.220010 0.079021 0.438200
Si Si2 0.500000 0.000000 0.378529
Si Si3 0.209063 0.446103 0.737664
Si Si4 0.779823 0.082008 0.588323
Si Si5 0.699600 0.306422 0.608664
Si Si6 0.778577 0.331547 0.758008
Si Si7 0.784683 0.694126 0.903926
O O1 0.339685 0.044989 0.389077
O O2 0.260171 0.060956 0.514712
O O3 0.271077 0.139494 0.434501
O O4 0.000000 0.074719 0.426983
O O5 0.300393 0.500000 0.757065
O O6 0.210246 0.443825 0.656064
O O7 0.280911 0.390985 0.758986
O O8 0.000000 0.447305 0.760332
O O9 0.706976 0.140489 0.590264
O O10 0.000000 0.081323 0.595506
O O11 0.500000 0.313703 0.580230
O O12 0.750000 0.250000 0.587477
O O13 0.703937 0.307218 0.689962
O O14 0.716212 0.306104 0.826825
O O15 0.000000 0.330229 0.753277
O O16 0.750000 0.750000 0.934807
O O17 0.000000 0.690026 0.900369
#
# Coordination Sequence:
#
# PCOD9368468 Si02
#       7
#    16   4  16  16  16  16  16
#     4  10  24  45  65  97 130 167 215 270 325 378
#     4  12  26  44  72  94 128 168 222 262 320 396
#     4   9  18  31  53  82 114 150 198 247 296 366
#     4   9  20  36  54  78 117 153 195 246 307 372
#     4  10  19  32  51  80 114 155 195 246 309 369
#     4   9  18  35  55  83 115 154 201 248 307 372
#     4  10  22  40  65  90 124 165 211 266 324 383
#
# _framework density 26.157007
#
# number of rings (size 3 to 8) (size 9 to 14) (size 15 to 20)
#    0.000    2.400    0.000    1.200    3.360    3.520 
#    1.440    0.000    0.000    0.000    0.000    0.000 
#    0.000    0.000    0.000    0.000    0.000    0.000 
#
# Total GULP energy -139501.909284 kJ/mol
# GULP energy per Si atom -5580.076371 kJ/mol
# Density = 2.609747 g / cm^3
# Si number density = 26.157007 Si / 1000 Ang^3
#
#
#
# Elastic Constant Matrix: (Units=GPa)
#
#
# Indices 1 2 3 4 5 6 
#
# 1 108.6387 6.1367 -15.3689 0.0000 0.0000 0.0000
# 2 6.1367 216.0908 21.7989 0.0000 0.0000 0.0000
# 3 -15.3689 21.7989 118.0902 0.0000 0.0000 0.0000
# 4 0.0000 0.0000 0.0000 -49.5477 0.0000 0.0000
# 5 0.0000 0.0000 0.0000 0.0000 1205.8080 0.0000
# 6 0.0000 0.0000 0.0000 0.0000 0.0000 64.3895
#
#
#
# Elastic Compliance Matrix: (Units=1/GPa)
#
#
# Indices 1 2 3 4 5 6 
#
# 1 0.009411 -0.000398 0.001298 0.000000 0.000000 0.000000
# 2 -0.000398 0.004732 -0.000925 0.000000 0.000000 0.000000
# 3 0.001298 -0.000925 0.008808 0.000000 0.000000 0.000000
# 4 0.000000 0.000000 0.000000 -0.020183 0.000000 0.000000
# 5 0.000000 0.000000 0.000000 0.000000 0.000829 0.000000
# 6 0.000000 0.000000 0.000000 0.000000 0.000000 0.015530
#
#
# Mechanical properties :
#
#
# Convention : Reuss Voigt Hill
#
# Bulk Modulus (GPa) = 43.66698 51.99478 47.83088
# Shear Modulus (GPa) = 186.47927 272.81350 229.64638
#
# Velocity S-wave (km/s) = 8.45264 10.22374 9.38008
# Velocity P-wave (km/s) = 10.58268 12.62092 11.64647
#
# Compressibility (1/GPa) = 0.02290060
#
# Stress axis : x y z
#
# Youngs Moduli (GPa) = 106.25875 211.31169 113.53450
#
# Poissons Ratio (x) = 0.08415 -0.14740
# Poissons Ratio (y) = 0.04232 0.10506
# Poissons Ratio (z) = -0.13796 0.19555
#
# Static dielectric constant tensor:
#      x y z
#    x 2.069590 0.000000 0.000000 
#    y 0.000000 2.084770 0.000000 
#    z 0.000000 0.000000 2.066460 
# 
# From -- ./inp_files/23807.got.cif
#   From: 2010.05.17/outbox.cif.g08.bks.cpg/sg42_12_cif.got.tgz:23807.got - 2010.06.03 19:03:34.
