data_PCOD9368108
_publ_section_title
;
Structure prediction by ZEFSAII (Michael W. Deem and Ramdas Pophale) SiO2 
 PCOD9368108
Probable space group: F M M 2
;
_chemical_formula_sum "Si O2"
_cell_formula_units_Z 96
_cell_length_a 7.832830
_cell_length_b 23.980541
_cell_length_c 26.758129
_cell_angle_alpha 90.000000
_cell_angle_beta 90.000000
_cell_angle_gamma 90.000000
_cell_volume 5026.126565
_symmetry_space_group_name_H-M "F M M 2"
_symmetry_group_IT_number 42
_symmetry_cell_setting 'orthorhombic'
loop_
_space_group_symop_operation_xyz
x,y,z
-x,-y,z
-x,y,z
x,-y,z
x,1/2+y,1/2+z
-x,1/2-y,1/2+z
-x,1/2+y,1/2+z
x,1/2-y,1/2+z
1/2+x,y,1/2+z
1/2-x,-y,1/2+z
1/2-x,y,1/2+z
1/2+x,-y,1/2+z
1/2+x,1/2+y,z
1/2-x,1/2-y,z
1/2-x,1/2+y,z
1/2+x,1/2-y,z
loop_
_atom_site_type_symbol
_atom_site_label
_atom_site_fract_x
_atom_site_fract_y
_atom_site_fract_z
Si Si1 0.804841 0.118481 0.758560
Si Si2 0.706696 0.314796 0.662901
Si Si3 0.691195 0.000000 0.723110
Si Si4 0.699069 0.381314 0.566542
Si Si5 0.290546 0.064772 0.969587
Si Si6 0.309918 0.500000 0.618950
Si Si7 0.203459 0.436600 0.856838
O O1 0.727044 0.156607 0.714342
O O2 0.738395 0.109534 0.814763
O O3 0.000000 0.135817 0.763372
O O4 0.786355 0.055932 0.737781
O O5 0.500000 0.322796 0.662861
O O6 0.750000 0.250000 0.662840
O O7 0.771756 0.343577 0.611473
O O8 0.500000 0.000000 0.745533
O O9 0.680304 0.000000 0.663746
O O10 0.500000 0.364084 0.560867
O O11 0.771708 0.390896 0.510931
O O12 0.702662 0.444273 0.587422
O O13 0.500000 0.065597 0.971669
O O14 0.235237 0.076941 0.912815
O O15 0.241962 0.000000 0.980133
O O16 0.500000 0.500000 0.642125
O O17 0.266463 0.500000 0.843814
O O18 0.000000 0.440892 0.860373
#
# Coordination Sequence:
#
# PCOD9368108 Si02
#       7
#    16  16   8  16  16   8  16
#     4  11  21  34  52  73 100 136 171 205 251 308
#     4  10  22  37  53  73  96 128 174 219 260 303
#     4  12  22  30  45  74 107 135 162 200 252 305
#     4   9  15  27  50  76 101 131 165 201 242 296
#     4   8  13  23  44  75 107 134 162 197 235 288
#     4  10  16  28  49  74 103 129 162 200 242 299
#     4   9  17  28  45  76 110 136 165 200 242 292
#
# _framework density 19.100194999999999
#
# number of rings (size 3 to 8) (size 9 to 14) (size 15 to 20)
#    0.000    2.333    3.333    2.250    0.000    1.333 
#    0.000    0.000    0.000    3.000    0.000    4.667 
#    0.000    0.000    0.000    0.000    0.000    0.000 
#
# Total GULP energy -133612.136962 kJ/mol
# GULP energy per Si atom -5567.172373 kJ/mol
# Density = 1.905672 g / cm^3
# Si number density = 19.100195 Si / 1000 Ang^3
#
#
#
# Elastic Constant Matrix: (Units=GPa)
#
#
# Indices 1 2 3 4 5 6 
#
# 1 20.2279 -5.2071 13.6195 0.0000 0.0000 0.0000
# 2 -5.2071 90.8911 65.3991 0.0000 0.0000 0.0000
# 3 13.6195 65.3991 189.7606 0.0000 0.0000 0.0000
# 4 0.0000 0.0000 0.0000 13.5237 0.0000 0.0000
# 5 0.0000 0.0000 0.0000 0.0000 13.8983 0.0000
# 6 0.0000 0.0000 0.0000 0.0000 0.0000 -13.1356
#
#
#
# Elastic Compliance Matrix: (Units=1/GPa)
#
#
# Indices 1 2 3 4 5 6 
#
# 1 0.056129 0.008130 -0.006831 0.000000 0.000000 0.000000
# 2 0.008130 0.015808 -0.006032 0.000000 0.000000 0.000000
# 3 -0.006831 -0.006032 0.007839 0.000000 0.000000 0.000000
# 4 0.000000 0.000000 0.000000 0.073944 0.000000 0.000000
# 5 0.000000 0.000000 0.000000 0.000000 0.071951 0.000000
# 6 0.000000 0.000000 0.000000 0.000000 0.000000 -0.076129
#
#
# Mechanical properties :
#
#
# Convention : Reuss Voigt Hill
#
# Bulk Modulus (GPa) = 14.22236 49.83361 32.02798
# Shear Modulus (GPa) = 27.40592 17.99516 22.70054
#
# Velocity S-wave (km/s) = 3.79205 3.07277 3.45120
# Velocity P-wave (km/s) = 5.16093 6.22386 5.71715
#
# Compressibility (1/GPa) = 0.07031182
#
# Stress axis : x y z
#
# Youngs Moduli (GPa) = 17.81623 63.25968 127.57138
#
# Poissons Ratio (x) = -0.51432 0.87138
# Poissons Ratio (y) = -0.14485 0.76945
# Poissons Ratio (z) = 0.12169 0.38155
#
# Static dielectric constant tensor:
#      x y z
#    x 1.709150 0.000000 0.000000 
#    y 0.000000 1.614180 0.000000 
#    z 0.000000 0.000000 1.758600 
# 
# From -- ./inp_files/31651.got.cif
#   From: 2010.05.17/outbox.cif.g08.bks.cpg/sg42_16_cif.got.tgz:31651.got - 2010.06.03 19:03:34.
