data_PCOD9368092
_publ_section_title
;
Structure prediction by ZEFSAII (Michael W. Deem and Ramdas Pophale) SiO2 
 PCOD9368092
Probable space group: F M M 2
;
_chemical_formula_sum "Si O2"
_cell_formula_units_Z 84
_cell_length_a 12.070499
_cell_length_b 18.626318
_cell_length_c 19.840128
_cell_angle_alpha 90.000000
_cell_angle_beta 90.000000
_cell_angle_gamma 90.000000
_cell_volume 4460.635202
_symmetry_space_group_name_H-M "F M M 2"
_symmetry_group_IT_number 42
_symmetry_cell_setting 'orthorhombic'
loop_
_space_group_symop_operation_xyz
x,y,z
-x,-y,z
-x,y,z
x,-y,z
x,1/2+y,1/2+z
-x,1/2-y,1/2+z
-x,1/2+y,1/2+z
x,1/2-y,1/2+z
1/2+x,y,1/2+z
1/2-x,-y,1/2+z
1/2-x,y,1/2+z
1/2+x,-y,1/2+z
1/2+x,1/2+y,z
1/2-x,1/2-y,z
1/2-x,1/2+y,z
1/2+x,1/2-y,z
loop_
_atom_site_type_symbol
_atom_site_label
_atom_site_fract_x
_atom_site_fract_y
_atom_site_fract_z
Si Si1 0.870934 0.655939 0.126880
Si Si2 0.276089 0.000000 0.434231
Si Si3 0.500000 0.000000 0.267073
Si Si4 0.632166 0.500000 0.299875
Si Si5 0.629238 0.845892 0.405483
Si Si6 0.202334 0.118839 0.765293
Si Si7 0.750000 0.250000 0.015373
Si Si8 0.874010 0.500000 0.064445
O O1 0.809320 0.664563 0.197689
O O2 0.820678 0.699492 0.064800
O O3 0.863098 0.571261 0.108840
O O4 0.000000 0.673959 0.134787
O O5 0.182793 0.000000 0.375696
O O6 0.349031 0.929120 0.424658
O O7 0.214408 0.000000 0.505216
O O8 0.401992 0.937061 0.267073
O O9 0.500000 0.500000 0.298808
O O10 0.687269 0.429677 0.266296
O O11 0.500000 0.832451 0.395825
O O12 0.692319 0.836823 0.334490
O O13 0.675776 0.797878 0.465692
O O14 0.000000 0.500000 0.036596
#
# Coordination Sequence:
#
# PCOD9368092 Si02
#       8
#    16   8   4   8  16  16   8   8
#     4  11  22  40  63  90 119 161 211 265 304 371
#     4  10  19  36  62  90 121 157 200 254 310 365
#     4  10  14  34  66 102 106 142 200 286 288 350
#     4   9  19  33  56  97 134 151 185 253 330 378
#     4  11  22  40  62  91 120 159 209 264 309 372
#     4  10  20  35  66  90 120 153 209 257 310 357
#     4  12  26  40  56  84 136 172 204 244 324 380
#     4  10  19  33  61  89 115 150 201 253 304 352
#
# _framework density 18.831399000000001
#
# number of rings (size 3 to 8) (size 9 to 14) (size 15 to 20)
#    0.000    1.524    3.810    2.857    1.333    0.762 
#    0.000    2.857    0.000    0.000    0.000    0.000 
#    0.000    0.000    0.000    0.000    0.000    0.000 
#
# Total GULP energy -117022.866899 kJ/mol
# GULP energy per Si atom -5572.517471 kJ/mol
# Density = 1.878854 g / cm^3
# Si number density = 18.831399 Si / 1000 Ang^3
#
#
#
# Elastic Constant Matrix: (Units=GPa)
#
#
# Indices 1 2 3 4 5 6 
#
# 1 103.3572 28.3960 30.8644 0.0000 0.0000 0.0000
# 2 28.3960 80.8931 40.8481 0.0000 0.0000 0.0000
# 3 30.8644 40.8481 138.1326 0.0000 0.0000 0.0000
# 4 0.0000 0.0000 0.0000 2.0936 0.0000 0.0000
# 5 0.0000 0.0000 0.0000 0.0000 16.1937 0.0000
# 6 0.0000 0.0000 0.0000 0.0000 0.0000 -51.2799
#
#
#
# Elastic Compliance Matrix: (Units=1/GPa)
#
#
# Indices 1 2 3 4 5 6 
#
# 1 0.010981 -0.003075 -0.001544 0.000000 0.000000 0.000000
# 2 -0.003075 0.015393 -0.003865 0.000000 0.000000 0.000000
# 3 -0.001544 -0.003865 0.008727 0.000000 0.000000 0.000000
# 4 0.000000 0.000000 0.000000 0.477648 0.000000 0.000000
# 5 0.000000 0.000000 0.000000 0.000000 0.061752 0.000000
# 6 0.000000 0.000000 0.000000 0.000000 0.000000 -0.019501
#
#
# Mechanical properties :
#
#
# Convention : Reuss Voigt Hill
#
# Bulk Modulus (GPa) = 55.14721 58.06665 56.60693
# Shear Modulus (GPa) = 8.65031 8.21976 8.43504
#
# Velocity S-wave (km/s) = 2.14558 2.09151 2.11872
# Velocity P-wave (km/s) = 5.95704 6.06090 6.00919
#
# Compressibility (1/GPa) = 0.01813328
#
# Stress axis : x y z
#
# Youngs Moduli (GPa) = 91.06528 64.96446 114.58151
#
# Poissons Ratio (x) = 0.19976 0.17695
# Poissons Ratio (y) = 0.28002 0.44285
# Poissons Ratio (z) = 0.14063 0.25108
#
# Static dielectric constant tensor:
#      x y z
#    x 1.616810 0.000000 0.000000 
#    y 0.000000 1.663560 0.000000 
#    z 0.000000 0.000000 1.678460 
# 
# From -- ./inp_files/24304.got.cif
#   From: 2010.05.17/outbox.cif.g08.bks.cpg/sg42_13_cif.got.tgz:24304.got - 2010.06.03 19:03:34.
