data_PCOD9368066
_publ_section_title
;
Structure prediction by ZEFSAII (Michael W. Deem and Ramdas Pophale) SiO2 
 PCOD9368066
Probable space group: A B A 2
;
_chemical_formula_sum "Si O2"
_cell_formula_units_Z 28
_cell_length_a 15.000000
_cell_length_b 21.000000
_cell_length_c 9.000000
_cell_angle_alpha 90.000000
_cell_angle_beta 90.000000
_cell_angle_gamma 90.000000
_cell_volume 2835.000000
_symmetry_space_group_name_H-M "A B A 2"
_symmetry_group_IT_number 41
_symmetry_cell_setting 'orthorhombic'
loop_
_space_group_symop_operation_xyz
x,y,z
-x,-y,z
1/2-x,y,1/2+z
1/2+x,-y,1/2+z
x,1/2+y,1/2+z
-x,1/2-y,1/2+z
1/2-x,1/2+y,z
1/2+x,1/2-y,z
loop_
_atom_site_type_symbol
_atom_site_label
_atom_site_fract_x
_atom_site_fract_y
_atom_site_fract_z
Si Si1 0.957497 0.395213 0.625000
Si Si2 0.770202 0.586721 0.939701
Si Si3 0.317765 0.825669 0.197037
Si Si4 0.042717 0.230856 0.328615
Si Si5 0.869643 0.313749 0.379823
Si Si6 0.136441 0.474088 0.662081
Si Si7 0.305636 0.218530 0.076977
O O1 0.959195 0.335962 0.739949
O O2 0.923944 0.367819 0.467519
O O3 0.892075 0.452625 0.670372
O O4 0.053282 0.429024 0.618321
O O5 0.707089 0.633778 0.842978
O O6 0.828756 0.549908 0.820391
O O7 0.827060 0.628574 0.055590
O O8 0.711500 0.539533 0.039449
O O9 0.403274 0.781828 0.226808
O O10 0.231147 0.782014 0.159430
O O11 0.107981 0.226752 0.472405
O O12 0.943587 0.257001 0.363810
O O13 0.780744 0.300252 0.478171
O O14 0.833690 0.326855 0.213597
#
# Coordination Sequence:
#
# PCOD9368066 Si02
#       7
#     8   8   8   8   8   8   8
#     4  11  25  45  66  92 142 173 230 279 333 420
#     4  10  22  39  72  89 131 175 231 273 327 407
#     4  11  20  39  64 101 129 168 214 287 329 405
#     4  12  25  40  68 103 135 179 211 284 362 402
#     4  12  25  41  66  99 132 180 210 283 352 401
#     4  10  25  46  64  95 124 188 232 277 325 396
#     4  12  24  40  60 105 139 162 221 266 352 418
#
# _framework density 9.8765429999999999
#
# number of rings (size 3 to 8) (size 9 to 14) (size 15 to 20)
#    0.000    0.857    4.286    1.714    8.000    2.286 
#    0.000    1.429    0.000    8.571    0.000    0.000 
#    0.000    0.000    0.000    0.000    0.000    0.000 
#
# Total GULP energy -156542.006713 kJ/mol
# GULP energy per Si atom -5590.785954 kJ/mol
# Density = 0.985406 g / cm^3
# Si number density = 9.876543 Si / 1000 Ang^3
#
#
#
# Elastic Constant Matrix: (Units=GPa)
#
#
# Indices 1 2 3 4 5 6 
#
# 1 110.2610 38.7261 55.9582 0.0000 0.0000 0.0000
# 2 38.7261 107.9202 46.0280 0.0000 0.0000 0.0000
# 3 55.9582 46.0280 142.2866 0.0000 0.0000 0.0000
# 4 0.0000 0.0000 0.0000 24.2472 0.0000 0.0000
# 5 0.0000 0.0000 0.0000 0.0000 35.3668 0.0000
# 6 0.0000 0.0000 0.0000 0.0000 0.0000 31.3663
#
#
#
# Elastic Compliance Matrix: (Units=1/GPa)
#
#
# Indices 1 2 3 4 5 6 
#
# 1 0.011950 -0.002649 -0.003843 0.000000 0.000000 0.000000
# 2 -0.002649 0.011336 -0.002625 0.000000 0.000000 0.000000
# 3 -0.003843 -0.002625 0.009389 0.000000 0.000000 0.000000
# 4 0.000000 0.000000 0.000000 0.041242 0.000000 0.000000
# 5 0.000000 0.000000 0.000000 0.000000 0.028275 0.000000
# 6 0.000000 0.000000 0.000000 0.000000 0.000000 0.031881
#
#
# Mechanical properties :
#
#
# Convention : Reuss Voigt Hill
#
# Bulk Modulus (GPa) = 69.24933 71.32137 70.28535
# Shear Modulus (GPa) = 31.82250 32.84642 32.33446
#
# Velocity S-wave (km/s) = 4.01810 4.08223 4.05029
# Velocity P-wave (km/s) = 7.52731 7.64227 7.58501
#
# Compressibility (1/GPa) = 0.01444057
#
# Stress axis : x y z
#
# Youngs Moduli (GPa) = 83.68162 88.21098 106.51239
#
# Poissons Ratio (x) = 0.23369 0.40930
# Poissons Ratio (y) = 0.22169 0.27963
# Poissons Ratio (z) = 0.32156 0.23158
#
# Static dielectric constant tensor:
#      x y z
#    x 1.685970 0.000000 0.000000 
#    y 0.000000 1.693760 0.000000 
#    z 0.000000 0.000000 1.710410 
# 
# From -- ./inp_files/2679.got.cif
#   From: 2010.05.17/outbox.ucp.g08.bks.cvg/sg41_2_cif.got.tgz:2679.got - 2010.06.11 16:28:22.
