data_PCOD9368002
_publ_section_title
;
Structure prediction by ZEFSAII (Michael W. Deem and Ramdas Pophale) SiO2 
 PCOD9368002
Probable space group: A B A 2
;
_chemical_formula_sum "Si O2"
_cell_formula_units_Z 56
_cell_length_a 14.487632
_cell_length_b 10.686502
_cell_length_c 15.569279
_cell_angle_alpha 90.000000
_cell_angle_beta 90.000000
_cell_angle_gamma 90.000000
_cell_volume 2410.468600
_symmetry_space_group_name_H-M "A B A 2"
_symmetry_group_IT_number 41
_symmetry_cell_setting 'orthorhombic'
loop_
_space_group_symop_operation_xyz
x,y,z
-x,-y,z
1/2-x,y,1/2+z
1/2+x,-y,1/2+z
x,1/2+y,1/2+z
-x,1/2-y,1/2+z
1/2-x,1/2+y,z
1/2+x,1/2-y,z
loop_
_atom_site_type_symbol
_atom_site_label
_atom_site_fract_x
_atom_site_fract_y
_atom_site_fract_z
Si Si1 0.242704 0.202018 0.700650
Si Si2 0.298062 0.541333 0.054313
Si Si3 0.847465 0.554942 0.934132
Si Si4 0.928459 0.161665 0.149194
Si Si5 0.500000 0.000000 0.805338
Si Si6 0.000000 0.500000 0.350389
Si Si7 0.552472 0.809734 0.481059
Si Si8 0.799565 0.047313 0.793527
O O1 0.289942 0.163262 0.612745
O O2 0.135595 0.225791 0.679081
O O3 0.285235 0.329603 0.735891
O O4 0.250051 0.078378 0.758577
O O5 0.355544 0.437279 0.106553
O O6 0.363446 0.590830 0.979522
O O7 0.197759 0.504193 0.019228
O O8 0.914511 0.477275 0.870412
O O9 0.755962 0.586392 0.879251
O O10 0.907515 0.675895 0.957432
O O11 0.000642 0.187112 0.072756
O O12 0.973704 0.107924 0.236533
O O13 0.008975 0.373733 0.408184
O O14 0.905529 0.507597 0.298437
#
# Coordination Sequence:
#
# PCOD9368002 Si02
#       8
#     8   8   8   8   4   4   8   8
#     4  12  27  49  77 112 156 212 268 324 402 483
#     4  12  24  49  76 110 154 209 258 325 404 484
#     4  12  28  47  76 120 153 204 266 337 401 479
#     4  12  24  50  80 110 156 217 270 325 407 498
#     4  12  25  48  75 114 154 202 264 334 411 464
#     4  12  25  46  77 114 158 208 264 338 399 478
#     4  12  25  47  78 111 155 209 268 320 408 488
#     4  12  27  51  78 115 159 207 268 334 403 478
#
# _framework density 23.231998000000001
#
# number of rings (size 3 to 8) (size 9 to 14) (size 15 to 20)
#    0.000    0.000    7.143    1.714    2.000    3.429 
#    0.000    0.000    0.000    0.000    0.000    0.000 
#    0.000    0.000    0.000    0.000    0.000    0.000 
#
# Total GULP energy -156451.123867 kJ/mol
# GULP energy per Si atom -5587.540138 kJ/mol
# Density = 2.317912 g / cm^3
# Si number density = 23.231998 Si / 1000 Ang^3
#
#
#
# Elastic Constant Matrix: (Units=GPa)
#
#
# Indices 1 2 3 4 5 6 
#
# 1 129.5934 38.5795 55.3128 0.0000 0.0000 0.0000
# 2 38.5795 111.3762 56.4640 0.0000 0.0000 0.0000
# 3 55.3128 56.4640 84.9061 0.0000 0.0000 0.0000
# 4 0.0000 0.0000 0.0000 25.3473 0.0000 0.0000
# 5 0.0000 0.0000 0.0000 0.0000 50.0877 0.0000
# 6 0.0000 0.0000 0.0000 0.0000 0.0000 48.6430
#
#
#
# Elastic Compliance Matrix: (Units=1/GPa)
#
#
# Indices 1 2 3 4 5 6 
#
# 1 0.010693 -0.000260 -0.006793 0.000000 0.000000 0.000000
# 2 -0.000260 0.013552 -0.008843 0.000000 0.000000 0.000000
# 3 -0.006793 -0.008843 0.022084 0.000000 0.000000 0.000000
# 4 0.000000 0.000000 0.000000 0.039452 0.000000 0.000000
# 5 0.000000 0.000000 0.000000 0.000000 0.019965 0.000000
# 6 0.000000 0.000000 0.000000 0.000000 0.000000 0.020558
#
#
# Mechanical properties :
#
#
# Convention : Reuss Voigt Hill
#
# Bulk Modulus (GPa) = 68.79139 69.62091 69.20615
# Shear Modulus (GPa) = 30.68592 36.51690 33.60141
#
# Velocity S-wave (km/s) = 3.63829 3.96894 3.80721
# Velocity P-wave (km/s) = 6.87928 7.14395 7.01286
#
# Compressibility (1/GPa) = 0.01453670
#
# Stress axis : x y z
#
# Youngs Moduli (GPa) = 93.51569 73.79224 45.28210
#
# Poissons Ratio (x) = 0.01919 0.30762
# Poissons Ratio (y) = 0.02432 0.40041
# Poissons Ratio (z) = 0.63528 0.65251
#
# Static dielectric constant tensor:
#      x y z
#    x 1.981390 0.000000 0.000000 
#    y 0.000000 1.871740 0.000000 
#    z 0.000000 0.000000 1.941300 
# 
# From -- ./inp_files/8422.got.cif
#   From: 2010.05.17/outbox.cif.g08.bks.cpg/sg41_5_cif.got.tgz:8422.got - 2010.06.03 18:54:24.
