data_PCOD9368837
_publ_section_title
;
Structure prediction by ZEFSAII (Michael W. Deem and Ramdas Pophale) SiO2 
 PCOD9368837
Probable space group: F M M 2
;
_chemical_formula_sum "Si O2"
_cell_formula_units_Z 96
_cell_length_a 28.907213
_cell_length_b 8.862630
_cell_length_c 21.041110
_cell_angle_alpha 90.000000
_cell_angle_beta 90.000000
_cell_angle_gamma 90.000000
_cell_volume 5390.604729
_symmetry_space_group_name_H-M "F M M 2"
_symmetry_group_IT_number 42
_symmetry_cell_setting 'orthorhombic'
loop_
_space_group_symop_operation_xyz
x,y,z
-x,-y,z
-x,y,z
x,-y,z
x,1/2+y,1/2+z
-x,1/2-y,1/2+z
-x,1/2+y,1/2+z
x,1/2-y,1/2+z
1/2+x,y,1/2+z
1/2-x,-y,1/2+z
1/2-x,y,1/2+z
1/2+x,-y,1/2+z
1/2+x,1/2+y,z
1/2-x,1/2-y,z
1/2-x,1/2+y,z
1/2+x,1/2-y,z
loop_
_atom_site_type_symbol
_atom_site_label
_atom_site_fract_x
_atom_site_fract_y
_atom_site_fract_z
Si Si1 0.552580 0.318632 0.156140
Si Si2 0.642148 0.681774 0.965054
Si Si3 0.301316 0.819076 0.338802
Si Si4 0.854144 0.681663 0.719445
Si Si5 0.052866 0.680334 0.016421
Si Si6 0.300737 0.318642 0.089622
O O1 0.500000 0.281525 0.175699
O O2 0.555692 0.500000 0.147473
O O3 0.592526 0.276005 0.205608
O O4 0.561171 0.244539 0.087452
O O5 0.638024 0.500000 0.966281
O O6 0.671188 0.724402 0.902880
O O7 0.591416 0.752391 0.970202
O O8 0.670020 0.729991 0.028203
O O9 0.250000 0.750000 0.338236
O O10 0.330317 0.761056 0.278651
O O11 0.297580 0.000000 0.336942
O O12 0.851667 0.500000 0.727923
O O13 0.826642 0.720797 0.654867
O O14 0.056293 0.500000 0.017974
O O15 0.000000 0.721672 0.999211
O O16 0.297456 0.500000 0.087325
O O17 0.250000 0.250000 0.088237
#
# Coordination Sequence:
#
# PCOD9368837 Si02
#       6
#    16  16  16  16  16  16
#     4   9  17  33  58  84 112 149 187 225 276 333
#     4  10  21  39  58  79 109 148 191 228 274 335
#     4  11  24  40  59  81 111 151 190 231 281 335
#     4  10  20  36  57  82 113 147 187 231 276 332
#     4  10  20  33  54  87 119 145 179 228 282 330
#     4  10  20  34  53  79 106 138 182 231 277 325
#
# _framework density 17.808762000000002
#
# number of rings (size 3 to 8) (size 9 to 14) (size 15 to 20)
#    0.000    2.000    1.667    2.000    0.000    5.667 
#    0.000    0.833    0.000    3.000    0.000    0.000 
#    0.000    0.000    0.000    0.000    0.000    0.000 
#
# Total GULP energy -133989.485956 kJ/mol
# GULP energy per Si atom -5582.895248 kJ/mol
# Density = 1.776823 g / cm^3
# Si number density = 17.808762 Si / 1000 Ang^3
#
#
#
# Elastic Constant Matrix: (Units=GPa)
#
#
# Indices 1 2 3 4 5 6 
#
# 1 181.1411 49.7563 90.0023 0.0000 0.0000 0.0000
# 2 49.7563 22.4877 43.5875 0.0000 0.0000 0.0000
# 3 90.0023 43.5875 137.1520 0.0000 0.0000 0.0000
# 4 0.0000 0.0000 0.0000 9.9477 0.0000 0.0000
# 5 0.0000 0.0000 0.0000 0.0000 31.5501 0.0000
# 6 0.0000 0.0000 0.0000 0.0000 0.0000 30.6260
#
#
#
# Elastic Compliance Matrix: (Units=1/GPa)
#
#
# Indices 1 2 3 4 5 6 
#
# 1 0.014232 -0.034863 0.001740 0.000000 0.000000 0.000000
# 2 -0.034863 0.201200 -0.041065 0.000000 0.000000 0.000000
# 3 0.001740 -0.041065 0.019200 0.000000 0.000000 0.000000
# 4 0.000000 0.000000 0.000000 0.100525 0.000000 0.000000
# 5 0.000000 0.000000 0.000000 0.000000 0.031696 0.000000
# 6 0.000000 0.000000 0.000000 0.000000 0.000000 0.032652
#
#
# Mechanical properties :
#
#
# Convention : Reuss Voigt Hill
#
# Bulk Modulus (GPa) = 11.59317 78.60809 45.10063
# Shear Modulus (GPa) = 8.67104 24.92042 16.79573
#
# Velocity S-wave (km/s) = 2.20897 3.74483 3.07435
# Velocity P-wave (km/s) = 3.60971 7.93311 6.16296
#
# Compressibility (1/GPa) = 0.08625768
#
# Stress axis : x y z
#
# Youngs Moduli (GPa) = 70.26340 4.97018 52.08381
#
# Poissons Ratio (x) = 0.17327 -0.09063
# Poissons Ratio (y) = 2.44957 2.13880
# Poissons Ratio (z) = -0.12226 0.20410
#
# Static dielectric constant tensor:
#      x y z
#    x 1.612550 0.000000 0.000000 
#    y 0.000000 1.600030 0.000000 
#    z 0.000000 0.000000 1.581450 
# 
# From -- ./inp_files/23684.got.cif
#   From: 2010.05.17/outbox.cif.g08.bks.cpg/sg42_12_cif.got.tgz:23684.got - 2010.06.03 19:03:34.
