data_PCOD9368403
_publ_section_title
;
Structure prediction by ZEFSAII (Michael W. Deem and Ramdas Pophale) SiO2 
 PCOD9368403
Probable space group: F M M 2
;
_chemical_formula_sum "Si O2"
_cell_formula_units_Z 128
_cell_length_a 18.349974
_cell_length_b 18.727444
_cell_length_c 22.191152
_cell_angle_alpha 90.000000
_cell_angle_beta 90.000000
_cell_angle_gamma 90.000000
_cell_volume 7625.947454
_symmetry_space_group_name_H-M "F M M 2"
_symmetry_group_IT_number 42
_symmetry_cell_setting 'orthorhombic'
loop_
_space_group_symop_operation_xyz
x,y,z
-x,-y,z
-x,y,z
x,-y,z
x,1/2+y,1/2+z
-x,1/2-y,1/2+z
-x,1/2+y,1/2+z
x,1/2-y,1/2+z
1/2+x,y,1/2+z
1/2-x,-y,1/2+z
1/2-x,y,1/2+z
1/2+x,-y,1/2+z
1/2+x,1/2+y,z
1/2-x,1/2-y,z
1/2-x,1/2+y,z
1/2+x,1/2-y,z
loop_
_atom_site_type_symbol
_atom_site_label
_atom_site_fract_x
_atom_site_fract_y
_atom_site_fract_z
Si Si1 0.307409 0.416463 0.317930
Si Si2 0.347819 0.917533 0.380349
Si Si3 0.584206 0.197651 0.871024
Si Si4 0.081391 0.666336 0.282595
Si Si5 0.309634 0.915116 0.672830
Si Si6 0.586167 0.302132 0.112259
Si Si7 0.189251 0.809134 0.675556
Si Si8 0.414139 0.808538 0.468879
O O1 0.323599 0.500000 0.327740
O O2 0.229060 0.401471 0.347989
O O3 0.364932 0.365602 0.349840
O O4 0.308115 0.405204 0.245637
O O5 0.406890 0.897448 0.329571
O O6 0.365005 0.868086 0.437156
O O7 0.350132 0.000000 0.396683
O O8 0.500000 0.175121 0.872683
O O9 0.590431 0.261815 0.822296
O O10 0.603192 0.234105 0.935015
O O11 0.142115 0.665170 0.231807
O O12 0.000000 0.665766 0.257137
O O13 0.376878 0.870718 0.644677
O O14 0.236262 0.875085 0.649925
O O15 0.311930 0.000000 0.660430
O O16 0.500000 0.296693 0.127038
O O17 0.632704 0.233476 0.133457
O O18 0.593760 0.307866 0.040270
O O19 0.250000 0.750000 0.693648
O O20 0.500000 0.822686 0.454836
#
# Coordination Sequence:
#
# PCOD9368403 Si02
#       8
#    16  16  16  16  16  16  16  16
#     4  10  20  34  53  78 109 145 178 217 271 329
#     4  10  20  34  51  76 111 142 175 219 268 324
#     4   9  18  33  51  76 107 136 174 225 269 316
#     4  10  19  29  50  80 103 135 179 219 266 318
#     4  10  21  37  55  79 115 150 181 221 277 331
#     4  10  21  38  59  83 109 142 188 233 275 323
#     4  10  19  33  53  76 107 144 180 222 273 316
#     4   9  20  37  56  78 105 140 179 223 273 317
#
# _framework density 16.784799
#
# number of rings (size 3 to 8) (size 9 to 14) (size 15 to 20)
#    0.000    2.250    1.250    3.000    0.000    5.000 
#    6.750    2.500    0.000    1.125    0.000    1.750 
#    0.000    0.000    0.000    0.000    0.000    0.000 
#
# Total GULP energy -178389.507059 kJ/mol
# GULP energy per Si atom -5574.672096 kJ/mol
# Density = 1.674660 g / cm^3
# Si number density = 16.784799 Si / 1000 Ang^3
#
#
#
# Elastic Constant Matrix: (Units=GPa)
#
#
# Indices 1 2 3 4 5 6 
#
# 1 109.1663 63.1758 46.1557 0.0000 0.0000 0.0000
# 2 63.1758 94.4584 42.1554 0.0000 0.0000 0.0000
# 3 46.1557 42.1554 62.4027 0.0000 0.0000 0.0000
# 4 0.0000 0.0000 0.0000 15.5872 0.0000 0.0000
# 5 0.0000 0.0000 0.0000 0.0000 24.0085 0.0000
# 6 0.0000 0.0000 0.0000 0.0000 0.0000 14.3037
#
#
#
# Elastic Compliance Matrix: (Units=1/GPa)
#
#
# Indices 1 2 3 4 5 6 
#
# 1 0.016803 -0.008148 -0.006924 0.000000 0.000000 0.000000
# 2 -0.008148 0.019107 -0.006881 0.000000 0.000000 0.000000
# 3 -0.006924 -0.006881 0.025794 0.000000 0.000000 0.000000
# 4 0.000000 0.000000 0.000000 0.064155 0.000000 0.000000
# 5 0.000000 0.000000 0.000000 0.000000 0.041652 0.000000
# 6 0.000000 0.000000 0.000000 0.000000 0.000000 0.069912
#
#
# Mechanical properties :
#
#
# Convention : Reuss Voigt Hill
#
# Bulk Modulus (GPa) = 56.18350 63.22235 59.70292
# Shear Modulus (GPa) = 17.40563 18.41592 17.91077
#
# Velocity S-wave (km/s) = 3.22372 3.31596 3.27017
# Velocity P-wave (km/s) = 6.88491 7.23941 7.06438
#
# Compressibility (1/GPa) = 0.01779882
#
# Stress axis : x y z
#
# Youngs Moduli (GPa) = 59.51205 52.33608 38.76807
#
# Poissons Ratio (x) = 0.42645 0.26843
# Poissons Ratio (y) = 0.48493 0.26676
# Poissons Ratio (z) = 0.41206 0.36012
#
# Static dielectric constant tensor:
#      x y z
#    x 1.576320 0.000000 0.000000 
#    y 0.000000 1.564290 0.000000 
#    z 0.000000 0.000000 1.556160 
# 
# From -- ./inp_files/29992.got.cif
#   From: 2010.05.17/outbox.cif.g08.bks.cpg/sg42_15_cif.got.tgz:29992.got - 2010.06.03 19:03:34.
