data_PCOD9368917
_publ_section_title
;
Structure prediction by ZEFSAII (Michael W. Deem and Ramdas Pophale) SiO2 
 PCOD9368917
Probable space group: F M M 2
;
_chemical_formula_sum "Si O2"
_cell_formula_units_Z 80
_cell_length_a 26.960098
_cell_length_b 13.501364
_cell_length_c 12.491856
_cell_angle_alpha 90.000000
_cell_angle_beta 90.000000
_cell_angle_gamma 90.000000
_cell_volume 4547.011807
_symmetry_space_group_name_H-M "F M M 2"
_symmetry_group_IT_number 42
_symmetry_cell_setting 'orthorhombic'
loop_
_space_group_symop_operation_xyz
x,y,z
-x,-y,z
-x,y,z
x,-y,z
x,1/2+y,1/2+z
-x,1/2-y,1/2+z
-x,1/2+y,1/2+z
x,1/2-y,1/2+z
1/2+x,y,1/2+z
1/2-x,-y,1/2+z
1/2-x,y,1/2+z
1/2+x,-y,1/2+z
1/2+x,1/2+y,z
1/2-x,1/2-y,z
1/2-x,1/2+y,z
1/2+x,1/2-y,z
loop_
_atom_site_type_symbol
_atom_site_label
_atom_site_fract_x
_atom_site_fract_y
_atom_site_fract_z
Si Si1 0.174017 0.198702 0.395910
Si Si2 0.500000 0.618075 0.145068
Si Si3 0.225098 0.113064 0.827308
Si Si4 0.580568 0.252573 0.761074
Si Si5 0.345134 0.615354 0.628659
Si Si6 0.500000 0.118853 0.387688
O O1 0.194558 0.311176 0.401403
O O2 0.217416 0.142164 0.331791
O O3 0.122013 0.200734 0.334729
O O4 0.168888 0.151403 0.511549
O O5 0.500000 0.500000 0.165354
O O6 0.546747 0.673054 0.199607
O O7 0.500000 0.632559 0.016333
O O8 0.201098 0.125904 0.710201
O O9 0.218417 0.000000 0.860634
O O10 0.610635 0.319305 0.676606
O O11 0.546838 0.325545 0.833587
O O12 0.359080 0.500000 0.627166
O O13 0.500000 0.000000 0.366594
#
# Coordination Sequence:
#
# PCOD9368917 Si02
#       6
#    16   8  16  16  16   8
#     4  10  20  34  56  81 110 142 178 224 268 310
#     4  10  22  38  56  80 110 140 174 222 274 322
#     4   9  20  36  53  77 110 147 183 216 257 315
#     4  10  21  37  56  81 108 137 178 223 269 321
#     4  10  20  36  57  81 109 142 181 222 265 317
#     4  10  20  38  60  78 102 138 176 218 272 330
#
# _framework density 17.593972000000001
#
# number of rings (size 3 to 8) (size 9 to 14) (size 15 to 20)
#    0.000    2.200    0.000    2.400    0.000    8.800 
#    0.000    1.000    0.000    7.200    0.000    0.000 
#    0.000    0.000    0.000    0.000    0.000    0.000 
#
# Total GULP energy -111586.629483 kJ/mol
# GULP energy per Si atom -5579.331474 kJ/mol
# Density = 1.755393 g / cm^3
# Si number density = 17.593972 Si / 1000 Ang^3
#
#
#
# Elastic Constant Matrix: (Units=GPa)
#
#
# Indices 1 2 3 4 5 6 
#
# 1 135.2626 62.4032 64.8352 0.0000 0.0000 0.0000
# 2 62.4032 135.7274 76.7075 0.0000 0.0000 0.0000
# 3 64.8352 76.7075 87.4738 0.0000 0.0000 0.0000
# 4 0.0000 0.0000 0.0000 33.1836 0.0000 0.0000
# 5 0.0000 0.0000 0.0000 0.0000 9.4530 0.0000
# 6 0.0000 0.0000 0.0000 0.0000 0.0000 13.8353
#
#
#
# Elastic Compliance Matrix: (Units=1/GPa)
#
#
# Indices 1 2 3 4 5 6 
#
# 1 0.011526 -0.000934 -0.007724 0.000000 0.000000 0.000000
# 2 -0.000934 0.014683 -0.012183 0.000000 0.000000 0.000000
# 3 -0.007724 -0.012183 0.027841 0.000000 0.000000 0.000000
# 4 0.000000 0.000000 0.000000 0.030135 0.000000 0.000000
# 5 0.000000 0.000000 0.000000 0.000000 0.105787 0.000000
# 6 0.000000 0.000000 0.000000 0.000000 0.000000 0.072279
#
#
# Mechanical properties :
#
#
# Convention : Reuss Voigt Hill
#
# Bulk Modulus (GPa) = 80.86073 85.15062 83.00568
# Shear Modulus (GPa) = 16.23086 21.59559 18.91322
#
# Velocity S-wave (km/s) = 3.04060 3.50729 3.28225
# Velocity P-wave (km/s) = 7.64108 8.05631 7.85144
#
# Compressibility (1/GPa) = 0.01236694
#
# Stress axis : x y z
#
# Youngs Moduli (GPa) = 86.75753 68.10820 35.91869
#
# Poissons Ratio (x) = 0.06362 0.27744
# Poissons Ratio (y) = 0.08104 0.43760
# Poissons Ratio (z) = 0.67013 0.82977
#
# Static dielectric constant tensor:
#      x y z
#    x 1.592200 0.000000 0.000000 
#    y 0.000000 1.598140 0.000000 
#    z 0.000000 0.000000 1.566570 
# 
# From -- ./inp_files/7010.got.cif
#   From: 2010.05.17/outbox.cif.g08.bks.cpg/sg42_4_cif.got.tgz:7010.got - 2010.06.03 19:03:34.
