data_PCOD9368247
_publ_section_title
;
Structure prediction by ZEFSAII (Michael W. Deem and Ramdas Pophale) SiO2 
 PCOD9368247
Probable space group: F M M 2
;
_chemical_formula_sum "Si O2"
_cell_formula_units_Z 128
_cell_length_a 16.714140
_cell_length_b 17.103286
_cell_length_c 23.094637
_cell_angle_alpha 90.000000
_cell_angle_beta 90.000000
_cell_angle_gamma 90.000000
_cell_volume 6601.988052
_symmetry_space_group_name_H-M "F M M 2"
_symmetry_group_IT_number 42
_symmetry_cell_setting 'orthorhombic'
loop_
_space_group_symop_operation_xyz
x,y,z
-x,-y,z
-x,y,z
x,-y,z
x,1/2+y,1/2+z
-x,1/2-y,1/2+z
-x,1/2+y,1/2+z
x,1/2-y,1/2+z
1/2+x,y,1/2+z
1/2-x,-y,1/2+z
1/2-x,y,1/2+z
1/2+x,-y,1/2+z
1/2+x,1/2+y,z
1/2-x,1/2-y,z
1/2-x,1/2+y,z
1/2+x,1/2-y,z
loop_
_atom_site_type_symbol
_atom_site_label
_atom_site_fract_x
_atom_site_fract_y
_atom_site_fract_z
Si Si1 0.699487 0.170272 0.110520
Si Si2 0.909462 0.358946 0.220161
Si Si3 0.590678 0.087794 0.540705
Si Si4 0.403413 0.760322 0.009184
Si Si5 0.902709 0.084755 0.842041
Si Si6 0.096093 0.259449 0.877500
Si Si7 0.841192 0.412170 0.657237
Si Si8 0.836343 0.292200 0.762455
O O1 0.750000 0.250000 0.122761
O O2 0.641886 0.146040 0.162812
O O3 0.646818 0.188504 0.054455
O O4 0.766639 0.104236 0.114029
O O5 0.878175 0.409475 0.274254
O O6 0.903402 0.271233 0.245026
O O7 0.000000 0.382125 0.207820
O O8 0.500000 0.085246 0.517652
O O9 0.623892 0.169367 0.516250
O O10 0.588777 0.099293 0.610540
O O11 0.624385 0.000000 0.529862
O O12 0.500000 0.763719 0.020668
O O13 0.388620 0.784131 0.943181
O O14 0.878915 0.167377 0.870426
O O15 0.000000 0.085277 0.842888
O O16 0.876916 0.000000 0.866039
O O17 0.141856 0.309656 0.828904
O O18 0.000000 0.263160 0.868343
O O19 0.841007 0.500000 0.678090
O O20 0.838291 0.357191 0.712925
O O21 0.750000 0.250000 0.760864
#
# Coordination Sequence:
#
# PCOD9368247 Si02
#       8
#    16  16  16  16  16  16  16  16
#     4  12  20  35  53  79 109 142 182 226 279 325
#     4  10  18  30  52  78 105 144 183 222 273 328
#     4   9  18  32  52  82 116 144 177 225 278 333
#     4  10  20  35  57  82 108 147 192 226 269 324
#     4   8  15  28  47  75 110 141 173 218 271 322
#     4   9  20  35  54  81 108 144 191 230 265 317
#     4  11  22  36  55  80 113 145 178 225 283 340
#     4  11  19  36  53  78 111 142 179 223 275 322
#
# _framework density 19.388100000000001
#
# number of rings (size 3 to 8) (size 9 to 14) (size 15 to 20)
#    0.000    2.000    3.750    1.500    0.000    3.500 
#    0.000    2.500    0.000    1.875    0.000    1.750 
#    0.000    0.000    0.000    0.000    0.000    0.000 
#
# Total GULP energy -178173.644598 kJ/mol
# GULP energy per Si atom -5567.926394 kJ/mol
# Density = 1.934397 g / cm^3
# Si number density = 19.388100 Si / 1000 Ang^3
#
#
#
# Elastic Constant Matrix: (Units=GPa)
#
#
# Indices 1 2 3 4 5 6 
#
# 1 40.7624 -5.9231 22.1599 0.0000 0.0000 0.0000
# 2 -5.9231 39.9038 13.4467 0.0000 0.0000 0.0000
# 3 22.1599 13.4467 84.9668 0.0000 0.0000 0.0000
# 4 0.0000 0.0000 0.0000 15.4561 0.0000 0.0000
# 5 0.0000 0.0000 0.0000 0.0000 22.0446 0.0000
# 6 0.0000 0.0000 0.0000 0.0000 0.0000 11.4297
#
#
#
# Elastic Compliance Matrix: (Units=1/GPa)
#
#
# Indices 1 2 3 4 5 6 
#
# 1 0.030648 0.007651 -0.009204 0.000000 0.000000 0.000000
# 2 0.007651 0.028382 -0.006487 0.000000 0.000000 0.000000
# 3 -0.009204 -0.006487 0.015196 0.000000 0.000000 0.000000
# 4 0.000000 0.000000 0.000000 0.064699 0.000000 0.000000
# 5 0.000000 0.000000 0.000000 0.000000 0.045362 0.000000
# 6 0.000000 0.000000 0.000000 0.000000 0.000000 0.087492
#
#
# Mechanical properties :
#
#
# Convention : Reuss Voigt Hill
#
# Bulk Modulus (GPa) = 17.19828 25.00000 21.09914
# Shear Modulus (GPa) = 16.27385 18.84940 17.56163
#
# Velocity S-wave (km/s) = 2.90034 3.12142 3.01291
# Velocity P-wave (km/s) = 4.48394 5.09053 4.79683
#
# Compressibility (1/GPa) = 0.05814535
#
# Stress axis : x y z
#
# Youngs Moduli (GPa) = 32.62897 35.23383 65.80534
#
# Poissons Ratio (x) = -0.26956 0.60566
# Poissons Ratio (y) = -0.24963 0.42688
# Poissons Ratio (z) = 0.30031 0.22856
#
# Static dielectric constant tensor:
#      x y z
#    x 1.755970 0.000000 0.000000 
#    y 0.000000 1.694220 0.000000 
#    z 0.000000 0.000000 1.736420 
# 
# From -- ./inp_files/30015.got.cif
#   From: 2010.05.17/outbox.cif.g08.bks.cpg/sg42_16_cif.got.tgz:30015.got - 2010.06.03 19:03:34.
