data_PCOD9368550
_publ_section_title
;
Structure prediction by ZEFSAII (Michael W. Deem and Ramdas Pophale) SiO2 
 PCOD9368550
Probable space group: F M M 2
;
_chemical_formula_sum "Si O2"
_cell_formula_units_Z 128
_cell_length_a 18.053067
_cell_length_b 20.053511
_cell_length_c 20.810114
_cell_angle_alpha 90.000000
_cell_angle_beta 90.000000
_cell_angle_gamma 90.000000
_cell_volume 7533.831000
_symmetry_space_group_name_H-M "F M M 2"
_symmetry_group_IT_number 42
_symmetry_cell_setting 'orthorhombic'
loop_
_space_group_symop_operation_xyz
x,y,z
-x,-y,z
-x,y,z
x,-y,z
x,1/2+y,1/2+z
-x,1/2-y,1/2+z
-x,1/2+y,1/2+z
x,1/2-y,1/2+z
1/2+x,y,1/2+z
1/2-x,-y,1/2+z
1/2-x,y,1/2+z
1/2+x,-y,1/2+z
1/2+x,1/2+y,z
1/2-x,1/2-y,z
1/2-x,1/2+y,z
1/2+x,1/2-y,z
loop_
_atom_site_type_symbol
_atom_site_label
_atom_site_fract_x
_atom_site_fract_y
_atom_site_fract_z
Si Si1 0.087147 0.282736 0.406780
Si Si2 0.588838 0.925580 0.828684
Si Si3 0.410126 0.712768 0.273571
Si Si4 0.145265 0.924211 0.879772
Si Si5 0.695881 0.424598 0.446953
Si Si6 0.586569 0.923987 0.239140
Si Si7 0.588884 0.701725 0.653090
Si Si8 0.174839 0.290673 0.020485
O O1 0.112175 0.254941 0.336770
O O2 0.101469 0.361944 0.409331
O O3 0.130974 0.244763 0.462272
O O4 0.000000 0.268972 0.412715
O O5 0.500000 0.922267 0.836042
O O6 0.612091 0.863809 0.784417
O O7 0.627899 0.917220 0.897342
O O8 0.608064 0.000000 0.804739
O O9 0.500000 0.715538 0.272287
O O10 0.385206 0.745459 0.207193
O O11 0.229220 0.918583 0.904745
O O12 0.135619 0.917081 0.803004
O O13 0.119134 0.000000 0.895318
O O14 0.694021 0.500000 0.473633
O O15 0.692109 0.366097 0.498409
O O16 0.500000 0.912469 0.258935
O O17 0.603910 0.870198 0.185191
O O18 0.592281 0.000000 0.216051
O O19 0.500000 0.707903 0.645285
O O20 0.627802 0.710073 0.585375
O O21 0.250000 0.250000 0.030058
#
# Coordination Sequence:
#
# PCOD9368550 Si02
#       8
#    16  16  16  16  16  16  16  16
#     4  11  20  34  60  87 107 141 189 235 281 333
#     4   9  17  31  54  83 111 140 179 226 275 332
#     4   9  17  32  55  82 108 136 175 228 282 326
#     4  10  19  33  55  85 118 147 178 227 285 334
#     4  10  21  36  55  80 115 150 184 227 282 335
#     4   9  17  32  56  85 113 140 176 224 280 340
#     4  10  21  37  55  78 111 146 183 229 281 332
#     4  12  24  39  53  78 112 154 191 231 278 332
#
# _framework density 16.990027999999999
#
# number of rings (size 3 to 8) (size 9 to 14) (size 15 to 20)
#    0.000    2.000    3.750    0.750    0.000    1.750 
#    2.250    0.625    0.000    1.500    0.000    1.750 
#    0.000    0.000    0.000    0.000    0.000    0.000 
#
# Total GULP energy -178432.584778 kJ/mol
# GULP energy per Si atom -5576.018274 kJ/mol
# Density = 1.695136 g / cm^3
# Si number density = 16.990028 Si / 1000 Ang^3
#
#
#
# Elastic Constant Matrix: (Units=GPa)
#
#
# Indices 1 2 3 4 5 6 
#
# 1 40.0597 36.7688 40.1230 0.0000 0.0000 0.0000
# 2 36.7688 146.0685 73.3858 0.0000 0.0000 0.0000
# 3 40.1230 73.3858 119.0678 0.0000 0.0000 0.0000
# 4 0.0000 0.0000 0.0000 15.7596 0.0000 0.0000
# 5 0.0000 0.0000 0.0000 0.0000 11.4296 0.0000
# 6 0.0000 0.0000 0.0000 0.0000 0.0000 20.7482
#
#
#
# Elastic Compliance Matrix: (Units=1/GPa)
#
#
# Indices 1 2 3 4 5 6 
#
# 1 0.039838 -0.004756 -0.010493 0.000000 0.000000 0.000000
# 2 -0.004756 0.010485 -0.004859 0.000000 0.000000 0.000000
# 3 -0.010493 -0.004859 0.014929 0.000000 0.000000 0.000000
# 4 0.000000 0.000000 0.000000 0.063453 0.000000 0.000000
# 5 0.000000 0.000000 0.000000 0.000000 0.087492 0.000000
# 6 0.000000 0.000000 0.000000 0.000000 0.000000 0.048197
#
#
# Mechanical properties :
#
#
# Convention : Reuss Voigt Hill
#
# Bulk Modulus (GPa) = 39.94437 67.30567 53.62502
# Shear Modulus (GPa) = 15.97664 19.91536 17.94600
#
# Velocity S-wave (km/s) = 3.06985 3.42743 3.25355
# Velocity P-wave (km/s) = 6.01056 7.44069 6.76353
#
# Compressibility (1/GPa) = 0.02503482
#
# Stress axis : x y z
#
# Youngs Moduli (GPa) = 25.10173 95.37641 66.98192
#
# Poissons Ratio (x) = 0.45365 0.70283
# Poissons Ratio (y) = 0.11939 0.32549
# Poissons Ratio (z) = 0.26339 0.46347
#
# Static dielectric constant tensor:
#      x y z
#    x 1.574990 0.000000 0.000000 
#    y 0.000000 1.609490 0.000000 
#    z 0.000000 0.000000 1.533800 
# 
# From -- ./inp_files/21932.got.cif
#   From: 2010.05.17/outbox.cif.g08.bks.cpg/sg42_11_cif.got.tgz:21932.got - 2010.06.03 19:03:34.
