data_PCOD9368097
_publ_section_title
;
Structure prediction by ZEFSAII (Michael W. Deem and Ramdas Pophale) SiO2 
 PCOD9368097
Probable space group: F M M 2
;
_chemical_formula_sum "Si O2"
_cell_formula_units_Z 80
_cell_length_a 14.403055
_cell_length_b 42.807670
_cell_length_c 5.524286
_cell_angle_alpha 90.000000
_cell_angle_beta 90.000000
_cell_angle_gamma 90.000000
_cell_volume 3406.060546
_symmetry_space_group_name_H-M "F M M 2"
_symmetry_group_IT_number 42
_symmetry_cell_setting 'orthorhombic'
loop_
_space_group_symop_operation_xyz
x,y,z
-x,-y,z
-x,y,z
x,-y,z
x,1/2+y,1/2+z
-x,1/2-y,1/2+z
-x,1/2+y,1/2+z
x,1/2-y,1/2+z
1/2+x,y,1/2+z
1/2-x,-y,1/2+z
1/2-x,y,1/2+z
1/2+x,-y,1/2+z
1/2+x,1/2+y,z
1/2-x,1/2-y,z
1/2-x,1/2+y,z
1/2+x,1/2-y,z
loop_
_atom_site_type_symbol
_atom_site_label
_atom_site_fract_x
_atom_site_fract_y
_atom_site_fract_z
Si Si1 0.612161 0.731974 0.150520
Si Si2 0.639010 0.562150 0.648285
Si Si3 0.349580 0.338893 0.163588
Si Si4 0.360856 0.136029 0.163442
Si Si5 0.849920 0.462923 0.648234
O O1 0.500000 0.727078 0.150903
O O2 0.634648 0.750296 0.399298
O O3 0.659920 0.698272 0.154068
O O4 0.625660 0.599099 0.653680
O O5 0.749176 0.553878 0.646456
O O6 0.603643 0.547910 0.397078
O O7 0.603908 0.547077 0.896938
O O8 0.396010 0.348451 0.416327
O O9 0.249164 0.355668 0.167219
O O10 0.396558 0.350212 0.916014
O O11 0.835834 0.500000 0.652198
#
# Coordination Sequence:
#
# PCOD9368097 Si02
#       5
#    16  16  16  16  16
#     4  10  21  37  54  70  89 115 146 180 222 268
#     4  10  16  25  36  51  80 114 149 179 211 253
#     4  10  18  32  48  67  90 114 148 183 212 266
#     4  10  19  30  45  67  92 121 152 178 220 270
#     4  10  16  22  33  51  75 112 159 186 204 239
#
# _framework density 23.487545999999998
#
# number of rings (size 3 to 8) (size 9 to 14) (size 15 to 20)
#    0.000    2.000    0.000   10.200    0.000    0.000 
#    0.000   12.000    0.000    0.000    0.000    0.000 
#    0.000    0.000    0.000    0.000    0.000  563.000 
#
# Total GULP energy -111816.283500 kJ/mol
# GULP energy per Si atom -5590.814175 kJ/mol
# Density = 2.343409 g / cm^3
# Si number density = 23.487546 Si / 1000 Ang^3
#
#
#
# Elastic Constant Matrix: (Units=GPa)
#
#
# Indices 1 2 3 4 5 6 
#
# 1 86.1245 -19.6674 8.9720 -0.0001 0.0000 0.0000
# 2 -19.6674 87.6353 -14.0543 0.0051 0.0055 -0.0019
# 3 8.9720 -14.0543 188.3536 0.0066 0.0070 -0.0026
# 4 -0.0001 0.0051 0.0066 53.8536 -0.0005 0.0001
# 5 0.0000 0.0055 0.0070 -0.0005 -27.6043 0.0003
# 6 0.0000 -0.0019 -0.0026 0.0001 0.0003 -53.0861
#
#
#
# Elastic Compliance Matrix: (Units=1/GPa)
#
#
# Indices 1 2 3 4 5 6 
#
# 1 0.012266 0.002691 -0.000383 0.000000 0.000000 0.000000
# 2 0.002691 0.012140 0.000778 -0.000001 0.000003 0.000000
# 3 -0.000383 0.000778 0.005385 -0.000001 0.000002 0.000000
# 4 0.000000 -0.000001 -0.000001 0.018569 0.000000 0.000000
# 5 0.000000 0.000003 0.000002 0.000000 -0.036226 0.000000
# 6 0.000000 0.000000 0.000000 0.000000 0.000000 -0.018837
#
#
# Mechanical properties :
#
#
# Convention : Reuss Voigt Hill
#
# Bulk Modulus (GPa) = 27.80760 34.73488 31.27124
# Shear Modulus (GPa) = -5633.26904 20.42350 -2806.42277
#
# Velocity S-wave (km/s) = -49.02666 2.95201 -34.60418
# Velocity P-wave (km/s) = 56.50622 5.14197 39.79016
#
# Compressibility (1/GPa) = 0.03596139
#
# Stress axis : x y z
#
# Youngs Moduli (GPa) = 81.52881 82.37503 185.68540
#
# Poissons Ratio (x) = -0.22169 0.07120
# Poissons Ratio (y) = -0.21941 -0.14439
# Poissons Ratio (z) = 0.03126 -0.06406
#
# Static dielectric constant tensor:
#      x y z
#    x 1.930500 0.000000 0.000000 
#    y 0.000000 1.767520 0.000000 
#    z 0.000000 0.000000 1.997880 
# 
# From -- ./inp_files/997.got.cif
#   From: 2010.05.17/outbox.cif.g08.bks.cpg/sg42_1_cif.got.tgz:997.got - 2010.06.03 19:03:34.
