data_PCOD9368512
_publ_section_title
;
Structure prediction by ZEFSAII (Michael W. Deem and Ramdas Pophale) SiO2 
 PCOD9368512
Probable space group: F M M 2
;
_chemical_formula_sum "Si O2"
_cell_formula_units_Z 104
_cell_length_a 11.607901
_cell_length_b 25.583892
_cell_length_c 16.769877
_cell_angle_alpha 90.000000
_cell_angle_beta 90.000000
_cell_angle_gamma 90.000000
_cell_volume 4980.239010
_symmetry_space_group_name_H-M "F M M 2"
_symmetry_group_IT_number 42
_symmetry_cell_setting 'orthorhombic'
loop_
_space_group_symop_operation_xyz
x,y,z
-x,-y,z
-x,y,z
x,-y,z
x,1/2+y,1/2+z
-x,1/2-y,1/2+z
-x,1/2+y,1/2+z
x,1/2-y,1/2+z
1/2+x,y,1/2+z
1/2-x,-y,1/2+z
1/2-x,y,1/2+z
1/2+x,-y,1/2+z
1/2+x,1/2+y,z
1/2-x,1/2-y,z
1/2-x,1/2+y,z
1/2+x,1/2-y,z
loop_
_atom_site_type_symbol
_atom_site_label
_atom_site_fract_x
_atom_site_fract_y
_atom_site_fract_z
Si Si1 0.131596 0.000000 0.505040
Si Si2 0.129523 0.500000 0.709963
Si Si3 0.798076 0.386221 0.354092
Si Si4 0.873118 0.386438 0.707381
Si Si5 0.195213 0.000000 0.857152
Si Si6 0.127181 0.222134 0.910351
Si Si7 0.205961 0.696436 0.586914
Si Si8 0.633489 0.614217 0.508747
O O1 0.143549 0.056072 0.547340
O O2 0.223826 0.000000 0.434821
O O3 0.000000 0.000000 0.472389
O O4 0.138995 0.555880 0.667048
O O5 0.220661 0.500000 0.780809
O O6 0.000000 0.500000 0.744758
O O7 0.725720 0.381637 0.272961
O O8 0.861425 0.442619 0.355932
O O9 0.870621 0.334358 0.368451
O O10 0.706087 0.386668 0.427037
O O11 0.865530 0.340133 0.644745
O O12 0.000000 0.385251 0.745846
O O13 0.250000 0.250000 0.887986
O O14 0.000000 0.246980 0.895354
O O15 0.140694 0.212303 0.005505
O O16 0.250000 0.750000 0.625267
O O17 0.312911 0.659967 0.561094
O O18 0.500000 0.623864 0.492756
#
# Coordination Sequence:
#
# PCOD9368512 Si02
#       8
#     8   8  16  16   8  16  16  16
#     4   8  13  23  45  74  99 126 168 225 280 332
#     4   8  15  27  47  74 103 140 182 223 272 328
#     4   9  18  32  55  82 106 136 177 224 277 332
#     4  10  19  33  53  78 109 143 183 231 279 327
#     4   8  13  26  47  76 110 136 163 212 275 338
#     4  10  22  40  60  82 111 148 190 232 275 329
#     4  10  22  35  50  73 105 147 188 228 277 332
#     4   9  17  31  51  75 102 134 177 228 282 337
#
# _framework density 20.882532000000001
#
# number of rings (size 3 to 8) (size 9 to 14) (size 15 to 20)
#    0.000    2.769    0.000    1.154    0.000   11.692 
#    0.000    1.923    0.000    0.000    0.000    1.077 
#    0.000    0.000    0.000    0.000    0.000    0.000 
#
# Total GULP energy -144778.762441 kJ/mol
# GULP energy per Si atom -5568.413940 kJ/mol
# Density = 2.083500 g / cm^3
# Si number density = 20.882532 Si / 1000 Ang^3
#
#
#
# Elastic Constant Matrix: (Units=GPa)
#
#
# Indices 1 2 3 4 5 6 
#
# 1 115.0055 38.2383 10.2924 0.0000 0.0000 0.0000
# 2 38.2383 156.8242 21.1510 0.0000 0.0000 0.0000
# 3 10.2924 21.1510 15.7852 0.0000 0.0000 0.0000
# 4 0.0000 0.0000 0.0000 38.4422 0.0000 0.0000
# 5 0.0000 0.0000 0.0000 0.0000 0.7755 0.0000
# 6 0.0000 0.0000 0.0000 0.0000 0.0000 19.4045
#
#
#
# Elastic Compliance Matrix: (Units=1/GPa)
#
#
# Indices 1 2 3 4 5 6 
#
# 1 0.009649 -0.001836 -0.003831 0.000000 0.000000 0.000000
# 2 -0.001836 0.008132 -0.009700 0.000000 0.000000 0.000000
# 3 -0.003831 -0.009700 0.078846 0.000000 0.000000 0.000000
# 4 0.000000 0.000000 0.000000 0.026013 0.000000 0.000000
# 5 0.000000 0.000000 0.000000 0.000000 1.289496 0.000000
# 6 0.000000 0.000000 0.000000 0.000000 0.000000 0.051534
#
#
# Mechanical properties :
#
#
# Convention : Reuss Voigt Hill
#
# Bulk Modulus (GPa) = 15.17613 47.44204 31.30909
# Shear Modulus (GPa) = 3.29735 26.25331 14.77533
#
# Velocity S-wave (km/s) = 1.25795 3.54953 2.66286
# Velocity P-wave (km/s) = 3.06481 6.29021 4.94772
#
# Compressibility (1/GPa) = 0.06589296
#
# Stress axis : x y z
#
# Youngs Moduli (GPa) = 103.64286 122.96437 12.68298
#
# Poissons Ratio (x) = 0.22575 0.04859
# Poissons Ratio (y) = 0.19028 0.12302
# Poissons Ratio (z) = 0.39707 1.19274
#
# Static dielectric constant tensor:
#      x y z
#    x 1.778210 0.000000 0.000000 
#    y 0.000000 1.827890 0.000000 
#    z 0.000000 0.000000 1.715910 
# 
# From -- ./inp_files/19321.got.cif
#   From: 2010.05.17/outbox.cif.g08.bks.cpg/sg42_10_cif.got.tgz:19321.got - 2010.06.03 19:03:34.
