data_PCOD9368301
_publ_section_title
;
Structure prediction by ZEFSAII (Michael W. Deem and Ramdas Pophale) SiO2 
 PCOD9368301
Probable space group: F M M 2
;
_chemical_formula_sum "Si O2"
_cell_formula_units_Z 96
_cell_length_a 15.573876
_cell_length_b 20.651053
_cell_length_c 13.156853
_cell_angle_alpha 90.000000
_cell_angle_beta 90.000000
_cell_angle_gamma 90.000000
_cell_volume 4231.466785
_symmetry_space_group_name_H-M "F M M 2"
_symmetry_group_IT_number 42
_symmetry_cell_setting 'orthorhombic'
loop_
_space_group_symop_operation_xyz
x,y,z
-x,-y,z
-x,y,z
x,-y,z
x,1/2+y,1/2+z
-x,1/2-y,1/2+z
-x,1/2+y,1/2+z
x,1/2-y,1/2+z
1/2+x,y,1/2+z
1/2-x,-y,1/2+z
1/2-x,y,1/2+z
1/2+x,-y,1/2+z
1/2+x,1/2+y,z
1/2-x,1/2-y,z
1/2-x,1/2+y,z
1/2+x,1/2-y,z
loop_
_atom_site_type_symbol
_atom_site_label
_atom_site_fract_x
_atom_site_fract_y
_atom_site_fract_z
Si Si1 0.815298 0.692492 0.756840
Si Si2 0.000000 0.793308 0.936598
Si Si3 0.317097 0.428393 0.124029
Si Si4 0.644889 0.072438 0.025488
Si Si5 0.500000 0.568869 0.354883
Si Si6 0.161233 0.713178 0.997411
Si Si7 0.000000 0.206921 0.243299
Si Si8 0.000000 0.572569 0.518647
O O1 0.750000 0.750000 0.740428
O O2 0.790942 0.624720 0.706417
O O3 0.825900 0.689110 0.879231
O O4 0.904667 0.710968 0.701505
O O5 0.084231 0.763941 0.988744
O O6 0.000000 0.763435 0.825802
O O7 0.000000 0.869911 0.938790
O O8 0.311913 0.500000 0.169938
O O9 0.249063 0.426629 0.030540
O O10 0.413567 0.419432 0.084444
O O11 0.625283 0.000000 0.074702
O O12 0.583974 0.069299 0.926815
O O13 0.631768 0.148321 0.058457
O O14 0.500000 0.500000 0.297118
O O15 0.500000 0.634432 0.292015
O O16 0.250000 0.750000 0.024739
O O17 0.000000 0.500000 0.476589
#
# Coordination Sequence:
#
# PCOD9368301 Si02
#       8
#    16   8  16  16   8  16   8   8
#     4  10  21  36  54  81 113 150 186 233 284 335
#     4  10  18  32  53  80 106 135 173 231 276 331
#     4  10  22  37  54  78 115 153 190 233 279 334
#     4  10  19  34  54  83 114 142 185 240 285 334
#     4  10  18  33  57  86 112 142 184 236 285 328
#     4  10  19  33  54  78 107 142 184 230 283 329
#     4  10  19  38  58  85 113 142 191 237 282 325
#     4  10  21  37  54  79 111 149 188 232 285 336
#
# _framework density 22.687168
#
# number of rings (size 3 to 8) (size 9 to 14) (size 15 to 20)
#    0.000    2.000    3.333    1.500    0.000    3.333 
#    0.000    0.833    0.000    6.000    0.000    0.000 
#    0.000    6.667    0.000    0.000    0.000    0.000 
#
# Total GULP energy -133664.136658 kJ/mol
# GULP energy per Si atom -5569.339027 kJ/mol
# Density = 2.263553 g / cm^3
# Si number density = 22.687168 Si / 1000 Ang^3
#
#
#
# Elastic Constant Matrix: (Units=GPa)
#
#
# Indices 1 2 3 4 5 6 
#
# 1 144.9463 33.8081 15.5205 0.0000 0.0000 0.0000
# 2 33.8081 215.6982 27.0569 0.0000 0.0000 0.0000
# 3 15.5205 27.0569 73.1852 0.0000 0.0000 0.0000
# 4 0.0000 0.0000 0.0000 17.8764 0.0000 0.0000
# 5 0.0000 0.0000 0.0000 0.0000 -135.5371 0.0000
# 6 0.0000 0.0000 0.0000 0.0000 0.0000 28.0356
#
#
#
# Elastic Compliance Matrix: (Units=1/GPa)
#
#
# Indices 1 2 3 4 5 6 
#
# 1 0.007256 -0.000990 -0.001173 0.000000 0.000000 0.000000
# 2 -0.000990 0.004997 -0.001637 0.000000 0.000000 0.000000
# 3 -0.001173 -0.001637 0.014518 0.000000 0.000000 0.000000
# 4 0.000000 0.000000 0.000000 0.055940 0.000000 0.000000
# 5 0.000000 0.000000 0.000000 0.000000 -0.007378 0.000000
# 6 0.000000 0.000000 0.000000 0.000000 0.000000 0.035669
#
#
# Mechanical properties :
#
#
# Convention : Reuss Voigt Hill
#
# Bulk Modulus (GPa) = 52.16468 65.17786 58.67127
# Shear Modulus (GPa) = 40.00284 5.90459 22.95372
#
# Velocity S-wave (km/s) = 4.20365 1.61501 3.18425
# Velocity P-wave (km/s) = 6.82670 5.68058 6.27984
#
# Compressibility (1/GPa) = 0.01917006
#
# Stress axis : x y z
#
# Youngs Moduli (GPa) = 137.82426 200.13287 68.88017
#
# Poissons Ratio (x) = 0.19816 0.08077
# Poissons Ratio (y) = 0.13646 0.11278
# Poissons Ratio (z) = 0.16162 0.32768
#
# Static dielectric constant tensor:
#      x y z
#    x 1.933260 0.000000 0.000000 
#    y 0.000000 1.888510 0.000000 
#    z 0.000000 0.000000 1.894910 
# 
# From -- ./inp_files/14070.got.cif
#   From: 2010.05.17/outbox.cif.g08.bks.cpg/sg42_8_cif.got.tgz:14070.got - 2010.06.03 19:03:34.
