data_PCOD9368520
_publ_section_title
;
Structure prediction by ZEFSAII (Michael W. Deem and Ramdas Pophale) SiO2 
 PCOD9368520
Probable space group: F M M 2
;
_chemical_formula_sum "Si O2"
_cell_formula_units_Z 96
_cell_length_a 19.758777
_cell_length_b 30.311925
_cell_length_c 8.572237
_cell_angle_alpha 90.000000
_cell_angle_beta 90.000000
_cell_angle_gamma 90.000000
_cell_volume 5134.140474
_symmetry_space_group_name_H-M "F M M 2"
_symmetry_group_IT_number 42
_symmetry_cell_setting 'orthorhombic'
loop_
_space_group_symop_operation_xyz
x,y,z
-x,-y,z
-x,y,z
x,-y,z
x,1/2+y,1/2+z
-x,1/2-y,1/2+z
-x,1/2+y,1/2+z
x,1/2-y,1/2+z
1/2+x,y,1/2+z
1/2-x,-y,1/2+z
1/2-x,y,1/2+z
1/2+x,-y,1/2+z
1/2+x,1/2+y,z
1/2-x,1/2-y,z
1/2-x,1/2+y,z
1/2+x,1/2-y,z
loop_
_atom_site_type_symbol
_atom_site_label
_atom_site_fract_x
_atom_site_fract_y
_atom_site_fract_z
Si Si1 0.919940 0.267892 0.936580
Si Si2 0.580368 0.601962 0.585242
Si Si3 0.181060 0.551035 0.247142
Si Si4 0.078043 0.186922 0.768091
Si Si5 0.279732 0.109074 0.529028
Si Si6 0.838900 0.351516 0.829288
O O1 0.895023 0.218227 0.903902
O O2 0.000000 0.271360 0.888311
O O3 0.919256 0.281251 0.117165
O O4 0.873273 0.303989 0.851850
O O5 0.500000 0.603697 0.579075
O O6 0.610254 0.557887 0.657782
O O7 0.606601 0.641203 0.702465
O O8 0.610619 0.614371 0.417153
O O9 0.198367 0.500000 0.266268
O O10 0.233656 0.576914 0.135970
O O11 0.181885 0.576839 0.410463
O O12 0.000000 0.177094 0.808082
O O13 0.230861 0.141084 0.427073
O O14 0.325143 0.135822 0.651150
#
# Coordination Sequence:
#
# PCOD9368520 Si02
#       6
#    16  16  16  16  16  16
#     4   9  16  28  49  73  95 124 163 202 242 287
#     4   9  18  33  52  74 101 130 160 200 251 296
#     4  10  19  33  54  74  96 125 161 205 245 294
#     4   8  15  27  44  69  96 123 158 196 232 281
#     4   9  19  33  51  75  97 127 169 204 241 285
#     4   9  17  32  52  71  99 131 165 205 240 286
#
# _framework density 18.698359
#
# number of rings (size 3 to 8) (size 9 to 14) (size 15 to 20)
#    0.000    3.000    0.000    2.000    0.000    1.667 
#    0.000    4.167    0.000   34.000    0.000    0.000 
#    0.000    0.000    0.000    0.000    0.000    0.000 
#
# Total GULP energy -133631.694771 kJ/mol
# GULP energy per Si atom -5567.987282 kJ/mol
# Density = 1.865580 g / cm^3
# Si number density = 18.698359 Si / 1000 Ang^3
#
#
#
# Elastic Constant Matrix: (Units=GPa)
#
#
# Indices 1 2 3 4 5 6 
#
# 1 50.9298 13.3044 16.4947 0.0000 0.0000 0.0000
# 2 13.3044 46.7743 24.4736 0.0000 0.0000 0.0000
# 3 16.4947 24.4736 60.9310 0.0000 -0.0001 0.0000
# 4 0.0000 0.0000 0.0000 21.0229 0.0000 0.0000
# 5 0.0000 0.0000 -0.0001 0.0000 19.2744 0.0000
# 6 0.0000 0.0000 0.0000 0.0000 0.0000 19.6842
#
#
#
# Elastic Compliance Matrix: (Units=1/GPa)
#
#
# Indices 1 2 3 4 5 6 
#
# 1 0.022096 -0.003995 -0.004377 0.000000 0.000000 0.000000
# 2 -0.003995 0.027790 -0.010081 0.000000 0.000000 0.000000
# 3 -0.004377 -0.010081 0.021646 0.000000 0.000000 0.000000
# 4 0.000000 0.000000 0.000000 0.047567 0.000000 0.000000
# 5 0.000000 0.000000 0.000000 0.000000 0.051882 0.000000
# 6 0.000000 0.000000 0.000000 0.000000 0.000000 0.050802
#
#
# Mechanical properties :
#
#
# Convention : Reuss Voigt Hill
#
# Bulk Modulus (GPa) = 28.87930 29.68670 29.28300
# Shear Modulus (GPa) = 18.50268 18.95380 18.72824
#
# Velocity S-wave (km/s) = 3.14910 3.18726 3.16824
# Velocity P-wave (km/s) = 5.35731 5.42733 5.39244
#
# Compressibility (1/GPa) = 0.03462688
#
# Stress axis : x y z
#
# Youngs Moduli (GPa) = 45.25701 35.98413 46.19793
#
# Poissons Ratio (x) = 0.14375 0.20221
# Poissons Ratio (y) = 0.18079 0.46571
# Poissons Ratio (z) = 0.19809 0.36275
#
# Static dielectric constant tensor:
#      x y z
#    x 1.676010 0.000000 0.000000 
#    y 0.000000 1.637020 0.000000 
#    z 0.000000 0.000000 1.665100 
# 
# From -- ./inp_files/4791.got.cif
#   From: 2010.05.17/outbox.cif.g08.bks.cpg/sg42_3_cif.got.tgz:4791.got - 2010.06.03 19:03:34.
