data_PCOD9368106
_publ_section_title
;
Structure prediction by ZEFSAII (Michael W. Deem and Ramdas Pophale) SiO2 
 PCOD9368106
Probable space group: F M M 2
;
_chemical_formula_sum "Si O2"
_cell_formula_units_Z 84
_cell_length_a 20.969274
_cell_length_b 25.921955
_cell_length_c 7.985858
_cell_angle_alpha 90.000000
_cell_angle_beta 90.000000
_cell_angle_gamma 90.000000
_cell_volume 4340.829526
_symmetry_space_group_name_H-M "F M M 2"
_symmetry_group_IT_number 42
_symmetry_cell_setting 'orthorhombic'
loop_
_space_group_symop_operation_xyz
x,y,z
-x,-y,z
-x,y,z
x,-y,z
x,1/2+y,1/2+z
-x,1/2-y,1/2+z
-x,1/2+y,1/2+z
x,1/2-y,1/2+z
1/2+x,y,1/2+z
1/2-x,-y,1/2+z
1/2-x,y,1/2+z
1/2+x,-y,1/2+z
1/2+x,1/2+y,z
1/2-x,1/2-y,z
1/2-x,1/2+y,z
1/2+x,1/2-y,z
loop_
_atom_site_type_symbol
_atom_site_label
_atom_site_fract_x
_atom_site_fract_y
_atom_site_fract_z
Si Si1 0.344313 0.500000 0.388101
Si Si2 0.106451 0.922857 0.905848
Si Si3 0.792429 0.500000 0.508716
Si Si4 0.426228 0.298021 0.394880
Si Si5 0.574127 0.812736 0.291876
Si Si6 0.000000 0.500000 0.280100
Si Si7 0.425836 0.407627 0.289640
O O1 0.283206 0.500000 0.504430
O O2 0.315523 0.500000 0.200090
O O3 0.387583 0.449138 0.398099
O O4 0.078828 0.924267 0.096103
O O5 0.174486 0.951015 0.919109
O O6 0.109534 0.863991 0.849065
O O7 0.056366 0.955143 0.796188
O O8 0.500000 0.294025 0.334650
O O9 0.398887 0.241514 0.359346
O O10 0.426128 0.308651 0.591822
O O11 0.399880 0.349431 0.307883
O O12 0.500000 0.818217 0.350338
O O13 0.500000 0.408030 0.341334
#
# Coordination Sequence:
#
# PCOD9368106 Si02
#       7
#     8  16   8  16  16   4  16
#     4  10  21  36  55  71 108 138 179 211 259 310
#     4  10  18  30  54  74 106 133 179 212 256 302
#     4   9  22  35  50  77  98 146 175 211 254 315
#     4   9  19  29  46  74 108 134 173 204 267 314
#     4  10  17  30  47  73 106 143 166 214 258 312
#     4  10  16  28  48  76  96 132 166 216 242 296
#     4  10  18  32  54  81 102 135 172 222 259 306
#
# _framework density 19.351140999999998
#
# number of rings (size 3 to 8) (size 9 to 14) (size 15 to 20)
#    0.000    2.286    1.905    2.000    0.000    4.571 
#    0.000    0.952    0.000    1.143    0.000    8.000 
#    0.000    0.000    0.000    0.000    0.000    0.000 
#
# Total GULP energy -116934.076088 kJ/mol
# GULP energy per Si atom -5568.289338 kJ/mol
# Density = 1.930710 g / cm^3
# Si number density = 19.351141 Si / 1000 Ang^3
#
#
#
# Elastic Constant Matrix: (Units=GPa)
#
#
# Indices 1 2 3 4 5 6 
#
# 1 50.0752 38.7734 10.3599 0.0006 -0.0004 -0.0003
# 2 38.7734 173.8876 12.8114 0.0005 -0.0004 -0.0002
# 3 10.3599 12.8114 30.3216 0.0006 -0.0005 -0.0002
# 4 0.0006 0.0005 0.0006 19.5326 -0.0003 -0.0001
# 5 -0.0004 -0.0004 -0.0005 -0.0003 16.7136 0.0001
# 6 -0.0003 -0.0002 -0.0002 -0.0001 0.0001 10.3248
#
#
#
# Elastic Compliance Matrix: (Units=1/GPa)
#
#
# Indices 1 2 3 4 5 6 
#
# 1 0.025308 -0.005167 -0.006464 0.000000 0.000000 0.000000
# 2 -0.005167 0.006991 -0.001188 0.000000 0.000000 0.000000
# 3 -0.006464 -0.001188 0.035690 -0.000001 0.000001 0.000001
# 4 0.000000 0.000000 -0.000001 0.051197 0.000001 0.000001
# 5 0.000000 0.000000 0.000001 0.000001 0.059831 -0.000001
# 6 0.000000 0.000000 0.000001 0.000001 -0.000001 0.096855
#
#
# Mechanical properties :
#
#
# Convention : Reuss Voigt Hill
#
# Bulk Modulus (GPa) = 23.61223 42.01929 32.81576
# Shear Modulus (GPa) = 15.84152 22.13684 18.98918
#
# Velocity S-wave (km/s) = 2.86428 3.38591 3.13596
# Velocity P-wave (km/s) = 4.81324 6.08663 5.48700
#
# Compressibility (1/GPa) = 0.04235094
#
# Stress axis : x y z
#
# Youngs Moduli (GPa) = 39.51313 143.05107 28.01877
#
# Poissons Ratio (x) = 0.73914 0.18111
# Poissons Ratio (y) = 0.20416 0.03329
# Poissons Ratio (z) = 0.25541 0.16998
#
# Static dielectric constant tensor:
#      x y z
#    x 1.646840 0.000000 0.000000 
#    y 0.000000 1.709160 0.000000 
#    z 0.000000 0.000000 1.721280 
# 
# From -- ./inp_files/4003.got.cif
#   From: 2010.05.17/outbox.cif.g08.bks.cpg/sg42_3_cif.got.tgz:4003.got - 2010.06.03 19:03:34.
