data_PCOD9368100
_publ_section_title
;
Structure prediction by ZEFSAII (Michael W. Deem and Ramdas Pophale) SiO2 
 PCOD9368100
Probable space group: F M M 2
;
_chemical_formula_sum "Si O2"
_cell_formula_units_Z 96
_cell_length_a 29.790941
_cell_length_b 8.040448
_cell_length_c 23.683244
_cell_angle_alpha 90.000000
_cell_angle_beta 90.000000
_cell_angle_gamma 90.000000
_cell_volume 5672.906927
_symmetry_space_group_name_H-M "F M M 2"
_symmetry_group_IT_number 42
_symmetry_cell_setting 'orthorhombic'
loop_
_space_group_symop_operation_xyz
x,y,z
-x,-y,z
-x,y,z
x,-y,z
x,1/2+y,1/2+z
-x,1/2-y,1/2+z
-x,1/2+y,1/2+z
x,1/2-y,1/2+z
1/2+x,y,1/2+z
1/2-x,-y,1/2+z
1/2-x,y,1/2+z
1/2+x,-y,1/2+z
1/2+x,1/2+y,z
1/2-x,1/2-y,z
1/2-x,1/2+y,z
1/2+x,1/2-y,z
loop_
_atom_site_type_symbol
_atom_site_label
_atom_site_fract_x
_atom_site_fract_y
_atom_site_fract_z
Si Si1 0.894943 0.803109 0.223340
Si Si2 0.701118 0.191291 0.084125
Si Si3 0.053928 0.182228 0.827252
Si Si4 0.203982 0.801678 0.212475
Si Si5 0.103344 0.691686 0.588401
Si Si6 0.445960 0.000000 0.030146
Si Si7 0.554570 0.500000 0.398399
O O1 0.928274 0.707216 0.263886
O O2 0.843574 0.762418 0.240327
O O3 0.898867 0.774565 0.156146
O O4 0.902308 0.000000 0.231830
O O5 0.750000 0.250000 0.062702
O O6 0.704101 0.208895 0.152268
O O7 0.655682 0.290140 0.069991
O O8 0.694270 0.000000 0.068934
O O9 0.070166 0.334785 0.865750
O O10 0.000000 0.188538 0.826511
O O11 0.067558 0.000000 0.848522
O O12 0.250000 0.750000 0.242467
O O13 0.204121 0.000000 0.201230
O O14 0.089016 0.500000 0.578925
O O15 0.074526 0.833915 0.558293
O O16 0.500000 0.000000 0.035519
O O17 0.433506 0.000000 0.963981
O O18 0.500000 0.500000 0.396094
#
# Coordination Sequence:
#
# PCOD9368100 Si02
#       7
#    16  16  16  16  16   8   8
#     4   9  18  31  49  74 111 144 169 211 264 319
#     4  10  16  26  46  72 105 143 178 217 264 317
#     4  10  20  33  54  80 101 131 175 222 269 312
#     4   9  16  25  39  65 101 141 175 206 252 310
#     4  10  21  36  51  79 117 147 180 221 267 330
#     4  11  24  40  58  78 105 150 189 219 269 326
#     4   9  20  40  58  74 101 130 177 235 264 296
#
# _framework density 16.922540000000001
#
# number of rings (size 3 to 8) (size 9 to 14) (size 15 to 20)
#    0.000    2.333    1.667    4.000    1.167    3.000 
#    0.000    3.333    0.000    0.000    0.000    1.167 
#    0.000    0.000    0.000    0.000    0.000    0.000 
#
# Total GULP energy -133665.287745 kJ/mol
# GULP energy per Si atom -5569.386989 kJ/mol
# Density = 1.688402 g / cm^3
# Si number density = 16.922540 Si / 1000 Ang^3
#
#
#
# Elastic Constant Matrix: (Units=GPa)
#
#
# Indices 1 2 3 4 5 6 
#
# 1 52.7504 42.0273 25.5121 0.0000 0.0000 0.0000
# 2 42.0273 128.5711 52.1199 -0.0001 0.0000 0.0001
# 3 25.5121 52.1199 56.1860 0.0000 0.0000 0.0000
# 4 0.0000 -0.0001 0.0000 11.0930 0.0000 0.0000
# 5 0.0000 0.0000 0.0000 0.0000 -4.5959 0.0000
# 6 0.0000 0.0001 0.0000 0.0000 0.0000 24.4247
#
#
#
# Elastic Compliance Matrix: (Units=1/GPa)
#
#
# Indices 1 2 3 4 5 6 
#
# 1 0.027054 -0.006192 -0.006540 0.000000 0.000000 0.000000
# 2 -0.006192 0.013882 -0.010066 0.000000 0.000000 0.000000
# 3 -0.006540 -0.010066 0.030105 0.000000 0.000000 0.000000
# 4 0.000000 0.000000 0.000000 0.090147 0.000000 0.000000
# 5 0.000000 0.000000 0.000000 0.000000 -0.217586 0.000000
# 6 0.000000 0.000000 0.000000 0.000000 0.000000 0.040942
#
#
# Mechanical properties :
#
#
# Convention : Reuss Voigt Hill
#
# Bulk Modulus (GPa) = 39.30103 52.98067 46.14085
# Shear Modulus (GPa) = 129.45421 14.04090 71.74756
#
# Velocity S-wave (km/s) = 8.75581 2.88360 6.51841
# Velocity P-wave (km/s) = 11.20238 6.51633 9.16395
#
# Compressibility (1/GPa) = 0.02544463
#
# Stress axis : x y z
#
# Youngs Moduli (GPa) = 36.96369 72.03331 33.21655
#
# Poissons Ratio (x) = 0.44603 0.21724
# Poissons Ratio (y) = 0.22888 0.33437
# Poissons Ratio (z) = 0.24175 0.72510
#
# Static dielectric constant tensor:
#      x y z
#    x 1.614190 0.000000 0.000000 
#    y 0.000000 1.600360 0.000000 
#    z 0.000000 0.000000 1.541110 
# 
# From -- ./inp_files/30644.got.cif
#   From: 2010.05.17/outbox.cif.g08.bks.cpg/sg42_16_cif.got.tgz:30644.got - 2010.06.03 19:03:34.
