data_PCOD9368768
_publ_section_title
;
Structure prediction by ZEFSAII (Michael W. Deem and Ramdas Pophale) SiO2 
 PCOD9368768
Probable space group: F M M 2
;
_chemical_formula_sum "Si O2"
_cell_formula_units_Z 32
_cell_length_a 13.850840
_cell_length_b 5.527213
_cell_length_c 16.418898
_cell_angle_alpha 90.000000
_cell_angle_beta 90.000000
_cell_angle_gamma 90.000000
_cell_volume 1256.974069
_symmetry_space_group_name_H-M "F M M 2"
_symmetry_group_IT_number 42
_symmetry_cell_setting 'orthorhombic'
loop_
_space_group_symop_operation_xyz
x,y,z
-x,-y,z
-x,y,z
x,-y,z
x,1/2+y,1/2+z
-x,1/2-y,1/2+z
-x,1/2+y,1/2+z
x,1/2-y,1/2+z
1/2+x,y,1/2+z
1/2-x,-y,1/2+z
1/2-x,y,1/2+z
1/2+x,-y,1/2+z
1/2+x,1/2+y,z
1/2-x,1/2-y,z
1/2-x,1/2+y,z
1/2+x,1/2-y,z
loop_
_atom_site_type_symbol
_atom_site_label
_atom_site_fract_x
_atom_site_fract_y
_atom_site_fract_z
Si Si1 0.500000 0.500000 0.678510
Si Si2 0.634530 0.000000 0.428306
Si Si3 0.277978 0.000000 0.195108
Si Si4 0.658390 0.500000 0.364634
Si Si5 0.000000 0.000000 0.078088
O O1 0.391756 0.500000 0.716336
O O2 0.500000 0.753326 0.629092
O O3 0.605977 0.249404 0.382965
O O4 0.750197 0.000000 0.425418
O O5 0.590188 0.000000 0.516963
O O6 0.250000 0.750000 0.151730
O O7 0.209173 0.000000 0.275917
#
# Coordination Sequence:
#
# PCOD9368768 Si02
#       5
#     4   8   8   8   4
#     4  12  30  49  68 107 144 202 246 274 354 438
#     4  10  20  39  68  92 141 169 226 293 342 424
#     4  12  23  49  74 105 145 183 243 304 356 425
#     4  10  19  41  65 106 124 170 231 286 375 392
#     4  12  26  49  62 105 148 190 242 282 344 442
#
# _framework density 25.457962999999999
#
# number of rings (size 3 to 8) (size 9 to 14) (size 15 to 20)
#    0.000    1.000    5.000    3.000    0.000    1.000 
#   27.000    2.500    0.000    0.000    0.000    0.000 
#    0.000    0.000    0.000    0.000    0.000    0.000 
#
# Total GULP energy -44703.415938 kJ/mol
# GULP energy per Si atom -5587.926992 kJ/mol
# Density = 2.540002 g / cm^3
# Si number density = 25.457963 Si / 1000 Ang^3
#
#
#
# Elastic Constant Matrix: (Units=GPa)
#
#
# Indices 1 2 3 4 5 6 
#
# 1 164.8040 46.2612 23.3785 0.0000 0.0000 0.0000
# 2 46.2612 322.9781 57.4391 0.0003 0.0000 -0.0002
# 3 23.3785 57.4391 65.6417 0.0000 0.0000 0.0000
# 4 0.0000 0.0003 0.0000 35.7899 0.0000 -0.0001
# 5 0.0000 0.0000 0.0000 0.0000 76.9523 0.0000
# 6 0.0000 -0.0002 0.0000 -0.0001 0.0000 18.9862
#
#
#
# Elastic Compliance Matrix: (Units=1/GPa)
#
#
# Indices 1 2 3 4 5 6 
#
# 1 0.006492 -0.000614 -0.001775 0.000000 0.000000 0.000000
# 2 -0.000614 0.003725 -0.003041 0.000000 0.000000 0.000000
# 3 -0.001775 -0.003041 0.018527 0.000000 0.000000 0.000000
# 4 0.000000 0.000000 0.000000 0.027941 0.000000 0.000000
# 5 0.000000 0.000000 0.000000 0.000000 0.012995 0.000000
# 6 0.000000 0.000000 0.000000 0.000000 0.000000 0.052670
#
#
# Mechanical properties :
#
#
# Convention : Reuss Voigt Hill
#
# Bulk Modulus (GPa) = 55.91367 89.73127 72.82247
# Shear Modulus (GPa) = 35.92719 54.76868 45.34794
#
# Velocity S-wave (km/s) = 3.76072 4.64328 4.22511
# Velocity P-wave (km/s) = 6.39282 8.00438 7.24356
#
# Compressibility (1/GPa) = 0.01788471
#
# Stress axis : x y z
#
# Youngs Moduli (GPa) = 154.03612 268.46132 53.97536
#
# Poissons Ratio (x) = 0.16491 0.09579
# Poissons Ratio (y) = 0.09462 0.16412
# Poissons Ratio (z) = 0.27336 0.81631
#
# Static dielectric constant tensor:
#      x y z
#    x 1.961770 0.000000 0.000000 
#    y 0.000000 2.088530 0.000000 
#    z 0.000000 0.000000 1.963520 
# 
# From -- ./inp_files/19454.got.cif
#   From: 2010.05.17/outbox.cif.g08.bks.cpg/sg42_10_cif.got.tgz:19454.got - 2010.06.03 19:03:34.
