data_PCOD9368633
_publ_section_title
;
Structure prediction by ZEFSAII (Michael W. Deem and Ramdas Pophale) SiO2 
 PCOD9368633
Probable space group: F M M 2
;
_chemical_formula_sum "Si O2"
_cell_formula_units_Z 72
_cell_length_a 17.992749
_cell_length_b 17.992714
_cell_length_c 10.523715
_cell_angle_alpha 90.000000
_cell_angle_beta 90.000000
_cell_angle_gamma 90.000000
_cell_volume 3406.930518
_symmetry_space_group_name_H-M "F M M 2"
_symmetry_group_IT_number 42
_symmetry_cell_setting 'orthorhombic'
loop_
_space_group_symop_operation_xyz
x,y,z
-x,-y,z
-x,y,z
x,-y,z
x,1/2+y,1/2+z
-x,1/2-y,1/2+z
-x,1/2+y,1/2+z
x,1/2-y,1/2+z
1/2+x,y,1/2+z
1/2-x,-y,1/2+z
1/2-x,y,1/2+z
1/2+x,-y,1/2+z
1/2+x,1/2+y,z
1/2-x,1/2-y,z
1/2-x,1/2+y,z
1/2+x,1/2-y,z
loop_
_atom_site_type_symbol
_atom_site_label
_atom_site_fract_x
_atom_site_fract_y
_atom_site_fract_z
Si Si1 0.666766 0.130296 0.248690
Si Si2 0.750000 0.250000 0.632386
Si Si3 0.869704 0.833234 0.016083
Si Si4 0.161369 0.414317 0.764714
Si Si5 0.085682 0.338631 0.000059
O O1 0.688485 0.216922 0.224638
O O2 0.625182 0.125182 0.382386
O O3 0.748183 0.092328 0.250717
O O4 0.616366 0.118460 0.125143
O O5 0.783078 0.311515 0.540134
O O6 0.907673 0.751817 0.014056
O O7 0.881539 0.883634 0.139630
O O8 0.143450 0.500000 0.785542
O O9 0.134660 0.365340 0.882386
O O10 0.000000 0.356551 0.979231
#
# Coordination Sequence:
#
# PCOD9368633 Si02
#       5
#    16   8  16  16  16
#     4  10  19  34  60  91 125 165 218 270 315 373
#     4   8  14  28  52  86 122 164 200 254 318 376
#     4  10  19  34  60  91 125 165 218 270 315 373
#     4  11  24  41  64  96 135 176 217 266 331 400
#     4  11  24  41  64  96 135 176 217 266 331 400
#
# _framework density 21.133393000000002
#
# number of rings (size 3 to 8) (size 9 to 14) (size 15 to 20)
#    0.000    1.778    0.000    8.667    0.000    7.556 
#    0.000    0.000    0.000    0.000    0.000    3.111 
#    0.000    0.000    0.000    0.000    0.000    0.000 
#
# Total GULP energy -100246.376315 kJ/mol
# GULP energy per Si atom -5569.243129 kJ/mol
# Density = 2.108529 g / cm^3
# Si number density = 21.133393 Si / 1000 Ang^3
#
#
#
# Elastic Constant Matrix: (Units=GPa)
#
#
# Indices 1 2 3 4 5 6 
#
# 1 66.6803 12.4969 9.4945 0.0000 0.0000 0.0000
# 2 12.4969 66.6800 9.4943 0.0000 0.0000 0.0000
# 3 9.4945 9.4943 111.4078 0.0000 0.0000 0.0000
# 4 0.0000 0.0000 0.0000 14.1783 0.0000 0.0000
# 5 0.0000 0.0000 0.0000 0.0000 14.1779 0.0000
# 6 0.0000 0.0000 0.0000 0.0000 0.0000 8.9226
#
#
#
# Elastic Compliance Matrix: (Units=1/GPa)
#
#
# Indices 1 2 3 4 5 6 
#
# 1 0.015675 -0.002781 -0.001099 0.000000 0.000000 0.000000
# 2 -0.002781 0.015675 -0.001099 0.000000 0.000000 0.000000
# 3 -0.001099 -0.001099 0.009163 0.000000 0.000000 0.000000
# 4 0.000000 0.000000 0.000000 0.070530 0.000000 0.000000
# 5 0.000000 0.000000 0.000000 0.000000 0.070532 0.000000
# 6 0.000000 0.000000 0.000000 0.000000 0.000000 0.112074
#
#
# Mechanical properties :
#
#
# Convention : Reuss Voigt Hill
#
# Bulk Modulus (GPa) = 32.72787 34.19327 33.46057
# Shear Modulus (GPa) = 15.93410 21.67459 18.80434
#
# Velocity S-wave (km/s) = 2.74884 3.20599 2.98618
# Velocity P-wave (km/s) = 5.05913 5.46986 5.26850
#
# Compressibility (1/GPa) = 0.03055500
#
# Stress axis : x y z
#
# Youngs Moduli (GPa) = 63.79729 63.79705 109.13079
#
# Poissons Ratio (x) = 0.17743 0.11992
# Poissons Ratio (y) = 0.17743 0.11991
# Poissons Ratio (z) = 0.07010 0.07010
#
# Static dielectric constant tensor:
#      x y z
#    x 1.801100 0.000000 0.000000 
#    y 0.000000 1.801110 0.000000 
#    z 0.000000 0.000000 1.860670 
# 
# From -- ./inp_files/3884.got.cif
#   From: 2010.05.17/outbox.cif.g08.bks.cpg/sg42_2_cif.got.tgz:3884.got - 2010.06.03 19:03:34.
