data_PCOD9368784
_publ_section_title
;
Structure prediction by ZEFSAII (Michael W. Deem and Ramdas Pophale) SiO2 
 PCOD9368784
Probable space group: F M M 2
;
_chemical_formula_sum "Si O2"
_cell_formula_units_Z 96
_cell_length_a 24.484010
_cell_length_b 8.188967
_cell_length_c 26.222385
_cell_angle_alpha 90.000000
_cell_angle_beta 90.000000
_cell_angle_gamma 90.000000
_cell_volume 5257.555412
_symmetry_space_group_name_H-M "F M M 2"
_symmetry_group_IT_number 42
_symmetry_cell_setting 'orthorhombic'
loop_
_space_group_symop_operation_xyz
x,y,z
-x,-y,z
-x,y,z
x,-y,z
x,1/2+y,1/2+z
-x,1/2-y,1/2+z
-x,1/2+y,1/2+z
x,1/2-y,1/2+z
1/2+x,y,1/2+z
1/2-x,-y,1/2+z
1/2-x,y,1/2+z
1/2+x,-y,1/2+z
1/2+x,1/2+y,z
1/2-x,1/2-y,z
1/2-x,1/2+y,z
1/2+x,1/2-y,z
loop_
_atom_site_type_symbol
_atom_site_label
_atom_site_fract_x
_atom_site_fract_y
_atom_site_fract_z
Si Si1 0.615856 0.691481 0.940070
Si Si2 0.385291 0.694868 0.627847
Si Si3 0.500000 0.186457 0.093726
Si Si4 0.936988 0.194889 0.225498
Si Si5 0.000000 0.312681 0.973150
Si Si6 0.687632 0.305164 0.034699
Si Si7 0.062981 0.197820 0.841116
O O1 0.629486 0.500000 0.935574
O O2 0.554177 0.715615 0.959205
O O3 0.607867 0.757632 0.882305
O O4 0.654646 0.761386 0.984759
O O5 0.384883 0.500000 0.622163
O O6 0.443483 0.766918 0.609189
O O7 0.390664 0.736453 0.687561
O O8 0.339929 0.756561 0.588554
O O9 0.500000 0.000000 0.114776
O O10 0.500000 0.173315 0.033627
O O11 0.926492 0.244748 0.283802
O O12 0.000000 0.252856 0.213538
O O13 0.937223 0.000000 0.221349
O O14 0.000000 0.500000 0.952916
O O15 0.685056 0.500000 0.032032
O O16 0.750000 0.250000 0.032866
O O17 0.000000 0.249127 0.853939
O O18 0.063202 0.000000 0.842305
#
# Coordination Sequence:
#
# PCOD9368784 Si02
#       7
#    16  16   8  16   8  16  16
#     4  10  20  35  54  78 109 145 182 222 269 326
#     4  11  20  35  56  79 110 146 183 222 270 328
#     4   9  18  29  46  77 110 139 172 212 265 325
#     4  10  20  32  48  78 116 148 182 222 266 320
#     4  11  19  29  48  79 112 141 174 216 267 327
#     4  11  24  40  58  80 107 142 184 231 279 325
#     4   9  17  31  51  75 108 147 182 217 263 323
#
# _framework density 18.259436000000001
#
# number of rings (size 3 to 8) (size 9 to 14) (size 15 to 20)
#    0.000    1.833    3.333    1.750    0.000    2.000 
#    0.000    0.000    0.000    1.000    0.000    4.667 
#    0.000    0.000    0.000    0.000    0.000    0.000 
#
# Total GULP energy -133654.017589 kJ/mol
# GULP energy per Si atom -5568.917400 kJ/mol
# Density = 1.821788 g / cm^3
# Si number density = 18.259436 Si / 1000 Ang^3
#
#
#
# Elastic Constant Matrix: (Units=GPa)
#
#
# Indices 1 2 3 4 5 6 
#
# 1 102.7628 6.4714 69.3687 0.0000 0.0000 -0.0003
# 2 6.4714 29.9645 20.8638 -0.0001 0.0000 -0.0005
# 3 69.3687 20.8638 148.4393 0.0000 0.0000 0.0000
# 4 0.0000 -0.0001 0.0000 21.0106 0.0000 -0.0001
# 5 0.0000 0.0000 0.0000 0.0000 20.1437 -0.0001
# 6 -0.0003 -0.0005 0.0000 -0.0001 -0.0001 -136.8592
#
#
#
# Elastic Compliance Matrix: (Units=1/GPa)
#
#
# Indices 1 2 3 4 5 6 
#
# 1 0.014296 0.001734 -0.006925 0.000000 0.000000 0.000000
# 2 0.001734 0.037203 -0.006039 0.000000 0.000000 0.000000
# 3 -0.006925 -0.006039 0.010822 0.000000 0.000000 0.000000
# 4 0.000000 0.000000 0.000000 0.047595 0.000000 0.000000
# 5 0.000000 0.000000 0.000000 0.000000 0.049643 0.000000
# 6 0.000000 0.000000 0.000000 0.000000 0.000000 -0.007307
#
#
# Mechanical properties :
#
#
# Convention : Reuss Voigt Hill
#
# Bulk Modulus (GPa) = 25.08704 52.73050 38.90877
# Shear Modulus (GPa) = 26.59567 -6.84347 9.87610
#
# Velocity S-wave (km/s) = 3.82061 -1.93805 2.32820
# Velocity P-wave (km/s) = 5.76470 4.89215 5.34626
#
# Compressibility (1/GPa) = 0.03986122
#
# Stress axis : x y z
#
# Youngs Moduli (GPa) = 69.94773 26.87921 92.40695
#
# Poissons Ratio (x) = -0.04661 0.63989
# Poissons Ratio (y) = -0.12129 0.55809
# Poissons Ratio (z) = 0.48437 0.16234
#
# Static dielectric constant tensor:
#      x y z
#    x 1.588460 0.000000 0.000000 
#    y 0.000000 1.660370 0.000000 
#    z 0.000000 0.000000 1.707770 
# 
# From -- ./inp_files/28080.got.cif
#   From: 2010.05.17/outbox.cif.g08.bks.cpg/sg42_15_cif.got.tgz:28080.got - 2010.06.03 19:03:34.
