data_PCOD9368436
_publ_section_title
;
Structure prediction by ZEFSAII (Michael W. Deem and Ramdas Pophale) SiO2 
 PCOD9368436
Probable space group: F M M 2
;
_chemical_formula_sum "Si O2"
_cell_formula_units_Z 80
_cell_length_a 19.271015
_cell_length_b 8.809389
_cell_length_c 26.872969
_cell_angle_alpha 90.000000
_cell_angle_beta 90.000000
_cell_angle_gamma 90.000000
_cell_volume 4562.112896
_symmetry_space_group_name_H-M "F M M 2"
_symmetry_group_IT_number 42
_symmetry_cell_setting 'orthorhombic'
loop_
_space_group_symop_operation_xyz
x,y,z
-x,-y,z
-x,y,z
x,-y,z
x,1/2+y,1/2+z
-x,1/2-y,1/2+z
-x,1/2+y,1/2+z
x,1/2-y,1/2+z
1/2+x,y,1/2+z
1/2-x,-y,1/2+z
1/2-x,y,1/2+z
1/2+x,-y,1/2+z
1/2+x,1/2+y,z
1/2-x,1/2-y,z
1/2-x,1/2+y,z
1/2+x,1/2-y,z
loop_
_atom_site_type_symbol
_atom_site_label
_atom_site_fract_x
_atom_site_fract_y
_atom_site_fract_z
Si Si1 0.081467 0.181210 0.656660
Si Si2 0.827350 0.318364 0.568915
Si Si3 0.172562 0.682308 0.857355
Si Si4 0.419147 0.682419 0.262272
Si Si5 0.327708 0.318227 0.958627
O O1 0.125495 0.253474 0.612516
O O2 0.104104 0.241847 0.710748
O O3 0.000000 0.221504 0.651174
O O4 0.087898 0.000000 0.655278
O O5 0.822547 0.500000 0.572663
O O6 0.750000 0.250000 0.572592
O O7 0.856790 0.282384 0.513476
O O8 0.176871 0.500000 0.860344
O O9 0.250000 0.750000 0.852233
O O10 0.126991 0.725387 0.809603
O O11 0.140738 0.745700 0.908965
O O12 0.500000 0.722974 0.270486
O O13 0.415309 0.500000 0.256694
O O14 0.324689 0.500000 0.953155
O O15 0.250000 0.250000 0.959972
#
# Coordination Sequence:
#
# PCOD9368436 Si02
#       5
#    16  16  16  16  16
#     4  10  21  36  54  76 102 134 171 211 256 304
#     4  10  20  34  54  78 104 135 170 210 254 301
#     4  10  19  31  51  76 101 130 164 204 248 295
#     4   9  19  36  54  71  96 133 172 207 249 300
#     4   9  17  30  49  73 101 132 164 200 246 296
#
# _framework density 17.535734000000001
#
# number of rings (size 3 to 8) (size 9 to 14) (size 15 to 20)
#    0.000    2.400    0.000    3.600    0.000    6.000 
#    0.000    3.000    0.000    3.600    0.000    0.000 
#    0.000    0.000    0.000    0.000    0.000    0.000 
#
# Total GULP energy -111517.178450 kJ/mol
# GULP energy per Si atom -5575.858923 kJ/mol
# Density = 1.749582 g / cm^3
# Si number density = 17.535734 Si / 1000 Ang^3
#
#
#
# Elastic Constant Matrix: (Units=GPa)
#
#
# Indices 1 2 3 4 5 6 
#
# 1 47.1227 31.3628 77.8342 0.0000 0.0000 0.0000
# 2 31.3628 56.5088 72.3416 0.0000 0.0000 0.0000
# 3 77.8342 72.3416 223.8158 0.0000 0.0000 0.0000
# 4 0.0000 0.0000 0.0000 29.9595 0.0000 0.0000
# 5 0.0000 0.0000 0.0000 0.0000 -88.1945 0.0000
# 6 0.0000 0.0000 0.0000 0.0000 0.0000 22.2128
#
#
#
# Elastic Compliance Matrix: (Units=1/GPa)
#
#
# Indices 1 2 3 4 5 6 
#
# 1 0.052931 -0.009915 -0.015202 0.000000 0.000000 0.000000
# 2 -0.009915 0.032045 -0.006909 0.000000 0.000000 0.000000
# 3 -0.015202 -0.006909 0.011988 0.000000 0.000000 0.000000
# 4 0.000000 0.000000 0.000000 0.033378 0.000000 0.000000
# 5 0.000000 0.000000 0.000000 0.000000 -0.011339 0.000000
# 6 0.000000 0.000000 0.000000 0.000000 0.000000 0.045019
#
#
# Mechanical properties :
#
#
# Convention : Reuss Voigt Hill
#
# Bulk Modulus (GPa) = 30.38635 76.72497 53.55566
# Shear Modulus (GPa) = 20.91651 2.52280 11.71965
#
# Velocity S-wave (km/s) = 3.45743 1.20074 2.58801
# Velocity P-wave (km/s) = 5.77099 6.76542 6.28789
#
# Compressibility (1/GPa) = 0.03290952
#
# Stress axis : x y z
#
# Youngs Moduli (GPa) = 18.89263 31.20660 83.41670
#
# Poissons Ratio (x) = 0.30941 1.26814
# Poissons Ratio (y) = 0.18732 0.57636
# Poissons Ratio (z) = 0.28721 0.21562
#
# Static dielectric constant tensor:
#      x y z
#    x 1.573170 0.000000 0.000000 
#    y 0.000000 1.589170 0.000000 
#    z 0.000000 0.000000 1.620600 
# 
# From -- ./inp_files/31258.got.cif
#   From: 2010.05.17/outbox.cif.g08.bks.cpg/sg42_16_cif.got.tgz:31258.got - 2010.06.03 19:03:34.
