data_PCOD9368968
_publ_section_title
;
Structure prediction by ZEFSAII (Michael W. Deem and Ramdas Pophale) SiO2 
 PCOD9368968
Probable space group: F M M 2
;
_chemical_formula_sum "Si O2"
_cell_formula_units_Z 96
_cell_length_a 19.018243
_cell_length_b 16.961944
_cell_length_c 17.246096
_cell_angle_alpha 90.000000
_cell_angle_beta 90.000000
_cell_angle_gamma 90.000000
_cell_volume 5563.355553
_symmetry_space_group_name_H-M "F M M 2"
_symmetry_group_IT_number 42
_symmetry_cell_setting 'orthorhombic'
loop_
_space_group_symop_operation_xyz
x,y,z
-x,-y,z
-x,y,z
x,-y,z
x,1/2+y,1/2+z
-x,1/2-y,1/2+z
-x,1/2+y,1/2+z
x,1/2-y,1/2+z
1/2+x,y,1/2+z
1/2-x,-y,1/2+z
1/2-x,y,1/2+z
1/2+x,-y,1/2+z
1/2+x,1/2+y,z
1/2-x,1/2-y,z
1/2-x,1/2+y,z
1/2+x,1/2-y,z
loop_
_atom_site_type_symbol
_atom_site_label
_atom_site_fract_x
_atom_site_fract_y
_atom_site_fract_z
Si Si1 0.084425 0.198227 0.560710
Si Si2 0.349673 0.908557 0.193829
Si Si3 0.823220 0.785416 0.411997
Si Si4 0.578918 0.171011 0.680264
Si Si5 0.077399 0.311129 0.309024
Si Si6 0.201882 0.593588 0.770589
O O1 0.121250 0.138869 0.620793
O O2 0.124318 0.188920 0.479838
O O3 0.094284 0.285266 0.598973
O O4 0.000000 0.184904 0.556135
O O5 0.402849 0.890129 0.264119
O O6 0.273522 0.881909 0.226106
O O7 0.345370 0.000000 0.175577
O O8 0.750000 0.750000 0.442112
O O9 0.863542 0.714977 0.368228
O O10 0.808581 0.853789 0.348088
O O11 0.500000 0.137230 0.678040
O O12 0.577456 0.242943 0.742809
O O13 0.637432 0.112514 0.712596
O O14 0.000000 0.313593 0.344358
O O15 0.205514 0.500000 0.787675
#
# Coordination Sequence:
#
# PCOD9368968 Si02
#       6
#    16  16  16  16  16  16
#     4  10  22  36  56  85 112 141 183 231 275 326
#     4  10  20  35  55  81 111 143 184 230 275 322
#     4  11  21  35  56  81 110 148 179 222 277 330
#     4   8  17  33  54  78 106 140 181 225 269 319
#     4   9  17  32  54  78 105 139 182 225 263 319
#     4  10  21  36  55  82 112 144 186 229 269 324
#
# _framework density 17.255773000000001
#
# number of rings (size 3 to 8) (size 9 to 14) (size 15 to 20)
#    0.000    2.333    1.667    2.000    2.333    3.000 
#    0.000    0.000    0.000    1.000    0.000    2.333 
#    0.000    0.000    0.000    0.000    0.000    0.000 
#
# Total GULP energy -133696.399114 kJ/mol
# GULP energy per Si atom -5570.683296 kJ/mol
# Density = 1.721650 g / cm^3
# Si number density = 17.255773 Si / 1000 Ang^3
#
#
#
# Elastic Constant Matrix: (Units=GPa)
#
#
# Indices 1 2 3 4 5 6 
#
# 1 117.3403 30.4672 51.9352 0.0000 0.0000 0.0000
# 2 30.4672 35.2885 32.3527 0.0000 0.0000 0.0000
# 3 51.9352 32.3527 92.8990 0.0000 0.0000 0.0000
# 4 0.0000 0.0000 0.0000 15.4519 0.0000 0.0000
# 5 0.0000 0.0000 0.0000 0.0000 25.7947 0.0000
# 6 0.0000 0.0000 0.0000 0.0000 0.0000 19.6429
#
#
#
# Elastic Compliance Matrix: (Units=1/GPa)
#
#
# Indices 1 2 3 4 5 6 
#
# 1 0.012206 -0.006291 -0.004633 0.000000 0.000000 0.000000
# 2 -0.006291 0.044872 -0.012110 0.000000 0.000000 0.000000
# 3 -0.004633 -0.012110 0.017572 0.000000 0.000000 0.000000
# 4 0.000000 0.000000 0.000000 0.064717 0.000000 0.000000
# 5 0.000000 0.000000 0.000000 0.000000 0.038768 0.000000
# 6 0.000000 0.000000 0.000000 0.000000 0.000000 0.050909
#
#
# Mechanical properties :
#
#
# Convention : Reuss Voigt Hill
#
# Bulk Modulus (GPa) = 34.98707 52.78201 43.88454
# Shear Modulus (GPa) = 17.56614 20.89610 19.23112
#
# Velocity S-wave (km/s) = 3.19405 3.48366 3.34200
# Velocity P-wave (km/s) = 5.82428 6.84366 6.35444
#
# Compressibility (1/GPa) = 0.02858198
#
# Stress axis : x y z
#
# Youngs Moduli (GPa) = 81.92519 22.28572 56.90927
#
# Poissons Ratio (x) = 0.14020 0.26366
# Poissons Ratio (y) = 0.51539 0.68917
# Poissons Ratio (z) = 0.37956 0.26988
#
# Static dielectric constant tensor:
#      x y z
#    x 1.608370 0.000000 0.000000 
#    y 0.000000 1.576030 0.000000 
#    z 0.000000 0.000000 1.594780 
# 
# From -- ./inp_files/14015.got.cif
#   From: 2010.05.17/outbox.cif.g08.bks.cpg/sg42_8_cif.got.tgz:14015.got - 2010.06.03 19:03:34.
