data_PCOD9368113
_publ_section_title
;
Structure prediction by ZEFSAII (Michael W. Deem and Ramdas Pophale) SiO2 
 PCOD9368113
Probable space group: F M M 2
;
_chemical_formula_sum "Si O2"
_cell_formula_units_Z 88
_cell_length_a 8.784078
_cell_length_b 24.726305
_cell_length_c 20.909045
_cell_angle_alpha 90.000000
_cell_angle_beta 90.000000
_cell_angle_gamma 90.000000
_cell_volume 4541.398402
_symmetry_space_group_name_H-M "F M M 2"
_symmetry_group_IT_number 42
_symmetry_cell_setting 'orthorhombic'
loop_
_space_group_symop_operation_xyz
x,y,z
-x,-y,z
-x,y,z
x,-y,z
x,1/2+y,1/2+z
-x,1/2-y,1/2+z
-x,1/2+y,1/2+z
x,1/2-y,1/2+z
1/2+x,y,1/2+z
1/2-x,-y,1/2+z
1/2-x,y,1/2+z
1/2+x,-y,1/2+z
1/2+x,1/2+y,z
1/2-x,1/2-y,z
1/2-x,1/2+y,z
1/2+x,1/2-y,z
loop_
_atom_site_type_symbol
_atom_site_label
_atom_site_fract_x
_atom_site_fract_y
_atom_site_fract_z
Si Si1 0.820400 0.190784 0.485380
Si Si2 0.179106 0.000000 0.203000
Si Si3 0.818443 0.000000 0.928409
Si Si4 0.732322 0.000000 0.568793
Si Si5 0.179146 0.880364 0.876541
Si Si6 0.826505 0.375295 0.600608
Si Si7 0.819919 0.106863 0.735006
O O1 0.750000 0.250000 0.478780
O O2 0.778504 0.154719 0.424162
O O3 0.748709 0.160405 0.546142
O O4 0.000000 0.194657 0.493328
O O5 0.218494 0.946882 0.240767
O O6 0.295753 0.000000 0.141947
O O7 0.000000 0.000000 0.182771
O O8 0.793377 0.055498 0.889778
O O9 0.000000 0.000000 0.947990
O O10 0.721211 0.000000 0.994422
O O11 0.669006 0.061901 0.575778
O O12 0.204029 0.864059 0.802687
O O13 0.000000 0.871622 0.891494
O O14 0.735049 0.369797 0.667196
O O15 0.000000 0.359065 0.612084
O O16 0.000000 0.094589 0.731808
#
# Coordination Sequence:
#
# PCOD9368113 Si02
#       7
#    16   8   8   8  16  16  16
#     4  12  26  44  65  89 118 154 201 255 307 360
#     4  10  19  30  49  81 122 168 207 248 299 354
#     4  10  16  29  56  88 122 160 199 234 286 353
#     4  10  17  29  56  89 121 158 199 238 288 353
#     4  10  21  38  62  90 124 164 202 244 297 359
#     4  11  21  38  63  91 124 163 203 246 300 360
#     4  10  20  35  56  87 123 161 205 248 296 357
#
# _framework density 19.377293000000002
#
# number of rings (size 3 to 8) (size 9 to 14) (size 15 to 20)
#    0.000    1.455    1.818    6.273    0.000    2.909 
#    0.000    3.636    0.000    4.364    0.000    0.000 
#    0.000    0.000    0.000    0.000    0.000    0.000 
#
# Total GULP energy -122481.183380 kJ/mol
# GULP energy per Si atom -5567.326517 kJ/mol
# Density = 1.933319 g / cm^3
# Si number density = 19.377293 Si / 1000 Ang^3
#
#
#
# Elastic Constant Matrix: (Units=GPa)
#
#
# Indices 1 2 3 4 5 6 
#
# 1 69.4139 34.9952 29.2572 0.0000 0.0000 0.0000
# 2 34.9952 90.2714 26.7763 0.0000 0.0000 0.0000
# 3 29.2572 26.7763 110.4591 0.0000 0.0000 0.0000
# 4 0.0000 0.0000 0.0000 3.5279 0.0000 0.0000
# 5 0.0000 0.0000 0.0000 0.0000 30.0251 0.0000
# 6 0.0000 0.0000 0.0000 0.0000 0.0000 -7.8044
#
#
#
# Elastic Compliance Matrix: (Units=1/GPa)
#
#
# Indices 1 2 3 4 5 6 
#
# 1 0.019094 -0.006359 -0.003516 0.000000 0.000000 0.000000
# 2 -0.006359 0.014054 -0.001722 0.000000 0.000000 0.000000
# 3 -0.003516 -0.001722 0.010402 0.000000 0.000000 0.000000
# 4 0.000000 0.000000 0.000000 0.283451 0.000000 0.000000
# 5 0.000000 0.000000 0.000000 0.000000 0.033305 0.000000
# 6 0.000000 0.000000 0.000000 0.000000 0.000000 -0.128132
#
#
# Mechanical properties :
#
#
# Convention : Reuss Voigt Hill
#
# Bulk Modulus (GPa) = 49.12845 50.24463 49.68654
# Shear Modulus (GPa) = 19.07270 17.09078 18.08174
#
# Velocity S-wave (km/s) = 3.14073 2.97307 3.05805
# Velocity P-wave (km/s) = 6.20974 6.14585 6.17788
#
# Compressibility (1/GPa) = 0.02035480
#
# Stress axis : x y z
#
# Youngs Moduli (GPa) = 52.37161 71.15463 96.13618
#
# Poissons Ratio (x) = 0.45250 0.33801
# Poissons Ratio (y) = 0.33305 0.16559
# Poissons Ratio (z) = 0.18413 0.12256
#
# Static dielectric constant tensor:
#      x y z
#    x 1.670750 0.000000 0.000000 
#    y 0.000000 1.665430 0.000000 
#    z 0.000000 0.000000 1.692510 
# 
# From -- ./inp_files/27940.got.cif
#   From: 2010.05.17/outbox.cif.g08.bks.cpg/sg42_14_cif.got.tgz:27940.got - 2010.06.03 19:03:34.
