data_PCOD9368538
_publ_section_title
;
Structure prediction by ZEFSAII (Michael W. Deem and Ramdas Pophale) SiO2 
 PCOD9368538
Probable space group: F M M 2
;
_chemical_formula_sum "Si O2"
_cell_formula_units_Z 128
_cell_length_a 19.206705
_cell_length_b 15.355044
_cell_length_c 22.990571
_cell_angle_alpha 90.000000
_cell_angle_beta 90.000000
_cell_angle_gamma 90.000000
_cell_volume 6780.374610
_symmetry_space_group_name_H-M "F M M 2"
_symmetry_group_IT_number 42
_symmetry_cell_setting 'orthorhombic'
loop_
_space_group_symop_operation_xyz
x,y,z
-x,-y,z
-x,y,z
x,-y,z
x,1/2+y,1/2+z
-x,1/2-y,1/2+z
-x,1/2+y,1/2+z
x,1/2-y,1/2+z
1/2+x,y,1/2+z
1/2-x,-y,1/2+z
1/2-x,y,1/2+z
1/2+x,-y,1/2+z
1/2+x,1/2+y,z
1/2-x,1/2-y,z
1/2-x,1/2+y,z
1/2+x,1/2-y,z
loop_
_atom_site_type_symbol
_atom_site_label
_atom_site_fract_x
_atom_site_fract_y
_atom_site_fract_z
Si Si1 0.584201 0.398911 0.690500
Si Si2 0.420462 0.895165 0.664034
Si Si3 0.919900 0.850514 0.559187
Si Si4 0.827047 0.401972 0.558891
Si Si5 0.582102 0.738649 0.269315
Si Si6 0.328483 0.726817 0.382829
Si Si7 0.297048 0.596445 0.484501
Si Si8 0.920052 0.819720 0.976987
O O1 0.500000 0.401964 0.694276
O O2 0.608837 0.500000 0.694328
O O3 0.599326 0.356927 0.627163
O O4 0.606614 0.329944 0.739854
O O5 0.500000 0.878276 0.641779
O O6 0.361669 0.867779 0.617811
O O7 0.412363 0.837786 0.721493
O O8 0.415574 0.000000 0.673424
O O9 0.865291 0.906928 0.523922
O O10 0.916081 0.757987 0.525491
O O11 0.000000 0.880145 0.554640
O O12 0.804034 0.500000 0.572906
O O13 0.762504 0.358912 0.524791
O O14 0.889080 0.400368 0.511957
O O15 0.500000 0.747665 0.283591
O O16 0.625329 0.714350 0.326058
O O17 0.250000 0.750000 0.365611
O O18 0.317521 0.646407 0.426514
O O19 0.369943 0.795928 0.423410
O O20 0.271834 0.500000 0.469339
O O21 0.000000 0.828433 0.958987
#
# Coordination Sequence:
#
# PCOD9368538 Si02
#       8
#    16  16  16  16  16  16  16  16
#     4   9  17  32  54  80 111 144 180 233 292 338
#     4   9  18  34  58  87 117 146 181 230 285 342
#     4   9  18  32  55  84 113 145 184 231 285 345
#     4  10  19  33  54  84 118 148 177 226 291 347
#     4  10  21  38  58  81 111 149 195 239 278 332
#     4  11  22  40  56  74 108 150 190 234 279 324
#     4  10  21  36  56  81 114 149 184 231 288 340
#     4  10  19  33  56  83 107 143 190 232 279 339
#
# _framework density 18.878011999999998
#
# number of rings (size 3 to 8) (size 9 to 14) (size 15 to 20)
#    0.000    2.250    1.250    1.875    0.000    4.500 
#    2.250    1.250    0.000    1.500    0.000    0.000 
#    0.000    0.000    0.000    0.000    0.000    0.000 
#
# Total GULP energy -178232.767627 kJ/mol
# GULP energy per Si atom -5569.773988 kJ/mol
# Density = 1.883505 g / cm^3
# Si number density = 18.878012 Si / 1000 Ang^3
#
#
#
# Elastic Constant Matrix: (Units=GPa)
#
#
# Indices 1 2 3 4 5 6 
#
# 1 93.2866 29.7032 69.3759 0.0000 0.0000 0.0000
# 2 29.7032 51.7239 32.9023 0.0000 0.0000 0.0000
# 3 69.3759 32.9023 128.9017 0.0000 0.0000 0.0000
# 4 0.0000 0.0000 0.0000 8.5807 0.0000 0.0000
# 5 0.0000 0.0000 0.0000 0.0000 39.2598 0.0000
# 6 0.0000 0.0000 0.0000 0.0000 0.0000 7.9726
#
#
#
# Elastic Compliance Matrix: (Units=1/GPa)
#
#
# Indices 1 2 3 4 5 6 
#
# 1 0.019002 -0.005261 -0.008884 0.000000 0.000000 0.000000
# 2 -0.005261 0.024537 -0.003432 0.000000 0.000000 0.000000
# 3 -0.008884 -0.003432 0.013415 0.000000 0.000000 0.000000
# 4 0.000000 0.000000 0.000000 0.116541 0.000000 0.000000
# 5 0.000000 0.000000 0.000000 0.000000 0.025471 0.000000
# 6 0.000000 0.000000 0.000000 0.000000 0.000000 0.125430
#
#
# Mechanical properties :
#
#
# Convention : Reuss Voigt Hill
#
# Bulk Modulus (GPa) = 45.86899 59.76390 52.81645
# Shear Modulus (GPa) = 13.63080 20.62468 17.12774
#
# Velocity S-wave (km/s) = 2.69001 3.30892 3.01539
# Velocity P-wave (km/s) = 5.83082 6.80627 6.33734
#
# Compressibility (1/GPa) = 0.02180122
#
# Stress axis : x y z
#
# Youngs Moduli (GPa) = 52.62716 40.75395 74.54190
#
# Poissons Ratio (x) = 0.21439 0.66223
# Poissons Ratio (y) = 0.27686 0.25582
# Poissons Ratio (z) = 0.46754 0.13986
#
# Static dielectric constant tensor:
#      x y z
#    x 1.671000 0.000000 0.000000 
#    y 0.000000 1.718990 0.000000 
#    z 0.000000 0.000000 1.627040 
# 
# From -- ./inp_files/26597.got.cif
#   From: 2010.05.17/outbox.cif.g08.bks.cpg/sg42_14_cif.got.tgz:26597.got - 2010.06.03 19:03:34.
