data_PCOD9368155
_publ_section_title
;
Structure prediction by ZEFSAII (Michael W. Deem and Ramdas Pophale) SiO2 
 PCOD9368155
Probable space group: F M M 2
;
_chemical_formula_sum "Si O2"
_cell_formula_units_Z 80
_cell_length_a 14.949826
_cell_length_b 8.545289
_cell_length_c 31.216074
_cell_angle_alpha 90.000000
_cell_angle_beta 90.000000
_cell_angle_gamma 90.000000
_cell_volume 3987.871673
_symmetry_space_group_name_H-M "F M M 2"
_symmetry_group_IT_number 42
_symmetry_cell_setting 'orthorhombic'
loop_
_space_group_symop_operation_xyz
x,y,z
-x,-y,z
-x,y,z
x,-y,z
x,1/2+y,1/2+z
-x,1/2-y,1/2+z
-x,1/2+y,1/2+z
x,1/2-y,1/2+z
1/2+x,y,1/2+z
1/2-x,-y,1/2+z
1/2-x,y,1/2+z
1/2+x,-y,1/2+z
1/2+x,1/2+y,z
1/2-x,1/2-y,z
1/2-x,1/2+y,z
1/2+x,1/2-y,z
loop_
_atom_site_type_symbol
_atom_site_label
_atom_site_fract_x
_atom_site_fract_y
_atom_site_fract_z
Si Si1 0.647801 0.687742 0.086220
Si Si2 0.852273 0.186466 0.674534
Si Si3 0.648717 0.813307 0.764710
Si Si4 0.000000 0.311689 0.327590
Si Si5 0.850607 0.311251 0.491866
Si Si6 0.000000 0.808864 0.926228
O O1 0.647515 0.500000 0.090124
O O2 0.750000 0.750000 0.084873
O O3 0.606810 0.757693 0.129526
O O4 0.611939 0.731541 0.039196
O O5 0.750000 0.250000 0.673876
O O6 0.889019 0.253818 0.718909
O O7 0.851932 0.000000 0.676261
O O8 0.750000 0.750000 0.769134
O O9 0.586322 0.750781 0.802405
O O10 0.650634 0.000000 0.764388
O O11 0.000000 0.500000 0.326327
O O12 0.000000 0.259318 0.377038
O O13 0.847689 0.500000 0.491219
O O14 0.750000 0.250000 0.487569
O O15 0.913870 0.257568 0.453492
O O16 0.000000 0.000000 0.926289
#
# Coordination Sequence:
#
# PCOD9368155 Si02
#       6
#    16  16  16   8  16   8
#     4   9  15  25  45  74 108 144 183 223 267 322
#     4  10  17  28  49  78 112 148 186 226 274 329
#     4  11  22  39  61  86 116 151 192 235 285 342
#     4  11  23  41  62  85 114 147 188 241 296 345
#     4   9  18  34  56  81 110 146 185 225 272 328
#     4   9  20  39  60  81 108 143 182 229 284 337
#
# _framework density 20.060827
#
# number of rings (size 3 to 8) (size 9 to 14) (size 15 to 20)
#    0.000    2.200    0.000    6.900    0.000    1.600 
#    0.000    5.500    0.000    2.400    0.000    0.000 
#    0.000    0.000    0.000    0.000    0.000    0.000 
#
# Total GULP energy -111638.183189 kJ/mol
# GULP energy per Si atom -5581.909159 kJ/mol
# Density = 2.001517 g / cm^3
# Si number density = 20.060827 Si / 1000 Ang^3
#
#
#
# Elastic Constant Matrix: (Units=GPa)
#
#
# Indices 1 2 3 4 5 6 
#
# 1 100.2104 26.6919 83.5209 0.0000 0.0000 0.0000
# 2 26.6919 114.0062 66.9132 0.0000 0.0000 0.0000
# 3 83.5209 66.9132 246.2725 0.0000 0.0000 0.0000
# 4 0.0000 0.0000 0.0000 21.3416 0.0000 0.0000
# 5 0.0000 0.0000 0.0000 0.0000 40.5140 0.0000
# 6 0.0000 0.0000 0.0000 0.0000 0.0000 12.0248
#
#
#
# Elastic Compliance Matrix: (Units=1/GPa)
#
#
# Indices 1 2 3 4 5 6 
#
# 1 0.013943 -0.000582 -0.004571 0.000000 0.000000 0.000000
# 2 -0.000582 0.010460 -0.002645 0.000000 0.000000 0.000000
# 3 -0.004571 -0.002645 0.006329 0.000000 0.000000 0.000000
# 4 0.000000 0.000000 0.000000 0.046857 0.000000 0.000000
# 5 0.000000 0.000000 0.000000 0.000000 0.024683 0.000000
# 6 0.000000 0.000000 0.000000 0.000000 0.000000 0.083162
#
#
# Mechanical properties :
#
#
# Convention : Reuss Voigt Hill
#
# Bulk Modulus (GPa) = 66.05836 90.52679 78.29258
# Shear Modulus (GPa) = 24.26307 33.66695 28.96501
#
# Velocity S-wave (km/s) = 3.48152 4.10108 3.80394
# Velocity P-wave (km/s) = 7.01155 8.22492 7.64235
#
# Compressibility (1/GPa) = 0.01513813
#
# Stress axis : x y z
#
# Youngs Moduli (GPa) = 71.71822 95.60312 157.99751
#
# Poissons Ratio (x) = 0.05563 0.72216
# Poissons Ratio (y) = 0.04173 0.41785
# Poissons Ratio (z) = 0.32780 0.25284
#
# Static dielectric constant tensor:
#      x y z
#    x 1.702490 0.000000 0.000000 
#    y 0.000000 1.670490 0.000000 
#    z 0.000000 0.000000 1.742640 
# 
# From -- ./inp_files/32773.got.cif
#   From: 2010.05.17/outbox.cif.g08.bks.cpg/sg42_17_cif.got.tgz:32773.got - 2010.06.03 19:03:34.
