data_PCOD9368674
_publ_section_title
;
Structure prediction by ZEFSAII (Michael W. Deem and Ramdas Pophale) SiO2 
 PCOD9368674
Probable space group: F M M 2
;
_chemical_formula_sum "Si O2"
_cell_formula_units_Z 96
_cell_length_a 11.271520
_cell_length_b 14.938249
_cell_length_c 29.052962
_cell_angle_alpha 90.000000
_cell_angle_beta 90.000000
_cell_angle_gamma 90.000000
_cell_volume 4891.843969
_symmetry_space_group_name_H-M "F M M 2"
_symmetry_group_IT_number 42
_symmetry_cell_setting 'orthorhombic'
loop_
_space_group_symop_operation_xyz
x,y,z
-x,-y,z
-x,y,z
x,-y,z
x,1/2+y,1/2+z
-x,1/2-y,1/2+z
-x,1/2+y,1/2+z
x,1/2-y,1/2+z
1/2+x,y,1/2+z
1/2-x,-y,1/2+z
1/2-x,y,1/2+z
1/2+x,-y,1/2+z
1/2+x,1/2+y,z
1/2-x,1/2-y,z
1/2-x,1/2+y,z
1/2+x,1/2-y,z
loop_
_atom_site_type_symbol
_atom_site_label
_atom_site_fract_x
_atom_site_fract_y
_atom_site_fract_z
Si Si1 0.368951 0.607655 0.060820
Si Si2 0.855390 0.000000 0.406325
Si Si3 0.723807 0.347311 0.474382
Si Si4 0.241147 0.891277 0.155622
Si Si5 0.500000 0.609487 0.536054
Si Si6 0.140496 0.181517 0.245147
Si Si7 0.642059 0.000000 0.800455
Si Si8 0.000000 0.391441 0.143803
O O1 0.500000 0.642507 0.070034
O O2 0.369600 0.500000 0.063089
O O3 0.285958 0.635895 0.103071
O O4 0.329507 0.630203 0.009510
O O5 0.804353 0.915784 0.434070
O O6 0.817097 0.000000 0.353301
O O7 0.000000 0.000000 0.409429
O O8 0.750000 0.250000 0.455276
O O9 0.612802 0.353350 0.509216
O O10 0.153282 0.847383 0.191761
O O11 0.376572 0.863744 0.166415
O O12 0.231834 0.000000 0.158544
O O13 0.500000 0.500000 0.532526
O O14 0.500000 0.632209 0.589772
O O15 0.250000 0.250000 0.254598
O O16 0.171920 0.090940 0.273594
O O17 0.000000 0.205868 0.254372
O O18 0.500000 0.000000 0.802649
O O19 0.000000 0.500000 0.144484
#
# Coordination Sequence:
#
# PCOD9368674 Si02
#       8
#    16   8  16  16   8  16   8   8
#     4  10  20  34  53  81 123 173 214 250 301 366
#     4  11  22  44  72  93 117 160 213 262 317 386
#     4  12  23  35  60  92 124 160 207 259 309 363
#     4  10  19  35  60  90 125 172 217 262 309 370
#     4  11  18  40  62  81 120 166 220 255 299 351
#     4  11  24  43  68  99 131 166 212 266 320 387
#     4   9  22  46  74  95 119 160 208 263 330 393
#     4   9  18  30  58  90 122 168 224 268 307 358
#
# _framework density 19.624500999999999
#
# number of rings (size 3 to 8) (size 9 to 14) (size 15 to 20)
#    0.000    1.500    5.000    0.500    2.333    2.000 
#    0.000    0.417    0.000    2.000    0.000    0.000 
#    0.000    0.000    0.000    0.000    0.000    0.000 
#
# Total GULP energy -133950.701432 kJ/mol
# GULP energy per Si atom -5581.279226 kJ/mol
# Density = 1.957983 g / cm^3
# Si number density = 19.624501 Si / 1000 Ang^3
#
#
#
# Elastic Constant Matrix: (Units=GPa)
#
#
# Indices 1 2 3 4 5 6 
#
# 1 98.6276 46.2819 16.4917 0.0000 0.0000 0.0000
# 2 46.2819 111.8526 44.8125 0.0000 0.0000 0.0000
# 3 16.4917 44.8125 100.1920 0.0000 0.0000 0.0000
# 4 0.0000 0.0000 0.0000 -12.6045 0.0000 0.0000
# 5 0.0000 0.0000 0.0000 0.0000 19.4845 0.0000
# 6 0.0000 0.0000 0.0000 0.0000 0.0000 19.2894
#
#
#
# Elastic Compliance Matrix: (Units=1/GPa)
#
#
# Indices 1 2 3 4 5 6 
#
# 1 0.012590 -0.005335 0.000314 0.000000 0.000000 0.000000
# 2 -0.005335 0.013153 -0.005005 0.000000 0.000000 0.000000
# 3 0.000314 -0.005005 0.012168 0.000000 0.000000 0.000000
# 4 0.000000 0.000000 0.000000 -0.079337 0.000000 0.000000
# 5 0.000000 0.000000 0.000000 0.000000 0.051323 0.000000
# 6 0.000000 0.000000 0.000000 0.000000 0.000000 0.051842
#
#
# Mechanical properties :
#
#
# Convention : Reuss Voigt Hill
#
# Bulk Modulus (GPa) = 55.99499 58.42715 57.21107
# Shear Modulus (GPa) = 56.98383 18.77295 37.87839
#
# Velocity S-wave (km/s) = 5.39445 3.09626 4.39812
# Velocity P-wave (km/s) = 8.20946 6.52837 7.41670
#
# Compressibility (1/GPa) = 0.01785874
#
# Stress axis : x y z
#
# Youngs Moduli (GPa) = 79.42608 76.02788 82.18547
#
# Poissons Ratio (x) = 0.40564 -0.02580
# Poissons Ratio (y) = 0.42377 0.41132
# Poissons Ratio (z) = -0.02494 0.38050
#
# Static dielectric constant tensor:
#      x y z
#    x 1.731730 0.000000 0.000000 
#    y 0.000000 1.732050 0.000000 
#    z 0.000000 0.000000 1.654740 
# 
# From -- ./inp_files/34141.got.cif
#   From: 2010.05.17/outbox.cif.g08.bks.cpg/sg42_18_cif.got.tgz:34141.got - 2010.06.03 19:03:34.
