data_PCOD9368632
_publ_section_title
;
Structure prediction by ZEFSAII (Michael W. Deem and Ramdas Pophale) SiO2 
 PCOD9368632
Probable space group: F M M 2
;
_chemical_formula_sum "Si O2"
_cell_formula_units_Z 96
_cell_length_a 20.983532
_cell_length_b 14.891714
_cell_length_c 15.028900
_cell_angle_alpha 90.000000
_cell_angle_beta 90.000000
_cell_angle_gamma 90.000000
_cell_volume 4696.242053
_symmetry_space_group_name_H-M "F M M 2"
_symmetry_group_IT_number 42
_symmetry_cell_setting 'orthorhombic'
loop_
_space_group_symop_operation_xyz
x,y,z
-x,-y,z
-x,y,z
x,-y,z
x,1/2+y,1/2+z
-x,1/2-y,1/2+z
-x,1/2+y,1/2+z
x,1/2-y,1/2+z
1/2+x,y,1/2+z
1/2-x,-y,1/2+z
1/2-x,y,1/2+z
1/2+x,-y,1/2+z
1/2+x,1/2+y,z
1/2-x,1/2-y,z
1/2-x,1/2+y,z
1/2+x,1/2-y,z
loop_
_atom_site_type_symbol
_atom_site_label
_atom_site_fract_x
_atom_site_fract_y
_atom_site_fract_z
Si Si1 0.190099 0.814873 0.662870
Si Si2 0.573652 0.500000 0.418816
Si Si3 0.427353 0.500000 0.208384
Si Si4 0.069613 0.100189 0.958081
Si Si5 0.680529 0.645088 0.458566
Si Si6 0.807960 0.153697 0.867202
Si Si7 0.925652 0.688314 0.642568
O O1 0.250000 0.750000 0.650099
O O2 0.186930 0.860195 0.565762
O O3 0.202202 0.853428 0.761389
O O4 0.121995 0.765196 0.670982
O O5 0.500000 0.500000 0.454761
O O6 0.568072 0.500000 0.313268
O O7 0.617173 0.587344 0.439811
O O8 0.500000 0.500000 0.171991
O O9 0.398542 0.594460 0.180229
O O10 0.126473 0.106661 0.890672
O O11 0.000000 0.111554 0.916475
O O12 0.071452 0.000000 0.999126
O O13 0.075995 0.172712 0.036507
O O14 0.747174 0.611229 0.416785
O O15 0.680712 0.744763 0.410131
O O16 0.000000 0.700264 0.669062
#
# Coordination Sequence:
#
# PCOD9368632 Si02
#       7
#    16   8   8  16  16  16  16
#     4  12  22  40  64  90 123 161 208 261 309 375
#     4  11  26  44  63  92 131 171 209 259 319 376
#     4   9  18  34  57  90 122 151 201 255 300 356
#     4  10  20  37  61  92 129 164 205 261 317 372
#     4  11  23  43  64  91 127 164 210 259 309 381
#     4  11  23  41  67  92 123 165 215 259 314 378
#     4  10  19  34  60  91 122 160 205 255 311 364
#
# _framework density 20.441876000000001
#
# number of rings (size 3 to 8) (size 9 to 14) (size 15 to 20)
#    0.000    1.333    5.833    1.000    1.167    2.000 
#    1.500    0.000    0.000    0.000    0.000    0.000 
#    0.000    0.000    0.000    0.000    0.000    0.000 
#
# Total GULP energy -133617.444126 kJ/mol
# GULP energy per Si atom -5567.393505 kJ/mol
# Density = 2.039535 g / cm^3
# Si number density = 20.441876 Si / 1000 Ang^3
#
#
#
# Elastic Constant Matrix: (Units=GPa)
#
#
# Indices 1 2 3 4 5 6 
#
# 1 145.0062 31.0517 46.7571 0.0000 0.0000 0.0000
# 2 31.0517 33.5550 24.6251 0.0000 0.0000 0.0000
# 3 46.7571 24.6251 132.0250 0.0000 0.0000 0.0000
# 4 0.0000 0.0000 0.0000 -3.2031 0.0000 0.0000
# 5 0.0000 0.0000 0.0000 0.0000 21.5051 0.0000
# 6 0.0000 0.0000 0.0000 0.0000 0.0000 5.4765
#
#
#
# Elastic Compliance Matrix: (Units=1/GPa)
#
#
# Indices 1 2 3 4 5 6 
#
# 1 0.008990 -0.006932 -0.001891 0.000000 0.000000 0.000000
# 2 -0.006932 0.039873 -0.004982 0.000000 0.000000 0.000000
# 3 -0.001891 -0.004982 0.009173 0.000000 0.000000 0.000000
# 4 0.000000 0.000000 0.000000 -0.312199 0.000000 0.000000
# 5 0.000000 0.000000 0.000000 0.000000 0.046501 0.000000
# 6 0.000000 0.000000 0.000000 0.000000 0.000000 0.182597
#
#
# Mechanical properties :
#
#
# Convention : Reuss Voigt Hill
#
# Bulk Modulus (GPa) = 32.86616 57.27267 45.06942
# Shear Modulus (GPa) = 394.10120 18.63254 206.36687
#
# Velocity S-wave (km/s) = 13.89999 3.02236 10.05844
# Velocity P-wave (km/s) = 16.54466 6.34490 12.52963
#
# Compressibility (1/GPa) = 0.03042643
#
# Stress axis : x y z
#
# Youngs Moduli (GPa) = 111.22938 25.07980 109.01212
#
# Poissons Ratio (x) = 0.17385 0.20615
# Poissons Ratio (y) = 0.77103 0.54310
# Poissons Ratio (z) = 0.21034 0.12495
#
# Static dielectric constant tensor:
#      x y z
#    x 1.736310 0.000000 0.000000 
#    y 0.000000 1.799870 0.000000 
#    z 0.000000 0.000000 1.889050 
# 
# From -- ./inp_files/15855.got.cif
#   From: 2010.05.17/outbox.cif.g08.bks.cpg/sg42_8_cif.got.tgz:15855.got - 2010.06.03 19:03:34.
