data_PCOD9368904
_publ_section_title
;
Structure prediction by ZEFSAII (Michael W. Deem and Ramdas Pophale) SiO2 
 PCOD9368904
Probable space group: F M M 2
;
_chemical_formula_sum "Si O2"
_cell_formula_units_Z 104
_cell_length_a 21.698134
_cell_length_b 10.084738
_cell_length_c 25.924993
_cell_angle_alpha 90.000000
_cell_angle_beta 90.000000
_cell_angle_gamma 90.000000
_cell_volume 5672.906877
_symmetry_space_group_name_H-M "F M M 2"
_symmetry_group_IT_number 42
_symmetry_cell_setting 'orthorhombic'
loop_
_space_group_symop_operation_xyz
x,y,z
-x,-y,z
-x,y,z
x,-y,z
x,1/2+y,1/2+z
-x,1/2-y,1/2+z
-x,1/2+y,1/2+z
x,1/2-y,1/2+z
1/2+x,y,1/2+z
1/2-x,-y,1/2+z
1/2-x,y,1/2+z
1/2+x,-y,1/2+z
1/2+x,1/2+y,z
1/2-x,1/2-y,z
1/2-x,1/2+y,z
1/2+x,1/2-y,z
loop_
_atom_site_type_symbol
_atom_site_label
_atom_site_fract_x
_atom_site_fract_y
_atom_site_fract_z
Si Si1 0.631977 0.651067 0.405860
Si Si2 0.750000 0.250000 0.847429
Si Si3 0.927791 0.156484 0.987341
Si Si4 0.569462 0.346193 0.296052
Si Si5 0.666647 0.356813 0.759824
Si Si6 0.198012 0.350068 0.142311
Si Si7 0.930128 0.156165 0.587138
O O1 0.627282 0.500000 0.426281
O O2 0.699760 0.676822 0.382475
O O3 0.613205 0.763423 0.446342
O O4 0.586844 0.662116 0.356494
O O5 0.713479 0.344187 0.807593
O O6 0.000000 0.162388 0.971355
O O7 0.911760 0.000000 0.992595
O O8 0.923667 0.240568 0.040207
O O9 0.500000 0.301096 0.287682
O O10 0.574759 0.500000 0.281436
O O11 0.618165 0.259647 0.265705
O O12 0.635130 0.500000 0.762771
O O13 0.698611 0.348601 0.704482
O O14 0.212158 0.500000 0.125139
O O15 0.250000 0.250000 0.122667
O O16 0.127965 0.320674 0.124569
O O17 0.000000 0.173307 0.608784
O O18 0.926529 0.000000 0.570642
#
# Coordination Sequence:
#
# PCOD9368904 Si02
#       7
#    16   8  16  16  16  16  16
#     4  10  20  34  55  79 107 146 188 227 272 331
#     4  10  20  36  54  78 110 148 190 228 274 322
#     4  10  21  37  58  84 112 142 180 229 284 335
#     4   9  19  34  51  76 110 145 182 226 276 331
#     4  10  20  34  55  80 108 145 187 229 275 326
#     4  10  21  37  59  87 114 149 189 233 285 338
#     4   9  19  38  62  85 112 148 191 235 282 341
#
# _framework density 18.332751999999999
#
# number of rings (size 3 to 8) (size 9 to 14) (size 15 to 20)
#    0.000    2.308    0.769    1.385    0.000    7.385 
#    1.385    1.538    0.000    1.846    0.000    0.000 
#    0.000    0.000    0.000    0.000    0.000    0.000 
#
# Total GULP energy -144897.580264 kJ/mol
# GULP energy per Si atom -5572.983856 kJ/mol
# Density = 1.829103 g / cm^3
# Si number density = 18.332752 Si / 1000 Ang^3
#
#
#
# Elastic Constant Matrix: (Units=GPa)
#
#
# Indices 1 2 3 4 5 6 
#
# 1 103.9909 56.5317 27.3275 0.0000 0.0000 0.0000
# 2 56.5317 102.8009 34.1906 0.0000 0.0000 0.0000
# 3 27.3275 34.1906 35.2689 0.0000 0.0000 0.0000
# 4 0.0000 0.0000 0.0000 23.6780 0.0000 0.0000
# 5 0.0000 0.0000 0.0000 0.0000 10.5603 0.0000
# 6 0.0000 0.0000 0.0000 0.0000 0.0000 25.1278
#
#
#
# Elastic Compliance Matrix: (Units=1/GPa)
#
#
# Indices 1 2 3 4 5 6 
#
# 1 0.014314 -0.006173 -0.005107 0.000000 0.000000 0.000000
# 2 -0.006173 0.017019 -0.011715 0.000000 0.000000 0.000000
# 3 -0.005107 -0.011715 0.043667 0.000000 0.000000 0.000000
# 4 0.000000 0.000000 0.000000 0.042233 0.000000 0.000000
# 5 0.000000 0.000000 0.000000 0.000000 0.094694 0.000000
# 6 0.000000 0.000000 0.000000 0.000000 0.000000 0.039796
#
#
# Mechanical properties :
#
#
# Convention : Reuss Voigt Hill
#
# Bulk Modulus (GPa) = 34.47062 53.12892 43.79977
# Shear Modulus (GPa) = 16.26632 20.14062 18.20347
#
# Velocity S-wave (km/s) = 2.98196 3.31813 3.15453
# Velocity P-wave (km/s) = 5.54073 6.61235 6.10012
#
# Compressibility (1/GPa) = 0.02901021
#
# Stress axis : x y z
#
# Youngs Moduli (GPa) = 69.86179 58.75951 22.90044
#
# Poissons Ratio (x) = 0.36272 0.11694
# Poissons Ratio (y) = 0.43126 0.26828
# Poissons Ratio (z) = 0.35676 0.68838
#
# Static dielectric constant tensor:
#      x y z
#    x 1.628720 0.000000 0.000000 
#    y 0.000000 1.633650 0.000000 
#    z 0.000000 0.000000 1.612450 
# 
# From -- ./inp_files/33048.got.cif
#   From: 2010.05.17/outbox.cif.g08.bks.cpg/sg42_17_cif.got.tgz:33048.got - 2010.06.03 19:03:34.
