data_PCOD9368107
_publ_section_title
;
Structure prediction by ZEFSAII (Michael W. Deem and Ramdas Pophale) SiO2 
 PCOD9368107
Probable space group: F M M 2
;
_chemical_formula_sum "Si O2"
_cell_formula_units_Z 104
_cell_length_a 19.709841
_cell_length_b 17.773208
_cell_length_c 14.579937
_cell_angle_alpha 90.000000
_cell_angle_beta 90.000000
_cell_angle_gamma 90.000000
_cell_volume 5107.455503
_symmetry_space_group_name_H-M "F M M 2"
_symmetry_group_IT_number 42
_symmetry_cell_setting 'orthorhombic'
loop_
_space_group_symop_operation_xyz
x,y,z
-x,-y,z
-x,y,z
x,-y,z
x,1/2+y,1/2+z
-x,1/2-y,1/2+z
-x,1/2+y,1/2+z
x,1/2-y,1/2+z
1/2+x,y,1/2+z
1/2-x,-y,1/2+z
1/2-x,y,1/2+z
1/2+x,-y,1/2+z
1/2+x,1/2+y,z
1/2-x,1/2-y,z
1/2-x,1/2+y,z
1/2+x,1/2-y,z
loop_
_atom_site_type_symbol
_atom_site_label
_atom_site_fract_x
_atom_site_fract_y
_atom_site_fract_z
Si Si1 0.000000 0.753525 0.586091
Si Si2 0.223409 0.373275 0.082314
Si Si3 0.854612 0.772246 0.339715
Si Si4 0.651648 0.887104 0.261732
Si Si5 0.227355 0.580549 0.876371
Si Si6 0.500000 0.635052 0.760535
Si Si7 0.852757 0.717391 0.548606
Si Si8 0.000000 0.279960 0.876549
O O1 0.000000 0.811587 0.670071
O O2 0.929163 0.708969 0.584300
O O3 0.000000 0.793148 0.485417
O O4 0.193681 0.411817 0.172288
O O5 0.177998 0.298044 0.075275
O O6 0.301176 0.345245 0.085052
O O7 0.216327 0.414437 0.985332
O O8 0.845978 0.704705 0.268705
O O9 0.803185 0.841487 0.336783
O O10 0.851474 0.728208 0.437790
O O11 0.929733 0.807371 0.334875
O O12 0.693937 0.916938 0.347782
O O13 0.572143 0.906703 0.260103
O O14 0.199090 0.500000 0.843602
O O15 0.500000 0.690952 0.849035
#
# Coordination Sequence:
#
# PCOD9368107 Si02
#       8
#     8  16  16  16  16   8  16   8
#     4  10  16  28  48  83 124 138 181 242 310 351
#     4  10  20  33  56  82 116 149 193 241 302 344
#     4   9  18  35  57  85 114 149 198 240 296 350
#     4  11  21  37  64  88 117 152 202 255 301 355
#     4  11  24  39  55  82 124 163 201 241 293 365
#     4  10  20  34  57  93 118 152 189 255 313 353
#     4   9  17  30  50  84 112 145 179 240 293 348
#     4   8  18  30  53  84 120 148 186 249 305 360
#
# _framework density 20.362389
#
# number of rings (size 3 to 8) (size 9 to 14) (size 15 to 20)
#    0.000    2.154    3.077    0.462    4.308    0.615 
#    0.000    0.769    0.000    0.000    0.000    0.000 
#    0.000    2.462    0.000    0.000    0.000    0.000 
#
# Total GULP energy -144924.653551 kJ/mol
# GULP energy per Si atom -5574.025137 kJ/mol
# Density = 2.031604 g / cm^3
# Si number density = 20.362389 Si / 1000 Ang^3
#
#
#
# Elastic Constant Matrix: (Units=GPa)
#
#
# Indices 1 2 3 4 5 6 
#
# 1 169.7355 29.9102 22.2932 0.0000 0.0000 0.0000
# 2 29.9102 75.7273 5.5444 0.0000 0.0000 0.0000
# 3 22.2932 5.5444 92.3838 0.0000 0.0000 0.0000
# 4 0.0000 0.0000 0.0000 -6.2149 0.0000 0.0000
# 5 0.0000 0.0000 0.0000 0.0000 27.5467 0.0000
# 6 0.0000 0.0000 0.0000 0.0000 0.0000 -8.7563
#
#
#
# Elastic Compliance Matrix: (Units=1/GPa)
#
#
# Indices 1 2 3 4 5 6 
#
# 1 0.006513 -0.002468 -0.001424 0.000000 0.000000 0.000000
# 2 -0.002468 0.014199 -0.000256 0.000000 0.000000 0.000000
# 3 -0.001424 -0.000256 0.011183 0.000000 0.000000 0.000000
# 4 0.000000 0.000000 0.000000 -0.160904 0.000000 0.000000
# 5 0.000000 0.000000 0.000000 0.000000 0.036302 0.000000
# 6 0.000000 0.000000 0.000000 0.000000 0.000000 -0.114203
#
#
# Mechanical properties :
#
#
# Convention : Reuss Voigt Hill
#
# Bulk Modulus (GPa) = 42.37513 50.37135 46.37324
# Shear Modulus (GPa) = -26.21288 21.18836 -2.51226
#
# Velocity S-wave (km/s) = -3.59181 3.22928 -1.11196
# Velocity P-wave (km/s) = 1.91159 6.22057 4.60161
#
# Compressibility (1/GPa) = 0.02359875
#
# Stress axis : x y z
#
# Youngs Moduli (GPa) = 153.52784 70.42743 89.41875
#
# Poissons Ratio (x) = 0.17384 0.12730
# Poissons Ratio (y) = 0.37897 0.02294
# Poissons Ratio (z) = 0.21857 0.01806
#
# Static dielectric constant tensor:
#      x y z
#    x 1.765540 0.000000 0.000000 
#    y 0.000000 1.698740 0.000000 
#    z 0.000000 0.000000 1.792500 
# 
# From -- ./inp_files/16117.got.cif
#   From: 2010.05.17/outbox.cif.g08.bks.cpg/sg42_9_cif.got.tgz:16117.got - 2010.06.03 19:03:34.
