data_PCOD9368282
_publ_section_title
;
Structure prediction by ZEFSAII (Michael W. Deem and Ramdas Pophale) SiO2 
 PCOD9368282
Probable space group: F M M 2
;
_chemical_formula_sum "Si O2"
_cell_formula_units_Z 52
_cell_length_a 8.180378
_cell_length_b 15.005998
_cell_length_c 21.967096
_cell_angle_alpha 90.000000
_cell_angle_beta 90.000000
_cell_angle_gamma 90.000000
_cell_volume 2696.565068
_symmetry_space_group_name_H-M "F M M 2"
_symmetry_group_IT_number 42
_symmetry_cell_setting 'orthorhombic'
loop_
_space_group_symop_operation_xyz
x,y,z
-x,-y,z
-x,y,z
x,-y,z
x,1/2+y,1/2+z
-x,1/2-y,1/2+z
-x,1/2+y,1/2+z
x,1/2-y,1/2+z
1/2+x,y,1/2+z
1/2-x,-y,1/2+z
1/2-x,y,1/2+z
1/2+x,-y,1/2+z
1/2+x,1/2+y,z
1/2-x,1/2-y,z
1/2-x,1/2+y,z
1/2+x,1/2-y,z
loop_
_atom_site_type_symbol
_atom_site_label
_atom_site_fract_x
_atom_site_fract_y
_atom_site_fract_z
Si Si1 0.000000 0.896983 0.161150
Si Si2 0.500000 0.000000 0.779110
Si Si3 0.808715 0.500000 0.367827
Si Si4 0.192291 0.651627 0.467870
Si Si5 0.822111 0.393432 0.099456
O O1 0.000000 0.915395 0.233074
O O2 0.167472 0.856419 0.136438
O O3 0.000000 0.000000 0.135391
O O4 0.666371 0.000000 0.817822
O O5 0.785219 0.415391 0.412105
O O6 0.000000 0.500000 0.346308
O O7 0.250000 0.750000 0.451287
O O8 0.288155 0.621855 0.528172
O O9 0.000000 0.651202 0.483611
O O10 0.828875 0.500000 0.110362
O O11 0.000000 0.356147 0.115826
#
# Coordination Sequence:
#
# PCOD9368282 Si02
#       5
#     8   4   8  16  16
#     4   8  18  34  53  85 110 149 195 243 281 346
#     4  10  22  36  62  82 112 164 208 242 288 346
#     4  10  24  39  57  87 121 156 204 245 288 354
#     4  11  22  36  58  92 127 153 190 243 304 361
#     4  10  18  31  57  88 116 149 184 237 295 349
#
# _framework density 19.283791999999998
#
# number of rings (size 3 to 8) (size 9 to 14) (size 15 to 20)
#    0.462    1.538    3.077    0.923    4.308    1.231 
#    0.000    0.000    0.000    1.846    0.000    0.000 
#    0.000    0.000    0.000    0.000    0.000    0.000 
#
# Total GULP energy -72505.191243 kJ/mol
# GULP energy per Si atom -5577.322403 kJ/mol
# Density = 1.923990 g / cm^3
# Si number density = 19.283792 Si / 1000 Ang^3
#
#
#
# Elastic Constant Matrix: (Units=GPa)
#
#
# Indices 1 2 3 4 5 6 
#
# 1 211.3390 31.6227 92.7286 0.0000 0.0000 0.0000
# 2 31.6227 47.5944 9.7890 0.0000 0.0000 0.0000
# 3 92.7286 9.7890 92.7365 0.0000 0.0000 0.0000
# 4 0.0000 0.0000 0.0000 -10.7053 0.0000 0.0000
# 5 0.0000 0.0000 0.0000 0.0000 25.2140 0.0000
# 6 0.0000 0.0000 0.0000 0.0000 0.0000 18.7027
#
#
#
# Elastic Compliance Matrix: (Units=1/GPa)
#
#
# Indices 1 2 3 4 5 6 
#
# 1 0.009227 -0.004327 -0.008769 0.000000 0.000000 0.000000
# 2 -0.004327 0.023506 0.001845 0.000000 0.000000 0.000000
# 3 -0.008769 0.001845 0.019357 0.000000 0.000000 0.000000
# 4 0.000000 0.000000 0.000000 -0.093411 0.000000 0.000000
# 5 0.000000 0.000000 0.000000 0.000000 0.039661 0.000000
# 6 0.000000 0.000000 0.000000 0.000000 0.000000 0.053468
#
#
# Mechanical properties :
#
#
# Convention : Reuss Voigt Hill
#
# Bulk Modulus (GPa) = 33.79725 68.88339 51.34032
# Shear Modulus (GPa) = 59.40205 21.14425 40.27315
#
# Velocity S-wave (km/s) = 5.55617 3.31490 4.57491
# Velocity P-wave (km/s) = 7.66327 7.10281 7.38835
#
# Compressibility (1/GPa) = 0.02958820
#
# Stress axis : x y z
#
# Youngs Moduli (GPa) = 108.37908 42.54199 51.66067
#
# Poissons Ratio (x) = 0.18407 0.45303
# Poissons Ratio (y) = 0.46894 -0.09533
# Poissons Ratio (z) = 0.95042 -0.07850
#
# Static dielectric constant tensor:
#      x y z
#    x 1.723640 0.000000 0.000000 
#    y 0.000000 1.678990 0.000000 
#    z 0.000000 0.000000 1.628580 
# 
# From -- ./inp_files/17707.got.cif
#   From: 2010.05.17/outbox.cif.g08.bks.cpg/sg42_9_cif.got.tgz:17707.got - 2010.06.03 19:03:34.
