data_PCOD9368099
_publ_section_title
;
Structure prediction by ZEFSAII (Michael W. Deem and Ramdas Pophale) SiO2 
 PCOD9368099
Probable space group: F M M 2
;
_chemical_formula_sum "Si O2"
_cell_formula_units_Z 80
_cell_length_a 14.374269
_cell_length_b 43.270665
_cell_length_c 5.435896
_cell_angle_alpha 90.000000
_cell_angle_beta 90.000000
_cell_angle_gamma 90.000000
_cell_volume 3381.041308
_symmetry_space_group_name_H-M "F M M 2"
_symmetry_group_IT_number 42
_symmetry_cell_setting 'orthorhombic'
loop_
_space_group_symop_operation_xyz
x,y,z
-x,-y,z
-x,y,z
x,-y,z
x,1/2+y,1/2+z
-x,1/2-y,1/2+z
-x,1/2+y,1/2+z
x,1/2-y,1/2+z
1/2+x,y,1/2+z
1/2-x,-y,1/2+z
1/2-x,y,1/2+z
1/2+x,-y,1/2+z
1/2+x,1/2+y,z
1/2-x,1/2-y,z
1/2-x,1/2+y,z
1/2+x,1/2-y,z
loop_
_atom_site_type_symbol
_atom_site_label
_atom_site_fract_x
_atom_site_fract_y
_atom_site_fract_z
Si Si1 0.887018 0.429340 0.605500
Si Si2 0.643379 0.237831 0.166650
Si Si3 0.113350 0.035341 0.604382
Si Si4 0.147427 0.641227 0.531618
Si Si5 0.357784 0.333881 0.532181
O O1 0.860934 0.448425 0.361037
O O2 0.847420 0.394950 0.587092
O O3 0.000000 0.426705 0.606967
O O4 0.859261 0.446022 0.859244
O O5 0.603000 0.243455 0.436469
O O6 0.750000 0.250000 0.192210
O O7 0.638988 0.202143 0.093517
O O8 0.000000 0.034502 0.601492
O O9 0.146629 0.000000 0.595117
O O10 0.250072 0.655833 0.507879
O O11 0.103475 0.647495 0.265485
O O12 0.102112 0.657714 0.766565
#
# Coordination Sequence:
#
# PCOD9368099 Si02
#       5
#    16  16  16  16  16
#     4  10  19  30  47  71  94 117 146 180 222 268
#     4  10  16  25  41  63  91 110 136 186 232 266
#     4   9  17  30  47  68  92 114 142 185 232 268
#     4  10  18  30  44  64  94 122 148 180 212 266
#     4  10  19  30  45  67  92 121 152 178 220 270
#
# _framework density 23.661349000000001
#
# number of rings (size 3 to 8) (size 9 to 14) (size 15 to 20)
#    0.000    2.200    0.000    7.800    0.000    2.400 
#    0.000    0.000    0.000    0.000    0.000   56.000 
#    0.000   59.200    0.000    0.000    0.000    0.000 
#
# Total GULP energy -111838.340377 kJ/mol
# GULP energy per Si atom -5591.917019 kJ/mol
# Density = 2.360749 g / cm^3
# Si number density = 23.661349 Si / 1000 Ang^3
#
#
#
# Elastic Constant Matrix: (Units=GPa)
#
#
# Indices 1 2 3 4 5 6 
#
# 1 90.2337 -12.6497 -4.1459 -0.0001 0.0000 -0.0005
# 2 -12.6497 90.5045 -22.9335 -0.0005 -0.0004 0.0000
# 3 -4.1459 -22.9335 153.3561 -0.0005 -0.0005 -0.0001
# 4 -0.0001 -0.0005 -0.0005 53.7340 0.0000 0.0004
# 5 0.0000 -0.0004 -0.0005 0.0000 -22.0779 0.0005
# 6 -0.0005 0.0000 -0.0001 0.0004 0.0005 76.1878
#
#
#
# Elastic Compliance Matrix: (Units=1/GPa)
#
#
# Indices 1 2 3 4 5 6 
#
# 1 0.011351 0.001730 0.000566 0.000000 0.000000 0.000000
# 2 0.001730 0.011748 0.001804 0.000000 0.000000 0.000000
# 3 0.000566 0.001804 0.006806 0.000000 0.000000 0.000000
# 4 0.000000 0.000000 0.000000 0.018610 0.000000 0.000000
# 5 0.000000 0.000000 0.000000 0.000000 -0.045294 0.000000
# 6 0.000000 0.000000 0.000000 0.000000 0.000000 0.013125
#
#
# Mechanical properties :
#
#
# Convention : Reuss Voigt Hill
#
# Bulk Modulus (GPa) = 26.24503 28.29291 27.26897
# Shear Modulus (GPa) = 239.82008 46.49033 143.15521
#
# Velocity S-wave (km/s) = 10.07845 4.43744 7.78672
# Velocity P-wave (km/s) = 12.10577 6.18368 9.61217
#
# Compressibility (1/GPa) = 0.03810245
#
# Stress axis : x y z
#
# Youngs Moduli (GPa) = 88.09941 85.12108 146.93398
#
# Poissons Ratio (x) = -0.14724 -0.08310
# Poissons Ratio (y) = -0.15239 -0.26501
# Poissons Ratio (z) = -0.04982 -0.15352
#
# Static dielectric constant tensor:
#      x y z
#    x 1.656190 0.000000 0.000000 
#    y 0.000000 1.804560 0.000000 
#    z 0.000000 0.000000 1.943280 
# 
# From -- ./inp_files/1255.got.cif
#   From: 2010.05.17/outbox.cif.g08.bks.cpg/sg42_1_cif.got.tgz:1255.got - 2010.06.03 19:03:34.
