data_PCOD9368973
_publ_section_title
;
Structure prediction by ZEFSAII (Michael W. Deem and Ramdas Pophale) SiO2 
 PCOD9368973
Probable space group: F M M 2
;
_chemical_formula_sum "Si O2"
_cell_formula_units_Z 112
_cell_length_a 13.786200
_cell_length_b 16.575093
_cell_length_c 22.967934
_cell_angle_alpha 90.000000
_cell_angle_beta 90.000000
_cell_angle_gamma 90.000000
_cell_volume 5248.346261
_symmetry_space_group_name_H-M "F M M 2"
_symmetry_group_IT_number 42
_symmetry_cell_setting 'orthorhombic'
loop_
_space_group_symop_operation_xyz
x,y,z
-x,-y,z
-x,y,z
x,-y,z
x,1/2+y,1/2+z
-x,1/2-y,1/2+z
-x,1/2+y,1/2+z
x,1/2-y,1/2+z
1/2+x,y,1/2+z
1/2-x,-y,1/2+z
1/2-x,y,1/2+z
1/2+x,-y,1/2+z
1/2+x,1/2+y,z
1/2-x,1/2-y,z
1/2-x,1/2+y,z
1/2+x,1/2-y,z
loop_
_atom_site_type_symbol
_atom_site_label
_atom_site_fract_x
_atom_site_fract_y
_atom_site_fract_z
Si Si1 0.892976 0.902634 0.256460
Si Si2 0.113025 0.732391 0.983439
Si Si3 0.795652 0.170931 0.364271
Si Si4 0.712944 0.163294 0.098006
Si Si5 0.887373 0.591463 0.534158
Si Si6 0.317316 0.096708 0.212761
Si Si7 0.603967 0.903799 0.336756
O O1 0.871457 0.871195 0.321661
O O2 0.796036 0.878581 0.221443
O O3 0.000000 0.875594 0.236364
O O4 0.893200 0.000000 0.257173
O O5 0.159543 0.700718 0.924257
O O6 0.000000 0.716731 0.981604
O O7 0.158060 0.684944 0.038249
O O8 0.125833 0.828937 0.993933
O O9 0.750000 0.250000 0.334168
O O10 0.700542 0.116475 0.371861
O O11 0.750000 0.250000 0.118991
O O12 0.804492 0.105939 0.082555
O O13 0.650279 0.127057 0.150035
O O14 0.876051 0.500000 0.509693
O O15 0.000000 0.596099 0.555142
O O16 0.376254 0.123129 0.269975
O O17 0.320462 0.000000 0.213185
O O18 0.500000 0.870682 0.358026
O O19 0.597530 0.000000 0.336168
#
# Coordination Sequence:
#
# PCOD9368973 Si02
#       7
#    16  16  16  16  16  16  16
#     4   9  19  37  60  84 112 151 197 239 280 331
#     4  10  22  40  59  82 116 153 188 232 285 341
#     4  11  21  36  58  84 114 148 184 233 292 343
#     4  10  20  35  55  85 121 154 189 232 284 338
#     4   9  18  35  59  83 110 150 196 235 274 327
#     4   9  18  33  55  84 118 153 190 235 284 335
#     4   9  20  40  63  85 111 148 195 242 285 333
#
# _framework density 21.340055
#
# number of rings (size 3 to 8) (size 9 to 14) (size 15 to 20)
#    0.000    2.429    0.000    3.429    0.000    4.571 
#    0.000    9.286    0.000   11.571    0.000    0.000 
#    0.000    0.000    0.000    0.000    0.000    0.000 
#
# Total GULP energy -156168.405622 kJ/mol
# GULP energy per Si atom -5577.443058 kJ/mol
# Density = 2.129148 g / cm^3
# Si number density = 21.340055 Si / 1000 Ang^3
#
#
#
# Elastic Constant Matrix: (Units=GPa)
#
#
# Indices 1 2 3 4 5 6 
#
# 1 98.2050 36.3937 6.3276 0.0000 0.0000 0.0000
# 2 36.3937 49.1006 33.2664 0.0000 0.0000 0.0000
# 3 6.3276 33.2664 66.9815 0.0000 0.0000 0.0000
# 4 0.0000 0.0000 0.0000 18.7834 0.0000 0.0000
# 5 0.0000 0.0000 0.0000 0.0000 4.1439 0.0000
# 6 0.0000 0.0000 0.0000 0.0000 0.0000 24.4092
#
#
#
# Elastic Compliance Matrix: (Units=1/GPa)
#
#
# Indices 1 2 3 4 5 6 
#
# 1 0.015706 -0.016030 0.006478 0.000000 0.000000 0.000000
# 2 -0.016030 0.047056 -0.021856 0.000000 0.000000 0.000000
# 3 0.006478 -0.021856 0.025172 0.000000 0.000000 0.000000
# 4 0.000000 0.000000 0.000000 0.053239 0.000000 0.000000
# 5 0.000000 0.000000 0.000000 0.000000 0.241317 0.000000
# 6 0.000000 0.000000 0.000000 0.000000 0.000000 0.040968
#
#
# Mechanical properties :
#
#
# Convention : Reuss Voigt Hill
#
# Bulk Modulus (GPa) = 39.81323 40.69584 40.25454
# Shear Modulus (GPa) = 10.10823 18.68726 14.39774
#
# Velocity S-wave (km/s) = 2.17877 2.96242 2.60028
# Velocity P-wave (km/s) = 5.00264 5.55093 5.28390
#
# Compressibility (1/GPa) = 0.02511728
#
# Stress axis : x y z
#
# Youngs Moduli (GPa) = 63.67000 21.25147 39.72627
#
# Poissons Ratio (x) = 0.34066 -0.25733
# Poissons Ratio (y) = 1.02063 0.86825
# Poissons Ratio (z) = -0.41243 0.46447
#
# Static dielectric constant tensor:
#      x y z
#    x 1.823540 0.000000 0.000000 
#    y 0.000000 1.801860 0.000000 
#    z 0.000000 0.000000 1.781310 
# 
# From -- ./inp_files/29506.got.cif
#   From: 2010.05.17/outbox.cif.g08.bks.cpg/sg42_15_cif.got.tgz:29506.got - 2010.06.03 19:03:34.
