data_PCOD9368672
_publ_section_title
;
Structure prediction by ZEFSAII (Michael W. Deem and Ramdas Pophale) SiO2 
 PCOD9368672
Probable space group: F M M 2
;
_chemical_formula_sum "Si O2"
_cell_formula_units_Z 128
_cell_length_a 22.468100
_cell_length_b 18.466683
_cell_length_c 13.181387
_cell_angle_alpha 90.000000
_cell_angle_beta 90.000000
_cell_angle_gamma 90.000000
_cell_volume 5469.106156
_symmetry_space_group_name_H-M "F M M 2"
_symmetry_group_IT_number 42
_symmetry_cell_setting 'orthorhombic'
loop_
_space_group_symop_operation_xyz
x,y,z
-x,-y,z
-x,y,z
x,-y,z
x,1/2+y,1/2+z
-x,1/2-y,1/2+z
-x,1/2+y,1/2+z
x,1/2-y,1/2+z
1/2+x,y,1/2+z
1/2-x,-y,1/2+z
1/2-x,y,1/2+z
1/2+x,-y,1/2+z
1/2+x,1/2+y,z
1/2-x,1/2-y,z
1/2-x,1/2+y,z
1/2+x,1/2-y,z
loop_
_atom_site_type_symbol
_atom_site_label
_atom_site_fract_x
_atom_site_fract_y
_atom_site_fract_z
Si Si1 0.434239 0.841188 0.051220
Si Si2 0.429566 0.580261 0.770155
Si Si3 0.567734 0.230666 0.704812
Si Si4 0.431354 0.087204 0.487850
Si Si5 0.118364 0.916561 0.200821
Si Si6 0.194747 0.803545 0.712621
Si Si7 0.823735 0.584353 0.029295
Si Si8 0.241799 0.080579 0.322684
O O1 0.500000 0.855829 0.013504
O O2 0.425297 0.879898 0.162328
O O3 0.430368 0.757170 0.085385
O O4 0.384335 0.879393 0.985664
O O5 0.500000 0.572706 0.783821
O O6 0.403301 0.500000 0.760260
O O7 0.412578 0.616081 0.877417
O O8 0.500000 0.254678 0.737409
O O9 0.573955 0.146949 0.733708
O O10 0.632827 0.262547 0.735466
O O11 0.500000 0.109455 0.514487
O O12 0.384850 0.096850 0.579069
O O13 0.434250 0.000000 0.473903
O O14 0.183002 0.908498 0.251928
O O15 0.099468 0.000000 0.218764
O O16 0.250000 0.750000 0.697633
O O17 0.192857 0.858870 0.616922
O O18 0.222547 0.583271 0.938736
O O19 0.832370 0.500000 0.059519
O O20 0.788257 0.642582 0.301966
O O21 0.264141 0.000000 0.298918
#
# Coordination Sequence:
#
# PCOD9368672 Si02
#       8
#    16  16  16  16  16  16  16  16
#     4   9  18  34  57  88 133 182 221 274 343 405
#     4   8  13  24  46  77 115 165 219 264 316 388
#     4  10  21  38  62  96 134 172 224 277 335 410
#     4   8  14  25  45  77 117 164 215 262 316 385
#     4  10  19  35  60  88 127 179 227 277 340 406
#     4  11  22  43  71 100 132 179 225 282 351 405
#     4  10  22  40  66  99 131 170 228 286 339 410
#     4  10  22  42  67  97 133 177 232 286 336 410
#
# _framework density 23.404191999999998
#
# number of rings (size 3 to 8) (size 9 to 14) (size 15 to 20)
#    0.000    2.500    1.250    1.875    0.000    2.000 
#    0.000    6.250    0.000   17.625    0.000    0.000 
#    0.000    0.000    0.000    0.000    0.000    0.000 
#
# Total GULP energy -178225.035457 kJ/mol
# GULP energy per Si atom -5569.532358 kJ/mol
# Density = 2.335092 g / cm^3
# Si number density = 23.404192 Si / 1000 Ang^3
#
#
#
# Elastic Constant Matrix: (Units=GPa)
#
#
# Indices 1 2 3 4 5 6 
#
# 1 144.9446 74.4075 25.6578 0.0000 0.0000 0.0000
# 2 74.4075 143.5554 12.8060 0.0000 0.0000 0.0000
# 3 25.6578 12.8060 42.8307 0.0000 0.0000 0.0000
# 4 0.0000 0.0000 0.0000 -103.4081 0.0000 0.0000
# 5 0.0000 0.0000 0.0000 0.0000 28.9155 0.0000
# 6 0.0000 0.0000 0.0000 0.0000 0.0000 9.0903
#
#
#
# Elastic Compliance Matrix: (Units=1/GPa)
#
#
# Indices 1 2 3 4 5 6 
#
# 1 0.010235 -0.004889 -0.004670 0.000000 0.000000 0.000000
# 2 -0.004889 0.009492 0.000091 0.000000 0.000000 0.000000
# 3 -0.004670 0.000091 0.026118 0.000000 0.000000 0.000000
# 4 0.000000 0.000000 0.000000 -0.009670 0.000000 0.000000
# 5 0.000000 0.000000 0.000000 0.000000 0.034584 0.000000
# 6 0.000000 0.000000 0.000000 0.000000 0.000000 0.110008
#
#
# Mechanical properties :
#
#
# Convention : Reuss Voigt Hill
#
# Bulk Modulus (GPa) = 37.16161 61.89703 49.52932
# Shear Modulus (GPa) = 23.96109 1.48350 12.72229
#
# Velocity S-wave (km/s) = 3.20315 0.79702 2.33403
# Velocity P-wave (km/s) = 5.43993 5.22986 5.33593
#
# Compressibility (1/GPa) = 0.02690949
#
# Stress axis : x y z
#
# Youngs Moduli (GPa) = 97.69989 105.35474 38.28750
#
# Poissons Ratio (x) = 0.51504 0.17880
# Poissons Ratio (y) = 0.47762 -0.00347
# Poissons Ratio (z) = 0.45625 -0.00954
#
# Static dielectric constant tensor:
#      x y z
#    x 1.937590 0.000000 0.000000 
#    y 0.000000 1.998400 0.000000 
#    z 0.000000 0.000000 1.929830 
# 
# From -- ./inp_files/22379.got.cif
#   From: 2010.05.17/outbox.cif.g08.bks.cpg/sg42_12_cif.got.tgz:22379.got - 2010.06.03 19:03:34.
