data_PCOD9368848
_publ_section_title
;
Structure prediction by ZEFSAII (Michael W. Deem and Ramdas Pophale) SiO2 
 PCOD9368848
Probable space group: F M M 2
;
_chemical_formula_sum "Si O2"
_cell_formula_units_Z 96
_cell_length_a 26.176449
_cell_length_b 13.532232
_cell_length_c 14.402288
_cell_angle_alpha 90.000000
_cell_angle_beta 90.000000
_cell_angle_gamma 90.000000
_cell_volume 5101.661712
_symmetry_space_group_name_H-M "F M M 2"
_symmetry_group_IT_number 42
_symmetry_cell_setting 'orthorhombic'
loop_
_space_group_symop_operation_xyz
x,y,z
-x,-y,z
-x,y,z
x,-y,z
x,1/2+y,1/2+z
-x,1/2-y,1/2+z
-x,1/2+y,1/2+z
x,1/2-y,1/2+z
1/2+x,y,1/2+z
1/2-x,-y,1/2+z
1/2-x,y,1/2+z
1/2+x,-y,1/2+z
1/2+x,1/2+y,z
1/2-x,1/2-y,z
1/2-x,1/2+y,z
1/2+x,1/2-y,z
loop_
_atom_site_type_symbol
_atom_site_label
_atom_site_fract_x
_atom_site_fract_y
_atom_site_fract_z
Si Si1 0.723462 0.119351 0.860010
Si Si2 0.292335 0.384833 0.020555
Si Si3 0.385470 0.381997 0.445569
Si Si4 0.215589 0.615106 0.184481
Si Si5 0.060688 0.385630 0.753354
Si Si6 0.127131 0.746908 0.121524
O O1 0.669405 0.150243 0.901994
O O2 0.739111 0.143391 0.755367
O O3 0.720928 0.000000 0.864907
O O4 0.772556 0.148734 0.920677
O O5 0.306697 0.500000 0.017644
O O6 0.241516 0.376685 0.083788
O O7 0.336729 0.322961 0.066196
O O8 0.383274 0.500000 0.465496
O O9 0.424630 0.366100 0.360866
O O10 0.395889 0.322921 0.540366
O O11 0.203134 0.500000 0.201529
O O12 0.164960 0.679895 0.184014
O O13 0.077467 0.500000 0.734597
O O14 0.088997 0.309306 0.685523
O O15 0.000000 0.380115 0.741162
#
# Coordination Sequence:
#
# PCOD9368848 Si02
#       6
#    16  16  16  16  16  16
#     4   9  18  33  52  76 120 164 190 221 273 345
#     4  10  20  34  49  80 122 159 193 224 274 344
#     4  10  21  39  62  89 123 160 200 245 294 353
#     4  10  20  34  52  81 123 162 192 232 285 345
#     4  10  24  46  66  84 111 151 201 256 310 359
#     4  12  22  34  61  91 115 150 200 254 291 348
#
# _framework density 18.817398000000001
#
# number of rings (size 3 to 8) (size 9 to 14) (size 15 to 20)
#    0.000    1.833    1.667    2.500    2.333    3.333 
#    0.000    0.000    0.000    1.500    0.000    0.000 
#    0.000    0.000    0.000    0.000    0.000    0.000 
#
# Total GULP energy -134037.070922 kJ/mol
# GULP energy per Si atom -5584.877955 kJ/mol
# Density = 1.877457 g / cm^3
# Si number density = 18.817398 Si / 1000 Ang^3
#
#
#
# Elastic Constant Matrix: (Units=GPa)
#
#
# Indices 1 2 3 4 5 6 
#
# 1 49.4035 34.3083 21.0937 0.0000 0.0000 0.0000
# 2 34.3083 107.0067 31.0573 0.0000 0.0000 0.0000
# 3 21.0937 31.0573 85.2857 0.0000 0.0000 0.0000
# 4 0.0000 0.0000 0.0000 25.7892 0.0000 0.0000
# 5 0.0000 0.0000 0.0000 0.0000 23.4059 0.0000
# 6 0.0000 0.0000 0.0000 0.0000 0.0000 28.2709
#
#
#
# Elastic Compliance Matrix: (Units=1/GPa)
#
#
# Indices 1 2 3 4 5 6 
#
# 1 0.027190 -0.007566 -0.003970 0.000000 0.000000 0.000000
# 2 -0.007566 0.012555 -0.002701 0.000000 0.000000 0.000000
# 3 -0.003970 -0.002701 0.013691 0.000000 0.000000 0.000000
# 4 0.000000 0.000000 0.000000 0.038776 0.000000 0.000000
# 5 0.000000 0.000000 0.000000 0.000000 0.042724 0.000000
# 6 0.000000 0.000000 0.000000 0.000000 0.000000 0.035372
#
#
# Mechanical properties :
#
#
# Convention : Reuss Voigt Hill
#
# Bulk Modulus (GPa) = 40.05863 46.06829 43.06346
# Shear Modulus (GPa) = 24.14276 25.84231 24.99254
#
# Velocity S-wave (km/s) = 3.58579 3.70985 3.64835
# Velocity P-wave (km/s) = 6.20307 6.54871 6.37823
#
# Compressibility (1/GPa) = 0.02496341
#
# Stress axis : x y z
#
# Youngs Moduli (GPa) = 36.77769 79.65150 73.04250
#
# Poissons Ratio (x) = 0.60260 0.28998
# Poissons Ratio (y) = 0.27824 0.19727
# Poissons Ratio (z) = 0.14601 0.21511
#
# Static dielectric constant tensor:
#      x y z
#    x 1.619910 0.000000 0.000000 
#    y 0.000000 1.713630 0.000000 
#    z 0.000000 0.000000 1.656070 
# 
# From -- ./inp_files/14005.got.cif
#   From: 2010.05.17/outbox.cif.g08.bks.cpg/sg42_8_cif.got.tgz:14005.got - 2010.06.03 19:03:34.
