data_PCOD9368523
_publ_section_title
;
Structure prediction by ZEFSAII (Michael W. Deem and Ramdas Pophale) SiO2 
 PCOD9368523
Probable space group: F M M 2
;
_chemical_formula_sum "Si O2"
_cell_formula_units_Z 112
_cell_length_a 24.272144
_cell_length_b 15.164608
_cell_length_c 15.912951
_cell_angle_alpha 90.000000
_cell_angle_beta 90.000000
_cell_angle_gamma 90.000000
_cell_volume 5857.200003
_symmetry_space_group_name_H-M "F M M 2"
_symmetry_group_IT_number 42
_symmetry_cell_setting 'orthorhombic'
loop_
_space_group_symop_operation_xyz
x,y,z
-x,-y,z
-x,y,z
x,-y,z
x,1/2+y,1/2+z
-x,1/2-y,1/2+z
-x,1/2+y,1/2+z
x,1/2-y,1/2+z
1/2+x,y,1/2+z
1/2-x,-y,1/2+z
1/2-x,y,1/2+z
1/2+x,-y,1/2+z
1/2+x,1/2+y,z
1/2-x,1/2-y,z
1/2-x,1/2+y,z
1/2+x,1/2-y,z
loop_
_atom_site_type_symbol
_atom_site_label
_atom_site_fract_x
_atom_site_fract_y
_atom_site_fract_z
Si Si1 0.780259 0.097498 0.084300
Si Si2 0.376660 0.101972 0.851216
Si Si3 0.062964 0.599539 0.677768
Si Si4 0.757430 0.350871 0.906018
Si Si5 0.564025 0.894801 0.016049
Si Si6 0.370551 0.749924 0.616836
Si Si7 0.790120 0.334111 0.235974
O O1 0.821524 0.182174 0.088864
O O2 0.736239 0.110267 0.159519
O O3 0.806255 0.000000 0.096526
O O4 0.752386 0.098487 0.992634
O O5 0.397061 0.111276 0.756999
O O6 0.319415 0.146792 0.871525
O O7 0.363342 0.000000 0.863811
O O8 0.424530 0.122494 0.917425
O O9 0.069979 0.500000 0.643186
O O10 0.078629 0.682138 0.621224
O O11 0.000000 0.605186 0.705982
O O12 0.750000 0.250000 0.930327
O O13 0.716704 0.376379 0.828460
O O14 0.500000 0.876336 0.037330
O O15 0.608293 0.831814 0.061389
O O16 0.573283 0.000000 0.032079
O O17 0.348002 0.704028 0.702597
O O18 0.750000 0.250000 0.243299
#
# Coordination Sequence:
#
# PCOD9368523 Si02
#       7
#    16  16  16  16  16  16  16
#     4  11  22  35  53  80 114 149 184 220 263 324
#     4  10  19  33  54  78 104 133 171 224 278 320
#     4  10  20  34  54  80 107 137 176 223 275 325
#     4  11  20  33  53  78 110 146 182 220 265 321
#     4  10  21  37  57  80 103 132 177 230 278 319
#     4  11  21  36  55  77 109 147 180 218 265 320
#     4   9  20  35  52  76 108 145 186 225 263 313
#
# _framework density 19.121765
#
# number of rings (size 3 to 8) (size 9 to 14) (size 15 to 20)
#    0.000    1.714    0.000    7.286    0.000    5.714 
#    0.000    0.000    0.000    0.000    0.000    0.000 
#    0.000    6.857    0.000    0.000    0.000    0.000 
#
# Total GULP energy -155965.254722 kJ/mol
# GULP energy per Si atom -5570.187669 kJ/mol
# Density = 1.907824 g / cm^3
# Si number density = 19.121765 Si / 1000 Ang^3
#
#
#
# Elastic Constant Matrix: (Units=GPa)
#
#
# Indices 1 2 3 4 5 6 
#
# 1 58.1655 28.9254 -5.8483 0.0000 0.0000 0.0000
# 2 28.9254 76.2093 29.1507 0.0000 0.0000 0.0000
# 3 -5.8483 29.1507 68.2893 0.0000 0.0000 0.0000
# 4 0.0000 0.0000 0.0000 7.4996 0.0000 0.0000
# 5 0.0000 0.0000 0.0000 0.0000 22.6835 0.0000
# 6 0.0000 0.0000 0.0000 0.0000 0.0000 27.1967
#
#
#
# Elastic Compliance Matrix: (Units=1/GPa)
#
#
# Indices 1 2 3 4 5 6 
#
# 1 0.023707 -0.011682 0.007017 0.000000 0.000000 0.000000
# 2 -0.011682 0.021439 -0.010152 0.000000 0.000000 0.000000
# 3 0.007017 -0.010152 0.019578 0.000000 0.000000 0.000000
# 4 0.000000 0.000000 0.000000 0.133340 0.000000 0.000000
# 5 0.000000 0.000000 0.000000 0.000000 0.044085 0.000000
# 6 0.000000 0.000000 0.000000 0.000000 0.000000 0.036769
#
#
# Mechanical properties :
#
#
# Convention : Reuss Voigt Hill
#
# Bulk Modulus (GPa) = 28.49815 34.12440 31.31128
# Shear Modulus (GPa) = 15.61279 21.50506 18.55892
#
# Velocity S-wave (km/s) = 2.86053 3.35720 3.11877
# Velocity P-wave (km/s) = 5.08390 5.73693 5.42026
#
# Compressibility (1/GPa) = 0.03509000
#
# Stress axis : x y z
#
# Youngs Moduli (GPa) = 42.18091 46.64378 51.07720
#
# Poissons Ratio (x) = 0.54491 -0.35842
# Poissons Ratio (y) = 0.49277 0.51855
# Poissons Ratio (z) = -0.29599 0.47354
#
# Static dielectric constant tensor:
#      x y z
#    x 1.696180 0.000000 0.000000 
#    y 0.000000 1.703700 0.000000 
#    z 0.000000 0.000000 1.720690 
# 
# From -- ./inp_files/14238.got.cif
#   From: 2010.05.17/outbox.cif.g08.bks.cpg/sg42_8_cif.got.tgz:14238.got - 2010.06.03 19:03:34.
