data_PCOD9368688
_publ_section_title
;
Structure prediction by ZEFSAII (Michael W. Deem and Ramdas Pophale) SiO2 
 PCOD9368688
Probable space group: F M M 2
;
_chemical_formula_sum "Si O2"
_cell_formula_units_Z 76
_cell_length_a 12.162890
_cell_length_b 19.798728
_cell_length_c 13.387135
_cell_angle_alpha 90.000000
_cell_angle_beta 90.000000
_cell_angle_gamma 90.000000
_cell_volume 3223.752643
_symmetry_space_group_name_H-M "F M M 2"
_symmetry_group_IT_number 42
_symmetry_cell_setting 'orthorhombic'
loop_
_space_group_symop_operation_xyz
x,y,z
-x,-y,z
-x,y,z
x,-y,z
x,1/2+y,1/2+z
-x,1/2-y,1/2+z
-x,1/2+y,1/2+z
x,1/2-y,1/2+z
1/2+x,y,1/2+z
1/2-x,-y,1/2+z
1/2-x,y,1/2+z
1/2+x,-y,1/2+z
1/2+x,1/2+y,z
1/2-x,1/2-y,z
1/2-x,1/2+y,z
1/2+x,1/2-y,z
loop_
_atom_site_type_symbol
_atom_site_label
_atom_site_fract_x
_atom_site_fract_y
_atom_site_fract_z
Si Si1 0.256132 0.500000 0.026250
Si Si2 0.378440 0.225341 0.103680
Si Si3 0.125280 0.000000 0.727810
Si Si4 0.500000 0.000000 0.585388
Si Si5 0.380755 0.352847 0.813091
Si Si6 0.175035 0.364028 0.921769
Si Si7 0.000000 0.077868 0.280066
O O1 0.215284 0.500000 0.141088
O O2 0.387987 0.500000 0.024740
O O3 0.208228 0.433744 0.975033
O O4 0.500000 0.263079 0.107399
O O5 0.250000 0.250000 0.102326
O O6 0.379252 0.181719 0.205407
O O7 0.383679 0.179946 0.004682
O O8 0.136010 0.932522 0.792338
O O9 0.000000 0.000000 0.685032
O O10 0.500000 0.063957 0.662034
O O11 0.500000 0.342053 0.859413
O O12 0.285128 0.328515 0.883912
O O13 0.103409 0.382759 0.824807
O O14 0.000000 0.000000 0.320937
#
# Coordination Sequence:
#
# PCOD9368688 Si02
#       7
#     8  16   8   4  16  16   8
#     4  12  22  35  66 100 140 170 210 259 326 389
#     4  11  26  49  70  95 126 174 232 284 338 400
#     4  10  19  35  65  95 131 173 206 248 319 392
#     4  10  24  38  56 100 154 180 206 250 328 400
#     4  10  23  42  66  97 135 170 213 267 330 398
#     4  12  23  40  70  97 132 172 216 269 328 400
#     4  10  22  38  60  96 138 174 214 254 318 402
#
# _framework density 23.575009000000001
#
# number of rings (size 3 to 8) (size 9 to 14) (size 15 to 20)
#    0.316    0.842    4.211    1.895    2.947    1.684 
#    1.895    2.105    0.000    0.000    0.000    0.000 
#    0.000    0.000    0.000    0.000    0.000    0.000 
#
# Total GULP energy -106182.759874 kJ/mol
# GULP energy per Si atom -5588.566309 kJ/mol
# Density = 2.352135 g / cm^3
# Si number density = 23.575009 Si / 1000 Ang^3
#
#
#
# Elastic Constant Matrix: (Units=GPa)
#
#
# Indices 1 2 3 4 5 6 
#
# 1 196.1729 36.7148 25.0067 0.0000 0.0000 0.0000
# 2 36.7148 51.1682 7.5904 0.0000 0.0000 0.0000
# 3 25.0067 7.5904 60.4855 0.0000 0.0000 0.0000
# 4 0.0000 0.0000 0.0000 0.4145 0.0000 0.0000
# 5 0.0000 0.0000 0.0000 0.0000 -166.9215 0.0000
# 6 0.0000 0.0000 0.0000 0.0000 0.0000 4.7897
#
#
#
# Elastic Compliance Matrix: (Units=1/GPa)
#
#
# Indices 1 2 3 4 5 6 
#
# 1 0.006121 -0.004093 -0.002017 0.000000 0.000000 0.000000
# 2 -0.004093 0.022651 -0.001150 0.000000 0.000000 0.000000
# 3 -0.002017 -0.001150 0.017511 0.000000 0.000000 0.000000
# 4 0.000000 0.000000 0.000000 2.412380 0.000000 0.000000
# 5 0.000000 0.000000 0.000000 0.000000 -0.005991 0.000000
# 6 0.000000 0.000000 0.000000 0.000000 0.000000 0.208781
#
#
# Mechanical properties :
#
#
# Convention : Reuss Voigt Hill
#
# Bulk Modulus (GPa) = 31.48365 49.60561 40.54463
# Shear Modulus (GPa) = 1.86112 -16.44248 -7.29068
#
# Velocity S-wave (km/s) = 0.88947 -2.64380 -1.76047
# Velocity P-wave (km/s) = 3.79981 3.43041 3.61982
#
# Compressibility (1/GPa) = 0.03176251
#
# Stress axis : x y z
#
# Youngs Moduli (GPa) = 163.38323 44.14898 57.10659
#
# Poissons Ratio (x) = 0.18068 0.11518
# Poissons Ratio (y) = 0.66865 0.06570
# Poissons Ratio (z) = 0.32952 0.05079
#
# Static dielectric constant tensor:
#      x y z
#    x 2.067660 0.000000 0.000000 
#    y 0.000000 1.867700 0.000000 
#    z 0.000000 0.000000 1.825820 
# 
# From -- ./inp_files/12891.got.cif
#   From: 2010.05.17/outbox.cif.g08.bks.cpg/sg42_7_cif.got.tgz:12891.got - 2010.06.03 19:03:34.
