data_PCOD9368276
_publ_section_title
;
Structure prediction by ZEFSAII (Michael W. Deem and Ramdas Pophale) SiO2 
 PCOD9368276
Probable space group: F M M 2
;
_chemical_formula_sum "Si O2"
_cell_formula_units_Z 128
_cell_length_a 20.326947
_cell_length_b 19.582829
_cell_length_c 18.800148
_cell_angle_alpha 90.000000
_cell_angle_beta 90.000000
_cell_angle_gamma 90.000000
_cell_volume 7483.570504
_symmetry_space_group_name_H-M "F M M 2"
_symmetry_group_IT_number 42
_symmetry_cell_setting 'orthorhombic'
loop_
_space_group_symop_operation_xyz
x,y,z
-x,-y,z
-x,y,z
x,-y,z
x,1/2+y,1/2+z
-x,1/2-y,1/2+z
-x,1/2+y,1/2+z
x,1/2-y,1/2+z
1/2+x,y,1/2+z
1/2-x,-y,1/2+z
1/2-x,y,1/2+z
1/2+x,-y,1/2+z
1/2+x,1/2+y,z
1/2-x,1/2-y,z
1/2-x,1/2+y,z
1/2+x,1/2-y,z
loop_
_atom_site_type_symbol
_atom_site_label
_atom_site_fract_x
_atom_site_fract_y
_atom_site_fract_z
Si Si1 0.423308 0.651924 0.607630
Si Si2 0.304459 0.574317 0.361464
Si Si3 0.814346 0.579171 0.198014
Si Si4 0.166192 0.576910 0.692506
Si Si5 0.707118 0.682346 0.828535
Si Si6 0.572474 0.879806 0.941651
Si Si7 0.573099 0.746638 0.842487
Si Si8 0.923380 0.795067 0.178530
O O1 0.500000 0.640895 0.629048
O O2 0.373243 0.601809 0.647256
O O3 0.418969 0.640338 0.523569
O O4 0.406480 0.729482 0.630536
O O5 0.272278 0.500000 0.366783
O O6 0.327720 0.582148 0.279042
O O7 0.254695 0.635766 0.376341
O O8 0.367249 0.577455 0.411862
O O9 0.822552 0.500000 0.220969
O O10 0.741069 0.583072 0.164723
O O11 0.810677 0.633766 0.261956
O O12 0.141957 0.500000 0.676866
O O13 0.121386 0.638864 0.667206
O O14 0.750000 0.750000 0.808975
O O15 0.637389 0.703374 0.861178
O O16 0.500000 0.912096 0.933575
O O17 0.572610 0.812052 0.893211
O O18 0.500000 0.714186 0.846704
O O19 0.582925 0.771047 0.760856
O O20 0.000000 0.812059 0.166833
#
# Coordination Sequence:
#
# PCOD9368276 Si02
#       8
#    16  16  16  16  16  16  16  16
#     4  10  22  36  54  79 111 147 186 225 270 323
#     4  10  20  33  51  79 112 142 175 220 272 325
#     4  10  21  34  50  75 108 144 181 222 266 317
#     4   9  18  32  51  79 109 139 177 224 275 323
#     4  11  18  32  57  79 105 138 185 228 272 314
#     4  10  20  36  54  80 113 144 177 221 276 332
#     4  10  18  31  54  78 104 139 182 228 269 311
#     4  10  18  32  53  80 109 139 182 231 268 316
#
# _framework density 17.104134999999999
#
# number of rings (size 3 to 8) (size 9 to 14) (size 15 to 20)
#    0.000    2.000    3.750    1.875    0.000    1.250 
#    0.000    5.000    0.000    1.125    0.000    0.875 
#    0.000    6.000    0.000    0.000    0.000    0.000 
#
# Total GULP energy -178291.470383 kJ/mol
# GULP energy per Si atom -5571.608449 kJ/mol
# Density = 1.706521 g / cm^3
# Si number density = 17.104135 Si / 1000 Ang^3
#
#
#
# Elastic Constant Matrix: (Units=GPa)
#
#
# Indices 1 2 3 4 5 6 
#
# 1 110.6532 70.1512 28.7089 0.0000 0.0000 0.0000
# 2 70.1512 116.0024 18.6430 0.0000 0.0000 0.0000
# 3 28.7089 18.6430 42.5029 0.0000 0.0000 0.0000
# 4 0.0000 0.0000 0.0000 6.8866 0.0000 0.0000
# 5 0.0000 0.0000 0.0000 0.0000 20.4270 0.0000
# 6 0.0000 0.0000 0.0000 0.0000 0.0000 22.1848
#
#
#
# Elastic Compliance Matrix: (Units=1/GPa)
#
#
# Indices 1 2 3 4 5 6 
#
# 1 0.016519 -0.008818 -0.007290 0.000000 0.000000 0.000000
# 2 -0.008818 0.013982 -0.000176 0.000000 0.000000 0.000000
# 3 -0.007290 -0.000176 0.028529 0.000000 0.000000 0.000000
# 4 0.000000 0.000000 0.000000 0.145210 0.000000 0.000000
# 5 0.000000 0.000000 0.000000 0.000000 0.048955 0.000000
# 6 0.000000 0.000000 0.000000 0.000000 0.000000 0.045076
#
#
# Mechanical properties :
#
#
# Convention : Reuss Voigt Hill
#
# Bulk Modulus (GPa) = 37.79191 56.01829 46.90510
# Shear Modulus (GPa) = 14.72058 20.01003 17.36530
#
# Velocity S-wave (km/s) = 2.93686 3.42408 3.18979
# Velocity P-wave (km/s) = 5.80029 6.96095 6.40696
#
# Compressibility (1/GPa) = 0.02646069
#
# Stress axis : x y z
#
# Youngs Moduli (GPa) = 60.53598 71.52290 35.05172
#
# Poissons Ratio (x) = 0.63070 0.25553
# Poissons Ratio (y) = 0.53382 0.00618
# Poissons Ratio (z) = 0.44131 0.01262
#
# Static dielectric constant tensor:
#      x y z
#    x 1.617010 0.000000 0.000000 
#    y 0.000000 1.587040 0.000000 
#    z 0.000000 0.000000 1.558810 
# 
# From -- ./inp_files/21967.got.cif
#   From: 2010.05.17/outbox.cif.g08.bks.cpg/sg42_11_cif.got.tgz:21967.got - 2010.06.03 19:03:34.
