data_PCOD9368878
_publ_section_title
;
Structure prediction by ZEFSAII (Michael W. Deem and Ramdas Pophale) SiO2 
 PCOD9368878
Probable space group: F M M 2
;
_chemical_formula_sum "Si O2"
_cell_formula_units_Z 112
_cell_length_a 28.574778
_cell_length_b 13.576771
_cell_length_c 15.444540
_cell_angle_alpha 90.000000
_cell_angle_beta 90.000000
_cell_angle_gamma 90.000000
_cell_volume 5991.758982
_symmetry_space_group_name_H-M "F M M 2"
_symmetry_group_IT_number 42
_symmetry_cell_setting 'orthorhombic'
loop_
_space_group_symop_operation_xyz
x,y,z
-x,-y,z
-x,y,z
x,-y,z
x,1/2+y,1/2+z
-x,1/2-y,1/2+z
-x,1/2+y,1/2+z
x,1/2-y,1/2+z
1/2+x,y,1/2+z
1/2-x,-y,1/2+z
1/2-x,y,1/2+z
1/2+x,-y,1/2+z
1/2+x,1/2+y,z
1/2-x,1/2-y,z
1/2-x,1/2+y,z
1/2+x,1/2-y,z
loop_
_atom_site_type_symbol
_atom_site_label
_atom_site_fract_x
_atom_site_fract_y
_atom_site_fract_z
Si Si1 0.861900 0.243408 0.960540
Si Si2 0.553980 0.113989 0.983798
Si Si3 0.775994 0.116176 0.432126
Si Si4 0.805834 0.117407 0.072809
Si Si5 0.753947 0.618359 0.237366
Si Si6 0.449285 0.883449 0.191848
Si Si7 0.855919 0.619698 0.286027
O O1 0.910057 0.303381 0.952700
O O2 0.820976 0.324369 0.961237
O O3 0.855509 0.171130 0.879036
O O4 0.851827 0.177605 0.045643
O O5 0.500000 0.129037 0.956181
O O6 0.567039 0.000000 0.962020
O O7 0.554771 0.121915 0.088350
O O8 0.732066 0.132943 0.495501
O O9 0.763934 0.143295 0.333308
O O10 0.785736 0.000000 0.435043
O O11 0.779815 0.151113 0.160248
O O12 0.815232 0.000000 0.077669
O O13 0.753340 0.500000 0.231343
O O14 0.808582 0.645752 0.234379
O O15 0.500000 0.840696 0.217792
O O16 0.402576 0.846044 0.236975
O O17 0.450679 0.000000 0.212731
O O18 0.855870 0.500000 0.295959
#
# Coordination Sequence:
#
# PCOD9368878 Si02
#       7
#    16  16  16  16  16  16  16
#     4  12  22  33  54  85 110 144 187 235 278 334
#     4   9  20  39  59  81 110 142 183 235 286 339
#     4  10  21  38  52  74 111 147 189 230 268 327
#     4  10  21  37  55  77 111 152 187 226 279 332
#     4   9  19  36  54  72 109 157 188 222 276 334
#     4   8  16  33  55  77 102 136 182 234 284 334
#     4  10  20  34  53  78 112 149 184 231 288 336
#
# _framework density 18.692340999999999
#
# number of rings (size 3 to 8) (size 9 to 14) (size 15 to 20)
#    0.000    2.286    1.429    2.143    2.000    1.714 
#    2.571    0.000    0.000    1.286    0.000    0.000 
#    0.000    3.429    0.000    0.000    0.000    0.000 
#
# Total GULP energy -156221.583444 kJ/mol
# GULP energy per Si atom -5579.342266 kJ/mol
# Density = 1.864980 g / cm^3
# Si number density = 18.692341 Si / 1000 Ang^3
#
#
#
# Elastic Constant Matrix: (Units=GPa)
#
#
# Indices 1 2 3 4 5 6 
#
# 1 65.0823 45.9084 6.3898 0.0000 0.0000 0.0000
# 2 45.9084 97.4745 21.3847 0.0000 0.0000 0.0000
# 3 6.3898 21.3847 56.6613 0.0000 0.0000 0.0000
# 4 0.0000 0.0000 0.0000 9.0023 0.0000 0.0000
# 5 0.0000 0.0000 0.0000 0.0000 23.4574 0.0000
# 6 0.0000 0.0000 0.0000 0.0000 0.0000 23.4874
#
#
#
# Elastic Compliance Matrix: (Units=1/GPa)
#
#
# Indices 1 2 3 4 5 6 
#
# 1 0.023148 -0.011262 0.001640 0.000000 0.000000 0.000000
# 2 -0.011262 0.016665 -0.005019 0.000000 0.000000 0.000000
# 3 0.001640 -0.005019 0.019358 0.000000 0.000000 0.000000
# 4 0.000000 0.000000 0.000000 0.111083 0.000000 0.000000
# 5 0.000000 0.000000 0.000000 0.000000 0.042631 0.000000
# 6 0.000000 0.000000 0.000000 0.000000 0.000000 0.042576
#
#
# Mechanical properties :
#
#
# Convention : Reuss Voigt Hill
#
# Bulk Modulus (GPa) = 33.45826 40.73155 37.09490
# Shear Modulus (GPa) = 16.96607 20.89176 18.92891
#
# Velocity S-wave (km/s) = 3.01599 3.34678 3.18568
# Velocity P-wave (km/s) = 5.48330 6.06402 5.78096
#
# Compressibility (1/GPa) = 0.02988799
#
# Stress axis : x y z
#
# Youngs Moduli (GPa) = 43.19955 60.00765 51.65782
#
# Poissons Ratio (x) = 0.67582 -0.08472
# Poissons Ratio (y) = 0.48652 0.25929
# Poissons Ratio (z) = -0.07085 0.30120
#
# Static dielectric constant tensor:
#      x y z
#    x 1.663390 0.000000 0.000000 
#    y 0.000000 1.669510 0.000000 
#    z 0.000000 0.000000 1.644520 
# 
# From -- ./inp_files/14411.got.cif
#   From: 2010.05.17/outbox.cif.g08.bks.cpg/sg42_8_cif.got.tgz:14411.got - 2010.06.03 19:03:34.
