data_PCOD9368202
_publ_section_title
;
Structure prediction by ZEFSAII (Michael W. Deem and Ramdas Pophale) SiO2 
 PCOD9368202
Probable space group: F M M 2
;
_chemical_formula_sum "Si O2"
_cell_formula_units_Z 80
_cell_length_a 26.975323
_cell_length_b 9.442709
_cell_length_c 14.923632
_cell_angle_alpha 90.000000
_cell_angle_beta 90.000000
_cell_angle_gamma 90.000000
_cell_volume 3801.349413
_symmetry_space_group_name_H-M "F M M 2"
_symmetry_group_IT_number 42
_symmetry_cell_setting 'orthorhombic'
loop_
_space_group_symop_operation_xyz
x,y,z
-x,-y,z
-x,y,z
x,-y,z
x,1/2+y,1/2+z
-x,1/2-y,1/2+z
-x,1/2+y,1/2+z
x,1/2-y,1/2+z
1/2+x,y,1/2+z
1/2-x,-y,1/2+z
1/2-x,y,1/2+z
1/2+x,-y,1/2+z
1/2+x,1/2+y,z
1/2-x,1/2-y,z
1/2-x,1/2+y,z
1/2+x,1/2-y,z
loop_
_atom_site_type_symbol
_atom_site_label
_atom_site_fract_x
_atom_site_fract_y
_atom_site_fract_z
Si Si1 0.000000 0.330489 0.217260
Si Si2 0.095881 0.662864 0.703127
Si Si3 0.204577 0.158853 0.160402
Si Si4 0.795942 0.341820 0.446649
Si Si5 0.892798 0.658697 0.918261
Si Si6 0.500000 0.329348 0.406871
O O1 0.950192 0.260713 0.177689
O O2 0.000000 0.500000 0.212346
O O3 0.000000 0.273248 0.320473
O O4 0.089929 0.500000 0.670112
O O5 0.149610 0.719361 0.674383
O O6 0.098463 0.655321 0.811121
O O7 0.250000 0.250000 0.196266
O O8 0.204488 0.000000 0.199502
O O9 0.211468 0.147121 0.053719
O O10 0.796326 0.500000 0.408526
O O11 0.750000 0.250000 0.411174
O O12 0.848489 0.265648 0.434761
O O13 0.878540 0.500000 0.947852
O O14 0.947559 0.694246 0.955825
O O15 0.500000 0.500000 0.381862
#
# Coordination Sequence:
#
# PCOD9368202 Si02
#       6
#     8  16  16  16  16   8
#     4  10  18  28  47  76 103 127 159 199 241 282
#     4   9  18  34  53  72  98 131 163 196 240 291
#     4   9  19  35  53  71  94 128 165 200 242 289
#     4  10  20  34  51  71  97 129 163 200 243 289
#     4   9  17  31  52  75  98 127 161 196 237 288
#     4   8  16  32  51  70  97 133 163 191 239 292
#
# _framework density 21.045159000000002
#
# number of rings (size 3 to 8) (size 9 to 14) (size 15 to 20)
#    0.000    2.800    0.000    2.700    0.000    5.600 
#    0.000    3.000    0.000    3.600    0.000    0.000 
#    0.000    0.000    0.000    0.000    0.000    0.000 
#
# Total GULP energy -111518.853580 kJ/mol
# GULP energy per Si atom -5575.942679 kJ/mol
# Density = 2.099726 g / cm^3
# Si number density = 21.045159 Si / 1000 Ang^3
#
#
#
# Elastic Constant Matrix: (Units=GPa)
#
#
# Indices 1 2 3 4 5 6 
#
# 1 231.7604 130.1375 -0.8388 0.0000 0.0000 0.0000
# 2 130.1375 141.0331 2.3060 0.0000 0.0000 0.0000
# 3 -0.8388 2.3060 26.5915 0.0000 0.0000 0.0000
# 4 0.0000 0.0000 0.0000 9.0091 0.0000 0.0000
# 5 0.0000 0.0000 0.0000 0.0000 29.1378 0.0000
# 6 0.0000 0.0000 0.0000 0.0000 0.0000 36.7328
#
#
#
# Elastic Compliance Matrix: (Units=1/GPa)
#
#
# Indices 1 2 3 4 5 6 
#
# 1 0.008981 -0.008304 0.001003 0.000000 0.000000 0.000000
# 2 -0.008304 0.014778 -0.001543 0.000000 0.000000 0.000000
# 3 0.001003 -0.001543 0.037771 0.000000 0.000000 0.000000
# 4 0.000000 0.000000 0.000000 0.110999 0.000000 0.000000
# 5 0.000000 0.000000 0.000000 0.000000 0.034320 0.000000
# 6 0.000000 0.000000 0.000000 0.000000 0.000000 0.027224
#
#
# Mechanical properties :
#
#
# Convention : Reuss Voigt Hill
#
# Bulk Modulus (GPa) = 22.80866 73.62161 48.21514
# Shear Modulus (GPa) = 18.77058 32.82795 25.79926
#
# Velocity S-wave (km/s) = 2.98974 3.95382 3.50508
# Velocity P-wave (km/s) = 4.77279 7.47678 6.27223
#
# Compressibility (1/GPa) = 0.04384300
#
# Stress axis : x y z
#
# Youngs Moduli (GPa) = 111.34535 67.66862 26.47501
#
# Poissons Ratio (x) = 0.56190 -0.02656
# Poissons Ratio (y) = 0.92457 0.04086
# Poissons Ratio (z) = -0.11172 0.10444
#
# Static dielectric constant tensor:
#      x y z
#    x 1.783690 0.000000 0.000000 
#    y 0.000000 1.755580 0.000000 
#    z 0.000000 0.000000 1.791700 
# 
# From -- ./inp_files/18220.got.cif
#   From: 2010.05.17/outbox.cif.g08.bks.cpg/sg42_10_cif.got.tgz:18220.got - 2010.06.03 19:03:34.
