data_PCOD9368024
_publ_section_title
;
Structure prediction by ZEFSAII (Michael W. Deem and Ramdas Pophale) SiO2 
 PCOD9368024
Probable space group: A B A 2
;
_chemical_formula_sum "Si O2"
_cell_formula_units_Z 32
_cell_length_a 11.780355
_cell_length_b 5.236901
_cell_length_c 19.356371
_cell_angle_alpha 90.000000
_cell_angle_beta 90.000000
_cell_angle_gamma 90.000000
_cell_volume 1194.143941
_symmetry_space_group_name_H-M "A B A 2"
_symmetry_group_IT_number 41
_symmetry_cell_setting 'orthorhombic'
loop_
_space_group_symop_operation_xyz
x,y,z
-x,-y,z
1/2-x,y,1/2+z
1/2+x,-y,1/2+z
x,1/2+y,1/2+z
-x,1/2-y,1/2+z
1/2-x,1/2+y,z
1/2+x,1/2-y,z
loop_
_atom_site_type_symbol
_atom_site_label
_atom_site_fract_x
_atom_site_fract_y
_atom_site_fract_z
Si Si1 0.081381 0.749347 0.971620
Si Si2 0.730514 0.314651 0.095451
Si Si3 0.500000 0.000000 0.221523
Si Si4 0.000000 0.000000 0.134218
Si Si5 0.814806 0.258600 0.819429
O O1 0.146898 0.756373 0.899061
O O2 0.000000 0.500000 0.976754
O O3 0.184402 0.713090 0.029797
O O4 0.000000 0.000000 0.968535
O O5 0.770815 0.556965 0.136829
O O6 0.599038 0.379984 0.087484
O O7 0.461717 0.248405 0.175944
O O8 0.588974 0.141638 0.271141
O O9 0.787623 0.556848 0.807950
#
# Coordination Sequence:
#
# PCOD9368024 Si02
#       5
#     8   8   4   4   8
#     4  12  26  48  83 125 170 212 268 343 429 503
#     4  12  28  50  80 116 163 219 274 342 407 498
#     4  12  28  52  83 116 163 218 278 346 392 506
#     4  12  30  52  81 118 163 230 282 330 414 488
#     4  12  26  48  82 122 162 206 270 343 424 486
#
# _framework density 26.797440000000002
#
# number of rings (size 3 to 8) (size 9 to 14) (size 15 to 20)
#    0.000    0.000    1.250    7.500    7.000    6.000 
#    0.000    0.000    0.000    0.000    0.000    0.000 
#    0.000    0.000    0.000    0.000    0.000    0.000 
#
# Total GULP energy -89362.038593 kJ/mol
# GULP energy per Si atom -5585.127412 kJ/mol
# Density = 2.673645 g / cm^3
# Si number density = 26.797440 Si / 1000 Ang^3
#
#
#
# Elastic Constant Matrix: (Units=GPa)
#
#
# Indices 1 2 3 4 5 6 
#
# 1 135.0329 53.1116 45.8246 0.0000 0.0000 0.0000
# 2 53.1116 233.1865 41.7310 0.0000 0.0000 0.0000
# 3 45.8246 41.7310 127.7370 0.0000 0.0000 0.0000
# 4 0.0000 0.0000 0.0000 11.8324 0.0000 0.0000
# 5 0.0000 0.0000 0.0000 0.0000 54.9372 0.0000
# 6 0.0000 0.0000 0.0000 0.0000 0.0000 66.7523
#
#
#
# Elastic Compliance Matrix: (Units=1/GPa)
#
#
# Indices 1 2 3 4 5 6 
#
# 1 0.008931 -0.001552 -0.002697 0.000000 0.000000 0.000000
# 2 -0.001552 0.004824 -0.001019 0.000000 0.000000 0.000000
# 3 -0.002697 -0.001019 0.009129 0.000000 0.000000 0.000000
# 4 0.000000 0.000000 0.000000 0.084514 0.000000 0.000000
# 5 0.000000 0.000000 0.000000 0.000000 0.018203 0.000000
# 6 0.000000 0.000000 0.000000 0.000000 0.000000 0.014981
#
#
# Mechanical properties :
#
#
# Convention : Reuss Voigt Hill
#
# Bulk Modulus (GPa) = 80.98204 86.36563 83.67383
# Shear Modulus (GPa) = 32.20940 50.39033 41.29986
#
# Velocity S-wave (km/s) = 3.47069 4.34108 3.93005
# Velocity P-wave (km/s) = 6.80783 7.57797 7.20320
#
# Compressibility (1/GPa) = 0.01234842
#
# Stress axis : x y z
#
# Youngs Moduli (GPa) = 111.96779 207.28664 109.53871
#
# Poissons Ratio (x) = 0.32161 0.29544
# Poissons Ratio (y) = 0.17372 0.11167
# Poissons Ratio (z) = 0.30199 0.21132
#
# Static dielectric constant tensor:
#      x y z
#    x 2.266170 0.000000 0.000000 
#    y 0.000000 2.701990 0.000000 
#    z 0.000000 0.000000 2.099220 
# 
# From -- ./inp_files/11340.got.cif
#   From: 2010.05.17/outbox.cif.g08.bks.cpg/sg41_6_cif.got.tgz:11340.got - 2010.06.03 18:54:24.
