data_PCOD9368626
_publ_section_title
;
Structure prediction by ZEFSAII (Michael W. Deem and Ramdas Pophale) SiO2 
 PCOD9368626
Probable space group: F M M 2
;
_chemical_formula_sum "Si O2"
_cell_formula_units_Z 104
_cell_length_a 17.800716
_cell_length_b 15.482954
_cell_length_c 21.729435
_cell_angle_alpha 90.000000
_cell_angle_beta 90.000000
_cell_angle_gamma 90.000000
_cell_volume 5988.798885
_symmetry_space_group_name_H-M "F M M 2"
_symmetry_group_IT_number 42
_symmetry_cell_setting 'orthorhombic'
loop_
_space_group_symop_operation_xyz
x,y,z
-x,-y,z
-x,y,z
x,-y,z
x,1/2+y,1/2+z
-x,1/2-y,1/2+z
-x,1/2+y,1/2+z
x,1/2-y,1/2+z
1/2+x,y,1/2+z
1/2-x,-y,1/2+z
1/2-x,y,1/2+z
1/2+x,-y,1/2+z
1/2+x,1/2+y,z
1/2-x,1/2-y,z
1/2-x,1/2+y,z
1/2+x,1/2-y,z
loop_
_atom_site_type_symbol
_atom_site_label
_atom_site_fract_x
_atom_site_fract_y
_atom_site_fract_z
Si Si1 0.354012 0.658392 0.334010
Si Si2 0.234860 0.345207 0.032950
Si Si3 0.153523 0.000000 0.736898
Si Si4 0.174308 0.000000 0.252028
Si Si5 0.089029 0.846159 0.812292
Si Si6 0.584737 0.896012 0.964478
Si Si7 0.208010 0.601511 0.404198
Si Si8 0.745951 0.500000 0.125754
O O1 0.361503 0.584063 0.282876
O O2 0.375164 0.751009 0.306750
O O3 0.402860 0.638822 0.395101
O O4 0.269610 0.648427 0.361056
O O5 0.250000 0.250000 0.057272
O O6 0.254771 0.416768 0.082872
O O7 0.149879 0.359050 0.008143
O O8 0.284788 0.358585 0.971620
O O9 0.236168 0.000000 0.769159
O O10 0.111621 0.914071 0.759112
O O11 0.176914 0.000000 0.665760
O O12 0.181133 0.000000 0.178126
O O13 0.127595 0.885275 0.873452
O O14 0.000000 0.839764 0.816895
O O15 0.500000 0.876184 0.984707
O O16 0.593923 0.000000 0.962538
O O17 0.227255 0.500000 0.409141
#
# Coordination Sequence:
#
# PCOD9368626 Si02
#       8
#    16  16   8   8  16  16  16   8
#     4  11  18  34  56  86 112 146 183 224 281 329
#     4  11  21  36  59  85 115 144 185 236 279 326
#     4  10  23  39  55  75 112 150 185 240 273 317
#     4  10  20  36  60  80 104 149 188 241 269 314
#     4  12  23  35  55  88 122 148 178 220 283 352
#     4  10  19  34  58  88 119 145 175 225 286 344
#     4  11  18  34  59  83 116 150 179 226 282 332
#     4  10  22  39  58  83 104 143 207 237 271 315
#
# _framework density 17.365752000000001
#
# number of rings (size 3 to 8) (size 9 to 14) (size 15 to 20)
#    0.462    0.769    5.385    3.923    0.000    1.231 
#    0.000    1.538    0.000    0.000    0.000    6.462 
#    0.000    0.000    0.000    0.000    0.000    0.000 
#
# Total GULP energy -145023.792787 kJ/mol
# GULP energy per Si atom -5577.838184 kJ/mol
# Density = 1.732623 g / cm^3
# Si number density = 17.365752 Si / 1000 Ang^3
#
#
#
# Elastic Constant Matrix: (Units=GPa)
#
#
# Indices 1 2 3 4 5 6 
#
# 1 35.1121 16.8636 -4.1731 0.0000 0.0000 0.0000
# 2 16.8636 146.9795 37.7649 0.0000 0.0000 0.0000
# 3 -4.1731 37.7649 85.1766 0.0000 0.0000 0.0000
# 4 0.0000 0.0000 0.0000 0.5758 0.0000 0.0000
# 5 0.0000 0.0000 0.0000 0.0000 15.2580 0.0000
# 6 0.0000 0.0000 0.0000 0.0000 0.0000 17.7976
#
#
#
# Elastic Compliance Matrix: (Units=1/GPa)
#
#
# Indices 1 2 3 4 5 6 
#
# 1 0.031038 -0.004460 0.003498 0.000000 0.000000 0.000000
# 2 -0.004460 0.008319 -0.003907 0.000000 0.000000 0.000000
# 3 0.003498 -0.003907 0.013644 0.000000 0.000000 0.000000
# 4 0.000000 0.000000 0.000000 1.736799 0.000000 0.000000
# 5 0.000000 0.000000 0.000000 0.000000 0.065539 0.000000
# 6 0.000000 0.000000 0.000000 0.000000 0.000000 0.056187
#
#
# Mechanical properties :
#
#
# Convention : Reuss Voigt Hill
#
# Bulk Modulus (GPa) = 23.11424 40.90878 32.01151
# Shear Modulus (GPa) = 2.58306 21.18045 11.88176
#
# Velocity S-wave (km/s) = 1.22093 3.49616 2.61857
# Velocity P-wave (km/s) = 3.91493 6.31711 5.25512
#
# Compressibility (1/GPa) = 0.04326338
#
# Stress axis : x y z
#
# Youngs Moduli (GPa) = 32.21861 120.20319 73.29250
#
# Poissons Ratio (x) = 0.53610 -0.25638
# Poissons Ratio (y) = 0.14369 0.28636
# Poissons Ratio (z) = -0.11270 0.46964
#
# Static dielectric constant tensor:
#      x y z
#    x 1.606010 0.000000 0.000000 
#    y 0.000000 1.619270 0.000000 
#    z 0.000000 0.000000 1.578260 
# 
# From -- ./inp_files/29936.got.cif
#   From: 2010.05.17/outbox.cif.g08.bks.cpg/sg42_15_cif.got.tgz:29936.got - 2010.06.03 19:03:34.
