data_PCOD9368021
_publ_section_title
;
Structure prediction by ZEFSAII (Michael W. Deem and Ramdas Pophale) SiO2 
 PCOD9368021
Probable space group: A B A 2
;
_chemical_formula_sum "Si O2"
_cell_formula_units_Z 24
_cell_length_a 5.266909
_cell_length_b 19.030288
_cell_length_c 9.768082
_cell_angle_alpha 90.000000
_cell_angle_beta 90.000000
_cell_angle_gamma 90.000000
_cell_volume 979.062626
_symmetry_space_group_name_H-M "A B A 2"
_symmetry_group_IT_number 41
_symmetry_cell_setting 'orthorhombic'
loop_
_space_group_symop_operation_xyz
x,y,z
-x,-y,z
1/2-x,y,1/2+z
1/2+x,-y,1/2+z
x,1/2+y,1/2+z
-x,1/2-y,1/2+z
1/2-x,1/2+y,z
1/2+x,1/2-y,z
loop_
_atom_site_type_symbol
_atom_site_label
_atom_site_fract_x
_atom_site_fract_y
_atom_site_fract_z
Si Si1 0.131989 0.797549 0.414190
Si Si2 0.746603 0.975989 0.508779
Si Si3 0.874115 0.611706 0.646253
O O1 0.371529 0.745256 0.402068
O O2 0.117428 0.854906 0.293895
O O3 0.199317 0.838099 0.553635
O O4 0.651785 0.902228 0.573020
O O5 0.256716 0.965704 0.630601
O O6 0.500000 0.000000 0.423263
O O7 0.000000 0.000000 0.434308
#
# Coordination Sequence:
#
# PCOD9368021 Si02
#       3
#     8   8   8
#     4  12  26  40  68  94 140 180 220 274 332 416
#     4   8  20  40  68  86 126 168 212 290 316 392
#     4   9  24  44  64 100 128 172 230 266 344 390
#
# _framework density 24.513244
#
# number of rings (size 3 to 8) (size 9 to 14) (size 15 to 20)
#    2.000    0.000    0.000    2.000    9.333    0.000 
#   12.000    0.000    0.000    0.000    0.000    0.000 
#    0.000    0.000    0.000    0.000    0.000    0.000 
#
# Total GULP energy -66804.366287 kJ/mol
# GULP energy per Si atom -5567.030524 kJ/mol
# Density = 2.445745 g / cm^3
# Si number density = 24.513244 Si / 1000 Ang^3
#
#
#
# Elastic Constant Matrix: (Units=GPa)
#
#
# Indices 1 2 3 4 5 6 
#
# 1 175.7130 35.1809 -1.1564 0.0000 0.0000 0.0000
# 2 35.1809 93.6267 7.4708 0.0000 0.0000 0.0000
# 3 -1.1564 7.4708 53.0078 0.0000 0.0000 0.0000
# 4 0.0000 0.0000 0.0000 18.7133 0.0000 0.0000
# 5 0.0000 0.0000 0.0000 0.0000 12.1895 0.0000
# 6 0.0000 0.0000 0.0000 0.0000 0.0000 47.4307
#
#
#
# Elastic Compliance Matrix: (Units=1/GPa)
#
#
# Indices 1 2 3 4 5 6 
#
# 1 0.006165 -0.002354 0.000466 0.000000 0.000000 0.000000
# 2 -0.002354 0.011701 -0.001700 0.000000 0.000000 0.000000
# 3 0.000466 -0.001700 0.019115 0.000000 0.000000 0.000000
# 4 0.000000 0.000000 0.000000 0.053438 0.000000 0.000000
# 5 0.000000 0.000000 0.000000 0.000000 0.082038 0.000000
# 6 0.000000 0.000000 0.000000 0.000000 0.000000 0.021083
#
#
# Mechanical properties :
#
#
# Convention : Reuss Voigt Hill
#
# Bulk Modulus (GPa) = 33.55127 45.03757 39.29442
# Shear Modulus (GPa) = 23.73587 34.39018 29.06302
#
# Velocity S-wave (km/s) = 3.11511 3.74962 3.44700
# Velocity P-wave (km/s) = 5.16287 6.09581 5.64863
#
# Compressibility (1/GPa) = 0.02980513
#
# Stress axis : x y z
#
# Youngs Moduli (GPa) = 162.19382 85.46347 52.31494
#
# Poissons Ratio (x) = 0.20117 -0.02439
# Poissons Ratio (y) = 0.38179 0.08896
# Poissons Ratio (z) = -0.07563 0.14533
#
# Static dielectric constant tensor:
#      x y z
#    x 2.259270 0.000000 0.000000 
#    y 0.000000 2.020520 0.000000 
#    z 0.000000 0.000000 1.863450 
# 
# From -- ./inp_files/1479.got.cif
#   From: 2010.05.17/outbox.cif.g08.bks.cpg/sg41_1_cif.got.tgz:1479.got - 2010.06.03 18:54:24.
