data_PCOD9368885
_publ_section_title
;
Structure prediction by ZEFSAII (Michael W. Deem and Ramdas Pophale) SiO2 
 PCOD9368885
Probable space group: F M M 2
;
_chemical_formula_sum "Si O2"
_cell_formula_units_Z 120
_cell_length_a 34.491646
_cell_length_b 10.226825
_cell_length_c 19.769560
_cell_angle_alpha 90.000000
_cell_angle_beta 90.000000
_cell_angle_gamma 90.000000
_cell_volume 6973.515140
_symmetry_space_group_name_H-M "F M M 2"
_symmetry_group_IT_number 42
_symmetry_cell_setting 'orthorhombic'
loop_
_space_group_symop_operation_xyz
x,y,z
-x,-y,z
-x,y,z
x,-y,z
x,1/2+y,1/2+z
-x,1/2-y,1/2+z
-x,1/2+y,1/2+z
x,1/2-y,1/2+z
1/2+x,y,1/2+z
1/2-x,-y,1/2+z
1/2-x,y,1/2+z
1/2+x,-y,1/2+z
1/2+x,1/2+y,z
1/2-x,1/2-y,z
1/2-x,1/2+y,z
1/2+x,1/2-y,z
loop_
_atom_site_type_symbol
_atom_site_label
_atom_site_fract_x
_atom_site_fract_y
_atom_site_fract_z
Si Si1 0.955186 0.346232 0.030350
Si Si2 0.250000 0.250000 0.327674
Si Si3 0.889459 0.345424 0.765883
Si Si4 0.680094 0.851460 0.236446
Si Si5 0.455719 0.348434 0.155181
Si Si6 0.895918 0.658101 0.915758
Si Si7 0.809526 0.344539 0.942083
Si Si8 0.783778 0.847701 0.592683
O O1 0.947536 0.500000 0.046096
O O2 0.950669 0.254474 0.095113
O O3 0.000000 0.338046 0.007843
O O4 0.926114 0.299711 0.972201
O O5 0.279608 0.173003 0.277731
O O6 0.220499 0.182545 0.381429
O O7 0.878319 0.500000 0.766060
O O8 0.851811 0.256084 0.755287
O O9 0.922430 0.326330 0.710094
O O10 0.907029 0.312581 0.839115
O O11 0.686666 0.842504 0.155372
O O12 0.667417 0.000000 0.251926
O O13 0.500000 0.333627 0.181644
O O14 0.452342 0.500000 0.131918
O O15 0.894763 0.500000 0.921097
O O16 0.852301 0.709308 0.926812
O O17 0.812940 0.500000 0.946155
O O18 0.797369 0.303488 0.017918
O O19 0.750000 0.750000 0.612730
O O20 0.771289 0.000000 0.587418
#
# Coordination Sequence:
#
# PCOD9368885 Si02
#       8
#    16   8  16  16  16  16  16  16
#     4   9  18  33  57  86 112 142 181 223 271 326
#     4  12  20  36  60  74 110 146 186 222 274 336
#     4  10  21  37  57  80 109 146 184 226 277 329
#     4  11  24  37  55  83 111 143 182 232 280 327
#     4   9  19  36  57  82 112 146 184 224 274 333
#     4   9  18  33  54  79 107 139 179 223 266 317
#     4  10  20  34  54  77 103 141 180 222 271 320
#     4  10  21  37  54  76 103 137 181 224 272 323
#
# _framework density 17.207964
#
# number of rings (size 3 to 8) (size 9 to 14) (size 15 to 20)
#    0.000    2.133    2.667    0.400    1.867    2.133 
#    0.000    3.333    0.000    0.000    0.000    3.733 
#    0.000    0.000    0.000    0.000    0.000    0.000 
#
# Total GULP energy -167023.933264 kJ/mol
# GULP energy per Si atom -5567.464442 kJ/mol
# Density = 1.716880 g / cm^3
# Si number density = 17.207964 Si / 1000 Ang^3
#
#
#
# Elastic Constant Matrix: (Units=GPa)
#
#
# Indices 1 2 3 4 5 6 
#
# 1 100.4631 50.0053 55.3313 0.0000 0.0000 0.0000
# 2 50.0053 57.7110 37.1117 0.0000 0.0000 0.0000
# 3 55.3313 37.1117 94.4001 0.0000 0.0000 0.0000
# 4 0.0000 0.0000 0.0000 14.8001 0.0000 0.0000
# 5 0.0000 0.0000 0.0000 0.0000 29.6584 0.0000
# 6 0.0000 0.0000 0.0000 0.0000 0.0000 24.1123
#
#
#
# Elastic Compliance Matrix: (Units=1/GPa)
#
#
# Indices 1 2 3 4 5 6 
#
# 1 0.020194 -0.013231 -0.006635 0.000000 0.000000 0.000000
# 2 -0.013231 0.031859 -0.004770 0.000000 0.000000 0.000000
# 3 -0.006635 -0.004770 0.016357 0.000000 0.000000 0.000000
# 4 0.000000 0.000000 0.000000 0.067567 0.000000 0.000000
# 5 0.000000 0.000000 0.000000 0.000000 0.033717 0.000000
# 6 0.000000 0.000000 0.000000 0.000000 0.000000 0.041473
#
#
# Mechanical properties :
#
#
# Convention : Reuss Voigt Hill
#
# Bulk Modulus (GPa) = 52.24845 59.71897 55.98371
# Shear Modulus (GPa) = 18.73937 21.05589 19.89763
#
# Velocity S-wave (km/s) = 3.30357 3.50181 3.40414
# Velocity P-wave (km/s) = 6.70674 7.15051 6.93218
#
# Compressibility (1/GPa) = 0.01913933
#
# Stress axis : x y z
#
# Youngs Moduli (GPa) = 49.52034 31.38806 61.13489
#
# Poissons Ratio (x) = 0.41529 0.40562
# Poissons Ratio (y) = 0.65520 0.29160
# Poissons Ratio (z) = 0.32856 0.14972
#
# Static dielectric constant tensor:
#      x y z
#    x 1.588250 0.000000 0.000000 
#    y 0.000000 1.574370 0.000000 
#    z 0.000000 0.000000 1.596320 
# 
# From -- ./inp_files/27422.got.cif
#   From: 2010.05.17/outbox.cif.g08.bks.cpg/sg42_14_cif.got.tgz:27422.got - 2010.06.03 19:03:34.
