data_PCOD9368087
_publ_section_title
;
Structure prediction by ZEFSAII (Michael W. Deem and Ramdas Pophale) SiO2 
 PCOD9368087
Probable space group: A B A 2
;
_chemical_formula_sum "Si O2"
_cell_formula_units_Z 24
_cell_length_a 15.000000
_cell_length_b 9.000000
_cell_length_c 18.000000
_cell_angle_alpha 90.000000
_cell_angle_beta 90.000000
_cell_angle_gamma 90.000000
_cell_volume 2430.000000
_symmetry_space_group_name_H-M "A B A 2"
_symmetry_group_IT_number 41
_symmetry_cell_setting 'orthorhombic'
loop_
_space_group_symop_operation_xyz
x,y,z
-x,-y,z
1/2-x,y,1/2+z
1/2+x,-y,1/2+z
x,1/2+y,1/2+z
-x,1/2-y,1/2+z
1/2-x,1/2+y,z
1/2+x,1/2-y,z
loop_
_atom_site_type_symbol
_atom_site_label
_atom_site_fract_x
_atom_site_fract_y
_atom_site_fract_z
Si Si1 0.717704 0.456610 0.579090
Si Si2 0.355417 0.258992 0.496027
Si Si3 0.000000 0.000000 0.184213
Si Si4 0.839164 0.332364 0.319759
Si Si5 0.000000 0.000000 0.733007
Si Si6 0.690087 0.015722 0.740234
Si Si7 0.024935 0.208557 0.600513
O O1 0.694287 0.589446 0.521800
O O2 0.797957 0.362953 0.541815
O O3 0.754758 0.505733 0.661380
O O4 0.622487 0.366801 0.587460
O O5 0.352913 0.214707 0.407432
O O6 0.455745 0.281265 0.531074
O O7 0.911102 0.952605 0.229652
O O8 0.962132 0.127281 0.131037
O O9 0.922204 0.428405 0.284707
O O10 0.826078 0.182519 0.270816
O O11 0.750358 0.428508 0.300968
O O12 0.976767 0.126452 0.671032
#
# Coordination Sequence:
#
# PCOD9368087 Si02
#       7
#     8   8   4   8   4   8   8
#     4  12  24  47  78 102 144 196 246 296 357 451
#     4  12  26  47  69 109 148 188 240 304 376 436
#     4  12  24  41  75 114 128 192 262 296 346 441
#     4  12  28  46  71 110 150 189 236 315 379 430
#     4  12  24  49  71 102 146 196 244 300 368 433
#     4  12  24  47  75 106 143 195 251 299 361 447
#     4  12  24  46  76 105 142 193 253 301 356 449
#
# _framework density 9.8765429999999999
#
# number of rings (size 3 to 8) (size 9 to 14) (size 15 to 20)
#    0.000    0.000    6.667    3.000    2.333    0.667 
#    9.000    0.000    0.000    0.000    0.000    0.000 
#    0.000    0.000    0.000    0.000    0.000    0.000 
#
# Total GULP energy -133980.238693 kJ/mol
# GULP energy per Si atom -5582.509946 kJ/mol
# Density = 0.985406 g / cm^3
# Si number density = 9.876543 Si / 1000 Ang^3
#
#
#
# Elastic Constant Matrix: (Units=GPa)
#
#
# Indices 1 2 3 4 5 6 
#
# 1 164.8719 35.7880 70.0544 0.0000 0.0000 0.0000
# 2 35.7880 103.0528 50.2865 0.0000 0.0000 0.0000
# 3 70.0544 50.2865 176.6627 0.0000 0.0000 0.0000
# 4 0.0000 0.0000 0.0000 41.1631 0.0000 0.0000
# 5 0.0000 0.0000 0.0000 0.0000 38.5847 0.0000
# 6 0.0000 0.0000 0.0000 0.0000 0.0000 46.6995
#
#
#
# Elastic Compliance Matrix: (Units=1/GPa)
#
#
# Indices 1 2 3 4 5 6 
#
# 1 0.007448 -0.001330 -0.002575 0.000000 0.000000 0.000000
# 2 -0.001330 0.011507 -0.002748 0.000000 0.000000 0.000000
# 3 -0.002575 -0.002748 0.007464 0.000000 0.000000 0.000000
# 4 0.000000 0.000000 0.000000 0.024294 0.000000 0.000000
# 5 0.000000 0.000000 0.000000 0.000000 0.025917 0.000000
# 6 0.000000 0.000000 0.000000 0.000000 0.000000 0.021414
#
#
# Mechanical properties :
#
#
# Convention : Reuss Voigt Hill
#
# Bulk Modulus (GPa) = 76.26202 84.09389 80.17795
# Shear Modulus (GPa) = 43.20808 44.52002 43.86405
#
# Velocity S-wave (km/s) = 4.68205 4.75260 4.71746
# Velocity P-wave (km/s) = 8.24137 8.53119 8.38753
#
# Compressibility (1/GPa) = 0.01311269
#
# Stress axis : x y z
#
# Youngs Moduli (GPa) = 134.26229 86.90702 133.98127
#
# Poissons Ratio (x) = 0.11560 0.34499
# Poissons Ratio (y) = 0.17858 0.36816
# Poissons Ratio (z) = 0.34571 0.23881
#
# Static dielectric constant tensor:
#      x y z
#    x 1.721640 0.000000 0.000000 
#    y 0.000000 1.787210 0.000000 
#    z 0.000000 0.000000 1.684610 
# 
# From -- ./inp_files/10321.got.cif
#   From: 2010.05.17/outbox.ucp.g08.bks.cvg/sg41_6_cif.got.tgz:10321.got - 2010.06.11 16:28:22.
