data_PCOD9368382
_publ_section_title
;
Structure prediction by ZEFSAII (Michael W. Deem and Ramdas Pophale) SiO2 
 PCOD9368382
Probable space group: F M M 2
;
_chemical_formula_sum "Si O2"
_cell_formula_units_Z 104
_cell_length_a 19.203550
_cell_length_b 15.653235
_cell_length_c 19.087523
_cell_angle_alpha 90.000000
_cell_angle_beta 90.000000
_cell_angle_gamma 90.000000
_cell_volume 5737.665150
_symmetry_space_group_name_H-M "F M M 2"
_symmetry_group_IT_number 42
_symmetry_cell_setting 'orthorhombic'
loop_
_space_group_symop_operation_xyz
x,y,z
-x,-y,z
-x,y,z
x,-y,z
x,1/2+y,1/2+z
-x,1/2-y,1/2+z
-x,1/2+y,1/2+z
x,1/2-y,1/2+z
1/2+x,y,1/2+z
1/2-x,-y,1/2+z
1/2-x,y,1/2+z
1/2+x,-y,1/2+z
1/2+x,1/2+y,z
1/2-x,1/2-y,z
1/2-x,1/2+y,z
1/2+x,1/2-y,z
loop_
_atom_site_type_symbol
_atom_site_label
_atom_site_fract_x
_atom_site_fract_y
_atom_site_fract_z
Si Si1 0.207990 0.339601 0.368940
Si Si2 0.075178 0.500000 0.749818
Si Si3 0.679507 0.861484 0.066000
Si Si4 0.330665 0.661601 0.020447
Si Si5 0.922258 0.160983 0.148609
Si Si6 0.677427 0.301695 0.714714
Si Si7 0.084244 0.000000 0.497733
Si Si8 0.312331 0.000000 0.866655
O O1 0.250000 0.250000 0.376884
O O2 0.159281 0.347138 0.437414
O O3 0.170456 0.336977 0.293282
O O4 0.263523 0.416611 0.370353
O O5 0.076095 0.417612 0.701180
O O6 0.143727 0.500000 0.795894
O O7 0.000000 0.500000 0.789037
O O8 0.672245 0.762775 0.040935
O O9 0.756287 0.882847 0.036882
O O10 0.681939 0.867203 0.150196
O O11 0.616457 0.917667 0.037391
O O12 0.386416 0.630651 0.076641
O O13 0.880723 0.235256 0.189030
O O14 0.000000 0.191200 0.132908
O O15 0.750000 0.250000 0.714176
O O16 0.127416 0.000000 0.425280
O O17 0.000000 0.000000 0.492865
#
# Coordination Sequence:
#
# PCOD9368382 Si02
#       8
#    16   8  16  16  16  16   8   8
#     4  11  21  36  57  87 118 154 200 252 294 359
#     4  10  21  36  51  80 120 150 186 243 305 363
#     4  10  19  36  57  82 115 157 198 249 287 360
#     4  10  18  38  58  83 114 153 206 248 285 354
#     4  10  21  36  59  87 116 154 200 254 308 361
#     4  10  19  36  59  84 114 153 205 250 296 358
#     4  12  25  38  57  90 128 162 192 251 326 371
#     4  12  23  36  58  90 120 160 200 248 303 366
#
# _framework density 18.12584
#
# number of rings (size 3 to 8) (size 9 to 14) (size 15 to 20)
#    0.000    1.538    6.154    2.077    0.000    4.308 
#    0.000    0.769    0.000    0.000    0.000    2.154 
#    0.000    0.000    0.000    0.000    0.000    0.000 
#
# Total GULP energy -144892.254222 kJ/mol
# GULP energy per Si atom -5572.779009 kJ/mol
# Density = 1.808458 g / cm^3
# Si number density = 18.125840 Si / 1000 Ang^3
#
#
#
# Elastic Constant Matrix: (Units=GPa)
#
#
# Indices 1 2 3 4 5 6 
#
# 1 109.3047 32.0955 51.6064 0.0000 0.0000 0.0000
# 2 32.0955 62.0054 21.0526 0.0000 0.0000 0.0000
# 3 51.6064 21.0526 170.8258 0.0000 0.0000 0.0000
# 4 0.0000 0.0000 0.0000 39.9497 0.0000 0.0000
# 5 0.0000 0.0000 0.0000 0.0000 24.5393 0.0000
# 6 0.0000 0.0000 0.0000 0.0000 0.0000 26.8340
#
#
#
# Elastic Compliance Matrix: (Units=1/GPa)
#
#
# Indices 1 2 3 4 5 6 
#
# 1 0.012111 -0.005246 -0.003012 0.000000 0.000000 0.000000
# 2 -0.005246 0.019105 -0.000770 0.000000 0.000000 0.000000
# 3 -0.003012 -0.000770 0.006859 0.000000 0.000000 0.000000
# 4 0.000000 0.000000 0.000000 0.025031 0.000000 0.000000
# 5 0.000000 0.000000 0.000000 0.000000 0.040751 0.000000
# 6 0.000000 0.000000 0.000000 0.000000 0.000000 0.037266
#
#
# Mechanical properties :
#
#
# Convention : Reuss Voigt Hill
#
# Bulk Modulus (GPa) = 49.95418 61.29385 55.62402
# Shear Modulus (GPa) = 30.14724 34.09003 32.11863
#
# Velocity S-wave (km/s) = 4.08268 4.34146 4.21406
# Velocity P-wave (km/s) = 7.06002 7.68246 7.37780
#
# Compressibility (1/GPa) = 0.02001835
#
# Stress axis : x y z
#
# Youngs Moduli (GPa) = 82.56637 52.34348 145.79884
#
# Poissons Ratio (x) = 0.27462 0.43919
# Poissons Ratio (y) = 0.43318 0.11219
# Poissons Ratio (z) = 0.24871 0.04028
#
# Static dielectric constant tensor:
#      x y z
#    x 1.627460 0.000000 0.000000 
#    y 0.000000 1.631040 0.000000 
#    z 0.000000 0.000000 1.662160 
# 
# From -- ./inp_files/20932.got.cif
#   From: 2010.05.17/outbox.cif.g08.bks.cpg/sg42_11_cif.got.tgz:20932.got - 2010.06.03 19:03:34.
