data_PCOD9368812
_publ_section_title
;
Structure prediction by ZEFSAII (Michael W. Deem and Ramdas Pophale) SiO2 
 PCOD9368812
Probable space group: F M M 2
;
_chemical_formula_sum "Si O2"
_cell_formula_units_Z 96
_cell_length_a 23.550766
_cell_length_b 17.794587
_cell_length_c 13.805705
_cell_angle_alpha 90.000000
_cell_angle_beta 90.000000
_cell_angle_gamma 90.000000
_cell_volume 5785.641762
_symmetry_space_group_name_H-M "F M M 2"
_symmetry_group_IT_number 42
_symmetry_cell_setting 'orthorhombic'
loop_
_space_group_symop_operation_xyz
x,y,z
-x,-y,z
-x,y,z
x,-y,z
x,1/2+y,1/2+z
-x,1/2-y,1/2+z
-x,1/2+y,1/2+z
x,1/2-y,1/2+z
1/2+x,y,1/2+z
1/2-x,-y,1/2+z
1/2-x,y,1/2+z
1/2+x,-y,1/2+z
1/2+x,1/2+y,z
1/2-x,1/2-y,z
1/2-x,1/2+y,z
1/2+x,1/2-y,z
loop_
_atom_site_type_symbol
_atom_site_label
_atom_site_fract_x
_atom_site_fract_y
_atom_site_fract_z
Si Si1 0.433046 0.589776 0.728580
Si Si2 0.836869 0.174353 0.396067
Si Si3 0.740088 0.586299 0.012579
Si Si4 0.762358 0.336662 0.715461
Si Si5 0.839179 0.649996 0.365056
Si Si6 0.567617 0.089737 0.006900
O O1 0.500000 0.604819 0.738177
O O2 0.424638 0.500000 0.735985
O O3 0.397015 0.629268 0.811563
O O4 0.416282 0.610955 0.618047
O O5 0.787162 0.139812 0.463128
O O6 0.816910 0.158936 0.285841
O O7 0.839093 0.264375 0.402472
O O8 0.894404 0.135623 0.431771
O O9 0.758614 0.500000 0.005716
O O10 0.682060 0.598515 0.952851
O O11 0.732846 0.611877 0.122454
O O12 0.750000 0.250000 0.687046
O O13 0.709071 0.358726 0.782494
O O14 0.500000 0.102434 0.995979
O O15 0.577250 0.000000 0.996639
#
# Coordination Sequence:
#
# PCOD9368812 Si02
#       6
#    16  16  16  16  16  16
#     4   9  18  33  53  76 100 127 163 206 247 287
#     4  10  20  33  51  73 100 132 163 202 245 291
#     4  11  21  32  50  74 100 130 164 203 247 294
#     4   9  19  34  49  70 100 131 162 201 245 291
#     4  10  20  33  51  73  99 131 164 201 246 293
#     4   9  18  33  54  78 101 127 162 205 248 288
#
# _framework density 16.592801999999999
#
# number of rings (size 3 to 8) (size 9 to 14) (size 15 to 20)
#    0.000    2.333    0.000    5.500    0.000    7.333 
#    0.000    0.000    0.000    1.000    0.000    2.333 
#    0.000    0.000    0.000    0.000    0.000    0.000 
#
# Total GULP energy -133848.702952 kJ/mol
# GULP energy per Si atom -5577.029290 kJ/mol
# Density = 1.655504 g / cm^3
# Si number density = 16.592802 Si / 1000 Ang^3
#
#
#
# Elastic Constant Matrix: (Units=GPa)
#
#
# Indices 1 2 3 4 5 6 
#
# 1 62.3382 41.2271 40.6114 0.0000 0.0000 0.0000
# 2 41.2271 70.6642 59.6602 0.0000 0.0000 0.0000
# 3 40.6114 59.6602 77.8684 0.0000 0.0000 0.0000
# 4 0.0000 0.0000 0.0000 13.0924 0.0000 0.0000
# 5 0.0000 0.0000 0.0000 0.0000 28.9550 0.0000
# 6 0.0000 0.0000 0.0000 0.0000 0.0000 25.1381
#
#
#
# Elastic Compliance Matrix: (Units=1/GPa)
#
#
# Indices 1 2 3 4 5 6 
#
# 1 0.026983 -0.010934 -0.005696 0.000000 0.000000 0.000000
# 2 -0.010934 0.044503 -0.028395 0.000000 0.000000 0.000000
# 3 -0.005696 -0.028395 0.037568 0.000000 0.000000 0.000000
# 4 0.000000 0.000000 0.000000 0.076380 0.000000 0.000000
# 5 0.000000 0.000000 0.000000 0.000000 0.034536 0.000000
# 6 0.000000 0.000000 0.000000 0.000000 0.000000 0.039780
#
#
# Mechanical properties :
#
#
# Convention : Reuss Voigt Hill
#
# Bulk Modulus (GPa) = 52.61483 54.87426 53.74454
# Shear Modulus (GPa) = 14.03966 18.06193 16.05080
#
# Velocity S-wave (km/s) = 2.91199 3.30288 3.11357
# Velocity P-wave (km/s) = 6.56388 6.90567 6.73694
#
# Compressibility (1/GPa) = 0.01900605
#
# Stress axis : x y z
#
# Youngs Moduli (GPa) = 37.06029 22.47018 26.61869
#
# Poissons Ratio (x) = 0.24569 0.15161
# Poissons Ratio (y) = 0.40521 0.75583
# Poissons Ratio (z) = 0.21108 0.63803
#
# Static dielectric constant tensor:
#      x y z
#    x 1.564770 0.000000 0.000000 
#    y 0.000000 1.554860 0.000000 
#    z 0.000000 0.000000 1.552930 
# 
# From -- ./inp_files/8797.got.cif
#   From: 2010.05.17/outbox.cif.g08.bks.cpg/sg42_5_cif.got.tgz:8797.got - 2010.06.03 19:03:34.
