data_PCOD9368166
_publ_section_title
;
Structure prediction by ZEFSAII (Michael W. Deem and Ramdas Pophale) SiO2 
 PCOD9368166
Probable space group: F M M 2
;
_chemical_formula_sum "Si O2"
_cell_formula_units_Z 128
_cell_length_a 20.120819
_cell_length_b 18.249073
_cell_length_c 20.537445
_cell_angle_alpha 90.000000
_cell_angle_beta 90.000000
_cell_angle_gamma 90.000000
_cell_volume 7541.068333
_symmetry_space_group_name_H-M "F M M 2"
_symmetry_group_IT_number 42
_symmetry_cell_setting 'orthorhombic'
loop_
_space_group_symop_operation_xyz
x,y,z
-x,-y,z
-x,y,z
x,-y,z
x,1/2+y,1/2+z
-x,1/2-y,1/2+z
-x,1/2+y,1/2+z
x,1/2-y,1/2+z
1/2+x,y,1/2+z
1/2-x,-y,1/2+z
1/2-x,y,1/2+z
1/2+x,-y,1/2+z
1/2+x,1/2+y,z
1/2-x,1/2-y,z
1/2-x,1/2+y,z
1/2+x,1/2-y,z
loop_
_atom_site_type_symbol
_atom_site_label
_atom_site_fract_x
_atom_site_fract_y
_atom_site_fract_z
Si Si1 0.421162 0.913522 0.143970
Si Si2 0.152088 0.178672 0.533646
Si Si3 0.182659 0.088297 0.750998
Si Si4 0.312070 0.157352 0.531997
Si Si5 0.202041 0.085035 0.895463
Si Si6 0.638270 0.085064 0.909925
Si Si7 0.813375 0.088277 0.171626
Si Si8 0.574739 0.089024 0.771900
O O1 0.500000 0.901968 0.145175
O O2 0.384526 0.862165 0.092208
O O3 0.385485 0.899207 0.212833
O O4 0.408841 0.000000 0.128166
O O5 0.231712 0.165667 0.534846
O O6 0.148847 0.266145 0.535482
O O7 0.124944 0.140515 0.468350
O O8 0.182844 0.117165 0.824857
O O9 0.244110 0.113962 0.705294
O O10 0.192044 0.000000 0.757061
O O11 0.324418 0.122474 0.461045
O O12 0.325595 0.112583 0.597772
O O13 0.282528 0.087006 0.896961
O O14 0.181726 0.000000 0.898100
O O15 0.600566 0.106036 0.844135
O O16 0.621680 0.000000 0.926827
O O17 0.872828 0.114283 0.218194
O O18 0.811236 0.000000 0.172179
O O19 0.500000 0.115309 0.761108
O O20 0.574276 0.000000 0.768594
#
# Coordination Sequence:
#
# PCOD9368166 Si02
#       8
#    16  16  16  16  16  16  16  16
#     4  10  20  34  55  81 106 137 176 222 277 326
#     4  10  20  33  48  72 109 139 172 217 259 318
#     4   9  16  29  52  78 104 133 172 222 268 310
#     4  10  20  32  50  74 106 141 176 214 261 312
#     4   9  16  29  51  78 102 130 170 216 263 310
#     4   9  16  28  48  72 100 134 168 208 264 320
#     4  10  17  30  53  78 103 137 177 219 263 310
#     4   9  17  29  48  76 105 131 167 217 267 314
#
# _framework density 16.973723
#
# number of rings (size 3 to 8) (size 9 to 14) (size 15 to 20)
#    0.000    2.500    2.500    0.750    0.000    1.500 
#    0.000    3.125    2.750    1.500    0.000    3.500 
#    0.000    0.000    0.000    0.000    0.000    0.000 
#
# Total GULP energy -178213.247866 kJ/mol
# GULP energy per Si atom -5569.163996 kJ/mol
# Density = 1.693509 g / cm^3
# Si number density = 16.973723 Si / 1000 Ang^3
#
#
#
# Elastic Constant Matrix: (Units=GPa)
#
#
# Indices 1 2 3 4 5 6 
#
# 1 61.9598 34.3141 49.1390 0.0000 0.0000 0.0000
# 2 34.3141 47.2470 50.6204 0.0000 0.0000 0.0000
# 3 49.1390 50.6204 154.6642 0.0000 0.0000 0.0000
# 4 0.0000 0.0000 0.0000 -10.6773 0.0000 0.0000
# 5 0.0000 0.0000 0.0000 0.0000 18.5172 0.0000
# 6 0.0000 0.0000 0.0000 0.0000 0.0000 12.4490
#
#
#
# Elastic Compliance Matrix: (Units=1/GPa)
#
#
# Indices 1 2 3 4 5 6 
#
# 1 0.028158 -0.016733 -0.003470 0.000000 0.000000 0.000000
# 2 -0.016733 0.042539 -0.008606 0.000000 0.000000 0.000000
# 3 -0.003470 -0.008606 0.010385 0.000000 0.000000 0.000000
# 4 0.000000 0.000000 0.000000 -0.093656 0.000000 0.000000
# 5 0.000000 0.000000 0.000000 0.000000 0.054004 0.000000
# 6 0.000000 0.000000 0.000000 0.000000 0.000000 0.080328
#
#
# Mechanical properties :
#
#
# Convention : Reuss Voigt Hill
#
# Bulk Modulus (GPa) = 42.61894 59.11310 50.86602
# Shear Modulus (GPa) = 26.70991 12.71094 19.71043
#
# Velocity S-wave (km/s) = 3.97117 2.73950 3.41138
# Velocity P-wave (km/s) = 6.79634 6.70137 6.74902
#
# Compressibility (1/GPa) = 0.02346375
#
# Stress axis : x y z
#
# Youngs Moduli (GPa) = 35.51362 23.50791 96.29506
#
# Poissons Ratio (x) = 0.39336 0.33411
# Poissons Ratio (y) = 0.59425 0.82874
# Poissons Ratio (z) = 0.12322 0.20232
#
# Static dielectric constant tensor:
#      x y z
#    x 1.562950 0.000000 0.000000 
#    y 0.000000 1.577720 0.000000 
#    z 0.000000 0.000000 1.580030 
# 
# From -- ./inp_files/26626.got.cif
#   From: 2010.05.17/outbox.cif.g08.bks.cpg/sg42_14_cif.got.tgz:26626.got - 2010.06.03 19:03:34.
