data_PCOD9368864
_publ_section_title
;
Structure prediction by ZEFSAII (Michael W. Deem and Ramdas Pophale) SiO2 
 PCOD9368864
Probable space group: F M M 2
;
_chemical_formula_sum "Si O2"
_cell_formula_units_Z 116
_cell_length_a 7.814756
_cell_length_b 26.146320
_cell_length_c 27.540566
_cell_angle_alpha 90.000000
_cell_angle_beta 90.000000
_cell_angle_gamma 90.000000
_cell_volume 5627.284289
_symmetry_space_group_name_H-M "F M M 2"
_symmetry_group_IT_number 42
_symmetry_cell_setting 'orthorhombic'
loop_
_space_group_symop_operation_xyz
x,y,z
-x,-y,z
-x,y,z
x,-y,z
x,1/2+y,1/2+z
-x,1/2-y,1/2+z
-x,1/2+y,1/2+z
x,1/2-y,1/2+z
1/2+x,y,1/2+z
1/2-x,-y,1/2+z
1/2-x,y,1/2+z
1/2+x,-y,1/2+z
1/2+x,1/2+y,z
1/2-x,1/2-y,z
1/2-x,1/2+y,z
1/2+x,1/2-y,z
loop_
_atom_site_type_symbol
_atom_site_label
_atom_site_fract_x
_atom_site_fract_y
_atom_site_fract_z
Si Si1 0.702832 0.944093 0.142610
Si Si2 0.694231 0.420611 0.431629
Si Si3 0.500000 0.500000 0.906274
Si Si4 0.794559 0.694278 0.587427
Si Si5 0.691950 0.842439 0.688671
Si Si6 0.294705 0.590375 0.038158
Si Si7 0.794068 0.191205 0.897687
Si Si8 0.800825 0.306363 0.288395
O O1 0.500000 0.934328 0.147609
O O2 0.804067 0.899951 0.169351
O O3 0.749942 0.941351 0.085995
O O4 0.741772 0.000000 0.162025
O O5 0.500000 0.432695 0.415318
O O6 0.710007 0.429390 0.489479
O O7 0.725884 0.359373 0.424573
O O8 0.846254 0.454789 0.408436
O O9 0.750000 0.750000 0.568765
O O10 0.725135 0.687342 0.642745
O O11 0.737763 0.647900 0.553198
O O12 0.000000 0.689092 0.590858
O O13 0.500000 0.822365 0.694167
O O14 0.766922 0.841357 0.742264
O O15 0.500000 0.589884 0.030646
O O16 0.750000 0.250000 0.912985
O O17 0.724633 0.185420 0.841914
O O18 0.000000 0.187961 0.900107
O O19 0.750000 0.250000 0.271463
O O20 0.000000 0.307135 0.297439
#
# Coordination Sequence:
#
# PCOD9368864 Si02
#       8
#    16  16   4  16  16  16  16  16
#     4  10  21  35  54  79 108 145 198 249 300 359
#     4  12  25  43  69  98 128 171 219 265 330 389
#     4  12  26  48  68  94 136 168 210 282 312 390
#     4   9  19  32  49  74 112 157 195 241 303 363
#     4  10  20  34  52  78 112 151 195 244 295 357
#     4  10  21  38  55  82 119 155 199 255 306 363
#     4  10  21  41  66  97 132 166 208 267 327 388
#     4  10  20  34  59  89 120 155 193 241 300 361
#
# _framework density 20.613849999999999
#
# number of rings (size 3 to 8) (size 9 to 14) (size 15 to 20)
#    0.000    1.793    1.379    3.517    0.966    7.724 
#    0.000    1.379    1.517    0.000    0.000    0.000 
#    0.000    0.000    0.000    0.000    0.000    0.000 
#
# Total GULP energy -161460.972495 kJ/mol
# GULP energy per Si atom -5567.619741 kJ/mol
# Density = 2.056693 g / cm^3
# Si number density = 20.613850 Si / 1000 Ang^3
#
#
#
# Elastic Constant Matrix: (Units=GPa)
#
#
# Indices 1 2 3 4 5 6 
#
# 1 89.1423 17.0549 2.5177 0.0000 0.0000 0.0000
# 2 17.0549 88.5170 4.9553 0.0000 0.0000 0.0000
# 3 2.5177 4.9553 38.8609 0.0000 0.0000 0.0000
# 4 0.0000 0.0000 0.0000 -5.0716 0.0000 0.0000
# 5 0.0000 0.0000 0.0000 0.0000 23.4752 0.0000
# 6 0.0000 0.0000 0.0000 0.0000 0.0000 31.6930
#
#
#
# Elastic Compliance Matrix: (Units=1/GPa)
#
#
# Indices 1 2 3 4 5 6 
#
# 1 0.011656 -0.002219 -0.000472 0.000000 0.000000 0.000000
# 2 -0.002219 0.011801 -0.001361 0.000000 0.000000 0.000000
# 3 -0.000472 -0.001361 0.025937 0.000000 0.000000 0.000000
# 4 0.000000 0.000000 0.000000 -0.197177 0.000000 0.000000
# 5 0.000000 0.000000 0.000000 0.000000 0.042598 0.000000
# 6 0.000000 0.000000 0.000000 0.000000 0.000000 0.031553
#
#
# Mechanical properties :
#
#
# Convention : Reuss Voigt Hill
#
# Bulk Modulus (GPa) = 24.21957 29.50843 26.86400
# Shear Modulus (GPa) = -96.59216 22.81881 -36.88667
#
# Velocity S-wave (km/s) = -6.85271 3.33072 -4.23473
# Velocity P-wave (km/s) = 7.13009 5.39792 3.29398
#
# Compressibility (1/GPa) = 0.04128892
#
# Stress axis : x y z
#
# Youngs Moduli (GPa) = 85.79296 84.73807 38.55502
#
# Poissons Ratio (x) = 0.18806 0.01820
# Poissons Ratio (y) = 0.19041 0.05247
# Poissons Ratio (z) = 0.04051 0.11533
#
# Static dielectric constant tensor:
#      x y z
#    x 1.777050 0.000000 0.000000 
#    y 0.000000 1.767450 0.000000 
#    z 0.000000 0.000000 1.762990 
# 
# From -- ./inp_files/31755.got.cif
#   From: 2010.05.17/outbox.cif.g08.bks.cpg/sg42_16_cif.got.tgz:31755.got - 2010.06.03 19:03:34.
