data_PCOD9368242
_publ_section_title
;
Structure prediction by ZEFSAII (Michael W. Deem and Ramdas Pophale) SiO2 
 PCOD9368242
Probable space group: F M M 2
;
_chemical_formula_sum "Si O2"
_cell_formula_units_Z 80
_cell_length_a 19.408715
_cell_length_b 8.603715
_cell_length_c 26.873362
_cell_angle_alpha 90.000000
_cell_angle_beta 90.000000
_cell_angle_gamma 90.000000
_cell_volume 4487.503508
_symmetry_space_group_name_H-M "F M M 2"
_symmetry_group_IT_number 42
_symmetry_cell_setting 'orthorhombic'
loop_
_space_group_symop_operation_xyz
x,y,z
-x,-y,z
-x,y,z
x,-y,z
x,1/2+y,1/2+z
-x,1/2-y,1/2+z
-x,1/2+y,1/2+z
x,1/2-y,1/2+z
1/2+x,y,1/2+z
1/2-x,-y,1/2+z
1/2-x,y,1/2+z
1/2+x,-y,1/2+z
1/2+x,1/2+y,z
1/2-x,1/2-y,z
1/2-x,1/2+y,z
1/2+x,1/2-y,z
loop_
_atom_site_type_symbol
_atom_site_label
_atom_site_fract_x
_atom_site_fract_y
_atom_site_fract_z
Si Si1 0.671667 0.185321 0.164590
Si Si2 0.081812 0.186364 0.856643
Si Si3 0.827760 0.686984 0.560995
Si Si4 0.079016 0.310744 0.468779
Si Si5 0.327437 0.815719 0.768080
O O1 0.750000 0.250000 0.165100
O O2 0.641650 0.251176 0.113193
O O3 0.642126 0.244049 0.216949
O O4 0.672701 0.000000 0.163267
O O5 0.100774 0.235786 0.913019
O O6 0.126256 0.269389 0.814838
O O7 0.000000 0.215082 0.850650
O O8 0.092250 0.000000 0.852657
O O9 0.825792 0.500000 0.562807
O O10 0.750000 0.750000 0.556456
O O11 0.871916 0.738956 0.513456
O O12 0.078753 0.500000 0.468694
O O13 0.000000 0.260813 0.476712
O O14 0.250000 0.750000 0.774916
O O15 0.322929 0.000000 0.762372
#
# Coordination Sequence:
#
# PCOD9368242 Si02
#       5
#    16  16  16  16  16
#     4  10  18  31  50  72 100 132 166 204 252 302
#     4   9  18  35  56  76 102 136 171 208 254 304
#     4  10  18  30  50  75 102 130 164 205 247 294
#     4   8  16  32  53  74  98 132 169 203 244 294
#     4  11  21  34  53  77 104 133 170 212 255 302
#
# _framework density 17.827285
#
# number of rings (size 3 to 8) (size 9 to 14) (size 15 to 20)
#    0.000    2.400    0.000    7.800    0.000    1.200 
#    0.000    5.000    0.000    8.400    0.000    0.000 
#    0.000    0.000    0.000    0.000    0.000    0.000 
#
# Total GULP energy -111526.197219 kJ/mol
# GULP energy per Si atom -5576.309861 kJ/mol
# Density = 1.778671 g / cm^3
# Si number density = 17.827285 Si / 1000 Ang^3
#
#
#
# Elastic Constant Matrix: (Units=GPa)
#
#
# Indices 1 2 3 4 5 6 
#
# 1 40.7464 28.4341 68.7171 0.0000 0.0000 0.0000
# 2 28.4341 97.2787 57.6922 0.0000 0.0000 0.0000
# 3 68.7171 57.6922 197.4691 0.0000 0.0000 0.0000
# 4 0.0000 0.0000 0.0000 9.2400 0.0000 0.0000
# 5 0.0000 0.0000 0.0000 0.0000 -67.7948 0.0000
# 6 0.0000 0.0000 0.0000 0.0000 0.0000 14.5815
#
#
#
# Elastic Compliance Matrix: (Units=1/GPa)
#
#
# Indices 1 2 3 4 5 6 
#
# 1 0.062637 -0.006509 -0.019895 0.000000 0.000000 0.000000
# 2 -0.006509 0.013111 -0.001565 0.000000 0.000000 0.000000
# 3 -0.019895 -0.001565 0.012445 0.000000 0.000000 0.000000
# 4 0.000000 0.000000 0.000000 0.108225 0.000000 0.000000
# 5 0.000000 0.000000 0.000000 0.000000 -0.014750 0.000000
# 6 0.000000 0.000000 0.000000 0.000000 0.000000 0.068580
#
#
# Mechanical properties :
#
#
# Convention : Reuss Voigt Hill
#
# Bulk Modulus (GPa) = 31.00509 71.68678 51.34593
# Shear Modulus (GPa) = 15.77594 3.24871 9.51232
#
# Velocity S-wave (km/s) = 2.97801 1.35140 2.31245
# Velocity P-wave (km/s) = 5.40873 6.53714 5.99952
#
# Compressibility (1/GPa) = 0.03225277
#
# Stress axis : x y z
#
# Youngs Moduli (GPa) = 15.96498 76.27380 80.35543
#
# Poissons Ratio (x) = 0.49650 1.59869
# Poissons Ratio (y) = 0.10392 0.12577
# Poissons Ratio (z) = 0.31763 0.11938
#
# Static dielectric constant tensor:
#      x y z
#    x 1.600870 0.000000 0.000000 
#    y 0.000000 1.598830 0.000000 
#    z 0.000000 0.000000 1.644660 
# 
# From -- ./inp_files/31265.got.cif
#   From: 2010.05.17/outbox.cif.g08.bks.cpg/sg42_16_cif.got.tgz:31265.got - 2010.06.03 19:03:34.
