data_PCOD9368366
_publ_section_title
;
Structure prediction by ZEFSAII (Michael W. Deem and Ramdas Pophale) SiO2 
 PCOD9368366
Probable space group: F M M 2
;
_chemical_formula_sum "Si O2"
_cell_formula_units_Z 80
_cell_length_a 14.811610
_cell_length_b 10.523605
_cell_length_c 23.045420
_cell_angle_alpha 90.000000
_cell_angle_beta 90.000000
_cell_angle_gamma 90.000000
_cell_volume 3592.124945
_symmetry_space_group_name_H-M "F M M 2"
_symmetry_group_IT_number 42
_symmetry_cell_setting 'orthorhombic'
loop_
_space_group_symop_operation_xyz
x,y,z
-x,-y,z
-x,y,z
x,-y,z
x,1/2+y,1/2+z
-x,1/2-y,1/2+z
-x,1/2+y,1/2+z
x,1/2-y,1/2+z
1/2+x,y,1/2+z
1/2-x,-y,1/2+z
1/2-x,y,1/2+z
1/2+x,-y,1/2+z
1/2+x,1/2+y,z
1/2-x,1/2-y,z
1/2-x,1/2+y,z
1/2+x,1/2-y,z
loop_
_atom_site_type_symbol
_atom_site_label
_atom_site_fract_x
_atom_site_fract_y
_atom_site_fract_z
Si Si1 0.347480 0.500000 0.135751
Si Si2 0.610223 0.000000 0.771600
Si Si3 0.103686 0.000000 0.741253
Si Si4 0.866008 0.000000 0.606982
Si Si5 0.140327 0.267185 0.559092
Si Si6 0.606093 0.730208 0.812321
Si Si7 0.169112 0.648123 0.435852
O O1 0.358612 0.500000 0.204685
O O2 0.242719 0.500000 0.115916
O O3 0.385971 0.628174 0.106853
O O4 0.642881 0.127783 0.803762
O O5 0.500000 0.000000 0.771173
O O6 0.101235 0.000000 0.672715
O O7 0.145694 0.128274 0.767015
O O8 0.000000 0.000000 0.762672
O O9 0.894045 0.872468 0.574158
O O10 0.250000 0.250000 0.560187
O O11 0.117222 0.318669 0.495326
O O12 0.500000 0.743167 0.799813
O O13 0.617203 0.673707 0.876298
O O14 0.197681 0.500000 0.439069
O O15 0.250000 0.750000 0.433878
#
# Coordination Sequence:
#
# PCOD9368366 Si02
#       7
#     8   8   8   8  16  16  16
#     4  10  18  35  56  78 112 145 185 226 273 338
#     4  10  22  37  56  84 116 151 189 236 287 332
#     4  10  20  37  58  80 112 153 191 230 283 338
#     4  10  20  33  56  84 110 147 185 228 279 338
#     4   9  19  34  55  82 112 144 180 226 286 333
#     4  10  22  40  60  81 115 157 191 232 288 341
#     4  11  23  38  61  87 114 148 191 238 285 340
#
# _framework density 22.270942000000002
#
# number of rings (size 3 to 8) (size 9 to 14) (size 15 to 20)
#    0.000    2.000    2.000    1.200    5.600    1.600 
#    0.000    2.000    0.000    0.000    0.000    0.000 
#    0.000    0.000    0.000    0.000    0.000    0.000 
#
# Total GULP energy -111704.776759 kJ/mol
# GULP energy per Si atom -5585.238838 kJ/mol
# Density = 2.222025 g / cm^3
# Si number density = 22.270942 Si / 1000 Ang^3
#
#
#
# Elastic Constant Matrix: (Units=GPa)
#
#
# Indices 1 2 3 4 5 6 
#
# 1 50.2856 12.7454 -19.4255 0.0000 0.0000 0.0000
# 2 12.7454 246.7847 80.0443 0.0000 0.0000 0.0000
# 3 -19.4255 80.0443 121.4607 0.0000 0.0000 0.0000
# 4 0.0000 0.0000 0.0000 45.6124 0.0000 0.0000
# 5 0.0000 0.0000 0.0000 0.0000 40.3426 0.0000
# 6 0.0000 0.0000 0.0000 0.0000 0.0000 -3.8044
#
#
#
# Elastic Compliance Matrix: (Units=1/GPa)
#
#
# Indices 1 2 3 4 5 6 
#
# 1 0.022823 -0.003005 0.005630 0.000000 0.000000 0.000000
# 2 -0.003005 0.005549 -0.004138 0.000000 0.000000 0.000000
# 3 0.005630 -0.004138 0.011860 0.000000 0.000000 0.000000
# 4 0.000000 0.000000 0.000000 0.021924 0.000000 0.000000
# 5 0.000000 0.000000 0.000000 0.000000 0.024788 0.000000
# 6 0.000000 0.000000 0.000000 0.000000 0.000000 -0.262852
#
#
# Mechanical properties :
#
#
# Convention : Reuss Voigt Hill
#
# Bulk Modulus (GPa) = 26.87556 62.80661 44.84108
# Shear Modulus (GPa) = -31.15646 39.44124 4.14239
#
# Velocity S-wave (km/s) = -3.74434 4.21286 1.36530
# Velocity P-wave (km/s) = 2.56899 7.20601 4.76061
#
# Compressibility (1/GPa) = 0.03720853
#
# Stress axis : x y z
#
# Youngs Moduli (GPa) = 43.81519 180.20072 84.31406
#
# Poissons Ratio (x) = 0.54150 -0.47473
# Poissons Ratio (y) = 0.13166 0.34887
# Poissons Ratio (z) = -0.24670 0.74562
#
# Static dielectric constant tensor:
#      x y z
#    x 1.860860 0.000000 0.000000 
#    y 0.000000 1.850230 0.000000 
#    z 0.000000 0.000000 1.764780 
# 
# From -- ./inp_files/23485.got.cif
#   From: 2010.05.17/outbox.cif.g08.bks.cpg/sg42_12_cif.got.tgz:23485.got - 2010.06.03 19:03:34.
