data_PCOD9368572
_publ_section_title
;
Structure prediction by ZEFSAII (Michael W. Deem and Ramdas Pophale) SiO2 
 PCOD9368572
Probable space group: F M M 2
;
_chemical_formula_sum "Si O2"
_cell_formula_units_Z 96
_cell_length_a 24.195982
_cell_length_b 7.757798
_cell_length_c 26.395872
_cell_angle_alpha 90.000000
_cell_angle_beta 90.000000
_cell_angle_gamma 90.000000
_cell_volume 4954.704220
_symmetry_space_group_name_H-M "F M M 2"
_symmetry_group_IT_number 42
_symmetry_cell_setting 'orthorhombic'
loop_
_space_group_symop_operation_xyz
x,y,z
-x,-y,z
-x,y,z
x,-y,z
x,1/2+y,1/2+z
-x,1/2-y,1/2+z
-x,1/2+y,1/2+z
x,1/2-y,1/2+z
1/2+x,y,1/2+z
1/2-x,-y,1/2+z
1/2-x,y,1/2+z
1/2+x,-y,1/2+z
1/2+x,1/2+y,z
1/2-x,1/2-y,z
1/2-x,1/2+y,z
1/2+x,1/2-y,z
loop_
_atom_site_type_symbol
_atom_site_label
_atom_site_fract_x
_atom_site_fract_y
_atom_site_fract_z
Si Si1 0.379496 0.294006 0.790790
Si Si2 0.813487 0.291938 0.080120
Si Si3 0.500000 0.787856 0.942885
Si Si4 0.814438 0.793848 0.889819
Si Si5 0.500000 0.205511 0.825923
Si Si6 0.186556 0.207554 0.694516
Si Si7 0.884565 0.796599 0.487412
O O1 0.371159 0.500000 0.790278
O O2 0.346421 0.227200 0.839976
O O3 0.444054 0.261118 0.798417
O O4 0.353641 0.226402 0.738498
O O5 0.817518 0.500000 0.080886
O O6 0.750000 0.250000 0.066849
O O7 0.824087 0.227754 0.137361
O O8 0.855353 0.224313 0.037610
O O9 0.500000 0.730623 0.884222
O O10 0.444261 0.727823 0.970548
O O11 0.500000 0.000000 0.942214
O O12 0.750000 0.750000 0.887522
O O13 0.843279 0.723179 0.940141
O O14 0.820220 0.000000 0.891532
O O15 0.500000 0.000000 0.828221
O O16 0.250000 0.250000 0.707541
O O17 0.181697 0.000000 0.692547
O O18 0.892684 0.000000 0.496407
#
# Coordination Sequence:
#
# PCOD9368572 Si02
#       7
#    16  16   8  16   8  16  16
#     4  10  21  36  53  75 106 137 171 213 258 307
#     4   9  18  32  53  77 103 135 171 211 257 308
#     4   9  18  33  52  73  99 135 173 211 250 297
#     4  11  22  33  49  75 104 135 168 209 260 311
#     4  11  21  35  56  77 101 139 179 213 256 305
#     4   9  18  34  54  78 105 137 173 211 258 307
#     4  10  19  34  53  75 104 135 172 215 257 305
#
# _framework density 19.375526000000001
#
# number of rings (size 3 to 8) (size 9 to 14) (size 15 to 20)
#    0.000    2.167    1.667    1.750    0.000    3.333 
#    0.000    1.250    0.000    4.000    0.000    0.000 
#    0.000    0.000    0.000    0.000    0.000    0.000 
#
# Total GULP energy -133984.557163 kJ/mol
# GULP energy per Si atom -5582.689882 kJ/mol
# Density = 1.933143 g / cm^3
# Si number density = 19.375526 Si / 1000 Ang^3
#
#
#
# Elastic Constant Matrix: (Units=GPa)
#
#
# Indices 1 2 3 4 5 6 
#
# 1 171.6996 -14.0314 115.0727 0.0000 0.0000 -0.0001
# 2 -14.0314 23.9111 0.3500 0.0000 -0.0001 -0.0002
# 3 115.0727 0.3500 164.0996 0.0000 0.0000 0.0000
# 4 0.0000 0.0000 0.0000 8.0621 0.0000 0.0000
# 5 0.0000 -0.0001 0.0000 0.0000 18.9048 0.0000
# 6 -0.0001 -0.0002 0.0000 0.0000 0.0000 4.0317
#
#
#
# Elastic Compliance Matrix: (Units=1/GPa)
#
#
# Indices 1 2 3 4 5 6 
#
# 1 0.012124 0.007239 -0.008517 0.000000 0.000000 0.000001
# 2 0.007239 0.046145 -0.005175 0.000000 0.000000 0.000002
# 3 -0.008517 -0.005175 0.012077 0.000000 0.000000 0.000000
# 4 0.000000 0.000000 0.000000 0.124037 0.000000 0.000001
# 5 0.000000 0.000000 0.000000 0.000000 0.052897 0.000000
# 6 0.000001 0.000002 0.000000 0.000001 0.000000 0.248036
#
#
# Mechanical properties :
#
#
# Convention : Reuss Voigt Hill
#
# Bulk Modulus (GPa) = 17.40912 62.49921 39.95416
# Shear Modulus (GPa) = 9.48102 23.42097 16.45099
#
# Velocity S-wave (km/s) = 2.21448 3.48054 2.91703
# Velocity P-wave (km/s) = 3.94248 6.96269 5.65783
#
# Compressibility (1/GPa) = 0.05744117
#
# Stress axis : x y z
#
# Youngs Moduli (GPa) = 82.48169 21.67063 82.79892
#
# Poissons Ratio (x) = -0.15688 0.70521
# Poissons Ratio (y) = -0.59710 0.42847
# Poissons Ratio (z) = 0.70251 0.11214
#
# Static dielectric constant tensor:
#      x y z
#    x 1.648770 0.000000 0.000000 
#    y 0.000000 1.720870 0.000000 
#    z 0.000000 0.000000 1.689750 
# 
# From -- ./inp_files/28074.got.cif
#   From: 2010.05.17/outbox.cif.g08.bks.cpg/sg42_15_cif.got.tgz:28074.got - 2010.06.03 19:03:34.
