data_PCOD9368400
_publ_section_title
;
Structure prediction by ZEFSAII (Michael W. Deem and Ramdas Pophale) SiO2 
 PCOD9368400
Probable space group: F M M 2
;
_chemical_formula_sum "Si O2"
_cell_formula_units_Z 96
_cell_length_a 7.689500
_cell_length_b 24.519733
_cell_length_c 26.154567
_cell_angle_alpha 90.000000
_cell_angle_beta 90.000000
_cell_angle_gamma 90.000000
_cell_volume 4931.299415
_symmetry_space_group_name_H-M "F M M 2"
_symmetry_group_IT_number 42
_symmetry_cell_setting 'orthorhombic'
loop_
_space_group_symop_operation_xyz
x,y,z
-x,-y,z
-x,y,z
x,-y,z
x,1/2+y,1/2+z
-x,1/2-y,1/2+z
-x,1/2+y,1/2+z
x,1/2-y,1/2+z
1/2+x,y,1/2+z
1/2-x,-y,1/2+z
1/2-x,y,1/2+z
1/2+x,-y,1/2+z
1/2+x,1/2+y,z
1/2-x,1/2-y,z
1/2-x,1/2+y,z
1/2+x,1/2-y,z
loop_
_atom_site_type_symbol
_atom_site_label
_atom_site_fract_x
_atom_site_fract_y
_atom_site_fract_z
Si Si1 0.212968 0.500000 0.763620
Si Si2 0.291070 0.313569 0.323613
Si Si3 0.790797 0.812123 0.516281
Si Si4 0.213134 0.382586 0.921699
Si Si5 0.287875 0.000000 0.883089
Si Si6 0.792583 0.383094 0.727817
Si Si7 0.206293 0.811794 0.631739
O O1 0.264042 0.500000 0.823404
O O2 0.273167 0.555548 0.736570
O O3 0.000000 0.500000 0.762983
O O4 0.500000 0.318426 0.323452
O O5 0.250000 0.250000 0.324196
O O6 0.229987 0.344939 0.374245
O O7 0.223911 0.343700 0.272767
O O8 0.750000 0.750000 0.500388
O O9 0.727496 0.855242 0.474487
O O10 0.722388 0.819664 0.574146
O O11 0.000000 0.816764 0.518059
O O12 0.268344 0.444456 0.910659
O O13 0.000000 0.382520 0.922154
O O14 0.500000 0.000000 0.882993
O O15 0.762548 0.355757 0.673209
O O16 0.000000 0.385990 0.734708
O O17 0.250000 0.750000 0.648411
O O18 0.000000 0.815003 0.628353
#
# Coordination Sequence:
#
# PCOD9368400 Si02
#       7
#     8  16  16  16   8  16  16
#     4   9  16  30  50  73  99 131 169 204 239 290
#     4  10  19  29  45  71  99 123 152 196 246 293
#     4   9  18  32  50  73  99 128 162 199 242 292
#     4   9  16  28  47  72  98 123 157 200 243 284
#     4   9  14  26  49  73  97 127 161 200 241 284
#     4  10  19  32  51  74  99 128 166 207 246 291
#     4  10  20  34  51  72 100 133 168 205 247 296
#
# _framework density 19.467485
#
# number of rings (size 3 to 8) (size 9 to 14) (size 15 to 20)
#    0.000    2.500    1.667    1.500    0.000    2.667 
#    0.000    1.250    0.000    2.000    0.000    2.333 
#    0.000    0.000    0.000    0.000    0.000    0.000 
#
# Total GULP energy -133939.013221 kJ/mol
# GULP energy per Si atom -5580.792218 kJ/mol
# Density = 1.942318 g / cm^3
# Si number density = 19.467485 Si / 1000 Ang^3
#
#
#
# Elastic Constant Matrix: (Units=GPa)
#
#
# Indices 1 2 3 4 5 6 
#
# 1 31.6464 4.2488 3.9600 0.0000 0.0000 0.0000
# 2 4.2488 218.7525 121.0717 0.0000 0.0000 0.0000
# 3 3.9600 121.0717 134.5024 0.0000 0.0000 0.0000
# 4 0.0000 0.0000 0.0000 27.4702 0.0000 0.0000
# 5 0.0000 0.0000 0.0000 0.0000 0.3078 0.0000
# 6 0.0000 0.0000 0.0000 0.0000 0.0000 15.6442
#
#
#
# Elastic Compliance Matrix: (Units=1/GPa)
#
#
# Indices 1 2 3 4 5 6 
#
# 1 0.031720 -0.000198 -0.000756 0.000000 0.000000 0.000000
# 2 -0.000198 0.009111 -0.008196 0.000000 0.000000 0.000000
# 3 -0.000756 -0.008196 0.014834 0.000000 0.000000 0.000000
# 4 0.000000 0.000000 0.000000 0.036403 0.000000 0.000000
# 5 0.000000 0.000000 0.000000 0.000000 3.248688 0.000000
# 6 0.000000 0.000000 0.000000 0.000000 0.000000 0.063921
#
#
# Mechanical properties :
#
#
# Convention : Reuss Voigt Hill
#
# Bulk Modulus (GPa) = 26.76134 71.49582 49.12858
# Shear Modulus (GPa) = 1.45542 25.72584 13.59063
#
# Velocity S-wave (km/s) = 0.86559 3.63916 2.64506
# Velocity P-wave (km/s) = 3.84389 7.37994 5.88383
#
# Compressibility (1/GPa) = 0.03736734
#
# Stress axis : x y z
#
# Youngs Moduli (GPa) = 31.52554 109.75548 67.41153
#
# Poissons Ratio (x) = 0.02170 0.05096
# Poissons Ratio (y) = 0.00623 0.55247
# Poissons Ratio (z) = 0.02383 0.89951
#
# Static dielectric constant tensor:
#      x y z
#    x 1.731960 0.000000 0.000000 
#    y 0.000000 1.648160 0.000000 
#    z 0.000000 0.000000 1.688370 
# 
# From -- ./inp_files/28065.got.cif
#   From: 2010.05.17/outbox.cif.g08.bks.cpg/sg42_15_cif.got.tgz:28065.got - 2010.06.03 19:03:34.
