data_PCOD9368890
_publ_section_title
;
Structure prediction by ZEFSAII (Michael W. Deem and Ramdas Pophale) SiO2 
 PCOD9368890
Probable space group: F M M 2
;
_chemical_formula_sum "Si O2"
_cell_formula_units_Z 96
_cell_length_a 8.662407
_cell_length_b 18.968047
_cell_length_c 31.703338
_cell_angle_alpha 90.000000
_cell_angle_beta 90.000000
_cell_angle_gamma 90.000000
_cell_volume 5209.141960
_symmetry_space_group_name_H-M "F M M 2"
_symmetry_group_IT_number 42
_symmetry_cell_setting 'orthorhombic'
loop_
_space_group_symop_operation_xyz
x,y,z
-x,-y,z
-x,y,z
x,-y,z
x,1/2+y,1/2+z
-x,1/2-y,1/2+z
-x,1/2+y,1/2+z
x,1/2-y,1/2+z
1/2+x,y,1/2+z
1/2-x,-y,1/2+z
1/2-x,y,1/2+z
1/2+x,-y,1/2+z
1/2+x,1/2+y,z
1/2-x,1/2-y,z
1/2-x,1/2+y,z
1/2+x,1/2-y,z
loop_
_atom_site_type_symbol
_atom_site_label
_atom_site_fract_x
_atom_site_fract_y
_atom_site_fract_z
Si Si1 0.682045 0.084533 0.892900
Si Si2 0.817251 0.827813 0.968498
Si Si3 0.816016 0.671112 0.058584
Si Si4 0.186688 0.328689 0.718005
Si Si5 0.813382 0.081952 0.135670
Si Si6 0.188222 0.418758 0.798168
O O1 0.500000 0.102294 0.896931
O O2 0.773561 0.122741 0.929641
O O3 0.734733 0.103468 0.845396
O O4 0.695353 0.000000 0.896253
O O5 0.750000 0.750000 0.960337
O O6 0.000000 0.823145 0.973978
O O7 0.742933 0.852667 0.012571
O O8 0.750000 0.750000 0.065563
O O9 0.756656 0.619921 0.095031
O O10 0.000000 0.674594 0.058640
O O11 0.250000 0.250000 0.714929
O O12 0.232684 0.375297 0.677599
O O13 0.238929 0.367613 0.760840
O O14 0.000000 0.326141 0.718622
O O15 0.000000 0.084801 0.132827
O O16 0.768391 0.000000 0.138422
O O17 0.236425 0.500000 0.790780
O O18 0.000000 0.419461 0.798266
#
# Coordination Sequence:
#
# PCOD9368890 Si02
#       6
#    16  16  16  16  16  16
#     4   9  18  34  56  81 110 144 182 224 270 320
#     4  11  22  37  57  80 109 143 181 224 270 321
#     4  11  22  38  59  81 108 141 179 222 270 323
#     4  10  20  34  54  80 109 142 180 221 266 317
#     4  10  21  37  57  81 109 142 181 224 269 318
#     4   8  15  31  55  79 104 139 182 223 263 312
#
# _framework density 18.429137999999998
#
# number of rings (size 3 to 8) (size 9 to 14) (size 15 to 20)
#    0.000    2.167    0.000    6.000    0.000    6.000 
#    0.000    2.500    0.000    2.500    0.000    0.000 
#    0.000    0.000    0.000    0.000    0.000    0.000 
#
# Total GULP energy -134013.533606 kJ/mol
# GULP energy per Si atom -5583.897234 kJ/mol
# Density = 1.838719 g / cm^3
# Si number density = 18.429138 Si / 1000 Ang^3
#
#
#
# Elastic Constant Matrix: (Units=GPa)
#
#
# Indices 1 2 3 4 5 6 
#
# 1 54.8995 39.3194 49.3345 0.0000 0.0000 0.0000
# 2 39.3194 110.3363 106.4418 0.0000 0.0000 0.0000
# 3 49.3345 106.4418 180.6508 0.0000 0.0000 0.0000
# 4 0.0000 0.0000 0.0000 39.5842 0.0000 0.0000
# 5 0.0000 0.0000 0.0000 0.0000 20.7882 0.0000
# 6 0.0000 0.0000 0.0000 0.0000 0.0000 25.9124
#
#
#
# Elastic Compliance Matrix: (Units=1/GPa)
#
#
# Indices 1 2 3 4 5 6 
#
# 1 0.025497 -0.005489 -0.003729 0.000000 0.000000 0.000000
# 2 -0.005489 0.022181 -0.011571 0.000000 0.000000 0.000000
# 3 -0.003729 -0.011571 0.013372 0.000000 0.000000 0.000000
# 4 0.000000 0.000000 0.000000 0.025263 0.000000 0.000000
# 5 0.000000 0.000000 0.000000 0.000000 0.048104 0.000000
# 6 0.000000 0.000000 0.000000 0.000000 0.000000 0.038592
#
#
# Mechanical properties :
#
#
# Convention : Reuss Voigt Hill
#
# Bulk Modulus (GPa) = 51.35254 81.78646 66.56950
# Shear Modulus (GPa) = 22.61660 27.30968 24.96314
#
# Velocity S-wave (km/s) = 3.50697 3.85369 3.68441
# Velocity P-wave (km/s) = 6.65761 8.01726 7.36886
#
# Compressibility (1/GPa) = 0.01947323
#
# Stress axis : x y z
#
# Youngs Moduli (GPa) = 39.21994 45.08277 74.78582
#
# Poissons Ratio (x) = 0.24745 0.27888
# Poissons Ratio (y) = 0.21527 0.86532
# Poissons Ratio (z) = 0.14625 0.52164
#
# Static dielectric constant tensor:
#      x y z
#    x 1.627260 0.000000 0.000000 
#    y 0.000000 1.606260 0.000000 
#    z 0.000000 0.000000 1.628110 
# 
# From -- ./inp_files/31445.got.cif
#   From: 2010.05.17/outbox.cif.g08.bks.cpg/sg42_16_cif.got.tgz:31445.got - 2010.06.03 19:03:34.
