data_PCOD9368677
_publ_section_title
;
Structure prediction by ZEFSAII (Michael W. Deem and Ramdas Pophale) SiO2 
 PCOD9368677
Probable space group: F M M 2
;
_chemical_formula_sum "Si O2"
_cell_formula_units_Z 96
_cell_length_a 22.831863
_cell_length_b 13.554461
_cell_length_c 14.259313
_cell_angle_alpha 90.000000
_cell_angle_beta 90.000000
_cell_angle_gamma 90.000000
_cell_volume 4412.880879
_symmetry_space_group_name_H-M "F M M 2"
_symmetry_group_IT_number 42
_symmetry_cell_setting 'orthorhombic'
loop_
_space_group_symop_operation_xyz
x,y,z
-x,-y,z
-x,y,z
x,-y,z
x,1/2+y,1/2+z
-x,1/2-y,1/2+z
-x,1/2+y,1/2+z
x,1/2-y,1/2+z
1/2+x,y,1/2+z
1/2-x,-y,1/2+z
1/2-x,y,1/2+z
1/2+x,-y,1/2+z
1/2+x,1/2+y,z
1/2-x,1/2-y,z
1/2-x,1/2+y,z
1/2+x,1/2-y,z
loop_
_atom_site_type_symbol
_atom_site_label
_atom_site_fract_x
_atom_site_fract_y
_atom_site_fract_z
Si Si1 0.332315 0.881173 0.915560
Si Si2 0.933397 0.297187 0.799124
Si Si3 0.279281 0.880872 0.305853
Si Si4 0.767099 0.880927 0.601436
Si Si5 0.871622 0.880902 0.115372
Si Si6 0.601794 0.116452 0.405798
O O1 0.395183 0.845891 0.882318
O O2 0.284101 0.846972 0.839619
O O3 0.332924 0.000000 0.915973
O O4 0.305772 0.846393 0.014239
O O5 0.900982 0.324116 0.702033
O O6 0.932522 0.183132 0.831775
O O7 0.000000 0.332628 0.794462
O O8 0.292618 0.847789 0.201018
O O9 0.330320 0.862284 0.379391
O O10 0.275006 0.000000 0.301540
O O11 0.697709 0.859121 0.601995
O O12 0.769819 0.000000 0.596639
O O13 0.875197 0.000000 0.133675
O O14 0.904093 0.861222 0.016232
O O15 0.591083 0.000000 0.392937
#
# Coordination Sequence:
#
# PCOD9368677 Si02
#       6
#    16  16  16  16  16  16
#     4  10  19  35  61  96 140 176 209 273 351 409
#     4  12  27  42  61  97 140 181 230 277 328 407
#     4   9  16  32  60  93 129 163 210 277 345 402
#     4   9  16  31  60  97 135 171 211 269 339 410
#     4  10  20  41  71  99 129 173 229 285 336 394
#     4  10  23  44  68  93 129 179 232 289 344 396
#
# _framework density 21.754494999999999
#
# number of rings (size 3 to 8) (size 9 to 14) (size 15 to 20)
#    0.000    2.000    3.333    0.500    0.000    4.333 
#    0.000    3.333    0.000    1.000    0.000    9.333 
#    0.000    0.000    0.000    0.000    0.000    0.000 
#
# Total GULP energy -134145.761937 kJ/mol
# GULP energy per Si atom -5589.406747 kJ/mol
# Density = 2.170498 g / cm^3
# Si number density = 21.754495 Si / 1000 Ang^3
#
#
#
# Elastic Constant Matrix: (Units=GPa)
#
#
# Indices 1 2 3 4 5 6 
#
# 1 120.2117 24.0274 68.2447 0.0000 0.0000 0.0000
# 2 24.0274 100.0628 54.3167 0.0000 0.0000 0.0000
# 3 68.2447 54.3167 190.0791 0.0000 0.0000 0.0000
# 4 0.0000 0.0000 0.0000 32.8960 0.0000 0.0000
# 5 0.0000 0.0000 0.0000 0.0000 13.4574 0.0000
# 6 0.0000 0.0000 0.0000 0.0000 0.0000 14.2347
#
#
#
# Elastic Compliance Matrix: (Units=1/GPa)
#
#
# Indices 1 2 3 4 5 6 
#
# 1 0.010475 -0.000561 -0.003601 0.000000 0.000000 0.000000
# 2 -0.000561 0.011859 -0.003187 0.000000 0.000000 0.000000
# 3 -0.003601 -0.003187 0.007464 0.000000 0.000000 0.000000
# 4 0.000000 0.000000 0.000000 0.030399 0.000000 0.000000
# 5 0.000000 0.000000 0.000000 0.000000 0.074309 0.000000
# 6 0.000000 0.000000 0.000000 0.000000 0.000000 0.070251
#
#
# Mechanical properties :
#
#
# Convention : Reuss Voigt Hill
#
# Bulk Modulus (GPa) = 66.22295 78.17014 72.19654
# Shear Modulus (GPa) = 22.27299 29.70193 25.98746
#
# Velocity S-wave (km/s) = 3.20321 3.69904 3.46002
# Velocity P-wave (km/s) = 6.64740 7.36578 7.01579
#
# Compressibility (1/GPa) = 0.01510051
#
# Stress axis : x y z
#
# Youngs Moduli (GPa) = 95.46731 84.32735 133.96746
#
# Poissons Ratio (x) = 0.04729 0.48236
# Poissons Ratio (y) = 0.05353 0.42700
# Poissons Ratio (z) = 0.34374 0.26878
#
# Static dielectric constant tensor:
#      x y z
#    x 1.758810 0.000000 0.000000 
#    y 0.000000 1.906170 0.000000 
#    z 0.000000 0.000000 1.801330 
# 
# From -- ./inp_files/15828.got.cif
#   From: 2010.05.17/outbox.cif.g08.bks.cpg/sg42_8_cif.got.tgz:15828.got - 2010.06.03 19:03:34.
