data_PCOD9368961
_publ_section_title
;
Structure prediction by ZEFSAII (Michael W. Deem and Ramdas Pophale) SiO2 
 PCOD9368961
Probable space group: F M M 2
;
_chemical_formula_sum "Si O2"
_cell_formula_units_Z 116
_cell_length_a 7.892258
_cell_length_b 31.080857
_cell_length_c 25.778502
_cell_angle_alpha 90.000000
_cell_angle_beta 90.000000
_cell_angle_gamma 90.000000
_cell_volume 6323.418652
_symmetry_space_group_name_H-M "F M M 2"
_symmetry_group_IT_number 42
_symmetry_cell_setting 'orthorhombic'
loop_
_space_group_symop_operation_xyz
x,y,z
-x,-y,z
-x,y,z
x,-y,z
x,1/2+y,1/2+z
-x,1/2-y,1/2+z
-x,1/2+y,1/2+z
x,1/2-y,1/2+z
1/2+x,y,1/2+z
1/2-x,-y,1/2+z
1/2-x,y,1/2+z
1/2+x,-y,1/2+z
1/2+x,1/2+y,z
1/2-x,1/2-y,z
1/2-x,1/2+y,z
1/2+x,1/2-y,z
loop_
_atom_site_type_symbol
_atom_site_label
_atom_site_fract_x
_atom_site_fract_y
_atom_site_fract_z
Si Si1 0.304813 0.863498 0.785450
Si Si2 0.193647 0.798501 0.701445
Si Si3 0.795882 0.799392 0.989542
Si Si4 0.699138 0.201584 0.374094
Si Si5 0.000000 0.500000 0.087692
Si Si6 0.701468 0.163039 0.596281
Si Si7 0.798279 0.562749 0.621098
Si Si8 0.705143 0.047491 0.743388
O O1 0.500000 0.870742 0.798056
O O2 0.293734 0.834386 0.733721
O O3 0.235276 0.834432 0.831711
O O4 0.227840 0.910489 0.773388
O O5 0.250000 0.750000 0.712725
O O6 0.213314 0.808389 0.640695
O O7 0.000000 0.803332 0.717771
O O8 0.750000 0.750000 0.000281
O O9 0.735118 0.826988 0.038392
O O10 0.000000 0.804085 0.988354
O O11 0.727866 0.808584 0.931502
O O12 0.500000 0.203736 0.380597
O O13 0.750000 0.250000 0.357844
O O14 0.846595 0.463143 0.090932
O O15 0.500000 0.172837 0.598524
O O16 0.721834 0.113226 0.610338
O O17 0.764241 0.553422 0.682010
O O18 0.000000 0.552130 0.611310
O O19 0.500000 0.047325 0.748833
O O20 0.767823 0.000000 0.759145
#
# Coordination Sequence:
#
# PCOD9368961 Si02
#       8
#    16  16  16  16   4  16  16  16
#     4  11  21  35  55  78 107 141 182 224 273 331
#     4  12  24  35  50  74 111 150 183 219 269 332
#     4   9  19  35  56  79 106 143 184 229 275 324
#     4  10  20  36  55  79 108 140 184 230 274 327
#     4  12  22  32  56  82 112 148 194 228 276 342
#     4  10  20  36  55  79 111 146 183 224 277 334
#     4  10  20  35  54  79 114 148 183 232 282 336
#     4   9  17  33  54  76 103 141 178 220 274 331
#
# _framework density 18.344508000000001
#
# number of rings (size 3 to 8) (size 9 to 14) (size 15 to 20)
#    0.000    1.793    2.069    3.103    0.966    2.207 
#    1.241    0.000    0.000    0.000    1.793    0.000 
#    0.000    0.000    0.000    0.000    0.000    0.000 
#
# Total GULP energy -161480.360180 kJ/mol
# GULP energy per Si atom -5568.288282 kJ/mol
# Density = 1.830275 g / cm^3
# Si number density = 18.344508 Si / 1000 Ang^3
#
#
#
# Elastic Constant Matrix: (Units=GPa)
#
#
# Indices 1 2 3 4 5 6 
#
# 1 42.0565 4.3062 0.0261 0.0000 0.0000 0.0000
# 2 4.3062 131.9034 57.2743 0.0000 0.0000 0.0000
# 3 0.0261 57.2743 78.8320 0.0000 0.0000 0.0000
# 4 0.0000 0.0000 0.0000 28.1312 0.0000 0.0000
# 5 0.0000 0.0000 0.0000 0.0000 10.5956 0.0000
# 6 0.0000 0.0000 0.0000 0.0000 0.0000 21.8222
#
#
#
# Elastic Compliance Matrix: (Units=1/GPa)
#
#
# Indices 1 2 3 4 5 6 
#
# 1 0.023893 -0.001135 0.000816 0.000000 0.000000 0.000000
# 2 -0.001135 0.011129 -0.008085 0.000000 0.000000 0.000000
# 3 0.000816 -0.008085 0.018559 0.000000 0.000000 0.000000
# 4 0.000000 0.000000 0.000000 0.035548 0.000000 0.000000
# 5 0.000000 0.000000 0.000000 0.000000 0.094378 0.000000
# 6 0.000000 0.000000 0.000000 0.000000 0.000000 0.045825
#
#
# Mechanical properties :
#
#
# Convention : Reuss Voigt Hill
#
# Bulk Modulus (GPa) = 27.19268 41.77834 34.48551
# Shear Modulus (GPa) = 19.35001 24.85549 22.10275
#
# Velocity S-wave (km/s) = 3.25131 3.68493 3.47489
# Velocity P-wave (km/s) = 5.38054 6.39755 5.91096
#
# Compressibility (1/GPa) = 0.03677460
#
# Stress axis : x y z
#
# Youngs Moduli (GPa) = 41.85288 89.85445 53.88156
#
# Poissons Ratio (x) = 0.10194 -0.04399
# Poissons Ratio (y) = 0.04748 0.43565
# Poissons Ratio (z) = -0.03417 0.72650
#
# Static dielectric constant tensor:
#      x y z
#    x 1.662810 0.000000 0.000000 
#    y 0.000000 1.655560 0.000000 
#    z 0.000000 0.000000 1.645720 
# 
# From -- ./inp_files/28486.got.cif
#   From: 2010.05.17/outbox.cif.g08.bks.cpg/sg42_15_cif.got.tgz:28486.got - 2010.06.03 19:03:34.
