data_PCOD9368531
_publ_section_title
;
Structure prediction by ZEFSAII (Michael W. Deem and Ramdas Pophale) SiO2 
 PCOD9368531
Probable space group: F M M 2
;
_chemical_formula_sum "Si O2"
_cell_formula_units_Z 112
_cell_length_a 26.237443
_cell_length_b 15.415034
_cell_length_c 14.084158
_cell_angle_alpha 90.000000
_cell_angle_beta 90.000000
_cell_angle_gamma 90.000000
_cell_volume 5696.352856
_symmetry_space_group_name_H-M "F M M 2"
_symmetry_group_IT_number 42
_symmetry_cell_setting 'orthorhombic'
loop_
_space_group_symop_operation_xyz
x,y,z
-x,-y,z
-x,y,z
x,-y,z
x,1/2+y,1/2+z
-x,1/2-y,1/2+z
-x,1/2+y,1/2+z
x,1/2-y,1/2+z
1/2+x,y,1/2+z
1/2-x,-y,1/2+z
1/2-x,y,1/2+z
1/2+x,-y,1/2+z
1/2+x,1/2+y,z
1/2-x,1/2-y,z
1/2-x,1/2+y,z
1/2+x,1/2-y,z
loop_
_atom_site_type_symbol
_atom_site_label
_atom_site_fract_x
_atom_site_fract_y
_atom_site_fract_z
Si Si1 0.694268 0.262827 0.465340
Si Si2 0.160507 0.099989 0.320604
Si Si3 0.093789 0.782195 0.592473
Si Si4 0.387858 0.903273 0.629831
Si Si5 0.440584 0.397810 0.763516
Si Si6 0.555609 0.600118 0.427628
Si Si7 0.644691 0.094230 0.413190
O O1 0.750000 0.250000 0.507935
O O2 0.693175 0.340240 0.389094
O O3 0.650195 0.278297 0.544142
O O4 0.679753 0.177544 0.404284
O O5 0.155476 0.116364 0.208534
O O6 0.102110 0.113200 0.356388
O O7 0.174460 0.000000 0.335010
O O8 0.078645 0.683838 0.620467
O O9 0.088098 0.840957 0.685202
O O10 0.061059 0.830917 0.512028
O O11 0.364733 0.911484 0.525329
O O12 0.409410 0.000000 0.654116
O O13 0.500000 0.372602 0.771659
O O14 0.439300 0.500000 0.737417
O O15 0.408974 0.389154 0.860765
O O16 0.500000 0.608799 0.382554
O O17 0.559856 0.500000 0.463757
O O18 0.663944 0.000000 0.379309
#
# Coordination Sequence:
#
# PCOD9368531 Si02
#       7
#    16  16  16  16  16  16  16
#     4  10  21  37  57  82 113 150 187 230 284 337
#     4   9  18  34  56  80 106 140 185 234 283 339
#     4  10  19  33  54  81 110 142 182 229 280 336
#     4   9  18  35  54  71 102 145 183 226 278 328
#     4  10  20  36  60  87 114 147 188 237 291 341
#     4   9  17  31  52  78 107 138 176 229 290 342
#     4   9  19  37  57  78 109 147 189 235 280 334
#
# _framework density 19.661704
#
# number of rings (size 3 to 8) (size 9 to 14) (size 15 to 20)
#    0.000    2.571    0.000    1.714    0.000    2.286 
#    0.000   22.143    0.000   14.571    0.000    0.000 
#    0.000    0.000    0.000    0.000    0.000    0.000 
#
# Total GULP energy -155908.758341 kJ/mol
# GULP energy per Si atom -5568.169941 kJ/mol
# Density = 1.961695 g / cm^3
# Si number density = 19.661704 Si / 1000 Ang^3
#
#
#
# Elastic Constant Matrix: (Units=GPa)
#
#
# Indices 1 2 3 4 5 6 
#
# 1 89.1525 25.6426 16.6476 0.0000 0.0000 0.0000
# 2 25.6426 90.5315 28.2634 0.0000 0.0000 0.0000
# 3 16.6476 28.2634 85.1952 0.0000 0.0000 0.0000
# 4 0.0000 0.0000 0.0000 20.5751 0.0000 0.0000
# 5 0.0000 0.0000 0.0000 0.0000 8.5201 0.0000
# 6 0.0000 0.0000 0.0000 0.0000 0.0000 8.5415
#
#
#
# Elastic Compliance Matrix: (Units=1/GPa)
#
#
# Indices 1 2 3 4 5 6 
#
# 1 0.012359 -0.003064 -0.001399 0.000000 0.000000 0.000000
# 2 -0.003064 0.013082 -0.003741 0.000000 0.000000 0.000000
# 3 -0.001399 -0.003741 0.013252 0.000000 0.000000 0.000000
# 4 0.000000 0.000000 0.000000 0.048603 0.000000 0.000000
# 5 0.000000 0.000000 0.000000 0.000000 0.117369 0.000000
# 6 0.000000 0.000000 0.000000 0.000000 0.000000 0.117076
#
#
# Mechanical properties :
#
#
# Convention : Reuss Voigt Hill
#
# Bulk Modulus (GPa) = 44.87201 45.10960 44.99080
# Shear Modulus (GPa) = 14.46856 20.48237 17.47546
#
# Velocity S-wave (km/s) = 2.71564 3.23110 2.98452
# Velocity P-wave (km/s) = 5.71879 6.07558 5.89988
#
# Compressibility (1/GPa) = 0.02228561
#
# Stress axis : x y z
#
# Youngs Moduli (GPa) = 80.91143 76.44262 75.45949
#
# Poissons Ratio (x) = 0.23422 0.10553
# Poissons Ratio (y) = 0.24792 0.28230
# Poissons Ratio (z) = 0.11316 0.28598
#
# Static dielectric constant tensor:
#      x y z
#    x 1.680120 0.000000 0.000000 
#    y 0.000000 1.767090 0.000000 
#    z 0.000000 0.000000 1.690200 
# 
# From -- ./inp_files/17057.got.cif
#   From: 2010.05.17/outbox.cif.g08.bks.cpg/sg42_9_cif.got.tgz:17057.got - 2010.06.03 19:03:34.
