data_PCOD9368414
_publ_section_title
;
Structure prediction by ZEFSAII (Michael W. Deem and Ramdas Pophale) SiO2 
 PCOD9368414
Probable space group: F M M 2
;
_chemical_formula_sum "Si O2"
_cell_formula_units_Z 112
_cell_length_a 14.331593
_cell_length_b 13.872496
_cell_length_c 30.252990
_cell_angle_alpha 90.000000
_cell_angle_beta 90.000000
_cell_angle_gamma 90.000000
_cell_volume 6014.747195
_symmetry_space_group_name_H-M "F M M 2"
_symmetry_group_IT_number 42
_symmetry_cell_setting 'orthorhombic'
loop_
_space_group_symop_operation_xyz
x,y,z
-x,-y,z
-x,y,z
x,-y,z
x,1/2+y,1/2+z
-x,1/2-y,1/2+z
-x,1/2+y,1/2+z
x,1/2-y,1/2+z
1/2+x,y,1/2+z
1/2-x,-y,1/2+z
1/2-x,y,1/2+z
1/2+x,-y,1/2+z
1/2+x,1/2+y,z
1/2-x,1/2-y,z
1/2-x,1/2+y,z
1/2+x,1/2-y,z
loop_
_atom_site_type_symbol
_atom_site_label
_atom_site_fract_x
_atom_site_fract_y
_atom_site_fract_z
Si Si1 0.108066 0.697930 0.696640
Si Si2 0.107436 0.883159 0.468267
Si Si3 0.791864 0.885553 0.282462
Si Si4 0.888030 0.207070 0.096081
Si Si5 0.109713 0.616766 0.870161
Si Si6 0.788638 0.614332 0.057704
Si Si7 0.895016 0.890332 0.741659
O O1 0.165626 0.653997 0.736887
O O2 0.132961 0.674628 0.646509
O O3 0.115868 0.813050 0.703028
O O4 0.000000 0.670614 0.703353
O O5 0.136547 0.848830 0.419333
O O6 0.175683 0.859954 0.508392
O O7 0.000000 0.851478 0.477024
O O8 0.104185 0.000000 0.466351
O O9 0.835450 0.846318 0.327501
O O10 0.681657 0.869497 0.278556
O O11 0.809120 0.000000 0.282010
O O12 0.851942 0.316611 0.088681
O O13 0.819004 0.143909 0.065640
O O14 0.000000 0.199895 0.088830
O O15 0.120208 0.500000 0.870647
O O16 0.000000 0.636568 0.864359
O O17 0.801922 0.500000 0.064936
O O18 0.000000 0.880682 0.758916
O O19 0.881370 0.000000 0.726316
#
# Coordination Sequence:
#
# PCOD9368414 Si02
#       7
#    16  16  16  16  16  16  16
#     4  10  21  36  52  72 104 141 176 218 266 318
#     4   8  14  28  53  82 109 135 171 226 281 325
#     4  10  19  30  52  80 108 141 174 213 263 322
#     4  10  23  39  55  80 114 150 186 231 282 331
#     4   8  14  26  47  79 112 137 169 216 269 322
#     4  10  21  36  59  85 108 143 189 233 280 336
#     4   9  19  34  51  70  96 139 187 225 260 300
#
# _framework density 18.620899999999999
#
# number of rings (size 3 to 8) (size 9 to 14) (size 15 to 20)
#    0.000    2.714    0.000    2.143    4.000    3.143 
#    0.000    2.857    6.286    0.857    0.000    4.000 
#    0.000    0.000    0.000    0.000    0.000    0.000 
#
# Total GULP energy -155972.042333 kJ/mol
# GULP energy per Si atom -5570.430083 kJ/mol
# Density = 1.857852 g / cm^3
# Si number density = 18.620900 Si / 1000 Ang^3
#
#
#
# Elastic Constant Matrix: (Units=GPa)
#
#
# Indices 1 2 3 4 5 6 
#
# 1 93.7521 17.4287 78.3741 0.0000 0.0000 0.0000
# 2 17.4287 37.5994 23.8764 0.0000 0.0000 0.0000
# 3 78.3741 23.8764 131.7779 0.0000 0.0000 0.0000
# 4 0.0000 0.0000 0.0000 17.0803 0.0000 0.0000
# 5 0.0000 0.0000 0.0000 0.0000 23.3361 0.0000
# 6 0.0000 0.0000 0.0000 0.0000 0.0000 20.8958
#
#
#
# Elastic Compliance Matrix: (Units=1/GPa)
#
#
# Indices 1 2 3 4 5 6 
#
# 1 0.021356 -0.002072 -0.012326 0.000000 0.000000 0.000000
# 2 -0.002072 0.030255 -0.004250 0.000000 0.000000 0.000000
# 3 -0.012326 -0.004250 0.015689 0.000000 0.000000 0.000000
# 4 0.000000 0.000000 0.000000 0.058547 0.000000 0.000000
# 5 0.000000 0.000000 0.000000 0.000000 0.042852 0.000000
# 6 0.000000 0.000000 0.000000 0.000000 0.000000 0.047856
#
#
# Mechanical properties :
#
#
# Convention : Reuss Voigt Hill
#
# Bulk Modulus (GPa) = 33.32734 55.83198 44.57966
# Shear Modulus (GPa) = 18.95006 21.82578 20.38792
#
# Velocity S-wave (km/s) = 3.19357 3.42733 3.31251
# Velocity P-wave (km/s) = 5.61562 6.76097 6.21473
#
# Compressibility (1/GPa) = 0.03000540
#
# Stress axis : x y z
#
# Youngs Moduli (GPa) = 46.82626 33.05225 63.73848
#
# Poissons Ratio (x) = 0.06848 0.78562
# Poissons Ratio (y) = 0.09702 0.27086
# Poissons Ratio (z) = 0.57716 0.14046
#
# Static dielectric constant tensor:
#      x y z
#    x 1.669650 0.000000 0.000000 
#    y 0.000000 1.668170 0.000000 
#    z 0.000000 0.000000 1.655120 
# 
# From -- ./inp_files/32591.got.cif
#   From: 2010.05.17/outbox.cif.g08.bks.cpg/sg42_17_cif.got.tgz:32591.got - 2010.06.03 19:03:34.
