data_PCOD9368146
_publ_section_title
;
Structure prediction by ZEFSAII (Michael W. Deem and Ramdas Pophale) SiO2 
 PCOD9368146
Probable space group: F M M 2
;
_chemical_formula_sum "Si O2"
_cell_formula_units_Z 80
_cell_length_a 14.987244
_cell_length_b 8.599129
_cell_length_c 31.224127
_cell_angle_alpha 90.000000
_cell_angle_beta 90.000000
_cell_angle_gamma 90.000000
_cell_volume 4024.079450
_symmetry_space_group_name_H-M "F M M 2"
_symmetry_group_IT_number 42
_symmetry_cell_setting 'orthorhombic'
loop_
_space_group_symop_operation_xyz
x,y,z
-x,-y,z
-x,y,z
x,-y,z
x,1/2+y,1/2+z
-x,1/2-y,1/2+z
-x,1/2+y,1/2+z
x,1/2-y,1/2+z
1/2+x,y,1/2+z
1/2-x,-y,1/2+z
1/2-x,y,1/2+z
1/2+x,-y,1/2+z
1/2+x,1/2+y,z
1/2-x,1/2-y,z
1/2-x,1/2+y,z
1/2+x,1/2-y,z
loop_
_atom_site_type_symbol
_atom_site_label
_atom_site_fract_x
_atom_site_fract_y
_atom_site_fract_z
Si Si1 0.000000 0.687357 0.946780
Si Si2 0.851625 0.813451 0.691209
Si Si3 0.149642 0.686667 0.013692
Si Si4 0.648185 0.314665 0.103343
Si Si5 0.850089 0.812492 0.785645
Si Si6 0.000000 0.311932 0.351070
O O1 0.913512 0.733949 0.974508
O O2 0.000000 0.753598 0.899304
O O3 0.000000 0.500000 0.944369
O O4 0.750000 0.750000 0.692548
O O5 0.892861 0.743552 0.648036
O O6 0.887503 0.770874 0.738269
O O7 0.851220 0.000000 0.687189
O O8 0.152730 0.500000 0.016202
O O9 0.250000 0.750000 0.008339
O O10 0.111315 0.749931 0.058740
O O11 0.649332 0.500000 0.102579
O O12 0.750000 0.250000 0.103566
O O13 0.750000 0.750000 0.790047
O O14 0.914009 0.759715 0.823755
O O15 0.846318 0.000000 0.786411
O O16 0.000000 0.500000 0.351334
#
# Coordination Sequence:
#
# PCOD9368146 Si02
#       6
#     8  16  16  16  16   8
#     4  10  24  42  59  80 107 139 178 225 275 326
#     4   9  15  26  46  73 106 142 179 216 258 309
#     4  10  20  37  58  81 109 142 180 220 266 319
#     4  10  17  27  47  77 110 143 179 216 260 312
#     4   9  19  35  56  81 109 143 181 220 264 317
#     4  10  22  40  59  80 107 139 178 225 275 324
#
# _framework density 19.880324000000002
#
# number of rings (size 3 to 8) (size 9 to 14) (size 15 to 20)
#    0.000    2.400    0.000    5.400    0.000    4.000 
#    0.000    5.000    0.000    3.600    0.000    0.000 
#    0.000    0.000    0.000    0.000    0.000    0.000 
#
# Total GULP energy -111597.309126 kJ/mol
# GULP energy per Si atom -5579.865456 kJ/mol
# Density = 1.983508 g / cm^3
# Si number density = 19.880324 Si / 1000 Ang^3
#
#
#
# Elastic Constant Matrix: (Units=GPa)
#
#
# Indices 1 2 3 4 5 6 
#
# 1 98.2255 24.9379 84.0711 0.0000 0.0000 0.0000
# 2 24.9379 71.9396 58.1316 0.0000 0.0000 0.0000
# 3 84.0711 58.1316 243.1998 0.0000 0.0000 0.0000
# 4 0.0000 0.0000 0.0000 36.5029 0.0000 0.0000
# 5 0.0000 0.0000 0.0000 0.0000 67.0679 0.0000
# 6 0.0000 0.0000 0.0000 0.0000 0.0000 11.5892
#
#
#
# Elastic Compliance Matrix: (Units=1/GPa)
#
#
# Indices 1 2 3 4 5 6 
#
# 1 0.014544 -0.001213 -0.004737 0.000000 0.000000 0.000000
# 2 -0.001213 0.017329 -0.003723 0.000000 0.000000 0.000000
# 3 -0.004737 -0.003723 0.006639 0.000000 0.000000 0.000000
# 4 0.000000 0.000000 0.000000 0.027395 0.000000 0.000000
# 5 0.000000 0.000000 0.000000 0.000000 0.014910 0.000000
# 6 0.000000 0.000000 0.000000 0.000000 0.000000 0.086287
#
#
# Mechanical properties :
#
#
# Convention : Reuss Voigt Hill
#
# Bulk Modulus (GPa) = 52.17824 83.07180 67.62502
# Shear Modulus (GPa) = 25.92815 39.44696 32.68755
#
# Velocity S-wave (km/s) = 3.61531 4.45929 4.05929
# Velocity P-wave (km/s) = 6.61290 8.26985 7.48735
#
# Compressibility (1/GPa) = 0.01916508
#
# Stress axis : x y z
#
# Youngs Moduli (GPa) = 68.75919 57.70546 150.61637
#
# Poissons Ratio (x) = 0.07002 0.71354
# Poissons Ratio (y) = 0.08343 0.56071
# Poissons Ratio (z) = 0.32575 0.21482
#
# Static dielectric constant tensor:
#      x y z
#    x 1.508120 0.000000 0.000000 
#    y 0.000000 1.669730 0.000000 
#    z 0.000000 0.000000 1.728940 
# 
# From -- ./inp_files/32775.got.cif
#   From: 2010.05.17/outbox.cif.g08.bks.cpg/sg42_17_cif.got.tgz:32775.got - 2010.06.03 19:03:34.
