data_PCOD9368173
_publ_section_title
;
Structure prediction by ZEFSAII (Michael W. Deem and Ramdas Pophale) SiO2 
 PCOD9368173
Probable space group: F M M 2
;
_chemical_formula_sum "Si O2"
_cell_formula_units_Z 72
_cell_length_a 13.731817
_cell_length_b 21.406012
_cell_length_c 8.628243
_cell_angle_alpha 90.000000
_cell_angle_beta 90.000000
_cell_angle_gamma 90.000000
_cell_volume 2536.215424
_symmetry_space_group_name_H-M "F M M 2"
_symmetry_group_IT_number 42
_symmetry_cell_setting 'orthorhombic'
loop_
_space_group_symop_operation_xyz
x,y,z
-x,-y,z
-x,y,z
x,-y,z
x,1/2+y,1/2+z
-x,1/2-y,1/2+z
-x,1/2+y,1/2+z
x,1/2-y,1/2+z
1/2+x,y,1/2+z
1/2-x,-y,1/2+z
1/2-x,y,1/2+z
1/2+x,-y,1/2+z
1/2+x,1/2+y,z
1/2-x,1/2-y,z
1/2-x,1/2+y,z
1/2+x,1/2-y,z
loop_
_atom_site_type_symbol
_atom_site_label
_atom_site_fract_x
_atom_site_fract_y
_atom_site_fract_z
Si Si1 0.381742 0.925966 0.180420
Si Si2 0.609696 0.883925 0.512180
Si Si3 0.118258 0.574034 0.843941
Si Si4 0.000000 0.250000 0.762180
Si Si5 0.362969 0.737752 0.512180
O O1 0.500000 0.920132 0.181488
O O2 0.345209 0.902055 0.347600
O O3 0.361223 0.000000 0.178941
O O4 0.347239 0.900208 0.012180
O O5 0.500000 0.912128 0.512180
O O6 0.654791 0.902055 0.676761
O O7 0.595487 0.809289 0.512180
O O8 0.138777 0.500000 0.845420
O O9 0.000000 0.579868 0.842872
O O10 0.085830 0.212413 0.665184
O O11 0.085830 0.287587 0.859177
O O12 0.250000 0.750000 0.512180
#
# Coordination Sequence:
#
# PCOD9368173 Si02
#       5
#    16  16  16   8  16
#     4   8  14  25  45  80 130 176 215 269 335 407
#     4  10  17  31  53  87 129 176 227 276 341 413
#     4   8  14  25  45  80 130 176 215 269 335 407
#     4  10  22  46  68  92 128 178 218 288 358 410
#     4  11  23  43  68  97 133 179 233 291 356 413
#
# _framework density 28.388756000000001
#
# number of rings (size 3 to 8) (size 9 to 14) (size 15 to 20)
#    0.000    2.667    2.222    2.667    0.000    2.667 
#    8.000    0.000    0.000    0.000    0.000    0.000 
#    0.000   42.667    0.000    5.333    0.000    7.111 
#
# Total GULP energy -100258.334594 kJ/mol
# GULP energy per Si atom -5569.907477 kJ/mol
# Density = 2.832414 g / cm^3
# Si number density = 28.388756 Si / 1000 Ang^3
#
#
#
# Elastic Constant Matrix: (Units=GPa)
#
#
# Indices 1 2 3 4 5 6 
#
# 1 223.2010 -19.5580 62.9472 0.0000 0.0000 0.0000
# 2 -19.5580 76.3019 44.4192 0.0000 0.0000 0.0000
# 3 62.9472 44.4192 293.3392 0.0000 0.0000 0.0000
# 4 0.0000 0.0000 0.0000 47.8461 0.0000 0.0000
# 5 0.0000 0.0000 0.0000 0.0000 73.4956 0.0000
# 6 0.0000 0.0000 0.0000 0.0000 0.0000 -8.3113
#
#
#
# Elastic Compliance Matrix: (Units=1/GPa)
#
#
# Indices 1 2 3 4 5 6 
#
# 1 0.005063 0.002117 -0.001407 0.000000 0.000000 0.000000
# 2 0.002117 0.015258 -0.002765 0.000000 0.000000 0.000000
# 3 -0.001407 -0.002765 0.004130 0.000000 0.000000 0.000000
# 4 0.000000 0.000000 0.000000 0.020900 0.000000 0.000000
# 5 0.000000 0.000000 0.000000 0.000000 0.013606 0.000000
# 6 0.000000 0.000000 0.000000 0.000000 0.000000 -0.120318
#
#
# Mechanical properties :
#
#
# Convention : Reuss Voigt Hill
#
# Bulk Modulus (GPa) = 49.16378 85.38430 67.27404
# Shear Modulus (GPa) = -99.06548 56.27498 -21.39525
#
# Velocity S-wave (km/s) = -5.91369 4.45713 -2.74825
# Velocity P-wave (km/s) = 5.41049 7.52530 3.69843
#
# Compressibility (1/GPa) = 0.02034018
#
# Stress axis : x y z
#
# Youngs Moduli (GPa) = 197.53065 65.54013 242.15661
#
# Poissons Ratio (x) = -0.13873 0.34068
# Poissons Ratio (y) = -0.41810 0.66948
# Poissons Ratio (z) = 0.27790 0.18119
#
# Static dielectric constant tensor:
#      x y z
#    x 1.992750 0.000000 0.000000 
#    y 0.000000 2.244250 0.000000 
#    z 0.000000 0.000000 2.755560 
# 
# From -- ./inp_files/2831.got.cif
#   From: 2010.05.17/outbox.cif.g08.bks.cpg/sg42_2_cif.got.tgz:2831.got - 2010.06.03 19:03:34.
