data_PCOD9368851
_publ_section_title
;
Structure prediction by ZEFSAII (Michael W. Deem and Ramdas Pophale) SiO2 
 PCOD9368851
Probable space group: F M M 2
;
_chemical_formula_sum "Si O2"
_cell_formula_units_Z 128
_cell_length_a 25.699140
_cell_length_b 19.917833
_cell_length_c 14.301343
_cell_angle_alpha 90.000000
_cell_angle_beta 90.000000
_cell_angle_gamma 90.000000
_cell_volume 7320.445299
_symmetry_space_group_name_H-M "F M M 2"
_symmetry_group_IT_number 42
_symmetry_cell_setting 'orthorhombic'
loop_
_space_group_symop_operation_xyz
x,y,z
-x,-y,z
-x,y,z
x,-y,z
x,1/2+y,1/2+z
-x,1/2-y,1/2+z
-x,1/2+y,1/2+z
x,1/2-y,1/2+z
1/2+x,y,1/2+z
1/2-x,-y,1/2+z
1/2-x,y,1/2+z
1/2+x,-y,1/2+z
1/2+x,1/2+y,z
1/2-x,1/2-y,z
1/2-x,1/2+y,z
1/2+x,1/2-y,z
loop_
_atom_site_type_symbol
_atom_site_label
_atom_site_fract_x
_atom_site_fract_y
_atom_site_fract_z
Si Si1 0.269352 0.327519 0.745800
Si Si2 0.824180 0.131433 0.379724
Si Si3 0.056727 0.788293 0.176158
Si Si4 0.231566 0.581693 0.061556
Si Si5 0.099105 0.425877 0.733802
Si Si6 0.847574 0.924021 0.035947
Si Si7 0.440660 0.834011 0.469850
Si Si8 0.370654 0.730700 0.823467
O O1 0.250000 0.250000 0.724218
O O2 0.225889 0.361291 0.811839
O O3 0.277057 0.374047 0.654719
O O4 0.323434 0.319155 0.801755
O O5 0.807881 0.101714 0.479084
O O6 0.867842 0.088012 0.326602
O O7 0.847218 0.206800 0.381236
O O8 0.060104 0.865378 0.212219
O O9 0.106204 0.755003 0.224565
O O10 0.000000 0.760283 0.201700
O O11 0.060833 0.789585 0.064320
O O12 0.231381 0.500000 0.077646
O O13 0.289392 0.602665 0.025754
O O14 0.075510 0.500000 0.734296
O O15 0.139283 0.422859 0.646576
O O16 0.846615 0.000000 0.002724
O O17 0.895708 0.888120 0.987732
O O18 0.500000 0.858727 0.460852
O O19 0.420094 0.795624 0.379900
#
# Coordination Sequence:
#
# PCOD9368851 Si02
#       8
#    16  16  16  16  16  16  16  16
#     4  10  22  36  53  81 109 148 185 227 271 325
#     4  10  20  34  50  78 106 141 184 218 265 325
#     4   9  19  33  51  77 104 131 172 221 268 322
#     4  11  22  34  56  82 112 150 185 226 272 326
#     4   9  16  30  50  70 102 134 163 210 266 317
#     4   9  18  32  51  74 102 137 169 214 268 313
#     4  10  20  34  55  79 105 137 176 223 272 324
#     4  10  21  35  53  75 107 144 178 221 273 314
#
# _framework density 17.485275000000001
#
# number of rings (size 3 to 8) (size 9 to 14) (size 15 to 20)
#    0.000    2.250    1.250    1.500    3.500    2.500 
#    0.000    3.125    0.000    0.000    0.000    0.000 
#    0.000    2.250    0.000    0.000    0.000    0.000 
#
# Total GULP energy -178228.358680 kJ/mol
# GULP energy per Si atom -5569.636209 kJ/mol
# Density = 1.744548 g / cm^3
# Si number density = 17.485275 Si / 1000 Ang^3
#
#
#
# Elastic Constant Matrix: (Units=GPa)
#
#
# Indices 1 2 3 4 5 6 
#
# 1 65.1737 2.3090 8.9901 0.0000 0.0000 0.0000
# 2 2.3090 32.4475 20.6685 0.0000 0.0000 0.0000
# 3 8.9901 20.6685 60.5645 0.0000 0.0000 0.0000
# 4 0.0000 0.0000 0.0000 12.0398 0.0000 0.0000
# 5 0.0000 0.0000 0.0000 0.0000 11.5735 0.0000
# 6 0.0000 0.0000 0.0000 0.0000 0.0000 12.2303
#
#
#
# Elastic Compliance Matrix: (Units=1/GPa)
#
#
# Indices 1 2 3 4 5 6 
#
# 1 0.015670 0.000468 -0.002486 0.000000 0.000000 0.000000
# 2 0.000468 0.039393 -0.013513 0.000000 0.000000 0.000000
# 3 -0.002486 -0.013513 0.021492 0.000000 0.000000 0.000000
# 4 0.000000 0.000000 0.000000 0.083058 0.000000 0.000000
# 5 0.000000 0.000000 0.000000 0.000000 0.086405 0.000000
# 6 0.000000 0.000000 0.000000 0.000000 0.000000 0.081764
#
#
# Mechanical properties :
#
#
# Convention : Reuss Voigt Hill
#
# Bulk Modulus (GPa) = 21.98095 24.68010 23.33052
# Shear Modulus (GPa) = 13.36872 15.58325 14.47599
#
# Velocity S-wave (km/s) = 2.76809 2.98857 2.88044
# Velocity P-wave (km/s) = 4.77649 5.10433 4.94313
#
# Compressibility (1/GPa) = 0.04549395
#
# Stress axis : x y z
#
# Youngs Moduli (GPa) = 63.81653 25.38505 46.52922
#
# Poissons Ratio (x) = -0.01189 0.11566
# Poissons Ratio (y) = -0.02989 0.62875
# Poissons Ratio (z) = 0.15864 0.34303
#
# Static dielectric constant tensor:
#      x y z
#    x 1.591110 0.000000 0.000000 
#    y 0.000000 1.621800 0.000000 
#    z 0.000000 0.000000 1.596920 
# 
# From -- ./inp_files/10810.got.cif
#   From: 2010.05.17/outbox.cif.g08.bks.cpg/sg42_6_cif.got.tgz:10810.got - 2010.06.03 19:03:34.
