data_PCOD9368949
_publ_section_title
;
Structure prediction by ZEFSAII (Michael W. Deem and Ramdas Pophale) SiO2 
 PCOD9368949
Probable space group: F M M 2
;
_chemical_formula_sum "Si O2"
_cell_formula_units_Z 96
_cell_length_a 8.697235
_cell_length_b 18.966679
_cell_length_c 32.840033
_cell_angle_alpha 90.000000
_cell_angle_beta 90.000000
_cell_angle_gamma 90.000000
_cell_volume 5417.215144
_symmetry_space_group_name_H-M "F M M 2"
_symmetry_group_IT_number 42
_symmetry_cell_setting 'orthorhombic'
loop_
_space_group_symop_operation_xyz
x,y,z
-x,-y,z
-x,y,z
x,-y,z
x,1/2+y,1/2+z
-x,1/2-y,1/2+z
-x,1/2+y,1/2+z
x,1/2-y,1/2+z
1/2+x,y,1/2+z
1/2-x,-y,1/2+z
1/2-x,y,1/2+z
1/2+x,-y,1/2+z
1/2+x,1/2+y,z
1/2-x,1/2-y,z
1/2-x,1/2+y,z
1/2+x,1/2-y,z
loop_
_atom_site_type_symbol
_atom_site_label
_atom_site_fract_x
_atom_site_fract_y
_atom_site_fract_z
Si Si1 0.182824 0.328671 0.049150
Si Si2 0.314874 0.671208 0.963486
Si Si3 0.313076 0.082941 0.712722
Si Si4 0.818676 0.085572 0.300660
Si Si5 0.684266 0.415573 0.123413
Si Si6 0.684853 0.581143 0.885662
O O1 0.250000 0.250000 0.054763
O O2 0.232276 0.376168 0.087043
O O3 0.000000 0.324443 0.045668
O O4 0.252499 0.356709 0.006618
O O5 0.500000 0.673081 0.964950
O O6 0.250000 0.750000 0.959194
O O7 0.264681 0.625572 0.924676
O O8 0.500000 0.085785 0.713423
O O9 0.260279 0.112233 0.756501
O O10 0.265088 0.110913 0.668510
O O11 0.272259 0.000000 0.712304
O O12 0.739157 0.110113 0.341998
O O13 0.000000 0.100389 0.303560
O O14 0.801552 0.000000 0.299558
O O15 0.500000 0.404604 0.119982
O O16 0.709854 0.500000 0.121465
O O17 0.500000 0.580450 0.885609
O O18 0.738735 0.500000 0.889254
#
# Coordination Sequence:
#
# PCOD9368949 Si02
#       6
#    16  16  16  16  16  16
#     4  11  22  36  53  72  96 126 163 203 244 294
#     4  10  20  35  53  70  91 123 161 197 237 289
#     4   7  11  22  42  68  96 126 158 189 225 275
#     4   8  13  23  42  68  96 125 157 191 227 271
#     4   9  17  31  52  76 102 131 162 198 242 288
#     4   9  18  31  47  70  98 125 154 191 236 282
#
# _framework density 17.721281999999999
#
# number of rings (size 3 to 8) (size 9 to 14) (size 15 to 20)
#    0.000    3.000    0.000    5.000    0.000    2.333 
#    0.000    2.500    0.000    4.000    0.000    2.333 
#    0.000    0.000    0.000    0.000    0.000    0.000 
#
# Total GULP energy -133622.222528 kJ/mol
# GULP energy per Si atom -5567.592605 kJ/mol
# Density = 1.768095 g / cm^3
# Si number density = 17.721282 Si / 1000 Ang^3
#
#
#
# Elastic Constant Matrix: (Units=GPa)
#
#
# Indices 1 2 3 4 5 6 
#
# 1 43.7827 18.4048 50.0564 0.0000 0.0000 0.0000
# 2 18.4048 20.4531 49.5972 0.0000 0.0000 0.0000
# 3 50.0564 49.5972 215.1560 0.0000 0.0000 0.0000
# 4 0.0000 0.0000 0.0000 -24.4220 0.0000 0.0000
# 5 0.0000 0.0000 0.0000 0.0000 26.8029 0.0000
# 6 0.0000 0.0000 0.0000 0.0000 0.0000 17.9271
#
#
#
# Elastic Compliance Matrix: (Units=1/GPa)
#
#
# Indices 1 2 3 4 5 6 
#
# 1 0.037160 -0.028286 -0.002125 0.000000 0.000000 0.000000
# 2 -0.028286 0.132395 -0.023939 0.000000 0.000000 0.000000
# 3 -0.002125 -0.023939 0.010660 0.000000 0.000000 0.000000
# 4 0.000000 0.000000 0.000000 -0.040947 0.000000 0.000000
# 5 0.000000 0.000000 0.000000 0.000000 0.037309 0.000000
# 6 0.000000 0.000000 0.000000 0.000000 0.000000 0.055782
#
#
# Mechanical properties :
#
#
# Convention : Reuss Voigt Hill
#
# Bulk Modulus (GPa) = 13.98278 57.27875 35.63076
# Shear Modulus (GPa) = 13.70252 14.81716 14.25984
#
# Velocity S-wave (km/s) = 2.78371 2.89471 2.83975
# Velocity P-wave (km/s) = 4.27078 6.60035 5.55897
#
# Compressibility (1/GPa) = 0.07151655
#
# Stress axis : x y z
#
# Youngs Moduli (GPa) = 26.91069 7.55318 93.80488
#
# Poissons Ratio (x) = 0.21365 0.19933
# Poissons Ratio (y) = 0.76119 2.24555
# Poissons Ratio (z) = 0.05718 0.18081
#
# Static dielectric constant tensor:
#      x y z
#    x 1.599340 0.000000 0.000000 
#    y 0.000000 1.585670 0.000000 
#    z 0.000000 0.000000 1.652260 
# 
# From -- ./inp_files/31625.got.cif
#   From: 2010.05.17/outbox.cif.g08.bks.cpg/sg42_16_cif.got.tgz:31625.got - 2010.06.03 19:03:34.
