data_PCOD9368749
_publ_section_title
;
Structure prediction by ZEFSAII (Michael W. Deem and Ramdas Pophale) SiO2 
 PCOD9368749
Probable space group: F M M 2
;
_chemical_formula_sum "Si O2"
_cell_formula_units_Z 96
_cell_length_a 27.620475
_cell_length_b 19.853009
_cell_length_c 8.768405
_cell_angle_alpha 90.000000
_cell_angle_beta 90.000000
_cell_angle_gamma 90.000000
_cell_volume 4808.150837
_symmetry_space_group_name_H-M "F M M 2"
_symmetry_group_IT_number 42
_symmetry_cell_setting 'orthorhombic'
loop_
_space_group_symop_operation_xyz
x,y,z
-x,-y,z
-x,y,z
x,-y,z
x,1/2+y,1/2+z
-x,1/2-y,1/2+z
-x,1/2+y,1/2+z
x,1/2-y,1/2+z
1/2+x,y,1/2+z
1/2-x,-y,1/2+z
1/2-x,y,1/2+z
1/2+x,-y,1/2+z
1/2+x,1/2+y,z
1/2-x,1/2-y,z
1/2-x,1/2+y,z
1/2+x,1/2-y,z
loop_
_atom_site_type_symbol
_atom_site_label
_atom_site_fract_x
_atom_site_fract_y
_atom_site_fract_z
Si Si1 0.272264 0.421657 0.872660
Si Si2 0.580205 0.342973 0.167922
Si Si3 0.397214 0.776867 0.950401
Si Si4 0.179787 0.078381 0.201446
Si Si5 0.446962 0.579583 0.889313
Si Si6 0.141561 0.662001 0.242672
O O1 0.279123 0.500000 0.826145
O O2 0.216540 0.405732 0.838146
O O3 0.308629 0.374637 0.779393
O O4 0.288275 0.416458 0.047811
O O5 0.576762 0.277010 0.060517
O O6 0.568212 0.319481 0.338615
O O7 0.634962 0.371639 0.184320
O O8 0.554555 0.399635 0.067620
O O9 0.367227 0.822731 0.066081
O O10 0.363899 0.731270 0.838996
O O11 0.163390 0.000000 0.214014
O O12 0.500000 0.599205 0.828128
O O13 0.440867 0.500000 0.874675
O O14 0.402806 0.616611 0.806092
#
# Coordination Sequence:
#
# PCOD9368749 Si02
#       6
#    16  16  16  16  16  16
#     4  10  20  34  53  77 107 144 187 231 276 327
#     4  10  19  38  56  78 113 146 181 231 274 318
#     4   9  20  35  57  78 108 150 187 222 270 329
#     4  10  20  34  53  77 107 144 187 231 276 327
#     4  10  20  37  63  88 109 142 182 221 279 339
#     4  10  19  38  56  78 113 146 181 231 274 318
#
# _framework density 19.966096
#
# number of rings (size 3 to 8) (size 9 to 14) (size 15 to 20)
#    0.000    2.167    3.333    1.000    2.333    0.000 
#    0.000   21.667    0.000    2.000    0.000    0.000 
#    0.000    0.000    0.000    0.000    0.000    0.000 
#
# Total GULP energy -133830.703514 kJ/mol
# GULP energy per Si atom -5576.279313 kJ/mol
# Density = 1.992065 g / cm^3
# Si number density = 19.966096 Si / 1000 Ang^3
#
#
#
# Elastic Constant Matrix: (Units=GPa)
#
#
# Indices 1 2 3 4 5 6 
#
# 1 68.9346 32.2996 7.7966 0.0000 0.0000 0.0000
# 2 32.2996 60.7768 22.3508 0.0000 0.0000 0.0000
# 3 7.7966 22.3508 84.6985 0.0000 0.0000 0.0000
# 4 0.0000 0.0000 0.0000 22.2066 0.0000 0.0000
# 5 0.0000 0.0000 0.0000 0.0000 9.4893 0.0000
# 6 0.0000 0.0000 0.0000 0.0000 0.0000 -51.0648
#
#
#
# Elastic Compliance Matrix: (Units=1/GPa)
#
#
# Indices 1 2 3 4 5 6 
#
# 1 0.019398 -0.010690 0.001035 0.000000 0.000000 0.000000
# 2 -0.010690 0.024113 -0.005379 0.000000 0.000000 0.000000
# 3 0.001035 -0.005379 0.013131 0.000000 0.000000 0.000000
# 4 0.000000 0.000000 0.000000 0.045032 0.000000 0.000000
# 5 0.000000 0.000000 0.000000 0.000000 0.105381 0.000000
# 6 0.000000 0.000000 0.000000 0.000000 0.000000 -0.019583
#
#
# Mechanical properties :
#
#
# Convention : Reuss Voigt Hill
#
# Bulk Modulus (GPa) = 37.62992 37.70044 37.66518
# Shear Modulus (GPa) = 22.08508 6.25709 14.17108
#
# Velocity S-wave (km/s) = 3.32946 1.77219 2.66702
# Velocity P-wave (km/s) = 5.80243 4.80737 5.32818
#
# Compressibility (1/GPa) = 0.02657460
#
# Stress axis : x y z
#
# Youngs Moduli (GPa) = 51.55128 41.47164 76.15711
#
# Poissons Ratio (x) = 0.44332 -0.07884
# Poissons Ratio (y) = 0.55107 0.40965
# Poissons Ratio (z) = -0.05337 0.22308
#
# Static dielectric constant tensor:
#      x y z
#    x 1.697930 0.000000 0.000000 
#    y 0.000000 1.713630 0.000000 
#    z 0.000000 0.000000 1.734850 
# 
# From -- ./inp_files/4149.got.cif
#   From: 2010.05.17/outbox.cif.g08.bks.cpg/sg42_3_cif.got.tgz:4149.got - 2010.06.03 19:03:34.
