data_PCOD9368078
_publ_section_title
;
Structure prediction by ZEFSAII (Michael W. Deem and Ramdas Pophale) SiO2 
 PCOD9368078
Probable space group: A B A 2
;
_chemical_formula_sum "Si O2"
_cell_formula_units_Z 32
_cell_length_a 30.000000
_cell_length_b 12.000000
_cell_length_c 9.000000
_cell_angle_alpha 90.000000
_cell_angle_beta 90.000000
_cell_angle_gamma 90.000000
_cell_volume 3240.000000
_symmetry_space_group_name_H-M "A B A 2"
_symmetry_group_IT_number 41
_symmetry_cell_setting 'orthorhombic'
loop_
_space_group_symop_operation_xyz
x,y,z
-x,-y,z
1/2-x,y,1/2+z
1/2+x,-y,1/2+z
x,1/2+y,1/2+z
-x,1/2-y,1/2+z
1/2-x,1/2+y,z
1/2+x,1/2-y,z
loop_
_atom_site_type_symbol
_atom_site_label
_atom_site_fract_x
_atom_site_fract_y
_atom_site_fract_z
Si Si1 0.267583 0.272703 0.265840
Si Si2 0.094033 0.346142 0.132325
Si Si3 0.515630 0.114201 0.325595
Si Si4 0.696413 0.105804 0.055333
Si Si5 0.704222 0.354539 0.480584
Si Si6 0.452334 0.433060 0.338580
Si Si7 0.106559 0.647574 0.851075
Si Si8 0.459101 0.243047 0.089978
O O1 0.294861 0.341044 0.391178
O O2 0.227809 0.338921 0.181174
O O3 0.295542 0.224644 0.126660
O O4 0.243341 0.179940 0.367610
O O5 0.144512 0.383823 0.101188
O O6 0.096411 0.223804 0.207016
O O7 0.065288 0.406161 0.261573
O O8 0.065249 0.366663 0.984079
O O9 0.484867 0.151766 0.187790
O O10 0.514131 0.209888 0.448195
O O11 0.500000 0.000000 0.395212
O O12 0.710066 0.978107 0.041129
O O13 0.658522 0.351675 0.388017
O O14 0.500000 0.500000 0.355013
O O15 0.415292 0.528839 0.319187
O O16 0.452477 0.347434 0.200750
O O17 0.083350 0.692762 0.003620
#
# Coordination Sequence:
#
# PCOD9368078 Si02
#       8
#     8   8   8   8   8   8   8   8
#     4  10  24  42  67  93 127 166 211 259 319 378
#     4  11  22  39  63  93 126 163 208 259 308 371
#     4  11  23  41  64  91 126 167 210 257 311 370
#     4  11  22  42  66  94 126 165 209 261 312 379
#     4  11  22  42  66  95 127 168 209 257 324 376
#     4  12  24  42  66  90 126 173 211 259 321 372
#     4  11  24  41  63  95 131 165 211 265 310 378
#     4  11  25  41  63  93 126 167 215 259 311 374
#
# _framework density 9.8765429999999999
#
# number of rings (size 3 to 8) (size 9 to 14) (size 15 to 20)
#    0.000    1.000    2.500    5.250    1.750    1.000 
#    0.000    2.500    0.000    0.000    0.000    0.000 
#    0.000    0.000    0.000    0.000    0.000    0.000 
#
# Total GULP energy -178596.351348 kJ/mol
# GULP energy per Si atom -5581.135980 kJ/mol
# Density = 0.985406 g / cm^3
# Si number density = 9.876543 Si / 1000 Ang^3
#
#
#
# Elastic Constant Matrix: (Units=GPa)
#
#
# Indices 1 2 3 4 5 6 
#
# 1 60.4372 19.5442 -11.9633 0.0000 0.0000 0.0000
# 2 19.5442 68.0033 10.9056 0.0000 0.0000 0.0000
# 3 -11.9633 10.9056 63.3923 0.0000 0.0000 0.0000
# 4 0.0000 0.0000 0.0000 35.5419 0.0000 0.0000
# 5 0.0000 0.0000 0.0000 0.0000 27.3791 0.0000
# 6 0.0000 0.0000 0.0000 0.0000 0.0000 17.8729
#
#
#
# Elastic Compliance Matrix: (Units=1/GPa)
#
#
# Indices 1 2 3 4 5 6 
#
# 1 0.019561 -0.006390 0.004791 0.000000 0.000000 0.000000
# 2 -0.006390 0.017210 -0.004167 0.000000 0.000000 0.000000
# 3 0.004791 -0.004167 0.017396 0.000000 0.000000 0.000000
# 4 0.000000 0.000000 0.000000 0.028136 0.000000 0.000000
# 5 0.000000 0.000000 0.000000 0.000000 0.036524 0.000000
# 6 0.000000 0.000000 0.000000 0.000000 0.000000 0.055951
#
#
# Mechanical properties :
#
#
# Convention : Reuss Voigt Hill
#
# Bulk Modulus (GPa) = 23.45509 25.42285 24.43897
# Shear Modulus (GPa) = 24.93511 27.71521 26.32516
#
# Velocity S-wave (km/s) = 3.55680 3.74984 3.65459
# Velocity P-wave (km/s) = 5.36355 5.62553 5.49610
#
# Compressibility (1/GPa) = 0.04263467
#
# Stress axis : x y z
#
# Youngs Moduli (GPa) = 51.12248 58.10612 57.48543
#
# Poissons Ratio (x) = 0.37130 -0.27540
# Poissons Ratio (y) = 0.32668 0.23952
# Poissons Ratio (z) = -0.24492 0.24211
#
# Static dielectric constant tensor:
#      x y z
#    x 1.695710 0.000000 0.000000 
#    y 0.000000 1.713330 0.000000 
#    z 0.000000 0.000000 1.665580 
# 
# From -- ./inp_files/3969.got.cif
#   From: 2010.05.17/outbox.ucp.g08.bks.cvg/sg41_2_cif.got.tgz:3969.got - 2010.06.11 16:28:22.
