data_PCOD9368361
_publ_section_title
;
Structure prediction by ZEFSAII (Michael W. Deem and Ramdas Pophale) SiO2 
 PCOD9368361
Probable space group: F M M 2
;
_chemical_formula_sum "Si O2"
_cell_formula_units_Z 64
_cell_length_a 18.124038
_cell_length_b 21.745536
_cell_length_c 7.266037
_cell_angle_alpha 90.000000
_cell_angle_beta 90.000000
_cell_angle_gamma 90.000000
_cell_volume 2863.668129
_symmetry_space_group_name_H-M "F M M 2"
_symmetry_group_IT_number 42
_symmetry_cell_setting 'orthorhombic'
loop_
_space_group_symop_operation_xyz
x,y,z
-x,-y,z
-x,y,z
x,-y,z
x,1/2+y,1/2+z
-x,1/2-y,1/2+z
-x,1/2+y,1/2+z
x,1/2-y,1/2+z
1/2+x,y,1/2+z
1/2-x,-y,1/2+z
1/2-x,y,1/2+z
1/2+x,-y,1/2+z
1/2+x,1/2+y,z
1/2-x,1/2-y,z
1/2-x,1/2+y,z
1/2+x,1/2-y,z
loop_
_atom_site_type_symbol
_atom_site_label
_atom_site_fract_x
_atom_site_fract_y
_atom_site_fract_z
Si Si1 0.798169 0.811804 0.359340
Si Si2 0.342291 0.869888 0.218940
Si Si3 0.312144 0.500000 0.708936
Si Si4 0.641830 0.000000 0.633778
Si Si5 0.416193 0.634781 0.099364
O O1 0.750000 0.750000 0.355995
O O2 0.735841 0.863923 0.326826
O O3 0.837834 0.821672 0.554023
O O4 0.857930 0.821074 0.200454
O O5 0.401739 0.862192 0.379215
O O6 0.342861 0.936991 0.126639
O O7 0.223836 0.500000 0.716461
O O8 0.342539 0.500000 0.915422
O O9 0.600584 0.064612 0.665803
O O10 0.500000 0.650884 0.141821
#
# Coordination Sequence:
#
# PCOD9368361 Si02
#       5
#    16  16   8   8  16
#     4  12  24  41  71  97 128 183 242 283 326 410
#     4  11  22  40  69 100 131 177 232 285 343 407
#     4  10  18  34  63 103 129 166 230 291 325 407
#     4  10  19  36  67 103 142 178 224 285 356 419
#     4  11  25  43  67 106 148 181 223 292 366 418
#
# _framework density 22.348958
#
# number of rings (size 3 to 8) (size 9 to 14) (size 15 to 20)
#    0.000    1.000    5.000    2.625    0.000    2.000 
#    0.000    1.250    0.000    3.000    0.000    0.000 
#    0.000    0.000    0.000    0.000    0.000    0.000 
#
# Total GULP energy -89441.347410 kJ/mol
# GULP energy per Si atom -5590.084213 kJ/mol
# Density = 2.229809 g / cm^3
# Si number density = 22.348958 Si / 1000 Ang^3
#
#
#
# Elastic Constant Matrix: (Units=GPa)
#
#
# Indices 1 2 3 4 5 6 
#
# 1 98.7377 34.4350 19.0194 0.0000 0.0000 0.0000
# 2 34.4350 143.4776 45.6157 0.0000 0.0000 0.0000
# 3 19.0194 45.6157 88.7407 0.0003 0.0000 -0.0001
# 4 0.0000 0.0000 0.0003 28.0417 0.0000 0.0000
# 5 0.0000 0.0000 0.0000 0.0000 22.3923 0.0000
# 6 0.0000 0.0000 -0.0001 0.0000 0.0000 15.3614
#
#
#
# Elastic Compliance Matrix: (Units=1/GPa)
#
#
# Indices 1 2 3 4 5 6 
#
# 1 0.011161 -0.002293 -0.001214 0.000000 0.000000 0.000000
# 2 -0.002293 0.008802 -0.004033 0.000000 0.000000 0.000000
# 3 -0.001214 -0.004033 0.013602 0.000000 0.000000 0.000000
# 4 0.000000 0.000000 0.000000 0.035661 0.000000 0.000000
# 5 0.000000 0.000000 0.000000 0.000000 0.044658 0.000000
# 6 0.000000 0.000000 0.000000 0.000000 0.000000 0.065098
#
#
# Mechanical properties :
#
#
# Convention : Reuss Voigt Hill
#
# Bulk Modulus (GPa) = 54.09408 58.78848 56.44128
# Shear Modulus (GPa) = 24.97193 28.61813 26.79503
#
# Velocity S-wave (km/s) = 3.34633 3.58231 3.46633
# Velocity P-wave (km/s) = 6.25998 6.59337 6.42884
#
# Compressibility (1/GPa) = 0.01848631
#
# Stress axis : x y z
#
# Youngs Moduli (GPa) = 89.59559 113.60630 73.51802
#
# Poissons Ratio (x) = 0.26049 0.08921
# Poissons Ratio (y) = 0.20544 0.29652
# Poissons Ratio (z) = 0.10872 0.45820
#
# Static dielectric constant tensor:
#      x y z
#    x 1.740390 0.000000 0.000000 
#    y 0.000000 1.953490 0.000000 
#    z 0.000000 0.000000 1.860970 
# 
# From -- ./inp_files/3242.got.cif
#   From: 2010.05.17/outbox.cif.g08.bks.cpg/sg42_2_cif.got.tgz:3242.got - 2010.06.03 19:03:34.
