data_PCOD9368372
_publ_section_title
;
Structure prediction by ZEFSAII (Michael W. Deem and Ramdas Pophale) SiO2 
 PCOD9368372
Probable space group: F M M 2
;
_chemical_formula_sum "Si O2"
_cell_formula_units_Z 100
_cell_length_a 7.774420
_cell_length_b 30.106225
_cell_length_c 19.667411
_cell_angle_alpha 90.000000
_cell_angle_beta 90.000000
_cell_angle_gamma 90.000000
_cell_volume 4603.323494
_symmetry_space_group_name_H-M "F M M 2"
_symmetry_group_IT_number 42
_symmetry_cell_setting 'orthorhombic'
loop_
_space_group_symop_operation_xyz
x,y,z
-x,-y,z
-x,y,z
x,-y,z
x,1/2+y,1/2+z
-x,1/2-y,1/2+z
-x,1/2+y,1/2+z
x,1/2-y,1/2+z
1/2+x,y,1/2+z
1/2-x,-y,1/2+z
1/2-x,y,1/2+z
1/2+x,-y,1/2+z
1/2+x,1/2+y,z
1/2-x,1/2-y,z
1/2-x,1/2+y,z
1/2+x,1/2-y,z
loop_
_atom_site_type_symbol
_atom_site_label
_atom_site_fract_x
_atom_site_fract_y
_atom_site_fract_z
Si Si1 0.804256 0.369148 0.475210
Si Si2 0.206026 0.701193 0.581108
Si Si3 0.700731 0.667611 0.724803
Si Si4 0.803570 0.699892 0.869677
Si Si5 0.790458 0.448868 0.388433
Si Si6 0.194521 0.567540 0.732339
Si Si7 0.000000 0.000000 0.695144
O O1 0.725698 0.339525 0.535223
O O2 0.805578 0.335692 0.411249
O O3 0.727680 0.414601 0.445740
O O4 0.000000 0.379918 0.495807
O O5 0.250000 0.750000 0.553420
O O6 0.276376 0.695822 0.656797
O O7 0.000000 0.698016 0.582660
O O8 0.500000 0.661801 0.740130
O O9 0.784333 0.690814 0.789809
O O10 0.781925 0.619159 0.714405
O O11 0.750000 0.750000 0.884295
O O12 0.000000 0.692855 0.890224
O O13 0.749547 0.500000 0.403705
O O14 0.717789 0.437079 0.314241
O O15 0.000000 0.445281 0.383016
O O16 0.346781 0.538418 0.700471
O O17 0.000000 0.553719 0.714429
#
# Coordination Sequence:
#
# PCOD9368372 Si02
#       7
#    16  16  16  16  16  16   4
#     4  10  22  39  63  91 129 169 213 268 325 392
#     4  11  24  43  64  91 124 173 224 269 332 402
#     4  12  24  42  64  91 129 170 215 270 334 393
#     4  12  24  38  60  92 126 163 209 267 332 397
#     4  10  18  35  61  93 130 171 214 264 327 388
#     4  12  22  37  63  97 132 174 219 272 327 393
#     4  12  22  40  60  98 136 172 222 268 334 390
#
# _framework density 21.723436
#
# number of rings (size 3 to 8) (size 9 to 14) (size 15 to 20)
#    0.000    0.800    4.000    4.560    0.000    2.560 
#    0.000    0.000    1.760    0.000    0.000    0.000 
#    0.000    0.000    0.000    0.000    0.000    0.000 
#
# Total GULP energy -139546.492377 kJ/mol
# GULP energy per Si atom -5581.859695 kJ/mol
# Density = 2.167399 g / cm^3
# Si number density = 21.723436 Si / 1000 Ang^3
#
#
#
# Elastic Constant Matrix: (Units=GPa)
#
#
# Indices 1 2 3 4 5 6 
#
# 1 125.4744 8.4095 -15.9584 0.0000 0.0000 0.0000
# 2 8.4095 120.1105 5.0413 0.0000 0.0000 0.0000
# 3 -15.9584 5.0413 51.2597 0.0000 0.0000 0.0000
# 4 0.0000 0.0000 0.0000 65.9160 0.0000 0.0000
# 5 0.0000 0.0000 0.0000 0.0000 -12.6983 0.0000
# 6 0.0000 0.0000 0.0000 0.0000 0.0000 15.3671
#
#
#
# Elastic Compliance Matrix: (Units=1/GPa)
#
#
# Indices 1 2 3 4 5 6 
#
# 1 0.008356 -0.000697 0.002670 0.000000 0.000000 0.000000
# 2 -0.000697 0.008418 -0.001045 0.000000 0.000000 0.000000
# 3 0.002670 -0.001045 0.020443 0.000000 0.000000 0.000000
# 4 0.000000 0.000000 0.000000 0.015171 0.000000 0.000000
# 5 0.000000 0.000000 0.000000 0.000000 -0.078750 0.000000
# 6 0.000000 0.000000 0.000000 0.000000 0.000000 0.065074
#
#
# Mechanical properties :
#
#
# Convention : Reuss Voigt Hill
#
# Bulk Modulus (GPa) = 25.59328 32.42550 29.00939
# Shear Modulus (GPa) = 100.24127 33.67378 66.95752
#
# Velocity S-wave (km/s) = 6.80033 3.94142 5.55784
# Velocity P-wave (km/s) = 8.57125 5.97260 7.38709
#
# Compressibility (1/GPa) = 0.03907275
#
# Stress axis : x y z
#
# Youngs Moduli (GPa) = 119.67368 118.78837 48.91768
#
# Poissons Ratio (x) = 0.08281 -0.13061
# Poissons Ratio (y) = 0.08343 0.05112
# Poissons Ratio (z) = -0.31953 0.12413
#
# Static dielectric constant tensor:
#      x y z
#    x 1.815240 0.000000 0.000000 
#    y 0.000000 1.732020 0.000000 
#    z 0.000000 0.000000 1.777660 
# 
# From -- ./inp_files/23814.got.cif
#   From: 2010.05.17/outbox.cif.g08.bks.cpg/sg42_12_cif.got.tgz:23814.got - 2010.06.03 19:03:34.
