data_PCOD9368402
_publ_section_title
;
Structure prediction by ZEFSAII (Michael W. Deem and Ramdas Pophale) SiO2 
 PCOD9368402
Probable space group: F M M 2
;
_chemical_formula_sum "Si O2"
_cell_formula_units_Z 100
_cell_length_a 14.455906
_cell_length_b 20.907141
_cell_length_c 14.831476
_cell_angle_alpha 90.000000
_cell_angle_beta 90.000000
_cell_angle_gamma 90.000000
_cell_volume 4482.541686
_symmetry_space_group_name_H-M "F M M 2"
_symmetry_group_IT_number 42
_symmetry_cell_setting 'orthorhombic'
loop_
_space_group_symop_operation_xyz
x,y,z
-x,-y,z
-x,y,z
x,-y,z
x,1/2+y,1/2+z
-x,1/2-y,1/2+z
-x,1/2+y,1/2+z
x,1/2-y,1/2+z
1/2+x,y,1/2+z
1/2-x,-y,1/2+z
1/2-x,y,1/2+z
1/2+x,-y,1/2+z
1/2+x,1/2+y,z
1/2-x,1/2-y,z
1/2-x,1/2+y,z
1/2+x,1/2-y,z
loop_
_atom_site_type_symbol
_atom_site_label
_atom_site_fract_x
_atom_site_fract_y
_atom_site_fract_z
Si Si1 0.861095 0.573123 0.239000
Si Si2 0.134208 0.827751 0.585881
Si Si3 0.641692 0.816417 0.587388
Si Si4 0.362137 0.928840 0.940679
Si Si5 0.500000 0.000000 0.654876
Si Si6 0.862451 0.072360 0.948994
Si Si7 0.358947 0.596272 0.235653
O O1 0.887151 0.500000 0.211953
O O2 0.891416 0.631353 0.174967
O O3 0.888305 0.581480 0.343839
O O4 0.748880 0.576827 0.232838
O O5 0.246342 0.821148 0.581249
O O6 0.104690 0.754699 0.574559
O O7 0.104809 0.873203 0.504744
O O8 0.609171 0.869011 0.513418
O O9 0.626111 0.834786 0.692073
O O10 0.249779 0.929412 0.948071
O O11 0.388149 0.915196 0.837740
O O12 0.392866 0.000000 0.966179
O O13 0.419430 0.053788 0.670133
O O14 0.894397 0.000000 0.976798
#
# Coordination Sequence:
#
# PCOD9368402 Si02
#       7
#    16  16  16  16   4  16  16
#     4   9  15  28  44  70  96 125 145 185 217 277
#     4   9  17  26  43  64  98 126 148 165 230 286
#     4   9  18  28  39  67  94 127 149 181 217 287
#     4   9  15  27  42  65  87 119 146 189 223 273
#     4  12  20  32  48  68  84 122 162 208 228 258
#     4   8  15  24  42  59  89 121 152 174 225 268
#     4  10  19  29  46  65  96 116 160 196 233 249
#
# _framework density 22.308771
#
# number of rings (size 3 to 8) (size 9 to 14) (size 15 to 20)
#    0.000    2.880    1.600    1.440    1.120    3.200 
#    0.000    6.400    0.000    0.960    0.000    0.000 
#    0.000    2.560    0.000    0.320    0.000    0.000 
#
# Total GULP energy -139191.503498 kJ/mol
# GULP energy per Si atom -5567.660140 kJ/mol
# Density = 2.225800 g / cm^3
# Si number density = 22.308771 Si / 1000 Ang^3
#
#
#
# Elastic Constant Matrix: (Units=GPa)
#
#
# Indices 1 2 3 4 5 6 
#
# 1 98.4704 3.9181 -3.2162 0.0000 0.0000 0.0000
# 2 3.9181 237.1872 115.4798 0.0000 0.0000 0.0000
# 3 -3.2162 115.4798 111.7351 0.0000 0.0000 0.0000
# 4 0.0000 0.0000 0.0000 25.2911 0.0000 0.0000
# 5 0.0000 0.0000 0.0000 0.0000 -32.9206 0.0000
# 6 0.0000 0.0000 0.0000 0.0000 0.0000 -4.2685
#
#
#
# Elastic Compliance Matrix: (Units=1/GPa)
#
#
# Indices 1 2 3 4 5 6 
#
# 1 0.010211 -0.000628 0.000943 0.000000 0.000000 0.000000
# 2 -0.000628 0.008525 -0.008829 0.000000 0.000000 0.000000
# 3 0.000943 -0.008829 0.018101 0.000000 0.000000 0.000000
# 4 0.000000 0.000000 0.000000 0.039540 0.000000 0.000000
# 5 0.000000 0.000000 0.000000 0.000000 -0.030376 0.000000
# 6 0.000000 0.000000 0.000000 0.000000 0.000000 -0.234274
#
#
# Mechanical properties :
#
#
# Convention : Reuss Voigt Hill
#
# Bulk Modulus (GPa) = 50.47958 75.52843 63.00400
# Shear Modulus (GPa) = -30.36877 19.70112 -5.33382
#
# Velocity S-wave (km/s) = -3.69357 2.97494 -1.54793
# Velocity P-wave (km/s) = 2.11822 6.76238 5.01082
#
# Compressibility (1/GPa) = 0.01980999
#
# Stress axis : x y z
#
# Youngs Moduli (GPa) = 97.93271 117.30408 55.24441
#
# Poissons Ratio (x) = 0.07361 -0.05207
# Poissons Ratio (y) = 0.06146 0.48773
# Poissons Ratio (z) = -0.09230 1.03563
#
# Static dielectric constant tensor:
#      x y z
#    x 1.898910 0.000000 0.000000 
#    y 0.000000 1.882600 0.000000 
#    z 0.000000 0.000000 1.823190 
# 
# From -- ./inp_files/15253.got.cif
#   From: 2010.05.17/outbox.cif.g08.bks.cpg/sg42_8_cif.got.tgz:15253.got - 2010.06.03 19:03:34.
