data_PCOD9368687
_publ_section_title
;
Structure prediction by ZEFSAII (Michael W. Deem and Ramdas Pophale) SiO2 
 PCOD9368687
Probable space group: F M M 2
;
_chemical_formula_sum "Si O2"
_cell_formula_units_Z 80
_cell_length_a 18.036184
_cell_length_b 27.035561
_cell_length_c 7.772947
_cell_angle_alpha 90.000000
_cell_angle_beta 90.000000
_cell_angle_gamma 90.000000
_cell_volume 3790.231612
_symmetry_space_group_name_H-M "F M M 2"
_symmetry_group_IT_number 42
_symmetry_cell_setting 'orthorhombic'
loop_
_space_group_symop_operation_xyz
x,y,z
-x,-y,z
-x,y,z
x,-y,z
x,1/2+y,1/2+z
-x,1/2-y,1/2+z
-x,1/2+y,1/2+z
x,1/2-y,1/2+z
1/2+x,y,1/2+z
1/2-x,-y,1/2+z
1/2-x,y,1/2+z
1/2+x,-y,1/2+z
1/2+x,1/2+y,z
1/2-x,1/2-y,z
1/2-x,1/2+y,z
1/2+x,1/2-y,z
loop_
_atom_site_type_symbol
_atom_site_label
_atom_site_fract_x
_atom_site_fract_y
_atom_site_fract_z
Si Si1 0.088283 0.804162 0.827990
Si Si2 0.412616 0.588687 0.353602
Si Si3 0.807342 0.944269 0.060446
Si Si4 0.340720 0.097827 0.192572
Si Si5 0.912424 0.804924 0.236212
O O1 0.132335 0.846677 0.730387
O O2 0.116747 0.748984 0.786780
O O3 0.000000 0.807423 0.782395
O O4 0.094716 0.812435 0.032224
O O5 0.500000 0.586468 0.320919
O O6 0.368266 0.559023 0.209744
O O7 0.393744 0.574426 0.548034
O O8 0.385551 0.645876 0.330400
O O9 0.741036 0.907630 0.112537
O O10 0.776985 0.000000 0.051993
O O11 0.839636 0.929595 0.875695
O O12 0.000000 0.801974 0.278345
#
# Coordination Sequence:
#
# PCOD9368687 Si02
#       5
#    16  16  16  16  16
#     4  10  19  35  65 102 139 181 227 274 329 406
#     4  11  24  44  72 105 139 176 228 290 338 403
#     4  12  27  47  70  96 133 182 231 288 356 417
#     4  12  24  43  72  98 134 181 235 277 342 416
#     4   9  18  35  62 100 143 182 220 269 337 407
#
# _framework density 21.10689
#
# number of rings (size 3 to 8) (size 9 to 14) (size 15 to 20)
#    0.000    1.200    4.000    2.400    0.000    5.200 
#    0.000    1.000    0.000    5.400    0.000    0.000 
#    0.000    0.000    0.000    0.000    0.000    0.000 
#
# Total GULP energy -111778.678153 kJ/mol
# GULP energy per Si atom -5588.933908 kJ/mol
# Density = 2.105885 g / cm^3
# Si number density = 21.106890 Si / 1000 Ang^3
#
#
#
# Elastic Constant Matrix: (Units=GPa)
#
#
# Indices 1 2 3 4 5 6 
#
# 1 55.9922 30.9988 11.5561 0.0000 0.0000 0.0000
# 2 30.9988 82.1459 43.9419 0.0000 0.0000 0.0000
# 3 11.5561 43.9419 94.2900 0.0000 0.0001 0.0000
# 4 0.0000 0.0000 0.0000 13.5344 0.0000 0.0000
# 5 0.0000 0.0000 0.0001 0.0000 32.4550 0.0000
# 6 0.0000 0.0000 0.0000 0.0000 0.0000 16.9543
#
#
#
# Elastic Compliance Matrix: (Units=1/GPa)
#
#
# Indices 1 2 3 4 5 6 
#
# 1 0.022760 -0.009453 0.001616 0.000000 0.000000 0.000000
# 2 -0.009453 0.020142 -0.008228 0.000000 0.000000 0.000000
# 3 0.001616 -0.008228 0.014242 0.000000 0.000000 0.000000
# 4 0.000000 0.000000 0.000000 0.073886 0.000000 0.000000
# 5 0.000000 0.000000 0.000000 0.000000 0.030812 0.000000
# 6 0.000000 0.000000 0.000000 0.000000 0.000000 0.058982
#
#
# Mechanical properties :
#
#
# Convention : Reuss Voigt Hill
#
# Bulk Modulus (GPa) = 39.97882 45.04684 42.51283
# Shear Modulus (GPa) = 19.13565 22.31748 20.72656
#
# Velocity S-wave (km/s) = 3.01426 3.25523 3.13706
# Velocity P-wave (km/s) = 5.57643 5.95964 5.77121
#
# Compressibility (1/GPa) = 0.02501324
#
# Stress axis : x y z
#
# Youngs Moduli (GPa) = 43.93757 49.64705 70.21419
#
# Poissons Ratio (x) = 0.46932 -0.11347
# Poissons Ratio (y) = 0.41534 0.57774
# Poissons Ratio (z) = -0.07100 0.40851
#
# Static dielectric constant tensor:
#      x y z
#    x 1.745440 0.000000 0.000000 
#    y 0.000000 1.782870 0.000000 
#    z 0.000000 0.000000 1.757060 
# 
# From -- ./inp_files/3488.got.cif
#   From: 2010.05.17/outbox.cif.g08.bks.cpg/sg42_2_cif.got.tgz:3488.got - 2010.06.03 19:03:34.
