data_PCOD9368855
_publ_section_title
;
Structure prediction by ZEFSAII (Michael W. Deem and Ramdas Pophale) SiO2 
 PCOD9368855
Probable space group: F M M 2
;
_chemical_formula_sum "Si O2"
_cell_formula_units_Z 128
_cell_length_a 21.716972
_cell_length_b 18.925728
_cell_length_c 14.234632
_cell_angle_alpha 90.000000
_cell_angle_beta 90.000000
_cell_angle_gamma 90.000000
_cell_volume 5850.569053
_symmetry_space_group_name_H-M "F M M 2"
_symmetry_group_IT_number 42
_symmetry_cell_setting 'orthorhombic'
loop_
_space_group_symop_operation_xyz
x,y,z
-x,-y,z
-x,y,z
x,-y,z
x,1/2+y,1/2+z
-x,1/2-y,1/2+z
-x,1/2+y,1/2+z
x,1/2-y,1/2+z
1/2+x,y,1/2+z
1/2-x,-y,1/2+z
1/2-x,y,1/2+z
1/2+x,-y,1/2+z
1/2+x,1/2+y,z
1/2-x,1/2-y,z
1/2-x,1/2+y,z
1/2+x,1/2-y,z
loop_
_atom_site_type_symbol
_atom_site_label
_atom_site_fract_x
_atom_site_fract_y
_atom_site_fract_z
Si Si1 0.255719 0.578836 0.709400
Si Si2 0.302062 0.790570 0.127161
Si Si3 0.568069 0.200604 0.232863
Si Si4 0.374264 0.419718 0.844066
Si Si5 0.866515 0.317799 0.516296
Si Si6 0.571321 0.919843 0.658275
Si Si7 0.431614 0.699398 0.411305
Si Si8 0.141806 0.419656 0.844362
O O1 0.240747 0.500000 0.675315
O O2 0.273417 0.631430 0.625368
O O3 0.316059 0.576999 0.774598
O O4 0.200466 0.599685 0.779821
O O5 0.250000 0.750000 0.189597
O O6 0.370730 0.795099 0.169998
O O7 0.312185 0.736074 0.042092
O O8 0.500000 0.203926 0.188142
O O9 0.574880 0.127399 0.290795
O O10 0.572208 0.263919 0.308610
O O11 0.393222 0.500000 0.866402
O O12 0.354973 0.374247 0.934586
O O13 0.887413 0.362928 0.605591
O O14 0.919399 0.264712 0.480391
O O15 0.500000 0.904042 0.641580
O O16 0.586435 0.920490 0.768379
O O17 0.583972 0.000000 0.624209
O O18 0.500000 0.670363 0.425559
O O19 0.379443 0.639243 0.417993
O O20 0.150770 0.500000 0.880027
#
# Coordination Sequence:
#
# PCOD9368855 Si02
#       8
#    16  16  16  16  16  16  16  16
#     4   9  19  38  60  79 103 139 187 239 285 333
#     4  11  22  36  56  84 114 150 195 240 288 346
#     4   9  19  35  57  82 109 145 187 235 288 340
#     4   9  19  36  57  81 109 142 183 231 281 335
#     4  11  22  34  51  80 117 151 182 223 280 341
#     4  10  20  34  54  80 109 142 182 228 277 332
#     4  10  20  34  51  76 112 148 181 222 278 343
#     4  10  20  36  59  81 101 135 185 238 287 334
#
# _framework density 21.878212999999999
#
# number of rings (size 3 to 8) (size 9 to 14) (size 15 to 20)
#    0.000    2.125    0.000    3.375    0.000    4.500 
#    0.000    2.500    0.000    0.000    0.000    1.750 
#    0.000    0.000    0.000    0.000    0.000    0.000 
#
# Total GULP energy -178474.728504 kJ/mol
# GULP energy per Si atom -5577.335266 kJ/mol
# Density = 2.182842 g / cm^3
# Si number density = 21.878213 Si / 1000 Ang^3
#
#
#
# Elastic Constant Matrix: (Units=GPa)
#
#
# Indices 1 2 3 4 5 6 
#
# 1 100.8494 27.7382 -10.1311 0.0000 0.0000 0.0000
# 2 27.7382 121.4464 12.5565 0.0000 0.0000 0.0000
# 3 -10.1311 12.5565 18.8666 0.0000 0.0000 0.0000
# 4 0.0000 0.0000 0.0000 33.2259 0.0000 0.0000
# 5 0.0000 0.0000 0.0000 0.0000 15.8718 0.0000
# 6 0.0000 0.0000 0.0000 0.0000 0.0000 22.9792
#
#
#
# Elastic Compliance Matrix: (Units=1/GPa)
#
#
# Indices 1 2 3 4 5 6 
#
# 1 0.011779 -0.003591 0.008715 0.000000 0.000000 0.000000
# 2 -0.003591 0.009938 -0.008542 0.000000 0.000000 0.000000
# 3 0.008715 -0.008542 0.063369 0.000000 0.000000 0.000000
# 4 0.000000 0.000000 0.000000 0.030097 0.000000 0.000000
# 5 0.000000 0.000000 0.000000 0.000000 0.063005 0.000000
# 6 0.000000 0.000000 0.000000 0.000000 0.000000 0.043518
#
#
# Mechanical properties :
#
#
# Convention : Reuss Voigt Hill
#
# Bulk Modulus (GPa) = 12.77970 33.49884 23.13927
# Shear Modulus (GPa) = 19.63670 28.48196 24.05933
#
# Velocity S-wave (km/s) = 2.99916 3.61202 3.31976
# Velocity P-wave (km/s) = 4.22460 5.72192 5.02929
#
# Compressibility (1/GPa) = 0.07824907
#
# Stress axis : x y z
#
# Youngs Moduli (GPa) = 84.89606 100.62827 15.78055
#
# Poissons Ratio (x) = 0.36140 -0.13753
# Poissons Ratio (y) = 0.30490 0.13480
# Poissons Ratio (z) = -0.73991 0.85961
#
# Static dielectric constant tensor:
#      x y z
#    x 1.832290 0.000000 0.000000 
#    y 0.000000 1.856850 0.000000 
#    z 0.000000 0.000000 1.832280 
# 
# From -- ./inp_files/22328.got.cif
#   From: 2010.05.17/outbox.cif.g08.bks.cpg/sg42_12_cif.got.tgz:22328.got - 2010.06.03 19:03:34.
