data_PCOD9368120
_publ_section_title
;
Structure prediction by ZEFSAII (Michael W. Deem and Ramdas Pophale) SiO2 
 PCOD9368120
Probable space group: F M M 2
;
_chemical_formula_sum "Si O2"
_cell_formula_units_Z 104
_cell_length_a 7.552024
_cell_length_b 24.446667
_cell_length_c 25.770602
_cell_angle_alpha 90.000000
_cell_angle_beta 90.000000
_cell_angle_gamma 90.000000
_cell_volume 4757.815338
_symmetry_space_group_name_H-M "F M M 2"
_symmetry_group_IT_number 42
_symmetry_cell_setting 'orthorhombic'
loop_
_space_group_symop_operation_xyz
x,y,z
-x,-y,z
-x,y,z
x,-y,z
x,1/2+y,1/2+z
-x,1/2-y,1/2+z
-x,1/2+y,1/2+z
x,1/2-y,1/2+z
1/2+x,y,1/2+z
1/2-x,-y,1/2+z
1/2-x,y,1/2+z
1/2+x,-y,1/2+z
1/2+x,1/2+y,z
1/2-x,1/2-y,z
1/2-x,1/2+y,z
1/2+x,1/2-y,z
loop_
_atom_site_type_symbol
_atom_site_label
_atom_site_fract_x
_atom_site_fract_y
_atom_site_fract_z
Si Si1 0.205249 0.000000 0.926070
Si Si2 0.720190 0.000000 0.191888
Si Si3 0.287676 0.879991 0.948147
Si Si4 0.750456 0.500000 0.810521
Si Si5 0.716484 0.620142 0.330543
Si Si6 0.786718 0.314182 0.046881
Si Si7 0.299044 0.110784 0.139352
Si Si8 0.290562 0.813098 0.732034
O O1 0.240305 0.056104 0.956292
O O2 0.314434 0.000000 0.871909
O O3 0.000000 0.000000 0.909336
O O4 0.775490 0.053642 0.159934
O O5 0.500000 0.000000 0.199108
O O6 0.803276 0.000000 0.249502
O O7 0.500000 0.876719 0.948462
O O8 0.230891 0.866706 0.889363
O O9 0.221365 0.839221 0.992345
O O10 0.693168 0.436425 0.812977
O O11 0.500000 0.611033 0.328868
O O12 0.759902 0.666570 0.289310
O O13 0.750000 0.250000 0.053849
O O14 0.718028 0.353563 0.092816
O O15 0.000000 0.318199 0.047460
O O16 0.500000 0.097372 0.123149
O O17 0.300929 0.150338 0.188871
O O18 0.500000 0.822131 0.726057
O O19 0.250000 0.750000 0.724636
#
# Coordination Sequence:
#
# PCOD9368120 Si02
#       8
#     8   8  16   8  16  16  16  16
#     4  10  20  32  53  88 120 146 181 228 278 330
#     4  10  19  32  54  81 113 145 178 221 270 327
#     4   9  19  37  58  81 109 149 188 225 276 337
#     4  10  16  32  53  79 114 149 180 217 275 331
#     4   9  18  32  54  80 110 143 183 226 273 332
#     4  10  22  39  61  82 107 146 193 234 277 328
#     4  10  21  38  58  84 112 144 183 229 277 331
#     4  11  22  36  53  78 109 147 186 230 278 332
#
# _framework density 21.858771000000001
#
# number of rings (size 3 to 8) (size 9 to 14) (size 15 to 20)
#    0.000    2.154    1.538    1.615    0.000    5.538 
#    0.000    3.462    0.000    0.000    0.000    0.000 
#    0.000    0.000    0.000    0.000    0.000    0.000 
#
# Total GULP energy -144870.469197 kJ/mol
# GULP energy per Si atom -5571.941123 kJ/mol
# Density = 2.180902 g / cm^3
# Si number density = 21.858771 Si / 1000 Ang^3
#
#
#
# Elastic Constant Matrix: (Units=GPa)
#
#
# Indices 1 2 3 4 5 6 
#
# 1 68.4226 -1.2499 12.4233 0.0000 0.0000 0.0000
# 2 -1.2499 174.5385 89.8835 0.0000 0.0000 0.0000
# 3 12.4233 89.8835 156.2381 0.0000 0.0000 0.0000
# 4 0.0000 0.0000 0.0000 19.8641 0.0000 0.0000
# 5 0.0000 0.0000 0.0000 0.0000 1.3755 0.0000
# 6 0.0000 0.0000 0.0000 0.0000 0.0000 5.8819
#
#
#
# Elastic Compliance Matrix: (Units=1/GPa)
#
#
# Indices 1 2 3 4 5 6 
#
# 1 0.014956 0.001022 -0.001778 0.000000 0.000000 0.000000
# 2 0.001022 0.008211 -0.004805 0.000000 0.000000 0.000000
# 3 -0.001778 -0.004805 0.009306 0.000000 0.000000 0.000000
# 4 0.000000 0.000000 0.000000 0.050342 0.000000 0.000000
# 5 0.000000 0.000000 0.000000 0.000000 0.727012 0.000000
# 6 0.000000 0.000000 0.000000 0.000000 0.000000 0.170014
#
#
# Mechanical properties :
#
#
# Convention : Reuss Voigt Hill
#
# Bulk Modulus (GPa) = 46.83072 66.81257 56.82164
# Shear Modulus (GPa) = 5.00962 25.30045 15.15503
#
# Velocity S-wave (km/s) = 1.51552 3.40582 2.63595
# Velocity P-wave (km/s) = 4.95309 6.78956 5.94269
#
# Compressibility (1/GPa) = 0.02135351
#
# Stress axis : x y z
#
# Youngs Moduli (GPa) = 66.86072 121.78303 107.45424
#
# Poissons Ratio (x) = -0.12452 0.19100
# Poissons Ratio (y) = -0.06836 0.51635
# Poissons Ratio (z) = 0.11885 0.58520
#
# Static dielectric constant tensor:
#      x y z
#    x 1.947070 0.000000 0.000000 
#    y 0.000000 1.753470 0.000000 
#    z 0.000000 0.000000 1.785950 
# 
# From -- ./inp_files/31602.got.cif
#   From: 2010.05.17/outbox.cif.g08.bks.cpg/sg42_16_cif.got.tgz:31602.got - 2010.06.03 19:03:34.
