data_PCOD9368121
_publ_section_title
;
Structure prediction by ZEFSAII (Michael W. Deem and Ramdas Pophale) SiO2 
 PCOD9368121
Probable space group: F M M 2
;
_chemical_formula_sum "Si O2"
_cell_formula_units_Z 88
_cell_length_a 9.180907
_cell_length_b 24.491159
_cell_length_c 20.509736
_cell_angle_alpha 90.000000
_cell_angle_beta 90.000000
_cell_angle_gamma 90.000000
_cell_volume 4611.635738
_symmetry_space_group_name_H-M "F M M 2"
_symmetry_group_IT_number 42
_symmetry_cell_setting 'orthorhombic'
loop_
_space_group_symop_operation_xyz
x,y,z
-x,-y,z
-x,y,z
x,-y,z
x,1/2+y,1/2+z
-x,1/2-y,1/2+z
-x,1/2+y,1/2+z
x,1/2-y,1/2+z
1/2+x,y,1/2+z
1/2-x,-y,1/2+z
1/2-x,y,1/2+z
1/2+x,-y,1/2+z
1/2+x,1/2+y,z
1/2-x,1/2-y,z
1/2-x,1/2+y,z
1/2+x,1/2-y,z
loop_
_atom_site_type_symbol
_atom_site_label
_atom_site_fract_x
_atom_site_fract_y
_atom_site_fract_z
Si Si1 0.675353 0.381399 0.432240
Si Si2 0.338766 0.622628 0.804622
Si Si3 0.327676 0.308179 0.673402
Si Si4 0.661593 0.000000 0.907328
Si Si5 0.238963 0.500000 0.267028
Si Si6 0.174379 0.500000 0.614660
Si Si7 0.175993 0.119207 0.063541
O O1 0.500000 0.379092 0.438132
O O2 0.724136 0.362159 0.360839
O O3 0.732094 0.444360 0.429306
O O4 0.755067 0.359534 0.495875
O O5 0.500000 0.631790 0.832290
O O6 0.317152 0.659873 0.741704
O O7 0.333303 0.559175 0.780672
O O8 0.500000 0.303060 0.657398
O O9 0.250000 0.250000 0.678073
O O10 0.242696 0.343904 0.620309
O O11 0.500000 0.000000 0.935260
O O12 0.651350 0.000000 0.828772
O O13 0.286298 0.500000 0.191732
O O14 0.222949 0.556402 0.580444
O O15 0.000000 0.500000 0.611319
O O16 0.000000 0.121337 0.062093
#
# Coordination Sequence:
#
# PCOD9368121 Si02
#       7
#    16  16  16   8   8   8  16
#     4  10  20  35  56  84 119 159 199 241 292 351
#     4  10  21  37  60  89 120 154 194 243 297 354
#     4  11  24  43  64  88 117 153 199 249 302 355
#     4   8  16  28  48  78 117 158 192 235 284 343
#     4  10  16  32  54  87 121 153 194 235 292 351
#     4  10  20  32  54  89 125 159 197 240 291 352
#     4  11  22  38  60  89 124 161 199 244 295 352
#
# _framework density 19.082166999999998
#
# number of rings (size 3 to 8) (size 9 to 14) (size 15 to 20)
#    0.000    1.818    1.818    2.727    0.000    2.182 
#    0.000    5.000    0.000    2.182    0.000    0.000 
#    0.000    0.000    0.000    0.000    0.000    0.000 
#
# Total GULP energy -122545.182105 kJ/mol
# GULP energy per Si atom -5570.235550 kJ/mol
# Density = 1.903874 g / cm^3
# Si number density = 19.082167 Si / 1000 Ang^3
#
#
#
# Elastic Constant Matrix: (Units=GPa)
#
#
# Indices 1 2 3 4 5 6 
#
# 1 100.3800 49.1549 51.0002 0.0000 0.0000 0.0000
# 2 49.1549 87.1520 31.6913 0.0000 0.0000 0.0000
# 3 51.0002 31.6913 102.0656 0.0000 0.0000 0.0000
# 4 0.0000 0.0000 0.0000 -2.4788 0.0000 0.0000
# 5 0.0000 0.0000 0.0000 0.0000 33.8451 0.0000
# 6 0.0000 0.0000 0.0000 0.0000 0.0000 15.8256
#
#
#
# Elastic Compliance Matrix: (Units=1/GPa)
#
#
# Indices 1 2 3 4 5 6 
#
# 1 0.016519 -0.007119 -0.006044 0.000000 0.000000 0.000000
# 2 -0.007119 0.016003 -0.001412 0.000000 0.000000 0.000000
# 3 -0.006044 -0.001412 0.013256 0.000000 0.000000 0.000000
# 4 0.000000 0.000000 0.000000 -0.403428 0.000000 0.000000
# 5 0.000000 0.000000 0.000000 0.000000 0.029546 0.000000
# 6 0.000000 0.000000 0.000000 0.000000 0.000000 0.063189
#
#
# Mechanical properties :
#
#
# Convention : Reuss Voigt Hill
#
# Bulk Modulus (GPa) = 60.13697 61.47671 60.80684
# Shear Modulus (GPa) = -21.71803 19.95513 -0.88145
#
# Velocity S-wave (km/s) = -3.37728 3.23731 -0.68039
# Velocity P-wave (km/s) = 4.04662 6.80150 5.59623
#
# Compressibility (1/GPa) = 0.01662871
#
# Stress axis : x y z
#
# Youngs Moduli (GPa) = 60.53638 62.48900 75.43851
#
# Poissons Ratio (x) = 0.44487 0.45593
# Poissons Ratio (y) = 0.43097 0.10648
# Poissons Ratio (z) = 0.36586 0.08820
#
# Static dielectric constant tensor:
#      x y z
#    x 1.667790 0.000000 0.000000 
#    y 0.000000 1.680550 0.000000 
#    z 0.000000 0.000000 1.665490 
# 
# From -- ./inp_files/23560.got.cif
#   From: 2010.05.17/outbox.cif.g08.bks.cpg/sg42_12_cif.got.tgz:23560.got - 2010.06.03 19:03:34.
