data_PCOD9368964
_publ_section_title
;
Structure prediction by ZEFSAII (Michael W. Deem and Ramdas Pophale) SiO2 
 PCOD9368964
Probable space group: F M M 2
;
_chemical_formula_sum "Si O2"
_cell_formula_units_Z 112
_cell_length_a 14.014988
_cell_length_b 15.885591
_cell_length_c 25.541771
_cell_angle_alpha 90.000000
_cell_angle_beta 90.000000
_cell_angle_gamma 90.000000
_cell_volume 5686.527108
_symmetry_space_group_name_H-M "F M M 2"
_symmetry_group_IT_number 42
_symmetry_cell_setting 'orthorhombic'
loop_
_space_group_symop_operation_xyz
x,y,z
-x,-y,z
-x,y,z
x,-y,z
x,1/2+y,1/2+z
-x,1/2-y,1/2+z
-x,1/2+y,1/2+z
x,1/2-y,1/2+z
1/2+x,y,1/2+z
1/2-x,-y,1/2+z
1/2-x,y,1/2+z
1/2+x,-y,1/2+z
1/2+x,1/2+y,z
1/2-x,1/2-y,z
1/2-x,1/2+y,z
1/2+x,1/2-y,z
loop_
_atom_site_type_symbol
_atom_site_label
_atom_site_fract_x
_atom_site_fract_y
_atom_site_fract_z
Si Si1 0.605362 0.826550 0.714300
Si Si2 0.232172 0.147598 0.307192
Si Si3 0.000000 0.403059 0.537168
Si Si4 0.788188 0.154282 0.915681
Si Si5 0.605658 0.625816 0.729562
Si Si6 0.711268 0.845191 0.534195
Si Si7 0.500000 0.402940 0.911062
Si Si8 0.754712 0.408343 0.141521
O O1 0.500000 0.856163 0.699929
O O2 0.643054 0.865605 0.768838
O O3 0.602891 0.726862 0.723807
O O4 0.682817 0.844344 0.669709
O O5 0.250000 0.250000 0.309164
O O6 0.229741 0.116926 0.366802
O O7 0.320857 0.107757 0.276038
O O8 0.099196 0.355947 0.549767
O O9 0.000000 0.500000 0.556951
O O10 0.000000 0.407760 0.474104
O O11 0.750000 0.250000 0.920012
O O12 0.900107 0.144533 0.898932
O O13 0.778574 0.119605 0.974865
O O14 0.500000 0.595657 0.740340
O O15 0.649235 0.594593 0.675135
O O16 0.750000 0.750000 0.534157
O O17 0.767167 0.890933 0.580568
O O18 0.500000 0.500000 0.891404
O O19 0.710031 0.500000 0.148172
#
# Coordination Sequence:
#
# PCOD9368964 Si02
#       8
#    16  16   8  16  16  16   8  16
#     4   9  18  34  56  80 105 136 176 224 273 322
#     4   8  15  30  52  81 109 134 175 218 268 324
#     4   9  18  34  56  82 108 141 187 235 276 323
#     4   9  18  33  54  82 116 145 181 227 272 328
#     4   9  18  34  57  78 103 138 175 220 270 325
#     4  10  20  35  54  80 114 147 182 227 279 331
#     4   9  18  32  52  80 114 145 181 229 282 325
#     4  11  22  35  52  76 107 142 180 224 272 327
#
# _framework density 19.695677
#
# number of rings (size 3 to 8) (size 9 to 14) (size 15 to 20)
#    0.000    2.714    0.000    2.571    2.000    1.143 
#    5.143    2.857    0.000    0.000    0.000    0.500 
#    0.000    0.000    0.000    0.000    0.000    0.000 
#
# Total GULP energy -155938.501071 kJ/mol
# GULP energy per Si atom -5569.232181 kJ/mol
# Density = 1.965085 g / cm^3
# Si number density = 19.695677 Si / 1000 Ang^3
#
#
#
# Elastic Constant Matrix: (Units=GPa)
#
#
# Indices 1 2 3 4 5 6 
#
# 1 80.5318 36.9284 15.4245 0.0000 0.0000 0.0000
# 2 36.9284 57.4330 6.1144 0.0000 0.0000 0.0000
# 3 15.4245 6.1144 119.8811 0.0000 0.0000 0.0000
# 4 0.0000 0.0000 0.0000 -24.1430 0.0000 0.0000
# 5 0.0000 0.0000 0.0000 0.0000 12.9555 0.0000
# 6 0.0000 0.0000 0.0000 0.0000 0.0000 -1.0242
#
#
#
# Elastic Compliance Matrix: (Units=1/GPa)
#
#
# Indices 1 2 3 4 5 6 
#
# 1 0.017960 -0.011364 -0.001731 0.000000 0.000000 0.000000
# 2 -0.011364 0.024697 0.000202 0.000000 0.000000 0.000000
# 3 -0.001731 0.000202 0.008554 0.000000 0.000000 0.000000
# 4 0.000000 0.000000 0.000000 -0.041420 0.000000 0.000000
# 5 0.000000 0.000000 0.000000 0.000000 0.077187 0.000000
# 6 0.000000 0.000000 0.000000 0.000000 0.000000 -0.976391
#
#
# Mechanical properties :
#
#
# Convention : Reuss Voigt Hill
#
# Bulk Modulus (GPa) = 39.33001 41.64227 40.48614
# Shear Modulus (GPa) = -5.84691 10.84956 2.50133
#
# Velocity S-wave (km/s) = -1.72484 2.34959 1.12816
# Velocity P-wave (km/s) = 4.00568 5.34317 4.72202
#
# Compressibility (1/GPa) = 0.02542588
#
# Stress axis : x y z
#
# Youngs Moduli (GPa) = 55.67969 40.49138 116.90416
#
# Poissons Ratio (x) = 0.46013 0.20239
# Poissons Ratio (y) = 0.63272 -0.02367
# Poissons Ratio (z) = 0.09639 -0.00820
#
# Static dielectric constant tensor:
#      x y z
#    x 1.692140 0.000000 0.000000 
#    y 0.000000 1.782100 0.000000 
#    z 0.000000 0.000000 1.717450 
# 
# From -- ./inp_files/32652.got.cif
#   From: 2010.05.17/outbox.cif.g08.bks.cpg/sg42_17_cif.got.tgz:32652.got - 2010.06.03 19:03:34.
