data_PCOD9368399
_publ_section_title
;
Structure prediction by ZEFSAII (Michael W. Deem and Ramdas Pophale) SiO2 
 PCOD9368399
Probable space group: F M M 2
;
_chemical_formula_sum "Si O2"
_cell_formula_units_Z 112
_cell_length_a 14.242935
_cell_length_b 14.968858
_cell_length_c 23.894358
_cell_angle_alpha 90.000000
_cell_angle_beta 90.000000
_cell_angle_gamma 90.000000
_cell_volume 5094.288392
_symmetry_space_group_name_H-M "F M M 2"
_symmetry_group_IT_number 42
_symmetry_cell_setting 'orthorhombic'
loop_
_space_group_symop_operation_xyz
x,y,z
-x,-y,z
-x,y,z
x,-y,z
x,1/2+y,1/2+z
-x,1/2-y,1/2+z
-x,1/2+y,1/2+z
x,1/2-y,1/2+z
1/2+x,y,1/2+z
1/2-x,-y,1/2+z
1/2-x,y,1/2+z
1/2+x,-y,1/2+z
1/2+x,1/2+y,z
1/2-x,1/2-y,z
1/2-x,1/2+y,z
1/2+x,1/2-y,z
loop_
_atom_site_type_symbol
_atom_site_label
_atom_site_fract_x
_atom_site_fract_y
_atom_site_fract_z
Si Si1 0.293577 0.109142 0.574960
Si Si2 0.887041 0.895717 0.191008
Si Si3 0.107004 0.148660 0.959202
Si Si4 0.384646 0.291528 0.301038
Si Si5 0.384734 0.096202 0.339280
Si Si6 0.604704 0.897709 0.037150
Si Si7 0.392880 0.853372 0.917324
O O1 0.345264 0.133732 0.631790
O O2 0.341927 0.140812 0.517901
O O3 0.186443 0.143887 0.573832
O O4 0.293347 0.000000 0.572432
O O5 0.856138 0.835785 0.243187
O O6 0.000000 0.891205 0.187738
O O7 0.862001 0.000000 0.200495
O O8 0.146285 0.099513 0.904372
O O9 0.105807 0.250531 0.937628
O O10 0.000000 0.118315 0.967933
O O11 0.500000 0.292795 0.303649
O O12 0.356082 0.188151 0.309198
O O13 0.351721 0.348874 0.355239
O O14 0.500000 0.099011 0.340716
O O15 0.357300 0.000000 0.314619
O O16 0.500000 0.856573 0.037924
O O17 0.594757 0.000000 0.055244
O O18 0.642865 0.900016 0.973194
O O19 0.500000 0.886670 0.911388
#
# Coordination Sequence:
#
# PCOD9368399 Si02
#       7
#    16  16  16  16  16  16  16
#     4  10  19  29  44  70 105 143 180 216 262 322
#     4   9  17  28  43  69 110 154 187 218 261 318
#     4   9  16  26  43  71 107 141 172 211 261 319
#     4   8  14  25  42  68 105 144 180 218 260 316
#     4   8  13  22  39  66 103 145 182 218 262 309
#     4   9  18  32  48  68  98 136 181 233 278 314
#     4   8  15  28  46  71 102 136 174 213 259 317
#
# _framework density 21.985406000000001
#
# number of rings (size 3 to 8) (size 9 to 14) (size 15 to 20)
#    0.000    3.286    0.000    2.571    0.000    2.571 
#    0.000    2.857    0.000    0.000    0.000    9.000 
#    0.000   33.143    0.000   33.571    0.000    3.429 
#
# Total GULP energy -156149.326946 kJ/mol
# GULP energy per Si atom -5576.761677 kJ/mol
# Density = 2.193537 g / cm^3
# Si number density = 21.985406 Si / 1000 Ang^3
#
#
#
# Elastic Constant Matrix: (Units=GPa)
#
#
# Indices 1 2 3 4 5 6 
#
# 1 65.8208 14.0989 53.8991 0.0000 0.0000 0.0000
# 2 14.0989 67.8264 46.4995 0.0000 0.0000 0.0000
# 3 53.8991 46.4995 154.7319 0.0000 0.0000 0.0000
# 4 0.0000 0.0000 0.0000 22.7768 0.0000 0.0000
# 5 0.0000 0.0000 0.0000 0.0000 19.2568 0.0000
# 6 0.0000 0.0000 0.0000 0.0000 0.0000 6.4340
#
#
#
# Elastic Compliance Matrix: (Units=1/GPa)
#
#
# Indices 1 2 3 4 5 6 
#
# 1 0.021293 0.000830 -0.007667 0.000000 0.000000 0.000000
# 2 0.000830 0.018602 -0.005879 0.000000 0.000000 0.000000
# 3 -0.007667 -0.005879 0.010900 0.000000 0.000000 0.000000
# 4 0.000000 0.000000 0.000000 0.043904 0.000000 0.000000
# 5 0.000000 0.000000 0.000000 0.000000 0.051930 0.000000
# 6 0.000000 0.000000 0.000000 0.000000 0.000000 0.155425
#
#
# Mechanical properties :
#
#
# Convention : Reuss Voigt Hill
#
# Bulk Modulus (GPa) = 39.42759 57.48599 48.45679
# Shear Modulus (GPa) = 14.88362 21.28563 18.08462
#
# Velocity S-wave (km/s) = 2.60470 3.11492 2.87117
# Velocity P-wave (km/s) = 5.19792 6.25628 5.75150
#
# Compressibility (1/GPa) = 0.02536295
#
# Stress axis : x y z
#
# Youngs Moduli (GPa) = 46.96382 53.75889 91.74210
#
# Poissons Ratio (x) = -0.04461 0.70335
# Poissons Ratio (y) = -0.03897 0.53936
# Poissons Ratio (z) = 0.36005 0.31606
#
# Static dielectric constant tensor:
#      x y z
#    x 1.861940 0.000000 0.000000 
#    y 0.000000 1.845200 0.000000 
#    z 0.000000 0.000000 1.756920 
# 
# From -- ./inp_files/29528.got.cif
#   From: 2010.05.17/outbox.cif.g08.bks.cpg/sg42_15_cif.got.tgz:29528.got - 2010.06.03 19:03:34.
