data_PCOD9368127
_publ_section_title
;
Structure prediction by ZEFSAII (Michael W. Deem and Ramdas Pophale) SiO2 
 PCOD9368127
Probable space group: F M M 2
;
_chemical_formula_sum "Si O2"
_cell_formula_units_Z 96
_cell_length_a 32.676796
_cell_length_b 8.392193
_cell_length_c 19.846652
_cell_angle_alpha 90.000000
_cell_angle_beta 90.000000
_cell_angle_gamma 90.000000
_cell_volume 5442.546954
_symmetry_space_group_name_H-M "F M M 2"
_symmetry_group_IT_number 42
_symmetry_cell_setting 'orthorhombic'
loop_
_space_group_symop_operation_xyz
x,y,z
-x,-y,z
-x,y,z
x,-y,z
x,1/2+y,1/2+z
-x,1/2-y,1/2+z
-x,1/2+y,1/2+z
x,1/2-y,1/2+z
1/2+x,y,1/2+z
1/2-x,-y,1/2+z
1/2-x,y,1/2+z
1/2+x,-y,1/2+z
1/2+x,1/2+y,z
1/2-x,1/2-y,z
1/2-x,1/2+y,z
1/2+x,1/2-y,z
loop_
_atom_site_type_symbol
_atom_site_label
_atom_site_fract_x
_atom_site_fract_y
_atom_site_fract_z
Si Si1 0.620394 0.807132 0.317310
Si Si2 0.707394 0.310613 0.975629
Si Si3 0.292426 0.310636 0.321122
Si Si4 0.546204 0.692744 0.071048
Si Si5 0.453789 0.307500 0.722804
Si Si6 0.118248 0.805435 0.973896
O O1 0.664152 0.743809 0.291294
O O2 0.581995 0.753491 0.272764
O O3 0.614842 0.757255 0.395516
O O4 0.622105 0.000000 0.316516
O O5 0.708256 0.500000 0.979194
O O6 0.750000 0.250000 0.005944
O O7 0.707228 0.261648 0.896800
O O8 0.663001 0.254431 0.001192
O O9 0.290989 0.500000 0.325648
O O10 0.250000 0.250000 0.288750
O O11 0.500000 0.743096 0.052223
O O12 0.546917 0.500000 0.071000
O O13 0.554063 0.750664 0.146826
O O14 0.580777 0.749984 0.019498
O O15 0.500000 0.255006 0.741708
O O16 0.453688 0.500000 0.723627
O O17 0.117794 0.000000 0.974242
#
# Coordination Sequence:
#
# PCOD9368127 Si02
#       6
#    16  16  16  16  16  16
#     4   9  17  30  47  68  94 121 153 192 229 267
#     4   9  15  25  41  62  90 120 150 184 222 267
#     4  10  17  26  42  65  93 122 152 185 225 272
#     4   9  17  30  48  67  88 117 152 187 225 274
#     4   9  18  32  49  68  91 121 154 188 229 275
#     4   8  15  27  44  67  91 115 146 186 226 260
#
# _framework density 17.6388
#
# number of rings (size 3 to 8) (size 9 to 14) (size 15 to 20)
#    0.000    3.000    0.000    4.000    0.000    1.333 
#    0.000    7.500    0.000    1.000    0.000    9.333 
#    0.000    0.000    0.000    0.000    0.000    0.000 
#
# Total GULP energy -133605.134883 kJ/mol
# GULP energy per Si atom -5566.880620 kJ/mol
# Density = 1.759865 g / cm^3
# Si number density = 17.638800 Si / 1000 Ang^3
#
#
#
# Elastic Constant Matrix: (Units=GPa)
#
#
# Indices 1 2 3 4 5 6 
#
# 1 220.5704 26.6586 85.4680 0.0000 0.0000 0.0000
# 2 26.6586 12.7420 8.8611 0.0000 0.0000 0.0000
# 3 85.4680 8.8611 48.5672 0.0000 0.0000 0.0000
# 4 0.0000 0.0000 0.0000 15.6875 0.0000 0.0000
# 5 0.0000 0.0000 0.0000 0.0000 -4.8338 0.0000
# 6 0.0000 0.0000 0.0000 0.0000 0.0000 21.5883
#
#
#
# Elastic Compliance Matrix: (Units=1/GPa)
#
#
# Indices 1 2 3 4 5 6 
#
# 1 0.016903 -0.016812 -0.026679 0.000000 0.000000 0.000000
# 2 -0.016812 0.106605 0.010135 0.000000 0.000000 0.000000
# 3 -0.026679 0.010135 0.065690 0.000000 0.000000 0.000000
# 4 0.000000 0.000000 0.000000 0.063745 0.000000 0.000000
# 5 0.000000 0.000000 0.000000 0.000000 -0.206878 0.000000
# 6 0.000000 0.000000 0.000000 0.000000 0.000000 0.046321
#
#
# Mechanical properties :
#
#
# Convention : Reuss Voigt Hill
#
# Bulk Modulus (GPa) = 8.16414 58.20611 33.18512
# Shear Modulus (GPa) = 25.00901 17.21454 21.11177
#
# Velocity S-wave (km/s) = 3.76951 3.12740 3.46337
# Velocity P-wave (km/s) = 4.85635 6.79054 5.90320
#
# Compressibility (1/GPa) = 0.12248694
#
# Stress axis : x y z
#
# Youngs Moduli (GPa) = 59.15992 9.38041 15.22291
#
# Poissons Ratio (x) = 0.15770 0.40613
# Poissons Ratio (y) = 0.99457 -0.15428
# Poissons Ratio (z) = 1.57833 -0.09507
#
# Static dielectric constant tensor:
#      x y z
#    x 1.667840 0.000000 0.000000 
#    y 0.000000 1.609030 0.000000 
#    z 0.000000 0.000000 1.564180 
# 
# From -- ./inp_files/30600.got.cif
#   From: 2010.05.17/outbox.cif.g08.bks.cpg/sg42_16_cif.got.tgz:30600.got - 2010.06.03 19:03:34.
