data_PCOD9368007
_publ_section_title
;
Structure prediction by ZEFSAII (Michael W. Deem and Ramdas Pophale) SiO2 
 PCOD9368007
Probable space group: A B A 2
;
_chemical_formula_sum "Si O2"
_cell_formula_units_Z 28
_cell_length_a 8.897995
_cell_length_b 9.349897
_cell_length_c 12.322011
_cell_angle_alpha 90.000000
_cell_angle_beta 90.000000
_cell_angle_gamma 90.000000
_cell_volume 1025.133855
_symmetry_space_group_name_H-M "A B A 2"
_symmetry_group_IT_number 41
_symmetry_cell_setting 'orthorhombic'
loop_
_space_group_symop_operation_xyz
x,y,z
-x,-y,z
1/2-x,y,1/2+z
1/2+x,-y,1/2+z
x,1/2+y,1/2+z
-x,1/2-y,1/2+z
1/2-x,1/2+y,z
1/2+x,1/2-y,z
loop_
_atom_site_type_symbol
_atom_site_label
_atom_site_fract_x
_atom_site_fract_y
_atom_site_fract_z
Si Si1 0.818415 0.425392 0.081270
Si Si2 0.000000 0.000000 0.975878
Si Si3 0.512448 0.310112 0.372392
Si Si4 0.236810 0.816873 0.728161
O O1 0.829196 0.273841 0.140962
O O2 0.847553 0.555787 0.165304
O O3 0.649798 0.466780 0.043704
O O4 0.914235 0.391309 0.973389
O O5 0.010848 0.857527 0.903913
O O6 0.626677 0.305794 0.273007
O O7 0.350547 0.357499 0.326131
#
# Coordination Sequence:
#
# PCOD9368007 Si02
#       4
#     8   4   8   8
#     4  12  27  53  85 122 173 230 294 363 438 535
#     4  12  24  56  78 124 182 228 280 370 446 512
#     4  12  27  53  84 124 177 225 294 367 432 535
#     4  12  28  52  82 124 166 232 292 352 455 521
#
# _framework density 27.313507999999999
#
# number of rings (size 3 to 8) (size 9 to 14) (size 15 to 20)
#    0.000    0.000    5.714    3.429    0.000    0.000 
#   10.286    0.000    0.000    0.000    0.000    0.000 
#    0.000    0.000    0.000    0.000    0.000    0.000 
#
# Total GULP energy -78449.551254 kJ/mol
# GULP energy per Si atom -5603.539375 kJ/mol
# Density = 2.725134 g / cm^3
# Si number density = 27.313508 Si / 1000 Ang^3
#
#
#
# Elastic Constant Matrix: (Units=GPa)
#
#
# Indices 1 2 3 4 5 6 
#
# 1 124.8188 48.1334 45.3138 0.0000 0.0000 0.0000
# 2 48.1334 188.5298 89.1643 0.0000 0.0000 0.0000
# 3 45.3138 89.1643 127.2832 0.0000 0.0000 0.0000
# 4 0.0000 0.0000 0.0000 64.1096 0.0000 0.0000
# 5 0.0000 0.0000 0.0000 0.0000 7.4412 0.0000
# 6 0.0000 0.0000 0.0000 0.0000 0.0000 38.9353
#
#
#
# Elastic Compliance Matrix: (Units=1/GPa)
#
#
# Indices 1 2 3 4 5 6 
#
# 1 0.009385 -0.001220 -0.002486 0.000000 0.000000 0.000000
# 2 -0.001220 0.008091 -0.005233 0.000000 0.000000 0.000000
# 3 -0.002486 -0.005233 0.012408 0.000000 0.000000 0.000000
# 4 0.000000 0.000000 0.000000 0.015598 0.000000 0.000000
# 5 0.000000 0.000000 0.000000 0.000000 0.134386 0.000000
# 6 0.000000 0.000000 0.000000 0.000000 0.000000 0.025684
#
#
# Mechanical properties :
#
#
# Convention : Reuss Voigt Hill
#
# Bulk Modulus (GPa) = 83.30820 89.53944 86.42382
# Shear Modulus (GPa) = 21.98455 39.29859 30.64157
#
# Velocity S-wave (km/s) = 2.84015 3.79726 3.35303
# Velocity P-wave (km/s) = 6.42823 7.21657 6.83378
#
# Compressibility (1/GPa) = 0.01200362
#
# Stress axis : x y z
#
# Youngs Moduli (GPa) = 106.55581 123.59683 80.59481
#
# Poissons Ratio (x) = 0.15080 0.20039
# Poissons Ratio (y) = 0.13001 0.42179
# Poissons Ratio (z) = 0.26493 0.64683
#
# Static dielectric constant tensor:
#      x y z
#    x 2.282210 0.000000 0.000000 
#    y 0.000000 2.085710 0.000000 
#    z 0.000000 0.000000 2.182190 
# 
# From -- ./inp_files/4246.got.cif
#   From: 2010.05.17/outbox.cif.g08.bks.cpg/sg41_3_cif.got.tgz:4246.got - 2010.06.03 18:54:24.
