data_PCOD9368490
_publ_section_title
;
Structure prediction by ZEFSAII (Michael W. Deem and Ramdas Pophale) SiO2 
 PCOD9368490
Probable space group: F M M 2
;
_chemical_formula_sum "Si O2"
_cell_formula_units_Z 48
_cell_length_a 15.883687
_cell_length_b 9.032140
_cell_length_c 18.768783
_cell_angle_alpha 90.000000
_cell_angle_beta 90.000000
_cell_angle_gamma 90.000000
_cell_volume 2692.638767
_symmetry_space_group_name_H-M "F M M 2"
_symmetry_group_IT_number 42
_symmetry_cell_setting 'orthorhombic'
loop_
_space_group_symop_operation_xyz
x,y,z
-x,-y,z
-x,y,z
x,-y,z
x,1/2+y,1/2+z
-x,1/2-y,1/2+z
-x,1/2+y,1/2+z
x,1/2-y,1/2+z
1/2+x,y,1/2+z
1/2-x,-y,1/2+z
1/2-x,y,1/2+z
1/2+x,-y,1/2+z
1/2+x,1/2+y,z
1/2-x,1/2-y,z
1/2-x,1/2+y,z
1/2+x,1/2-y,z
loop_
_atom_site_type_symbol
_atom_site_label
_atom_site_fract_x
_atom_site_fract_y
_atom_site_fract_z
Si Si1 0.000000 0.176374 0.546540
Si Si2 0.665636 0.323757 0.452720
Si Si3 0.000000 0.176241 0.199458
Si Si4 0.903654 0.169160 0.816553
O O1 0.083597 0.207586 0.500549
O O2 0.000000 0.267574 0.619229
O O3 0.000000 0.000000 0.562935
O O4 0.675227 0.500000 0.447517
O O5 0.750000 0.250000 0.482728
O O6 0.649833 0.255207 0.374555
O O7 0.919967 0.244727 0.242591
O O8 0.000000 0.000000 0.205191
O O9 0.000000 0.163557 0.845862
O O10 0.875341 0.000000 0.805882
#
# Coordination Sequence:
#
# PCOD9368490 Si02
#       4
#     8  16   8  16
#     4  10  21  38  57  79 115 155 187 230 283 340
#     4  11  22  37  59  86 116 149 190 235 282 336
#     4  10  19  32  57  85 111 147 189 234 287 338
#     4   9  18  34  57  82 110 144 186 230 276 330
#
# _framework density 17.82638
#
# number of rings (size 3 to 8) (size 9 to 14) (size 15 to 20)
#    1.000    1.000    1.667    3.000    0.000    2.667 
#    0.000    1.667    0.000    4.000    0.000    0.000 
#    0.000    0.000    0.000    0.000    0.000    0.000 
#
# Total GULP energy -66845.952626 kJ/mol
# GULP energy per Si atom -5570.496052 kJ/mol
# Density = 1.778581 g / cm^3
# Si number density = 17.826380 Si / 1000 Ang^3
#
#
#
# Elastic Constant Matrix: (Units=GPa)
#
#
# Indices 1 2 3 4 5 6 
#
# 1 101.8606 63.3146 40.6336 0.0000 0.0000 0.0000
# 2 63.3146 140.6120 91.7710 0.0000 0.0000 0.0000
# 3 40.6336 91.7710 111.6735 0.0000 0.0000 0.0000
# 4 0.0000 0.0000 0.0000 34.2182 0.0000 0.0000
# 5 0.0000 0.0000 0.0000 0.0000 4.7599 0.0000
# 6 0.0000 0.0000 0.0000 0.0000 0.0000 26.0316
#
#
#
# Elastic Compliance Matrix: (Units=1/GPa)
#
#
# Indices 1 2 3 4 5 6 
#
# 1 0.013635 -0.006258 0.000181 0.000000 0.000000 0.000000
# 2 -0.006258 0.018210 -0.012688 0.000000 0.000000 0.000000
# 3 0.000181 -0.012688 0.019315 0.000000 0.000000 0.000000
# 4 0.000000 0.000000 0.000000 0.029224 0.000000 0.000000
# 5 0.000000 0.000000 0.000000 0.000000 0.210087 0.000000
# 6 0.000000 0.000000 0.000000 0.000000 0.000000 0.038415
#
#
# Mechanical properties :
#
#
# Convention : Reuss Voigt Hill
#
# Bulk Modulus (GPa) = 73.35817 82.84272 78.10045
# Shear Modulus (GPa) = 13.47859 23.56374 18.52117
#
# Velocity S-wave (km/s) = 2.75272 3.63966 3.22681
# Velocity P-wave (km/s) = 7.16548 8.01472 7.60197
#
# Compressibility (1/GPa) = 0.01363175
#
# Stress axis : x y z
#
# Youngs Moduli (GPa) = 73.34224 54.91386 51.77236
#
# Poissons Ratio (x) = 0.34364 -0.00939
# Poissons Ratio (y) = 0.45896 0.65688
# Poissons Ratio (z) = -0.01330 0.69674
#
# Static dielectric constant tensor:
#      x y z
#    x 1.632220 0.000000 0.000000 
#    y 0.000000 1.601510 0.000000 
#    z 0.000000 0.000000 1.580740 
# 
# From -- ./inp_files/17643.got.cif
#   From: 2010.05.17/outbox.cif.g08.bks.cpg/sg42_9_cif.got.tgz:17643.got - 2010.06.03 19:03:34.
