data_PCOD9368163
_publ_section_title
;
Structure prediction by ZEFSAII (Michael W. Deem and Ramdas Pophale) SiO2 
 PCOD9368163
Probable space group: F M M 2
;
_chemical_formula_sum "Si O2"
_cell_formula_units_Z 112
_cell_length_a 14.527580
_cell_length_b 18.838367
_cell_length_c 19.807002
_cell_angle_alpha 90.000000
_cell_angle_beta 90.000000
_cell_angle_gamma 90.000000
_cell_volume 5420.698775
_symmetry_space_group_name_H-M "F M M 2"
_symmetry_group_IT_number 42
_symmetry_cell_setting 'orthorhombic'
loop_
_space_group_symop_operation_xyz
x,y,z
-x,-y,z
-x,y,z
x,-y,z
x,1/2+y,1/2+z
-x,1/2-y,1/2+z
-x,1/2+y,1/2+z
x,1/2-y,1/2+z
1/2+x,y,1/2+z
1/2-x,-y,1/2+z
1/2-x,y,1/2+z
1/2+x,-y,1/2+z
1/2+x,1/2+y,z
1/2-x,1/2-y,z
1/2-x,1/2+y,z
1/2+x,1/2-y,z
loop_
_atom_site_type_symbol
_atom_site_label
_atom_site_fract_x
_atom_site_fract_y
_atom_site_fract_z
Si Si1 0.648684 0.284539 0.213610
Si Si2 0.749944 0.579994 0.196831
Si Si3 0.395714 0.228160 0.356206
Si Si4 0.145047 0.721000 0.562964
Si Si5 0.889137 0.579791 0.316216
Si Si6 0.395811 0.161001 0.959779
Si Si7 0.261112 0.417206 0.038462
O O1 0.750000 0.250000 0.211660
O O2 0.671417 0.367181 0.222037
O O3 0.602091 0.249769 0.277666
O O4 0.607924 0.276731 0.139087
O O5 0.717153 0.500000 0.203218
O O6 0.839526 0.587572 0.243739
O O7 0.769790 0.592529 0.117504
O O8 0.500000 0.224211 0.382134
O O9 0.357463 0.148153 0.359270
O O10 0.354253 0.294414 0.396581
O O11 0.250000 0.750000 0.565239
O O12 0.096997 0.776783 0.515342
O O13 0.156706 0.641076 0.534140
O O14 0.867120 0.500000 0.341728
O O15 0.000000 0.584353 0.309460
O O16 0.500000 0.133324 0.946198
O O17 0.322745 0.105107 0.989517
O O18 0.285974 0.500000 0.029255
#
# Coordination Sequence:
#
# PCOD9368163 Si02
#       7
#    16  16  16  16  16  16  16
#     4  10  17  30  51  75  97 131 170 211 253 304
#     4   9  17  31  51  78 105 130 165 211 262 309
#     4  10  21  34  49  72 105 141 174 213 260 307
#     4   8  17  33  51  73 101 134 173 211 256 311
#     4   9  17  30  48  73 106 135 163 206 260 313
#     4  10  21  35  51  74 107 141 175 217 261 310
#     4   9  18  34  55  77 105 135 168 216 267 313
#
# _framework density 20.661543000000002
#
# number of rings (size 3 to 8) (size 9 to 14) (size 15 to 20)
#    0.000    2.714    1.429    0.857    0.000    3.143 
#    0.000    2.857    0.000    2.571    0.000    4.000 
#    0.000    0.000    0.000    0.000    0.000    0.000 
#
# Total GULP energy -155950.626637 kJ/mol
# GULP energy per Si atom -5569.665237 kJ/mol
# Density = 2.061452 g / cm^3
# Si number density = 20.661543 Si / 1000 Ang^3
#
#
#
# Elastic Constant Matrix: (Units=GPa)
#
#
# Indices 1 2 3 4 5 6 
#
# 1 34.8244 -2.7632 -3.1634 0.0000 0.0000 0.0000
# 2 -2.7632 118.0113 14.9724 0.0000 0.0000 0.0000
# 3 -3.1634 14.9724 54.0125 0.0000 0.0000 0.0000
# 4 0.0000 0.0000 0.0000 25.3016 0.0000 0.0000
# 5 0.0000 0.0000 0.0000 0.0000 14.6727 0.0000
# 6 0.0000 0.0000 0.0000 0.0000 0.0000 19.5811
#
#
#
# Elastic Compliance Matrix: (Units=1/GPa)
#
#
# Indices 1 2 3 4 5 6 
#
# 1 0.028895 0.000479 0.001560 0.000000 0.000000 0.000000
# 2 0.000479 0.008791 -0.002409 0.000000 0.000000 0.000000
# 3 0.001560 -0.002409 0.019273 0.000000 0.000000 0.000000
# 4 0.000000 0.000000 0.000000 0.039523 0.000000 0.000000
# 5 0.000000 0.000000 0.000000 0.000000 0.068154 0.000000
# 6 0.000000 0.000000 0.000000 0.000000 0.000000 0.051070
#
#
# Mechanical properties :
#
#
# Convention : Reuss Voigt Hill
#
# Bulk Modulus (GPa) = 17.78783 24.99332 21.39058
# Shear Modulus (GPa) = 21.25978 25.09791 23.17884
#
# Velocity S-wave (km/s) = 3.21121 3.48906 3.35301
# Velocity P-wave (km/s) = 4.73043 5.32486 5.03643
#
# Compressibility (1/GPa) = 0.05621820
#
# Stress axis : x y z
#
# Youngs Moduli (GPa) = 34.60790 113.75824 51.88530
#
# Poissons Ratio (x) = -0.05445 -0.08092
# Poissons Ratio (y) = -0.01657 0.12498
# Poissons Ratio (z) = -0.05398 0.27401
#
# Static dielectric constant tensor:
#      x y z
#    x 1.710960 0.000000 0.000000 
#    y 0.000000 1.809310 0.000000 
#    z 0.000000 0.000000 1.779500 
# 
# From -- ./inp_files/21052.got.cif
#   From: 2010.05.17/outbox.cif.g08.bks.cpg/sg42_11_cif.got.tgz:21052.got - 2010.06.03 19:03:34.
