data_PCOD9368929
_publ_section_title
;
Structure prediction by ZEFSAII (Michael W. Deem and Ramdas Pophale) SiO2 
 PCOD9368929
Probable space group: F M M 2
;
_chemical_formula_sum "Si O2"
_cell_formula_units_Z 72
_cell_length_a 13.760201
_cell_length_b 18.126133
_cell_length_c 17.787723
_cell_angle_alpha 90.000000
_cell_angle_beta 90.000000
_cell_angle_gamma 90.000000
_cell_volume 4436.600235
_symmetry_space_group_name_H-M "F M M 2"
_symmetry_group_IT_number 42
_symmetry_cell_setting 'orthorhombic'
loop_
_space_group_symop_operation_xyz
x,y,z
-x,-y,z
-x,y,z
x,-y,z
x,1/2+y,1/2+z
-x,1/2-y,1/2+z
-x,1/2+y,1/2+z
x,1/2-y,1/2+z
1/2+x,y,1/2+z
1/2-x,-y,1/2+z
1/2-x,y,1/2+z
1/2+x,-y,1/2+z
1/2+x,1/2+y,z
1/2-x,1/2-y,z
1/2-x,1/2+y,z
1/2+x,1/2-y,z
loop_
_atom_site_type_symbol
_atom_site_label
_atom_site_fract_x
_atom_site_fract_y
_atom_site_fract_z
Si Si1 0.750000 0.250000 0.150780
Si Si2 0.388757 0.684055 0.400780
Si Si3 0.113351 0.810365 0.025934
Si Si4 0.613351 0.189635 0.275627
Si Si5 0.800580 0.412450 0.400780
O O1 0.818738 0.201123 0.097452
O O2 0.681262 0.201123 0.204109
O O3 0.500000 0.657311 0.400781
O O4 0.375365 0.737898 0.472572
O O5 0.375365 0.737898 0.328989
O O6 0.307895 0.621521 0.400781
O O7 0.000000 0.816736 0.045800
O O8 0.146061 0.878045 0.973544
O O9 0.500000 0.183264 0.255761
O O10 0.646061 0.121955 0.328017
O O11 0.801294 0.500000 0.400780
#
# Coordination Sequence:
#
# PCOD9368929 Si02
#       5
#     8  16  16  16  16
#     4  12  18  34  58  82 112 130 172 228 264 312
#     4   9  17  35  57  77 103 138 188 225 245 299
#     4  10  20  34  57  82 103 138 181 220 261 306
#     4  10  20  34  57  82 103 138 181 220 261 306
#     4  11  20  36  57  78 109 140 176 222 260 310
#
# _framework density 16.228643000000002
#
# number of rings (size 3 to 8) (size 9 to 14) (size 15 to 20)
#    0.000    1.778    4.444    4.000    0.000    2.222 
#    0.000    1.111    0.000    0.000    0.000    0.000 
#    0.000    0.000    0.000    0.000    0.000    0.000 
#
# Total GULP energy -100460.498632 kJ/mol
# GULP energy per Si atom -5581.138813 kJ/mol
# Density = 1.619171 g / cm^3
# Si number density = 16.228643 Si / 1000 Ang^3
#
#
#
# Elastic Constant Matrix: (Units=GPa)
#
#
# Indices 1 2 3 4 5 6 
#
# 1 162.5371 68.6792 75.4974 0.0000 0.0000 0.0000
# 2 68.6792 115.5752 45.5431 0.0000 0.0000 0.0000
# 3 75.4974 45.5431 111.9034 0.0000 0.0000 0.0000
# 4 0.0000 0.0000 0.0000 4.3412 0.0000 0.0000
# 5 0.0000 0.0000 0.0000 0.0000 27.1341 0.0000
# 6 0.0000 0.0000 0.0000 0.0000 0.0000 11.8511
#
#
#
# Elastic Compliance Matrix: (Units=1/GPa)
#
#
# Indices 1 2 3 4 5 6 
#
# 1 0.010335 -0.004042 -0.005328 0.000000 0.000000 0.000000
# 2 -0.004042 0.011886 -0.002110 0.000000 0.000000 0.000000
# 3 -0.005328 -0.002110 0.013390 0.000000 0.000000 0.000000
# 4 0.000000 0.000000 0.000000 0.230350 0.000000 0.000000
# 5 0.000000 0.000000 0.000000 0.000000 0.036854 0.000000
# 6 0.000000 0.000000 0.000000 0.000000 0.000000 0.084380
#
#
# Mechanical properties :
#
#
# Convention : Reuss Voigt Hill
#
# Bulk Modulus (GPa) = 79.04904 85.49502 82.27203
# Shear Modulus (GPa) = 12.06646 22.01835 17.04241
#
# Velocity S-wave (km/s) = 2.72973 3.68742 3.24411
# Velocity P-wave (km/s) = 7.66489 8.42172 8.05220
#
# Compressibility (1/GPa) = 0.01265037
#
# Stress axis : x y z
#
# Youngs Moduli (GPa) = 96.75804 84.13301 74.68518
#
# Poissons Ratio (x) = 0.34007 0.39790
# Poissons Ratio (y) = 0.39111 0.15761
# Poissons Ratio (z) = 0.51549 0.17755
#
# Static dielectric constant tensor:
#      x y z
#    x 1.570330 0.000000 0.000000 
#    y 0.000000 1.498600 0.000000 
#    z 0.000000 0.000000 1.541960 
# 
# From -- ./inp_files/14878.got.cif
#   From: 2010.05.17/outbox.cif.g08.bks.cpg/sg42_8_cif.got.tgz:14878.got - 2010.06.03 19:03:34.
