data_PCOD9368061
_publ_section_title
;
Structure prediction by ZEFSAII (Michael W. Deem and Ramdas Pophale) SiO2 
 PCOD9368061
Probable space group: A B A 2
;
_chemical_formula_sum "Si O2"
_cell_formula_units_Z 24
_cell_length_a 9.000000
_cell_length_b 15.000000
_cell_length_c 18.000000
_cell_angle_alpha 90.000000
_cell_angle_beta 90.000000
_cell_angle_gamma 90.000000
_cell_volume 2430.000000
_symmetry_space_group_name_H-M "A B A 2"
_symmetry_group_IT_number 41
_symmetry_cell_setting 'orthorhombic'
loop_
_space_group_symop_operation_xyz
x,y,z
-x,-y,z
1/2-x,y,1/2+z
1/2+x,-y,1/2+z
x,1/2+y,1/2+z
-x,1/2-y,1/2+z
1/2-x,1/2+y,z
1/2+x,1/2-y,z
loop_
_atom_site_type_symbol
_atom_site_label
_atom_site_fract_x
_atom_site_fract_y
_atom_site_fract_z
Si Si1 0.120962 0.189868 0.687830
Si Si2 0.821303 0.485461 0.675283
Si Si3 0.759447 0.650787 0.935214
Si Si4 0.805118 0.151652 0.760660
Si Si5 0.676099 0.480595 0.516559
Si Si6 0.567951 0.793209 0.013043
O O1 0.246619 0.111754 0.689765
O O2 0.202978 0.278039 0.716128
O O3 0.060518 0.203456 0.603065
O O4 0.977469 0.167004 0.738234
O O5 0.744452 0.554862 0.731259
O O6 0.766820 0.503248 0.590858
O O7 0.000000 0.500000 0.680690
O O8 0.728984 0.664267 0.848090
O O9 0.767205 0.545780 0.952819
O O10 0.635630 0.701954 0.983058
O O11 0.915244 0.687493 0.969267
O O12 0.500000 0.500000 0.531266
O O13 0.678686 0.376481 0.496109
#
# Coordination Sequence:
#
# PCOD9368061 Si02
#       6
#     8   8   8   8   8   8
#     4  11  23  42  67  91 124 168 212 261 310 377
#     4  11  23  40  64  91 121 164 216 261 309 376
#     4  11  23  38  61  90 124 158 198 256 316 372
#     4  12  24  40  62  93 128 162 205 262 327 379
#     4   9  20  40  63  86 120 164 206 252 308 370
#     4  10  21  40  63  87 118 162 207 250 303 368
#
# _framework density 9.8765429999999999
#
# number of rings (size 3 to 8) (size 9 to 14) (size 15 to 20)
#    0.000    1.333    0.000    7.500    0.000    7.333 
#    0.000    3.333    0.000    0.000    0.000    0.000 
#    0.000    0.000    0.000    0.000    0.000    0.000 
#
# Total GULP energy -134098.423933 kJ/mol
# GULP energy per Si atom -5587.434331 kJ/mol
# Density = 0.985406 g / cm^3
# Si number density = 9.876543 Si / 1000 Ang^3
#
#
#
# Elastic Constant Matrix: (Units=GPa)
#
#
# Indices 1 2 3 4 5 6 
#
# 1 86.5073 -1.3676 36.3963 0.0000 0.0000 0.0000
# 2 -1.3676 51.5532 36.9546 0.0000 0.0000 0.0000
# 3 36.3963 36.9546 126.6477 0.0000 0.0000 0.0000
# 4 0.0000 0.0000 0.0000 15.9898 0.0000 0.0000
# 5 0.0000 0.0000 0.0000 0.0000 29.0641 0.0000
# 6 0.0000 0.0000 0.0000 0.0000 0.0000 29.4093
#
#
#
# Elastic Compliance Matrix: (Units=1/GPa)
#
#
# Indices 1 2 3 4 5 6 
#
# 1 0.013789 0.004054 -0.005146 0.000000 0.000000 0.000000
# 2 0.004054 0.025720 -0.008670 0.000000 0.000000 0.000000
# 3 -0.005146 -0.008670 0.011905 0.000000 0.000000 0.000000
# 4 0.000000 0.000000 0.000000 0.062540 0.000000 0.000000
# 5 0.000000 0.000000 0.000000 0.000000 0.034407 0.000000
# 6 0.000000 0.000000 0.000000 0.000000 0.000000 0.034003
#
#
# Mechanical properties :
#
#
# Convention : Reuss Voigt Hill
#
# Bulk Modulus (GPa) = 31.35727 45.40832 38.38280
# Shear Modulus (GPa) = 23.52771 27.74096 25.63433
#
# Velocity S-wave (km/s) = 3.45496 3.75158 3.60632
# Velocity P-wave (km/s) = 5.64134 6.46558 6.06747
#
# Compressibility (1/GPa) = 0.03189053
#
# Stress axis : x y z
#
# Youngs Moduli (GPa) = 72.52289 38.88050 84.00184
#
# Poissons Ratio (x) = -0.15763 0.43225
# Poissons Ratio (y) = -0.29403 0.72829
# Poissons Ratio (z) = 0.37318 0.33709
#
# Static dielectric constant tensor:
#      x y z
#    x 1.688600 0.000000 0.000000 
#    y 0.000000 1.725790 0.000000 
#    z 0.000000 0.000000 1.657910 
# 
# From -- ./inp_files/9660.got.cif
#   From: 2010.05.17/outbox.ucp.g08.bks.cvg/sg41_5_cif.got.tgz:9660.got - 2010.06.11 16:28:22.
