data_PCOD9368056
_publ_section_title
;
Structure prediction by ZEFSAII (Michael W. Deem and Ramdas Pophale) SiO2 
 PCOD9368056
Probable space group: A B A 2
;
_chemical_formula_sum "Si O2"
_cell_formula_units_Z 30
_cell_length_a 18.000000
_cell_length_b 18.000000
_cell_length_c 9.000000
_cell_angle_alpha 90.000000
_cell_angle_beta 90.000000
_cell_angle_gamma 90.000000
_cell_volume 2916.000000
_symmetry_space_group_name_H-M "A B A 2"
_symmetry_group_IT_number 41
_symmetry_cell_setting 'orthorhombic'
loop_
_space_group_symop_operation_xyz
x,y,z
-x,-y,z
1/2-x,y,1/2+z
1/2+x,-y,1/2+z
x,1/2+y,1/2+z
-x,1/2-y,1/2+z
1/2-x,1/2+y,z
1/2+x,1/2-y,z
loop_
_atom_site_type_symbol
_atom_site_label
_atom_site_fract_x
_atom_site_fract_y
_atom_site_fract_z
Si Si1 0.482922 0.844765 0.191630
Si Si2 0.161994 0.984930 0.894415
Si Si3 0.408639 0.153633 0.908904
Si Si4 0.687464 0.482314 0.545490
Si Si5 0.949415 0.194103 0.255013
Si Si6 0.000000 0.500000 0.363169
Si Si7 0.665089 0.688649 0.980718
Si Si8 0.837761 0.156236 0.517061
O O1 0.519387 0.777652 0.282294
O O2 0.490034 0.925506 0.264624
O O3 0.533038 0.843134 0.044759
O O4 0.397725 0.827695 0.147204
O O5 0.078814 0.006245 0.944770
O O6 0.166564 0.893944 0.902023
O O7 0.174260 0.016136 0.725152
O O8 0.225740 0.019336 0.999129
O O9 0.471426 0.149426 0.775701
O O10 0.357649 0.229789 0.909767
O O11 0.357506 0.081772 0.954656
O O12 0.665236 0.566582 0.501927
O O13 0.883346 0.182224 0.373176
O O14 0.902561 0.181962 0.102348
O O15 0.753534 0.689329 0.033037
#
# Coordination Sequence:
#
# PCOD9368056 Si02
#       8
#     8   8   8   8   8   4   8   8
#     4  10  19  38  65  95 131 176 235 272 341 416
#     4  11  25  43  69 100 139 179 232 278 345 421
#     4  10  21  43  66  97 136 177 228 287 349 413
#     4  11  24  45  69 101 134 183 232 286 343 422
#     4  10  23  39  65 103 133 172 238 290 331 423
#     4  12  20  40  68  88 134 190 216 278 356 402
#     4  10  24  42  69 101 136 181 231 285 351 412
#     4  10  22  39  71  90 134 185 222 280 345 417
#
# _framework density 10.288066000000001
#
# number of rings (size 3 to 8) (size 9 to 14) (size 15 to 20)
#    0.000    1.600    2.667    0.800    7.467    2.667 
#    4.800    0.000    0.000    0.000    0.000    0.000 
#    0.000    0.000    0.000    0.000    0.000    0.000 
#
# Total GULP energy -167031.252150 kJ/mol
# GULP energy per Si atom -5567.708405 kJ/mol
# Density = 1.026465 g / cm^3
# Si number density = 10.288066 Si / 1000 Ang^3
#
#
#
# Elastic Constant Matrix: (Units=GPa)
#
#
# Indices 1 2 3 4 5 6 
#
# 1 213.0897 51.3744 30.4090 0.0000 0.0000 0.0000
# 2 51.3744 94.9124 22.9791 0.0000 0.0000 0.0000
# 3 30.4090 22.9791 34.9359 0.0000 0.0000 0.0000
# 4 0.0000 0.0000 0.0000 29.7206 0.0000 0.0000
# 5 0.0000 0.0000 0.0000 0.0000 46.0573 0.0000
# 6 0.0000 0.0000 0.0000 0.0000 0.0000 47.4473
#
#
#
# Elastic Compliance Matrix: (Units=1/GPa)
#
#
# Indices 1 2 3 4 5 6 
#
# 1 0.005738 -0.002256 -0.003510 0.000000 0.000000 0.000000
# 2 -0.002256 0.013419 -0.006863 0.000000 0.000000 0.000000
# 3 -0.003510 -0.006863 0.036193 0.000000 0.000000 0.000000
# 4 0.000000 0.000000 0.000000 0.033647 0.000000 0.000000
# 5 0.000000 0.000000 0.000000 0.000000 0.021712 0.000000
# 6 0.000000 0.000000 0.000000 0.000000 0.000000 0.021076
#
#
# Mechanical properties :
#
#
# Convention : Reuss Voigt Hill
#
# Bulk Modulus (GPa) = 33.23155 61.38477 47.30816
# Shear Modulus (GPa) = 29.92711 40.52340 35.22526
#
# Velocity S-wave (km/s) = 3.81787 4.44265 4.14206
# Velocity P-wave (km/s) = 5.96829 7.49760 6.77622
#
# Compressibility (1/GPa) = 0.03009189
#
# Stress axis : x y z
#
# Youngs Moduli (GPa) = 174.28668 74.52374 27.62943
#
# Poissons Ratio (x) = 0.16811 0.09699
# Poissons Ratio (y) = 0.39315 0.18961
# Poissons Ratio (z) = 0.61182 0.51142
#
# Static dielectric constant tensor:
#      x y z
#    x 1.752400 0.000000 0.000000 
#    y 0.000000 1.745530 0.000000 
#    z 0.000000 0.000000 1.835170 
# 
# From -- ./inp_files/3169.got.cif
#   From: 2010.05.17/outbox.ucp.g08.bks.cvg/sg41_2_cif.got.tgz:3169.got - 2010.06.11 16:28:22.
