data_PCOD9368266
_publ_section_title
;
Structure prediction by ZEFSAII (Michael W. Deem and Ramdas Pophale) SiO2 
 PCOD9368266
Probable space group: F M M 2
;
_chemical_formula_sum "Si O2"
_cell_formula_units_Z 128
_cell_length_a 16.711834
_cell_length_b 17.980416
_cell_length_c 22.329857
_cell_angle_alpha 90.000000
_cell_angle_beta 90.000000
_cell_angle_gamma 90.000000
_cell_volume 6709.803324
_symmetry_space_group_name_H-M "F M M 2"
_symmetry_group_IT_number 42
_symmetry_cell_setting 'orthorhombic'
loop_
_space_group_symop_operation_xyz
x,y,z
-x,-y,z
-x,y,z
x,-y,z
x,1/2+y,1/2+z
-x,1/2-y,1/2+z
-x,1/2+y,1/2+z
x,1/2-y,1/2+z
1/2+x,y,1/2+z
1/2-x,-y,1/2+z
1/2-x,y,1/2+z
1/2+x,-y,1/2+z
1/2+x,1/2+y,z
1/2-x,1/2-y,z
1/2-x,1/2+y,z
1/2+x,1/2-y,z
loop_
_atom_site_type_symbol
_atom_site_label
_atom_site_fract_x
_atom_site_fract_y
_atom_site_fract_z
Si Si1 0.879536 0.652122 0.220160
Si Si2 0.840208 0.774268 0.419160
Si Si3 0.592724 0.315483 0.168792
Si Si4 0.734775 0.584847 0.381637
Si Si5 0.088841 0.855243 0.857939
Si Si6 0.591884 0.080913 0.097104
Si Si7 0.902195 0.239074 0.549295
Si Si8 0.288190 0.913164 0.739621
O O1 0.900153 0.736601 0.203505
O O2 0.908320 0.632986 0.286643
O O3 0.910690 0.598630 0.167926
O O4 0.785066 0.638701 0.220143
O O5 0.750000 0.750000 0.403803
O O6 0.827792 0.862442 0.416148
O O7 0.897463 0.732269 0.372622
O O8 0.866982 0.746403 0.484171
O O9 0.500000 0.334354 0.163587
O O10 0.623030 0.295879 0.101657
O O11 0.637272 0.379215 0.204935
O O12 0.727434 0.500000 0.400521
O O13 0.830032 0.606818 0.384267
O O14 0.709979 0.592053 0.311651
O O15 0.000000 0.877895 0.879897
O O16 0.500000 0.077424 0.076090
O O17 0.625989 0.156107 0.068349
O O18 0.629633 0.000000 0.086219
O O19 0.000000 0.239536 0.547486
O O20 0.274185 0.000000 0.725037
#
# Coordination Sequence:
#
# PCOD9368266 Si02
#       8
#    16  16  16  16  16  16  16  16
#     4  10  18  31  50  77 105 133 171 213 260 309
#     4  10  20  34  53  75 100 135 178 222 265 308
#     4  10  20  34  54  77 103 137 175 216 260 308
#     4   9  20  36  52  77 111 141 172 214 263 315
#     4  10  19  32  54  79 103 137 179 220 263 310
#     4   9  17  29  46  72 105 133 160 203 258 314
#     4   9  19  34  51  73 100 133 176 221 261 305
#     4  10  20  34  53  78 110 142 169 206 258 315
#
# _framework density 19.076564999999999
#
# number of rings (size 3 to 8) (size 9 to 14) (size 15 to 20)
#    0.000    2.375    0.000    3.750    0.000    5.500 
#    0.000    0.625    0.000    7.125    0.000    3.500 
#    0.000    0.000    0.000    0.000    0.000    0.000 
#
# Total GULP energy -178231.947692 kJ/mol
# GULP energy per Si atom -5569.748365 kJ/mol
# Density = 1.903315 g / cm^3
# Si number density = 19.076565 Si / 1000 Ang^3
#
#
#
# Elastic Constant Matrix: (Units=GPa)
#
#
# Indices 1 2 3 4 5 6 
#
# 1 50.3092 12.4311 19.7757 0.0000 0.0000 0.0000
# 2 12.4311 48.3661 6.0517 0.0000 0.0000 0.0000
# 3 19.7757 6.0517 28.8708 0.0000 0.0000 0.0000
# 4 0.0000 0.0000 0.0000 17.1076 0.0000 0.0000
# 5 0.0000 0.0000 0.0000 0.0000 24.4423 0.0000
# 6 0.0000 0.0000 0.0000 0.0000 0.0000 27.8464
#
#
#
# Elastic Compliance Matrix: (Units=1/GPa)
#
#
# Indices 1 2 3 4 5 6 
#
# 1 0.028324 -0.004983 -0.018357 0.000000 0.000000 0.000000
# 2 -0.004983 0.022109 -0.001221 0.000000 0.000000 0.000000
# 3 -0.018357 -0.001221 0.047467 0.000000 0.000000 0.000000
# 4 0.000000 0.000000 0.000000 0.058453 0.000000 0.000000
# 5 0.000000 0.000000 0.000000 0.000000 0.040913 0.000000
# 6 0.000000 0.000000 0.000000 0.000000 0.000000 0.035911
#
#
# Mechanical properties :
#
#
# Convention : Reuss Voigt Hill
#
# Bulk Modulus (GPa) = 20.50085 22.67365 21.58725
# Shear Modulus (GPa) = 16.74712 19.83179 18.28946
#
# Velocity S-wave (km/s) = 2.96614 3.22776 3.09971
# Velocity P-wave (km/s) = 4.74348 5.07963 4.91443
#
# Compressibility (1/GPa) = 0.04877845
#
# Stress axis : x y z
#
# Youngs Moduli (GPa) = 35.30561 45.23013 21.06729
#
# Poissons Ratio (x) = 0.22538 0.38673
# Poissons Ratio (y) = 0.17593 0.02573
# Poissons Ratio (z) = 0.64810 0.05523
#
# Static dielectric constant tensor:
#      x y z
#    x 1.621210 0.000000 0.000000 
#    y 0.000000 1.704960 0.000000 
#    z 0.000000 0.000000 1.660170 
# 
# From -- ./inp_files/29998.got.cif
#   From: 2010.05.17/outbox.cif.g08.bks.cpg/sg42_15_cif.got.tgz:29998.got - 2010.06.03 19:03:34.
