data_PCOD9368614
_publ_section_title
;
Structure prediction by ZEFSAII (Michael W. Deem and Ramdas Pophale) SiO2 
 PCOD9368614
Probable space group: F M M 2
;
_chemical_formula_sum "Si O2"
_cell_formula_units_Z 96
_cell_length_a 15.635583
_cell_length_b 25.529455
_cell_length_c 9.654213
_cell_angle_alpha 90.000000
_cell_angle_beta 90.000000
_cell_angle_gamma 90.000000
_cell_volume 3853.652051
_symmetry_space_group_name_H-M "F M M 2"
_symmetry_group_IT_number 42
_symmetry_cell_setting 'orthorhombic'
loop_
_space_group_symop_operation_xyz
x,y,z
-x,-y,z
-x,y,z
x,-y,z
x,1/2+y,1/2+z
-x,1/2-y,1/2+z
-x,1/2+y,1/2+z
x,1/2-y,1/2+z
1/2+x,y,1/2+z
1/2-x,-y,1/2+z
1/2-x,y,1/2+z
1/2+x,-y,1/2+z
1/2+x,1/2+y,z
1/2-x,1/2-y,z
1/2-x,1/2+y,z
1/2+x,1/2-y,z
loop_
_atom_site_type_symbol
_atom_site_label
_atom_site_fract_x
_atom_site_fract_y
_atom_site_fract_z
Si Si1 0.095524 0.500000 0.928840
Si Si2 0.905680 0.260693 0.638493
Si Si3 0.393432 0.000000 0.234479
Si Si4 0.405741 0.348058 0.484000
Si Si5 0.097583 0.403474 0.719497
Si Si6 0.709726 0.101054 0.211102
Si Si7 0.679048 0.794840 0.387838
O O1 0.102143 0.450021 0.832691
O O2 0.000000 0.500000 0.983536
O O3 0.141981 0.500000 0.073799
O O4 0.901025 0.210865 0.534605
O O5 0.889654 0.230780 0.782437
O O6 0.845640 0.299911 0.550167
O O7 0.000000 0.282855 0.634367
O O8 0.344898 0.053403 0.281524
O O9 0.500000 0.000000 0.258988
O O10 0.500000 0.368838 0.520338
O O11 0.398689 0.352425 0.319022
O O12 0.339958 0.380369 0.574177
O O13 0.193037 0.409842 0.660548
O O14 0.000000 0.406743 0.656381
O O15 0.706106 0.150362 0.318181
O O16 0.750000 0.750000 0.380049
#
# Coordination Sequence:
#
# PCOD9368614 Si02
#       7
#     8  16   8  16  16  16  16
#     4   9  17  32  56  84 114 152 206 259 309 383
#     4  10  21  38  61  89 125 168 217 274 335 404
#     4  11  21  38  63  96 130 166 215 275 336 405
#     4   9  18  35  59  86 117 160 215 269 320 390
#     4  10  19  34  57  86 117 154 207 265 320 385
#     4  11  22  36  63  95 125 165 215 278 339 397
#     4  11  23  40  62  94 133 173 223 277 343 409
#
# _framework density 24.911435000000001
#
# number of rings (size 3 to 8) (size 9 to 14) (size 15 to 20)
#    0.000    1.833    1.667    3.000    0.000    3.333 
#    0.000    0.833    0.000    2.000    0.000    1.167 
#    0.000    0.000    0.000    0.667    0.000    0.000 
#
# Total GULP energy -133797.812628 kJ/mol
# GULP energy per Si atom -5574.908860 kJ/mol
# Density = 2.485474 g / cm^3
# Si number density = 24.911435 Si / 1000 Ang^3
#
#
#
# Elastic Constant Matrix: (Units=GPa)
#
#
# Indices 1 2 3 4 5 6 
#
# 1 180.4431 37.4901 11.4073 0.0000 0.0000 0.0000
# 2 37.4901 114.3171 18.7679 0.0000 0.0000 0.0000
# 3 11.4073 18.7679 63.0511 0.0000 0.0000 0.0000
# 4 0.0000 0.0000 0.0000 -17.2527 0.0000 0.0000
# 5 0.0000 0.0000 0.0000 0.0000 30.4878 0.0000
# 6 0.0000 0.0000 0.0000 0.0000 0.0000 23.2981
#
#
#
# Elastic Compliance Matrix: (Units=1/GPa)
#
#
# Indices 1 2 3 4 5 6 
#
# 1 0.005963 -0.001870 -0.000522 0.000000 0.000000 0.000000
# 2 -0.001870 0.009783 -0.002574 0.000000 0.000000 0.000000
# 3 -0.000522 -0.002574 0.016721 0.000000 0.000000 0.000000
# 4 0.000000 0.000000 0.000000 -0.057962 0.000000 0.000000
# 5 0.000000 0.000000 0.000000 0.000000 0.032800 0.000000
# 6 0.000000 0.000000 0.000000 0.000000 0.000000 0.042922
#
#
# Mechanical properties :
#
#
# Convention : Reuss Voigt Hill
#
# Bulk Modulus (GPa) = 44.37454 54.79356 49.58405
# Shear Modulus (GPa) = 73.88611 26.64970 50.26791
#
# Velocity S-wave (km/s) = 5.45196 3.27429 4.49694
# Velocity P-wave (km/s) = 7.58178 6.02808 6.84913
#
# Compressibility (1/GPa) = 0.02253545
#
# Stress axis : x y z
#
# Youngs Moduli (GPa) = 167.68830 102.21394 59.80587
#
# Poissons Ratio (x) = 0.19114 0.03124
# Poissons Ratio (y) = 0.31357 0.15393
# Poissons Ratio (z) = 0.08758 0.26308
#
# Static dielectric constant tensor:
#      x y z
#    x 2.070330 0.000000 0.000000 
#    y 0.000000 2.148250 0.000000 
#    z 0.000000 0.000000 2.022020 
# 
# From -- ./inp_files/8074.got.cif
#   From: 2010.05.17/outbox.cif.g08.bks.cpg/sg42_5_cif.got.tgz:8074.got - 2010.06.03 19:03:34.
