data_PCOD9368376
_publ_section_title
;
Structure prediction by ZEFSAII (Michael W. Deem and Ramdas Pophale) SiO2 
 PCOD9368376
Probable space group: F M M 2
;
_chemical_formula_sum "Si O2"
_cell_formula_units_Z 88
_cell_length_a 18.883504
_cell_length_b 9.470666
_cell_length_c 23.722571
_cell_angle_alpha 90.000000
_cell_angle_beta 90.000000
_cell_angle_gamma 90.000000
_cell_volume 4242.529398
_symmetry_space_group_name_H-M "F M M 2"
_symmetry_group_IT_number 42
_symmetry_cell_setting 'orthorhombic'
loop_
_space_group_symop_operation_xyz
x,y,z
-x,-y,z
-x,y,z
x,-y,z
x,1/2+y,1/2+z
-x,1/2-y,1/2+z
-x,1/2+y,1/2+z
x,1/2-y,1/2+z
1/2+x,y,1/2+z
1/2-x,-y,1/2+z
1/2-x,y,1/2+z
1/2+x,-y,1/2+z
1/2+x,1/2+y,z
1/2-x,1/2-y,z
1/2-x,1/2+y,z
1/2+x,1/2-y,z
loop_
_atom_site_type_symbol
_atom_site_label
_atom_site_fract_x
_atom_site_fract_y
_atom_site_fract_z
Si Si1 0.160069 0.344258 0.675260
Si Si2 0.084607 0.331726 0.861567
Si Si3 0.500000 0.169183 0.040268
Si Si4 0.180783 0.167685 0.780957
Si Si5 0.250000 0.250000 0.069441
Si Si6 0.363315 0.835676 0.979660
Si Si7 0.500000 0.651406 0.143258
O O1 0.182612 0.500000 0.697242
O O2 0.178755 0.213857 0.715365
O O3 0.195907 0.325138 0.613536
O O4 0.074827 0.346395 0.674186
O O5 0.095293 0.500000 0.850015
O O6 0.112569 0.238034 0.810255
O O7 0.132620 0.283214 0.915399
O O8 0.000000 0.314256 0.873039
O O9 0.500000 0.214145 0.104024
O O10 0.500000 0.000000 0.036699
O O11 0.569503 0.229114 0.011109
O O12 0.250000 0.250000 0.804256
O O13 0.183925 0.000000 0.788708
O O14 0.299391 0.170651 0.023905
O O15 0.378534 0.000000 0.971040
O O16 0.500000 0.500000 0.111142
#
# Coordination Sequence:
#
# PCOD9368376 Si02
#       7
#    16  16   8  16   8  16   8
#     4  11  24  42  64  93 132 178 222 271 332 396
#     4  10  22  44  71  97 134 182 227 275 333 397
#     4  10  18  36  61  88 123 167 216 262 316 387
#     4  12  27  46  69  97 133 173 220 280 337 400
#     4  12  22  36  66  98 138 172 220 272 328 394
#     4  10  21  38  63  95 130 171 217 267 325 390
#     4  10  22  40  59  88 131 173 220 270 326 391
#
# _framework density 20.742343000000002
#
# number of rings (size 3 to 8) (size 9 to 14) (size 15 to 20)
#    0.000    1.273    3.636    2.182    2.545    1.818 
#    0.000    1.818    0.000    0.000    0.000    0.000 
#    0.000    0.000    0.000    0.000    0.000    0.000 
#
# Total GULP energy -122471.732576 kJ/mol
# GULP energy per Si atom -5566.896935 kJ/mol
# Density = 2.069513 g / cm^3
# Si number density = 20.742343 Si / 1000 Ang^3
#
#
#
# Elastic Constant Matrix: (Units=GPa)
#
#
# Indices 1 2 3 4 5 6 
#
# 1 95.9219 32.2873 23.5228 0.0000 0.0000 0.0000
# 2 32.2873 100.1015 36.8338 0.0000 0.0000 0.0000
# 3 23.5228 36.8338 92.0540 0.0000 0.0000 0.0000
# 4 0.0000 0.0000 0.0000 13.6262 0.0000 0.0000
# 5 0.0000 0.0000 0.0000 0.0000 27.3381 0.0000
# 6 0.0000 0.0000 0.0000 0.0000 0.0000 22.5012
#
#
#
# Elastic Compliance Matrix: (Units=1/GPa)
#
#
# Indices 1 2 3 4 5 6 
#
# 1 0.011936 -0.003199 -0.001770 0.000000 0.000000 0.000000
# 2 -0.003199 0.012572 -0.004213 0.000000 0.000000 0.000000
# 3 -0.001770 -0.004213 0.013001 0.000000 0.000000 0.000000
# 4 0.000000 0.000000 0.000000 0.073388 0.000000 0.000000
# 5 0.000000 0.000000 0.000000 0.000000 0.036579 0.000000
# 6 0.000000 0.000000 0.000000 0.000000 0.000000 0.044442
#
#
# Mechanical properties :
#
#
# Convention : Reuss Voigt Hill
#
# Bulk Modulus (GPa) = 52.23166 52.59614 52.41390
# Shear Modulus (GPa) = 23.07729 25.72199 24.39964
#
# Velocity S-wave (km/s) = 3.33914 3.52529 3.43347
# Velocity P-wave (km/s) = 6.33264 6.47936 6.40642
#
# Compressibility (1/GPa) = 0.01914548
#
# Stress axis : x y z
#
# Youngs Moduli (GPa) = 83.78112 79.54324 76.91537
#
# Poissons Ratio (x) = 0.25442 0.13615
# Poissons Ratio (y) = 0.26797 0.32405
# Poissons Ratio (z) = 0.14831 0.33512
#
# Static dielectric constant tensor:
#      x y z
#    x 1.928440 0.000000 0.000000 
#    y 0.000000 1.733190 0.000000 
#    z 0.000000 0.000000 1.771350 
# 
# From -- ./inp_files/30224.got.cif
#   From: 2010.05.17/outbox.cif.g08.bks.cpg/sg42_16_cif.got.tgz:30224.got - 2010.06.03 19:03:34.
