data_PCOD9368675
_publ_section_title
;
Structure prediction by ZEFSAII (Michael W. Deem and Ramdas Pophale) SiO2 
 PCOD9368675
Probable space group: F M M 2
;
_chemical_formula_sum "Si O2"
_cell_formula_units_Z 84
_cell_length_a 20.032282
_cell_length_b 7.868678
_cell_length_c 25.363748
_cell_angle_alpha 90.000000
_cell_angle_beta 90.000000
_cell_angle_gamma 90.000000
_cell_volume 3998.026132
_symmetry_space_group_name_H-M "F M M 2"
_symmetry_group_IT_number 42
_symmetry_cell_setting 'orthorhombic'
loop_
_space_group_symop_operation_xyz
x,y,z
-x,-y,z
-x,y,z
x,-y,z
x,1/2+y,1/2+z
-x,1/2-y,1/2+z
-x,1/2+y,1/2+z
x,1/2-y,1/2+z
1/2+x,y,1/2+z
1/2-x,-y,1/2+z
1/2-x,y,1/2+z
1/2+x,-y,1/2+z
1/2+x,1/2+y,z
1/2-x,1/2-y,z
1/2-x,1/2+y,z
1/2+x,1/2-y,z
loop_
_atom_site_type_symbol
_atom_site_label
_atom_site_fract_x
_atom_site_fract_y
_atom_site_fract_z
Si Si1 0.396289 0.188317 0.085800
Si Si2 0.322055 0.797268 0.490763
Si Si3 0.826963 0.302372 0.686804
Si Si4 0.673265 0.203590 0.306358
Si Si5 0.500000 0.500000 0.071467
Si Si6 0.576827 0.292194 0.900459
O O1 0.373232 0.203244 0.146252
O O2 0.442936 0.348038 0.072612
O O3 0.424190 0.000000 0.076701
O O4 0.333098 0.211267 0.047110
O O5 0.250000 0.750000 0.468017
O O6 0.382032 0.741477 0.452314
O O7 0.324790 0.000000 0.495632
O O8 0.834215 0.500000 0.674381
O O9 0.750000 0.250000 0.679911
O O10 0.842697 0.272742 0.748240
O O11 0.750000 0.250000 0.319490
O O12 0.620413 0.262350 0.350056
O O13 0.670174 0.000000 0.303686
O O14 0.500000 0.235142 0.900088
O O15 0.575653 0.500000 0.900348
#
# Coordination Sequence:
#
# PCOD9368675 Si02
#       6
#    16  16  16  16   4  16
#     4  12  25  44  68  98 133 175 220 265 325 394
#     4  11  22  39  66  96 130 170 220 275 329 390
#     4  11  21  39  64  94 128 167 217 277 332 385
#     4  10  19  35  60  91 121 164 217 268 329 390
#     4  12  26  48  64  98 136 180 216 264 328 392
#     4   9  20  37  60  87 125 170 215 269 333 395
#
# _framework density 21.010369000000001
#
# number of rings (size 3 to 8) (size 9 to 14) (size 15 to 20)
#    0.000    1.333    1.905    5.429    1.333    0.000 
#    1.714    2.857    0.000    6.286    0.000    0.000 
#    0.000    0.000    0.000    0.000    0.000    0.000 
#
# Total GULP energy -117108.025293 kJ/mol
# GULP energy per Si atom -5576.572633 kJ/mol
# Density = 2.096255 g / cm^3
# Si number density = 21.010369 Si / 1000 Ang^3
#
#
#
# Elastic Constant Matrix: (Units=GPa)
#
#
# Indices 1 2 3 4 5 6 
#
# 1 126.1933 21.4258 54.8675 0.0000 0.0000 0.0000
# 2 21.4258 129.2245 10.9069 0.0000 0.0000 -0.0001
# 3 54.8675 10.9069 86.1676 0.0000 0.0000 0.0000
# 4 0.0000 0.0000 0.0000 15.8929 0.0000 0.0000
# 5 0.0000 0.0000 0.0000 0.0000 -85.6857 0.0000
# 6 0.0000 -0.0001 0.0000 0.0000 0.0000 23.1308
#
#
#
# Elastic Compliance Matrix: (Units=1/GPa)
#
#
# Indices 1 2 3 4 5 6 
#
# 1 0.011159 -0.001264 -0.006945 0.000000 0.000000 0.000000
# 2 -0.001264 0.007965 -0.000203 0.000000 0.000000 0.000000
# 3 -0.006945 -0.000203 0.016054 0.000000 0.000000 0.000000
# 4 0.000000 0.000000 0.000000 0.062921 0.000000 0.000000
# 5 0.000000 0.000000 0.000000 0.000000 -0.011671 0.000000
# 6 0.000000 0.000000 0.000000 0.000000 0.000000 0.043232
#
#
# Mechanical properties :
#
#
# Convention : Reuss Voigt Hill
#
# Bulk Modulus (GPa) = 54.48988 57.33176 55.91082
# Shear Modulus (GPa) = 32.76473 7.62662 20.19567
#
# Velocity S-wave (km/s) = 3.95328 1.90730 3.10372
# Velocity P-wave (km/s) = 6.84317 5.67424 6.28593
#
# Compressibility (1/GPa) = 0.01835203
#
# Stress axis : x y z
#
# Youngs Moduli (GPa) = 89.61601 125.54610 62.29161
#
# Poissons Ratio (x) = 0.15868 0.43264
# Poissons Ratio (y) = 0.11327 0.01267
# Poissons Ratio (z) = 0.62242 0.02554
#
# Static dielectric constant tensor:
#      x y z
#    x 1.791170 0.000000 0.000000 
#    y 0.000000 1.756150 0.000000 
#    z 0.000000 0.000000 1.748760 
# 
# From -- ./inp_files/30133.got.cif
#   From: 2010.05.17/outbox.cif.g08.bks.cpg/sg42_16_cif.got.tgz:30133.got - 2010.06.03 19:03:34.
