data_PCOD9368186
_publ_section_title
;
Structure prediction by ZEFSAII (Michael W. Deem and Ramdas Pophale) SiO2 
 PCOD9368186
Probable space group: F M M 2
;
_chemical_formula_sum "Si O2"
_cell_formula_units_Z 100
_cell_length_a 7.711538
_cell_length_b 30.318926
_cell_length_c 20.438264
_cell_angle_alpha 90.000000
_cell_angle_beta 90.000000
_cell_angle_gamma 90.000000
_cell_volume 4778.579555
_symmetry_space_group_name_H-M "F M M 2"
_symmetry_group_IT_number 42
_symmetry_cell_setting 'orthorhombic'
loop_
_space_group_symop_operation_xyz
x,y,z
-x,-y,z
-x,y,z
x,-y,z
x,1/2+y,1/2+z
-x,1/2-y,1/2+z
-x,1/2+y,1/2+z
x,1/2-y,1/2+z
1/2+x,y,1/2+z
1/2-x,-y,1/2+z
1/2-x,y,1/2+z
1/2+x,-y,1/2+z
1/2+x,1/2+y,z
1/2-x,1/2-y,z
1/2-x,1/2+y,z
1/2+x,1/2-y,z
loop_
_atom_site_type_symbol
_atom_site_label
_atom_site_fract_x
_atom_site_fract_y
_atom_site_fract_z
Si Si1 0.707424 0.201117 0.343860
Si Si2 0.704554 0.665713 0.980315
Si Si3 0.000000 0.500000 0.489926
Si Si4 0.289057 0.949380 0.305330
Si Si5 0.293467 0.799657 0.120466
Si Si6 0.805693 0.432362 0.955331
Si Si7 0.211996 0.134966 0.732035
O O1 0.500000 0.197594 0.344714
O O2 0.750000 0.250000 0.321309
O O3 0.772052 0.192244 0.417155
O O4 0.769838 0.164312 0.293719
O O5 0.500000 0.658278 0.970970
O O6 0.789547 0.617684 0.980092
O O7 0.729989 0.691830 0.047185
O O8 0.153333 0.461886 0.484937
O O9 0.500000 0.948771 0.309943
O O10 0.222365 0.934268 0.376460
O O11 0.235782 0.914991 0.249031
O O12 0.236298 0.000000 0.293929
O O13 0.500000 0.802827 0.119727
O O14 0.250000 0.750000 0.142747
O O15 0.227484 0.838567 0.168171
O O16 0.000000 0.448213 0.969637
O O17 0.000000 0.134831 0.730059
#
# Coordination Sequence:
#
# PCOD9368186 Si02
#       7
#    16  16   4  16  16  16  16
#     4  10  20  34  56  83 119 156 201 259 327 384
#     4  11  22  40  62  86 125 168 208 265 328 381
#     4  12  22  40  60  94 140 168 214 264 326 374
#     4  10  17  34  61  89 123 164 206 261 329 385
#     4  11  23  40  61  87 121 169 220 265 323 398
#     4  12  22  36  63  97 128 171 216 263 320 387
#     4   9  19  36  59  85 121 163 208 262 325 386
#
# _framework density 20.926721000000001
#
# number of rings (size 3 to 8) (size 9 to 14) (size 15 to 20)
#    0.000    1.440    4.000    2.160    0.000    2.560 
#    0.000    2.400    1.760    0.000    0.000    0.000 
#    0.000    0.000    0.000    0.000    0.000    0.000 
#
# Total GULP energy -139399.497016 kJ/mol
# GULP energy per Si atom -5575.979881 kJ/mol
# Density = 2.087909 g / cm^3
# Si number density = 20.926721 Si / 1000 Ang^3
#
#
#
# Elastic Constant Matrix: (Units=GPa)
#
#
# Indices 1 2 3 4 5 6 
#
# 1 93.0509 6.9311 -5.1794 0.0000 0.0000 0.0000
# 2 6.9311 115.3401 14.9817 0.0000 0.0000 0.0000
# 3 -5.1794 14.9817 70.6498 0.0000 0.0000 0.0000
# 4 0.0000 0.0000 0.0000 35.2065 0.0000 0.0000
# 5 0.0000 0.0000 0.0000 0.0000 -98.7268 0.0000
# 6 0.0000 0.0000 0.0000 0.0000 0.0000 9.7306
#
#
#
# Elastic Compliance Matrix: (Units=1/GPa)
#
#
# Indices 1 2 3 4 5 6 
#
# 1 0.010858 -0.000777 0.000961 0.000000 0.000000 0.000000
# 2 -0.000777 0.008971 -0.001959 0.000000 0.000000 0.000000
# 3 0.000961 -0.001959 0.014640 0.000000 0.000000 0.000000
# 4 0.000000 0.000000 0.000000 0.028404 0.000000 0.000000
# 5 0.000000 0.000000 0.000000 0.000000 -0.010129 0.000000
# 6 0.000000 0.000000 0.000000 0.000000 0.000000 0.102768
#
#
# Mechanical properties :
#
#
# Convention : Reuss Voigt Hill
#
# Bulk Modulus (GPa) = 32.34360 34.72306 33.53333
# Shear Modulus (GPa) = 29.52107 6.72923 18.12515
#
# Velocity S-wave (km/s) = 3.75999 1.79516 2.94619
# Velocity P-wave (km/s) = 5.85997 4.57444 5.25665
#
# Compressibility (1/GPa) = 0.03091802
#
# Stress axis : x y z
#
# Youngs Moduli (GPa) = 92.09634 111.46745 68.30477
#
# Poissons Ratio (x) = 0.08664 -0.06563
# Poissons Ratio (y) = 0.07159 0.13384
# Poissons Ratio (z) = -0.08849 0.21841
#
# Static dielectric constant tensor:
#      x y z
#    x 1.772040 0.000000 0.000000 
#    y 0.000000 1.749780 0.000000 
#    z 0.000000 0.000000 1.745820 
# 
# From -- ./inp_files/23821.got.cif
#   From: 2010.05.17/outbox.cif.g08.bks.cpg/sg42_12_cif.got.tgz:23821.got - 2010.06.03 19:03:34.
