data_PCOD9368034
_publ_section_title
;
Structure prediction by ZEFSAII (Michael W. Deem and Ramdas Pophale) SiO2 
 PCOD9368034
Probable space group: A B A 2
;
_chemical_formula_sum "Si O2"
_cell_formula_units_Z 32
_cell_length_a 28.936561
_cell_length_b 5.149278
_cell_length_c 8.246110
_cell_angle_alpha 90.000000
_cell_angle_beta 90.000000
_cell_angle_gamma 90.000000
_cell_volume 1228.690156
_symmetry_space_group_name_H-M "A B A 2"
_symmetry_group_IT_number 41
_symmetry_cell_setting 'orthorhombic'
loop_
_space_group_symop_operation_xyz
x,y,z
-x,-y,z
1/2-x,y,1/2+z
1/2+x,-y,1/2+z
x,1/2+y,1/2+z
-x,1/2-y,1/2+z
1/2-x,1/2+y,z
1/2+x,1/2-y,z
loop_
_atom_site_type_symbol
_atom_site_label
_atom_site_fract_x
_atom_site_fract_y
_atom_site_fract_z
Si Si1 0.657005 0.308563 0.480750
Si Si2 0.217894 0.024885 0.771415
Si Si3 0.905421 0.057277 0.230378
Si Si4 0.468041 0.752655 0.016629
O O1 0.682458 0.051811 0.413972
O O2 0.689937 0.462819 0.602961
O O3 0.611466 0.227126 0.579644
O O4 0.640225 0.471629 0.327060
O O5 0.255076 0.794119 0.780590
O O6 0.939008 0.201056 0.353890
O O7 0.932387 0.809745 0.160568
O O8 0.500000 0.500000 0.002602
O O9 0.500000 0.000000 0.046672
#
# Coordination Sequence:
#
# PCOD9368034 Si02
#       4
#     8   8   8   8
#     4  12  27  50  77 112 154 200 254 314 381 454
#     4  12  27  50  78 113 153 202 255 315 380 454
#     4  12  28  50  78 113 154 202 254 315 382 454
#     4  12  29  52  79 114 154 202 256 316 381 456
#
# _framework density 26.043997999999998
#
# number of rings (size 3 to 8) (size 9 to 14) (size 15 to 20)
#    0.000    0.000    0.000    8.250    0.000   16.000 
#    0.000    0.000    0.000    0.000    0.000    0.000 
#    0.000    0.000    0.000    0.000    0.000    0.000 
#
# Total GULP energy -90006.232403 kJ/mol
# GULP energy per Si atom -5625.389525 kJ/mol
# Density = 2.598472 g / cm^3
# Si number density = 26.043998 Si / 1000 Ang^3
#
#
#
# Elastic Constant Matrix: (Units=GPa)
#
#
# Indices 1 2 3 4 5 6 
#
# 1 119.8703 54.0542 45.0311 0.0000 0.0000 0.0000
# 2 54.0542 142.9499 42.1999 0.0000 0.0000 0.0000
# 3 45.0311 42.1999 130.5179 0.0000 0.0000 0.0000
# 4 0.0000 0.0000 0.0000 45.0568 0.0000 0.0000
# 5 0.0000 0.0000 0.0000 0.0000 26.9098 0.0000
# 6 0.0000 0.0000 0.0000 0.0000 0.0000 22.7926
#
#
#
# Elastic Compliance Matrix: (Units=1/GPa)
#
#
# Indices 1 2 3 4 5 6 
#
# 1 0.010838 -0.003310 -0.002669 0.000000 0.000000 0.000000
# 2 -0.003310 0.008745 -0.001685 0.000000 0.000000 0.000000
# 3 -0.002669 -0.001685 0.009128 0.000000 0.000000 0.000000
# 4 0.000000 0.000000 0.000000 0.022194 0.000000 0.000000
# 5 0.000000 0.000000 0.000000 0.000000 0.037161 0.000000
# 6 0.000000 0.000000 0.000000 0.000000 0.000000 0.043874
#
#
# Mechanical properties :
#
#
# Convention : Reuss Voigt Hill
#
# Bulk Modulus (GPa) = 74.73283 75.10095 74.91689
# Shear Modulus (GPa) = 32.95361 35.75535 34.35448
#
# Velocity S-wave (km/s) = 3.56097 3.70926 3.63587
# Velocity P-wave (km/s) = 6.75755 6.87340 6.81572
#
# Compressibility (1/GPa) = 0.01338100
#
# Stress axis : x y z
#
# Youngs Moduli (GPa) = 92.27078 114.35527 109.55883
#
# Poissons Ratio (x) = 0.37854 0.29240
# Poissons Ratio (y) = 0.30544 0.18464
# Poissons Ratio (z) = 0.24626 0.19272
#
# Static dielectric constant tensor:
#      x y z
#    x 2.014330 0.000000 0.000000 
#    y 0.000000 1.986330 0.000000 
#    z 0.000000 0.000000 1.985440 
# 
# From -- ./inp_files/3866.got.cif
#   From: 2010.05.17/outbox.cif.g08.bks.cpg/sg41_2_cif.got.tgz:3866.got - 2010.06.03 18:54:24.
