data_PCOD9368453
_publ_section_title
;
Structure prediction by ZEFSAII (Michael W. Deem and Ramdas Pophale) SiO2 
 PCOD9368453
Probable space group: F M M 2
;
_chemical_formula_sum "Si O2"
_cell_formula_units_Z 96
_cell_length_a 8.538033
_cell_length_b 27.304829
_cell_length_c 23.889677
_cell_angle_alpha 90.000000
_cell_angle_beta 90.000000
_cell_angle_gamma 90.000000
_cell_volume 5569.389196
_symmetry_space_group_name_H-M "F M M 2"
_symmetry_group_IT_number 42
_symmetry_cell_setting 'orthorhombic'
loop_
_space_group_symop_operation_xyz
x,y,z
-x,-y,z
-x,y,z
x,-y,z
x,1/2+y,1/2+z
-x,1/2-y,1/2+z
-x,1/2+y,1/2+z
x,1/2-y,1/2+z
1/2+x,y,1/2+z
1/2-x,-y,1/2+z
1/2-x,y,1/2+z
1/2+x,-y,1/2+z
1/2+x,1/2+y,z
1/2-x,1/2-y,z
1/2-x,1/2+y,z
1/2+x,1/2-y,z
loop_
_atom_site_type_symbol
_atom_site_label
_atom_site_fract_x
_atom_site_fract_y
_atom_site_fract_z
Si Si1 0.812219 0.196377 0.073000
Si Si2 0.180706 0.800249 0.256175
Si Si3 0.187542 0.802997 0.944051
Si Si4 0.312801 0.372285 0.844527
Si Si5 0.687306 0.056866 0.759652
Si Si6 0.182494 0.367305 0.168117
O O1 0.750000 0.250000 0.092125
O O2 0.755093 0.150220 0.109553
O O3 0.000000 0.197905 0.075350
O O4 0.759343 0.190948 0.008289
O O5 0.250000 0.750000 0.276826
O O6 0.206999 0.838414 0.305159
O O7 0.286632 0.819181 0.205648
O O8 0.000000 0.797408 0.239375
O O9 0.250000 0.750000 0.923210
O O10 0.223347 0.850600 0.905955
O O11 0.000000 0.798650 0.944451
O O12 0.500000 0.364920 0.835309
O O13 0.268933 0.424579 0.817366
O O14 0.500000 0.062433 0.765205
O O15 0.741461 0.089837 0.706331
O O16 0.723717 0.000000 0.749804
O O17 0.000000 0.377612 0.162109
#
# Coordination Sequence:
#
# PCOD9368453 Si02
#       6
#    16  16  16  16  16  16
#     4  10  19  33  50  72 104 139 174 207 242 287
#     4  11  20  30  44  66  97 131 163 198 243 292
#     4   9  19  32  49  73 103 139 173 204 239 285
#     4  10  19  32  50  74 100 128 164 203 246 294
#     4  10  21  37  56  77  99 126 161 204 257 308
#     4  11  21  33  50  73  98 127 164 204 249 297
#
# _framework density 17.237078
#
# number of rings (size 3 to 8) (size 9 to 14) (size 15 to 20)
#    0.000    1.833    0.000    7.500    0.000    4.667 
#    0.000    0.000    0.000    1.000    0.000    2.333 
#    0.000    0.000    0.000    0.000    0.000    0.000 
#
# Total GULP energy -133656.525329 kJ/mol
# GULP energy per Si atom -5569.021889 kJ/mol
# Density = 1.719785 g / cm^3
# Si number density = 17.237078 Si / 1000 Ang^3
#
#
#
# Elastic Constant Matrix: (Units=GPa)
#
#
# Indices 1 2 3 4 5 6 
#
# 1 49.7427 34.9348 18.1065 0.0000 0.0000 0.0000
# 2 34.9348 89.7341 46.0979 0.0000 0.0000 0.0000
# 3 18.1065 46.0979 90.4683 0.0000 0.0000 0.0000
# 4 0.0000 0.0000 0.0000 25.9510 0.0000 0.0000
# 5 0.0000 0.0000 0.0000 0.0000 19.9431 0.0000
# 6 0.0000 0.0000 0.0000 0.0000 0.0000 23.9676
#
#
#
# Elastic Compliance Matrix: (Units=1/GPa)
#
#
# Indices 1 2 3 4 5 6 
#
# 1 0.027669 -0.010738 -0.000066 0.000000 0.000000 0.000000
# 2 -0.010738 0.019263 -0.007666 0.000000 0.000000 0.000000
# 3 -0.000066 -0.007666 0.014973 0.000000 0.000000 0.000000
# 4 0.000000 0.000000 0.000000 0.038534 0.000000 0.000000
# 5 0.000000 0.000000 0.000000 0.000000 0.050143 0.000000
# 6 0.000000 0.000000 0.000000 0.000000 0.000000 0.041723
#
#
# Mechanical properties :
#
#
# Convention : Reuss Voigt Hill
#
# Bulk Modulus (GPa) = 40.05745 47.58039 43.81892
# Shear Modulus (GPa) = 21.04675 22.69274 21.86974
#
# Velocity S-wave (km/s) = 3.49809 3.63231 3.56583
# Velocity P-wave (km/s) = 6.29326 6.72718 6.51384
#
# Compressibility (1/GPa) = 0.02496415
#
# Stress axis : x y z
#
# Youngs Moduli (GPa) = 36.14168 51.91384 66.78637
#
# Poissons Ratio (x) = 0.55744 0.00442
# Poissons Ratio (y) = 0.38809 0.51199
# Poissons Ratio (z) = 0.00239 0.39798
#
# Static dielectric constant tensor:
#      x y z
#    x 1.579730 0.000000 0.000000 
#    y 0.000000 1.577020 0.000000 
#    z 0.000000 0.000000 1.641630 
# 
# From -- ./inp_files/28175.got.cif
#   From: 2010.05.17/outbox.cif.g08.bks.cpg/sg42_15_cif.got.tgz:28175.got - 2010.06.03 19:03:34.
