data_PCOD9368357
_publ_section_title
;
Structure prediction by ZEFSAII (Michael W. Deem and Ramdas Pophale) SiO2 
 PCOD9368357
Probable space group: F M M 2
;
_chemical_formula_sum "Si O2"
_cell_formula_units_Z 80
_cell_length_a 21.879859
_cell_length_b 12.254868
_cell_length_c 12.858739
_cell_angle_alpha 90.000000
_cell_angle_beta 90.000000
_cell_angle_gamma 90.000000
_cell_volume 3447.875203
_symmetry_space_group_name_H-M "F M M 2"
_symmetry_group_IT_number 42
_symmetry_cell_setting 'orthorhombic'
loop_
_space_group_symop_operation_xyz
x,y,z
-x,-y,z
-x,y,z
x,-y,z
x,1/2+y,1/2+z
-x,1/2-y,1/2+z
-x,1/2+y,1/2+z
x,1/2-y,1/2+z
1/2+x,y,1/2+z
1/2-x,-y,1/2+z
1/2-x,y,1/2+z
1/2+x,-y,1/2+z
1/2+x,1/2+y,z
1/2-x,1/2-y,z
1/2-x,1/2+y,z
1/2+x,1/2-y,z
loop_
_atom_site_type_symbol
_atom_site_label
_atom_site_fract_x
_atom_site_fract_y
_atom_site_fract_z
Si Si1 0.846152 0.618940 0.500000
Si Si2 0.240360 0.626954 0.844697
Si Si3 0.570907 0.193896 0.083349
Si Si4 0.068366 0.850329 0.802537
Si Si5 0.405283 0.384855 0.358116
O O1 0.848504 0.500000 0.551075
O O2 0.778737 0.636419 0.452505
O O3 0.878608 0.710916 0.568571
O O4 0.886218 0.617572 0.393433
O O5 0.256408 0.500000 0.805026
O O6 0.250000 0.750000 0.792818
O O7 0.167995 0.622757 0.859270
O O8 0.500000 0.233120 0.091796
O O9 0.584782 0.122611 0.184893
O O10 0.574124 0.126974 0.977000
O O11 0.000000 0.884975 0.828011
O O12 0.069559 0.719185 0.800072
O O13 0.424360 0.500000 0.313241
#
# Coordination Sequence:
#
# PCOD9368357 Si02
#       5
#    16  16  16  16  16
#     4  10  20  36  57  79 109 146 183 229 283 336
#     4  10  18  34  60  86 112 146 190 236 284 340
#     4  10  21  35  53  80 111 143 185 232 278 332
#     4  10  21  35  53  80 111 143 185 232 278 332
#     4  10  20  36  57  79 109 146 183 229 283 336
#
# _framework density 23.202696
#
# number of rings (size 3 to 8) (size 9 to 14) (size 15 to 20)
#    0.000    2.000    4.000    2.400    0.000    4.800 
#    0.000    8.000    0.000    7.200    0.000    0.000 
#    0.000    0.000    0.000    0.000    0.000    0.000 
#
# Total GULP energy -111462.513499 kJ/mol
# GULP energy per Si atom -5573.125675 kJ/mol
# Density = 2.314989 g / cm^3
# Si number density = 23.202696 Si / 1000 Ang^3
#
#
#
# Elastic Constant Matrix: (Units=GPa)
#
#
# Indices 1 2 3 4 5 6 
#
# 1 111.3927 23.9207 2.1298 0.0000 0.0000 0.0000
# 2 23.9207 196.0497 -8.3700 0.0000 0.0000 0.0000
# 3 2.1298 -8.3700 58.7300 0.0000 0.0000 0.0000
# 4 0.0000 0.0000 0.0000 -47.3928 0.0000 0.0000
# 5 0.0000 0.0000 0.0000 0.0000 18.2832 0.0000
# 6 0.0000 0.0000 0.0000 0.0000 0.0000 -36.3260
#
#
#
# Elastic Compliance Matrix: (Units=1/GPa)
#
#
# Indices 1 2 3 4 5 6 
#
# 1 0.009233 -0.001148 -0.000498 0.000000 0.000000 0.000000
# 2 -0.001148 0.005275 0.000793 0.000000 0.000000 0.000000
# 3 -0.000498 0.000793 0.017158 0.000000 0.000000 0.000000
# 4 0.000000 0.000000 0.000000 -0.021100 0.000000 0.000000
# 5 0.000000 0.000000 0.000000 0.000000 0.054695 0.000000
# 6 0.000000 0.000000 0.000000 0.000000 0.000000 -0.027529
#
#
# Mechanical properties :
#
#
# Convention : Reuss Voigt Hill
#
# Bulk Modulus (GPa) = 33.37753 44.61483 38.99618
# Shear Modulus (GPa) = 101.16327 10.14569 55.65448
#
# Velocity S-wave (km/s) = 6.61018 2.09335 4.90289
# Velocity P-wave (km/s) = 8.52500 5.01127 6.99244
#
# Compressibility (1/GPa) = 0.02996028
#
# Stress axis : x y z
#
# Youngs Moduli (GPa) = 108.30396 189.58527 58.28114
#
# Poissons Ratio (x) = 0.21762 0.02905
# Poissons Ratio (y) = 0.12432 -0.04624
# Poissons Ratio (z) = 0.05398 -0.15041
#
# Static dielectric constant tensor:
#      x y z
#    x 1.812850 0.000000 0.000000 
#    y 0.000000 1.980220 0.000000 
#    z 0.000000 0.000000 1.825950 
# 
# From -- ./inp_files/15721.got.cif
#   From: 2010.05.17/outbox.cif.g08.bks.cpg/sg42_8_cif.got.tgz:15721.got - 2010.06.03 19:03:34.
