data_PCOD9368587
_publ_section_title
;
Structure prediction by ZEFSAII (Michael W. Deem and Ramdas Pophale) SiO2 
 PCOD9368587
Probable space group: F M M 2
;
_chemical_formula_sum "Si O2"
_cell_formula_units_Z 96
_cell_length_a 18.983998
_cell_length_b 8.694263
_cell_length_c 31.656555
_cell_angle_alpha 90.000000
_cell_angle_beta 90.000000
_cell_angle_gamma 90.000000
_cell_volume 5224.973645
_symmetry_space_group_name_H-M "F M M 2"
_symmetry_group_IT_number 42
_symmetry_cell_setting 'orthorhombic'
loop_
_space_group_symop_operation_xyz
x,y,z
-x,-y,z
-x,y,z
x,-y,z
x,1/2+y,1/2+z
-x,1/2-y,1/2+z
-x,1/2+y,1/2+z
x,1/2-y,1/2+z
1/2+x,y,1/2+z
1/2-x,-y,1/2+z
1/2-x,y,1/2+z
1/2+x,-y,1/2+z
1/2+x,1/2+y,z
1/2-x,1/2-y,z
1/2-x,1/2+y,z
1/2+x,1/2-y,z
loop_
_atom_site_type_symbol
_atom_site_label
_atom_site_fract_x
_atom_site_fract_y
_atom_site_fract_z
Si Si1 0.080826 0.812602 0.194160
Si Si2 0.172163 0.182000 0.864656
Si Si3 0.671249 0.315161 0.275159
Si Si4 0.917946 0.314235 0.036130
Si Si5 0.584152 0.181530 0.939963
Si Si6 0.328554 0.184553 0.612859
O O1 0.120645 0.766277 0.236977
O O2 0.125569 0.763943 0.153374
O O3 0.000000 0.759571 0.192424
O O4 0.079601 0.000000 0.193869
O O5 0.250000 0.250000 0.871844
O O6 0.145906 0.255315 0.820669
O O7 0.123970 0.226042 0.904057
O O8 0.177112 0.000000 0.859489
O O9 0.674804 0.500000 0.276014
O O10 0.750000 0.250000 0.268581
O O11 0.914313 0.500000 0.038663
O O12 0.868032 0.240792 0.070856
O O13 0.000000 0.270660 0.043149
O O14 0.898092 0.271297 0.988031
O O15 0.500000 0.197531 0.935618
O O16 0.600979 0.000000 0.935408
O O17 0.250000 0.250000 0.615171
O O18 0.325424 0.000000 0.613096
#
# Coordination Sequence:
#
# PCOD9368587 Si02
#       6
#    16  16  16  16  16  16
#     4   9  19  35  55  80 107 138 178 221 267 322
#     4  11  22  36  55  80 111 144 182 226 270 319
#     4  10  19  34  56  78 105 141 179 221 269 321
#     4   9  19  37  59  82 109 141 179 223 270 322
#     4   9  19  37  59  81 108 143 180 220 270 325
#     4  11  22  36  56  81 111 145 182 224 268 318
#
# _framework density 18.373298999999999
#
# number of rings (size 3 to 8) (size 9 to 14) (size 15 to 20)
#    0.000    2.167    0.000    5.500    0.000    3.333 
#    0.000    5.833    0.000    5.500    0.000    0.000 
#    0.000    0.000    0.000    0.000    0.000    0.000 
#
# Total GULP energy -134017.092784 kJ/mol
# GULP energy per Si atom -5584.045533 kJ/mol
# Density = 1.833148 g / cm^3
# Si number density = 18.373299 Si / 1000 Ang^3
#
#
#
# Elastic Constant Matrix: (Units=GPa)
#
#
# Indices 1 2 3 4 5 6 
#
# 1 109.5873 38.5391 101.2881 0.0000 0.0000 0.0000
# 2 38.5391 62.5709 53.3229 0.0000 0.0000 0.0000
# 3 101.2881 53.3229 172.6979 0.0000 0.0000 0.0000
# 4 0.0000 0.0000 0.0000 17.7880 0.0000 0.0000
# 5 0.0000 0.0000 0.0000 0.0000 39.6065 0.0000
# 6 0.0000 0.0000 0.0000 0.0000 0.0000 20.5186
#
#
#
# Elastic Compliance Matrix: (Units=1/GPa)
#
#
# Indices 1 2 3 4 5 6 
#
# 1 0.020393 -0.003213 -0.010968 0.000000 0.000000 0.000000
# 2 -0.003213 0.022195 -0.004968 0.000000 0.000000 0.000000
# 3 -0.010968 -0.004968 0.013758 0.000000 0.000000 0.000000
# 4 0.000000 0.000000 0.000000 0.056218 0.000000 0.000000
# 5 0.000000 0.000000 0.000000 0.000000 0.025248 0.000000
# 6 0.000000 0.000000 0.000000 0.000000 0.000000 0.048736
#
#
# Mechanical properties :
#
#
# Convention : Reuss Voigt Hill
#
# Bulk Modulus (GPa) = 55.41593 81.23958 68.32775
# Shear Modulus (GPa) = 21.65785 25.69636 23.67710
#
# Velocity S-wave (km/s) = 3.43704 3.74380 3.59370
# Velocity P-wave (km/s) = 6.78068 7.93727 7.38166
#
# Compressibility (1/GPa) = 0.01804535
#
# Stress axis : x y z
#
# Youngs Moduli (GPa) = 49.03663 45.05490 72.68731
#
# Poissons Ratio (x) = 0.14477 0.79726
# Poissons Ratio (y) = 0.15757 0.36114
# Poissons Ratio (z) = 0.53785 0.22385
#
# Static dielectric constant tensor:
#      x y z
#    x 1.604250 0.000000 0.000000 
#    y 0.000000 1.621820 0.000000 
#    z 0.000000 0.000000 1.621410 
# 
# From -- ./inp_files/32999.got.cif
#   From: 2010.05.17/outbox.cif.g08.bks.cpg/sg42_17_cif.got.tgz:32999.got - 2010.06.03 19:03:34.
