data_PCOD9368405
_publ_section_title
;
Structure prediction by ZEFSAII (Michael W. Deem and Ramdas Pophale) SiO2 
 PCOD9368405
Probable space group: F M M 2
;
_chemical_formula_sum "Si O2"
_cell_formula_units_Z 96
_cell_length_a 13.999119
_cell_length_b 22.280297
_cell_length_c 18.731953
_cell_angle_alpha 90.000000
_cell_angle_beta 90.000000
_cell_angle_gamma 90.000000
_cell_volume 5842.580979
_symmetry_space_group_name_H-M "F M M 2"
_symmetry_group_IT_number 42
_symmetry_cell_setting 'orthorhombic'
loop_
_space_group_symop_operation_xyz
x,y,z
-x,-y,z
-x,y,z
x,-y,z
x,1/2+y,1/2+z
-x,1/2-y,1/2+z
-x,1/2+y,1/2+z
x,1/2-y,1/2+z
1/2+x,y,1/2+z
1/2-x,-y,1/2+z
1/2-x,y,1/2+z
1/2+x,-y,1/2+z
1/2+x,1/2+y,z
1/2-x,1/2-y,z
1/2-x,1/2+y,z
1/2+x,1/2-y,z
loop_
_atom_site_type_symbol
_atom_site_label
_atom_site_fract_x
_atom_site_fract_y
_atom_site_fract_z
Si Si1 0.388344 0.854837 0.840830
Si Si2 0.113461 0.213219 0.633915
Si Si3 0.196162 0.841014 0.086527
Si Si4 0.114606 0.429346 0.701639
Si Si5 0.388930 0.284655 0.799169
Si Si6 0.228549 0.820430 0.933797
O O1 0.500000 0.864498 0.856206
O O2 0.358504 0.899336 0.777469
O O3 0.376992 0.786787 0.811236
O O4 0.324251 0.855267 0.911409
O O5 0.139984 0.281974 0.614788
O O6 0.190406 0.173263 0.592108
O O7 0.136657 0.202650 0.717525
O O8 0.000000 0.203317 0.622014
O O9 0.165993 0.895112 0.137166
O O10 0.176897 0.847626 0.002385
O O11 0.134017 0.500000 0.701701
O O12 0.000000 0.420198 0.694129
O O13 0.500000 0.298340 0.808089
O O14 0.331355 0.317872 0.860687
O O15 0.250000 0.750000 0.951392
#
# Coordination Sequence:
#
# PCOD9368405 Si02
#       6
#    16  16  16  16  16  16
#     4   9  17  30  48  69  95 128 168 208 242 287
#     4  10  19  31  49  73 102 135 168 204 251 304
#     4  11  20  32  48  76 107 136 163 207 258 308
#     4  10  20  35  56  77  97 131 178 221 256 291
#     4   9  17  28  45  67  96 132 160 194 240 296
#     4  10  19  30  44  74 106 133 158 193 255 315
#
# _framework density 16.431094000000002
#
# number of rings (size 3 to 8) (size 9 to 14) (size 15 to 20)
#    0.000    2.167    3.333    1.500    4.667    2.000 
#    0.000    0.833    0.000    0.500    0.000    0.000 
#    0.000    0.000    0.000    0.000    0.000    0.000 
#
# Total GULP energy -133784.187237 kJ/mol
# GULP energy per Si atom -5574.341135 kJ/mol
# Density = 1.639370 g / cm^3
# Si number density = 16.431094 Si / 1000 Ang^3
#
#
#
# Elastic Constant Matrix: (Units=GPa)
#
#
# Indices 1 2 3 4 5 6 
#
# 1 56.3686 26.2206 38.6851 0.0000 0.0000 0.0000
# 2 26.2206 57.2744 34.7971 0.0000 0.0000 0.0000
# 3 38.6851 34.7971 107.9063 0.0000 0.0000 0.0000
# 4 0.0000 0.0000 0.0000 7.6927 0.0000 0.0000
# 5 0.0000 0.0000 0.0000 0.0000 10.0840 0.0000
# 6 0.0000 0.0000 0.0000 0.0000 0.0000 14.3654
#
#
#
# Elastic Compliance Matrix: (Units=1/GPa)
#
#
# Indices 1 2 3 4 5 6 
#
# 1 0.026044 -0.007773 -0.006830 0.000000 0.000000 0.000000
# 2 -0.007773 0.024034 -0.004964 0.000000 0.000000 0.000000
# 3 -0.006830 -0.004964 0.013317 0.000000 0.000000 0.000000
# 4 0.000000 0.000000 0.000000 0.129993 0.000000 0.000000
# 5 0.000000 0.000000 0.000000 0.000000 0.099167 0.000000
# 6 0.000000 0.000000 0.000000 0.000000 0.000000 0.069612
#
#
# Mechanical properties :
#
#
# Convention : Reuss Voigt Hill
#
# Bulk Modulus (GPa) = 41.21966 46.77276 43.99621
# Shear Modulus (GPa) = 12.21339 14.55154 13.38247
#
# Velocity S-wave (km/s) = 2.72933 2.97915 2.85697
# Velocity P-wave (km/s) = 5.92226 6.35308 6.14145
#
# Compressibility (1/GPa) = 0.02426027
#
# Stress axis : x y z
#
# Youngs Moduli (GPa) = 38.39706 41.60752 75.09434
#
# Poissons Ratio (x) = 0.32343 0.51290
# Poissons Ratio (y) = 0.29847 0.37274
# Poissons Ratio (z) = 0.26226 0.20652
#
# Static dielectric constant tensor:
#      x y z
#    x 1.599220 0.000000 0.000000 
#    y 0.000000 1.518160 0.000000 
#    z 0.000000 0.000000 1.568610 
# 
# From -- ./inp_files/13971.got.cif
#   From: 2010.05.17/outbox.cif.g08.bks.cpg/sg42_7_cif.got.tgz:13971.got - 2010.06.03 19:03:34.
