data_PCOD9368176
_publ_section_title
;
Structure prediction by ZEFSAII (Michael W. Deem and Ramdas Pophale) SiO2 
 PCOD9368176
Probable space group: F M M 2
;
_chemical_formula_sum "Si O2"
_cell_formula_units_Z 112
_cell_length_a 18.008674
_cell_length_b 16.572057
_cell_length_c 22.995131
_cell_angle_alpha 90.000000
_cell_angle_beta 90.000000
_cell_angle_gamma 90.000000
_cell_volume 6862.684648
_symmetry_space_group_name_H-M "F M M 2"
_symmetry_group_IT_number 42
_symmetry_cell_setting 'orthorhombic'
loop_
_space_group_symop_operation_xyz
x,y,z
-x,-y,z
-x,y,z
x,-y,z
x,1/2+y,1/2+z
-x,1/2-y,1/2+z
-x,1/2+y,1/2+z
x,1/2-y,1/2+z
1/2+x,y,1/2+z
1/2-x,-y,1/2+z
1/2-x,y,1/2+z
1/2+x,-y,1/2+z
1/2+x,1/2+y,z
1/2-x,1/2-y,z
1/2-x,1/2+y,z
1/2+x,1/2-y,z
loop_
_atom_site_type_symbol
_atom_site_label
_atom_site_fract_x
_atom_site_fract_y
_atom_site_fract_z
Si Si1 0.278134 0.657399 0.799660
Si Si2 0.733135 0.406051 0.173739
Si Si3 0.086698 0.405244 0.987552
Si Si4 0.086771 0.691697 0.661203
Si Si5 0.584111 0.248127 0.290978
Si Si6 0.141688 0.407283 0.855324
Si Si7 0.680540 0.698512 0.577260
O O1 0.250000 0.750000 0.794101
O O2 0.261764 0.615369 0.738285
O O3 0.363666 0.675350 0.811901
O O4 0.229290 0.611020 0.847179
O O5 0.741354 0.500000 0.162562
O O6 0.646800 0.379660 0.169012
O O7 0.780997 0.355029 0.127741
O O8 0.091580 0.500000 0.003030
O O9 0.139039 0.354082 0.029412
O O10 0.000000 0.381302 0.991823
O O11 0.113538 0.397920 0.920918
O O12 0.091801 0.742415 0.721300
O O13 0.119875 0.744797 0.608827
O O14 0.000000 0.669538 0.653416
O O15 0.500000 0.231439 0.306168
O O16 0.604972 0.336169 0.317157
O O17 0.125887 0.500000 0.836696
O O18 0.750000 0.750000 0.552699
#
# Coordination Sequence:
#
# PCOD9368176 Si02
#       7
#    16  16  16  16  16  16  16
#     4  10  17  32  49  70 102 133 173 206 251 307
#     4  11  19  31  50  74 102 134 173 215 256 308
#     4  10  21  37  54  77 109 139 173 220 265 306
#     4  10  19  32  50  73 102 136 171 214 257 303
#     4  10  19  31  50  73 103 137 170 211 257 305
#     4  10  20  33  53  78 104 135 171 212 263 312
#     4  10  20  35  54  75 103 138 182 212 253 306
#
# _framework density 16.320143999999999
#
# number of rings (size 3 to 8) (size 9 to 14) (size 15 to 20)
#    0.000    1.857    4.286    2.143    0.000    2.857 
#    0.000    1.429    0.000    2.571    0.000    0.000 
#    0.000    5.714    0.000    0.000    0.000    0.000 
#
# Total GULP energy -156026.391102 kJ/mol
# GULP energy per Si atom -5572.371111 kJ/mol
# Density = 1.628300 g / cm^3
# Si number density = 16.320144 Si / 1000 Ang^3
#
#
#
# Elastic Constant Matrix: (Units=GPa)
#
#
# Indices 1 2 3 4 5 6 
#
# 1 140.8097 41.2811 40.5249 0.0000 0.0000 0.0000
# 2 41.2811 51.6370 20.5072 0.0000 0.0000 0.0000
# 3 40.5249 20.5072 54.6237 0.0000 0.0000 0.0000
# 4 0.0000 0.0000 0.0000 25.0033 0.0000 0.0000
# 5 0.0000 0.0000 0.0000 0.0000 19.0127 0.0000
# 6 0.0000 0.0000 0.0000 0.0000 0.0000 22.6330
#
#
#
# Elastic Compliance Matrix: (Units=1/GPa)
#
#
# Indices 1 2 3 4 5 6 
#
# 1 0.010495 -0.006227 -0.005449 0.000000 0.000000 0.000000
# 2 -0.006227 0.026453 -0.005312 0.000000 0.000000 0.000000
# 3 -0.005449 -0.005312 0.024344 0.000000 0.000000 0.000000
# 4 0.000000 0.000000 0.000000 0.039995 0.000000 0.000000
# 5 0.000000 0.000000 0.000000 0.000000 0.052596 0.000000
# 6 0.000000 0.000000 0.000000 0.000000 0.000000 0.044183
#
#
# Mechanical properties :
#
#
# Convention : Reuss Voigt Hill
#
# Bulk Modulus (GPa) = 36.60594 50.18853 43.39723
# Shear Modulus (GPa) = 20.73421 22.98028 21.85724
#
# Velocity S-wave (km/s) = 3.56823 3.75653 3.66359
# Velocity P-wave (km/s) = 6.28132 7.04518 6.67419
#
# Compressibility (1/GPa) = 0.02731797
#
# Stress axis : x y z
#
# Youngs Moduli (GPa) = 95.27986 37.80242 41.07830
#
# Poissons Ratio (x) = 0.23538 0.22383
# Poissons Ratio (y) = 0.59327 0.21820
# Poissons Ratio (z) = 0.51917 0.20080
#
# Static dielectric constant tensor:
#      x y z
#    x 1.599540 0.000000 0.000000 
#    y 0.000000 1.536000 0.000000 
#    z 0.000000 0.000000 1.525330 
# 
# From -- ./inp_files/26065.got.cif
#   From: 2010.05.17/outbox.cif.g08.bks.cpg/sg42_14_cif.got.tgz:26065.got - 2010.06.03 19:03:34.
