data_PCOD9368501
_publ_section_title
;
Structure prediction by ZEFSAII (Michael W. Deem and Ramdas Pophale) SiO2 
 PCOD9368501
Probable space group: F M M 2
;
_chemical_formula_sum "Si O2"
_cell_formula_units_Z 80
_cell_length_a 7.883227
_cell_length_b 14.970935
_cell_length_c 31.790993
_cell_angle_alpha 90.000000
_cell_angle_beta 90.000000
_cell_angle_gamma 90.000000
_cell_volume 3751.950073
_symmetry_space_group_name_H-M "F M M 2"
_symmetry_group_IT_number 42
_symmetry_cell_setting 'orthorhombic'
loop_
_space_group_symop_operation_xyz
x,y,z
-x,-y,z
-x,y,z
x,-y,z
x,1/2+y,1/2+z
-x,1/2-y,1/2+z
-x,1/2+y,1/2+z
x,1/2-y,1/2+z
1/2+x,y,1/2+z
1/2-x,-y,1/2+z
1/2-x,y,1/2+z
1/2+x,-y,1/2+z
1/2+x,1/2+y,z
1/2-x,1/2-y,z
1/2-x,1/2+y,z
1/2+x,1/2-y,z
loop_
_atom_site_type_symbol
_atom_site_label
_atom_site_fract_x
_atom_site_fract_y
_atom_site_fract_z
Si Si1 0.292131 0.000000 0.708010
Si Si2 0.700016 0.353542 0.047366
Si Si3 0.702061 0.855184 0.955594
Si Si4 0.704489 0.853815 0.773570
Si Si5 0.209029 0.000000 0.111664
Si Si6 0.795326 0.355372 0.865315
O O1 0.236322 0.085731 0.735074
O O2 0.500000 0.000000 0.707298
O O3 0.235079 0.000000 0.659899
O O4 0.500000 0.356145 0.050950
O O5 0.750000 0.250000 0.050137
O O6 0.768749 0.414458 0.084868
O O7 0.741292 0.390278 0.000756
O O8 0.500000 0.862747 0.954923
O O9 0.750000 0.750000 0.956170
O O10 0.767222 0.891179 0.910532
O O11 0.500000 0.859925 0.774557
O O12 0.750000 0.750000 0.768817
O O13 0.765961 0.887388 0.819657
O O14 0.000000 0.000000 0.112216
O O15 0.750000 0.250000 0.865422
O O16 0.000000 0.365275 0.865514
#
# Coordination Sequence:
#
# PCOD9368501 Si02
#       6
#     8  16  16  16   8  16
#     4   9  18  34  54  73  95 127 165 201 242 295
#     4  10  19  33  52  73  98 128 164 202 241 286
#     4   9  15  25  43  69 100 130 160 193 234 283
#     4   9  17  31  52  75  99 128 162 198 238 286
#     4   9  20  36  52  71  97 129 163 201 246 297
#     4   8  14  24  41  68  98 127 157 191 231 278
#
# _framework density 21.322244000000001
#
# number of rings (size 3 to 8) (size 9 to 14) (size 15 to 20)
#    0.000    3.000    0.000    2.400    0.000    1.600 
#    0.000    3.500    0.000    6.000    0.000    0.000 
#    0.000    0.000    0.000    0.000    0.000    0.000 
#
# Total GULP energy -111458.857369 kJ/mol
# GULP energy per Si atom -5572.942868 kJ/mol
# Density = 2.127371 g / cm^3
# Si number density = 21.322244 Si / 1000 Ang^3
#
#
#
# Elastic Constant Matrix: (Units=GPa)
#
#
# Indices 1 2 3 4 5 6 
#
# 1 25.0866 1.6345 14.0542 0.0000 0.0000 0.0000
# 2 1.6345 99.1195 95.2132 0.0000 0.0000 0.0000
# 3 14.0542 95.2132 279.8608 0.0000 0.0000 0.0000
# 4 0.0000 0.0000 0.0000 47.2166 0.0000 0.0000
# 5 0.0000 0.0000 0.0000 0.0000 13.9157 0.0000
# 6 0.0000 0.0000 0.0000 0.0000 0.0000 -9.0882
#
#
#
# Elastic Compliance Matrix: (Units=1/GPa)
#
#
# Indices 1 2 3 4 5 6 
#
# 1 0.041267 0.001946 -0.002734 0.000000 0.000000 0.000000
# 2 0.001946 0.015078 -0.005228 0.000000 0.000000 0.000000
# 3 -0.002734 -0.005228 0.005489 0.000000 0.000000 0.000000
# 4 0.000000 0.000000 0.000000 0.021179 0.000000 0.000000
# 5 0.000000 0.000000 0.000000 0.000000 0.071861 0.000000
# 6 0.000000 0.000000 0.000000 0.000000 0.000000 -0.110033
#
#
# Mechanical properties :
#
#
# Convention : Reuss Voigt Hill
#
# Bulk Modulus (GPa) = 20.07929 69.54118 44.81024
# Shear Modulus (GPa) = 68.05129 29.95317 49.00223
#
# Velocity S-wave (km/s) = 5.65552 3.75211 4.79913
# Velocity P-wave (km/s) = 7.21693 7.17331 7.19515
#
# Compressibility (1/GPa) = 0.04980256
#
# Stress axis : x y z
#
# Youngs Moduli (GPa) = 24.23245 66.32021 182.18076
#
# Poissons Ratio (x) = -0.12907 0.49817
# Poissons Ratio (y) = -0.04716 0.95238
# Poissons Ratio (z) = 0.06626 0.34670
#
# Static dielectric constant tensor:
#      x y z
#    x 1.770300 0.000000 0.000000 
#    y 0.000000 1.783940 0.000000 
#    z 0.000000 0.000000 1.817210 
# 
# From -- ./inp_files/31312.got.cif
#   From: 2010.05.17/outbox.cif.g08.bks.cpg/sg42_16_cif.got.tgz:31312.got - 2010.06.03 19:03:34.
