data_PCOD9368918
_publ_section_title
;
Structure prediction by ZEFSAII (Michael W. Deem and Ramdas Pophale) SiO2 
 PCOD9368918
Probable space group: F M M 2
;
_chemical_formula_sum "Si O2"
_cell_formula_units_Z 80
_cell_length_a 8.766036
_cell_length_b 15.918478
_cell_length_c 29.423358
_cell_angle_alpha 90.000000
_cell_angle_beta 90.000000
_cell_angle_gamma 90.000000
_cell_volume 4105.792787
_symmetry_space_group_name_H-M "F M M 2"
_symmetry_group_IT_number 42
_symmetry_cell_setting 'orthorhombic'
loop_
_space_group_symop_operation_xyz
x,y,z
-x,-y,z
-x,y,z
x,-y,z
x,1/2+y,1/2+z
-x,1/2-y,1/2+z
-x,1/2+y,1/2+z
x,1/2-y,1/2+z
1/2+x,y,1/2+z
1/2-x,-y,1/2+z
1/2-x,y,1/2+z
1/2+x,-y,1/2+z
1/2+x,1/2+y,z
1/2-x,1/2-y,z
1/2-x,1/2+y,z
1/2+x,1/2-y,z
loop_
_atom_site_type_symbol
_atom_site_label
_atom_site_fract_x
_atom_site_fract_y
_atom_site_fract_z
Si Si1 0.316585 0.000000 0.594190
Si Si2 0.185668 0.000000 0.200083
Si Si3 0.183688 0.156940 0.260237
Si Si4 0.680779 0.161685 0.043659
Si Si5 0.817226 0.156688 0.363897
Si Si6 0.324418 0.402569 0.954601
O O1 0.251760 0.916703 0.570507
O O2 0.500000 0.000000 0.590157
O O3 0.273175 0.000000 0.647308
O O4 0.236920 0.915487 0.225944
O O5 0.000000 0.000000 0.202569
O O6 0.250000 0.250000 0.252088
O O7 0.220097 0.130352 0.312248
O O8 0.000000 0.163306 0.257308
O O9 0.500000 0.161946 0.048404
O O10 0.750000 0.250000 0.059543
O O11 0.726968 0.148640 0.990952
O O12 0.750000 0.250000 0.369006
O O13 0.742442 0.104467 0.404207
O O14 0.000000 0.156899 0.368732
O O15 0.500000 0.373438 0.955406
O O16 0.321362 0.500000 0.968654
#
# Coordination Sequence:
#
# PCOD9368918 Si02
#       6
#     8   8  16  16  16  16
#     4  11  23  43  66  93 126 157 200 257 312 369
#     4   9  20  39  64  89 118 157 196 245 306 361
#     4   9  19  37  60  87 120 159 201 246 295 353
#     4  12  25  43  67  92 123 162 205 251 306 367
#     4  10  20  34  56  83 119 159 203 246 291 352
#     4  11  23  38  58  86 124 161 201 250 301 357
#
# _framework density 19.484666000000001
#
# number of rings (size 3 to 8) (size 9 to 14) (size 15 to 20)
#    0.000    1.600    1.000    3.900    1.400    2.800 
#    0.000    4.500    0.000    0.000    0.000    0.000 
#    0.000    0.000    0.000    0.000    0.000    0.000 
#
# Total GULP energy -111764.550918 kJ/mol
# GULP energy per Si atom -5588.227546 kJ/mol
# Density = 1.944032 g / cm^3
# Si number density = 19.484666 Si / 1000 Ang^3
#
#
#
# Elastic Constant Matrix: (Units=GPa)
#
#
# Indices 1 2 3 4 5 6 
#
# 1 99.7946 51.1380 49.3084 0.0000 0.0000 0.0000
# 2 51.1380 135.4507 82.1863 0.0000 0.0000 0.0000
# 3 49.3084 82.1863 126.1351 0.0000 0.0000 0.0000
# 4 0.0000 0.0000 0.0000 15.5373 0.0000 0.0000
# 5 0.0000 0.0000 0.0000 0.0000 24.1154 0.0000
# 6 0.0000 0.0000 0.0000 0.0000 0.0000 25.3730
#
#
#
# Elastic Compliance Matrix: (Units=1/GPa)
#
#
# Indices 1 2 3 4 5 6 
#
# 1 0.013139 -0.003050 -0.003149 0.000000 0.000000 0.000000
# 2 -0.003050 0.012918 -0.007225 0.000000 0.000000 0.000000
# 3 -0.003149 -0.007225 0.013867 0.000000 0.000000 0.000000
# 4 0.000000 0.000000 0.000000 0.064361 0.000000 0.000000
# 5 0.000000 0.000000 0.000000 0.000000 0.041467 0.000000
# 6 0.000000 0.000000 0.000000 0.000000 0.000000 0.039412
#
#
# Mechanical properties :
#
#
# Convention : Reuss Voigt Hill
#
# Bulk Modulus (GPa) = 76.47434 80.73842 78.60638
# Shear Modulus (GPa) = 23.10849 24.92165 24.01507
#
# Velocity S-wave (km/s) = 3.44755 3.58025 3.51452
# Velocity P-wave (km/s) = 7.42840 7.65622 7.54317
#
# Compressibility (1/GPa) = 0.01307628
#
# Stress axis : x y z
#
# Youngs Moduli (GPa) = 76.10672 77.41217 72.11597
#
# Poissons Ratio (x) = 0.23609 0.22711
# Poissons Ratio (y) = 0.23211 0.52102
# Poissons Ratio (z) = 0.23968 0.55928
#
# Static dielectric constant tensor:
#      x y z
#    x 1.653950 0.000000 0.000000 
#    y 0.000000 1.652360 0.000000 
#    z 0.000000 0.000000 1.680430 
# 
# From -- ./inp_files/31328.got.cif
#   From: 2010.05.17/outbox.cif.g08.bks.cpg/sg42_16_cif.got.tgz:31328.got - 2010.06.03 19:03:34.
