data_PCOD9368870
_publ_section_title
;
Structure prediction by ZEFSAII (Michael W. Deem and Ramdas Pophale) SiO2 
 PCOD9368870
Probable space group: F M M 2
;
_chemical_formula_sum "Si O2"
_cell_formula_units_Z 80
_cell_length_a 18.979352
_cell_length_b 7.766525
_cell_length_c 26.448635
_cell_angle_alpha 90.000000
_cell_angle_beta 90.000000
_cell_angle_gamma 90.000000
_cell_volume 3898.624326
_symmetry_space_group_name_H-M "F M M 2"
_symmetry_group_IT_number 42
_symmetry_cell_setting 'orthorhombic'
loop_
_space_group_symop_operation_xyz
x,y,z
-x,-y,z
-x,y,z
x,-y,z
x,1/2+y,1/2+z
-x,1/2-y,1/2+z
-x,1/2+y,1/2+z
x,1/2-y,1/2+z
1/2+x,y,1/2+z
1/2-x,-y,1/2+z
1/2-x,y,1/2+z
1/2+x,-y,1/2+z
1/2+x,1/2+y,z
1/2-x,1/2-y,z
1/2-x,1/2+y,z
1/2+x,1/2-y,z
loop_
_atom_site_type_symbol
_atom_site_label
_atom_site_fract_x
_atom_site_fract_y
_atom_site_fract_z
Si Si1 0.330925 0.705162 0.399250
Si Si2 0.581143 0.789030 0.689580
Si Si3 0.420495 0.705216 0.995926
Si Si4 0.667805 0.707348 0.091529
Si Si5 0.668985 0.792778 0.785518
O O1 0.336370 0.500000 0.397632
O O2 0.250000 0.750000 0.411927
O O3 0.383245 0.767708 0.442296
O O4 0.345377 0.772724 0.342425
O O5 0.500000 0.735599 0.685323
O O6 0.627376 0.731791 0.641744
O O7 0.617206 0.730547 0.741723
O O8 0.581757 0.000000 0.689727
O O9 0.500000 0.775330 0.997206
O O10 0.425391 0.500000 0.003547
O O11 0.371660 0.773443 0.041318
O O12 0.662826 0.500000 0.091455
O O13 0.750000 0.750000 0.091875
O O14 0.750000 0.750000 0.773046
O O15 0.663116 0.000000 0.787044
#
# Coordination Sequence:
#
# PCOD9368870 Si02
#       5
#    16  16  16  16  16
#     4  10  20  34  53  77 104 136 174 213 253 300
#     4   9  17  31  52  76 101 130 165 205 249 297
#     4  10  21  36  53  75 104 136 170 210 257 307
#     4  10  20  34  54  77 100 130 168 208 250 300
#     4   9  18  32  52  76 101 131 167 207 248 294
#
# _framework density 20.520057000000001
#
# number of rings (size 3 to 8) (size 9 to 14) (size 15 to 20)
#    0.000    2.400    0.000    2.400    0.000    6.800 
#    0.000    2.000    0.000    3.600    0.000    0.000 
#    0.000    0.000    0.000    0.000    0.000    0.000 
#
# Total GULP energy -111685.839940 kJ/mol
# GULP energy per Si atom -5584.291997 kJ/mol
# Density = 2.047335 g / cm^3
# Si number density = 20.520057 Si / 1000 Ang^3
#
#
#
# Elastic Constant Matrix: (Units=GPa)
#
#
# Indices 1 2 3 4 5 6 
#
# 1 210.8765 2.5721 146.0856 0.0000 0.0000 -0.0001
# 2 2.5721 28.9837 5.8699 0.0000 0.0000 -0.0003
# 3 146.0856 5.8699 166.9387 0.0000 0.0000 0.0000
# 4 0.0000 0.0000 0.0000 10.6223 0.0000 0.0000
# 5 0.0000 0.0000 0.0000 0.0000 2.3067 0.0000
# 6 -0.0001 -0.0003 0.0000 0.0000 0.0000 23.2624
#
#
#
# Elastic Compliance Matrix: (Units=1/GPa)
#
#
# Indices 1 2 3 4 5 6 
#
# 1 0.012076 0.001076 -0.010605 0.000000 0.000000 0.000000
# 2 0.001076 0.034846 -0.002167 0.000000 0.000000 0.000000
# 3 -0.010605 -0.002167 0.015347 0.000000 0.000000 0.000000
# 4 0.000000 0.000000 0.000000 0.094142 0.000000 0.000000
# 5 0.000000 0.000000 0.000000 0.000000 0.433517 0.000000
# 6 0.000000 0.000000 0.000000 0.000000 0.000000 0.042988
#
#
# Mechanical properties :
#
#
# Convention : Reuss Voigt Hill
#
# Bulk Modulus (GPa) = 25.72268 79.53933 52.63101
# Shear Modulus (GPa) = 7.47088 24.05636 15.76362
#
# Velocity S-wave (km/s) = 1.91015 3.42765 2.77466
# Velocity P-wave (km/s) = 4.17463 7.38315 5.99743
#
# Compressibility (1/GPa) = 0.03887620
#
# Stress axis : x y z
#
# Youngs Moduli (GPa) = 82.81062 28.69807 65.16005
#
# Poissons Ratio (x) = -0.03088 0.69103
# Poissons Ratio (y) = -0.08912 0.14120
# Poissons Ratio (z) = 0.87822 0.06219
#
# Static dielectric constant tensor:
#      x y z
#    x 1.680900 0.000000 0.000000 
#    y 0.000000 1.769350 0.000000 
#    z 0.000000 0.000000 1.732300 
# 
# From -- ./inp_files/28621.got.cif
#   From: 2010.05.17/outbox.cif.g08.bks.cpg/sg42_15_cif.got.tgz:28621.got - 2010.06.03 19:03:34.
