data_PCOD9368047
_publ_section_title
;
Structure prediction by ZEFSAII (Michael W. Deem and Ramdas Pophale) SiO2 
 PCOD9368047
Probable space group: A B A 2
;
_chemical_formula_sum "Si O2"
_cell_formula_units_Z 28
_cell_length_a 7.313589
_cell_length_b 16.468606
_cell_length_c 8.630420
_cell_angle_alpha 90.000000
_cell_angle_beta 90.000000
_cell_angle_gamma 90.000000
_cell_volume 1039.487620
_symmetry_space_group_name_H-M "A B A 2"
_symmetry_group_IT_number 41
_symmetry_cell_setting 'orthorhombic'
loop_
_space_group_symop_operation_xyz
x,y,z
-x,-y,z
1/2-x,y,1/2+z
1/2+x,-y,1/2+z
x,1/2+y,1/2+z
-x,1/2-y,1/2+z
1/2-x,1/2+y,z
1/2+x,1/2-y,z
loop_
_atom_site_type_symbol
_atom_site_label
_atom_site_fract_x
_atom_site_fract_y
_atom_site_fract_z
Si Si1 0.866260 0.193581 0.275730
Si Si2 0.147801 0.150890 0.546126
Si Si3 0.426375 0.872364 0.468765
Si Si4 0.000000 0.500000 0.240231
O O1 0.881933 0.275396 0.170559
O O2 0.682580 0.196559 0.375689
O O3 0.013562 0.161688 0.399940
O O4 0.850354 0.126454 0.140776
O O5 0.358846 0.146128 0.490951
O O6 0.098641 0.067889 0.637164
O O7 0.382549 0.950397 0.367148
#
# Coordination Sequence:
#
# PCOD9368047 Si02
#       4
#     8   8   8   4
#     4  12  31  56  90 130 182 239 309 366 460 550
#     4  12  31  57  91 133 184 238 302 384 451 558
#     4  12  31  53  90 132 182 236 298 377 453 552
#     4  12  30  56  88 136 178 238 298 380 472 528
#
# _framework density 26.936347999999999
#
# number of rings (size 3 to 8) (size 9 to 14) (size 15 to 20)
#    0.000    0.000    0.000    5.143   24.000    3.429 
#    0.000    0.000    0.000    0.000    0.000    0.000 
#    0.000    0.000    0.000    0.000    0.000    0.000 
#
# Total GULP energy -78453.565204 kJ/mol
# GULP energy per Si atom -5603.826086 kJ/mol
# Density = 2.687504 g / cm^3
# Si number density = 26.936348 Si / 1000 Ang^3
#
#
#
# Elastic Constant Matrix: (Units=GPa)
#
#
# Indices 1 2 3 4 5 6 
#
# 1 158.1765 38.7090 114.1850 0.0000 0.0000 0.0000
# 2 38.7090 143.0445 103.9313 0.0000 0.0000 0.0000
# 3 114.1850 103.9313 304.3702 0.0000 0.0000 0.0000
# 4 0.0000 0.0000 0.0000 63.9477 0.0000 0.0000
# 5 0.0000 0.0000 0.0000 0.0000 74.9409 0.0000
# 6 0.0000 0.0000 0.0000 0.0000 0.0000 21.0496
#
#
#
# Elastic Compliance Matrix: (Units=1/GPa)
#
#
# Indices 1 2 3 4 5 6 
#
# 1 0.008670 0.000023 -0.003260 0.000000 0.000000 0.000000
# 2 0.000023 0.009298 -0.003183 0.000000 0.000000 0.000000
# 3 -0.003260 -0.003183 0.005596 0.000000 0.000000 0.000000
# 4 0.000000 0.000000 0.000000 0.015638 0.000000 0.000000
# 5 0.000000 0.000000 0.000000 0.000000 0.013344 0.000000
# 6 0.000000 0.000000 0.000000 0.000000 0.000000 0.047507
#
#
# Mechanical properties :
#
#
# Convention : Reuss Voigt Hill
#
# Bulk Modulus (GPa) = 93.27224 124.36021 108.81622
# Shear Modulus (GPa) = 42.93048 55.23869 49.08458
#
# Velocity S-wave (km/s) = 3.99654 4.53339 4.27341
# Velocity P-wave (km/s) = 7.48322 8.58316 8.05199
#
# Compressibility (1/GPa) = 0.01072130
#
# Stress axis : x y z
#
# Youngs Moduli (GPa) = 115.33907 107.55504 178.71287
#
# Poissons Ratio (x) = -0.00244 0.58266
# Poissons Ratio (y) = -0.00261 0.56889
# Poissons Ratio (z) = 0.37604 0.34238
#
# Static dielectric constant tensor:
#      x y z
#    x 2.130650 0.000000 0.000000 
#    y 0.000000 2.268310 0.000000 
#    z 0.000000 0.000000 2.067090 
# 
# From -- ./inp_files/1617.got.cif
#   From: 2010.05.17/outbox.cif.g08.bks.cpg/sg41_1_cif.got.tgz:1617.got - 2010.06.03 18:54:24.
