data_PCOD9368140
_publ_section_title
;
Structure prediction by ZEFSAII (Michael W. Deem and Ramdas Pophale) SiO2 
 PCOD9368140
Probable space group: F M M 2
;
_chemical_formula_sum "Si O2"
_cell_formula_units_Z 96
_cell_length_a 8.820237
_cell_length_b 15.704456
_cell_length_c 32.712928
_cell_angle_alpha 90.000000
_cell_angle_beta 90.000000
_cell_angle_gamma 90.000000
_cell_volume 4531.297429
_symmetry_space_group_name_H-M "F M M 2"
_symmetry_group_IT_number 42
_symmetry_cell_setting 'orthorhombic'
loop_
_space_group_symop_operation_xyz
x,y,z
-x,-y,z
-x,y,z
x,-y,z
x,1/2+y,1/2+z
-x,1/2-y,1/2+z
-x,1/2+y,1/2+z
x,1/2-y,1/2+z
1/2+x,y,1/2+z
1/2-x,-y,1/2+z
1/2-x,y,1/2+z
1/2+x,-y,1/2+z
1/2+x,1/2+y,z
1/2-x,1/2-y,z
1/2-x,1/2+y,z
1/2+x,1/2-y,z
loop_
_atom_site_type_symbol
_atom_site_label
_atom_site_fract_x
_atom_site_fract_y
_atom_site_fract_z
Si Si1 0.179851 0.844347 0.656110
Si Si2 0.831064 0.898645 0.074220
Si Si3 0.818913 0.655507 0.410407
Si Si4 0.818424 0.653360 0.738391
Si Si5 0.182219 0.846053 0.820861
Si Si6 0.330526 0.398940 0.493425
O O1 0.250000 0.750000 0.653586
O O2 0.225317 0.885298 0.613249
O O3 0.256281 0.885896 0.696273
O O4 0.000000 0.841347 0.661688
O O5 0.761100 0.863414 0.032201
O O6 0.000000 0.863277 0.081980
O O7 0.845483 0.000000 0.068987
O O8 0.750000 0.750000 0.410508
O O9 0.783474 0.615917 0.365685
O O10 0.751900 0.612139 0.450350
O O11 0.000000 0.659520 0.413445
O O12 0.750000 0.750000 0.738337
O O13 0.756450 0.613714 0.780537
O O14 0.000000 0.656626 0.738362
O O15 0.250000 0.750000 0.822724
O O16 0.000000 0.842098 0.815903
O O17 0.500000 0.362066 0.491532
O O18 0.343685 0.500000 0.500274
#
# Coordination Sequence:
#
# PCOD9368140 Si02
#       6
#    16  16  16  16  16  16
#     4  11  21  34  53  78 108 137 171 213 256 301
#     4  10  21  38  58  78 102 133 170 210 255 309
#     4  10  20  33  52  78 107 137 171 213 258 302
#     4  10  17  27  45  70 101 135 170 207 251 301
#     4   9  16  27  44  69 100 133 168 206 250 300
#     4  10  21  37  56  77 102 134 172 211 254 307
#
# _framework density 21.185984999999999
#
# number of rings (size 3 to 8) (size 9 to 14) (size 15 to 20)
#    0.000    2.000    0.000    7.000    0.000    4.667 
#    0.000    3.333    0.000    1.000    0.000    4.667 
#    0.000    0.000    0.000    0.000    0.000    0.000 
#
# Total GULP energy -133925.849759 kJ/mol
# GULP energy per Si atom -5580.243740 kJ/mol
# Density = 2.113776 g / cm^3
# Si number density = 21.185985 Si / 1000 Ang^3
#
#
#
# Elastic Constant Matrix: (Units=GPa)
#
#
# Indices 1 2 3 4 5 6 
#
# 1 176.4640 6.0176 87.9794 0.0000 0.0000 0.0000
# 2 6.0176 14.4469 8.2915 0.0000 0.0000 0.0000
# 3 87.9794 8.2915 202.7043 0.0000 0.0000 0.0000
# 4 0.0000 0.0000 0.0000 258.3382 0.0000 0.0000
# 5 0.0000 0.0000 0.0000 0.0000 21.3907 0.0000
# 6 0.0000 0.0000 0.0000 0.0000 0.0000 14.2608
#
#
#
# Elastic Compliance Matrix: (Units=1/GPa)
#
#
# Indices 1 2 3 4 5 6 
#
# 1 0.007254 -0.001244 -0.003097 0.000000 0.000000 0.000000
# 2 -0.001244 0.071096 -0.002368 0.000000 0.000000 0.000000
# 3 -0.003097 -0.002368 0.006375 0.000000 0.000000 0.000000
# 4 0.000000 0.000000 0.000000 0.003871 0.000000 0.000000
# 5 0.000000 0.000000 0.000000 0.000000 0.046749 0.000000
# 6 0.000000 0.000000 0.000000 0.000000 0.000000 0.070122
#
#
# Mechanical properties :
#
#
# Convention : Reuss Voigt Hill
#
# Bulk Modulus (GPa) = 14.02417 66.46578 40.24498
# Shear Modulus (GPa) = 20.60547 78.21972 49.41259
#
# Velocity S-wave (km/s) = 3.12204 6.08282 4.83465
# Velocity P-wave (km/s) = 4.43058 8.98748 7.08537
#
# Compressibility (1/GPa) = 0.07130545
#
# Stress axis : x y z
#
# Youngs Moduli (GPa) = 137.86374 14.06546 156.87468
#
# Poissons Ratio (x) = 0.01749 0.48590
# Poissons Ratio (y) = 0.17145 0.37154
# Poissons Ratio (z) = 0.42701 0.03331
#
# Static dielectric constant tensor:
#      x y z
#    x 1.740090 0.000000 0.000000 
#    y 0.000000 1.729330 0.000000 
#    z 0.000000 0.000000 1.827410 
# 
# From -- ./inp_files/31448.got.cif
#   From: 2010.05.17/outbox.cif.g08.bks.cpg/sg42_16_cif.got.tgz:31448.got - 2010.06.03 19:03:34.
