data_PCOD9368011
_publ_section_title
;
Structure prediction by ZEFSAII (Michael W. Deem and Ramdas Pophale) SiO2 
 PCOD9368011
Probable space group: A B A 2
;
_chemical_formula_sum "Si O2"
_cell_formula_units_Z 32
_cell_length_a 4.546042
_cell_length_b 28.309889
_cell_length_c 8.976820
_cell_angle_alpha 90.000000
_cell_angle_beta 90.000000
_cell_angle_gamma 90.000000
_cell_volume 1155.298281
_symmetry_space_group_name_H-M "A B A 2"
_symmetry_group_IT_number 41
_symmetry_cell_setting 'orthorhombic'
loop_
_space_group_symop_operation_xyz
x,y,z
-x,-y,z
1/2-x,y,1/2+z
1/2+x,-y,1/2+z
x,1/2+y,1/2+z
-x,1/2-y,1/2+z
1/2-x,1/2+y,z
1/2+x,1/2-y,z
loop_
_atom_site_type_symbol
_atom_site_label
_atom_site_fract_x
_atom_site_fract_y
_atom_site_fract_z
Si Si1 0.769660 0.532439 0.482830
Si Si2 0.433370 0.091222 0.735790
Si Si3 0.125480 0.341284 0.261605
Si Si4 0.510227 0.718395 0.491076
O O1 0.500000 0.500000 0.536804
O O2 0.596977 0.571142 0.383226
O O3 0.986696 0.552049 0.611276
O O4 0.000000 0.500000 0.388595
O O5 0.125247 0.117344 0.775657
O O6 0.622851 0.133223 0.665533
O O7 0.333468 0.320746 0.391697
O O8 0.015873 0.298498 0.160687
O O9 0.176186 0.732114 0.462825
#
# Coordination Sequence:
#
# PCOD9368011 Si02
#       4
#     8   8   8   8
#     4  12  25  46  73 106 148 200 254 312 377 450
#     4  12  26  46  72 108 147 194 247 310 374 444
#     4  12  26  46  72 108 147 190 245 306 372 446
#     4  12  25  46  73 106 144 190 238 296 365 444
#
# _framework density 27.698473
#
# number of rings (size 3 to 8) (size 9 to 14) (size 15 to 20)
#    0.000    0.000    0.000   10.500    0.000    4.000 
#    0.000    0.000    0.000    0.000    0.000    0.000 
#    0.000    0.000    0.000    0.000    0.000    0.000 
#
# Total GULP energy -89286.757001 kJ/mol
# GULP energy per Si atom -5580.422313 kJ/mol
# Density = 2.763543 g / cm^3
# Si number density = 27.698473 Si / 1000 Ang^3
#
#
#
# Elastic Constant Matrix: (Units=GPa)
#
#
# Indices 1 2 3 4 5 6 
#
# 1 143.1058 44.2943 9.3339 0.0000 0.0000 0.0000
# 2 44.2943 108.4779 39.6415 0.0000 0.0000 0.0000
# 3 9.3339 39.6415 108.3704 0.0000 0.0000 0.0000
# 4 0.0000 0.0000 0.0000 26.3363 0.0000 0.0000
# 5 0.0000 0.0000 0.0000 0.0000 31.7960 0.0000
# 6 0.0000 0.0000 0.0000 0.0000 0.0000 83.8693
#
#
#
# Elastic Compliance Matrix: (Units=1/GPa)
#
#
# Indices 1 2 3 4 5 6 
#
# 1 0.008031 -0.003493 0.000586 0.000000 0.000000 0.000000
# 2 -0.003493 0.012161 -0.004147 0.000000 0.000000 0.000000
# 3 0.000586 -0.004147 0.010694 0.000000 0.000000 0.000000
# 4 0.000000 0.000000 0.000000 0.037970 0.000000 0.000000
# 5 0.000000 0.000000 0.000000 0.000000 0.031450 0.000000
# 6 0.000000 0.000000 0.000000 0.000000 0.000000 0.011923
#
#
# Mechanical properties :
#
#
# Convention : Reuss Voigt Hill
#
# Bulk Modulus (GPa) = 59.60764 60.72150 60.16457
# Shear Modulus (GPa) = 37.89852 46.17928 42.03890
#
# Velocity S-wave (km/s) = 3.70300 4.08758 3.90004
# Velocity P-wave (km/s) = 6.31268 6.65189 6.48450
#
# Compressibility (1/GPa) = 0.01677637
#
# Stress axis : x y z
#
# Youngs Moduli (GPa) = 124.51912 82.23332 93.50838
#
# Poissons Ratio (x) = 0.28728 -0.05481
# Poissons Ratio (y) = 0.43500 0.38782
# Poissons Ratio (z) = -0.07299 0.34105
#
# Static dielectric constant tensor:
#      x y z
#    x 2.112820 0.000000 0.000000 
#    y 0.000000 2.299790 0.000000 
#    z 0.000000 0.000000 2.223790 
# 
# From -- ./inp_files/4099.got.cif
#   From: 2010.05.17/outbox.cif.g08.bks.cpg/sg41_3_cif.got.tgz:4099.got - 2010.06.03 18:54:24.
