data_PCOD9368774
_publ_section_title
;
Structure prediction by ZEFSAII (Michael W. Deem and Ramdas Pophale) SiO2 
 PCOD9368774
Probable space group: F M M 2
;
_chemical_formula_sum "Si O2"
_cell_formula_units_Z 96
_cell_length_a 21.340242
_cell_length_b 29.714490
_cell_length_c 8.575585
_cell_angle_alpha 90.000000
_cell_angle_beta 90.000000
_cell_angle_gamma 90.000000
_cell_volume 5437.902001
_symmetry_space_group_name_H-M "F M M 2"
_symmetry_group_IT_number 42
_symmetry_cell_setting 'orthorhombic'
loop_
_space_group_symop_operation_xyz
x,y,z
-x,-y,z
-x,y,z
x,-y,z
x,1/2+y,1/2+z
-x,1/2-y,1/2+z
-x,1/2+y,1/2+z
x,1/2-y,1/2+z
1/2+x,y,1/2+z
1/2-x,-y,1/2+z
1/2-x,y,1/2+z
1/2+x,-y,1/2+z
1/2+x,1/2+y,z
1/2-x,1/2-y,z
1/2-x,1/2+y,z
1/2+x,1/2-y,z
loop_
_atom_site_type_symbol
_atom_site_label
_atom_site_fract_x
_atom_site_fract_y
_atom_site_fract_z
Si Si1 0.931460 0.123098 0.217870
Si Si2 0.816433 0.726413 0.596143
Si Si3 0.815386 0.872942 0.988775
Si Si4 0.365821 0.805369 0.923946
Si Si5 0.429862 0.446571 0.491940
Si Si6 0.682987 0.889586 0.124080
O O1 0.919572 0.166173 0.332834
O O2 0.929826 0.079436 0.327664
O O3 0.000000 0.127789 0.145383
O O4 0.876841 0.118070 0.092099
O O5 0.750000 0.750000 0.583493
O O6 0.811632 0.681163 0.496874
O O7 0.869634 0.760720 0.531614
O O8 0.826278 0.711555 0.774821
O O9 0.818246 0.885583 0.809196
O O10 0.754429 0.896018 0.066633
O O11 0.336140 0.843392 0.035239
O O12 0.500000 0.437193 0.561485
O O13 0.424118 0.500000 0.476176
O O14 0.369725 0.425968 0.578708
#
# Coordination Sequence:
#
# PCOD9368774 Si02
#       6
#    16  16  16  16  16  16
#     4   9  20  39  59  82 114 151 193 239 293 351
#     4  11  19  29  50  81 110 148 194 239 276 330
#     4  11  22  35  56  84 119 155 193 239 287 342
#     4  10  20  31  51  80 109 147 190 239 284 331
#     4   9  19  39  66  89 113 149 189 232 288 357
#     4  11  21  36  54  86 120 150 191 238 290 342
#
# _framework density 17.653867999999999
#
# number of rings (size 3 to 8) (size 9 to 14) (size 15 to 20)
#    0.000    1.833    1.667    4.500    0.000    0.667 
#    0.000    7.500    0.000    6.000    0.000    0.000 
#    0.000    0.000    0.000    0.000    0.000    0.000 
#
# Total GULP energy -133634.790908 kJ/mol
# GULP energy per Si atom -5568.116288 kJ/mol
# Density = 1.761369 g / cm^3
# Si number density = 17.653868 Si / 1000 Ang^3
#
#
#
# Elastic Constant Matrix: (Units=GPa)
#
#
# Indices 1 2 3 4 5 6 
#
# 1 154.7770 56.6513 67.2493 -0.0001 0.0003 0.0001
# 2 56.6513 97.5645 39.3856 0.0000 0.0001 0.0000
# 3 67.2493 39.3856 105.7497 -0.0002 0.0006 0.0003
# 4 -0.0001 0.0000 -0.0002 11.9885 0.0002 0.0000
# 5 0.0003 0.0001 0.0006 0.0002 22.4116 -0.0002
# 6 0.0001 0.0000 0.0003 0.0000 -0.0002 20.1135
#
#
#
# Elastic Compliance Matrix: (Units=1/GPa)
#
#
# Indices 1 2 3 4 5 6 
#
# 1 0.010004 -0.003814 -0.004941 0.000000 0.000000 0.000000
# 2 -0.003814 0.013518 -0.002609 0.000000 0.000000 0.000000
# 3 -0.004941 -0.002609 0.013570 0.000000 0.000000 0.000000
# 4 0.000000 0.000000 0.000000 0.083413 -0.000001 0.000000
# 5 0.000000 0.000000 0.000000 -0.000001 0.044620 0.000000
# 6 0.000000 0.000000 0.000000 0.000000 0.000000 0.049718
#
#
# Mechanical properties :
#
#
# Convention : Reuss Voigt Hill
#
# Bulk Modulus (GPa) = 69.62322 76.07373 72.84848
# Shear Modulus (GPa) = 20.63055 23.88971 22.26013
#
# Velocity S-wave (km/s) = 3.42221 3.68262 3.55480
# Velocity P-wave (km/s) = 7.42556 7.82736 7.62910
#
# Compressibility (1/GPa) = 0.01436302
#
# Stress axis : x y z
#
# Youngs Moduli (GPa) = 99.96153 73.97808 73.69061
#
# Poissons Ratio (x) = 0.28216 0.36412
# Poissons Ratio (y) = 0.38126 0.19226
# Poissons Ratio (z) = 0.49393 0.19301
#
# Static dielectric constant tensor:
#      x y z
#    x 1.644380 0.000000 0.000000 
#    y 0.000000 1.606590 0.000000 
#    z 0.000000 0.000000 1.597960 
# 
# From -- ./inp_files/4170.got.cif
#   From: 2010.05.17/outbox.cif.g08.bks.cpg/sg42_3_cif.got.tgz:4170.got - 2010.06.03 19:03:34.
