data_PCOD9368692
_publ_section_title
;
Structure prediction by ZEFSAII (Michael W. Deem and Ramdas Pophale) SiO2 
 PCOD9368692
Probable space group: F M M 2
;
_chemical_formula_sum "Si O2"
_cell_formula_units_Z 96
_cell_length_a 18.129923
_cell_length_b 15.929843
_cell_length_c 18.777428
_cell_angle_alpha 90.000000
_cell_angle_beta 90.000000
_cell_angle_gamma 90.000000
_cell_volume 5423.049400
_symmetry_space_group_name_H-M "F M M 2"
_symmetry_group_IT_number 42
_symmetry_cell_setting 'orthorhombic'
loop_
_space_group_symop_operation_xyz
x,y,z
-x,-y,z
-x,y,z
x,-y,z
x,1/2+y,1/2+z
-x,1/2-y,1/2+z
-x,1/2+y,1/2+z
x,1/2-y,1/2+z
1/2+x,y,1/2+z
1/2-x,-y,1/2+z
1/2-x,y,1/2+z
1/2+x,-y,1/2+z
1/2+x,1/2+y,z
1/2-x,1/2-y,z
1/2-x,1/2+y,z
1/2+x,1/2-y,z
loop_
_atom_site_type_symbol
_atom_site_label
_atom_site_fract_x
_atom_site_fract_y
_atom_site_fract_z
Si Si1 0.415020 0.209116 0.540080
Si Si2 0.910817 0.324963 0.911879
Si Si3 0.359456 0.670609 0.650241
Si Si4 0.589317 0.000000 0.985686
Si Si5 0.586748 0.000000 0.149741
Si Si6 0.324450 0.301787 0.266681
Si Si7 0.298325 0.599940 0.130002
O O1 0.500000 0.179415 0.538743
O O2 0.392867 0.244978 0.462583
O O3 0.410406 0.293966 0.587892
O O4 0.360127 0.143288 0.579021
O O5 0.887752 0.413553 0.947869
O O6 0.871429 0.318899 0.836160
O O7 0.000000 0.326139 0.904929
O O8 0.384443 0.583915 0.683609
O O9 0.362623 0.739059 0.711231
O O10 0.277836 0.651983 0.619558
O O11 0.500000 0.000000 0.986010
O O12 0.613816 0.000000 0.067696
O O13 0.500000 0.000000 0.148822
O O14 0.250000 0.250000 0.285225
O O15 0.312453 0.381860 0.214514
O O16 0.292270 0.500000 0.117538
#
# Coordination Sequence:
#
# PCOD9368692 Si02
#       7
#    16  16  16   8   8  16  16
#     4  10  20  35  57  82 110 143 181 227 275 327
#     4  10  20  35  55  79 111 144 178 225 275 323
#     4  10  19  36  55  80 111 142 179 226 274 327
#     4   9  18  32  51  82 110 132 171 228 279 310
#     4  11  18  30  57  84 107 136 181 236 278 316
#     4   9  21  36  53  77 109 147 179 220 270 327
#     4  10  21  37  57  82 111 145 181 225 276 327
#
# _framework density 17.702217999999998
#
# number of rings (size 3 to 8) (size 9 to 14) (size 15 to 20)
#    0.000    2.167    2.500    2.000    1.167    5.000 
#    0.000    0.000    1.833    0.000    0.000    0.000 
#    0.000    0.000    0.000    0.000    0.000    0.000 
#
# Total GULP energy -133633.235920 kJ/mol
# GULP energy per Si atom -5568.051497 kJ/mol
# Density = 1.766193 g / cm^3
# Si number density = 17.702218 Si / 1000 Ang^3
#
#
#
# Elastic Constant Matrix: (Units=GPa)
#
#
# Indices 1 2 3 4 5 6 
#
# 1 50.5801 11.0310 28.8220 0.0000 0.0000 0.0000
# 2 11.0310 84.8288 11.5446 0.0000 0.0000 0.0000
# 3 28.8220 11.5446 63.6483 0.0000 0.0000 0.0000
# 4 0.0000 0.0000 0.0000 14.4434 0.0000 0.0000
# 5 0.0000 0.0000 0.0000 0.0000 22.7463 0.0000
# 6 0.0000 0.0000 0.0000 0.0000 0.0000 23.5956
#
#
#
# Elastic Compliance Matrix: (Units=1/GPa)
#
#
# Indices 1 2 3 4 5 6 
#
# 1 0.026939 -0.001890 -0.011856 0.000000 0.000000 0.000000
# 2 -0.001890 0.012219 -0.001361 0.000000 0.000000 0.000000
# 3 -0.011856 -0.001361 0.021327 0.000000 0.000000 0.000000
# 4 0.000000 0.000000 0.000000 0.069236 0.000000 0.000000
# 5 0.000000 0.000000 0.000000 0.000000 0.043963 0.000000
# 6 0.000000 0.000000 0.000000 0.000000 0.000000 0.042381
#
#
# Mechanical properties :
#
#
# Convention : Reuss Voigt Hill
#
# Bulk Modulus (GPa) = 33.03333 33.53914 33.28623
# Shear Modulus (GPa) = 19.50323 22.00103 20.75213
#
# Velocity S-wave (km/s) = 3.32285 3.52922 3.42759
# Velocity P-wave (km/s) = 5.78125 5.96612 5.87441
#
# Compressibility (1/GPa) = 0.03027246
#
# Stress axis : x y z
#
# Youngs Moduli (GPa) = 37.12154 81.83751 46.88916
#
# Poissons Ratio (x) = 0.15463 0.55591
# Poissons Ratio (y) = 0.07014 0.06380
# Poissons Ratio (z) = 0.44011 0.11136
#
# Static dielectric constant tensor:
#      x y z
#    x 1.635050 0.000000 0.000000 
#    y 0.000000 1.622790 0.000000 
#    z 0.000000 0.000000 1.592070 
# 
# From -- ./inp_files/14048.got.cif
#   From: 2010.05.17/outbox.cif.g08.bks.cpg/sg42_8_cif.got.tgz:14048.got - 2010.06.03 19:03:34.
