data_PCOD9368823
_publ_section_title
;
Structure prediction by ZEFSAII (Michael W. Deem and Ramdas Pophale) SiO2 
 PCOD9368823
Probable space group: F M M 2
;
_chemical_formula_sum "Si O2"
_cell_formula_units_Z 96
_cell_length_a 26.140666
_cell_length_b 8.646172
_cell_length_c 23.993963
_cell_angle_alpha 90.000000
_cell_angle_beta 90.000000
_cell_angle_gamma 90.000000
_cell_volume 5423.036204
_symmetry_space_group_name_H-M "F M M 2"
_symmetry_group_IT_number 42
_symmetry_cell_setting 'orthorhombic'
loop_
_space_group_symop_operation_xyz
x,y,z
-x,-y,z
-x,y,z
x,-y,z
x,1/2+y,1/2+z
-x,1/2-y,1/2+z
-x,1/2+y,1/2+z
x,1/2-y,1/2+z
1/2+x,y,1/2+z
1/2-x,-y,1/2+z
1/2-x,y,1/2+z
1/2+x,-y,1/2+z
1/2+x,1/2+y,z
1/2-x,1/2-y,z
1/2-x,1/2+y,z
1/2+x,1/2-y,z
loop_
_atom_site_type_symbol
_atom_site_label
_atom_site_fract_x
_atom_site_fract_y
_atom_site_fract_z
Si Si1 0.805820 0.816754 0.802660
Si Si2 0.000000 0.813377 0.423069
Si Si3 0.401430 0.179231 0.854490
Si Si4 0.500000 0.686003 0.046850
Si Si5 0.559945 0.826967 0.247166
Si Si6 0.306869 0.186113 0.172643
Si Si7 0.091511 0.314301 0.630680
O O1 0.750000 0.750000 0.814172
O O2 0.846940 0.762283 0.848330
O O3 0.819018 0.770698 0.737896
O O4 0.802681 0.000000 0.802963
O O5 0.947379 0.757760 0.393353
O O6 0.000000 0.765491 0.487064
O O7 0.000000 0.000000 0.416982
O O8 0.421803 0.203592 0.791927
O O9 0.393534 0.000000 0.867848
O O10 0.500000 0.500000 0.040056
O O11 0.448229 0.725966 0.081301
O O12 0.500000 0.840595 0.255091
O O13 0.570055 0.769187 0.185467
O O14 0.582699 0.000000 0.256381
O O15 0.250000 0.250000 0.161538
O O16 0.349645 0.257121 0.131598
O O17 0.307452 0.000000 0.168781
O O18 0.090498 0.500000 0.636665
#
# Coordination Sequence:
#
# PCOD9368823 Si02
#       7
#    16   8  16   8  16  16  16
#     4  10  20  33  51  80 115 151 186 219 267 325
#     4  10  24  41  58  81 107 144 188 230 281 328
#     4  11  21  35  55  80 112 147 182 225 275 328
#     4  10  24  41  58  81 107 144 188 230 281 328
#     4  11  21  31  48  79 112 145 181 218 270 330
#     4  10  20  33  51  80 115 151 186 219 267 325
#     4  11  21  35  55  80 112 147 182 225 275 328
#
# _framework density 17.702261
#
# number of rings (size 3 to 8) (size 9 to 14) (size 15 to 20)
#    0.000    1.500    3.333    2.500    0.000    4.667 
#    0.000    0.000    0.000    1.000    0.000    7.000 
#    0.000    0.000    0.000    0.000    0.000    0.000 
#
# Total GULP energy -133807.602535 kJ/mol
# GULP energy per Si atom -5575.316772 kJ/mol
# Density = 1.766197 g / cm^3
# Si number density = 17.702261 Si / 1000 Ang^3
#
#
#
# Elastic Constant Matrix: (Units=GPa)
#
#
# Indices 1 2 3 4 5 6 
#
# 1 155.2878 35.3303 43.9219 0.0000 0.0000 0.0000
# 2 35.3303 41.8751 7.8330 0.0000 0.0000 0.0000
# 3 43.9219 7.8330 64.5041 0.0000 0.0000 0.0000
# 4 0.0000 0.0000 0.0000 21.6287 0.0000 0.0000
# 5 0.0000 0.0000 0.0000 0.0000 12.4230 0.0000
# 6 0.0000 0.0000 0.0000 0.0000 0.0000 27.6569
#
#
#
# Elastic Compliance Matrix: (Units=1/GPa)
#
#
# Indices 1 2 3 4 5 6 
#
# 1 0.009672 -0.007089 -0.005725 0.000000 0.000000 0.000000
# 2 -0.007089 0.029632 0.001229 0.000000 0.000000 0.000000
# 3 -0.005725 0.001229 0.019252 0.000000 0.000000 0.000000
# 4 0.000000 0.000000 0.000000 0.046235 0.000000 0.000000
# 5 0.000000 0.000000 0.000000 0.000000 0.080496 0.000000
# 6 0.000000 0.000000 0.000000 0.000000 0.000000 0.036157
#
#
# Mechanical properties :
#
#
# Convention : Reuss Voigt Hill
#
# Bulk Modulus (GPa) = 28.26048 48.42637 38.34342
# Shear Modulus (GPa) = 19.50009 23.98051 21.74030
#
# Velocity S-wave (km/s) = 3.32258 3.68456 3.50824
# Velocity P-wave (km/s) = 5.54241 6.74661 6.17394
#
# Compressibility (1/GPa) = 0.03538511
#
# Stress axis : x y z
#
# Youngs Moduli (GPa) = 103.39351 33.74739 51.94329
#
# Poissons Ratio (x) = 0.23924 0.29737
# Poissons Ratio (y) = 0.73299 -0.06383
# Poissons Ratio (z) = 0.59191 -0.04147
#
# Static dielectric constant tensor:
#      x y z
#    x 1.675030 0.000000 0.000000 
#    y 0.000000 1.628370 0.000000 
#    z 0.000000 0.000000 1.567710 
# 
# From -- ./inp_files/30631.got.cif
#   From: 2010.05.17/outbox.cif.g08.bks.cpg/sg42_16_cif.got.tgz:30631.got - 2010.06.03 19:03:34.
