data_PCOD9368090
_publ_section_title
;
Structure prediction by ZEFSAII (Michael W. Deem and Ramdas Pophale) SiO2 
 PCOD9368090
Probable space group: F M M 2
;
_chemical_formula_sum "Si O2"
_cell_formula_units_Z 48
_cell_length_a 5.519660
_cell_length_b 13.712088
_cell_length_c 27.551043
_cell_angle_alpha 90.000000
_cell_angle_beta 90.000000
_cell_angle_gamma 90.000000
_cell_volume 2085.229994
_symmetry_space_group_name_H-M "F M M 2"
_symmetry_group_IT_number 42
_symmetry_cell_setting 'orthorhombic'
loop_
_space_group_symop_operation_xyz
x,y,z
-x,-y,z
-x,y,z
x,-y,z
x,1/2+y,1/2+z
-x,1/2-y,1/2+z
-x,1/2+y,1/2+z
x,1/2-y,1/2+z
1/2+x,y,1/2+z
1/2-x,-y,1/2+z
1/2-x,y,1/2+z
1/2+x,-y,1/2+z
1/2+x,1/2+y,z
1/2-x,1/2-y,z
1/2-x,1/2+y,z
1/2+x,1/2-y,z
loop_
_atom_site_type_symbol
_atom_site_label
_atom_site_fract_x
_atom_site_fract_y
_atom_site_fract_z
Si Si1 0.000000 0.500000 0.579660
Si Si2 0.500000 0.309600 0.709245
Si Si3 0.000000 0.147549 0.823653
Si Si4 0.000000 0.803530 0.460950
Si Si5 0.000000 0.222905 0.066133
Si Si6 0.000000 0.000000 0.641865
Si Si7 0.000000 0.369227 0.863486
O O1 0.000000 0.393011 0.553244
O O2 0.748726 0.500000 0.610218
O O3 0.250000 0.250000 0.701789
O O4 0.500000 0.338797 0.766073
O O5 0.500000 0.404589 0.675501
O O6 0.000000 0.253208 0.850228
O O7 0.750983 0.099201 0.840141
O O8 0.750000 0.750000 0.449188
O O9 0.000000 0.888201 0.421313
O O10 0.000000 0.797130 0.519580
O O11 0.250000 0.250000 0.092140
#
# Coordination Sequence:
#
# PCOD9368090 Si02
#       7
#     4   8   8   8   8   4   8
#     4  12  26  50  66  91 132 161 206 276 332 370
#     4  12  23  42  65  95 127 167 212 262 319 372
#     4  10  16  27  51  85 115 164 200 236 302 358
#     4  10  16  27  49  88 118 150 204 241 286 365
#     4  10  23  40  68  98 122 168 208 258 317 389
#     4  12  30  44  68  97 122 165 214 274 320 386
#     4  10  14  25  48  87 117 157 206 232 292 366
#
# _framework density 23.019044000000001
#
# number of rings (size 3 to 8) (size 9 to 14) (size 15 to 20)
#    0.000    1.333    6.667    2.000    0.000    4.000 
#    0.000    0.000    0.000    1.000    0.000    2.333 
#    0.000    0.000    0.000    0.000    0.000    0.000 
#
# Total GULP energy -66874.796112 kJ/mol
# GULP energy per Si atom -5572.899676 kJ/mol
# Density = 2.296665 g / cm^3
# Si number density = 23.019044 Si / 1000 Ang^3
#
#
#
# Elastic Constant Matrix: (Units=GPa)
#
#
# Indices 1 2 3 4 5 6 
#
# 1 279.6493 51.0655 49.6226 0.0000 0.0000 0.0000
# 2 51.0655 143.1406 26.8057 0.0000 0.0000 0.0000
# 3 49.6226 26.8057 149.4899 0.0000 0.0000 0.0000
# 4 0.0000 0.0000 0.0000 -138.3765 0.0000 0.0000
# 5 0.0000 0.0000 0.0000 0.0000 -21.7428 0.0000
# 6 0.0000 0.0000 0.0000 0.0000 0.0000 -9.5707
#
#
#
# Elastic Compliance Matrix: (Units=1/GPa)
#
#
# Indices 1 2 3 4 5 6 
#
# 1 0.003995 -0.001218 -0.001108 0.000000 0.000000 0.000000
# 2 -0.001218 0.007600 -0.000959 0.000000 0.000000 0.000000
# 3 -0.001108 -0.000959 0.007229 0.000000 0.000000 0.000000
# 4 0.000000 0.000000 0.000000 -0.007227 0.000000 0.000000
# 5 0.000000 0.000000 0.000000 0.000000 -0.045992 0.000000
# 6 0.000000 0.000000 0.000000 0.000000 0.000000 -0.104486
#
#
# Mechanical properties :
#
#
# Convention : Reuss Voigt Hill
#
# Bulk Modulus (GPa) = 81.59354 91.91860 86.75607
# Shear Modulus (GPa) = -38.99314 -4.28559 -21.63936
#
# Velocity S-wave (km/s) = -4.12023 -1.36594 -3.06937
# Velocity P-wave (km/s) = 3.58999 6.12621 5.02088
#
# Compressibility (1/GPa) = 0.01225587
#
# Stress axis : x y z
#
# Youngs Moduli (GPa) = 250.32364 131.57767 138.33167
#
# Poissons Ratio (x) = 0.16022 0.15323
# Poissons Ratio (y) = 0.30482 0.13260
# Poissons Ratio (z) = 0.27729 0.12613
#
# Static dielectric constant tensor:
#      x y z
#    x 1.876730 0.000000 0.000000 
#    y 0.000000 1.950560 0.000000 
#    z 0.000000 0.000000 1.864900 
# 
# From -- ./inp_files/30953.got.cif
#   From: 2010.05.17/outbox.cif.g08.bks.cpg/sg42_16_cif.got.tgz:30953.got - 2010.06.03 19:03:34.
