data_PCOD9368755
_publ_section_title
;
Structure prediction by ZEFSAII (Michael W. Deem and Ramdas Pophale) SiO2 
 PCOD9368755
Probable space group: F M M 2
;
_chemical_formula_sum "Si O2"
_cell_formula_units_Z 72
_cell_length_a 10.762875
_cell_length_b 23.735268
_cell_length_c 12.020546
_cell_angle_alpha 90.000000
_cell_angle_beta 90.000000
_cell_angle_gamma 90.000000
_cell_volume 3070.765346
_symmetry_space_group_name_H-M "F M M 2"
_symmetry_group_IT_number 42
_symmetry_cell_setting 'orthorhombic'
loop_
_space_group_symop_operation_xyz
x,y,z
-x,-y,z
-x,y,z
x,-y,z
x,1/2+y,1/2+z
-x,1/2-y,1/2+z
-x,1/2+y,1/2+z
x,1/2-y,1/2+z
1/2+x,y,1/2+z
1/2-x,-y,1/2+z
1/2-x,y,1/2+z
1/2+x,-y,1/2+z
1/2+x,1/2+y,z
1/2-x,1/2-y,z
1/2-x,1/2+y,z
1/2+x,1/2-y,z
loop_
_atom_site_type_symbol
_atom_site_label
_atom_site_fract_x
_atom_site_fract_y
_atom_site_fract_z
Si Si1 0.000000 0.500000 0.449491
Si Si2 0.000000 0.376660 0.923411
Si Si3 0.000000 0.250559 0.932158
Si Si4 0.500000 0.500000 0.443200
Si Si5 0.709190 0.118151 0.733153
Si Si6 0.134072 0.277762 0.223136
Si Si7 0.000000 0.871230 0.052853
Si Si8 0.754722 0.000000 0.799163
O O1 0.000000 0.563211 0.507649
O O2 0.126743 0.500000 0.378662
O O3 0.000000 0.435763 0.992448
O O4 0.878994 0.377975 0.842235
O O5 0.000000 0.314895 0.977941
O O6 0.115632 0.249398 0.844680
O O7 0.000000 0.186575 0.980782
O O8 0.624866 0.500000 0.367684
O O9 0.827584 0.158251 0.738366
O O10 0.621106 0.132985 0.630661
O O11 0.753681 0.054807 0.724116
O O12 0.250000 0.250000 0.162088
O O13 0.000000 0.266776 0.171726
#
# Coordination Sequence:
#
# PCOD9368755 Si02
#       8
#     4   8   8   4  16  16   8   8
#     4  12  24  43  66 107 134 178 226 290 326 421
#     4   9  16  33  64  88 126 169 226 263 331 413
#     4  10  20  36  62  98 125 171 215 300 334 402
#     4   8  18  35  62  91 118 170 224 272 300 401
#     4  10  19  38  62  96 125 177 218 279 332 414
#     4  10  20  36  67  86 125 176 231 269 330 416
#     4  11  24  39  68 100 142 167 227 293 362 379
#     4  10  21  36  70  94 127 174 233 254 338 414
#
# _framework density 23.446925
#
# number of rings (size 3 to 8) (size 9 to 14) (size 15 to 20)
#    0.667    1.333    2.222    2.667    3.111    0.889 
#    0.000    1.111    2.444    0.000    0.000    0.000 
#    0.000    0.000    0.000    0.000    0.000    0.000 
#
# Total GULP energy -100251.203852 kJ/mol
# GULP energy per Si atom -5569.511325 kJ/mol
# Density = 2.339356 g / cm^3
# Si number density = 23.446925 Si / 1000 Ang^3
#
#
#
# Elastic Constant Matrix: (Units=GPa)
#
#
# Indices 1 2 3 4 5 6 
#
# 1 150.9645 35.8604 0.1285 0.0000 0.0000 0.0000
# 2 35.8604 248.1695 30.7416 0.0000 0.0000 0.0000
# 3 0.1285 30.7416 32.5436 0.0000 0.0000 0.0000
# 4 0.0000 0.0000 0.0000 23.6711 0.0000 0.0000
# 5 0.0000 0.0000 0.0000 0.0000 5.8334 0.0000
# 6 0.0000 0.0000 0.0000 0.0000 0.0000 44.1019
#
#
#
# Elastic Compliance Matrix: (Units=1/GPa)
#
#
# Indices 1 2 3 4 5 6 
#
# 1 0.006890 -0.001124 0.001034 0.000000 0.000000 0.000000
# 2 -0.001124 0.004747 -0.004480 0.000000 0.000000 0.000000
# 3 0.001034 -0.004480 0.034955 0.000000 0.000000 0.000000
# 4 0.000000 0.000000 0.000000 0.042246 0.000000 0.000000
# 5 0.000000 0.000000 0.000000 0.000000 0.171427 0.000000
# 6 0.000000 0.000000 0.000000 0.000000 0.000000 0.022675
#
#
# Mechanical properties :
#
#
# Convention : Reuss Voigt Hill
#
# Bulk Modulus (GPa) = 26.69910 62.79318 44.74614
# Shear Modulus (GPa) = 16.41698 39.05110 27.73404
#
# Velocity S-wave (km/s) = 2.64896 4.08549 3.44298
# Velocity P-wave (km/s) = 4.55716 7.00672 5.91024
#
# Compressibility (1/GPa) = 0.03745445
#
# Stress axis : x y z
#
# Youngs Moduli (GPa) = 145.13514 210.66923 28.60788
#
# Poissons Ratio (x) = 0.23674 -0.02959
# Poissons Ratio (y) = 0.16310 0.12815
# Poissons Ratio (z) = -0.15012 0.94369
#
# Static dielectric constant tensor:
#      x y z
#    x 1.971760 0.000000 0.000000 
#    y 0.000000 1.938250 0.000000 
#    z 0.000000 0.000000 1.898380 
# 
# From -- ./inp_files/12808.got.cif
#   From: 2010.05.17/outbox.cif.g08.bks.cpg/sg42_7_cif.got.tgz:12808.got - 2010.06.03 19:03:34.
