data_PCOD9368380
_publ_section_title
;
Structure prediction by ZEFSAII (Michael W. Deem and Ramdas Pophale) SiO2 
 PCOD9368380
Probable space group: F M M 2
;
_chemical_formula_sum "Si O2"
_cell_formula_units_Z 72
_cell_length_a 14.297811
_cell_length_b 15.675621
_cell_length_c 18.475323
_cell_angle_alpha 90.000000
_cell_angle_beta 90.000000
_cell_angle_gamma 90.000000
_cell_volume 4140.819944
_symmetry_space_group_name_H-M "F M M 2"
_symmetry_group_IT_number 42
_symmetry_cell_setting 'orthorhombic'
loop_
_space_group_symop_operation_xyz
x,y,z
-x,-y,z
-x,y,z
x,-y,z
x,1/2+y,1/2+z
-x,1/2-y,1/2+z
-x,1/2+y,1/2+z
x,1/2-y,1/2+z
1/2+x,y,1/2+z
1/2-x,-y,1/2+z
1/2-x,y,1/2+z
1/2+x,-y,1/2+z
1/2+x,1/2+y,z
1/2-x,1/2-y,z
1/2-x,1/2+y,z
1/2+x,1/2-y,z
loop_
_atom_site_type_symbol
_atom_site_label
_atom_site_fract_x
_atom_site_fract_y
_atom_site_fract_z
Si Si1 0.196173 0.401913 0.296350
Si Si2 0.709465 0.157983 0.943405
Si Si3 0.812455 0.000000 0.192674
Si Si4 0.000000 0.000000 0.936617
Si Si5 0.305996 0.000000 0.521131
Si Si6 0.000000 0.842206 0.825226
Si Si7 0.000000 0.842312 0.397808
Si Si8 0.500000 0.500000 0.286235
O O1 0.177722 0.500000 0.321629
O O2 0.253366 0.358312 0.361016
O O3 0.256199 0.418095 0.224517
O O4 0.097077 0.357607 0.283810
O O5 0.750000 0.250000 0.965268
O O6 0.597073 0.153476 0.941792
O O7 0.751596 0.083182 0.992287
O O8 0.909981 0.000000 0.234914
O O9 0.815844 0.000000 0.107312
O O10 0.091994 0.000000 0.985405
O O11 0.000000 0.085604 0.887960
O O12 0.000000 0.748854 0.858493
O O13 0.000000 0.918193 0.339002
#
# Coordination Sequence:
#
# PCOD9368380 Si02
#       8
#    16  16   8   4   8   8   8   4
#     4  10  18  37  59  86 114 147 199 245 285 337
#     4  12  21  38  61  91 119 152 197 245 295 344
#     4  10  23  38  61  83 121 166 191 230 303 354
#     4  12  17  36  62  90 115 142 212 244 277 354
#     4  12  23  40  59  85 125 162 187 242 295 356
#     4  12  18  33  65  93 109 143 200 256 290 326
#     4  12  22  33  63  91 117 147 196 250 296 342
#     4  12  21  40  54  86 119 150 204 240 285 358
#
# _framework density 17.387861000000001
#
# number of rings (size 3 to 8) (size 9 to 14) (size 15 to 20)
#    0.667    0.000    8.889    1.000    0.000    0.000 
#    0.000    5.556    0.000    0.000    0.000    0.000 
#    0.000    0.000    0.000    0.000    0.000    0.000 
#
# Total GULP energy -100418.603331 kJ/mol
# GULP energy per Si atom -5578.811296 kJ/mol
# Density = 1.734829 g / cm^3
# Si number density = 17.387861 Si / 1000 Ang^3
#
#
#
# Elastic Constant Matrix: (Units=GPa)
#
#
# Indices 1 2 3 4 5 6 
#
# 1 180.8524 48.8223 48.6180 0.0000 0.0000 0.0000
# 2 48.8223 138.7932 44.8662 0.0000 0.0000 0.0000
# 3 48.6180 44.8662 95.3031 0.0000 0.0000 0.0000
# 4 0.0000 0.0000 0.0000 7.9718 0.0000 0.0000
# 5 0.0000 0.0000 0.0000 0.0000 10.0038 0.0000
# 6 0.0000 0.0000 0.0000 0.0000 0.0000 17.6931
#
#
#
# Elastic Compliance Matrix: (Units=1/GPa)
#
#
# Indices 1 2 3 4 5 6 
#
# 1 0.006652 -0.001466 -0.002703 0.000000 0.000000 0.000000
# 2 -0.001466 0.008821 -0.003405 0.000000 0.000000 0.000000
# 3 -0.002703 -0.003405 0.013475 0.000000 0.000000 0.000000
# 4 0.000000 0.000000 0.000000 0.125443 0.000000 0.000000
# 5 0.000000 0.000000 0.000000 0.000000 0.099962 0.000000
# 6 0.000000 0.000000 0.000000 0.000000 0.000000 0.056519
#
#
# Mechanical properties :
#
#
# Convention : Reuss Voigt Hill
#
# Bulk Modulus (GPa) = 72.46596 77.72908 75.09752
# Shear Modulus (GPa) = 15.12308 25.30987 20.21648
#
# Velocity S-wave (km/s) = 2.95235 3.81938 3.41351
# Velocity P-wave (km/s) = 7.30674 8.01563 7.66938
#
# Compressibility (1/GPa) = 0.01379958
#
# Stress axis : x y z
#
# Youngs Moduli (GPa) = 150.33457 113.36137 74.21251
#
# Poissons Ratio (x) = 0.16619 0.20061
# Poissons Ratio (y) = 0.22040 0.25269
# Poissons Ratio (z) = 0.40638 0.38599
#
# Static dielectric constant tensor:
#      x y z
#    x 1.630040 0.000000 0.000000 
#    y 0.000000 1.588810 0.000000 
#    z 0.000000 0.000000 1.546090 
# 
# From -- ./inp_files/19772.got.cif
#   From: 2010.05.17/outbox.cif.g08.bks.cpg/sg42_10_cif.got.tgz:19772.got - 2010.06.03 19:03:34.
