data_PCOD9368452
_publ_section_title
;
Structure prediction by ZEFSAII (Michael W. Deem and Ramdas Pophale) SiO2 
 PCOD9368452
Probable space group: F M M 2
;
_chemical_formula_sum "Si O2"
_cell_formula_units_Z 116
_cell_length_a 31.118029
_cell_length_b 7.514546
_cell_length_c 25.956959
_cell_angle_alpha 90.000000
_cell_angle_beta 90.000000
_cell_angle_gamma 90.000000
_cell_volume 6069.719754
_symmetry_space_group_name_H-M "F M M 2"
_symmetry_group_IT_number 42
_symmetry_cell_setting 'orthorhombic'
loop_
_space_group_symop_operation_xyz
x,y,z
-x,-y,z
-x,y,z
x,-y,z
x,1/2+y,1/2+z
-x,1/2-y,1/2+z
-x,1/2+y,1/2+z
x,1/2-y,1/2+z
1/2+x,y,1/2+z
1/2-x,-y,1/2+z
1/2-x,y,1/2+z
1/2+x,-y,1/2+z
1/2+x,1/2+y,z
1/2-x,1/2-y,z
1/2-x,1/2+y,z
1/2+x,1/2-y,z
loop_
_atom_site_type_symbol
_atom_site_label
_atom_site_fract_x
_atom_site_fract_y
_atom_site_fract_z
Si Si1 0.200106 0.714180 0.187740
Si Si2 0.339920 0.784101 0.966990
Si Si3 0.062914 0.293278 0.439161
Si Si4 0.200185 0.787149 0.571795
Si Si5 0.363881 0.706207 0.774276
Si Si6 0.047802 0.716622 0.319613
Si Si7 0.298685 0.211122 0.863267
Si Si8 0.000000 0.500000 0.978404
O O1 0.196610 0.500000 0.187217
O O2 0.250000 0.750000 0.201319
O O3 0.191749 0.781205 0.129610
O O4 0.165699 0.784413 0.228890
O O5 0.386788 0.722677 0.950264
O O6 0.307284 0.727494 0.921746
O O7 0.339562 0.000000 0.968171
O O8 0.327028 0.719105 0.023641
O O9 0.050236 0.500000 0.444705
O O10 0.053740 0.237504 0.379850
O O11 0.037073 0.156963 0.474271
O O12 0.250000 0.750000 0.560655
O O13 0.194268 0.000000 0.573926
O O14 0.371551 0.500000 0.760649
O O15 0.410780 0.782569 0.787976
O O16 0.334163 0.710555 0.825086
O O17 0.048570 0.500000 0.317763
O O18 0.000000 0.774324 0.302983
O O19 0.250000 0.250000 0.847185
O O20 0.304942 0.000000 0.861454
#
# Coordination Sequence:
#
# PCOD9368452 Si02
#       8
#    16  16  16  16  16  16  16   4
#     4   9  18  32  51  73  98 136 178 222 270 320
#     4  10  20  34  50  74 106 142 178 225 273 324
#     4  11  21  34  55  80 109 147 183 222 278 332
#     4   9  18  33  52  74 101 138 181 228 270 317
#     4  10  19  32  50  72 102 136 173 220 269 320
#     4   9  17  31  50  74 100 134 176 220 266 322
#     4  11  22  32  46  69 103 142 178 211 265 329
#     4  12  22  36  56  78 116 144 182 236 268 326
#
# _framework density 19.111263000000001
#
# number of rings (size 3 to 8) (size 9 to 14) (size 15 to 20)
#    0.000    2.069    2.759    1.448    0.000    2.759 
#    0.000    0.000    0.000    0.000    1.793    0.000 
#    0.000    0.000    0.000    0.276    0.000    0.276 
#
# Total GULP energy -161572.807186 kJ/mol
# GULP energy per Si atom -5571.476110 kJ/mol
# Density = 1.906776 g / cm^3
# Si number density = 19.111263 Si / 1000 Ang^3
#
#
#
# Elastic Constant Matrix: (Units=GPa)
#
#
# Indices 1 2 3 4 5 6 
#
# 1 151.4445 -2.3516 65.2435 0.0002 -0.0001 -0.0004
# 2 -2.3516 64.4215 3.5950 0.0004 -0.0003 -0.0006
# 3 65.2435 3.5950 89.8112 0.0001 -0.0001 0.0000
# 4 0.0002 0.0004 0.0001 11.0455 -0.0002 -0.0002
# 5 -0.0001 -0.0003 -0.0001 -0.0002 30.4440 0.0000
# 6 -0.0004 -0.0006 0.0000 -0.0002 0.0000 4.3553
#
#
#
# Elastic Compliance Matrix: (Units=1/GPa)
#
#
# Indices 1 2 3 4 5 6 
#
# 1 0.009646 0.000745 -0.007037 0.000000 0.000000 0.000001
# 2 0.000745 0.015615 -0.001166 -0.000001 0.000000 0.000002
# 3 -0.007037 -0.001166 0.016294 0.000000 0.000000 -0.000001
# 4 0.000000 -0.000001 0.000000 0.090534 0.000001 0.000004
# 5 0.000000 0.000000 0.000000 0.000001 0.032847 0.000000
# 6 0.000001 0.000002 -0.000001 0.000004 0.000000 0.229603
#
#
# Mechanical properties :
#
#
# Convention : Reuss Voigt Hill
#
# Bulk Modulus (GPa) = 37.54109 48.73897 43.14003
# Shear Modulus (GPa) = 11.95211 25.11500 18.53355
#
# Velocity S-wave (km/s) = 2.50350 3.62905 3.11749
# Velocity P-wave (km/s) = 5.29554 6.56644 5.96493
#
# Compressibility (1/GPa) = 0.02663748
#
# Stress axis : x y z
#
# Youngs Moduli (GPa) = 103.66501 64.04082 61.37396
#
# Poissons Ratio (x) = -0.04770 0.43192
# Poissons Ratio (y) = -0.07721 0.07157
# Poissons Ratio (z) = 0.72954 0.07468
#
# Static dielectric constant tensor:
#      x y z
#    x 1.653480 0.000000 0.000000 
#    y 0.000000 1.720690 0.000000 
#    z 0.000000 0.000000 1.675590 
# 
# From -- ./inp_files/31966.got.cif
#   From: 2010.05.17/outbox.cif.g08.bks.cpg/sg42_16_cif.got.tgz:31966.got - 2010.06.03 19:03:34.
