data_PCOD9368417
_publ_section_title
;
Structure prediction by ZEFSAII (Michael W. Deem and Ramdas Pophale) SiO2 
 PCOD9368417
Probable space group: F M M 2
;
_chemical_formula_sum "Si O2"
_cell_formula_units_Z 112
_cell_length_a 7.510255
_cell_length_b 18.855159
_cell_length_c 38.243306
_cell_angle_alpha 90.000000
_cell_angle_beta 90.000000
_cell_angle_gamma 90.000000
_cell_volume 5415.521827
_symmetry_space_group_name_H-M "F M M 2"
_symmetry_group_IT_number 42
_symmetry_cell_setting 'orthorhombic'
loop_
_space_group_symop_operation_xyz
x,y,z
-x,-y,z
-x,y,z
x,-y,z
x,1/2+y,1/2+z
-x,1/2-y,1/2+z
-x,1/2+y,1/2+z
x,1/2-y,1/2+z
1/2+x,y,1/2+z
1/2-x,-y,1/2+z
1/2-x,y,1/2+z
1/2+x,-y,1/2+z
1/2+x,1/2+y,z
1/2-x,1/2-y,z
1/2-x,1/2+y,z
1/2+x,1/2-y,z
loop_
_atom_site_type_symbol
_atom_site_label
_atom_site_fract_x
_atom_site_fract_y
_atom_site_fract_z
Si Si1 0.713324 0.166669 0.378540
Si Si2 0.786400 0.833006 0.664832
Si Si3 0.281872 0.081937 0.310166
Si Si4 0.217295 0.416925 0.446410
Si Si5 0.213460 0.166680 0.742425
Si Si6 0.286563 0.581801 0.022733
Si Si7 0.287626 0.919413 0.098615
O O1 0.500000 0.158010 0.378758
O O2 0.750000 0.250000 0.377344
O O3 0.778322 0.126193 0.343949
O O4 0.780914 0.129748 0.414011
O O5 0.750000 0.750000 0.659948
O O6 0.718541 0.852725 0.703617
O O7 0.716632 0.876573 0.631774
O O8 0.000000 0.842260 0.665694
O O9 0.500000 0.083122 0.310040
O O10 0.220624 0.119607 0.274515
O O11 0.228254 0.000000 0.312165
O O12 0.267244 0.500000 0.442653
O O13 0.274534 0.390194 0.484978
O O14 0.000000 0.415732 0.446021
O O15 0.250000 0.250000 0.748358
O O16 0.000000 0.158489 0.741597
O O17 0.500000 0.579998 0.021328
O O18 0.221571 0.500000 0.024104
O O19 0.241082 0.614317 0.060262
O O20 0.500000 0.923897 0.102712
O O21 0.216007 0.000000 0.098310
#
# Coordination Sequence:
#
# PCOD9368417 Si02
#       7
#    16  16  16  16  16  16  16
#     4  10  19  31  48  69  94 122 150 182 221 265
#     4   9  18  31  46  65  90 121 152 182 221 267
#     4   9  17  29  48  73  94 115 150 190 221 255
#     4   8  14  27  48  69  87 113 152 191 222 258
#     4   9  17  30  48  68  91 119 150 184 222 265
#     4   8  14  26  45  67  88 113 148 187 225 265
#     4   9  17  29  45  66  91 117 147 185 228 269
#
# _framework density 20.681294999999999
#
# number of rings (size 3 to 8) (size 9 to 14) (size 15 to 20)
#    0.000    3.143    0.000    1.714    0.000    2.857 
#    0.000    4.286    0.000    7.286    0.000    4.000 
#    0.000    0.000    0.000    0.000    0.000    0.000 
#
# Total GULP energy -156101.987337 kJ/mol
# GULP energy per Si atom -5575.070976 kJ/mol
# Density = 2.063422 g / cm^3
# Si number density = 20.681295 Si / 1000 Ang^3
#
#
#
# Elastic Constant Matrix: (Units=GPa)
#
#
# Indices 1 2 3 4 5 6 
#
# 1 54.4459 -1.3130 10.2105 0.0000 0.0000 0.0000
# 2 -1.3130 102.5665 124.1040 0.0000 0.0000 0.0000
# 3 10.2105 124.1040 270.4198 0.0000 0.0000 0.0000
# 4 0.0000 0.0000 0.0000 30.1715 0.0000 0.0000
# 5 0.0000 0.0000 0.0000 0.0000 2.0949 0.0000
# 6 0.0000 0.0000 0.0000 0.0000 0.0000 16.6288
#
#
#
# Elastic Compliance Matrix: (Units=1/GPa)
#
#
# Indices 1 2 3 4 5 6 
#
# 1 0.018772 0.002469 -0.001842 0.000000 0.000000 0.000000
# 2 0.002469 0.022249 -0.010304 0.000000 0.000000 0.000000
# 3 -0.001842 -0.010304 0.008496 0.000000 0.000000 0.000000
# 4 0.000000 0.000000 0.000000 0.033144 0.000000 0.000000
# 5 0.000000 0.000000 0.000000 0.000000 0.477342 0.000000
# 6 0.000000 0.000000 0.000000 0.000000 0.000000 0.060137
#
#
# Mechanical properties :
#
#
# Convention : Reuss Voigt Hill
#
# Bulk Modulus (GPa) = 33.15285 77.04836 55.10060
# Shear Modulus (GPa) = 7.69766 29.40776 18.55271
#
# Velocity S-wave (km/s) = 1.93135 3.77497 2.99837
# Velocity P-wave (km/s) = 4.58679 7.50576 6.21993
#
# Compressibility (1/GPa) = 0.03016332
#
# Stress axis : x y z
#
# Youngs Moduli (GPa) = 53.27137 44.94569 117.69793
#
# Poissons Ratio (x) = -0.11097 0.21678
# Poissons Ratio (y) = -0.13152 1.21276
# Poissons Ratio (z) = 0.09812 0.46312
#
# Static dielectric constant tensor:
#      x y z
#    x 1.840780 0.000000 0.000000 
#    y 0.000000 1.685090 0.000000 
#    z 0.000000 0.000000 1.776210 
# 
# From -- ./inp_files/34178.got.cif
#   From: 2010.05.17/outbox.cif.g08.bks.cpg/sg42_18_cif.got.tgz:34178.got - 2010.06.03 19:03:34.
