data_PCOD9368225
_publ_section_title
;
Structure prediction by ZEFSAII (Michael W. Deem and Ramdas Pophale) SiO2 
 PCOD9368225
Probable space group: F M M 2
;
_chemical_formula_sum "Si O2"
_cell_formula_units_Z 64
_cell_length_a 22.378269
_cell_length_b 13.529812
_cell_length_c 12.266433
_cell_angle_alpha 90.000000
_cell_angle_beta 90.000000
_cell_angle_gamma 90.000000
_cell_volume 3713.954194
_symmetry_space_group_name_H-M "F M M 2"
_symmetry_group_IT_number 42
_symmetry_cell_setting 'orthorhombic'
loop_
_space_group_symop_operation_xyz
x,y,z
-x,-y,z
-x,y,z
x,-y,z
x,1/2+y,1/2+z
-x,1/2-y,1/2+z
-x,1/2+y,1/2+z
x,1/2-y,1/2+z
1/2+x,y,1/2+z
1/2-x,-y,1/2+z
1/2-x,y,1/2+z
1/2+x,-y,1/2+z
1/2+x,1/2+y,z
1/2-x,1/2-y,z
1/2-x,1/2+y,z
1/2+x,1/2-y,z
loop_
_atom_site_type_symbol
_atom_site_label
_atom_site_fract_x
_atom_site_fract_y
_atom_site_fract_z
Si Si1 0.759924 0.885964 0.311760
Si Si2 0.167235 0.113834 0.619412
Si Si3 0.162808 0.239326 0.918520
Si Si4 0.069626 0.385321 0.307458
O O1 0.724710 0.875326 0.198207
O O2 0.817348 0.817046 0.324270
O O3 0.713267 0.845724 0.403557
O O4 0.773225 0.000000 0.328368
O O5 0.165514 0.197008 0.527634
O O6 0.109802 0.123427 0.698662
O O7 0.167569 0.000000 0.577144
O O8 0.100221 0.188048 0.893433
O O9 0.075855 0.500000 0.343136
O O10 0.000000 0.365251 0.289227
#
# Coordination Sequence:
#
# PCOD9368225 Si02
#       4
#    16  16  16  16
#     4   9  19  33  48  73 107 134 161 200 246 298
#     4   9  18  33  52  76 104 134 167 201 245 297
#     4  10  18  29  53  78  96 127 171 207 240 286
#     4   9  19  36  54  72  98 131 168 209 249 294
#
# _framework density 17.232306000000001
#
# number of rings (size 3 to 8) (size 9 to 14) (size 15 to 20)
#    0.000    2.750    0.000    3.000    0.000    9.000 
#    0.000    0.000    0.000   29.250    0.000    0.000 
#    0.000    0.000    0.000    0.000    0.000    0.000 
#
# Total GULP energy -89156.068607 kJ/mol
# GULP energy per Si atom -5572.254288 kJ/mol
# Density = 1.719308 g / cm^3
# Si number density = 17.232306 Si / 1000 Ang^3
#
#
#
# Elastic Constant Matrix: (Units=GPa)
#
#
# Indices 1 2 3 4 5 6 
#
# 1 81.9719 37.5356 26.9981 0.0000 0.0000 0.0000
# 2 37.5356 108.2316 37.2002 0.0000 0.0000 0.0000
# 3 26.9981 37.2002 70.4775 0.0000 0.0000 0.0000
# 4 0.0000 0.0000 0.0000 37.9220 0.0000 0.0000
# 5 0.0000 0.0000 0.0000 0.0000 10.2807 0.0000
# 6 0.0000 0.0000 0.0000 0.0000 0.0000 30.5007
#
#
#
# Elastic Compliance Matrix: (Units=1/GPa)
#
#
# Indices 1 2 3 4 5 6 
#
# 1 0.015265 -0.004012 -0.003730 0.000000 0.000000 0.000000
# 2 -0.004012 0.012342 -0.004977 0.000000 0.000000 0.000000
# 3 -0.003730 -0.004977 0.018245 0.000000 0.000000 0.000000
# 4 0.000000 0.000000 0.000000 0.026370 0.000000 0.000000
# 5 0.000000 0.000000 0.000000 0.000000 0.097270 0.000000
# 6 0.000000 0.000000 0.000000 0.000000 0.000000 0.032786
#
#
# Mechanical properties :
#
#
# Convention : Reuss Voigt Hill
#
# Bulk Modulus (GPa) = 48.98869 51.57209 50.28039
# Shear Modulus (GPa) = 21.32010 26.33715 23.82863
#
# Velocity S-wave (km/s) = 3.52123 3.91366 3.72262
# Velocity P-wave (km/s) = 6.70985 7.10034 6.90786
#
# Compressibility (1/GPa) = 0.02041288
#
# Stress axis : x y z
#
# Youngs Moduli (GPa) = 65.50970 81.02671 54.80955
#
# Poissons Ratio (x) = 0.32508 0.20444
# Poissons Ratio (y) = 0.26282 0.27281
# Poissons Ratio (z) = 0.24435 0.40330
#
# Static dielectric constant tensor:
#      x y z
#    x 1.586990 0.000000 0.000000 
#    y 0.000000 1.608950 0.000000 
#    z 0.000000 0.000000 1.606870 
# 
# From -- ./inp_files/7583.got.cif
#   From: 2010.05.17/outbox.cif.g08.bks.cpg/sg42_4_cif.got.tgz:7583.got - 2010.06.03 19:03:34.
