data_PCOD9368058
_publ_section_title
;
Structure prediction by ZEFSAII (Michael W. Deem and Ramdas Pophale) SiO2 
 PCOD9368058
Probable space group: A B A 2
;
_chemical_formula_sum "Si O2"
_cell_formula_units_Z 32
_cell_length_a 12.000000
_cell_length_b 18.000000
_cell_length_c 15.000000
_cell_angle_alpha 90.000000
_cell_angle_beta 90.000000
_cell_angle_gamma 90.000000
_cell_volume 3240.000000
_symmetry_space_group_name_H-M "A B A 2"
_symmetry_group_IT_number 41
_symmetry_cell_setting 'orthorhombic'
loop_
_space_group_symop_operation_xyz
x,y,z
-x,-y,z
1/2-x,y,1/2+z
1/2+x,-y,1/2+z
x,1/2+y,1/2+z
-x,1/2-y,1/2+z
1/2-x,1/2+y,z
1/2+x,1/2-y,z
loop_
_atom_site_type_symbol
_atom_site_label
_atom_site_fract_x
_atom_site_fract_y
_atom_site_fract_z
Si Si1 0.582290 0.272322 0.245040
Si Si2 0.746358 0.438357 0.960391
Si Si3 0.092437 0.937579 0.527571
Si Si4 0.115747 0.266319 0.610424
Si Si5 0.632810 0.985815 0.282851
Si Si6 0.215090 0.870894 0.697259
Si Si7 0.738197 0.378318 0.151004
Si Si8 0.060568 0.684382 0.939838
O O1 0.489466 0.253517 0.172955
O O2 0.666681 0.202943 0.243621
O O3 0.639578 0.349129 0.213467
O O4 0.535604 0.284435 0.342928
O O5 0.662135 0.451019 0.879291
O O6 0.830923 0.370231 0.937205
O O7 0.815339 0.514741 0.974993
O O8 0.701093 0.417640 0.059196
O O9 0.138874 0.901440 0.617069
O O10 0.036166 0.870532 0.473657
O O11 0.000000 0.000000 0.549070
O O12 0.173946 0.341627 0.646133
O O13 0.199741 0.197712 0.624832
O O14 0.079764 0.252683 0.508307
O O15 0.677431 0.929984 0.206204
O O16 0.500000 0.000000 0.275930
O O17 0.706010 0.060918 0.266415
#
# Coordination Sequence:
#
# PCOD9368058 Si02
#       8
#     8   8   8   8   8   8   8   8
#     4  11  22  43  63  94 132 168 214 264 335 385
#     4  10  22  41  66  96 124 164 219 269 311 386
#     4  10  20  39  70  90 122 169 221 264 318 387
#     4  10  23  41  63  96 128 169 216 267 327 387
#     4  12  24  42  69  98 128 174 223 268 330 390
#     4  11  23  40  64  95 129 165 216 274 318 386
#     4  10  22  45  67  88 134 173 212 265 328 390
#     4  10  21  41  69  91 124 173 212 257 333 392
#
# _framework density 9.8765429999999999
#
# number of rings (size 3 to 8) (size 9 to 14) (size 15 to 20)
#    0.000    1.500    3.750    1.125    3.500    1.000 
#    9.000    0.625    0.000    0.000    0.000    0.000 
#    0.000    0.000    0.000    0.000    0.000    0.000 
#
# Total GULP energy -178545.059710 kJ/mol
# GULP energy per Si atom -5579.533116 kJ/mol
# Density = 0.985406 g / cm^3
# Si number density = 9.876543 Si / 1000 Ang^3
#
#
#
# Elastic Constant Matrix: (Units=GPa)
#
#
# Indices 1 2 3 4 5 6 
#
# 1 -4.7771 -13.5872 16.3659 0.0000 0.0000 0.0000
# 2 -13.5872 41.8790 11.2997 0.0000 0.0000 0.0000
# 3 16.3659 11.2997 129.1587 0.0000 0.0000 0.0000
# 4 0.0000 0.0000 0.0000 25.0449 0.0000 0.0000
# 5 0.0000 0.0000 0.0000 0.0000 18.0936 0.0000
# 6 0.0000 0.0000 0.0000 0.0000 0.0000 13.3559
#
#
#
# Elastic Compliance Matrix: (Units=1/GPa)
#
#
# Indices 1 2 3 4 5 6 
#
# 1 -0.080859 -0.029699 0.012844 0.000000 0.000000 0.000000
# 2 -0.029699 0.013547 0.002578 0.000000 0.000000 0.000000
# 3 0.012844 0.002578 0.005889 0.000000 0.000000 0.000000
# 4 0.000000 0.000000 0.000000 0.039928 0.000000 0.000000
# 5 0.000000 0.000000 0.000000 0.000000 0.055268 0.000000
# 6 0.000000 0.000000 0.000000 0.000000 0.000000 0.074873
#
#
# Mechanical properties :
#
#
# Convention : Reuss Voigt Hill
#
# Bulk Modulus (GPa) = -11.11399 21.60193 5.24397
# Shear Modulus (GPa) = 46.63761 21.44438 34.04099
#
# Velocity S-wave (km/s) = 4.86431 3.29845 4.15580
# Velocity P-wave (km/s) = 5.09019 5.04639 5.06834
#
# Compressibility (1/GPa) = -0.08997666
#
# Stress axis : x y z
#
# Youngs Moduli (GPa) = -12.36724 73.81635 169.79691
#
# Poissons Ratio (x) = 2.19229 -2.18087
# Poissons Ratio (y) = -0.36730 -0.43774
# Poissons Ratio (z) = 0.15884 -0.19030
#
# Static dielectric constant tensor:
#      x y z
#    x 1.718990 0.000000 0.000000 
#    y 0.000000 1.698720 0.000000 
#    z 0.000000 0.000000 1.702370 
# 
# From -- ./inp_files/8089.got.cif
#   From: 2010.05.17/outbox.ucp.g08.bks.cvg/sg41_5_cif.got.tgz:8089.got - 2010.06.11 16:28:22.
