data_PCOD9368737
_publ_section_title
;
Structure prediction by ZEFSAII (Michael W. Deem and Ramdas Pophale) SiO2 
 PCOD9368737
Probable space group: F M M 2
;
_chemical_formula_sum "Si O2"
_cell_formula_units_Z 56
_cell_length_a 19.765688
_cell_length_b 7.270158
_cell_length_c 15.046849
_cell_angle_alpha 90.000000
_cell_angle_beta 90.000000
_cell_angle_gamma 90.000000
_cell_volume 2162.227307
_symmetry_space_group_name_H-M "F M M 2"
_symmetry_group_IT_number 42
_symmetry_cell_setting 'orthorhombic'
loop_
_space_group_symop_operation_xyz
x,y,z
-x,-y,z
-x,y,z
x,-y,z
x,1/2+y,1/2+z
-x,1/2-y,1/2+z
-x,1/2+y,1/2+z
x,1/2-y,1/2+z
1/2+x,y,1/2+z
1/2-x,-y,1/2+z
1/2-x,y,1/2+z
1/2+x,-y,1/2+z
1/2+x,1/2+y,z
1/2-x,1/2-y,z
1/2-x,1/2+y,z
1/2+x,1/2-y,z
loop_
_atom_site_type_symbol
_atom_site_label
_atom_site_fract_x
_atom_site_fract_y
_atom_site_fract_z
Si Si1 0.000000 0.707180 0.392810
Si Si2 0.350168 0.274939 0.929678
Si Si3 0.850894 0.276819 0.629312
Si Si4 0.000000 0.221528 0.186518
Si Si5 0.250000 0.750000 0.278969
O O1 0.071994 0.785462 0.420449
O O2 0.000000 0.500000 0.430913
O O3 0.000000 0.704920 0.286371
O O4 0.347071 0.500000 0.917007
O O5 0.304720 0.188081 0.853255
O O6 0.328352 0.232642 0.029709
O O7 0.845357 0.500000 0.641356
O O8 0.929737 0.226435 0.640337
O O9 0.805343 0.188243 0.705456
O O10 0.000000 0.000000 0.191748
#
# Coordination Sequence:
#
# PCOD9368737 Si02
#       5
#     8  16  16   8   8
#     4  10  19  37  61  82 108 146 191 235 273 326
#     4  10  21  36  56  81 109 147 189 226 273 333
#     4  10  21  36  56  81 109 147 189 226 273 333
#     4  10  19  37  61  82 108 146 191 235 273 326
#     4  12  20  34  56  80 116 142 176 236 282 324
#
# _framework density 25.899218000000001
#
# number of rings (size 3 to 8) (size 9 to 14) (size 15 to 20)
#    0.000    1.714    2.857    2.571    0.000    3.429 
#    0.000    0.000    0.000    6.857    0.000    0.000 
#    0.000    0.000    0.000    0.000    0.000    0.000 
#
# Total GULP energy -78114.285650 kJ/mol
# GULP energy per Si atom -5579.591832 kJ/mol
# Density = 2.584027 g / cm^3
# Si number density = 25.899218 Si / 1000 Ang^3
#
#
#
# Elastic Constant Matrix: (Units=GPa)
#
#
# Indices 1 2 3 4 5 6 
#
# 1 255.1852 26.5617 101.3961 0.0000 0.0000 0.0000
# 2 26.5617 132.4265 31.7533 0.0000 0.0000 0.0000
# 3 101.3961 31.7533 260.9392 0.0000 0.0000 0.0000
# 4 0.0000 0.0000 0.0000 -3.3565 0.0000 0.0000
# 5 0.0000 0.0000 0.0000 0.0000 152.9192 0.0000
# 6 0.0000 0.0000 0.0000 0.0000 0.0000 -88.1692
#
#
#
# Elastic Compliance Matrix: (Units=1/GPa)
#
#
# Indices 1 2 3 4 5 6 
#
# 1 0.004668 -0.000516 -0.001751 0.000000 0.000000 0.000000
# 2 -0.000516 0.007835 -0.000753 0.000000 0.000000 0.000000
# 3 -0.001751 -0.000753 0.004604 0.000000 0.000000 0.000000
# 4 0.000000 0.000000 0.000000 -0.297929 0.000000 0.000000
# 5 0.000000 0.000000 0.000000 0.000000 0.006539 0.000000
# 6 0.000000 0.000000 0.000000 0.000000 0.000000 -0.011342
#
#
# Mechanical properties :
#
#
# Convention : Reuss Voigt Hill
#
# Bulk Modulus (GPa) = 90.35634 107.55257 98.95445
# Shear Modulus (GPa) = -18.12296 44.86803 13.37254
#
# Velocity S-wave (km/s) = -2.64815 4.16674 2.27475
# Velocity P-wave (km/s) = 5.06094 8.04776 6.72234
#
# Compressibility (1/GPa) = 0.01106729
#
# Stress axis : x y z
#
# Youngs Moduli (GPa) = 214.21113 127.62503 217.18417
#
# Poissons Ratio (x) = 0.06591 0.38033
# Poissons Ratio (y) = 0.11063 0.16350
# Poissons Ratio (z) = 0.37512 0.09608
#
# Static dielectric constant tensor:
#      x y z
#    x 1.966980 0.000000 0.000000 
#    y 0.000000 1.085600 0.000000 
#    z 0.000000 0.000000 1.900190 
# 
# From -- ./inp_files/2584.got.cif
#   From: 2010.05.17/outbox.cif.g08.bks.cpg/sg42_2_cif.got.tgz:2584.got - 2010.06.03 19:03:34.
