data_PCOD9368283
_publ_section_title
;
Structure prediction by ZEFSAII (Michael W. Deem and Ramdas Pophale) SiO2 
 PCOD9368283
Probable space group: F M M 2
;
_chemical_formula_sum "Si O2"
_cell_formula_units_Z 80
_cell_length_a 28.568273
_cell_length_b 18.672374
_cell_length_c 7.642405
_cell_angle_alpha 90.000000
_cell_angle_beta 90.000000
_cell_angle_gamma 90.000000
_cell_volume 4076.745249
_symmetry_space_group_name_H-M "F M M 2"
_symmetry_group_IT_number 42
_symmetry_cell_setting 'orthorhombic'
loop_
_space_group_symop_operation_xyz
x,y,z
-x,-y,z
-x,y,z
x,-y,z
x,1/2+y,1/2+z
-x,1/2-y,1/2+z
-x,1/2+y,1/2+z
x,1/2-y,1/2+z
1/2+x,y,1/2+z
1/2-x,-y,1/2+z
1/2-x,y,1/2+z
1/2+x,-y,1/2+z
1/2+x,1/2+y,z
1/2-x,1/2-y,z
1/2-x,1/2+y,z
1/2+x,1/2-y,z
loop_
_atom_site_type_symbol
_atom_site_label
_atom_site_fract_x
_atom_site_fract_y
_atom_site_fract_z
Si Si1 0.945779 0.184183 0.181700
Si Si2 0.107614 0.415440 0.412788
Si Si3 0.695422 0.319404 0.503975
Si Si4 0.406784 0.333767 0.549645
Si Si5 0.795098 0.154376 0.908933
O O1 0.916281 0.256556 0.140440
O O2 0.941603 0.161046 0.385216
O O3 0.000000 0.199249 0.141856
O O4 0.925555 0.124978 0.050090
O O5 0.102015 0.500000 0.419124
O O6 0.095269 0.387408 0.215311
O O7 0.161588 0.394834 0.464641
O O8 0.643197 0.337894 0.448706
O O9 0.739788 0.361412 0.426425
O O10 0.700323 0.233761 0.488741
O O11 0.696727 0.336547 0.705889
#
# Coordination Sequence:
#
# PCOD9368283 Si02
#       5
#    16  16  16  16  16
#     4  12  24  41  72 104 127 172 231 285 334 393
#     4  11  26  45  64  96 144 180 213 276 347 404
#     4  10  18  31  59  93 121 164 213 269 317 376
#     4  11  22  41  69  99 134 167 225 281 331 393
#     4  10  19  32  59  93 126 163 215 264 325 386
#
# _framework density 19.623498000000001
#
# number of rings (size 3 to 8) (size 9 to 14) (size 15 to 20)
#    0.000    1.200    4.000    4.200    2.800    2.000 
#    0.000    4.000    0.000    0.000    0.000    0.000 
#    0.000    0.000    0.000    0.000    0.000    0.000 
#
# Total GULP energy -111454.026171 kJ/mol
# GULP energy per Si atom -5572.701309 kJ/mol
# Density = 1.957883 g / cm^3
# Si number density = 19.623498 Si / 1000 Ang^3
#
#
#
# Elastic Constant Matrix: (Units=GPa)
#
#
# Indices 1 2 3 4 5 6 
#
# 1 85.9363 -5.6589 22.8331 0.0000 0.0000 0.0000
# 2 -5.6589 64.2803 29.4826 -0.0002 0.0000 0.0000
# 3 22.8331 29.4826 61.9488 -0.0006 0.0000 0.0000
# 4 0.0000 -0.0002 -0.0006 23.6056 0.0000 0.0000
# 5 0.0000 0.0000 0.0000 0.0000 35.8818 0.0000
# 6 0.0000 0.0000 0.0000 0.0000 0.0000 7.5150
#
#
#
# Elastic Compliance Matrix: (Units=1/GPa)
#
#
# Indices 1 2 3 4 5 6 
#
# 1 0.013872 0.004562 -0.007284 0.000000 0.000000 0.000000
# 2 0.004562 0.021401 -0.011867 0.000000 0.000000 0.000000
# 3 -0.007284 -0.011867 0.024475 0.000000 0.000000 0.000000
# 4 0.000000 0.000000 0.000000 0.042363 0.000000 0.000000
# 5 0.000000 0.000000 0.000000 0.000000 0.027869 0.000000
# 6 0.000000 0.000000 0.000000 0.000000 0.000000 0.133067
#
#
# Mechanical properties :
#
#
# Convention : Reuss Voigt Hill
#
# Bulk Modulus (GPa) = 32.71102 33.94209 33.32656
# Shear Modulus (GPa) = 16.53353 24.43440 20.48397
#
# Velocity S-wave (km/s) = 2.90580 3.53251 3.23437
# Velocity P-wave (km/s) = 5.28807 5.82858 5.56489
#
# Compressibility (1/GPa) = 0.03057074
#
# Stress axis : x y z
#
# Youngs Moduli (GPa) = 72.08566 46.72615 40.85827
#
# Poissons Ratio (x) = -0.21318 0.29763
# Poissons Ratio (y) = -0.32887 0.48486
# Poissons Ratio (z) = 0.52510 0.55449
#
# Static dielectric constant tensor:
#      x y z
#    x 1.880230 0.000000 0.000000 
#    y 0.000000 1.631230 0.000000 
#    z 0.000000 0.000000 1.685550 
# 
# From -- ./inp_files/5110.got.cif
#   From: 2010.05.17/outbox.cif.g08.bks.cpg/sg42_3_cif.got.tgz:5110.got - 2010.06.03 19:03:34.
