data_PCOD9368045
_publ_section_title
;
Structure prediction by ZEFSAII (Michael W. Deem and Ramdas Pophale) SiO2 
 PCOD9368045
Probable space group: A B A 2
;
_chemical_formula_sum "Si O2"
_cell_formula_units_Z 32
_cell_length_a 7.946413
_cell_length_b 10.769342
_cell_length_c 12.950244
_cell_angle_alpha 90.000000
_cell_angle_beta 90.000000
_cell_angle_gamma 90.000000
_cell_volume 1108.251309
_symmetry_space_group_name_H-M "A B A 2"
_symmetry_group_IT_number 41
_symmetry_cell_setting 'orthorhombic'
loop_
_space_group_symop_operation_xyz
x,y,z
-x,-y,z
1/2-x,y,1/2+z
1/2+x,-y,1/2+z
x,1/2+y,1/2+z
-x,1/2-y,1/2+z
1/2-x,1/2+y,z
1/2+x,1/2-y,z
loop_
_atom_site_type_symbol
_atom_site_label
_atom_site_fract_x
_atom_site_fract_y
_atom_site_fract_z
Si Si1 0.384994 0.863032 0.710630
Si Si2 0.671906 0.566134 0.988795
Si Si3 0.494583 0.867028 0.223037
Si Si4 0.813023 0.840243 0.379293
O O1 0.343162 0.947878 0.613065
O O2 0.459031 0.743901 0.648767
O O3 0.198306 0.853641 0.758521
O O4 0.530354 0.866888 0.798407
O O5 0.500000 0.500000 0.950995
O O6 0.688332 0.711153 0.948704
O O7 0.805606 0.465055 0.948463
O O8 0.643487 0.851447 0.307260
O O9 0.500000 0.000000 0.175745
#
# Coordination Sequence:
#
# PCOD9368045 Si02
#       4
#     8   8   8   8
#     4  12  30  57  94 132 196 246 317 401 482 574
#     4  12  33  59  94 149 184 252 339 383 500 593
#     4  12  29  54  93 135 183 252 315 385 497 570
#     4  12  29  63  95 135 197 248 318 412 476 593
#
# _framework density 28.874317000000001
#
# number of rings (size 3 to 8) (size 9 to 14) (size 15 to 20)
#    0.000    0.000    2.500    3.750   10.500    2.000 
#    0.000    5.000    0.000    0.000    0.000    0.000 
#    0.000    0.000    0.000    0.000    0.000    0.000 
#
# Total GULP energy -89081.697110 kJ/mol
# GULP energy per Si atom -5567.606069 kJ/mol
# Density = 2.880860 g / cm^3
# Si number density = 28.874317 Si / 1000 Ang^3
#
#
#
# Elastic Constant Matrix: (Units=GPa)
#
#
# Indices 1 2 3 4 5 6 
#
# 1 263.5193 76.5201 96.4499 0.0000 0.0000 0.0000
# 2 76.5201 190.3598 50.4484 0.0000 0.0000 0.0000
# 3 96.4499 50.4484 157.6101 0.0000 0.0000 0.0000
# 4 0.0000 0.0000 0.0000 23.4795 0.0000 0.0000
# 5 0.0000 0.0000 0.0000 0.0000 48.5891 0.0000
# 6 0.0000 0.0000 0.0000 0.0000 0.0000 37.7921
#
#
#
# Elastic Compliance Matrix: (Units=1/GPa)
#
#
# Indices 1 2 3 4 5 6 
#
# 1 0.005194 -0.001361 -0.002743 0.000000 0.000000 0.000000
# 2 -0.001361 0.006097 -0.001119 0.000000 0.000000 0.000000
# 3 -0.002743 -0.001119 0.008381 0.000000 0.000000 0.000000
# 4 0.000000 0.000000 0.000000 0.042590 0.000000 0.000000
# 5 0.000000 0.000000 0.000000 0.000000 0.020581 0.000000
# 6 0.000000 0.000000 0.000000 0.000000 0.000000 0.026461
#
#
# Mechanical properties :
#
#
# Convention : Reuss Voigt Hill
#
# Bulk Modulus (GPa) = 108.37561 117.59176 112.98369
# Shear Modulus (GPa) = 40.70871 47.84353 44.27612
#
# Velocity S-wave (km/s) = 3.75888 4.07499 3.92012
# Velocity P-wave (km/s) = 7.51359 7.93439 7.72685
#
# Compressibility (1/GPa) = 0.00922717
#
# Stress axis : x y z
#
# Youngs Moduli (GPa) = 192.53558 164.02246 119.31350
#
# Poissons Ratio (x) = 0.22322 0.32725
# Poissons Ratio (y) = 0.26203 0.13347
# Poissons Ratio (z) = 0.52808 0.18348
#
# Static dielectric constant tensor:
#      x y z
#    x 2.297620 0.000000 0.000000 
#    y 0.000000 2.795400 0.000000 
#    z 0.000000 0.000000 2.263950 
# 
# From -- ./inp_files/4731.got.cif
#   From: 2010.05.17/outbox.cif.g08.bks.cpg/sg41_3_cif.got.tgz:4731.got - 2010.06.03 18:54:24.
