data_PCOD9368649
_publ_section_title
;
Structure prediction by ZEFSAII (Michael W. Deem and Ramdas Pophale) SiO2 
 PCOD9368649
Probable space group: F M M 2
;
_chemical_formula_sum "Si O2"
_cell_formula_units_Z 96
_cell_length_a 31.759836
_cell_length_b 15.711879
_cell_length_c 9.279696
_cell_angle_alpha 90.000000
_cell_angle_beta 90.000000
_cell_angle_gamma 90.000000
_cell_volume 4630.630481
_symmetry_space_group_name_H-M "F M M 2"
_symmetry_group_IT_number 42
_symmetry_cell_setting 'orthorhombic'
loop_
_space_group_symop_operation_xyz
x,y,z
-x,-y,z
-x,y,z
x,-y,z
x,1/2+y,1/2+z
-x,1/2-y,1/2+z
-x,1/2+y,1/2+z
x,1/2-y,1/2+z
1/2+x,y,1/2+z
1/2-x,-y,1/2+z
1/2-x,y,1/2+z
1/2+x,-y,1/2+z
1/2+x,1/2+y,z
1/2-x,1/2-y,z
1/2-x,1/2+y,z
1/2+x,1/2-y,z
loop_
_atom_site_type_symbol
_atom_site_label
_atom_site_fract_x
_atom_site_fract_y
_atom_site_fract_z
Si Si1 0.806308 0.500000 0.616030
Si Si2 0.929299 0.000000 0.876650
Si Si3 0.164169 0.500000 0.279814
Si Si4 0.547562 0.344162 0.230973
Si Si5 0.430863 0.317641 0.903536
Si Si6 0.334034 0.685238 0.797152
Si Si7 0.899867 0.500000 0.714703
Si Si8 0.789927 0.810160 0.101429
O O1 0.819633 0.500000 0.446499
O O2 0.849797 0.500000 0.705745
O O3 0.784020 0.409427 0.642739
O O4 0.949722 0.091434 0.853388
O O5 0.886344 0.000000 0.786264
O O6 0.915764 0.000000 0.046729
O O7 0.175791 0.406395 0.221640
O O8 0.500000 0.378476 0.217968
O O9 0.548419 0.263374 0.332890
O O10 0.579698 0.416517 0.282607
O O11 0.563321 0.314652 0.074330
O O12 0.381538 0.317976 0.858793
O O13 0.326643 0.765281 0.694290
O O14 0.303629 0.692914 0.934935
O O15 0.750000 0.750000 0.125585
#
# Coordination Sequence:
#
# PCOD9368649 Si02
#       8
#     8   8   8  16  16  16   8  16
#     4   9  18  36  56  77 107 147 183 216 266 329
#     4   7  14  29  52  76  97 135 187 218 247 310
#     4   7  14  29  53  76 102 135 177 222 259 306
#     4  11  21  34  54  84 112 139 179 232 281 322
#     4  10  19  35  57  79 108 147 185 224 269 329
#     4  10  19  36  57  80 107 147 189 221 267 332
#     4   9  17  34  57  77 101 145 191 222 255 323
#     4  11  22  36  56  83 112 142 181 234 280 318
#
# _framework density 20.731518000000001
#
# number of rings (size 3 to 8) (size 9 to 14) (size 15 to 20)
#    0.000    2.333    0.000    6.250    0.000    0.667 
#    0.000    5.417    0.000    2.000    0.000    0.000 
#    0.000    0.000    0.000    0.000    0.000    0.000 
#
# Total GULP energy -133863.615323 kJ/mol
# GULP energy per Si atom -5577.650638 kJ/mol
# Density = 2.068433 g / cm^3
# Si number density = 20.731518 Si / 1000 Ang^3
#
#
#
# Elastic Constant Matrix: (Units=GPa)
#
#
# Indices 1 2 3 4 5 6 
#
# 1 84.3083 24.4033 -9.2031 0.0000 0.0000 0.0000
# 2 24.4033 174.1129 28.6835 0.0000 0.0000 0.0000
# 3 -9.2031 28.6835 19.8996 0.0000 0.0000 0.0000
# 4 0.0000 0.0000 0.0000 23.9917 0.0000 0.0000
# 5 0.0000 0.0000 0.0000 0.0000 27.4581 0.0000
# 6 0.0000 0.0000 0.0000 0.0000 0.0000 -204.6910
#
#
#
# Elastic Compliance Matrix: (Units=1/GPa)
#
#
# Indices 1 2 3 4 5 6 
#
# 1 0.014417 -0.004090 0.012563 0.000000 0.000000 0.000000
# 2 -0.004090 0.008692 -0.014421 0.000000 0.000000 0.000000
# 3 0.012563 -0.014421 0.076849 0.000000 0.000000 0.000000
# 4 0.000000 0.000000 0.000000 0.041681 0.000000 0.000000
# 5 0.000000 0.000000 0.000000 0.000000 0.036419 0.000000
# 6 0.000000 0.000000 0.000000 0.000000 0.000000 -0.004885
#
#
# Mechanical properties :
#
#
# Convention : Reuss Voigt Hill
#
# Bulk Modulus (GPa) = 11.35568 40.67646 26.01607
# Shear Modulus (GPa) = 23.31840 -15.01910 4.14965
#
# Velocity S-wave (km/s) = 3.35741 -2.69449 1.41632
# Velocity P-wave (km/s) = 4.52979 3.15955 3.90524
#
# Compressibility (1/GPa) = 0.08806166
#
# Stress axis : x y z
#
# Youngs Moduli (GPa) = 69.36473 115.04289 13.01252
#
# Poissons Ratio (x) = 0.47055 -0.16348
# Poissons Ratio (y) = 0.28372 0.18765
# Poissons Ratio (z) = -0.87143 1.65903
#
# Static dielectric constant tensor:
#      x y z
#    x 1.759570 0.000000 0.000000 
#    y 0.000000 1.789070 0.000000 
#    z 0.000000 0.000000 1.696790 
# 
# From -- ./inp_files/11078.got.cif
#   From: 2010.05.17/outbox.cif.g08.bks.cpg/sg42_6_cif.got.tgz:11078.got - 2010.06.03 19:03:34.
