data_PCOD9368478
_publ_section_title
;
Structure prediction by ZEFSAII (Michael W. Deem and Ramdas Pophale) SiO2 
 PCOD9368478
Probable space group: F M M 2
;
_chemical_formula_sum "Si O2"
_cell_formula_units_Z 80
_cell_length_a 17.137685
_cell_length_b 8.028653
_cell_length_c 29.814734
_cell_angle_alpha 90.000000
_cell_angle_beta 90.000000
_cell_angle_gamma 90.000000
_cell_volume 4102.284566
_symmetry_space_group_name_H-M "F M M 2"
_symmetry_group_IT_number 42
_symmetry_cell_setting 'orthorhombic'
loop_
_space_group_symop_operation_xyz
x,y,z
-x,-y,z
-x,y,z
x,-y,z
x,1/2+y,1/2+z
-x,1/2-y,1/2+z
-x,1/2+y,1/2+z
x,1/2-y,1/2+z
1/2+x,y,1/2+z
1/2-x,-y,1/2+z
1/2-x,y,1/2+z
1/2+x,-y,1/2+z
1/2+x,1/2+y,z
1/2-x,1/2-y,z
1/2-x,1/2+y,z
1/2+x,1/2-y,z
loop_
_atom_site_type_symbol
_atom_site_label
_atom_site_fract_x
_atom_site_fract_y
_atom_site_fract_z
Si Si1 0.594725 0.694430 0.985370
Si Si2 0.838924 0.191016 0.796277
Si Si3 0.907452 0.500000 0.742098
Si Si4 0.095605 0.000000 0.139851
Si Si5 0.093415 0.694971 0.887325
Si Si6 0.904675 0.683280 0.081683
O O1 0.500000 0.709151 0.984738
O O2 0.613546 0.500000 0.989546
O O3 0.621831 0.761449 0.937330
O O4 0.621085 0.787143 0.030283
O O5 0.750000 0.250000 0.795119
O O6 0.883206 0.331865 0.767798
O O7 0.868049 0.202648 0.847550
O O8 0.847685 0.000000 0.780453
O O9 0.876935 0.500000 0.691076
O O10 0.000000 0.500000 0.739956
O O11 0.120591 0.835179 0.112974
O O12 0.000000 0.000000 0.139806
O O13 0.107353 0.500000 0.878597
O O14 0.000000 0.723486 0.886068
O O15 0.880381 0.500000 0.097175
O O16 0.000000 0.686778 0.081325
#
# Coordination Sequence:
#
# PCOD9368478 Si02
#       6
#    16  16   8   8  16  16
#     4   9  15  24  41  71 111 153 191 230 285 347
#     4  12  24  42  64  86 120 160 205 249 305 365
#     4  11  24  42  64  93 123 155 201 258 309 357
#     4   9  18  32  50  75 112 147 183 238 300 349
#     4  10  19  32  52  83 121 156 196 245 293 349
#     4   9  15  25  43  69 108 151 186 229 289 350
#
# _framework density 19.501328000000001
#
# number of rings (size 3 to 8) (size 9 to 14) (size 15 to 20)
#    0.000    2.000    3.000    1.800    0.000    5.600 
#    0.000    2.000    0.000    0.000    0.000    1.400 
#    0.000    0.000    0.000    0.000    0.000    0.000 
#
# Total GULP energy -111612.337703 kJ/mol
# GULP energy per Si atom -5580.616885 kJ/mol
# Density = 1.945694 g / cm^3
# Si number density = 19.501328 Si / 1000 Ang^3
#
#
#
# Elastic Constant Matrix: (Units=GPa)
#
#
# Indices 1 2 3 4 5 6 
#
# 1 10.1243 29.2509 10.2953 0.0000 0.0000 0.0000
# 2 29.2509 159.5445 86.7913 0.0000 0.0000 0.0000
# 3 10.2953 86.7913 132.3815 0.0000 0.0000 0.0000
# 4 0.0000 0.0000 0.0000 48.6046 0.0000 0.0000
# 5 0.0000 0.0000 0.0000 0.0000 -13.3633 0.0000
# 6 0.0000 0.0000 0.0000 0.0000 0.0000 13.6796
#
#
#
# Elastic Compliance Matrix: (Units=1/GPa)
#
#
# Indices 1 2 3 4 5 6 
#
# 1 0.227742 -0.049925 0.015020 0.000000 0.000000 0.000000
# 2 -0.049925 0.020687 -0.009680 0.000000 0.000000 0.000000
# 3 0.015020 -0.009680 0.012732 0.000000 0.000000 0.000000
# 4 0.000000 0.000000 0.000000 0.020574 0.000000 0.000000
# 5 0.000000 0.000000 0.000000 0.000000 -0.074832 0.000000
# 6 0.000000 0.000000 0.000000 0.000000 0.000000 0.073101
#
#
# Mechanical properties :
#
#
# Convention : Reuss Voigt Hill
#
# Bulk Modulus (GPa) = 5.81424 61.63614 33.72519
# Shear Modulus (GPa) = 11.72315 21.49836 16.61076
#
# Velocity S-wave (km/s) = 2.45449 3.32385 2.92169
# Velocity P-wave (km/s) = 3.31973 6.81215 5.35845
#
# Compressibility (1/GPa) = 0.17199162
#
# Stress axis : x y z
#
# Youngs Moduli (GPa) = 4.39092 48.33935 78.54094
#
# Poissons Ratio (x) = 2.41336 -1.17971
# Poissons Ratio (y) = 0.21922 0.76028
# Poissons Ratio (z) = -0.06595 0.46793
#
# Static dielectric constant tensor:
#      x y z
#    x 1.671260 0.000000 0.000000 
#    y 0.000000 1.665840 0.000000 
#    z 0.000000 0.000000 1.684410 
# 
# From -- ./inp_files/32774.got.cif
#   From: 2010.05.17/outbox.cif.g08.bks.cpg/sg42_17_cif.got.tgz:32774.got - 2010.06.03 19:03:34.
