data_PCOD9368026
_publ_section_title
;
Structure prediction by ZEFSAII (Michael W. Deem and Ramdas Pophale) SiO2 
 PCOD9368026
Probable space group: A B A 2
;
_chemical_formula_sum "Si O2"
_cell_formula_units_Z 52
_cell_length_a 8.813481
_cell_length_b 17.526677
_cell_length_c 14.983142
_cell_angle_alpha 90.000000
_cell_angle_beta 90.000000
_cell_angle_gamma 90.000000
_cell_volume 2314.461448
_symmetry_space_group_name_H-M "A B A 2"
_symmetry_group_IT_number 41
_symmetry_cell_setting 'orthorhombic'
loop_
_space_group_symop_operation_xyz
x,y,z
-x,-y,z
1/2-x,y,1/2+z
1/2+x,-y,1/2+z
x,1/2+y,1/2+z
-x,1/2-y,1/2+z
1/2-x,1/2+y,z
1/2+x,1/2-y,z
loop_
_atom_site_type_symbol
_atom_site_label
_atom_site_fract_x
_atom_site_fract_y
_atom_site_fract_z
Si Si1 0.331525 0.597651 0.072340
Si Si2 0.342230 0.785949 0.255761
Si Si3 0.021332 0.678428 0.073485
Si Si4 0.539467 0.671902 0.946915
Si Si5 0.000000 0.500000 0.866966
Si Si6 0.791529 0.554264 0.011003
Si Si7 0.006475 0.356559 0.740971
O O1 0.464534 0.615529 0.142270
O O2 0.192064 0.653377 0.093755
O O3 0.393379 0.623190 0.975756
O O4 0.281590 0.509397 0.074950
O O5 0.431610 0.798521 0.162906
O O6 0.425906 0.821515 0.342075
O O7 0.367957 0.696813 0.272053
O O8 0.169503 0.814181 0.246463
O O9 0.938155 0.600967 0.042969
O O10 0.023380 0.746437 0.999282
O O11 0.678063 0.621677 0.984776
O O12 0.851125 0.505010 0.928003
O O13 0.009319 0.426741 0.806246
#
# Coordination Sequence:
#
# PCOD9368026 Si02
#       7
#     8   8   8   8   4   8   8
#     4  12  27  46  77 112 157 204 252 322 393 462
#     4  12  28  48  78 116 153 206 267 318 390 469
#     4  12  26  50  76 111 158 201 260 322 384 466
#     4  12  27  47  78 110 153 205 261 320 383 470
#     4  12  26  52  78 112 156 202 262 326 394 460
#     4  12  26  51  76 114 153 205 258 321 391 464
#     4  12  28  49  78 113 158 205 257 328 392 464
#
# _framework density 22.46743
#
# number of rings (size 3 to 8) (size 9 to 14) (size 15 to 20)
#    0.000    0.000    4.615    4.154    6.462    1.231 
#    0.000    1.538    0.000    0.000    0.000    0.000 
#    0.000    0.000    0.000    0.000    0.000    0.000 
#
# Total GULP energy -145428.795376 kJ/mol
# GULP energy per Si atom -5593.415207 kJ/mol
# Density = 2.241629 g / cm^3
# Si number density = 22.467430 Si / 1000 Ang^3
#
#
#
# Elastic Constant Matrix: (Units=GPa)
#
#
# Indices 1 2 3 4 5 6 
#
# 1 132.1088 68.3120 54.2055 0.0000 0.0000 0.0000
# 2 68.3120 117.5625 39.4853 0.0000 0.0000 0.0000
# 3 54.2055 39.4853 87.3910 0.0000 0.0000 0.0000
# 4 0.0000 0.0000 0.0000 38.9151 0.0000 0.0000
# 5 0.0000 0.0000 0.0000 0.0000 28.6372 0.0000
# 6 0.0000 0.0000 0.0000 0.0000 0.0000 46.6701
#
#
#
# Elastic Compliance Matrix: (Units=1/GPa)
#
#
# Indices 1 2 3 4 5 6 
#
# 1 0.012621 -0.005546 -0.005323 0.000000 0.000000 0.000000
# 2 -0.005546 0.012465 -0.002192 0.000000 0.000000 0.000000
# 3 -0.005323 -0.002192 0.015735 0.000000 0.000000 0.000000
# 4 0.000000 0.000000 0.000000 0.025697 0.000000 0.000000
# 5 0.000000 0.000000 0.000000 0.000000 0.034920 0.000000
# 6 0.000000 0.000000 0.000000 0.000000 0.000000 0.021427
#
#
# Mechanical properties :
#
#
# Convention : Reuss Voigt Hill
#
# Bulk Modulus (GPa) = 68.02946 73.45199 70.74072
# Shear Modulus (GPa) = 32.49163 34.51511 33.50337
#
# Velocity S-wave (km/s) = 3.80697 3.92373 3.86579
# Velocity P-wave (km/s) = 7.04762 7.30008 7.17496
#
# Compressibility (1/GPa) = 0.01469951
#
# Stress axis : x y z
#
# Youngs Moduli (GPa) = 79.23106 80.22461 63.55408
#
# Poissons Ratio (x) = 0.44494 0.33828
# Poissons Ratio (y) = 0.43943 0.13930
# Poissons Ratio (z) = 0.42172 0.17584
#
# Static dielectric constant tensor:
#      x y z
#    x 1.880820 0.000000 0.000000 
#    y 0.000000 1.895240 0.000000 
#    z 0.000000 0.000000 1.894230 
# 
# From -- ./inp_files/7425.got.cif
#   From: 2010.05.17/outbox.cif.g08.bks.cpg/sg41_4_cif.got.tgz:7425.got - 2010.06.03 18:54:24.
