data_PCOD9368239
_publ_section_title
;
Structure prediction by ZEFSAII (Michael W. Deem and Ramdas Pophale) SiO2 
 PCOD9368239
Probable space group: F M M 2
;
_chemical_formula_sum "Si O2"
_cell_formula_units_Z 96
_cell_length_a 8.865990
_cell_length_b 25.735271
_cell_length_c 25.786821
_cell_angle_alpha 90.000000
_cell_angle_beta 90.000000
_cell_angle_gamma 90.000000
_cell_volume 5883.744273
_symmetry_space_group_name_H-M "F M M 2"
_symmetry_group_IT_number 42
_symmetry_cell_setting 'orthorhombic'
loop_
_space_group_symop_operation_xyz
x,y,z
-x,-y,z
-x,y,z
x,-y,z
x,1/2+y,1/2+z
-x,1/2-y,1/2+z
-x,1/2+y,1/2+z
x,1/2-y,1/2+z
1/2+x,y,1/2+z
1/2-x,-y,1/2+z
1/2-x,y,1/2+z
1/2+x,-y,1/2+z
1/2+x,1/2+y,z
1/2-x,1/2-y,z
1/2-x,1/2+y,z
1/2+x,1/2-y,z
loop_
_atom_site_type_symbol
_atom_site_label
_atom_site_fract_x
_atom_site_fract_y
_atom_site_fract_z
Si Si1 0.677806 0.500000 0.595280
Si Si2 0.319526 0.692308 0.517262
Si Si3 0.320025 0.891242 0.593541
Si Si4 0.321006 0.307559 0.796491
Si Si5 0.677875 0.884838 0.716711
Si Si6 0.180279 0.692213 0.901540
Si Si7 0.821836 0.500000 0.707068
O O1 0.500000 0.500000 0.586543
O O2 0.751690 0.446520 0.576065
O O3 0.717331 0.500000 0.656565
O O4 0.500000 0.695963 0.522625
O O5 0.250000 0.750000 0.521439
O O6 0.250676 0.654713 0.560102
O O7 0.287426 0.670781 0.458988
O O8 0.500000 0.892312 0.587852
O O9 0.288291 0.883628 0.655076
O O10 0.500000 0.302530 0.800608
O O11 0.250000 0.250000 0.789687
O O12 0.273551 0.344343 0.749319
O O13 0.254246 0.331217 0.850081
O O14 0.500000 0.872959 0.723171
O O15 0.702150 0.944803 0.734385
O O16 0.250000 0.750000 0.903132
O O17 0.000000 0.694709 0.894951
O O18 0.000000 0.500000 0.689858
#
# Coordination Sequence:
#
# PCOD9368239 Si02
#       7
#     8  16  16  16  16  16   8
#     4  10  18  30  50  73  98 127 164 206 242 286
#     4  10  20  33  51  75 101 130 163 201 246 294
#     4  10  20  34  52  73 100 133 166 202 244 290
#     4  11  21  32  49  72  98 129 163 201 243 287
#     4   9  18  33  51  72  98 128 161 197 240 289
#     4   9  17  31  50  70  94 125 162 201 239 285
#     4   8  16  32  52  71  94 127 164 198 238 288
#
# _framework density 16.316140999999998
#
# number of rings (size 3 to 8) (size 9 to 14) (size 15 to 20)
#    0.000    2.333    0.000    5.750    0.000    6.000 
#    0.000    0.000    0.000    1.000    0.000    2.333 
#    0.000    0.000    0.000    0.000    0.000    0.000 
#
# Total GULP energy -133726.791216 kJ/mol
# GULP energy per Si atom -5571.949634 kJ/mol
# Density = 1.627900 g / cm^3
# Si number density = 16.316141 Si / 1000 Ang^3
#
#
#
# Elastic Constant Matrix: (Units=GPa)
#
#
# Indices 1 2 3 4 5 6 
#
# 1 100.8928 56.0410 58.9801 0.0000 0.0000 0.0000
# 2 56.0410 96.3325 58.0575 0.0000 0.0000 0.0000
# 3 58.9801 58.0575 83.7000 0.0000 0.0000 0.0000
# 4 0.0000 0.0000 0.0000 -6.4538 0.0000 0.0000
# 5 0.0000 0.0000 0.0000 0.0000 22.5824 0.0000
# 6 0.0000 0.0000 0.0000 0.0000 0.0000 27.6670
#
#
#
# Elastic Compliance Matrix: (Units=1/GPa)
#
#
# Indices 1 2 3 4 5 6 
#
# 1 0.018100 -0.004885 -0.009366 0.000000 0.000000 0.000000
# 2 -0.004885 0.019156 -0.009845 0.000000 0.000000 0.000000
# 3 -0.009366 -0.009845 0.025376 0.000000 0.000000 0.000000
# 4 0.000000 0.000000 0.000000 -0.154948 0.000000 0.000000
# 5 0.000000 0.000000 0.000000 0.000000 0.044282 0.000000
# 6 0.000000 0.000000 0.000000 0.000000 0.000000 0.036144
#
#
# Mechanical properties :
#
#
# Convention : Reuss Voigt Hill
#
# Bulk Modulus (GPa) = 69.25133 69.67584 69.46359
# Shear Modulus (GPa) = 121.60624 15.94890 68.77757
#
# Velocity S-wave (km/s) = 8.64251 3.12988 6.49958
# Velocity P-wave (km/s) = 11.92167 7.47381 9.94948
#
# Compressibility (1/GPa) = 0.01444016
#
# Stress axis : x y z
#
# Youngs Moduli (GPa) = 55.24847 52.20332 39.40702
#
# Poissons Ratio (x) = 0.25501 0.36909
# Poissons Ratio (y) = 0.26988 0.38796
# Poissons Ratio (z) = 0.51746 0.51394
#
# Static dielectric constant tensor:
#      x y z
#    x 1.541610 0.000000 0.000000 
#    y 0.000000 1.653630 0.000000 
#    z 0.000000 0.000000 1.564730 
# 
# From -- ./inp_files/28092.got.cif
#   From: 2010.05.17/outbox.cif.g08.bks.cpg/sg42_15_cif.got.tgz:28092.got - 2010.06.03 19:03:34.
