data_PCOD9368861
_publ_section_title
;
Structure prediction by ZEFSAII (Michael W. Deem and Ramdas Pophale) SiO2 
 PCOD9368861
Probable space group: F M M 2
;
_chemical_formula_sum "Si O2"
_cell_formula_units_Z 112
_cell_length_a 15.065845
_cell_length_b 24.460995
_cell_length_c 14.265975
_cell_angle_alpha 90.000000
_cell_angle_beta 90.000000
_cell_angle_gamma 90.000000
_cell_volume 5257.376415
_symmetry_space_group_name_H-M "F M M 2"
_symmetry_group_IT_number 42
_symmetry_cell_setting 'orthorhombic'
loop_
_space_group_symop_operation_xyz
x,y,z
-x,-y,z
-x,y,z
x,-y,z
x,1/2+y,1/2+z
-x,1/2-y,1/2+z
-x,1/2+y,1/2+z
x,1/2-y,1/2+z
1/2+x,y,1/2+z
1/2-x,-y,1/2+z
1/2-x,y,1/2+z
1/2+x,-y,1/2+z
1/2+x,1/2+y,z
1/2-x,1/2-y,z
1/2-x,1/2+y,z
1/2+x,1/2-y,z
loop_
_atom_site_type_symbol
_atom_site_label
_atom_site_fract_x
_atom_site_fract_y
_atom_site_fract_z
Si Si1 0.107459 0.163458 0.458460
Si Si2 0.390794 0.768723 0.348356
Si Si3 0.606621 0.833948 0.169425
Si Si4 0.399449 0.632585 0.971634
Si Si5 0.895595 0.561600 0.634688
Si Si6 0.654287 0.438344 0.340985
Si Si7 0.361959 0.937954 0.294513
O O1 0.136865 0.209610 0.384430
O O2 0.140152 0.173643 0.564101
O O3 0.134901 0.104418 0.421392
O O4 0.000000 0.165378 0.460306
O O5 0.500000 0.770429 0.347257
O O6 0.360914 0.790231 0.246819
O O7 0.359398 0.813821 0.424172
O O8 0.500000 0.828015 0.165944
O O9 0.623792 0.894460 0.211527
O O10 0.500000 0.648566 0.999112
O O11 0.403884 0.588107 0.888175
O O12 0.355337 0.604007 0.060950
O O13 0.857239 0.500000 0.627002
O O14 0.888926 0.579107 0.742230
O O15 0.000000 0.557406 0.611094
O O16 0.623686 0.500000 0.362762
O O17 0.758177 0.439799 0.318658
O O18 0.391830 0.000000 0.275431
#
# Coordination Sequence:
#
# PCOD9368861 Si02
#       7
#    16  16  16  16  16  16  16
#     4  10  20  35  57  80 103 137 176 216 264 312
#     4   8  16  32  53  78 106 132 165 213 262 309
#     4   9  19  35  55  81 108 134 173 219 259 309
#     4   9  17  31  53  78 100 126 167 216 259 301
#     4   9  17  30  49  72  97 128 169 214 256 301
#     4  10  22  36  49  71 105 142 176 211 255 310
#     4  10  20  34  52  74 105 142 173 208 257 308
#
# _framework density 21.303401000000001
#
# number of rings (size 3 to 8) (size 9 to 14) (size 15 to 20)
#    0.000    2.714    0.000    2.143    0.000    5.429 
#    0.000   11.429    0.000    3.429    0.000    0.000 
#    0.000    0.000    0.000    0.000    0.000    0.000 
#
# Total GULP energy -156217.128009 kJ/mol
# GULP energy per Si atom -5579.183143 kJ/mol
# Density = 2.125491 g / cm^3
# Si number density = 21.303401 Si / 1000 Ang^3
#
#
#
# Elastic Constant Matrix: (Units=GPa)
#
#
# Indices 1 2 3 4 5 6 
#
# 1 27.0470 3.5523 0.4306 0.0000 0.0000 0.0000
# 2 3.5523 104.7586 82.3187 0.0000 0.0000 0.0000
# 3 0.4306 82.3187 135.3951 0.0000 0.0000 0.0000
# 4 0.0000 0.0000 0.0000 20.6536 0.0000 0.0000
# 5 0.0000 0.0000 0.0000 0.0000 0.3992 0.0000
# 6 0.0000 0.0000 0.0000 0.0000 0.0000 12.7581
#
#
#
# Elastic Compliance Matrix: (Units=1/GPa)
#
#
# Indices 1 2 3 4 5 6 
#
# 1 0.037247 -0.002240 0.001244 0.000000 0.000000 0.000000
# 2 -0.002240 0.018413 -0.011188 0.000000 0.000000 0.000000
# 3 0.001244 -0.011188 0.014184 0.000000 0.000000 0.000000
# 4 0.000000 0.000000 0.000000 0.048418 0.000000 0.000000
# 5 0.000000 0.000000 0.000000 0.000000 2.505103 0.000000
# 6 0.000000 0.000000 0.000000 0.000000 0.000000 0.078382
#
#
# Mechanical properties :
#
#
# Convention : Reuss Voigt Hill
#
# Bulk Modulus (GPa) = 21.99000 48.86708 35.42854
# Shear Modulus (GPa) = 1.82397 18.82213 10.32305
#
# Velocity S-wave (km/s) = 0.92631 2.97564 2.20369
# Velocity P-wave (km/s) = 3.38951 5.89867 4.81057
#
# Compressibility (1/GPa) = 0.04547522
#
# Stress axis : x y z
#
# Youngs Moduli (GPa) = 26.84769 54.30954 70.50271
#
# Poissons Ratio (x) = 0.12166 -0.08767
# Poissons Ratio (y) = 0.06014 0.78877
# Poissons Ratio (z) = -0.03339 0.60760
#
# Static dielectric constant tensor:
#      x y z
#    x 1.758200 0.000000 0.000000 
#    y 0.000000 1.770950 0.000000 
#    z 0.000000 0.000000 1.753630 
# 
# From -- ./inp_files/14243.got.cif
#   From: 2010.05.17/outbox.cif.g08.bks.cpg/sg42_8_cif.got.tgz:14243.got - 2010.06.03 19:03:34.
