data_PCOD9368497
_publ_section_title
;
Structure prediction by ZEFSAII (Michael W. Deem and Ramdas Pophale) SiO2 
 PCOD9368497
Probable space group: F M M 2
;
_chemical_formula_sum "Si O2"
_cell_formula_units_Z 80
_cell_length_a 8.225092
_cell_length_b 29.738441
_cell_length_c 14.194764
_cell_angle_alpha 90.000000
_cell_angle_beta 90.000000
_cell_angle_gamma 90.000000
_cell_volume 3472.059334
_symmetry_space_group_name_H-M "F M M 2"
_symmetry_group_IT_number 42
_symmetry_cell_setting 'orthorhombic'
loop_
_space_group_symop_operation_xyz
x,y,z
-x,-y,z
-x,y,z
x,-y,z
x,1/2+y,1/2+z
-x,1/2-y,1/2+z
-x,1/2+y,1/2+z
x,1/2-y,1/2+z
1/2+x,y,1/2+z
1/2-x,-y,1/2+z
1/2-x,y,1/2+z
1/2+x,-y,1/2+z
1/2+x,1/2+y,z
1/2-x,1/2-y,z
1/2-x,1/2+y,z
1/2+x,1/2-y,z
loop_
_atom_site_type_symbol
_atom_site_label
_atom_site_fract_x
_atom_site_fract_y
_atom_site_fract_z
Si Si1 0.000000 0.552697 0.276981
Si Si2 0.683802 0.701401 0.753536
Si Si3 0.321749 0.603990 0.279516
Si Si4 0.187007 0.103886 0.498753
Si Si5 0.681156 0.702532 0.526235
Si Si6 0.500000 0.051758 0.508093
O O1 0.162300 0.578380 0.242473
O O2 0.000000 0.555219 0.392322
O O3 0.000000 0.500000 0.251402
O O4 0.500000 0.694680 0.789047
O O5 0.750000 0.750000 0.784047
O O6 0.789418 0.657638 0.776013
O O7 0.677401 0.703402 0.639712
O O8 0.500000 0.594181 0.238107
O O9 0.329482 0.591132 0.389527
O O10 0.256857 0.154878 0.501119
O O11 0.330672 0.073975 0.540561
O O12 0.000000 0.102958 0.537849
O O13 0.500000 0.699754 0.487361
O O14 0.750000 0.750000 0.495374
O O15 0.500000 0.000000 0.534136
#
# Coordination Sequence:
#
# PCOD9368497 Si02
#       6
#     8  16  16  16  16   8
#     4   9  18  34  54  77 104 132 169 214 258 306
#     4  10  19  33  51  74 105 139 176 211 249 304
#     4  10  19  33  53  78 106 134 169 212 258 304
#     4   9  19  34  51  77 106 132 168 211 256 301
#     4   9  19  33  50  74 102 138 175 207 250 300
#     4   9  18  32  54  79 100 132 169 208 260 304
#
# _framework density 23.041080000000001
#
# number of rings (size 3 to 8) (size 9 to 14) (size 15 to 20)
#    0.000    2.600    1.000    0.600    1.400    2.400 
#    0.000    6.000    0.000    1.200    0.000    0.000 
#    0.000    0.000    0.000    0.000    0.000    0.000 
#
# Total GULP energy -111631.481871 kJ/mol
# GULP energy per Si atom -5581.574094 kJ/mol
# Density = 2.298864 g / cm^3
# Si number density = 23.041080 Si / 1000 Ang^3
#
#
#
# Elastic Constant Matrix: (Units=GPa)
#
#
# Indices 1 2 3 4 5 6 
#
# 1 188.1372 108.2381 19.8884 0.0000 0.0000 0.0000
# 2 108.2381 166.2865 -5.3486 0.0000 0.0000 0.0000
# 3 19.8884 -5.3486 58.5557 0.0000 0.0000 0.0000
# 4 0.0000 0.0000 0.0000 21.8651 0.0000 0.0000
# 5 0.0000 0.0000 0.0000 0.0000 55.4355 0.0000
# 6 0.0000 0.0000 0.0000 0.0000 0.0000 39.2747
#
#
#
# Elastic Compliance Matrix: (Units=1/GPa)
#
#
# Indices 1 2 3 4 5 6 
#
# 1 0.009231 -0.006128 -0.003695 0.000000 0.000000 0.000000
# 2 -0.006128 0.010099 0.003004 0.000000 0.000000 0.000000
# 3 -0.003695 0.003004 0.018607 0.000000 0.000000 0.000000
# 4 0.000000 0.000000 0.000000 0.045735 0.000000 0.000000
# 5 0.000000 0.000000 0.000000 0.000000 0.018039 0.000000
# 6 0.000000 0.000000 0.000000 0.000000 0.000000 0.025462
#
#
# Mechanical properties :
#
#
# Convention : Reuss Voigt Hill
#
# Bulk Modulus (GPa) = 41.15349 73.17056 57.16203
# Shear Modulus (GPa) = 33.57725 42.66181 38.11953
#
# Velocity S-wave (km/s) = 3.82157 4.30764 4.07186
# Velocity P-wave (km/s) = 6.11328 7.52107 6.85342
#
# Compressibility (1/GPa) = 0.02429927
#
# Stress axis : x y z
#
# Youngs Moduli (GPa) = 108.32904 99.02152 53.74279
#
# Poissons Ratio (x) = 0.60676 0.19858
# Poissons Ratio (y) = 0.66379 -0.16143
# Poissons Ratio (z) = 0.40028 -0.29743
#
# Static dielectric constant tensor:
#      x y z
#    x 1.808230 0.000000 0.000000 
#    y 0.000000 1.844990 0.000000 
#    z 0.000000 0.000000 1.908740 
# 
# From -- ./inp_files/18247.got.cif
#   From: 2010.05.17/outbox.cif.g08.bks.cpg/sg42_10_cif.got.tgz:18247.got - 2010.06.03 19:03:34.
