data_PCOD9368196
_publ_section_title
;
Structure prediction by ZEFSAII (Michael W. Deem and Ramdas Pophale) SiO2 
 PCOD9368196
Probable space group: F M M 2
;
_chemical_formula_sum "Si O2"
_cell_formula_units_Z 128
_cell_length_a 25.821970
_cell_length_b 25.411472
_cell_length_c 10.524898
_cell_angle_alpha 90.000000
_cell_angle_beta 90.000000
_cell_angle_gamma 90.000000
_cell_volume 6906.167237
_symmetry_space_group_name_H-M "F M M 2"
_symmetry_group_IT_number 42
_symmetry_cell_setting 'orthorhombic'
loop_
_space_group_symop_operation_xyz
x,y,z
-x,-y,z
-x,y,z
x,-y,z
x,1/2+y,1/2+z
-x,1/2-y,1/2+z
-x,1/2+y,1/2+z
x,1/2-y,1/2+z
1/2+x,y,1/2+z
1/2-x,-y,1/2+z
1/2-x,y,1/2+z
1/2+x,-y,1/2+z
1/2+x,1/2+y,z
1/2-x,1/2-y,z
1/2-x,1/2+y,z
1/2+x,1/2-y,z
loop_
_atom_site_type_symbol
_atom_site_label
_atom_site_fract_x
_atom_site_fract_y
_atom_site_fract_z
Si Si1 0.349610 0.677174 0.797480
Si Si2 0.771595 0.899950 0.929777
Si Si3 0.939906 0.131151 0.934696
Si Si4 0.238496 0.808331 0.618008
Si Si5 0.181988 0.131315 0.292047
Si Si6 0.637939 0.559114 0.079316
Si Si7 0.382051 0.720051 0.397344
Si Si8 0.059696 0.230546 0.124421
O O1 0.314358 0.629422 0.845672
O O2 0.408118 0.656525 0.816310
O O3 0.320245 0.692126 0.669243
O O4 0.345582 0.728065 0.889212
O O5 0.721303 0.912746 0.847298
O O6 0.748766 0.854547 0.020031
O O7 0.806013 0.940165 0.008552
O O8 0.000000 0.120263 0.907423
O O9 0.906993 0.081981 0.987798
O O10 0.937846 0.175623 0.045724
O O11 0.250000 0.750000 0.572123
O O12 0.280209 0.824679 0.727516
O O13 0.146414 0.101850 0.190170
O O14 0.147200 0.164853 0.388159
O O15 0.625996 0.500000 0.121100
O O16 0.416770 0.728485 0.521915
O O17 0.411603 0.725771 0.259984
O O18 0.000000 0.243057 0.149751
#
# Coordination Sequence:
#
# PCOD9368196 Si02
#       8
#    16  16  16  16  16  16  16  16
#     4   9  19  30  45  75 105 143 176 218 264 323
#     4   9  21  32  48  74 108 143 183 220 278 323
#     4   9  18  35  54  73 104 137 177 234 282 327
#     4  10  18  27  46  71 108 143 179 215 254 322
#     4  10  20  32  47  78 106 142 180 227 275 336
#     4  10  20  37  55  75 103 137 185 243 292 334
#     4  11  20  31  53  76 112 152 187 225 273 334
#     4  10  21  35  51  75 112 154 191 226 277 335
#
# _framework density 18.534158999999999
#
# number of rings (size 3 to 8) (size 9 to 14) (size 15 to 20)
#    0.000    2.250    2.500    0.375    5.250    1.250 
#    0.000    0.000    0.000    0.000    0.000    0.000 
#    0.000    0.000    0.000    0.000    0.000    0.000 
#
# Total GULP energy -178192.317820 kJ/mol
# GULP energy per Si atom -5568.509932 kJ/mol
# Density = 1.849197 g / cm^3
# Si number density = 18.534159 Si / 1000 Ang^3
#
#
#
# Elastic Constant Matrix: (Units=GPa)
#
#
# Indices 1 2 3 4 5 6 
#
# 1 123.9795 31.2337 41.7543 0.0000 0.0000 0.0000
# 2 31.2337 65.9348 -1.8754 -0.0001 0.0000 0.0000
# 3 41.7543 -1.8754 47.4572 -0.0002 0.0001 0.0000
# 4 0.0000 -0.0001 -0.0002 1.4186 0.0001 0.0000
# 5 0.0000 0.0000 0.0001 0.0001 21.5110 0.0000
# 6 0.0000 0.0000 0.0000 0.0000 0.0000 14.1256
#
#
#
# Elastic Compliance Matrix: (Units=1/GPa)
#
#
# Indices 1 2 3 4 5 6 
#
# 1 0.014119 -0.007050 -0.012701 -0.000002 0.000000 0.000000
# 2 -0.007050 0.018703 0.006942 0.000002 0.000000 0.000000
# 3 -0.012701 0.006942 0.032521 0.000004 0.000000 0.000000
# 4 -0.000002 0.000002 0.000004 0.704917 -0.000002 -0.000001
# 5 0.000000 0.000000 0.000000 -0.000002 0.046488 0.000000
# 6 0.000000 0.000000 0.000000 -0.000001 0.000000 0.070793
#
#
# Mechanical properties :
#
#
# Convention : Reuss Voigt Hill
#
# Bulk Modulus (GPa) = 25.17300 42.17741 33.67521
# Shear Modulus (GPa) = 5.39722 18.49497 11.94610
#
# Velocity S-wave (km/s) = 1.70832 3.16236 2.54154
# Velocity P-wave (km/s) = 4.18361 6.01166 5.17893
#
# Compressibility (1/GPa) = 0.03972509
#
# Stress axis : x y z
#
# Youngs Moduli (GPa) = 70.82426 53.46609 30.74942
#
# Poissons Ratio (x) = 0.37692 0.39056
# Poissons Ratio (y) = 0.49929 -0.21345
# Poissons Ratio (z) = 0.89956 -0.37114
#
# Static dielectric constant tensor:
#      x y z
#    x 1.695360 0.000000 0.000000 
#    y 0.000000 1.624860 0.000000 
#    z 0.000000 0.000000 1.713060 
# 
# From -- ./inp_files/10380.got.cif
#   From: 2010.05.17/outbox.cif.g08.bks.cpg/sg42_6_cif.got.tgz:10380.got - 2010.06.03 19:03:34.
