data_PCOD9368271
_publ_section_title
;
Structure prediction by ZEFSAII (Michael W. Deem and Ramdas Pophale) SiO2 
 PCOD9368271
Probable space group: F M M 2
;
_chemical_formula_sum "Si O2"
_cell_formula_units_Z 112
_cell_length_a 26.445594
_cell_length_b 14.770586
_cell_length_c 13.338973
_cell_angle_alpha 90.000000
_cell_angle_beta 90.000000
_cell_angle_gamma 90.000000
_cell_volume 5210.428556
_symmetry_space_group_name_H-M "F M M 2"
_symmetry_group_IT_number 42
_symmetry_cell_setting 'orthorhombic'
loop_
_space_group_symop_operation_xyz
x,y,z
-x,-y,z
-x,y,z
x,-y,z
x,1/2+y,1/2+z
-x,1/2-y,1/2+z
-x,1/2+y,1/2+z
x,1/2-y,1/2+z
1/2+x,y,1/2+z
1/2-x,-y,1/2+z
1/2-x,y,1/2+z
1/2+x,-y,1/2+z
1/2+x,1/2+y,z
1/2-x,1/2-y,z
1/2-x,1/2+y,z
1/2+x,1/2-y,z
loop_
_atom_site_type_symbol
_atom_site_label
_atom_site_fract_x
_atom_site_fract_y
_atom_site_fract_z
Si Si1 0.840768 0.610890 0.216350
Si Si2 0.387817 0.599994 0.908572
Si Si3 0.730040 0.395614 0.226508
Si Si4 0.623791 0.610726 0.301091
Si Si5 0.558882 0.889850 0.609112
Si Si6 0.718292 0.367313 0.991548
Si Si7 0.672471 0.834515 0.988938
O O1 0.840754 0.500000 0.217604
O O2 0.882161 0.642659 0.297798
O O3 0.784727 0.645139 0.249214
O O4 0.844615 0.639979 0.100984
O O5 0.411428 0.500000 0.895523
O O6 0.414382 0.643053 0.006107
O O7 0.329221 0.587623 0.939204
O O8 0.731608 0.500000 0.257654
O O9 0.678445 0.354368 0.264525
O O10 0.723389 0.394278 0.106964
O O11 0.622467 0.500000 0.305751
O O12 0.585053 0.638279 0.213672
O O13 0.626039 0.648133 0.413955
O O14 0.500000 0.866948 0.608335
O O15 0.564036 0.000000 0.607300
O O16 0.697201 0.264602 0.990221
O O17 0.775532 0.386871 0.954781
#
# Coordination Sequence:
#
# PCOD9368271 Si02
#       7
#    16  16  16  16  16  16  16
#     4   9  18  30  46  70 102 137 169 200 241 303
#     4  10  18  32  53  74  98 130 170 216 261 299
#     4   9  16  28  47  71  97 132 173 209 242 286
#     4  10  18  31  52  74  99 131 169 214 259 301
#     4   9  18  33  56  82  98 118 167 229 274 302
#     4  10  19  31  46  71 104 142 174 206 238 293
#     4  10  21  31  44  73 108 144 171 196 243 304
#
# _framework density 21.495353999999999
#
# number of rings (size 3 to 8) (size 9 to 14) (size 15 to 20)
#    0.000    2.429    1.429    1.714    0.000    4.000 
#    0.000    2.857    0.000    1.714    0.000    4.000 
#    0.000    0.000    0.000    0.000    0.000    0.000 
#
# Total GULP energy -155978.046038 kJ/mol
# GULP energy per Si atom -5570.644501 kJ/mol
# Density = 2.144643 g / cm^3
# Si number density = 21.495354 Si / 1000 Ang^3
#
#
#
# Elastic Constant Matrix: (Units=GPa)
#
#
# Indices 1 2 3 4 5 6 
#
# 1 79.2826 10.5862 95.6426 0.0000 0.0000 0.0000
# 2 10.5862 63.9337 22.8960 0.0000 0.0000 0.0000
# 3 95.6426 22.8960 171.9668 0.0000 0.0000 0.0000
# 4 0.0000 0.0000 0.0000 51.6085 0.0000 0.0000
# 5 0.0000 0.0000 0.0000 0.0000 26.1938 0.0000
# 6 0.0000 0.0000 0.0000 0.0000 0.0000 12.2823
#
#
#
# Elastic Compliance Matrix: (Units=1/GPa)
#
#
# Indices 1 2 3 4 5 6 
#
# 1 0.038442 0.001356 -0.021561 0.000000 0.000000 0.000000
# 2 0.001356 0.016472 -0.002947 0.000000 0.000000 0.000000
# 3 -0.021561 -0.002947 0.018199 0.000000 0.000000 0.000000
# 4 0.000000 0.000000 0.000000 0.019377 0.000000 0.000000
# 5 0.000000 0.000000 0.000000 0.000000 0.038177 0.000000
# 6 0.000000 0.000000 0.000000 0.000000 0.000000 0.081418
#
#
# Mechanical properties :
#
#
# Convention : Reuss Voigt Hill
#
# Bulk Modulus (GPa) = 37.30092 63.71472 50.50782
# Shear Modulus (GPa) = 18.70383 30.42080 24.56231
#
# Velocity S-wave (km/s) = 2.95300 3.76603 3.38402
# Velocity P-wave (km/s) = 5.38680 6.97253 6.23032
#
# Compressibility (1/GPa) = 0.02680899
#
# Stress axis : x y z
#
# Youngs Moduli (GPa) = 26.01331 60.70844 54.94833
#
# Poissons Ratio (x) = -0.08233 1.18473
# Poissons Ratio (y) = -0.03528 0.16195
# Poissons Ratio (z) = 0.56087 0.17893
#
# Static dielectric constant tensor:
#      x y z
#    x 1.755470 0.000000 0.000000 
#    y 0.000000 1.873540 0.000000 
#    z 0.000000 0.000000 1.922500 
# 
# From -- ./inp_files/10758.got.cif
#   From: 2010.05.17/outbox.cif.g08.bks.cpg/sg42_6_cif.got.tgz:10758.got - 2010.06.03 19:03:34.
