data_PCOD9368623
_publ_section_title
;
Structure prediction by ZEFSAII (Michael W. Deem and Ramdas Pophale) SiO2 
 PCOD9368623
Probable space group: F M M 2
;
_chemical_formula_sum "Si O2"
_cell_formula_units_Z 88
_cell_length_a 7.435335
_cell_length_b 14.807089
_cell_length_c 31.176797
_cell_angle_alpha 90.000000
_cell_angle_beta 90.000000
_cell_angle_gamma 90.000000
_cell_volume 3432.430263
_symmetry_space_group_name_H-M "F M M 2"
_symmetry_group_IT_number 42
_symmetry_cell_setting 'orthorhombic'
loop_
_space_group_symop_operation_xyz
x,y,z
-x,-y,z
-x,y,z
x,-y,z
x,1/2+y,1/2+z
-x,1/2-y,1/2+z
-x,1/2+y,1/2+z
x,1/2-y,1/2+z
1/2+x,y,1/2+z
1/2-x,-y,1/2+z
1/2-x,y,1/2+z
1/2+x,-y,1/2+z
1/2+x,1/2+y,z
1/2-x,1/2-y,z
1/2-x,1/2+y,z
1/2+x,1/2-y,z
loop_
_atom_site_type_symbol
_atom_site_label
_atom_site_fract_x
_atom_site_fract_y
_atom_site_fract_z
Si Si1 0.000000 0.176112 0.214108
Si Si2 0.800820 0.103274 0.656048
Si Si3 0.211435 0.395516 0.280586
Si Si4 0.715483 0.641879 0.968380
Si Si5 0.285869 0.642963 0.876129
Si Si6 0.714181 0.357280 0.061243
O O1 0.153943 0.165936 0.176488
O O2 0.158192 0.160977 0.250768
O O3 0.797396 0.105912 0.604662
O O4 0.000000 0.126988 0.672140
O O5 0.759290 0.000000 0.668834
O O6 0.220237 0.500000 0.266722
O O7 0.273818 0.392399 0.330141
O O8 0.000000 0.367102 0.278250
O O9 0.500000 0.628049 0.968626
O O10 0.750000 0.750000 0.968263
O O11 0.784638 0.608620 0.922197
O O12 0.780862 0.608710 0.014741
O O13 0.500000 0.626605 0.876908
O O14 0.250000 0.750000 0.875246
O O15 0.500000 0.373559 0.063538
O O16 0.750000 0.250000 0.061792
#
# Coordination Sequence:
#
# PCOD9368623 Si02
#       6
#     8  16  16  16  16  16
#     4  12  23  40  64  84 108 148 195 238 285 344
#     4  11  23  39  61  86 113 149 193 239 288 342
#     4  10  21  37  59  84 111 147 190 234 282 337
#     4   8  15  29  51  81 110 149 189 223 269 336
#     4   9  18  33  55  82 115 148 187 229 281 332
#     4  10  19  34  58  85 119 153 192 235 286 338
#
# _framework density 25.637810000000002
#
# number of rings (size 3 to 8) (size 9 to 14) (size 15 to 20)
#    0.000    2.182    0.909    2.727    1.273    2.182 
#    0.000    1.818    0.000    3.273    0.000    0.000 
#    0.000    0.000    0.000    0.000    0.000    0.000 
#
# Total GULP energy -122595.261524 kJ/mol
# GULP energy per Si atom -5572.511887 kJ/mol
# Density = 2.557946 g / cm^3
# Si number density = 25.637810 Si / 1000 Ang^3
#
#
#
# Elastic Constant Matrix: (Units=GPa)
#
#
# Indices 1 2 3 4 5 6 
#
# 1 142.2697 21.7190 38.3297 0.0000 0.0000 0.0000
# 2 21.7190 86.7089 12.4231 0.0000 0.0000 0.0000
# 3 38.3297 12.4231 260.3075 0.0000 0.0000 0.0000
# 4 0.0000 0.0000 0.0000 -179.8448 0.0000 0.0000
# 5 0.0000 0.0000 0.0000 0.0000 17.5057 0.0000
# 6 0.0000 0.0000 0.0000 0.0000 0.0000 -2.7238
#
#
#
# Elastic Compliance Matrix: (Units=1/GPa)
#
#
# Indices 1 2 3 4 5 6 
#
# 1 0.007574 -0.001749 -0.001032 0.000000 0.000000 0.000000
# 2 -0.001749 0.012016 -0.000316 0.000000 0.000000 0.000000
# 3 -0.001032 -0.000316 0.004009 0.000000 0.000000 0.000000
# 4 0.000000 0.000000 0.000000 -0.005560 0.000000 0.000000
# 5 0.000000 0.000000 0.000000 0.000000 0.057124 0.000000
# 6 0.000000 0.000000 0.000000 0.000000 0.000000 -0.367135
#
#
# Mechanical properties :
#
#
# Convention : Reuss Voigt Hill
#
# Bulk Modulus (GPa) = 57.45512 70.46997 63.96255
# Shear Modulus (GPa) = -17.85860 -5.22493 -11.54177
#
# Velocity S-wave (km/s) = -2.64213 -1.42913 -2.12406
# Velocity P-wave (km/s) = 3.62645 4.98229 4.35743
#
# Compressibility (1/GPa) = 0.01740489
#
# Stress axis : x y z
#
# Youngs Moduli (GPa) = 132.03197 83.22052 249.46306
#
# Poissons Ratio (x) = 0.14558 0.25739
# Poissons Ratio (y) = 0.23096 0.07880
# Poissons Ratio (z) = 0.13622 0.02629
#
# Static dielectric constant tensor:
#      x y z
#    x 1.973140 0.000000 0.000000 
#    y 0.000000 2.104950 0.000000 
#    z 0.000000 0.000000 2.028980 
# 
# From -- ./inp_files/33822.got.cif
#   From: 2010.05.17/outbox.cif.g08.bks.cpg/sg42_17_cif.got.tgz:33822.got - 2010.06.03 19:03:34.
