data_PCOD9368588
_publ_section_title
;
Structure prediction by ZEFSAII (Michael W. Deem and Ramdas Pophale) SiO2 
 PCOD9368588
Probable space group: F M M 2
;
_chemical_formula_sum "Si O2"
_cell_formula_units_Z 96
_cell_length_a 29.001626
_cell_length_b 7.618710
_cell_length_c 21.316480
_cell_angle_alpha 90.000000
_cell_angle_beta 90.000000
_cell_angle_gamma 90.000000
_cell_volume 4709.982370
_symmetry_space_group_name_H-M "F M M 2"
_symmetry_group_IT_number 42
_symmetry_cell_setting 'orthorhombic'
loop_
_space_group_symop_operation_xyz
x,y,z
-x,-y,z
-x,y,z
x,-y,z
x,1/2+y,1/2+z
-x,1/2-y,1/2+z
-x,1/2+y,1/2+z
x,1/2-y,1/2+z
1/2+x,y,1/2+z
1/2-x,-y,1/2+z
1/2-x,y,1/2+z
1/2+x,-y,1/2+z
1/2+x,1/2+y,z
1/2-x,1/2-y,z
1/2-x,1/2+y,z
1/2+x,1/2-y,z
loop_
_atom_site_type_symbol
_atom_site_label
_atom_site_fract_x
_atom_site_fract_y
_atom_site_fract_z
Si Si1 0.551769 0.285442 0.150170
Si Si2 0.649736 0.792509 0.963226
Si Si3 0.304058 0.711663 0.336080
Si Si4 0.857899 0.705181 0.715268
Si Si5 0.051535 0.788346 0.005292
Si Si6 0.196064 0.290514 0.090625
O O1 0.500000 0.233169 0.168451
O O2 0.552939 0.500000 0.149806
O O3 0.592710 0.219874 0.194205
O O4 0.559415 0.231130 0.077679
O O5 0.674224 0.720877 0.901151
O O6 0.659646 0.000000 0.964318
O O7 0.594741 0.769617 0.964299
O O8 0.670356 0.720628 0.028434
O O9 0.308313 0.500000 0.336127
O O10 0.250000 0.750000 0.331614
O O11 0.332005 0.780300 0.275711
O O12 0.866034 0.500000 0.728852
O O13 0.825602 0.716414 0.654148
O O14 0.000000 0.729596 0.986571
O O15 0.051237 0.000000 0.005387
O O16 0.189784 0.500000 0.093750
O O17 0.250000 0.250000 0.086259
#
# Coordination Sequence:
#
# PCOD9368588 Si02
#       6
#    16  16  16  16  16  16
#     4   8  14  27  50  79 106 132 167 210 253 302
#     4  10  21  36  52  76 108 139 174 216 264 314
#     4  10  22  38  54  75 104 142 181 216 262 316
#     4  10  19  34  56  79 105 136 174 219 262 309
#     4   9  17  31  54  82 108 137 175 214 257 312
#     4  11  22  34  51  75 103 134 173 221 266 313
#
# _framework density 20.382242999999999
#
# number of rings (size 3 to 8) (size 9 to 14) (size 15 to 20)
#    0.000    2.333    1.667    2.500    0.000    3.667 
#    0.000    0.833    0.000    3.500    0.000    0.000 
#    0.000    0.000    0.000    0.000    0.000    0.000 
#
# Total GULP energy -133975.826285 kJ/mol
# GULP energy per Si atom -5582.326095 kJ/mol
# Density = 2.033585 g / cm^3
# Si number density = 20.382243 Si / 1000 Ang^3
#
#
#
# Elastic Constant Matrix: (Units=GPa)
#
#
# Indices 1 2 3 4 5 6 
#
# 1 155.7157 -16.9080 65.1327 0.0000 0.0000 0.0001
# 2 -16.9080 40.0450 -3.1770 -0.0001 0.0001 0.0001
# 3 65.1327 -3.1770 118.2837 0.0000 0.0000 0.0000
# 4 0.0000 -0.0001 0.0000 -3.2186 0.0000 0.0000
# 5 0.0000 0.0001 0.0000 0.0000 27.9331 -0.0001
# 6 0.0001 0.0001 0.0000 0.0000 -0.0001 12.1631
#
#
#
# Elastic Compliance Matrix: (Units=1/GPa)
#
#
# Indices 1 2 3 4 5 6 
#
# 1 0.008764 0.003325 -0.004737 0.000000 0.000000 0.000000
# 2 0.003325 0.026286 -0.001125 -0.000001 0.000000 0.000000
# 3 -0.004737 -0.001125 0.011032 0.000000 0.000000 0.000000
# 4 0.000000 -0.000001 0.000000 -0.310693 0.000000 0.000000
# 5 0.000000 0.000000 0.000000 0.000000 0.035800 0.000000
# 6 0.000000 0.000000 0.000000 0.000000 0.000000 0.082216
#
#
# Mechanical properties :
#
#
# Convention : Reuss Voigt Hill
#
# Bulk Modulus (GPa) = 24.38456 44.90442 34.64449
# Shear Modulus (GPa) = -39.10794 25.30862 -6.89966
#
# Velocity S-wave (km/s) = -4.38508 3.52760 -1.84187
# Velocity P-wave (km/s) = 3.69445 6.21859 3.53709
#
# Compressibility (1/GPa) = 0.04100956
#
# Stress axis : x y z
#
# Youngs Moduli (GPa) = 114.10011 38.04237 90.64295
#
# Poissons Ratio (x) = -0.12648 0.42935
# Poissons Ratio (y) = -0.37935 0.10195
# Poissons Ratio (z) = 0.54046 0.04279
#
# Static dielectric constant tensor:
#      x y z
#    x 1.713570 0.000000 0.000000 
#    y 0.000000 1.769940 0.000000 
#    z 0.000000 0.000000 1.713010 
# 
# From -- ./inp_files/23697.got.cif
#   From: 2010.05.17/outbox.cif.g08.bks.cpg/sg42_12_cif.got.tgz:23697.got - 2010.06.03 19:03:34.
