data_PCOD9368410
_publ_section_title
;
Structure prediction by ZEFSAII (Michael W. Deem and Ramdas Pophale) SiO2 
 PCOD9368410
Probable space group: F M M 2
;
_chemical_formula_sum "Si O2"
_cell_formula_units_Z 96
_cell_length_a 32.170942
_cell_length_b 9.514097
_cell_length_c 14.480391
_cell_angle_alpha 90.000000
_cell_angle_beta 90.000000
_cell_angle_gamma 90.000000
_cell_volume 4432.121337
_symmetry_space_group_name_H-M "F M M 2"
_symmetry_group_IT_number 42
_symmetry_cell_setting 'orthorhombic'
loop_
_space_group_symop_operation_xyz
x,y,z
-x,-y,z
-x,y,z
x,-y,z
x,1/2+y,1/2+z
-x,1/2-y,1/2+z
-x,1/2+y,1/2+z
x,1/2-y,1/2+z
1/2+x,y,1/2+z
1/2-x,-y,1/2+z
1/2-x,y,1/2+z
1/2+x,-y,1/2+z
1/2+x,1/2+y,z
1/2-x,1/2-y,z
1/2-x,1/2+y,z
1/2+x,1/2-y,z
loop_
_atom_site_type_symbol
_atom_site_label
_atom_site_fract_x
_atom_site_fract_y
_atom_site_fract_z
Si Si1 0.712369 0.657921 0.841990
Si Si2 0.126452 0.159641 0.099969
Si Si3 0.545648 0.838459 0.882461
Si Si4 0.622407 0.657811 0.879103
Si Si5 0.952982 0.337497 0.107750
Si Si6 0.289464 0.839933 0.121883
O O1 0.712321 0.500000 0.882321
O O2 0.750000 0.750000 0.877947
O O3 0.667144 0.723549 0.858111
O O4 0.717140 0.646279 0.732020
O O5 0.085100 0.238013 0.136083
O O6 0.167671 0.253959 0.111379
O O7 0.131563 0.000000 0.136224
O O8 0.120110 0.148019 0.989657
O O9 0.500000 0.785010 0.856134
O O10 0.583194 0.745478 0.847457
O O11 0.549697 0.000000 0.853085
O O12 0.547112 0.838516 0.994908
O O13 0.622120 0.500000 0.839397
O O14 0.946498 0.500000 0.136501
O O15 0.000000 0.293725 0.134845
O O16 0.250000 0.750000 0.086933
O O17 0.291877 0.000000 0.084318
#
# Coordination Sequence:
#
# PCOD9368410 Si02
#       6
#    16  16  16  16  16  16
#     4   9  19  35  52  69  90 120 158 194 230 276
#     4  10  19  30  47  73 102 126 152 191 236 280
#     4   8  14  25  42  66  95 125 156 188 225 272
#     4   9  18  31  47  71  99 123 152 191 233 275
#     4   8  14  26  44  66  94 127 160 192 228 273
#     4  10  20  35  53  69  90 122 159 196 233 279
#
# _framework density 21.660056999999998
#
# number of rings (size 3 to 8) (size 9 to 14) (size 15 to 20)
#    0.000    3.000    0.000    2.000    0.000    3.333 
#    0.000    5.000    0.000    1.000    0.000    2.333 
#    0.000    0.000    0.000    0.000    0.000    0.000 
#
# Total GULP energy -133917.066885 kJ/mol
# GULP energy per Si atom -5579.877787 kJ/mol
# Density = 2.161076 g / cm^3
# Si number density = 21.660057 Si / 1000 Ang^3
#
#
#
# Elastic Constant Matrix: (Units=GPa)
#
#
# Indices 1 2 3 4 5 6 
#
# 1 250.6230 132.4692 -3.2401 0.0000 0.0000 0.0000
# 2 132.4692 140.9722 2.7720 0.0000 0.0000 0.0000
# 3 -3.2401 2.7720 48.2387 0.0000 0.0000 0.0000
# 4 0.0000 0.0000 0.0000 3.7149 0.0000 0.0000
# 5 0.0000 0.0000 0.0000 0.0000 32.3957 0.0000
# 6 0.0000 0.0000 0.0000 0.0000 0.0000 37.3966
#
#
#
# Elastic Compliance Matrix: (Units=1/GPa)
#
#
# Indices 1 2 3 4 5 6 
#
# 1 0.007972 -0.007510 0.000967 0.000000 0.000000 0.000000
# 2 -0.007510 0.014177 -0.001319 0.000000 0.000000 0.000000
# 3 0.000967 -0.001319 0.020871 0.000000 0.000000 0.000000
# 4 0.000000 0.000000 0.000000 0.269188 0.000000 0.000000
# 5 0.000000 0.000000 0.000000 0.000000 0.030868 0.000000
# 6 0.000000 0.000000 0.000000 0.000000 0.000000 0.026740
#
#
# Mechanical properties :
#
#
# Convention : Reuss Voigt Hill
#
# Bulk Modulus (GPa) = 36.63642 78.20401 57.42022
# Shear Modulus (GPa) = 12.66978 35.22362 23.94670
#
# Velocity S-wave (km/s) = 2.42117 4.03699 3.32862
# Velocity P-wave (km/s) = 4.97665 7.61008 6.42963
#
# Compressibility (1/GPa) = 0.02729524
#
# Stress axis : x y z
#
# Youngs Moduli (GPa) = 125.43476 70.53696 47.91337
#
# Poissons Ratio (x) = 0.52976 -0.04634
# Poissons Ratio (y) = 0.94207 0.06320
# Poissons Ratio (z) = -0.12130 0.09305
#
# Static dielectric constant tensor:
#      x y z
#    x 1.770570 0.000000 0.000000 
#    y 0.000000 1.785180 0.000000 
#    z 0.000000 0.000000 1.833150 
# 
# From -- ./inp_files/23686.got.cif
#   From: 2010.05.17/outbox.cif.g08.bks.cpg/sg42_12_cif.got.tgz:23686.got - 2010.06.03 19:03:34.
