data_PCOD9368167
_publ_section_title
;
Structure prediction by ZEFSAII (Michael W. Deem and Ramdas Pophale) SiO2 
 PCOD9368167
Probable space group: F M M 2
;
_chemical_formula_sum "Si O2"
_cell_formula_units_Z 92
_cell_length_a 7.569469
_cell_length_b 25.196246
_cell_length_c 28.049147
_cell_angle_alpha 90.000000
_cell_angle_beta 90.000000
_cell_angle_gamma 90.000000
_cell_volume 5349.595108
_symmetry_space_group_name_H-M "F M M 2"
_symmetry_group_IT_number 42
_symmetry_cell_setting 'orthorhombic'
loop_
_space_group_symop_operation_xyz
x,y,z
-x,-y,z
-x,y,z
x,-y,z
x,1/2+y,1/2+z
-x,1/2-y,1/2+z
-x,1/2+y,1/2+z
x,1/2-y,1/2+z
1/2+x,y,1/2+z
1/2-x,-y,1/2+z
1/2-x,y,1/2+z
1/2+x,-y,1/2+z
1/2+x,1/2+y,z
1/2-x,1/2-y,z
1/2-x,1/2+y,z
1/2+x,1/2-y,z
loop_
_atom_site_type_symbol
_atom_site_label
_atom_site_fract_x
_atom_site_fract_y
_atom_site_fract_z
Si Si1 0.000000 0.563751 0.769728
Si Si2 0.208568 0.689527 0.012478
Si Si3 0.788407 0.312312 0.122326
Si Si4 0.705422 0.436203 0.846635
Si Si5 0.793992 0.906521 0.949077
Si Si6 0.500000 0.500000 0.105195
Si Si7 0.000000 0.110248 0.164802
Si Si8 0.208168 0.000000 0.014134
O O1 0.829135 0.576461 0.802012
O O2 0.000000 0.500000 0.761108
O O3 0.000000 0.593808 0.719910
O O4 0.250000 0.750000 0.000920
O O5 0.268483 0.679653 0.066857
O O6 0.000000 0.681920 0.012636
O O7 0.284490 0.649925 0.973916
O O8 0.750000 0.250000 0.133420
O O9 0.669976 0.353372 0.151887
O O10 0.000000 0.320845 0.126588
O O11 0.500000 0.421351 0.838306
O O12 0.711144 0.500000 0.853746
O O13 0.778917 0.411458 0.895854
O O14 0.000000 0.919238 0.941531
O O15 0.717839 0.948316 0.987699
O O16 0.500000 0.554891 0.134687
O O17 0.678350 0.500000 0.071193
O O18 0.000000 0.000000 0.002061
#
# Coordination Sequence:
#
# PCOD9368167 Si02
#       8
#     8  16  16  16  16   4   8   8
#     4  10  22  38  56  85 112 147 197 232 292 350
#     4  10  21  33  50  80 114 149 186 228 274 335
#     4  10  21  38  60  89 115 151 203 245 285 343
#     4   9  18  34  56  80 112 145 191 242 276 332
#     4  10  17  30  53  81 109 150 188 220 275 331
#     4  10  20  32  52  90 126 166 188 226 294 362
#     4  12  22  38  64  83 121 159 192 245 301 350
#     4   8  16  28  48  79 109 149 182 211 263 337
#
# _framework density 17.197562000000001
#
# number of rings (size 3 to 8) (size 9 to 14) (size 15 to 20)
#    0.261    1.913    2.174    1.565    3.652    0.696 
#    0.000    0.870    0.000    4.174    0.000    0.000 
#    0.000    0.000    0.000    0.000    0.000    0.000 
#
# Total GULP energy -128096.457110 kJ/mol
# GULP energy per Si atom -5569.411179 kJ/mol
# Density = 1.715842 g / cm^3
# Si number density = 17.197562 Si / 1000 Ang^3
#
#
#
# Elastic Constant Matrix: (Units=GPa)
#
#
# Indices 1 2 3 4 5 6 
#
# 1 81.5568 30.4930 44.9856 0.0000 0.0000 0.0000
# 2 30.4930 84.0675 78.7738 0.0000 0.0000 0.0000
# 3 44.9856 78.7738 146.6490 0.0000 0.0000 0.0000
# 4 0.0000 0.0000 0.0000 24.5037 0.0000 0.0000
# 5 0.0000 0.0000 0.0000 0.0000 17.6136 0.0000
# 6 0.0000 0.0000 0.0000 0.0000 0.0000 17.2387
#
#
#
# Elastic Compliance Matrix: (Units=1/GPa)
#
#
# Indices 1 2 3 4 5 6 
#
# 1 0.014971 -0.002269 -0.003373 0.000000 0.000000 0.000000
# 2 -0.002269 0.024294 -0.012354 0.000000 0.000000 0.000000
# 3 -0.003373 -0.012354 0.014490 0.000000 0.000000 0.000000
# 4 0.000000 0.000000 0.000000 0.040810 0.000000 0.000000
# 5 0.000000 0.000000 0.000000 0.000000 0.056774 0.000000
# 6 0.000000 0.000000 0.000000 0.000000 0.000000 0.058009
#
#
# Mechanical properties :
#
#
# Convention : Reuss Voigt Hill
#
# Bulk Modulus (GPa) = 56.30058 68.97535 62.63797
# Shear Modulus (GPa) = 19.89963 22.40592 21.15278
#
# Velocity S-wave (km/s) = 3.40534 3.61342 3.51092
# Velocity P-wave (km/s) = 6.94769 7.58972 7.27579
#
# Compressibility (1/GPa) = 0.01776181
#
# Stress axis : x y z
#
# Youngs Moduli (GPa) = 66.79797 41.16234 69.01442
#
# Poissons Ratio (x) = 0.09340 0.23282
# Poissons Ratio (y) = 0.15157 0.85258
# Poissons Ratio (z) = 0.22534 0.50851
#
# Static dielectric constant tensor:
#      x y z
#    x 1.620070 0.000000 0.000000 
#    y 0.000000 1.567310 0.000000 
#    z 0.000000 0.000000 1.592670 
# 
# From -- ./inp_files/31499.got.cif
#   From: 2010.05.17/outbox.cif.g08.bks.cpg/sg42_16_cif.got.tgz:31499.got - 2010.06.03 19:03:34.
