data_PCOD9368673
_publ_section_title
;
Structure prediction by ZEFSAII (Michael W. Deem and Ramdas Pophale) SiO2 
 PCOD9368673
Probable space group: F M M 2
;
_chemical_formula_sum "Si O2"
_cell_formula_units_Z 112
_cell_length_a 24.874717
_cell_length_b 13.899502
_cell_length_c 15.632349
_cell_angle_alpha 90.000000
_cell_angle_beta 90.000000
_cell_angle_gamma 90.000000
_cell_volume 5404.824931
_symmetry_space_group_name_H-M "F M M 2"
_symmetry_group_IT_number 42
_symmetry_cell_setting 'orthorhombic'
loop_
_space_group_symop_operation_xyz
x,y,z
-x,-y,z
-x,y,z
x,-y,z
x,1/2+y,1/2+z
-x,1/2-y,1/2+z
-x,1/2+y,1/2+z
x,1/2-y,1/2+z
1/2+x,y,1/2+z
1/2-x,-y,1/2+z
1/2-x,y,1/2+z
1/2+x,-y,1/2+z
1/2+x,1/2+y,z
1/2-x,1/2-y,z
1/2-x,1/2+y,z
1/2+x,1/2-y,z
loop_
_atom_site_type_symbol
_atom_site_label
_atom_site_fract_x
_atom_site_fract_y
_atom_site_fract_z
Si Si1 0.148857 0.113505 0.102230
Si Si2 0.060271 0.798529 0.404894
Si Si3 0.266998 0.116901 0.140243
Si Si4 0.557792 0.884607 0.719431
Si Si5 0.669407 0.383311 0.472583
Si Si6 0.117524 0.110535 0.908352
Si Si7 0.763659 0.884134 0.838739
O O1 0.209342 0.149386 0.103844
O O2 0.109108 0.157639 0.171556
O O3 0.155037 0.000000 0.123522
O O4 0.120941 0.116855 0.010859
O O5 0.060481 0.860810 0.318679
O O6 0.111247 0.836871 0.457627
O O7 0.074658 0.688913 0.379570
O O8 0.000000 0.804167 0.442594
O O9 0.267152 0.147378 0.239617
O O10 0.269594 0.000000 0.142177
O O11 0.310055 0.142663 0.067585
O O12 0.500000 0.849627 0.685598
O O13 0.558418 0.000000 0.708586
O O14 0.665542 0.500000 0.466677
O O15 0.713854 0.352407 0.399855
O O16 0.177839 0.135299 0.878192
O O17 0.106094 0.000000 0.883602
O O18 0.757940 0.000000 0.837491
#
# Coordination Sequence:
#
# PCOD9368673 Si02
#       7
#    16  16  16  16  16  16  16
#     4   9  16  32  58  87 116 149 191 242 295 347
#     4  11  24  39  56  84 119 157 201 243 290 352
#     4   9  16  29  55  88 118 150 189 231 291 361
#     4   9  18  34  58  87 117 151 194 247 302 351
#     4  10  19  35  60  89 123 157 189 238 301 360
#     4  10  21  39  61  82 115 156 199 246 294 346
#     4   9  17  33  59  89 119 152 189 238 294 355
#
# _framework density 20.722225000000002
#
# number of rings (size 3 to 8) (size 9 to 14) (size 15 to 20)
#    0.000    2.429    1.429    1.286    0.000    4.571 
#    2.571    1.429    0.000    0.000    0.000    4.000 
#    0.000    0.000    0.000    0.000    0.000    0.000 
#
# Total GULP energy -156179.856740 kJ/mol
# GULP energy per Si atom -5577.852026 kJ/mol
# Density = 2.067506 g / cm^3
# Si number density = 20.722225 Si / 1000 Ang^3
#
#
#
# Elastic Constant Matrix: (Units=GPa)
#
#
# Indices 1 2 3 4 5 6 
#
# 1 136.0092 34.0955 40.9889 0.0000 0.0000 0.0000
# 2 34.0955 63.0769 17.8652 0.0000 0.0000 0.0000
# 3 40.9889 17.8652 64.4647 0.0000 0.0000 0.0000
# 4 0.0000 0.0000 0.0000 -5.2654 0.0000 0.0000
# 5 0.0000 0.0000 0.0000 0.0000 30.6024 0.0000
# 6 0.0000 0.0000 0.0000 0.0000 0.0000 19.9925
#
#
#
# Elastic Compliance Matrix: (Units=1/GPa)
#
#
# Indices 1 2 3 4 5 6 
#
# 1 0.009896 -0.003871 -0.005219 0.000000 0.000000 0.000000
# 2 -0.003871 0.018718 -0.002726 0.000000 0.000000 0.000000
# 3 -0.005219 -0.002726 0.019587 0.000000 0.000000 0.000000
# 4 0.000000 0.000000 0.000000 -0.189919 0.000000 0.000000
# 5 0.000000 0.000000 0.000000 0.000000 0.032677 0.000000
# 6 0.000000 0.000000 0.000000 0.000000 0.000000 0.050019
#
#
# Mechanical properties :
#
#
# Convention : Reuss Voigt Hill
#
# Bulk Modulus (GPa) = 40.70380 49.93890 45.32135
# Shear Modulus (GPa) = -183.81515 20.43932 -81.68791
#
# Velocity S-wave (km/s) = -9.42852 3.14402 -6.28538
# Velocity P-wave (km/s) = 9.94203 6.10994 5.54584
#
# Compressibility (1/GPa) = 0.02456773
#
# Stress axis : x y z
#
# Youngs Moduli (GPa) = 101.05365 53.42424 51.05549
#
# Poissons Ratio (x) = 0.20679 0.26648
# Poissons Ratio (y) = 0.39115 0.13919
# Poissons Ratio (z) = 0.52743 0.14565
#
# Static dielectric constant tensor:
#      x y z
#    x 1.761880 0.000000 0.000000 
#    y 0.000000 1.812680 0.000000 
#    z 0.000000 0.000000 1.737660 
# 
# From -- ./inp_files/14227.got.cif
#   From: 2010.05.17/outbox.cif.g08.bks.cpg/sg42_8_cif.got.tgz:14227.got - 2010.06.03 19:03:34.
