data_PCOD9368979
_publ_section_title
;
Structure prediction by ZEFSAII (Michael W. Deem and Ramdas Pophale) SiO2 
 PCOD9368979
Probable space group: F M M 2
;
_chemical_formula_sum "Si O2"
_cell_formula_units_Z 56
_cell_length_a 15.734929
_cell_length_b 16.556496
_cell_length_c 8.856157
_cell_angle_alpha 90.000000
_cell_angle_beta 90.000000
_cell_angle_gamma 90.000000
_cell_volume 2307.164301
_symmetry_space_group_name_H-M "F M M 2"
_symmetry_group_IT_number 42
_symmetry_cell_setting 'orthorhombic'
loop_
_space_group_symop_operation_xyz
x,y,z
-x,-y,z
-x,y,z
x,-y,z
x,1/2+y,1/2+z
-x,1/2-y,1/2+z
-x,1/2+y,1/2+z
x,1/2-y,1/2+z
1/2+x,y,1/2+z
1/2-x,-y,1/2+z
1/2-x,y,1/2+z
1/2+x,-y,1/2+z
1/2+x,1/2+y,z
1/2-x,1/2-y,z
1/2-x,1/2+y,z
1/2+x,1/2-y,z
loop_
_atom_site_type_symbol
_atom_site_label
_atom_site_fract_x
_atom_site_fract_y
_atom_site_fract_z
Si Si1 0.250000 0.750000 0.938000
Si Si2 0.589753 0.095972 0.683851
Si Si3 0.095404 0.841825 0.529148
Si Si4 0.772366 0.909034 0.734184
O O1 0.229814 0.829949 0.839386
O O2 0.163823 0.730116 0.028641
O O3 0.500000 0.126471 0.612543
O O4 0.687418 0.104573 0.632419
O O5 0.581809 0.000000 0.688106
O O6 0.590943 0.128230 0.856245
O O7 0.142196 0.905605 0.636151
O O8 0.000000 0.823199 0.579815
O O9 0.765050 0.000000 0.801980
#
# Coordination Sequence:
#
# PCOD9368979 Si02
#       4
#     8  16  16  16
#     4  10  22  40  56  84 120 156 194 240 296 350
#     4   8  15  30  53  81 112 146 185 230 282 339
#     4  10  20  35  56  81 113 152 193 239 293 351
#     4  10  20  35  59  88 117 152 198 247 289 340
#
# _framework density 24.272220000000001
#
# number of rings (size 3 to 8) (size 9 to 14) (size 15 to 20)
#    0.000    2.571    0.000    1.714    0.000    4.000 
#    0.000    7.143    0.000    1.714    0.000   16.000 
#    0.000    0.000    0.000    0.000    0.000    0.000 
#
# Total GULP energy -77988.804200 kJ/mol
# GULP energy per Si atom -5570.628871 kJ/mol
# Density = 2.421698 g / cm^3
# Si number density = 24.272220 Si / 1000 Ang^3
#
#
#
# Elastic Constant Matrix: (Units=GPa)
#
#
# Indices 1 2 3 4 5 6 
#
# 1 269.9955 36.6129 30.0385 0.0000 0.0000 0.0000
# 2 36.6129 161.4559 36.8444 0.0000 0.0000 0.0000
# 3 30.0385 36.8444 27.5027 0.0000 0.0000 0.0000
# 4 0.0000 0.0000 0.0000 22.0430 0.0000 0.0000
# 5 0.0000 0.0000 0.0000 0.0000 23.9746 0.0000
# 6 0.0000 0.0000 0.0000 0.0000 0.0000 27.8136
#
#
#
# Elastic Compliance Matrix: (Units=1/GPa)
#
#
# Indices 1 2 3 4 5 6 
#
# 1 0.004218 0.000137 -0.004790 0.000000 0.000000 0.000000
# 2 0.000137 0.008925 -0.012106 0.000000 0.000000 0.000000
# 3 -0.004790 -0.012106 0.057810 0.000000 0.000000 0.000000
# 4 0.000000 0.000000 0.000000 0.045366 0.000000 0.000000
# 5 0.000000 0.000000 0.000000 0.000000 0.041711 0.000000
# 6 0.000000 0.000000 0.000000 0.000000 0.000000 0.035954
#
#
# Mechanical properties :
#
#
# Convention : Reuss Voigt Hill
#
# Bulk Modulus (GPa) = 26.71348 73.99396 50.35372
# Shear Modulus (GPa) = 20.83499 38.46345 29.64922
#
# Velocity S-wave (km/s) = 2.93301 3.98511 3.49883
# Velocity P-wave (km/s) = 4.74339 7.19208 6.09203
#
# Compressibility (1/GPa) = 0.03743428
#
# Stress axis : x y z
#
# Youngs Moduli (GPa) = 237.06997 112.04110 17.29808
#
# Poissons Ratio (x) = -0.01530 0.08286
# Poissons Ratio (y) = -0.03237 0.20941
# Poissons Ratio (z) = 1.13557 1.35638
#
# Static dielectric constant tensor:
#      x y z
#    x 2.032640 0.000000 0.000000 
#    y 0.000000 1.949150 0.000000 
#    z 0.000000 0.000000 2.026420 
# 
# From -- ./inp_files/7434.got.cif
#   From: 2010.05.17/outbox.cif.g08.bks.cpg/sg42_4_cif.got.tgz:7434.got - 2010.06.03 19:03:34.
