data_PCOD9368510
_publ_section_title
;
Structure prediction by ZEFSAII (Michael W. Deem and Ramdas Pophale) SiO2 
 PCOD9368510
Probable space group: F M M 2
;
_chemical_formula_sum "Si O2"
_cell_formula_units_Z 112
_cell_length_a 17.550232
_cell_length_b 28.421375
_cell_length_c 14.377919
_cell_angle_alpha 90.000000
_cell_angle_beta 90.000000
_cell_angle_gamma 90.000000
_cell_volume 7171.730799
_symmetry_space_group_name_H-M "F M M 2"
_symmetry_group_IT_number 42
_symmetry_cell_setting 'orthorhombic'
loop_
_space_group_symop_operation_xyz
x,y,z
-x,-y,z
-x,y,z
x,-y,z
x,1/2+y,1/2+z
-x,1/2-y,1/2+z
-x,1/2+y,1/2+z
x,1/2-y,1/2+z
1/2+x,y,1/2+z
1/2-x,-y,1/2+z
1/2-x,y,1/2+z
1/2+x,-y,1/2+z
1/2+x,1/2+y,z
1/2-x,1/2-y,z
1/2-x,1/2+y,z
1/2+x,1/2-y,z
loop_
_atom_site_type_symbol
_atom_site_label
_atom_site_fract_x
_atom_site_fract_y
_atom_site_fract_z
Si Si1 0.823895 0.717973 0.371890
Si Si2 0.727656 0.864753 0.954551
Si Si3 0.089466 0.703077 0.982060
Si Si4 0.589494 0.678689 0.693097
Si Si5 0.176312 0.912923 0.632965
Si Si6 0.911613 0.000000 0.541287
Si Si7 0.273491 0.552717 0.305965
Si Si8 0.086572 0.000000 0.316462
O O1 0.750000 0.750000 0.350364
O O2 0.791163 0.673977 0.430463
O O3 0.881388 0.749872 0.431950
O O4 0.863043 0.700748 0.277260
O O5 0.645290 0.838679 0.947275
O O6 0.734755 0.907357 0.882503
O O7 0.728557 0.885836 0.057938
O O8 0.000000 0.694096 0.964584
O O9 0.100407 0.704947 0.093912
O O10 0.500000 0.679179 0.714991
O O11 0.618699 0.625777 0.674338
O O12 0.130735 0.953944 0.579945
O O13 0.226196 0.934227 0.715390
O O14 0.910372 0.000000 0.429125
O O15 0.000000 0.000000 0.570513
O O16 0.249687 0.500000 0.338986
O O17 0.363068 0.544456 0.284421
O O18 0.000000 0.000000 0.286108
#
# Coordination Sequence:
#
# PCOD9368510 Si02
#       8
#    16  16  16  16  16   8  16   8
#     4  10  20  35  54  76 104 139 171 212 259 316
#     4  10  20  34  52  81 106 134 176 217 259 304
#     4   9  20  36  54  77 106 134 170 219 267 311
#     4  10  20  33  54  77 102 135 171 217 266 310
#     4  11  19  33  52  76 106 137 176 213 258 310
#     4  11  19  30  50  77 107 135 169 219 265 302
#     4  10  19  33  53  78 106 141 172 211 259 304
#     4   9  19  32  52  77 103 135 173 213 259 306
#
# _framework density 15.616872000000001
#
# number of rings (size 3 to 8) (size 9 to 14) (size 15 to 20)
#    0.429    1.571    3.571    0.857    0.000    4.000 
#    0.000    0.000    0.000    1.714    0.000    1.000 
#    0.000    0.000    0.000    0.000    0.000    0.000 
#
# Total GULP energy -155970.842556 kJ/mol
# GULP energy per Si atom -5570.387234 kJ/mol
# Density = 1.558133 g / cm^3
# Si number density = 15.616872 Si / 1000 Ang^3
#
#
#
# Elastic Constant Matrix: (Units=GPa)
#
#
# Indices 1 2 3 4 5 6 
#
# 1 70.5096 28.0323 45.4398 0.0000 0.0000 0.0000
# 2 28.0323 96.5783 42.7447 0.0000 0.0000 0.0000
# 3 45.4398 42.7447 64.6512 0.0000 0.0000 0.0000
# 4 0.0000 0.0000 0.0000 27.7662 0.0000 0.0000
# 5 0.0000 0.0000 0.0000 0.0000 27.7669 0.0000
# 6 0.0000 0.0000 0.0000 0.0000 0.0000 14.8665
#
#
#
# Elastic Compliance Matrix: (Units=1/GPa)
#
#
# Indices 1 2 3 4 5 6 
#
# 1 0.025965 0.000764 -0.018755 0.000000 0.000000 0.000000
# 2 0.000764 0.014660 -0.010230 0.000000 0.000000 0.000000
# 3 -0.018755 -0.010230 0.035413 0.000000 0.000000 0.000000
# 4 0.000000 0.000000 0.000000 0.036015 0.000000 0.000000
# 5 0.000000 0.000000 0.000000 0.000000 0.036014 0.000000
# 6 0.000000 0.000000 0.000000 0.000000 0.000000 0.067265
#
#
# Mechanical properties :
#
#
# Convention : Reuss Voigt Hill
#
# Bulk Modulus (GPa) = 51.02713 51.57474 51.30094
# Shear Modulus (GPa) = 17.96586 21.78140 19.87363
#
# Velocity S-wave (km/s) = 3.39545 3.73867 3.57119
# Velocity P-wave (km/s) = 6.93667 7.19260 7.06580
#
# Compressibility (1/GPa) = 0.01959742
#
# Stress axis : x y z
#
# Youngs Moduli (GPa) = 38.51318 68.21246 28.23839
#
# Poissons Ratio (x) = -0.05213 0.52960
# Poissons Ratio (y) = -0.02943 0.28887
# Poissons Ratio (z) = 0.72230 0.69780
#
# Static dielectric constant tensor:
#      x y z
#    x 1.513560 0.000000 0.000000 
#    y 0.000000 1.524250 0.000000 
#    z 0.000000 0.000000 1.498370 
# 
# From -- ./inp_files/14459.got.cif
#   From: 2010.05.17/outbox.cif.g08.bks.cpg/sg42_8_cif.got.tgz:14459.got - 2010.06.03 19:03:34.
