data_PCOD9368169
_publ_section_title
;
Structure prediction by ZEFSAII (Michael W. Deem and Ramdas Pophale) SiO2 
 PCOD9368169
Probable space group: F M M 2
;
_chemical_formula_sum "Si O2"
_cell_formula_units_Z 112
_cell_length_a 21.276414
_cell_length_b 18.762987
_cell_length_c 19.361881
_cell_angle_alpha 90.000000
_cell_angle_beta 90.000000
_cell_angle_gamma 90.000000
_cell_volume 7729.438687
_symmetry_space_group_name_H-M "F M M 2"
_symmetry_group_IT_number 42
_symmetry_cell_setting 'orthorhombic'
loop_
_space_group_symop_operation_xyz
x,y,z
-x,-y,z
-x,y,z
x,-y,z
x,1/2+y,1/2+z
-x,1/2-y,1/2+z
-x,1/2+y,1/2+z
x,1/2-y,1/2+z
1/2+x,y,1/2+z
1/2-x,-y,1/2+z
1/2-x,y,1/2+z
1/2+x,-y,1/2+z
1/2+x,1/2+y,z
1/2-x,1/2-y,z
1/2-x,1/2+y,z
1/2+x,1/2-y,z
loop_
_atom_site_type_symbol
_atom_site_label
_atom_site_fract_x
_atom_site_fract_y
_atom_site_fract_z
Si Si1 0.741126 0.582459 0.011900
Si Si2 0.834938 0.916978 0.380867
Si Si3 0.929038 0.918892 0.579591
Si Si4 0.427195 0.181181 0.946739
Si Si5 0.194689 0.416475 0.158610
Si Si6 0.683707 0.294866 0.934307
Si Si7 0.766022 0.831621 0.792977
O O1 0.719847 0.500000 0.011389
O O2 0.767451 0.599651 0.087819
O O3 0.796466 0.587206 0.953904
O O4 0.690448 0.640064 0.987392
O O5 0.900126 0.876025 0.391952
O O6 0.792730 0.874337 0.325922
O O7 0.841620 0.000000 0.363558
O O8 0.924327 0.861251 0.519205
O O9 0.877638 0.905987 0.637497
O O10 0.000000 0.917573 0.606292
O O11 0.917091 0.000000 0.551893
O O12 0.500000 0.201304 0.934505
O O13 0.376249 0.244860 0.946180
O O14 0.204888 0.500000 0.173795
O O15 0.212303 0.370757 0.224460
O O16 0.750000 0.250000 0.939757
O O17 0.684745 0.326372 0.856617
O O18 0.750000 0.750000 0.776600
#
# Coordination Sequence:
#
# PCOD9368169 Si02
#       7
#    16  16  16  16  16  16  16
#     4   9  17  29  50  73  95 123 161 202 244 287
#     4  10  17  31  50  71  97 128 158 198 247 300
#     4   9  17  29  45  69 101 127 151 193 252 308
#     4  11  19  29  50  77 101 127 159 202 249 299
#     4  10  18  29  45  72  97 123 165 207 244 294
#     4  10  17  33  49  67  99 132 161 199 246 292
#     4  10  19  31  46  66  96 129 166 200 245 285
#
# _framework density 14.490055999999999
#
# number of rings (size 3 to 8) (size 9 to 14) (size 15 to 20)
#    0.000    2.143    5.714    0.857    0.000    3.143 
#    0.000    0.714    0.000    0.429    0.000    0.000 
#    0.000    1.143    0.000    0.000    0.000    0.143 
#
# Total GULP energy -155919.559501 kJ/mol
# GULP energy per Si atom -5568.555696 kJ/mol
# Density = 1.445708 g / cm^3
# Si number density = 14.490056 Si / 1000 Ang^3
#
#
#
# Elastic Constant Matrix: (Units=GPa)
#
#
# Indices 1 2 3 4 5 6 
#
# 1 100.2711 64.5799 48.3942 0.0000 0.0000 0.0000
# 2 64.5799 103.1512 62.2701 0.0000 0.0000 0.0000
# 3 48.3942 62.2701 102.2486 0.0000 0.0000 0.0000
# 4 0.0000 0.0000 0.0000 25.6536 0.0000 0.0000
# 5 0.0000 0.0000 0.0000 0.0000 13.4299 0.0000
# 6 0.0000 0.0000 0.0000 0.0000 0.0000 22.1040
#
#
#
# Elastic Compliance Matrix: (Units=1/GPa)
#
#
# Indices 1 2 3 4 5 6 
#
# 1 0.017103 -0.009205 -0.002489 0.000000 0.000000 0.000000
# 2 -0.009205 0.020285 -0.007997 0.000000 0.000000 0.000000
# 3 -0.002489 -0.007997 0.015828 0.000000 0.000000 0.000000
# 4 0.000000 0.000000 0.000000 0.038981 0.000000 0.000000
# 5 0.000000 0.000000 0.000000 0.000000 0.074461 0.000000
# 6 0.000000 0.000000 0.000000 0.000000 0.000000 0.045241
#
#
# Mechanical properties :
#
#
# Convention : Reuss Voigt Hill
#
# Bulk Modulus (GPa) = 72.28368 72.90660 72.59514
# Shear Modulus (GPa) = 19.53952 20.93261 20.23607
#
# Velocity S-wave (km/s) = 3.67615 3.80494 3.74110
# Velocity P-wave (km/s) = 8.24694 8.35030 8.29878
#
# Compressibility (1/GPa) = 0.01383438
#
# Stress axis : x y z
#
# Youngs Moduli (GPa) = 58.47042 49.29707 63.17812
#
# Poissons Ratio (x) = 0.45378 0.15723
# Poissons Ratio (y) = 0.53823 0.50524
# Poissons Ratio (z) = 0.14552 0.39423
#
# Static dielectric constant tensor:
#      x y z
#    x 1.480390 0.000000 0.000000 
#    y 0.000000 1.502730 0.000000 
#    z 0.000000 0.000000 1.465660 
# 
# From -- ./inp_files/21077.got.cif
#   From: 2010.05.17/outbox.cif.g08.bks.cpg/sg42_11_cif.got.tgz:21077.got - 2010.06.03 19:03:34.
