data_PCOD9368395
_publ_section_title
;
Structure prediction by ZEFSAII (Michael W. Deem and Ramdas Pophale) SiO2 
 PCOD9368395
Probable space group: F M M 2
;
_chemical_formula_sum "Si O2"
_cell_formula_units_Z 128
_cell_length_a 27.414728
_cell_length_b 23.804296
_cell_length_c 11.532135
_cell_angle_alpha 90.000000
_cell_angle_beta 90.000000
_cell_angle_gamma 90.000000
_cell_volume 7525.736376
_symmetry_space_group_name_H-M "F M M 2"
_symmetry_group_IT_number 42
_symmetry_cell_setting 'orthorhombic'
loop_
_space_group_symop_operation_xyz
x,y,z
-x,-y,z
-x,y,z
x,-y,z
x,1/2+y,1/2+z
-x,1/2-y,1/2+z
-x,1/2+y,1/2+z
x,1/2-y,1/2+z
1/2+x,y,1/2+z
1/2-x,-y,1/2+z
1/2-x,y,1/2+z
1/2+x,-y,1/2+z
1/2+x,1/2+y,z
1/2-x,1/2-y,z
1/2-x,1/2+y,z
1/2+x,1/2-y,z
loop_
_atom_site_type_symbol
_atom_site_label
_atom_site_fract_x
_atom_site_fract_y
_atom_site_fract_z
Si Si1 0.193092 0.122261 0.539480
Si Si2 0.556625 0.782491 0.339793
Si Si3 0.703718 0.379070 0.149352
Si Si4 0.638281 0.209680 0.182396
Si Si5 0.615889 0.818505 0.554564
Si Si6 0.557400 0.654133 0.288451
Si Si7 0.639233 0.564091 0.347107
Si Si8 0.795960 0.214583 0.338658
O O1 0.246698 0.104926 0.584132
O O2 0.164815 0.153338 0.643680
O O3 0.165130 0.073382 0.471312
O O4 0.193623 0.170611 0.439765
O O5 0.500000 0.795465 0.339951
O O6 0.582795 0.799106 0.220402
O O7 0.584788 0.814920 0.439872
O O8 0.561479 0.714563 0.352356
O O9 0.661250 0.360989 0.059943
O O10 0.677858 0.419701 0.244063
O O11 0.715755 0.323369 0.225548
O O12 0.637562 0.256843 0.082595
O O13 0.663837 0.241575 0.291539
O O14 0.579933 0.833909 0.661046
O O15 0.500000 0.639106 0.284854
O O16 0.593703 0.607249 0.339330
O O17 0.623810 0.500000 0.331824
O O18 0.750000 0.250000 0.376768
#
# Coordination Sequence:
#
# PCOD9368395 Si02
#       8
#    16  16  16  16  16  16  16  16
#     4  11  21  32  50  74 102 137 170 196 248 298
#     4  10  19  30  48  74 107 141 162 187 239 307
#     4   9  20  33  48  74 100 134 166 204 246 294
#     4  10  19  30  43  71 107 136 164 200 230 290
#     4   9  17  29  47  72 104 137 164 190 235 294
#     4   9  18  34  51  72  99 127 165 210 253 297
#     4  10  22  39  53  71  95 123 174 227 257 288
#     4  10  19  28  45  73 105 133 160 196 229 290
#
# _framework density 17.008302
#
# number of rings (size 3 to 8) (size 9 to 14) (size 15 to 20)
#    0.000    2.250    1.250    4.125    5.250    1.250 
#    0.000    0.625    0.000    0.000    0.000    0.875 
#    0.000    4.000    0.000    0.000    0.000    0.000 
#
# Total GULP energy -178276.321098 kJ/mol
# GULP energy per Si atom -5571.135034 kJ/mol
# Density = 1.696959 g / cm^3
# Si number density = 17.008302 Si / 1000 Ang^3
#
#
#
# Elastic Constant Matrix: (Units=GPa)
#
#
# Indices 1 2 3 4 5 6 
#
# 1 102.4093 24.6613 16.1094 0.0000 0.0000 0.0000
# 2 24.6613 35.5686 6.0389 0.0000 0.0000 0.0000
# 3 16.1094 6.0389 28.4123 0.0000 0.0000 0.0000
# 4 0.0000 0.0000 0.0000 10.5664 0.0000 0.0000
# 5 0.0000 0.0000 0.0000 0.0000 24.1696 0.0000
# 6 0.0000 0.0000 0.0000 0.0000 0.0000 13.5348
#
#
#
# Elastic Compliance Matrix: (Units=1/GPa)
#
#
# Indices 1 2 3 4 5 6 
#
# 1 0.012481 -0.007731 -0.005433 0.000000 0.000000 0.000000
# 2 -0.007731 0.033956 -0.002834 0.000000 0.000000 0.000000
# 3 -0.005433 -0.002834 0.038879 0.000000 0.000000 0.000000
# 4 0.000000 0.000000 0.000000 0.094639 0.000000 0.000000
# 5 0.000000 0.000000 0.000000 0.000000 0.041374 0.000000
# 6 0.000000 0.000000 0.000000 0.000000 0.000000 0.073884
#
#
# Mechanical properties :
#
#
# Convention : Reuss Voigt Hill
#
# Bulk Modulus (GPa) = 18.75484 28.88993 23.82238
# Shear Modulus (GPa) = 14.49344 17.62622 16.05983
#
# Velocity S-wave (km/s) = 2.92231 3.22270 3.07617
# Velocity P-wave (km/s) = 4.73681 5.55611 5.16274
#
# Compressibility (1/GPa) = 0.05331956
#
# Stress axis : x y z
#
# Youngs Moduli (GPa) = 80.12041 29.44968 25.72084
#
# Poissons Ratio (x) = 0.22768 0.13975
# Poissons Ratio (y) = 0.61943 0.07289
# Poissons Ratio (z) = 0.43533 0.08345
#
# Static dielectric constant tensor:
#      x y z
#    x 1.606970 0.000000 0.000000 
#    y 0.000000 1.566700 0.000000 
#    z 0.000000 0.000000 1.607150 
# 
# From -- ./inp_files/10404.got.cif
#   From: 2010.05.17/outbox.cif.g08.bks.cpg/sg42_6_cif.got.tgz:10404.got - 2010.06.03 19:03:34.
