data_PCOD9368664
_publ_section_title
;
Structure prediction by ZEFSAII (Michael W. Deem and Ramdas Pophale) SiO2 
 PCOD9368664
Probable space group: F M M 2
;
_chemical_formula_sum "Si O2"
_cell_formula_units_Z 96
_cell_length_a 8.794023
_cell_length_b 28.871148
_cell_length_c 20.854710
_cell_angle_alpha 90.000000
_cell_angle_beta 90.000000
_cell_angle_gamma 90.000000
_cell_volume 5294.876138
_symmetry_space_group_name_H-M "F M M 2"
_symmetry_group_IT_number 42
_symmetry_cell_setting 'orthorhombic'
loop_
_space_group_symop_operation_xyz
x,y,z
-x,-y,z
-x,y,z
x,-y,z
x,1/2+y,1/2+z
-x,1/2-y,1/2+z
-x,1/2+y,1/2+z
x,1/2-y,1/2+z
1/2+x,y,1/2+z
1/2-x,-y,1/2+z
1/2-x,y,1/2+z
1/2+x,-y,1/2+z
1/2+x,1/2+y,z
1/2-x,1/2-y,z
1/2-x,1/2+y,z
1/2+x,1/2-y,z
loop_
_atom_site_type_symbol
_atom_site_label
_atom_site_fract_x
_atom_site_fract_y
_atom_site_fract_z
Si Si1 0.682331 0.945897 0.035900
Si Si2 0.319292 0.945275 0.282558
Si Si3 0.681973 0.892612 0.414513
Si Si4 0.182474 0.700173 0.864465
Si Si5 0.817280 0.299339 0.714550
Si Si6 0.318401 0.103558 0.659882
O O1 0.500000 0.944190 0.033254
O O2 0.739532 0.920496 0.099802
O O3 0.728937 0.000000 0.036630
O O4 0.750913 0.919836 0.974700
O O5 0.500000 0.938252 0.270476
O O6 0.280949 0.920485 0.349299
O O7 0.226221 0.923762 0.224248
O O8 0.292194 0.000000 0.287561
O O9 0.500000 0.889914 0.420206
O O10 0.750921 0.841568 0.405893
O O11 0.250000 0.750000 0.882909
O O12 0.226221 0.692423 0.789309
O O13 0.000000 0.700883 0.868277
O O14 0.750000 0.250000 0.694667
O O15 0.769586 0.343199 0.672223
O O16 0.000000 0.296642 0.712888
O O17 0.500000 0.102726 0.651160
#
# Coordination Sequence:
#
# PCOD9368664 Si02
#       6
#    16  16  16  16  16  16
#     4  11  25  43  61  83 116 159 202 246 299 357
#     4  10  21  36  56  84 116 149 191 242 293 349
#     4  11  22  38  61  88 118 155 198 245 298 353
#     4  10  19  35  58  88 123 156 195 241 295 352
#     4   9  19  34  56  86 119 152 190 235 288 346
#     4  11  22  38  59  87 118 152 195 243 294 352
#
# _framework density 18.130735999999999
#
# number of rings (size 3 to 8) (size 9 to 14) (size 15 to 20)
#    0.000    1.667    1.667    3.000    0.000    7.000 
#    0.000    0.833    0.000    2.000    0.000    0.000 
#    0.000    0.000    0.000    0.000    0.000    0.000 
#
# Total GULP energy -134102.676063 kJ/mol
# GULP energy per Si atom -5587.611503 kJ/mol
# Density = 1.808947 g / cm^3
# Si number density = 18.130736 Si / 1000 Ang^3
#
#
#
# Elastic Constant Matrix: (Units=GPa)
#
#
# Indices 1 2 3 4 5 6 
#
# 1 51.8078 58.9797 52.3313 0.0000 0.0000 0.0000
# 2 58.9797 182.6170 86.7274 0.0000 0.0000 0.0000
# 3 52.3313 86.7274 121.9615 0.0000 0.0000 0.0000
# 4 0.0000 0.0000 0.0000 31.2684 0.0000 0.0000
# 5 0.0000 0.0000 0.0000 0.0000 31.3438 0.0000
# 6 0.0000 0.0000 0.0000 0.0000 0.0000 31.6997
#
#
#
# Elastic Compliance Matrix: (Units=1/GPa)
#
#
# Indices 1 2 3 4 5 6 
#
# 1 0.039314 -0.007075 -0.011838 0.000000 0.000000 0.000000
# 2 -0.007075 0.009542 -0.003749 0.000000 0.000000 0.000000
# 3 -0.011838 -0.003749 0.015945 0.000000 0.000000 0.000000
# 4 0.000000 0.000000 0.000000 0.031981 0.000000 0.000000
# 5 0.000000 0.000000 0.000000 0.000000 0.031904 0.000000
# 6 0.000000 0.000000 0.000000 0.000000 0.000000 0.031546
#
#
# Mechanical properties :
#
#
# Convention : Reuss Voigt Hill
#
# Bulk Modulus (GPa) = 51.34495 83.60702 67.47599
# Shear Modulus (GPa) = 23.57951 29.41890 26.49921
#
# Velocity S-wave (km/s) = 3.61019 4.03252 3.82719
# Velocity P-wave (km/s) = 6.76452 8.23985 7.53837
#
# Compressibility (1/GPa) = 0.01947611
#
# Stress axis : x y z
#
# Youngs Moduli (GPa) = 25.43604 104.80392 62.71701
#
# Poissons Ratio (x) = 0.74154 0.74242
# Poissons Ratio (y) = 0.17997 0.23514
# Poissons Ratio (z) = 0.30110 0.39293
#
# Static dielectric constant tensor:
#      x y z
#    x 1.607170 0.000000 0.000000 
#    y 0.000000 1.611490 0.000000 
#    z 0.000000 0.000000 1.590550 
# 
# From -- ./inp_files/23690.got.cif
#   From: 2010.05.17/outbox.cif.g08.bks.cpg/sg42_12_cif.got.tgz:23690.got - 2010.06.03 19:03:34.
