data_PCOD9368603
_publ_section_title
;
Structure prediction by ZEFSAII (Michael W. Deem and Ramdas Pophale) SiO2 
 PCOD9368603
Probable space group: F M M 2
;
_chemical_formula_sum "Si O2"
_cell_formula_units_Z 128
_cell_length_a 18.620855
_cell_length_b 17.966196
_cell_length_c 21.593872
_cell_angle_alpha 90.000000
_cell_angle_beta 90.000000
_cell_angle_gamma 90.000000
_cell_volume 7224.142004
_symmetry_space_group_name_H-M "F M M 2"
_symmetry_group_IT_number 42
_symmetry_cell_setting 'orthorhombic'
loop_
_space_group_symop_operation_xyz
x,y,z
-x,-y,z
-x,y,z
x,-y,z
x,1/2+y,1/2+z
-x,1/2-y,1/2+z
-x,1/2+y,1/2+z
x,1/2-y,1/2+z
1/2+x,y,1/2+z
1/2-x,-y,1/2+z
1/2-x,y,1/2+z
1/2+x,-y,1/2+z
1/2+x,1/2+y,z
1/2-x,1/2-y,z
1/2-x,1/2+y,z
1/2+x,1/2-y,z
loop_
_atom_site_type_symbol
_atom_site_label
_atom_site_fract_x
_atom_site_fract_y
_atom_site_fract_z
Si Si1 0.918957 0.815365 0.504870
Si Si2 0.145915 0.584640 0.905614
Si Si3 0.300588 0.411651 0.718075
Si Si4 0.918553 0.667390 0.422004
Si Si5 0.308456 0.311599 0.296119
Si Si6 0.915945 0.691218 0.274467
Si Si7 0.717646 0.171866 0.091893
Si Si8 0.791389 0.084032 0.984474
O O1 0.906540 0.884869 0.458793
O O2 0.909172 0.743128 0.461162
O O3 0.858225 0.816230 0.557196
O O4 0.000000 0.815186 0.529480
O O5 0.129194 0.500000 0.886871
O O6 0.151693 0.642329 0.849440
O O7 0.224328 0.585571 0.937506
O O8 0.296811 0.500000 0.725371
O O9 0.237945 0.369608 0.756303
O O10 0.375632 0.378143 0.743303
O O11 0.291955 0.385609 0.647454
O O12 0.909786 0.682668 0.349045
O O13 0.860662 0.610292 0.447400
O O14 0.000000 0.640984 0.431703
O O15 0.250000 0.250000 0.319911
O O16 0.367873 0.263870 0.259062
O O17 0.000000 0.697335 0.258738
O O18 0.750000 0.250000 0.114887
O O19 0.771294 0.138869 0.040220
O O20 0.799236 0.000000 0.007850
#
# Coordination Sequence:
#
# PCOD9368603 Si02
#       8
#    16  16  16  16  16  16  16  16
#     4  10  21  36  56  83 116 149 187 230 279 341
#     4  10  20  31  52  83 114 149 187 232 286 335
#     4  11  24  40  58  85 118 153 195 243 291 339
#     4  10  19  34  57  85 116 151 184 228 285 343
#     4  10  19  34  57  81 112 149 191 237 285 339
#     4  10  21  37  60  87 116 152 193 237 288 345
#     4  11  21  38  61  82 108 151 197 237 282 335
#     4  10  20  33  52  82 114 147 187 235 284 335
#
# _framework density 17.718367000000001
#
# number of rings (size 3 to 8) (size 9 to 14) (size 15 to 20)
#    0.000    1.750    2.500    3.375    0.000    3.250 
#    0.000    1.250    0.000    1.125    0.000    0.000 
#    0.000    0.000    0.000    0.000    0.000    0.000 
#
# Total GULP energy -178597.364225 kJ/mol
# GULP energy per Si atom -5581.167632 kJ/mol
# Density = 1.767804 g / cm^3
# Si number density = 17.718367 Si / 1000 Ang^3
#
#
#
# Elastic Constant Matrix: (Units=GPa)
#
#
# Indices 1 2 3 4 5 6 
#
# 1 93.7926 36.5841 11.8256 0.0000 0.0000 0.0000
# 2 36.5841 115.1420 13.7718 0.0000 0.0000 0.0000
# 3 11.8256 13.7718 35.4272 0.0000 0.0000 0.0000
# 4 0.0000 0.0000 0.0000 26.1477 0.0000 0.0000
# 5 0.0000 0.0000 0.0000 0.0000 12.2352 0.0000
# 6 0.0000 0.0000 0.0000 0.0000 0.0000 9.3034
#
#
#
# Elastic Compliance Matrix: (Units=1/GPa)
#
#
# Indices 1 2 3 4 5 6 
#
# 1 0.012418 -0.003618 -0.002739 0.000000 0.000000 0.000000
# 2 -0.003618 0.010163 -0.002743 0.000000 0.000000 0.000000
# 3 -0.002739 -0.002743 0.030207 0.000000 0.000000 0.000000
# 4 0.000000 0.000000 0.000000 0.038244 0.000000 0.000000
# 5 0.000000 0.000000 0.000000 0.000000 0.081731 0.000000
# 6 0.000000 0.000000 0.000000 0.000000 0.000000 0.107487
#
#
# Mechanical properties :
#
#
# Convention : Reuss Voigt Hill
#
# Bulk Modulus (GPa) = 28.91106 40.96944 34.94025
# Shear Modulus (GPa) = 16.13006 21.68262 18.90634
#
# Velocity S-wave (km/s) = 3.02049 3.50199 3.27011
# Velocity P-wave (km/s) = 5.34012 6.28687 5.83273
#
# Compressibility (1/GPa) = 0.03458883
#
# Stress axis : x y z
#
# Youngs Moduli (GPa) = 80.52568 98.40027 33.10458
#
# Poissons Ratio (x) = 0.35602 0.09067
# Poissons Ratio (y) = 0.29135 0.09080
# Poissons Ratio (z) = 0.22054 0.26989
#
# Static dielectric constant tensor:
#      x y z
#    x 1.602430 0.000000 0.000000 
#    y 0.000000 1.609310 0.000000 
#    z 0.000000 0.000000 1.591530 
# 
# From -- ./inp_files/29993.got.cif
#   From: 2010.05.17/outbox.cif.g08.bks.cpg/sg42_15_cif.got.tgz:29993.got - 2010.06.03 19:03:34.
