data_PCOD9368778
_publ_section_title
;
Structure prediction by ZEFSAII (Michael W. Deem and Ramdas Pophale) SiO2 
 PCOD9368778
Probable space group: F M M 2
;
_chemical_formula_sum "Si O2"
_cell_formula_units_Z 112
_cell_length_a 19.665600
_cell_length_b 7.504320
_cell_length_c 37.434940
_cell_angle_alpha 90.000000
_cell_angle_beta 90.000000
_cell_angle_gamma 90.000000
_cell_volume 5524.534470
_symmetry_space_group_name_H-M "F M M 2"
_symmetry_group_IT_number 42
_symmetry_cell_setting 'orthorhombic'
loop_
_space_group_symop_operation_xyz
x,y,z
-x,-y,z
-x,y,z
x,-y,z
x,1/2+y,1/2+z
-x,1/2-y,1/2+z
-x,1/2+y,1/2+z
x,1/2-y,1/2+z
1/2+x,y,1/2+z
1/2-x,-y,1/2+z
1/2-x,y,1/2+z
1/2+x,-y,1/2+z
1/2+x,1/2+y,z
1/2-x,1/2-y,z
1/2-x,1/2+y,z
1/2+x,1/2-y,z
loop_
_atom_site_type_symbol
_atom_site_label
_atom_site_fract_x
_atom_site_fract_y
_atom_site_fract_z
Si Si1 0.830068 0.286192 0.369900
Si Si2 0.422606 0.285924 0.515489
Si Si3 0.078304 0.782681 0.723845
Si Si4 0.422280 0.713064 0.934737
Si Si5 0.578496 0.717403 0.804375
Si Si6 0.829541 0.786399 0.659143
Si Si7 0.170459 0.286224 0.079664
O O1 0.836840 0.500000 0.369767
O O2 0.750000 0.250000 0.370236
O O3 0.870468 0.218922 0.404825
O O4 0.869374 0.220766 0.334546
O O5 0.500000 0.218757 0.518780
O O6 0.424880 0.500000 0.518546
O O7 0.398977 0.246856 0.475254
O O8 0.374892 0.217353 0.547118
O O9 0.096946 0.726060 0.764085
O O10 0.126116 0.717884 0.692052
O O11 0.000000 0.732299 0.717578
O O12 0.080667 0.000000 0.723929
O O13 0.500000 0.782107 0.930791
O O14 0.426258 0.500000 0.930450
O O15 0.500000 0.769853 0.811738
O O16 0.578779 0.500000 0.804516
O O17 0.750000 0.750000 0.664777
O O18 0.847814 0.718624 0.619413
O O19 0.838500 0.000000 0.658316
O O20 0.162273 0.500000 0.080581
O O21 0.250000 0.250000 0.073759
#
# Coordination Sequence:
#
# PCOD9368778 Si02
#       7
#    16  16  16  16  16  16  16
#     4  10  20  32  47  69  95 120 148 184 224 265
#     4   9  18  32  49  69  91 115 146 186 230 269
#     4   8  14  25  44  70  93 114 148 191 226 257
#     4   9  18  33  51  68  87 116 153 187 220 263
#     4   8  14  27  47  68  90 118 152 187 221 260
#     4   9  17  29  45  66  92 121 151 183 221 265
#     4   9  18  31  46  65  91 122 152 182 220 267
#
# _framework density 20.273202000000001
#
# number of rings (size 3 to 8) (size 9 to 14) (size 15 to 20)
#    0.000    3.143    0.000    1.286    0.000    4.571 
#    0.000    5.714    0.000    1.714    0.000    6.000 
#    0.000    0.000    0.000    0.000    0.000    0.000 
#
# Total GULP energy -156169.562871 kJ/mol
# GULP energy per Si atom -5577.484388 kJ/mol
# Density = 2.022706 g / cm^3
# Si number density = 20.273202 Si / 1000 Ang^3
#
#
#
# Elastic Constant Matrix: (Units=GPa)
#
#
# Indices 1 2 3 4 5 6 
#
# 1 123.3679 1.8635 151.7419 0.0000 0.0000 0.0000
# 2 1.8635 54.9410 7.2180 0.0000 0.0000 0.0000
# 3 151.7419 7.2180 246.9169 0.0000 0.0000 0.0000
# 4 0.0000 0.0000 0.0000 6.5447 0.0000 0.0000
# 5 0.0000 0.0000 0.0000 0.0000 40.5334 0.0000
# 6 0.0000 0.0000 0.0000 0.0000 0.0000 17.3385
#
#
#
# Elastic Compliance Matrix: (Units=1/GPa)
#
#
# Indices 1 2 3 4 5 6 
#
# 1 0.033339 0.001567 -0.020534 0.000000 0.000000 0.000000
# 2 0.001567 0.018345 -0.001499 0.000000 0.000000 0.000000
# 3 -0.020534 -0.001499 0.016713 0.000000 0.000000 0.000000
# 4 0.000000 0.000000 0.000000 0.152797 0.000000 0.000000
# 5 0.000000 0.000000 0.000000 0.000000 0.024671 0.000000
# 6 0.000000 0.000000 0.000000 0.000000 0.000000 0.057675
#
#
# Mechanical properties :
#
#
# Convention : Reuss Voigt Hill
#
# Bulk Modulus (GPa) = 36.41094 82.98585 59.69839
# Shear Modulus (GPa) = 14.13912 30.51014 22.32463
#
# Velocity S-wave (km/s) = 2.64375 3.88358 3.32202
# Velocity P-wave (km/s) = 5.22670 7.81871 6.65021
#
# Compressibility (1/GPa) = 0.02746427
#
# Stress axis : x y z
#
# Youngs Moduli (GPa) = 29.99450 54.51032 59.83315
#
# Poissons Ratio (x) = -0.08542 1.22864
# Poissons Ratio (y) = -0.04700 0.08970
# Poissons Ratio (z) = 0.61592 0.08172
#
# Static dielectric constant tensor:
#      x y z
#    x 1.677130 0.000000 0.000000 
#    y 0.000000 1.771250 0.000000 
#    z 0.000000 0.000000 1.722950 
# 
# From -- ./inp_files/34311.got.cif
#   From: 2010.05.17/outbox.cif.g08.bks.cpg/sg42_18_cif.got.tgz:34311.got - 2010.06.03 19:03:34.
