data_PCOD9368974
_publ_section_title
;
Structure prediction by ZEFSAII (Michael W. Deem and Ramdas Pophale) SiO2 
 PCOD9368974
Probable space group: F M M 2
;
_chemical_formula_sum "Si O2"
_cell_formula_units_Z 104
_cell_length_a 22.328644
_cell_length_b 9.514070
_cell_length_c 26.467128
_cell_angle_alpha 90.000000
_cell_angle_beta 90.000000
_cell_angle_gamma 90.000000
_cell_volume 5622.578268
_symmetry_space_group_name_H-M "F M M 2"
_symmetry_group_IT_number 42
_symmetry_cell_setting 'orthorhombic'
loop_
_space_group_symop_operation_xyz
x,y,z
-x,-y,z
-x,y,z
x,-y,z
x,1/2+y,1/2+z
-x,1/2-y,1/2+z
-x,1/2+y,1/2+z
x,1/2-y,1/2+z
1/2+x,y,1/2+z
1/2-x,-y,1/2+z
1/2-x,y,1/2+z
1/2+x,-y,1/2+z
1/2+x,1/2+y,z
1/2-x,1/2-y,z
1/2-x,1/2+y,z
1/2+x,1/2-y,z
loop_
_atom_site_type_symbol
_atom_site_label
_atom_site_fract_x
_atom_site_fract_y
_atom_site_fract_z
Si Si1 0.066759 0.829937 0.497950
Si Si2 0.323954 0.653505 0.145764
Si Si3 0.430812 0.158411 0.714097
Si Si4 0.308464 0.168675 0.049908
Si Si5 0.931532 0.667960 0.878863
Si Si6 0.750000 0.250000 0.239195
Si Si7 0.134128 0.161890 0.796859
O O1 0.127630 0.785163 0.526072
O O2 0.072388 0.797906 0.438309
O O3 0.000000 0.780098 0.514876
O O4 0.065525 0.000000 0.502339
O O5 0.313144 0.500000 0.121803
O O6 0.392271 0.665518 0.163423
O O7 0.310734 0.780825 0.108293
O O8 0.287817 0.659025 0.198688
O O9 0.500000 0.177013 0.704065
O O10 0.407071 0.272443 0.753028
O O11 0.421544 0.000000 0.735552
O O12 0.250000 0.250000 0.028370
O O13 0.302881 0.000000 0.045160
O O14 0.924340 0.500000 0.873533
O O15 0.882594 0.748611 0.846113
O O16 0.000000 0.702227 0.861940
O O17 0.798680 0.322675 0.275051
O O18 0.120727 0.000000 0.805862
#
# Coordination Sequence:
#
# PCOD9368974 Si02
#       7
#    16  16  16  16  16   8  16
#     4   8  17  37  62  85 110 147 193 233 274 334
#     4  10  20  35  56  77 103 143 189 229 270 327
#     4   9  19  35  53  76 109 147 183 222 273 334
#     4  11  22  36  58  85 114 146 185 233 285 338
#     4   9  18  36  61  83 108 147 187 221 271 337
#     4  10  22  38  54  70 108 150 190 220 276 326
#     4  11  22  34  53  82 111 142 184 233 278 323
#
# _framework density 18.496852000000001
#
# number of rings (size 3 to 8) (size 9 to 14) (size 15 to 20)
#    0.000    2.308    0.769    2.769    0.000    7.385 
#    1.385    1.538    0.000    3.231    0.000    0.000 
#    0.000    0.000    0.000    0.000    0.000    0.000 
#
# Total GULP energy -144841.334030 kJ/mol
# GULP energy per Si atom -5570.820540 kJ/mol
# Density = 1.845475 g / cm^3
# Si number density = 18.496852 Si / 1000 Ang^3
#
#
#
# Elastic Constant Matrix: (Units=GPa)
#
#
# Indices 1 2 3 4 5 6 
#
# 1 148.1425 40.6071 48.8206 0.0000 0.0000 0.0000
# 2 40.6071 72.7803 20.0189 0.0000 0.0000 0.0000
# 3 48.8206 20.0189 54.6948 0.0000 0.0000 0.0000
# 4 0.0000 0.0000 0.0000 -2.0243 0.0000 0.0000
# 5 0.0000 0.0000 0.0000 0.0000 27.3064 0.0000
# 6 0.0000 0.0000 0.0000 0.0000 0.0000 18.4225
#
#
#
# Elastic Compliance Matrix: (Units=1/GPa)
#
#
# Indices 1 2 3 4 5 6 
#
# 1 0.010345 -0.003594 -0.007919 0.000000 0.000000 0.000000
# 2 -0.003594 0.016527 -0.002841 0.000000 0.000000 0.000000
# 3 -0.007919 -0.002841 0.026391 0.000000 0.000000 0.000000
# 4 0.000000 0.000000 0.000000 -0.494008 0.000000 0.000000
# 5 0.000000 0.000000 0.000000 0.000000 0.036621 0.000000
# 6 0.000000 0.000000 0.000000 0.000000 0.000000 0.054281
#
#
# Mechanical properties :
#
#
# Convention : Reuss Voigt Hill
#
# Bulk Modulus (GPa) = 40.72336 54.94566 47.83451
# Shear Modulus (GPa) = -15.97698 19.81899 1.92101
#
# Velocity S-wave (km/s) = -2.94218 3.27690 1.02020
# Velocity P-wave (km/s) = 3.24380 6.63983 5.22540
#
# Compressibility (1/GPa) = 0.02455593
#
# Stress axis : x y z
#
# Youngs Moduli (GPa) = 96.66598 60.50863 37.89138
#
# Poissons Ratio (x) = 0.21746 0.30004
# Poissons Ratio (y) = 0.34740 0.10765
# Poissons Ratio (z) = 0.76545 0.17191
#
# Static dielectric constant tensor:
#      x y z
#    x 1.689450 0.000000 0.000000 
#    y 0.000000 1.637890 0.000000 
#    z 0.000000 0.000000 1.627450 
# 
# From -- ./inp_files/34680.got.cif
#   From: 2010.05.17/outbox.cif.g08.bks.cpg/sg42_18_cif.got.tgz:34680.got - 2010.06.03 19:03:34.
