data_PCOD9368105
_publ_section_title
;
Structure prediction by ZEFSAII (Michael W. Deem and Ramdas Pophale) SiO2 
 PCOD9368105
Probable space group: F M M 2
;
_chemical_formula_sum "Si O2"
_cell_formula_units_Z 76
_cell_length_a 14.056226
_cell_length_b 14.785032
_cell_length_c 16.724252
_cell_angle_alpha 90.000000
_cell_angle_beta 90.000000
_cell_angle_gamma 90.000000
_cell_volume 3475.663338
_symmetry_space_group_name_H-M "F M M 2"
_symmetry_group_IT_number 42
_symmetry_cell_setting 'orthorhombic'
loop_
_space_group_symop_operation_xyz
x,y,z
-x,-y,z
-x,y,z
x,-y,z
x,1/2+y,1/2+z
-x,1/2-y,1/2+z
-x,1/2+y,1/2+z
x,1/2-y,1/2+z
1/2+x,y,1/2+z
1/2-x,-y,1/2+z
1/2-x,y,1/2+z
1/2+x,-y,1/2+z
1/2+x,1/2+y,z
1/2-x,1/2-y,z
1/2-x,1/2+y,z
1/2+x,1/2-y,z
loop_
_atom_site_type_symbol
_atom_site_label
_atom_site_fract_x
_atom_site_fract_y
_atom_site_fract_z
Si Si1 0.709372 0.352345 0.082210
Si Si2 0.000000 0.317583 0.252051
Si Si3 0.290628 0.147655 0.921894
Si Si4 0.000000 0.000000 0.252051
Si Si5 0.000000 0.838892 0.122173
Si Si6 0.218131 0.643357 0.252052
Si Si7 0.000000 0.661108 0.881930
O O1 0.750000 0.250000 0.085087
O O2 0.596717 0.345270 0.073903
O O3 0.737593 0.392787 0.169010
O O4 0.750001 0.395950 0.002052
O O5 0.000000 0.252861 0.174334
O O6 0.103438 0.365604 0.252051
O O7 0.000000 0.252861 0.329768
O O8 0.250000 0.250000 0.919018
O O9 0.262406 0.107213 0.835095
O O10 0.403283 0.154730 0.930200
O O11 0.000000 0.078851 0.183538
O O12 0.000000 0.078851 0.320565
O O13 0.250000 0.750000 0.252052
#
# Coordination Sequence:
#
# PCOD9368105 Si02
#       7
#    16   8  16   4   8  16   8
#     4  10  20  31  53  83 111 141 172 222 284 329
#     4  11  16  27  50  68 104 141 161 218 258 311
#     4  10  20  31  53  83 111 141 172 222 284 329
#     4  10  24  36  60  76  92 160 194 218 256 310
#     4  11  19  36  53  75 112 139 187 223 255 321
#     4  10  16  28  43  75 109 141 165 205 275 328
#     4  11  19  36  53  75 112 139 187 223 255 321
#
# _framework density 21.866329
#
# number of rings (size 3 to 8) (size 9 to 14) (size 15 to 20)
#    0.000    1.684    8.421    1.263    0.000    5.053 
#    0.000    1.053    0.000    0.000    0.000    0.000 
#    0.000   12.211    0.000    0.000    0.000    0.000 
#
# Total GULP energy -105801.859926 kJ/mol
# GULP energy per Si atom -5568.518943 kJ/mol
# Density = 2.181656 g / cm^3
# Si number density = 21.866329 Si / 1000 Ang^3
#
#
#
# Elastic Constant Matrix: (Units=GPa)
#
#
# Indices 1 2 3 4 5 6 
#
# 1 242.8770 1.1956 71.3713 0.0000 0.0000 0.0000
# 2 1.1956 59.7298 -0.2491 0.0000 0.0000 0.0000
# 3 71.3713 -0.2491 192.9798 0.0000 0.0000 0.0000
# 4 0.0000 0.0000 0.0000 -15.6765 0.0000 0.0000
# 5 0.0000 0.0000 0.0000 0.0000 18.9671 0.0000
# 6 0.0000 0.0000 0.0000 0.0000 0.0000 -15.0225
#
#
#
# Elastic Compliance Matrix: (Units=1/GPa)
#
#
# Indices 1 2 3 4 5 6 
#
# 1 0.004620 -0.000100 -0.001709 0.000000 0.000000 0.000000
# 2 -0.000100 0.016744 0.000058 0.000000 0.000000 0.000000
# 3 -0.001709 0.000058 0.005814 0.000000 0.000000 0.000000
# 4 0.000000 0.000000 0.000000 -0.063790 0.000000 0.000000
# 5 0.000000 0.000000 0.000000 0.000000 0.052723 0.000000
# 6 0.000000 0.000000 0.000000 0.000000 0.000000 -0.066567
#
#
# Mechanical properties :
#
#
# Convention : Reuss Voigt Hill
#
# Bulk Modulus (GPa) = 42.23268 71.13581 56.68425
# Shear Modulus (GPa) = -127.99906 25.87153 -51.06377
#
# Velocity S-wave (km/s) = -7.65925 3.44345 -4.83770
# Velocity P-wave (km/s) = 7.67222 6.95791 2.28586
#
# Compressibility (1/GPa) = 0.02367834
#
# Stress axis : x y z
#
# Youngs Moduli (GPa) = 216.45335 59.72182 172.00074
#
# Poissons Ratio (x) = 0.00595 0.29391
# Poissons Ratio (y) = 0.02156 -0.01005
# Poissons Ratio (z) = 0.36987 -0.00349
#
# Static dielectric constant tensor:
#      x y z
#    x 1.811740 0.000000 0.000000 
#    y 0.000000 1.778730 0.000000 
#    z 0.000000 0.000000 1.855540 
# 
# From -- ./inp_files/19874.got.cif
#   From: 2010.05.17/outbox.cif.g08.bks.cpg/sg42_10_cif.got.tgz:19874.got - 2010.06.03 19:03:34.
