data_PCOD9368421
_publ_section_title
;
Structure prediction by ZEFSAII (Michael W. Deem and Ramdas Pophale) SiO2 
 PCOD9368421
Probable space group: F M M 2
;
_chemical_formula_sum "Si O2"
_cell_formula_units_Z 96
_cell_length_a 22.879054
_cell_length_b 10.087587
_cell_length_c 20.066135
_cell_angle_alpha 90.000000
_cell_angle_beta 90.000000
_cell_angle_gamma 90.000000
_cell_volume 4631.152545
_symmetry_space_group_name_H-M "F M M 2"
_symmetry_group_IT_number 42
_symmetry_cell_setting 'orthorhombic'
loop_
_space_group_symop_operation_xyz
x,y,z
-x,-y,z
-x,y,z
x,-y,z
x,1/2+y,1/2+z
-x,1/2-y,1/2+z
-x,1/2+y,1/2+z
x,1/2-y,1/2+z
1/2+x,y,1/2+z
1/2-x,-y,1/2+z
1/2-x,y,1/2+z
1/2+x,-y,1/2+z
1/2+x,1/2+y,z
1/2-x,1/2-y,z
1/2-x,1/2+y,z
1/2+x,1/2-y,z
loop_
_atom_site_type_symbol
_atom_site_label
_atom_site_fract_x
_atom_site_fract_y
_atom_site_fract_z
Si Si1 0.302363 0.654079 0.718110
Si Si2 0.800582 0.347674 0.920215
Si Si3 0.936159 0.346443 0.248610
Si Si4 0.663826 0.355216 0.571239
Si Si5 0.063643 0.347588 0.547764
Si Si6 0.599282 0.147139 0.396797
O O1 0.297384 0.500000 0.742268
O O2 0.250000 0.750000 0.742141
O O3 0.369763 0.701899 0.731658
O O4 0.298266 0.649361 0.637628
O O5 0.795722 0.500000 0.898912
O O6 0.750000 0.250000 0.897854
O O7 0.858583 0.273109 0.896969
O O8 0.802488 0.346144 0.001283
O O9 0.935516 0.500000 0.225424
O O10 0.936429 0.347829 0.329060
O O11 0.000000 0.288949 0.227188
O O12 0.634101 0.500000 0.570379
O O13 0.615687 0.241939 0.573122
O O14 0.071079 0.500000 0.568527
O O15 0.066286 0.346243 0.467062
O O16 0.000000 0.299780 0.569021
O O17 0.629375 0.000000 0.397352
#
# Coordination Sequence:
#
# PCOD9368421 Si02
#       6
#    16  16  16  16  16  16
#     4  10  21  37  57  80 106 139 179 222 267 314
#     4  10  19  31  48  72 102 134 170 212 259 312
#     4   9  18  34  57  82 106 137 180 224 263 309
#     4   9  19  33  49  72 101 135 173 212 258 311
#     4   9  17  29  48  75 104 134 169 210 257 310
#     4   9  17  31  51  74 101 134 170 209 256 309
#
# _framework density 20.729182000000002
#
# number of rings (size 3 to 8) (size 9 to 14) (size 15 to 20)
#    0.000    2.667    0.000    1.500    0.000    5.000 
#    0.000    4.167    0.000    3.000    0.000    0.000 
#    0.000    0.000    0.000    0.000    0.000    0.000 
#
# Total GULP energy -133659.552804 kJ/mol
# GULP energy per Si atom -5569.148034 kJ/mol
# Density = 2.068200 g / cm^3
# Si number density = 20.729182 Si / 1000 Ang^3
#
#
#
# Elastic Constant Matrix: (Units=GPa)
#
#
# Indices 1 2 3 4 5 6 
#
# 1 120.4292 68.3292 4.9344 0.0000 0.0000 0.0000
# 2 68.3292 117.9395 8.5973 0.0000 0.0000 0.0000
# 3 4.9344 8.5973 67.3163 0.0000 0.0000 0.0000
# 4 0.0000 0.0000 0.0000 11.9192 0.0000 0.0000
# 5 0.0000 0.0000 0.0000 0.0000 -4.1565 0.0000
# 6 0.0000 0.0000 0.0000 0.0000 0.0000 -7.1116
#
#
#
# Elastic Compliance Matrix: (Units=1/GPa)
#
#
# Indices 1 2 3 4 5 6 
#
# 1 0.012370 -0.007167 0.000009 0.000000 0.000000 0.000000
# 2 -0.007167 0.012711 -0.001098 0.000000 0.000000 0.000000
# 3 0.000009 -0.001098 0.014995 0.000000 0.000000 0.000000
# 4 0.000000 0.000000 0.000000 0.083898 0.000000 0.000000
# 5 0.000000 0.000000 0.000000 0.000000 -0.240584 0.000000
# 6 0.000000 0.000000 0.000000 0.000000 0.000000 -0.140614
#
#
# Mechanical properties :
#
#
# Convention : Reuss Voigt Hill
#
# Bulk Modulus (GPa) = 42.43985 52.15630 47.29808
# Shear Modulus (GPa) = -21.47236 15.05183 -3.21026
#
# Velocity S-wave (km/s) = -3.22196 2.69758 -1.24581
# Velocity P-wave (km/s) = 2.58391 5.90915 4.56041
#
# Compressibility (1/GPa) = 0.02356276
#
# Stress axis : x y z
#
# Youngs Moduli (GPa) = 80.84217 78.67009 66.68961
#
# Poissons Ratio (x) = 0.56384 -0.00058
# Poissons Ratio (y) = 0.57941 0.07323
# Poissons Ratio (z) = -0.00070 0.08638
#
# Static dielectric constant tensor:
#      x y z
#    x 1.848430 0.000000 0.000000 
#    y 0.000000 1.730090 0.000000 
#    z 0.000000 0.000000 1.770290 
# 
# From -- ./inp_files/26429.got.cif
#   From: 2010.05.17/outbox.cif.g08.bks.cpg/sg42_14_cif.got.tgz:26429.got - 2010.06.03 19:03:34.
