data_PCOD9368293
_publ_section_title
;
Structure prediction by ZEFSAII (Michael W. Deem and Ramdas Pophale) SiO2 
 PCOD9368293
Probable space group: F M M 2
;
_chemical_formula_sum "Si O2"
_cell_formula_units_Z 112
_cell_length_a 27.178296
_cell_length_b 13.840808
_cell_length_c 16.475752
_cell_angle_alpha 90.000000
_cell_angle_beta 90.000000
_cell_angle_gamma 90.000000
_cell_volume 6197.676656
_symmetry_space_group_name_H-M "F M M 2"
_symmetry_group_IT_number 42
_symmetry_cell_setting 'orthorhombic'
loop_
_space_group_symop_operation_xyz
x,y,z
-x,-y,z
-x,y,z
x,-y,z
x,1/2+y,1/2+z
-x,1/2-y,1/2+z
-x,1/2+y,1/2+z
x,1/2-y,1/2+z
1/2+x,y,1/2+z
1/2-x,-y,1/2+z
1/2-x,y,1/2+z
1/2+x,-y,1/2+z
1/2+x,1/2+y,z
1/2-x,1/2-y,z
1/2-x,1/2+y,z
1/2+x,1/2-y,z
loop_
_atom_site_type_symbol
_atom_site_label
_atom_site_fract_x
_atom_site_fract_y
_atom_site_fract_z
Si Si1 0.556147 0.884070 0.212410
Si Si2 0.753796 0.636216 0.530006
Si Si3 0.356326 0.802133 0.319532
Si Si4 0.692504 0.110831 0.177490
Si Si5 0.839362 0.392953 0.914051
Si Si6 0.632686 0.606929 0.993800
Si Si7 0.892135 0.192032 0.564520
O O1 0.500000 0.866463 0.237414
O O2 0.595360 0.822036 0.264450
O O3 0.564493 0.850531 0.119210
O O4 0.565319 0.000000 0.219449
O O5 0.750000 0.750000 0.523107
O O6 0.740899 0.610065 0.622879
O O7 0.712234 0.603799 0.464970
O O8 0.809210 0.606519 0.513519
O O9 0.310983 0.843219 0.266032
O O10 0.343410 0.694109 0.349570
O O11 0.367193 0.864197 0.399487
O O12 0.655553 0.171492 0.120717
O O13 0.675346 0.000000 0.183149
O O14 0.847257 0.500000 0.880027
O O15 0.880189 0.366323 0.982371
O O16 0.612168 0.500000 0.008003
O O17 0.607083 0.694891 0.042089
#
# Coordination Sequence:
#
# PCOD9368293 Si02
#       7
#    16  16  16  16  16  16  16
#     4  10  20  37  61  84 105 134 176 224 275 332
#     4  11  18  35  52  75 107 146 189 229 261 300
#     4  10  20  35  55  79 108 138 176 228 272 325
#     4  10  18  32  52  71 100 140 179 219 264 307
#     4  10  19  34  56  78 109 148 182 221 268 316
#     4  11  20  33  53  78 111 147 183 221 267 319
#     4   9  17  32  54  79 102 134 173 222 263 316
#
# _framework density 18.071287000000002
#
# number of rings (size 3 to 8) (size 9 to 14) (size 15 to 20)
#    0.000    1.857    4.286    5.571    0.000    0.000 
#    2.571    5.714    0.000    3.429    0.000    0.000 
#    0.000    0.000    0.000    0.000    0.000    0.000 
#
# Total GULP energy -155915.985765 kJ/mol
# GULP energy per Si atom -5568.428063 kJ/mol
# Density = 1.803016 g / cm^3
# Si number density = 18.071287 Si / 1000 Ang^3
#
#
#
# Elastic Constant Matrix: (Units=GPa)
#
#
# Indices 1 2 3 4 5 6 
#
# 1 56.3153 1.9529 16.6237 0.0000 0.0000 0.0000
# 2 1.9529 143.3064 35.7098 0.0000 0.0000 0.0000
# 3 16.6237 35.7098 85.1924 0.0000 0.0000 0.0000
# 4 0.0000 0.0000 0.0000 -6.7786 0.0000 0.0000
# 5 0.0000 0.0000 0.0000 0.0000 18.7422 0.0000
# 6 0.0000 0.0000 0.0000 0.0000 0.0000 283.7826
#
#
#
# Elastic Compliance Matrix: (Units=1/GPa)
#
#
# Indices 1 2 3 4 5 6 
#
# 1 0.018912 0.000739 -0.004000 0.000000 0.000000 0.000000
# 2 0.000739 0.007821 -0.003422 0.000000 0.000000 0.000000
# 3 -0.004000 -0.003422 0.013953 0.000000 0.000000 0.000000
# 4 0.000000 0.000000 0.000000 -0.147524 0.000000 0.000000
# 5 0.000000 0.000000 0.000000 0.000000 0.053356 0.000000
# 6 0.000000 0.000000 0.000000 0.000000 0.000000 0.003524
#
#
# Mechanical properties :
#
#
# Convention : Reuss Voigt Hill
#
# Bulk Modulus (GPa) = 36.60414 43.70966 40.15690
# Shear Modulus (GPa) = -181.92238 74.51777 -53.70230
#
# Velocity S-wave (km/s) = -10.04429 6.42845 -5.45724
# Velocity P-wave (km/s) = 10.68727 8.90729 4.17600
#
# Compressibility (1/GPa) = 0.02731931
#
# Stress axis : x y z
#
# Youngs Moduli (GPa) = 52.87548 127.86416 71.66783
#
# Poissons Ratio (x) = -0.09450 0.28668
# Poissons Ratio (y) = -0.03908 0.24528
# Poissons Ratio (z) = 0.21151 0.43761
#
# Static dielectric constant tensor:
#      x y z
#    x 1.658280 0.000000 0.000000 
#    y 0.000000 1.660170 0.000000 
#    z 0.000000 0.000000 1.654100 
# 
# From -- ./inp_files/17399.got.cif
#   From: 2010.05.17/outbox.cif.g08.bks.cpg/sg42_9_cif.got.tgz:17399.got - 2010.06.03 19:03:34.
