data_PCOD9368805
_publ_section_title
;
Structure prediction by ZEFSAII (Michael W. Deem and Ramdas Pophale) SiO2 
 PCOD9368805
Probable space group: F M M 2
;
_chemical_formula_sum "Si O2"
_cell_formula_units_Z 96
_cell_length_a 9.083001
_cell_length_b 19.812128
_cell_length_c 31.859871
_cell_angle_alpha 90.000000
_cell_angle_beta 90.000000
_cell_angle_gamma 90.000000
_cell_volume 5733.297795
_symmetry_space_group_name_H-M "F M M 2"
_symmetry_group_IT_number 42
_symmetry_cell_setting 'orthorhombic'
loop_
_space_group_symop_operation_xyz
x,y,z
-x,-y,z
-x,y,z
x,-y,z
x,1/2+y,1/2+z
-x,1/2-y,1/2+z
-x,1/2+y,1/2+z
x,1/2-y,1/2+z
1/2+x,y,1/2+z
1/2-x,-y,1/2+z
1/2-x,y,1/2+z
1/2+x,-y,1/2+z
1/2+x,1/2+y,z
1/2-x,1/2-y,z
1/2-x,1/2+y,z
1/2+x,1/2-y,z
loop_
_atom_site_type_symbol
_atom_site_label
_atom_site_fract_x
_atom_site_fract_y
_atom_site_fract_z
Si Si1 0.320377 0.077518 0.042120
Si Si2 0.829530 0.417727 0.134897
Si Si3 0.325104 0.080318 0.305140
Si Si4 0.676759 0.322211 0.469002
Si Si5 0.323591 0.676893 0.372445
Si Si6 0.331764 0.417915 0.218913
O O1 0.500000 0.076751 0.042897
O O2 0.275257 0.102502 0.088534
O O3 0.272446 0.000000 0.036492
O O4 0.273396 0.124326 0.003819
O O5 0.828049 0.500000 0.134352
O O6 0.735845 0.394786 0.174704
O O7 0.000000 0.397505 0.140171
O O8 0.500000 0.090972 0.307364
O O9 0.242841 0.123051 0.340458
O O10 0.264703 0.100740 0.259262
O O11 0.296763 0.000000 0.310272
O O12 0.500000 0.315621 0.472165
O O13 0.750000 0.250000 0.476465
O O14 0.709323 0.342617 0.420915
O O15 0.500000 0.681659 0.367729
O O16 0.250000 0.750000 0.365255
O O17 0.500000 0.395727 0.224082
O O18 0.331345 0.500000 0.217522
#
# Coordination Sequence:
#
# PCOD9368805 Si02
#       6
#    16  16  16  16  16  16
#     4   8  14  26  46  71  95 121 157 197 233 272
#     4   8  13  23  41  64  90 120 154 192 233 277
#     4  10  20  33  50  73 100 128 160 200 245 290
#     4   9  18  32  50  70  93 124 159 194 233 281
#     4  10  20  34  52  72  96 128 165 202 242 291
#     4   9  16  26  42  66  96 126 156 192 235 284
#
# _framework density 16.744291
#
# number of rings (size 3 to 8) (size 9 to 14) (size 15 to 20)
#    0.000    3.000    0.000    2.500    0.000    4.333 
#    0.000    2.500    0.000    2.500    0.000    4.667 
#    0.000    0.000    0.000    0.000    0.000    0.000 
#
# Total GULP energy -133689.101659 kJ/mol
# GULP energy per Si atom -5570.379236 kJ/mol
# Density = 1.670618 g / cm^3
# Si number density = 16.744291 Si / 1000 Ang^3
#
#
#
# Elastic Constant Matrix: (Units=GPa)
#
#
# Indices 1 2 3 4 5 6 
#
# 1 64.0948 36.0720 66.2610 0.0000 0.0000 0.0000
# 2 36.0720 47.1953 76.2437 0.0000 0.0000 0.0000
# 3 66.2610 76.2437 172.0028 0.0000 0.0000 0.0000
# 4 0.0000 0.0000 0.0000 -9.4791 0.0000 0.0000
# 5 0.0000 0.0000 0.0000 0.0000 22.6017 0.0000
# 6 0.0000 0.0000 0.0000 0.0000 0.0000 20.1104
#
#
#
# Elastic Compliance Matrix: (Units=1/GPa)
#
#
# Indices 1 2 3 4 5 6 
#
# 1 0.028395 -0.014200 -0.004644 0.000000 0.000000 0.000000
# 2 -0.014200 0.081735 -0.030761 0.000000 0.000000 0.000000
# 3 -0.004644 -0.030761 0.021238 0.000000 0.000000 0.000000
# 4 0.000000 0.000000 0.000000 -0.105495 0.000000 0.000000
# 5 0.000000 0.000000 0.000000 0.000000 0.044245 0.000000
# 6 0.000000 0.000000 0.000000 0.000000 0.000000 0.049725
#
#
# Mechanical properties :
#
#
# Convention : Reuss Voigt Hill
#
# Bulk Modulus (GPa) = 31.09552 71.16071 51.12812
# Shear Modulus (GPa) = 21.76076 13.62767 17.69421
#
# Velocity S-wave (km/s) = 3.60890 2.85593 3.25427
# Velocity P-wave (km/s) = 5.99805 7.31204 6.68740
#
# Compressibility (1/GPa) = 0.03215897
#
# Stress axis : x y z
#
# Youngs Moduli (GPa) = 35.21807 12.23462 47.08492
#
# Poissons Ratio (x) = 0.17373 0.21867
# Poissons Ratio (y) = 0.50009 1.44836
# Poissons Ratio (z) = 0.16356 0.37634
#
# Static dielectric constant tensor:
#      x y z
#    x 1.559410 0.000000 0.000000 
#    y 0.000000 1.538670 0.000000 
#    z 0.000000 0.000000 1.575640 
# 
# From -- ./inp_files/28043.got.cif
#   From: 2010.05.17/outbox.cif.g08.bks.cpg/sg42_15_cif.got.tgz:28043.got - 2010.06.03 19:03:34.
