data_PCOD9368518
_publ_section_title
;
Structure prediction by ZEFSAII (Michael W. Deem and Ramdas Pophale) SiO2 
 PCOD9368518
Probable space group: F M M 2
;
_chemical_formula_sum "Si O2"
_cell_formula_units_Z 116
_cell_length_a 30.343794
_cell_length_b 7.726404
_cell_length_c 25.925610
_cell_angle_alpha 90.000000
_cell_angle_beta 90.000000
_cell_angle_gamma 90.000000
_cell_volume 6078.218077
_symmetry_space_group_name_H-M "F M M 2"
_symmetry_group_IT_number 42
_symmetry_cell_setting 'orthorhombic'
loop_
_space_group_symop_operation_xyz
x,y,z
-x,-y,z
-x,y,z
x,-y,z
x,1/2+y,1/2+z
-x,1/2-y,1/2+z
-x,1/2+y,1/2+z
x,1/2-y,1/2+z
1/2+x,y,1/2+z
1/2-x,-y,1/2+z
1/2-x,y,1/2+z
1/2+x,-y,1/2+z
1/2+x,1/2+y,z
1/2-x,1/2-y,z
1/2-x,1/2+y,z
1/2+x,1/2-y,z
loop_
_atom_site_type_symbol
_atom_site_label
_atom_site_fract_x
_atom_site_fract_y
_atom_site_fract_z
Si Si1 0.202490 0.292664 0.641600
Si Si2 0.603712 0.290918 0.007420
Si Si3 0.798298 0.792033 0.023662
Si Si4 0.948981 0.288678 0.610191
Si Si5 0.500000 0.000000 0.776835
Si Si6 0.616430 0.790022 0.700694
Si Si7 0.550949 0.794395 0.904809
Si Si8 0.069259 0.308485 0.294853
O O1 0.198323 0.500000 0.638073
O O2 0.250000 0.250000 0.664413
O O3 0.201761 0.225729 0.582833
O O4 0.161069 0.229465 0.673566
O O5 0.604311 0.500000 0.009795
O O6 0.654551 0.231361 0.001593
O O7 0.580005 0.232929 0.060620
O O8 0.574469 0.239030 0.958680
O O9 0.750000 0.750000 0.000836
O O10 0.800352 0.000000 0.024420
O O11 0.949644 0.500000 0.609530
O O12 0.924110 0.239292 0.662884
O O13 0.000000 0.231616 0.607623
O O14 0.462452 0.847443 0.778692
O O15 0.610619 0.715828 0.757495
O O16 0.616960 0.000000 0.702752
O O17 0.500000 0.732332 0.905253
O O18 0.575552 0.712024 0.856138
O O19 0.549086 0.000000 0.895440
O O20 0.051137 0.500000 0.285759
#
# Coordination Sequence:
#
# PCOD9368518 Si02
#       8
#    16  16  16  16   4  16  16  16
#     4   9  17  31  53  79 112 151 190 239 294 347
#     4  10  19  33  53  82 110 145 195 238 283 349
#     4   9  17  31  51  78 112 145 190 237 287 349
#     4   9  17  28  48  75 110 152 188 225 285 348
#     4  12  22  44  60  86 120 152 198 256 288 340
#     4  10  19  34  55  81 118 154 193 241 296 350
#     4  11  22  39  57  79 113 152 194 242 288 339
#     4  12  24  39  62  88 115 156 201 246 294 342
#
# _framework density 19.084540000000001
#
# number of rings (size 3 to 8) (size 9 to 14) (size 15 to 20)
#    0.000    1.931    3.448    1.034    0.966    2.483 
#    0.000    0.690    0.000    1.655    0.000    5.793 
#    0.000    0.000    0.000    0.000    0.000    0.000 
#
# Total GULP energy -161504.583049 kJ/mol
# GULP energy per Si atom -5569.123553 kJ/mol
# Density = 1.904110 g / cm^3
# Si number density = 19.084540 Si / 1000 Ang^3
#
#
#
# Elastic Constant Matrix: (Units=GPa)
#
#
# Indices 1 2 3 4 5 6 
#
# 1 113.1228 6.1630 50.2667 0.0000 0.0001 0.0004
# 2 6.1630 69.4150 2.9023 0.0000 0.0002 0.0006
# 3 50.2667 2.9023 101.6015 0.0000 0.0000 0.0001
# 4 0.0000 0.0000 0.0000 11.8126 0.0000 0.0002
# 5 0.0001 0.0002 0.0000 0.0000 39.1702 -0.0001
# 6 0.0004 0.0006 0.0001 0.0002 -0.0001 61.6602
#
#
#
# Elastic Compliance Matrix: (Units=1/GPa)
#
#
# Indices 1 2 3 4 5 6 
#
# 1 0.011373 -0.000775 -0.005604 0.000000 0.000000 0.000000
# 2 -0.000775 0.014476 -0.000030 0.000000 0.000000 0.000000
# 3 -0.005604 -0.000030 0.012616 0.000000 0.000000 0.000000
# 4 0.000000 0.000000 0.000000 0.084656 0.000000 0.000000
# 5 0.000000 0.000000 0.000000 0.000000 0.025530 0.000000
# 6 0.000000 0.000000 0.000000 0.000000 0.000000 0.016218
#
#
# Mechanical properties :
#
#
# Convention : Reuss Voigt Hill
#
# Bulk Modulus (GPa) = 38.99333 44.75591 41.87462
# Shear Modulus (GPa) = 26.84773 37.51575 32.18174
#
# Velocity S-wave (km/s) = 3.75477 4.43851 4.11088
# Velocity P-wave (km/s) = 6.26690 7.05475 6.67246
#
# Compressibility (1/GPa) = 0.02564541
#
# Stress axis : x y z
#
# Youngs Moduli (GPa) = 87.93135 69.07895 79.26483
#
# Poissons Ratio (x) = 0.05356 0.44423
# Poissons Ratio (y) = 0.06818 0.00237
# Poissons Ratio (z) = 0.49280 0.00207
#
# Static dielectric constant tensor:
#      x y z
#    x 1.676120 0.000000 0.000000 
#    y 0.000000 1.704920 0.000000 
#    z 0.000000 0.000000 1.667020 
# 
# From -- ./inp_files/31907.got.cif
#   From: 2010.05.17/outbox.cif.g08.bks.cpg/sg42_16_cif.got.tgz:31907.got - 2010.06.03 19:03:34.
