data_PCOD9368326
_publ_section_title
;
Structure prediction by ZEFSAII (Michael W. Deem and Ramdas Pophale) SiO2 
 PCOD9368326
Probable space group: F M M 2
;
_chemical_formula_sum "Si O2"
_cell_formula_units_Z 96
_cell_length_a 8.104205
_cell_length_b 26.360992
_cell_length_c 24.203729
_cell_angle_alpha 90.000000
_cell_angle_beta 90.000000
_cell_angle_gamma 90.000000
_cell_volume 5170.760817
_symmetry_space_group_name_H-M "F M M 2"
_symmetry_group_IT_number 42
_symmetry_cell_setting 'orthorhombic'
loop_
_space_group_symop_operation_xyz
x,y,z
-x,-y,z
-x,y,z
x,-y,z
x,1/2+y,1/2+z
-x,1/2-y,1/2+z
-x,1/2+y,1/2+z
x,1/2-y,1/2+z
1/2+x,y,1/2+z
1/2-x,-y,1/2+z
1/2-x,y,1/2+z
1/2+x,-y,1/2+z
1/2+x,1/2+y,z
1/2-x,1/2-y,z
1/2-x,1/2+y,z
1/2+x,1/2-y,z
loop_
_atom_site_type_symbol
_atom_site_label
_atom_site_fract_x
_atom_site_fract_y
_atom_site_fract_z
Si Si1 0.695594 0.900484 0.156410
Si Si2 0.197998 0.941904 0.040413
Si Si3 0.199842 0.500000 0.347185
Si Si4 0.693750 0.000000 0.721105
Si Si5 0.298333 0.596147 0.921915
Si Si6 0.199021 0.693370 0.355237
Si Si7 0.300657 0.193214 0.228528
O O1 0.500000 0.894882 0.151492
O O2 0.763014 0.911102 0.095517
O O3 0.731923 0.949764 0.193526
O O4 0.761258 0.850591 0.187733
O O5 0.000000 0.945128 0.035877
O O6 0.260603 0.000000 0.045211
O O7 0.258832 0.916156 0.983886
O O8 0.272996 0.500000 0.286228
O O9 0.247667 0.450232 0.381766
O O10 0.000000 0.500000 0.342151
O O11 0.500000 0.000000 0.709227
O O12 0.500000 0.597190 0.922947
O O13 0.241565 0.649092 0.895725
O O14 0.250000 0.750000 0.371723
O O15 0.256599 0.684692 0.291907
O O16 0.000000 0.691359 0.354367
O O17 0.500000 0.190862 0.229366
O O18 0.250000 0.250000 0.212230
#
# Coordination Sequence:
#
# PCOD9368326 Si02
#       7
#    16  16   8   8  16  16  16
#     4  11  22  37  56  79 107 143 184 224 270 323
#     4  10  19  34  55  80 107 141 184 224 267 317
#     4  10  18  33  56  79 103 134 172 218 269 324
#     4  12  24  35  50  79 113 142 174 220 275 326
#     4   9  17  32  56  80 104 138 178 216 262 323
#     4   9  17  32  53  77 104 136 174 215 261 315
#     4   9  19  35  56  81 107 138 178 221 269 323
#
# _framework density 18.565933999999999
#
# number of rings (size 3 to 8) (size 9 to 14) (size 15 to 20)
#    0.000    2.167    1.667    2.250    0.000    4.000 
#    0.000    6.667    0.000    4.000    0.000    0.000 
#    0.000    0.000    0.000    0.000    0.000    0.000 
#
# Total GULP energy -133967.398343 kJ/mol
# GULP energy per Si atom -5581.974931 kJ/mol
# Density = 1.852368 g / cm^3
# Si number density = 18.565934 Si / 1000 Ang^3
#
#
#
# Elastic Constant Matrix: (Units=GPa)
#
#
# Indices 1 2 3 4 5 6 
#
# 1 7.5524 3.9702 2.0178 0.0000 0.0000 0.0000
# 2 3.9702 168.6326 97.9927 0.0000 0.0000 0.0000
# 3 2.0178 97.9927 144.1959 0.0000 0.0000 0.0000
# 4 0.0000 0.0000 0.0000 22.4158 0.0000 0.0000
# 5 0.0000 0.0000 0.0000 0.0000 21.7492 0.0000
# 6 0.0000 0.0000 0.0000 0.0000 0.0000 22.0945
#
#
#
# Elastic Compliance Matrix: (Units=1/GPa)
#
#
# Indices 1 2 3 4 5 6 
#
# 1 0.134085 -0.003415 0.000445 0.000000 0.000000 0.000000
# 2 -0.003415 0.009887 -0.006671 0.000000 0.000000 0.000000
# 3 0.000445 -0.006671 0.011462 0.000000 0.000000 0.000000
# 4 0.000000 0.000000 0.000000 0.044611 0.000000 0.000000
# 5 0.000000 0.000000 0.000000 0.000000 0.045979 0.000000
# 6 0.000000 0.000000 0.000000 0.000000 0.000000 0.045260
#
#
# Mechanical properties :
#
#
# Convention : Reuss Voigt Hill
#
# Bulk Modulus (GPa) = 7.34479 58.70470 33.02475
# Shear Modulus (GPa) = 14.04682 27.67859 20.86270
#
# Velocity S-wave (km/s) = 2.75360 3.86531 3.35581
# Velocity P-wave (km/s) = 3.75159 7.18394 5.73077
#
# Compressibility (1/GPa) = 0.13615085
#
# Stress axis : x y z
#
# Youngs Moduli (GPa) = 7.45795 101.14104 87.24102
#
# Poissons Ratio (x) = 0.34541 -0.03878
# Poissons Ratio (y) = 0.02547 0.58201
# Poissons Ratio (z) = -0.00332 0.67475
#
# Static dielectric constant tensor:
#      x y z
#    x 1.663490 0.000000 0.000000 
#    y 0.000000 1.625000 0.000000 
#    z 0.000000 0.000000 1.624170 
# 
# From -- ./inp_files/28097.got.cif
#   From: 2010.05.17/outbox.cif.g08.bks.cpg/sg42_15_cif.got.tgz:28097.got - 2010.06.03 19:03:34.
