data_PCOD9368123
_publ_section_title
;
Structure prediction by ZEFSAII (Michael W. Deem and Ramdas Pophale) SiO2 
 PCOD9368123
Probable space group: F M M 2
;
_chemical_formula_sum "Si O2"
_cell_formula_units_Z 96
_cell_length_a 15.513144
_cell_length_b 16.324886
_cell_length_c 17.717778
_cell_angle_alpha 90.000000
_cell_angle_beta 90.000000
_cell_angle_gamma 90.000000
_cell_volume 4487.032723
_symmetry_space_group_name_H-M "F M M 2"
_symmetry_group_IT_number 42
_symmetry_cell_setting 'orthorhombic'
loop_
_space_group_symop_operation_xyz
x,y,z
-x,-y,z
-x,y,z
x,-y,z
x,1/2+y,1/2+z
-x,1/2-y,1/2+z
-x,1/2+y,1/2+z
x,1/2-y,1/2+z
1/2+x,y,1/2+z
1/2-x,-y,1/2+z
1/2-x,y,1/2+z
1/2+x,-y,1/2+z
1/2+x,1/2+y,z
1/2-x,1/2-y,z
1/2-x,1/2+y,z
1/2+x,1/2-y,z
loop_
_atom_site_type_symbol
_atom_site_label
_atom_site_fract_x
_atom_site_fract_y
_atom_site_fract_z
Si Si1 0.836637 0.410981 0.591340
Si Si2 0.144213 0.242207 0.551605
Si Si3 0.727699 0.411143 0.917139
Si Si4 0.147366 0.094146 0.656378
Si Si5 0.093771 0.332695 0.900934
Si Si6 0.162871 0.209641 0.790033
O O1 0.879618 0.500000 0.603129
O O2 0.884298 0.323883 0.596217
O O3 0.804774 0.409609 0.503328
O O4 0.751566 0.409460 0.643819
O O5 0.250000 0.250000 0.548066
O O6 0.119137 0.157524 0.591777
O O7 0.105763 0.233111 0.468599
O O8 0.705453 0.500000 0.885202
O O9 0.829771 0.396253 0.914892
O O10 0.691684 0.341068 0.863722
O O11 0.126166 0.143415 0.732418
O O12 0.116901 0.000000 0.652792
O O13 0.106757 0.283815 0.822539
O O14 0.000000 0.369997 0.904395
O O15 0.250000 0.250000 0.755929
#
# Coordination Sequence:
#
# PCOD9368123 Si02
#       6
#    16  16  16  16  16  16
#     4   9  16  28  53  82 104 134 176 229 280 321
#     4  10  16  33  54  77 107 143 182 230 275 321
#     4  10  18  32  55  79 106 140 184 234 280 326
#     4  10  19  30  54  86 110 135 180 237 287 331
#     4  11  21  33  51  76 111 152 189 221 270 338
#     4  10  19  34  53  78 105 145 184 228 282 328
#
# _framework density 21.394984999999998
#
# number of rings (size 3 to 8) (size 9 to 14) (size 15 to 20)
#    0.000    2.000    5.000    2.500    0.000    0.333 
#    0.000    0.833    0.000    5.500    0.000    0.000 
#    0.000    5.333    0.000    0.000    0.000    0.000 
#
# Total GULP energy -133747.951489 kJ/mol
# GULP energy per Si atom -5572.831312 kJ/mol
# Density = 2.134629 g / cm^3
# Si number density = 21.394985 Si / 1000 Ang^3
#
#
#
# Elastic Constant Matrix: (Units=GPa)
#
#
# Indices 1 2 3 4 5 6 
#
# 1 27.9656 -13.2595 4.3598 0.0000 0.0000 0.0000
# 2 -13.2595 143.4968 8.8113 0.0000 0.0000 0.0000
# 3 4.3598 8.8113 58.9167 0.0000 0.0000 0.0000
# 4 0.0000 0.0000 0.0000 28.0979 0.0000 0.0000
# 5 0.0000 0.0000 0.0000 0.0000 -0.4193 0.0000
# 6 0.0000 0.0000 0.0000 0.0000 0.0000 1.1537
#
#
#
# Elastic Compliance Matrix: (Units=1/GPa)
#
#
# Indices 1 2 3 4 5 6 
#
# 1 0.038049 0.003723 -0.003372 0.000000 0.000000 0.000000
# 2 0.003723 0.007398 -0.001382 0.000000 0.000000 0.000000
# 3 -0.003372 -0.001382 0.017429 0.000000 0.000000 0.000000
# 4 0.000000 0.000000 0.000000 0.035590 0.000000 0.000000
# 5 0.000000 0.000000 0.000000 0.000000 -2.384927 0.000000
# 6 0.000000 0.000000 0.000000 0.000000 0.000000 0.866795
#
#
# Mechanical properties :
#
#
# Convention : Reuss Voigt Hill
#
# Bulk Modulus (GPa) = 16.44372 25.57804 21.01088
# Shear Modulus (GPa) = -3.57825 21.13094 8.77635
#
# Velocity S-wave (km/s) = -1.29464 3.14611 2.02755
# Velocity P-wave (km/s) = 2.33830 5.01782 3.91447
#
# Compressibility (1/GPa) = 0.06081348
#
# Stress axis : x y z
#
# Youngs Moduli (GPa) = 26.28181 135.17801 57.37449
#
# Poissons Ratio (x) = -0.50326 0.19349
# Poissons Ratio (y) = -0.09784 0.07928
# Poissons Ratio (z) = 0.08863 0.18680
#
# Static dielectric constant tensor:
#      x y z
#    x 1.786170 0.000000 0.000000 
#    y 0.000000 1.843180 0.000000 
#    z 0.000000 0.000000 1.796890 
# 
# From -- ./inp_files/20817.got.cif
#   From: 2010.05.17/outbox.cif.g08.bks.cpg/sg42_11_cif.got.tgz:20817.got - 2010.06.03 19:03:34.
