data_PCOD9368251
_publ_section_title
;
Structure prediction by ZEFSAII (Michael W. Deem and Ramdas Pophale) SiO2 
 PCOD9368251
Probable space group: F M M 2
;
_chemical_formula_sum "Si O2"
_cell_formula_units_Z 80
_cell_length_a 20.199124
_cell_length_b 19.196662
_cell_length_c 12.839420
_cell_angle_alpha 90.000000
_cell_angle_beta 90.000000
_cell_angle_gamma 90.000000
_cell_volume 4978.559010
_symmetry_space_group_name_H-M "F M M 2"
_symmetry_group_IT_number 42
_symmetry_cell_setting 'orthorhombic'
loop_
_space_group_symop_operation_xyz
x,y,z
-x,-y,z
-x,y,z
x,-y,z
x,1/2+y,1/2+z
-x,1/2-y,1/2+z
-x,1/2+y,1/2+z
x,1/2-y,1/2+z
1/2+x,y,1/2+z
1/2-x,-y,1/2+z
1/2-x,y,1/2+z
1/2+x,-y,1/2+z
1/2+x,1/2+y,z
1/2-x,1/2-y,z
1/2-x,1/2+y,z
1/2+x,1/2-y,z
loop_
_atom_site_type_symbol
_atom_site_label
_atom_site_fract_x
_atom_site_fract_y
_atom_site_fract_z
Si Si1 0.834884 0.319972 0.191280
Si Si2 0.338678 0.082670 0.538872
Si Si3 0.577839 0.082606 0.336594
Si Si4 0.214168 0.826220 0.467491
Si Si5 0.678781 0.336563 0.242085
O O1 0.881146 0.372628 0.253329
O O2 0.834107 0.323280 0.066448
O O3 0.758170 0.334340 0.221241
O O4 0.848746 0.240702 0.223089
O O5 0.394954 0.097522 0.452961
O O6 0.273199 0.120741 0.494952
O O7 0.350660 0.112845 0.654531
O O8 0.328863 0.000000 0.544533
O O9 0.500000 0.097004 0.329660
O O10 0.588608 0.000000 0.318128
O O11 0.250000 0.750000 0.453290
O O12 0.175819 0.850188 0.364619
#
# Coordination Sequence:
#
# PCOD9368251 Si02
#       5
#    16  16  16  16  16
#     4  10  18  30  54  78 104 140 179 215 270 322
#     4  10  20  32  50  78 108 140 181 218 264 321
#     4  10  21  38  57  76 106 146 187 227 261 312
#     4  11  17  31  52  80 107 141 167 219 282 320
#     4  10  18  30  53  79 111 137 167 222 275 321
#
# _framework density 16.068906999999999
#
# number of rings (size 3 to 8) (size 9 to 14) (size 15 to 20)
#    0.000    1.800    8.000    0.000    0.000    4.000 
#    0.000    1.000    0.000    1.200    0.000    2.800 
#    0.000    0.000    0.000    0.000    0.000    0.000 
#
# Total GULP energy -111434.364865 kJ/mol
# GULP energy per Si atom -5571.718243 kJ/mol
# Density = 1.603233 g / cm^3
# Si number density = 16.068907 Si / 1000 Ang^3
#
#
#
# Elastic Constant Matrix: (Units=GPa)
#
#
# Indices 1 2 3 4 5 6 
#
# 1 50.8956 42.0247 37.6022 0.0000 0.0000 0.0000
# 2 42.0247 76.4801 48.1907 0.0000 0.0000 0.0000
# 3 37.6022 48.1907 159.9837 0.0000 0.0000 0.0000
# 4 0.0000 0.0000 0.0000 29.3432 0.0000 0.0000
# 5 0.0000 0.0000 0.0000 0.0000 13.2356 0.0000
# 6 0.0000 0.0000 0.0000 0.0000 0.0000 18.7883
#
#
#
# Elastic Compliance Matrix: (Units=1/GPa)
#
#
# Indices 1 2 3 4 5 6 
#
# 1 0.037245 -0.018452 -0.003196 0.000000 0.000000 0.000000
# 2 -0.018452 0.025280 -0.003278 0.000000 0.000000 0.000000
# 3 -0.003196 -0.003278 0.007989 0.000000 0.000000 0.000000
# 4 0.000000 0.000000 0.000000 0.034079 0.000000 0.000000
# 5 0.000000 0.000000 0.000000 0.000000 0.075554 0.000000
# 6 0.000000 0.000000 0.000000 0.000000 0.000000 0.053225
#
#
# Mechanical properties :
#
#
# Convention : Reuss Voigt Hill
#
# Bulk Modulus (GPa) = 48.39656 60.33271 54.36464
# Shear Modulus (GPa) = 17.23482 22.90954 20.07218
#
# Velocity S-wave (km/s) = 3.27854 3.77995 3.53814
# Velocity P-wave (km/s) = 6.67198 7.52851 7.11315
#
# Compressibility (1/GPa) = 0.02066262
#
# Stress axis : x y z
#
# Youngs Moduli (GPa) = 26.84927 39.55737 125.16927
#
# Poissons Ratio (x) = 0.72990 0.40002
# Poissons Ratio (y) = 0.49542 0.41030
# Poissons Ratio (z) = 0.08581 0.12967
#
# Static dielectric constant tensor:
#      x y z
#    x 1.502560 0.000000 0.000000 
#    y 0.000000 1.537590 0.000000 
#    z 0.000000 0.000000 1.586960 
# 
# From -- ./inp_files/15894.got.cif
#   From: 2010.05.17/outbox.cif.g08.bks.cpg/sg42_8_cif.got.tgz:15894.got - 2010.06.03 19:03:34.
