data_PCOD9368617
_publ_section_title
;
Structure prediction by ZEFSAII (Michael W. Deem and Ramdas Pophale) SiO2 
 PCOD9368617
Probable space group: F M M 2
;
_chemical_formula_sum "Si O2"
_cell_formula_units_Z 80
_cell_length_a 10.978672
_cell_length_b 26.554102
_cell_length_c 13.224606
_cell_angle_alpha 90.000000
_cell_angle_beta 90.000000
_cell_angle_gamma 90.000000
_cell_volume 3855.353202
_symmetry_space_group_name_H-M "F M M 2"
_symmetry_group_IT_number 42
_symmetry_cell_setting 'orthorhombic'
loop_
_space_group_symop_operation_xyz
x,y,z
-x,-y,z
-x,y,z
x,-y,z
x,1/2+y,1/2+z
-x,1/2-y,1/2+z
-x,1/2+y,1/2+z
x,1/2-y,1/2+z
1/2+x,y,1/2+z
1/2-x,-y,1/2+z
1/2-x,y,1/2+z
1/2+x,-y,1/2+z
1/2+x,1/2+y,z
1/2-x,1/2-y,z
1/2-x,1/2+y,z
1/2+x,1/2-y,z
loop_
_atom_site_type_symbol
_atom_site_label
_atom_site_fract_x
_atom_site_fract_y
_atom_site_fract_z
Si Si1 0.360543 0.149841 0.474210
Si Si2 0.641075 0.443181 0.128388
Si Si3 0.776758 0.129408 0.750446
Si Si4 0.130981 0.726274 0.758342
Si Si5 0.868805 0.803496 0.577151
O O1 0.500000 0.168733 0.488639
O O2 0.347494 0.099143 0.541422
O O3 0.339711 0.135210 0.357822
O O4 0.249075 0.186168 0.508200
O O5 0.500000 0.442140 0.161274
O O6 0.668940 0.500000 0.094819
O O7 0.728646 0.424698 0.218118
O O8 0.660094 0.167614 0.748352
O O9 0.860035 0.152729 0.662434
O O10 0.250000 0.750000 0.810185
O O11 0.129129 0.753982 0.648909
O O12 0.000000 0.736605 0.804798
O O13 0.000000 0.806638 0.524172
#
# Coordination Sequence:
#
# PCOD9368617 Si02
#       5
#    16  16  16  16  16
#     4  10  21  37  60  88 117 150 192 237 285 340
#     4   9  19  36  57  83 116 151 187 234 292 348
#     4  10  19  34  58  83 113 150 194 239 282 334
#     4   9  18  33  54  80 110 147 185 226 273 324
#     4   9  19  36  56  80 115 151 186 230 281 336
#
# _framework density 20.750368999999999
#
# number of rings (size 3 to 8) (size 9 to 14) (size 15 to 20)
#    0.000    2.600    0.000    1.200    0.000    8.000 
#    0.000   15.000    0.000   21.600    0.000    0.000 
#    0.000    0.000    0.000    0.000    0.000    0.000 
#
# Total GULP energy -111504.844812 kJ/mol
# GULP energy per Si atom -5575.242241 kJ/mol
# Density = 2.070314 g / cm^3
# Si number density = 20.750369 Si / 1000 Ang^3
#
#
#
# Elastic Constant Matrix: (Units=GPa)
#
#
# Indices 1 2 3 4 5 6 
#
# 1 176.2076 29.0701 45.5475 0.0000 0.0000 0.0000
# 2 29.0701 78.5885 18.7342 0.0000 0.0000 0.0000
# 3 45.5475 18.7342 97.2272 0.0000 0.0000 0.0000
# 4 0.0000 0.0000 0.0000 18.8957 0.0000 0.0000
# 5 0.0000 0.0000 0.0000 0.0000 7.1945 0.0000
# 6 0.0000 0.0000 0.0000 0.0000 0.0000 -6.2851
#
#
#
# Elastic Compliance Matrix: (Units=1/GPa)
#
#
# Indices 1 2 3 4 5 6 
#
# 1 0.006694 -0.001812 -0.002787 0.000000 0.000000 0.000000
# 2 -0.001812 0.013828 -0.001816 0.000000 0.000000 0.000000
# 3 -0.002787 -0.001816 0.011941 0.000000 0.000000 0.000000
# 4 0.000000 0.000000 0.000000 0.052922 0.000000 0.000000
# 5 0.000000 0.000000 0.000000 0.000000 0.138995 0.000000
# 6 0.000000 0.000000 0.000000 0.000000 0.000000 -0.159107
#
#
# Mechanical properties :
#
#
# Convention : Reuss Voigt Hill
#
# Bulk Modulus (GPa) = 50.93275 59.85853 55.39564
# Shear Modulus (GPa) = 59.06912 21.20578 40.13745
#
# Velocity S-wave (km/s) = 5.34119 3.20026 4.40284
# Velocity P-wave (km/s) = 7.91432 6.52420 7.25264
#
# Compressibility (1/GPa) = 0.01963373
#
# Stress axis : x y z
#
# Youngs Moduli (GPa) = 149.37750 72.31943 83.74779
#
# Poissons Ratio (x) = 0.13104 0.23340
# Poissons Ratio (y) = 0.27066 0.15205
# Poissons Ratio (z) = 0.41631 0.13130
#
# Static dielectric constant tensor:
#      x y z
#    x 1.817420 0.000000 0.000000 
#    y 0.000000 1.758530 0.000000 
#    z 0.000000 0.000000 1.765010 
# 
# From -- ./inp_files/13011.got.cif
#   From: 2010.05.17/outbox.cif.g08.bks.cpg/sg42_7_cif.got.tgz:13011.got - 2010.06.03 19:03:34.
