data_PCOD9368156
_publ_section_title
;
Structure prediction by ZEFSAII (Michael W. Deem and Ramdas Pophale) SiO2 
 PCOD9368156
Probable space group: F M M 2
;
_chemical_formula_sum "Si O2"
_cell_formula_units_Z 96
_cell_length_a 20.316098
_cell_length_b 27.440117
_cell_length_c 8.359513
_cell_angle_alpha 90.000000
_cell_angle_beta 90.000000
_cell_angle_gamma 90.000000
_cell_volume 4660.228756
_symmetry_space_group_name_H-M "F M M 2"
_symmetry_group_IT_number 42
_symmetry_cell_setting 'orthorhombic'
loop_
_space_group_symop_operation_xyz
x,y,z
-x,-y,z
-x,y,z
x,-y,z
x,1/2+y,1/2+z
-x,1/2-y,1/2+z
-x,1/2+y,1/2+z
x,1/2-y,1/2+z
1/2+x,y,1/2+z
1/2-x,-y,1/2+z
1/2-x,y,1/2+z
1/2+x,-y,1/2+z
1/2+x,1/2+y,z
1/2-x,1/2-y,z
1/2-x,1/2+y,z
1/2+x,1/2-y,z
loop_
_atom_site_type_symbol
_atom_site_label
_atom_site_fract_x
_atom_site_fract_y
_atom_site_fract_z
Si Si1 0.074080 0.634806 0.359690
Si Si2 0.807609 0.890314 0.629105
Si Si3 0.797686 0.553505 0.814866
Si Si4 0.373476 0.816908 0.923961
Si Si5 0.074755 0.260836 0.226495
Si Si6 0.573894 0.595270 0.217718
O O1 0.129407 0.612197 0.245300
O O2 0.079387 0.693191 0.346165
O O3 0.080749 0.618651 0.542156
O O4 0.000000 0.621979 0.304442
O O5 0.807600 0.933413 0.499889
O O6 0.744876 0.902971 0.736748
O O7 0.812668 0.840612 0.522748
O O8 0.767562 0.500000 0.795701
O O9 0.869135 0.556041 0.735912
O O10 0.371276 0.779151 0.776683
O O11 0.411256 0.863512 0.851530
O O12 0.413328 0.786208 0.056023
O O13 0.000000 0.240397 0.231774
O O14 0.500000 0.576933 0.236485
#
# Coordination Sequence:
#
# PCOD9368156 Si02
#       6
#    16  16  16  16  16  16
#     4   9  19  35  58  88 123 161 198 245 298 354
#     4  10  22  39  61  87 118 154 203 255 309 370
#     4  11  23  40  64  86 110 153 205 258 316 384
#     4  10  20  32  54  87 123 164 202 246 292 348
#     4  10  17  28  50  82 119 159 204 240 278 342
#     4  10  20  36  59  89 124 157 195 248 311 369
#
# _framework density 20.599848999999999
#
# number of rings (size 3 to 8) (size 9 to 14) (size 15 to 20)
#    0.000    2.000    0.000    4.000    0.000    6.333 
#    0.000    0.833    0.000   60.500    0.000    0.000 
#    0.000    0.000    0.000    0.000    0.000    0.000 
#
# Total GULP energy -133787.942690 kJ/mol
# GULP energy per Si atom -5574.497612 kJ/mol
# Density = 2.055296 g / cm^3
# Si number density = 20.599849 Si / 1000 Ang^3
#
#
#
# Elastic Constant Matrix: (Units=GPa)
#
#
# Indices 1 2 3 4 5 6 
#
# 1 91.7928 37.4831 39.3837 -0.0001 0.0001 0.0000
# 2 37.4831 71.0621 31.3095 0.0000 -0.0001 0.0000
# 3 39.3837 31.3095 79.3403 -0.0001 0.0001 0.0000
# 4 -0.0001 0.0000 -0.0001 23.1073 0.0000 0.0001
# 5 0.0001 -0.0001 0.0001 0.0000 30.9609 0.0000
# 6 0.0000 0.0000 0.0000 0.0001 0.0000 17.2839
#
#
#
# Elastic Compliance Matrix: (Units=1/GPa)
#
#
# Indices 1 2 3 4 5 6 
#
# 1 0.015615 -0.005836 -0.005448 0.000000 0.000000 0.000000
# 2 -0.005836 0.019215 -0.004686 0.000000 0.000000 0.000000
# 3 -0.005448 -0.004686 0.017157 0.000000 0.000000 0.000000
# 4 0.000000 0.000000 0.000000 0.043276 0.000000 0.000000
# 5 0.000000 0.000000 0.000000 0.000000 0.032299 0.000000
# 6 0.000000 0.000000 0.000000 0.000000 0.000000 0.057857
#
#
# Mechanical properties :
#
#
# Convention : Reuss Voigt Hill
#
# Bulk Modulus (GPa) = 49.88109 50.94974 50.41542
# Shear Modulus (GPa) = 22.31730 23.20499 22.76114
#
# Velocity S-wave (km/s) = 3.29503 3.35992 3.32764
# Velocity P-wave (km/s) = 6.22440 6.31181 6.26826
#
# Compressibility (1/GPa) = 0.02004768
#
# Stress axis : x y z
#
# Youngs Moduli (GPa) = 64.04257 52.04267 58.28399
#
# Poissons Ratio (x) = 0.30372 0.31753
# Poissons Ratio (y) = 0.37375 0.27311
# Poissons Ratio (z) = 0.34890 0.24386
#
# Static dielectric constant tensor:
#      x y z
#    x 1.748270 0.000000 0.000000 
#    y 0.000000 1.738770 0.000000 
#    z 0.000000 0.000000 1.781070 
# 
# From -- ./inp_files/4186.got.cif
#   From: 2010.05.17/outbox.cif.g08.bks.cpg/sg42_3_cif.got.tgz:4186.got - 2010.06.03 19:03:34.
