data_PCOD9368591
_publ_section_title
;
Structure prediction by ZEFSAII (Michael W. Deem and Ramdas Pophale) SiO2 
 PCOD9368591
Probable space group: F M M 2
;
_chemical_formula_sum "Si O2"
_cell_formula_units_Z 104
_cell_length_a 28.235041
_cell_length_b 7.567507
_cell_length_c 30.093353
_cell_angle_alpha 90.000000
_cell_angle_beta 90.000000
_cell_angle_gamma 90.000000
_cell_volume 6430.012742
_symmetry_space_group_name_H-M "F M M 2"
_symmetry_group_IT_number 42
_symmetry_cell_setting 'orthorhombic'
loop_
_space_group_symop_operation_xyz
x,y,z
-x,-y,z
-x,y,z
x,-y,z
x,1/2+y,1/2+z
-x,1/2-y,1/2+z
-x,1/2+y,1/2+z
x,1/2-y,1/2+z
1/2+x,y,1/2+z
1/2-x,-y,1/2+z
1/2-x,y,1/2+z
1/2+x,-y,1/2+z
1/2+x,1/2+y,z
1/2-x,1/2-y,z
1/2-x,1/2+y,z
1/2+x,1/2-y,z
loop_
_atom_site_type_symbol
_atom_site_label
_atom_site_fract_x
_atom_site_fract_y
_atom_site_fract_z
Si Si1 0.196774 0.710997 0.878770
Si Si2 0.902776 0.205823 0.511082
Si Si3 0.698723 0.209845 0.981814
Si Si4 0.054610 0.285963 0.605106
Si Si5 0.120831 0.000000 0.859992
Si Si6 0.557141 0.000000 0.273176
Si Si7 0.444782 0.500000 0.948120
Si Si8 0.057566 0.202255 0.203040
O O1 0.188064 0.500000 0.876409
O O2 0.250000 0.750000 0.861513
O O3 0.197624 0.771647 0.930669
O O4 0.155446 0.829408 0.858017
O O5 0.848552 0.270620 0.505961
O O6 0.918127 0.221401 0.562050
O O7 0.933714 0.330364 0.479202
O O8 0.906416 0.000000 0.497429
O O9 0.750000 0.250000 0.001705
O O10 0.695881 0.000000 0.979814
O O11 0.054773 0.500000 0.604675
O O12 0.073060 0.234170 0.653961
O O13 0.000000 0.227847 0.601028
O O14 0.084562 0.000000 0.819229
O O15 0.090374 0.000000 0.905784
O O16 0.570158 0.830911 0.242961
O O17 0.500000 0.000000 0.279649
O O18 0.500000 0.500000 0.934919
O O19 0.000000 0.200637 0.200595
O O20 0.072990 0.000000 0.210016
#
# Coordination Sequence:
#
# PCOD9368591 Si02
#       8
#    16  16  16  16   8   8   8  16
#     4  10  19  34  56  81 106 134 173 227 277 311
#     4  11  22  34  49  77 109 144 184 220 261 316
#     4   9  19  31  50  74 101 135 175 222 268 305
#     4   9  17  30  50  76 104 138 177 219 269 316
#     4  12  23  36  56  80 109 146 182 223 260 319
#     4  10  21  36  54  78 106 143 185 218 262 320
#     4  12  25  38  50  70 113 161 186 209 250 311
#     4   8  16  32  52  74 102 133 174 230 275 307
#
# _framework density 16.174150999999998
#
# number of rings (size 3 to 8) (size 9 to 14) (size 15 to 20)
#    0.000    2.154    3.077    1.615    3.231    1.846 
#    0.000    0.000    0.000    2.769    0.000    1.077 
#    0.000    0.000    0.000    0.000    0.000    0.000 
#
# Total GULP energy -144904.269000 kJ/mol
# GULP energy per Si atom -5573.241115 kJ/mol
# Density = 1.613734 g / cm^3
# Si number density = 16.174151 Si / 1000 Ang^3
#
#
#
# Elastic Constant Matrix: (Units=GPa)
#
#
# Indices 1 2 3 4 5 6 
#
# 1 91.0232 33.2264 40.7476 0.0001 -0.0001 -0.0001
# 2 33.2264 91.8907 40.2377 0.0003 0.0001 -0.0001
# 3 40.7476 40.2377 98.7482 0.0001 0.0000 0.0000
# 4 0.0001 0.0003 0.0001 13.0579 0.0001 -0.0003
# 5 -0.0001 0.0001 0.0000 0.0001 8.1981 0.0000
# 6 -0.0001 -0.0001 0.0000 -0.0003 0.0000 21.8376
#
#
#
# Elastic Compliance Matrix: (Units=1/GPa)
#
#
# Indices 1 2 3 4 5 6 
#
# 1 0.014175 -0.003121 -0.004577 0.000000 0.000000 0.000000
# 2 -0.003121 0.013933 -0.004390 0.000000 0.000000 0.000000
# 3 -0.004577 -0.004390 0.013804 0.000000 0.000000 0.000000
# 4 0.000000 0.000000 0.000000 0.076582 -0.000001 0.000001
# 5 0.000000 0.000000 0.000000 -0.000001 0.121979 0.000000
# 6 0.000000 0.000000 0.000000 0.000001 0.000000 0.045792
#
#
# Mechanical properties :
#
#
# Convention : Reuss Voigt Hill
#
# Bulk Modulus (GPa) = 56.38193 56.67615 56.52904
# Shear Modulus (GPa) = 15.80512 19.78210 17.79361
#
# Velocity S-wave (km/s) = 3.12939 3.50103 3.32041
# Velocity P-wave (km/s) = 6.92765 7.17358 7.05169
#
# Compressibility (1/GPa) = 0.01773618
#
# Stress axis : x y z
#
# Youngs Moduli (GPa) = 70.54901 71.77132 72.44170
#
# Poissons Ratio (x) = 0.22400 0.33158
# Poissons Ratio (y) = 0.22018 0.31799
# Poissons Ratio (z) = 0.32292 0.31505
#
# Static dielectric constant tensor:
#      x y z
#    x 1.552770 0.000000 0.000000 
#    y 0.000000 1.586610 0.000000 
#    z 0.000000 0.000000 1.528690 
# 
# From -- ./inp_files/34784.got.cif
#   From: 2010.05.17/outbox.cif.g08.bks.cpg/sg42_18_cif.got.tgz:34784.got - 2010.06.03 19:03:34.
