data_PCOD9368082
_publ_section_title
;
Structure prediction by ZEFSAII (Michael W. Deem and Ramdas Pophale) SiO2 
 PCOD9368082
Probable space group: A B A 2
;
_chemical_formula_sum "Si O2"
_cell_formula_units_Z 30
_cell_length_a 27.000000
_cell_length_b 9.000000
_cell_length_c 12.000000
_cell_angle_alpha 90.000000
_cell_angle_beta 90.000000
_cell_angle_gamma 90.000000
_cell_volume 2916.000000
_symmetry_space_group_name_H-M "A B A 2"
_symmetry_group_IT_number 41
_symmetry_cell_setting 'orthorhombic'
loop_
_space_group_symop_operation_xyz
x,y,z
-x,-y,z
1/2-x,y,1/2+z
1/2+x,-y,1/2+z
x,1/2+y,1/2+z
-x,1/2-y,1/2+z
1/2-x,1/2+y,z
1/2+x,1/2-y,z
loop_
_atom_site_type_symbol
_atom_site_label
_atom_site_fract_x
_atom_site_fract_y
_atom_site_fract_z
Si Si1 0.153833 0.117698 0.240380
Si Si2 0.825695 0.813299 0.868159
Si Si3 0.328982 0.836737 0.438492
Si Si4 0.000000 0.500000 0.919368
Si Si5 0.835962 0.622350 0.087306
Si Si6 0.226257 0.363484 0.666434
Si Si7 0.411327 0.160422 0.052502
Si Si8 0.080045 0.338388 0.777330
O O1 0.176385 0.209929 0.344125
O O2 0.136151 0.246042 0.155265
O O3 0.197380 0.017711 0.188690
O O4 0.111439 0.994440 0.265668
O O5 0.792300 0.749842 0.764534
O O6 0.882681 0.774813 0.839061
O O7 0.821763 0.990372 0.898208
O O8 0.818393 0.700302 0.972157
O O9 0.294084 0.810659 0.545919
O O10 0.383785 0.790033 0.481607
O O11 0.969208 0.616218 0.843097
O O12 0.958101 0.415555 0.992211
O O13 0.784421 0.601887 0.154749
O O14 0.870350 0.474700 0.073726
O O15 0.427939 0.250491 0.162236
#
# Coordination Sequence:
#
# PCOD9368082 Si02
#       8
#     8   8   8   4   8   8   8   8
#     4  11  24  45  74 103 149 199 244 307 373 439
#     4  11  23  51  74 104 154 197 249 310 369 450
#     4  12  24  48  77 105 154 198 244 308 371 451
#     4  12  26  50  80 108 150 198 248 324 390 440
#     4  12  26  46  78 107 156 202 252 308 381 450
#     4  11  27  46  70 112 151 200 252 300 374 444
#     4  12  25  50  79 110 151 196 251 319 379 455
#     4  11  24  51  75 105 146 188 251 312 379 445
#
# _framework density 10.288066000000001
#
# number of rings (size 3 to 8) (size 9 to 14) (size 15 to 20)
#    0.000    0.533    6.667    1.600    3.733    1.067 
#    7.200    0.000    0.000    0.000    0.000    0.000 
#    0.000    0.000    0.000    0.000    0.000    0.000 
#
# Total GULP energy -167620.794102 kJ/mol
# GULP energy per Si atom -5587.359803 kJ/mol
# Density = 1.026465 g / cm^3
# Si number density = 10.288066 Si / 1000 Ang^3
#
#
#
# Elastic Constant Matrix: (Units=GPa)
#
#
# Indices 1 2 3 4 5 6 
#
# 1 137.8790 43.3414 48.6326 0.0000 0.0000 0.0000
# 2 43.3414 148.3424 59.9206 0.0000 0.0000 0.0000
# 3 48.6326 59.9206 143.3282 0.0000 0.0000 0.0000
# 4 0.0000 0.0000 0.0000 57.5012 0.0000 0.0000
# 5 0.0000 0.0000 0.0000 0.0000 38.6105 0.0000
# 6 0.0000 0.0000 0.0000 0.0000 0.0000 27.1025
#
#
#
# Elastic Compliance Matrix: (Units=1/GPa)
#
#
# Indices 1 2 3 4 5 6 
#
# 1 0.008541 -0.001594 -0.002232 0.000000 0.000000 0.000000
# 2 -0.001594 0.008408 -0.002974 0.000000 0.000000 0.000000
# 3 -0.002232 -0.002974 0.008978 0.000000 0.000000 0.000000
# 4 0.000000 0.000000 0.000000 0.017391 0.000000 0.000000
# 5 0.000000 0.000000 0.000000 0.000000 0.025900 0.000000
# 6 0.000000 0.000000 0.000000 0.000000 0.000000 0.036897
#
#
# Mechanical properties :
#
#
# Convention : Reuss Voigt Hill
#
# Bulk Modulus (GPa) = 81.12293 81.48209 81.30251
# Shear Modulus (GPa) = 40.38004 43.15317 41.76661
#
# Velocity S-wave (km/s) = 4.43478 4.58454 4.51028
# Velocity P-wave (km/s) = 8.10768 8.22862 8.16837
#
# Compressibility (1/GPa) = 0.01232697
#
# Stress axis : x y z
#
# Youngs Moduli (GPa) = 117.08323 118.92963 111.38714
#
# Poissons Ratio (x) = 0.18957 0.24858
# Poissons Ratio (y) = 0.18663 0.33131
# Poissons Ratio (z) = 0.26129 0.35374
#
# Static dielectric constant tensor:
#      x y z
#    x 1.740120 0.000000 0.000000 
#    y 0.000000 1.713390 0.000000 
#    z 0.000000 0.000000 1.866050 
# 
# From -- ./inp_files/6583.got.cif
#   From: 2010.05.17/outbox.ucp.g08.bks.cvg/sg41_4_cif.got.tgz:6583.got - 2010.06.11 16:28:22.
