data_PCOD9368371
_publ_section_title
;
Structure prediction by ZEFSAII (Michael W. Deem and Ramdas Pophale) SiO2 
 PCOD9368371
Probable space group: F M M 2
;
_chemical_formula_sum "Si O2"
_cell_formula_units_Z 96
_cell_length_a 19.153875
_cell_length_b 23.233426
_cell_length_c 11.481274
_cell_angle_alpha 90.000000
_cell_angle_beta 90.000000
_cell_angle_gamma 90.000000
_cell_volume 5109.283321
_symmetry_space_group_name_H-M "F M M 2"
_symmetry_group_IT_number 42
_symmetry_cell_setting 'orthorhombic'
loop_
_space_group_symop_operation_xyz
x,y,z
-x,-y,z
-x,y,z
x,-y,z
x,1/2+y,1/2+z
-x,1/2-y,1/2+z
-x,1/2+y,1/2+z
x,1/2-y,1/2+z
1/2+x,y,1/2+z
1/2-x,-y,1/2+z
1/2-x,y,1/2+z
1/2+x,-y,1/2+z
1/2+x,1/2+y,z
1/2-x,1/2-y,z
1/2-x,1/2+y,z
1/2+x,1/2-y,z
loop_
_atom_site_type_symbol
_atom_site_label
_atom_site_fract_x
_atom_site_fract_y
_atom_site_fract_z
Si Si1 0.372912 0.933959 0.128410
Si Si2 0.285833 0.435454 0.035056
Si Si3 0.681418 0.352407 0.821256
Si Si4 0.920025 0.847739 0.445346
Si Si5 0.168289 0.347613 0.712318
Si Si6 0.166616 0.760854 0.007625
O O1 0.293770 0.936045 0.078840
O O2 0.368291 0.889757 0.237240
O O3 0.393099 0.000000 0.156969
O O4 0.416001 0.904533 0.025017
O O5 0.307970 0.500000 0.008020
O O6 0.328733 0.406504 0.139117
O O7 0.292968 0.395251 0.923294
O O8 0.752139 0.334909 0.753677
O O9 0.650798 0.297605 0.890089
O O10 0.881667 0.854170 0.321830
O O11 0.874916 0.798293 0.508385
O O12 0.000000 0.830282 0.430520
O O13 0.148347 0.298332 0.620674
O O14 0.250000 0.750000 0.006655
#
# Coordination Sequence:
#
# PCOD9368371 Si02
#       6
#    16  16  16  16  16  16
#     4  10  21  37  58  87 122 158 198 243 300 360
#     4   9  17  32  60  92 119 146 190 251 297 342
#     4  10  18  35  61  92 120 150 193 251 305 349
#     4  12  26  41  58  85 121 163 204 247 304 372
#     4  10  21  36  55  87 119 154 198 244 302 358
#     4  11  22  37  62  88 119 156 203 253 306 358
#
# _framework density 18.789328000000001
#
# number of rings (size 3 to 8) (size 9 to 14) (size 15 to 20)
#    0.000    1.667    3.333    2.500    4.667    2.333 
#    0.000    0.000    0.000    1.000    0.000    0.000 
#    0.000    0.000    0.000    0.000    0.000    0.000 
#
# Total GULP energy -133996.255625 kJ/mol
# GULP energy per Si atom -5583.177318 kJ/mol
# Density = 1.874656 g / cm^3
# Si number density = 18.789328 Si / 1000 Ang^3
#
#
#
# Elastic Constant Matrix: (Units=GPa)
#
#
# Indices 1 2 3 4 5 6 
#
# 1 57.8306 18.4091 12.8593 0.0000 0.0000 0.0000
# 2 18.4091 78.8151 19.1892 0.0000 0.0000 0.0000
# 3 12.8593 19.1892 81.6246 0.0000 0.0000 0.0000
# 4 0.0000 0.0000 0.0000 24.2623 0.0000 0.0000
# 5 0.0000 0.0000 0.0000 0.0000 0.9402 0.0000
# 6 0.0000 0.0000 0.0000 0.0000 0.0000 8.4677
#
#
#
# Elastic Compliance Matrix: (Units=1/GPa)
#
#
# Indices 1 2 3 4 5 6 
#
# 1 0.019005 -0.003935 -0.002069 0.000000 0.000000 0.000000
# 2 -0.003935 0.014273 -0.002736 0.000000 0.000000 0.000000
# 3 -0.002069 -0.002736 0.013220 0.000000 0.000000 0.000000
# 4 0.000000 0.000000 0.000000 0.041216 0.000000 0.000000
# 5 0.000000 0.000000 0.000000 0.000000 1.063633 0.000000
# 6 0.000000 0.000000 0.000000 0.000000 0.000000 0.118096
#
#
# Mechanical properties :
#
#
# Convention : Reuss Voigt Hill
#
# Bulk Modulus (GPa) = 34.46057 35.46505 34.96281
# Shear Modulus (GPa) = 3.85625 17.92153 10.88889
#
# Velocity S-wave (km/s) = 1.43416 3.09174 2.40995
# Velocity P-wave (km/s) = 4.59595 5.62683 5.13731
#
# Compressibility (1/GPa) = 0.02901867
#
# Stress axis : x y z
#
# Youngs Moduli (GPa) = 52.61875 70.06182 75.64158
#
# Poissons Ratio (x) = 0.27571 0.15649
# Poissons Ratio (y) = 0.20707 0.20692
# Poissons Ratio (z) = 0.10886 0.19165
#
# Static dielectric constant tensor:
#      x y z
#    x 1.618020 0.000000 0.000000 
#    y 0.000000 1.678050 0.000000 
#    z 0.000000 0.000000 1.674710 
# 
# From -- ./inp_files/8809.got.cif
#   From: 2010.05.17/outbox.cif.g08.bks.cpg/sg42_5_cif.got.tgz:8809.got - 2010.06.03 19:03:34.
