data_PCOD9368886
_publ_section_title
;
Structure prediction by ZEFSAII (Michael W. Deem and Ramdas Pophale) SiO2 
 PCOD9368886
Probable space group: F M M 2
;
_chemical_formula_sum "Si O2"
_cell_formula_units_Z 96
_cell_length_a 12.099503
_cell_length_b 16.847311
_cell_length_c 26.373571
_cell_angle_alpha 90.000000
_cell_angle_beta 90.000000
_cell_angle_gamma 90.000000
_cell_volume 5376.096580
_symmetry_space_group_name_H-M "F M M 2"
_symmetry_group_IT_number 42
_symmetry_cell_setting 'orthorhombic'
loop_
_space_group_symop_operation_xyz
x,y,z
-x,-y,z
-x,y,z
x,-y,z
x,1/2+y,1/2+z
-x,1/2-y,1/2+z
-x,1/2+y,1/2+z
x,1/2-y,1/2+z
1/2+x,y,1/2+z
1/2-x,-y,1/2+z
1/2-x,y,1/2+z
1/2+x,-y,1/2+z
1/2+x,1/2+y,z
1/2-x,1/2-y,z
1/2-x,1/2+y,z
1/2+x,1/2-y,z
loop_
_atom_site_type_symbol
_atom_site_label
_atom_site_fract_x
_atom_site_fract_y
_atom_site_fract_z
Si Si1 0.871154 0.903217 0.836150
Si Si2 0.000000 0.404458 0.060222
Si Si3 0.500000 0.096170 0.177997
Si Si4 0.368060 0.405955 0.949864
Si Si5 0.259797 0.157170 0.046185
Si Si6 0.375028 0.404357 0.142219
Si Si7 0.724998 0.096945 0.232738
O O1 0.839227 0.877955 0.892913
O O2 0.789897 0.877467 0.791010
O O3 0.000000 0.880772 0.826191
O O4 0.871605 0.000000 0.836551
O O5 0.114105 0.370493 0.038954
O O6 0.000000 0.500000 0.056069
O O7 0.000000 0.381557 0.119558
O O8 0.611344 0.121801 0.205441
O O9 0.500000 0.000000 0.180102
O O10 0.500000 0.396811 0.955180
O O11 0.343853 0.500000 0.953110
O O12 0.306972 0.364110 0.995624
O O13 0.250000 0.250000 0.055507
O O14 0.204596 0.116065 0.095335
O O15 0.500000 0.374539 0.134103
O O16 0.379431 0.500000 0.144429
O O17 0.323480 0.376318 0.195837
O O18 0.728720 0.000000 0.233195
#
# Coordination Sequence:
#
# PCOD9368886 Si02
#       7
#    16   8   8  16  16  16  16
#     4   8  13  23  46  79 106 131 170 222 268 307
#     4  11  22  38  58  81 107 147 193 227 275 341
#     4   9  14  24  46  75 104 129 163 215 270 311
#     4   9  18  34  56  79 105 139 179 223 272 324
#     4  12  25  36  54  78 110 143 181 234 281 324
#     4  10  20  34  54  78 108 146 179 212 268 336
#     4   9  14  24  46  78 108 131 165 220 270 313
#
# _framework density 17.856822000000001
#
# number of rings (size 3 to 8) (size 9 to 14) (size 15 to 20)
#    0.000    2.333    2.500    3.000    2.333    1.333 
#    0.000    0.000    1.833    1.000    0.000    2.333 
#    0.000    0.000    0.000    0.000    0.000    0.000 
#
# Total GULP energy -133765.042145 kJ/mol
# GULP energy per Si atom -5573.543423 kJ/mol
# Density = 1.781618 g / cm^3
# Si number density = 17.856822 Si / 1000 Ang^3
#
#
#
# Elastic Constant Matrix: (Units=GPa)
#
#
# Indices 1 2 3 4 5 6 
#
# 1 63.0413 13.7946 25.3376 0.0000 0.0000 0.0000
# 2 13.7946 19.3910 8.9834 0.0000 0.0000 0.0000
# 3 25.3376 8.9834 108.9372 0.0000 0.0000 0.0000
# 4 0.0000 0.0000 0.0000 -3.5005 0.0000 0.0000
# 5 0.0000 0.0000 0.0000 0.0000 26.6250 0.0000
# 6 0.0000 0.0000 0.0000 0.0000 0.0000 4.6373
#
#
#
# Elastic Compliance Matrix: (Units=1/GPa)
#
#
# Indices 1 2 3 4 5 6 
#
# 1 0.020080 -0.012602 -0.003631 0.000000 0.000000 0.000000
# 2 -0.012602 0.061528 -0.002143 0.000000 0.000000 0.000000
# 3 -0.003631 -0.002143 0.010201 0.000000 0.000000 0.000000
# 4 0.000000 0.000000 0.000000 -0.285670 0.000000 0.000000
# 5 0.000000 0.000000 0.000000 0.000000 0.037559 0.000000
# 6 0.000000 0.000000 0.000000 0.000000 0.000000 0.215642
#
#
# Mechanical properties :
#
#
# Convention : Reuss Voigt Hill
#
# Bulk Modulus (GPa) = 18.16319 31.95563 25.05941
# Shear Modulus (GPa) = 43.68969 15.10262 29.39615
#
# Velocity S-wave (km/s) = 4.95175 2.91135 4.06176
# Velocity P-wave (km/s) = 6.54879 5.40700 6.00509
#
# Compressibility (1/GPa) = 0.05505642
#
# Stress axis : x y z
#
# Youngs Moduli (GPa) = 49.80177 16.25277 98.03111
#
# Poissons Ratio (x) = 0.20482 0.35596
# Poissons Ratio (y) = 0.62761 0.21005
# Poissons Ratio (z) = 0.18083 0.03483
#
# Static dielectric constant tensor:
#      x y z
#    x 1.610360 0.000000 0.000000 
#    y 0.000000 1.595580 0.000000 
#    z 0.000000 0.000000 1.623660 
# 
# From -- ./inp_files/29873.got.cif
#   From: 2010.05.17/outbox.cif.g08.bks.cpg/sg42_15_cif.got.tgz:29873.got - 2010.06.03 19:03:34.
