data_PCOD9368754
_publ_section_title
;
Structure prediction by ZEFSAII (Michael W. Deem and Ramdas Pophale) SiO2 
 PCOD9368754
Probable space group: F M M 2
;
_chemical_formula_sum "Si O2"
_cell_formula_units_Z 96
_cell_length_a 15.011761
_cell_length_b 18.647857
_cell_length_c 17.800351
_cell_angle_alpha 90.000000
_cell_angle_beta 90.000000
_cell_angle_gamma 90.000000
_cell_volume 4982.979927
_symmetry_space_group_name_H-M "F M M 2"
_symmetry_group_IT_number 42
_symmetry_cell_setting 'orthorhombic'
loop_
_space_group_symop_operation_xyz
x,y,z
-x,-y,z
-x,y,z
x,-y,z
x,1/2+y,1/2+z
-x,1/2-y,1/2+z
-x,1/2+y,1/2+z
x,1/2-y,1/2+z
1/2+x,y,1/2+z
1/2-x,-y,1/2+z
1/2-x,y,1/2+z
1/2+x,-y,1/2+z
1/2+x,1/2+y,z
1/2-x,1/2-y,z
1/2-x,1/2+y,z
1/2+x,1/2-y,z
loop_
_atom_site_type_symbol
_atom_site_label
_atom_site_fract_x
_atom_site_fract_y
_atom_site_fract_z
Si Si1 0.000000 0.915864 0.919471
Si Si2 0.153733 0.850875 0.020588
Si Si3 0.000000 0.210499 0.799863
Si Si4 0.000000 0.850564 0.409423
Si Si5 0.327291 0.811540 0.196619
Si Si6 0.000000 0.418577 0.761761
Si Si7 0.178599 0.085809 0.187361
Si Si8 0.855663 0.315176 0.024360
O O1 0.087906 0.896252 0.968682
O O2 0.000000 0.862113 0.849059
O O3 0.000000 0.000000 0.900875
O O4 0.161649 0.886958 0.102461
O O5 0.119248 0.769170 0.022315
O O6 0.256109 0.836029 0.998561
O O7 0.000000 0.278359 0.857162
O O8 0.090115 0.209548 0.749177
O O9 0.082103 0.852834 0.465289
O O10 0.000000 0.913916 0.350319
O O11 0.250000 0.750000 0.188592
O O12 0.267816 0.879387 0.221152
O O13 0.361844 0.830960 0.113050
O O14 0.908336 0.386781 0.731623
O O15 0.000000 0.500000 0.733810
O O16 0.184742 0.000000 0.189067
#
# Coordination Sequence:
#
# PCOD9368754 Si02
#       8
#     8  16   8   8  16   8  16  16
#     4  12  25  40  57  90 133 166 200 247 305 369
#     4  10  19  38  61  92 120 156 201 254 303 352
#     4  12  27  37  59  89 121 168 202 240 308 369
#     4  12  23  39  61  89 123 160 200 248 304 367
#     4  11  22  42  63  89 118 155 207 255 300 354
#     4  10  23  40  59  92 127 160 198 249 305 357
#     4  10  20  38  65  91 120 157 202 250 300 355
#     4  10  20  39  65  90 119 150 204 260 299 349
#
# _framework density 19.265581000000001
#
# number of rings (size 3 to 8) (size 9 to 14) (size 15 to 20)
#    0.000    1.333    5.000    2.500    0.000    4.000 
#    0.000    5.833    0.000    1.000    0.000    0.000 
#    0.000    0.000    0.000    0.000    0.000    0.000 
#
# Total GULP energy -133805.143876 kJ/mol
# GULP energy per Si atom -5575.214328 kJ/mol
# Density = 1.922173 g / cm^3
# Si number density = 19.265581 Si / 1000 Ang^3
#
#
#
# Elastic Constant Matrix: (Units=GPa)
#
#
# Indices 1 2 3 4 5 6 
#
# 1 112.4983 22.9855 59.7756 0.0000 0.0000 0.0000
# 2 22.9855 69.3075 5.3781 0.0000 0.0000 0.0000
# 3 59.7756 5.3781 71.4501 0.0000 0.0000 0.0000
# 4 0.0000 0.0000 0.0000 26.4905 0.0000 0.0000
# 5 0.0000 0.0000 0.0000 0.0000 49.9061 0.0000
# 6 0.0000 0.0000 0.0000 0.0000 0.0000 104.8676
#
#
#
# Elastic Compliance Matrix: (Units=1/GPa)
#
#
# Indices 1 2 3 4 5 6 
#
# 1 0.017382 -0.004664 -0.014191 0.000000 0.000000 0.000000
# 2 -0.004664 0.015764 0.002715 0.000000 0.000000 0.000000
# 3 -0.014191 0.002715 0.025664 0.000000 0.000000 0.000000
# 4 0.000000 0.000000 0.000000 0.037749 0.000000 0.000000
# 5 0.000000 0.000000 0.000000 0.000000 0.020038 0.000000
# 6 0.000000 0.000000 0.000000 0.000000 0.000000 0.009536
#
#
# Mechanical properties :
#
#
# Convention : Reuss Voigt Hill
#
# Bulk Modulus (GPa) = 37.69162 47.72603 42.70882
# Shear Modulus (GPa) = 29.89427 47.26065 38.57746
#
# Velocity S-wave (km/s) = 3.94343 4.95826 4.47968
# Velocity P-wave (km/s) = 6.35145 7.58984 6.99809
#
# Compressibility (1/GPa) = 0.02653110
#
# Stress axis : x y z
#
# Youngs Moduli (GPa) = 57.53001 63.43404 38.96549
#
# Poissons Ratio (x) = 0.29583 0.55296
# Poissons Ratio (y) = 0.26829 -0.10579
# Poissons Ratio (z) = 0.81641 -0.17222
#
# Static dielectric constant tensor:
#      x y z
#    x 1.715380 0.000000 0.000000 
#    y 0.000000 1.704430 0.000000 
#    z 0.000000 0.000000 1.659870 
# 
# From -- ./inp_files/14077.got.cif
#   From: 2010.05.17/outbox.cif.g08.bks.cpg/sg42_8_cif.got.tgz:14077.got - 2010.06.03 19:03:34.
