data_PCOD9368476
_publ_section_title
;
Structure prediction by ZEFSAII (Michael W. Deem and Ramdas Pophale) SiO2 
 PCOD9368476
Probable space group: F M M 2
;
_chemical_formula_sum "Si O2"
_cell_formula_units_Z 116
_cell_length_a 7.772731
_cell_length_b 30.386093
_cell_length_c 25.827494
_cell_angle_alpha 90.000000
_cell_angle_beta 90.000000
_cell_angle_gamma 90.000000
_cell_volume 6100.013131
_symmetry_space_group_name_H-M "F M M 2"
_symmetry_group_IT_number 42
_symmetry_cell_setting 'orthorhombic'
loop_
_space_group_symop_operation_xyz
x,y,z
-x,-y,z
-x,y,z
x,-y,z
x,1/2+y,1/2+z
-x,1/2-y,1/2+z
-x,1/2+y,1/2+z
x,1/2-y,1/2+z
1/2+x,y,1/2+z
1/2-x,-y,1/2+z
1/2-x,y,1/2+z
1/2+x,-y,1/2+z
1/2+x,1/2+y,z
1/2-x,1/2-y,z
1/2-x,1/2+y,z
1/2+x,1/2-y,z
loop_
_atom_site_type_symbol
_atom_site_label
_atom_site_fract_x
_atom_site_fract_y
_atom_site_fract_z
Si Si1 0.293649 0.949760 0.125000
Si Si2 0.208633 0.882715 0.537165
Si Si3 0.500000 0.500000 0.464305
Si Si4 0.192786 0.569064 0.443922
Si Si5 0.291415 0.896436 0.729266
Si Si6 0.294645 0.202699 0.100000
Si Si7 0.208974 0.448506 0.831469
Si Si8 0.195272 0.799121 0.218766
O O1 0.500000 0.952758 0.120103
O O2 0.233893 0.923106 0.074374
O O3 0.257711 0.920809 0.176005
O O4 0.227164 0.000000 0.128788
O O5 0.283696 0.888792 0.480348
O O6 0.261053 0.837923 0.565263
O O7 0.000000 0.882915 0.535155
O O8 0.347665 0.537532 0.461696
O O9 0.219855 0.574675 0.382615
O O10 0.000000 0.551730 0.451947
O O11 0.500000 0.895075 0.729356
O O12 0.237053 0.925442 0.778440
O O13 0.222514 0.846292 0.733480
O O14 0.500000 0.199800 0.108499
O O15 0.250000 0.250000 0.076651
O O16 0.208305 0.200795 0.156332
O O17 0.259612 0.500000 0.832998
O O18 0.000000 0.447829 0.834518
O O19 0.250000 0.750000 0.235387
O O20 0.000000 0.802435 0.236002
#
# Coordination Sequence:
#
# PCOD9368476 Si02
#       8
#    16  16   4  16  16  16  16  16
#     4  10  21  34  51  75 113 156 186 221 281 344
#     4  10  21  37  56  80 118 157 189 239 300 347
#     4  12  22  44  60  82 128 148 194 264 284 340
#     4  12  24  38  63  89 112 158 203 243 297 342
#     4  10  21  35  55  80 111 150 188 234 290 339
#     4  10  19  33  56  81 111 151 188 235 297 345
#     4  10  19  37  58  78 112 151 189 244 293 338
#     4  10  19  32  52  80 111 145 190 237 285 346
#
# _framework density 19.016352999999999
#
# number of rings (size 3 to 8) (size 9 to 14) (size 15 to 20)
#    0.000    1.655    3.448    2.276    0.966    3.586 
#    0.000    0.000    0.000    0.828    0.000    1.931 
#    0.000    0.000    0.000    0.000    0.000    0.000 
#
# Total GULP energy -161519.166556 kJ/mol
# GULP energy per Si atom -5569.626433 kJ/mol
# Density = 1.897307 g / cm^3
# Si number density = 19.016353 Si / 1000 Ang^3
#
#
#
# Elastic Constant Matrix: (Units=GPa)
#
#
# Indices 1 2 3 4 5 6 
#
# 1 61.4268 5.8598 -2.5371 0.0000 0.0000 0.0000
# 2 5.8598 109.3221 48.2234 0.0000 0.0000 0.0000
# 3 -2.5371 48.2234 97.1278 0.0000 0.0000 0.0000
# 4 0.0000 0.0000 0.0000 44.2841 0.0000 0.0000
# 5 0.0000 0.0000 0.0000 0.0000 0.9889 0.0000
# 6 0.0000 0.0000 0.0000 0.0000 0.0000 74.3970
#
#
#
# Elastic Compliance Matrix: (Units=1/GPa)
#
#
# Indices 1 2 3 4 5 6 
#
# 1 0.016456 -0.001372 0.001111 0.000000 0.000000 0.000000
# 2 -0.001372 0.011827 -0.005908 0.000000 0.000000 0.000000
# 3 0.001111 -0.005908 0.013258 0.000000 0.000000 0.000000
# 4 0.000000 0.000000 0.000000 0.022581 0.000000 0.000000
# 5 0.000000 0.000000 0.000000 0.000000 1.011189 0.000000
# 6 0.000000 0.000000 0.000000 0.000000 0.000000 0.013441
#
#
# Mechanical properties :
#
#
# Convention : Reuss Voigt Hill
#
# Bulk Modulus (GPa) = 34.24261 41.21876 37.73068
# Shear Modulus (GPa) = 4.50116 38.35605 21.42861
#
# Velocity S-wave (km/s) = 1.54017 4.49598 3.36050
# Velocity P-wave (km/s) = 4.60531 6.97669 5.91114
#
# Compressibility (1/GPa) = 0.02920338
#
# Stress axis : x y z
#
# Youngs Moduli (GPa) = 60.76685 84.55347 75.42657
#
# Poissons Ratio (x) = 0.11603 -0.08381
# Poissons Ratio (y) = 0.08339 0.44560
# Poissons Ratio (z) = -0.06752 0.49952
#
# Static dielectric constant tensor:
#      x y z
#    x 1.697920 0.000000 0.000000 
#    y 0.000000 1.692350 0.000000 
#    z 0.000000 0.000000 1.645490 
# 
# From -- ./inp_files/31991.got.cif
#   From: 2010.05.17/outbox.cif.g08.bks.cpg/sg42_16_cif.got.tgz:31991.got - 2010.06.03 19:03:34.
