data_PCOD9368709
_publ_section_title
;
Structure prediction by ZEFSAII (Michael W. Deem and Ramdas Pophale) SiO2 
 PCOD9368709
Probable space group: F M M 2
;
_chemical_formula_sum "Si O2"
_cell_formula_units_Z 80
_cell_length_a 19.036485
_cell_length_b 22.089932
_cell_length_c 9.624847
_cell_angle_alpha 90.000000
_cell_angle_beta 90.000000
_cell_angle_gamma 90.000000
_cell_volume 4047.389256
_symmetry_space_group_name_H-M "F M M 2"
_symmetry_group_IT_number 42
_symmetry_cell_setting 'orthorhombic'
loop_
_space_group_symop_operation_xyz
x,y,z
-x,-y,z
-x,y,z
x,-y,z
x,1/2+y,1/2+z
-x,1/2-y,1/2+z
-x,1/2+y,1/2+z
x,1/2-y,1/2+z
1/2+x,y,1/2+z
1/2-x,-y,1/2+z
1/2-x,y,1/2+z
1/2+x,-y,1/2+z
1/2+x,1/2+y,z
1/2-x,1/2-y,z
1/2-x,1/2+y,z
1/2+x,1/2-y,z
loop_
_atom_site_type_symbol
_atom_site_label
_atom_site_fract_x
_atom_site_fract_y
_atom_site_fract_z
Si Si1 0.420499 0.121647 0.673220
Si Si2 0.896974 0.067425 0.767354
Si Si3 0.000000 0.672025 0.306038
Si Si4 0.500000 0.231879 0.588226
Si Si5 0.363993 0.929137 0.953861
Si Si6 0.792293 0.930215 0.991054
O O1 0.500000 0.095882 0.640111
O O2 0.433794 0.192667 0.644505
O O3 0.402596 0.106317 0.832083
O O4 0.354692 0.097880 0.583552
O O5 0.901980 0.070872 0.602084
O O6 0.819507 0.070329 0.831884
O O7 0.936194 0.125757 0.824853
O O8 0.922363 0.000000 0.810340
O O9 0.000000 0.703005 0.156222
O O10 0.000000 0.723711 0.422960
O O11 0.285912 0.904279 0.987150
O O12 0.357613 0.000000 0.909759
O O13 0.785762 0.000000 0.037602
#
# Coordination Sequence:
#
# PCOD9368709 Si02
#       6
#    16  16   8   8  16  16
#     4  10  21  39  57  92 119 162 215 260 301 366
#     4  10  21  36  61  91 123 159 198 254 314 367
#     4  12  23  44  61  89 120 159 210 261 307 381
#     4  10  26  40  65  85 115 165 210 257 323 353
#     4  10  21  34  57  93 130 167 200 249 320 375
#     4  10  19  36  59  87 127 168 204 250 313 379
#
# _framework density 19.765830000000001
#
# number of rings (size 3 to 8) (size 9 to 14) (size 15 to 20)
#    0.600    1.200    2.000    2.100    4.200    4.800 
#    0.000    0.000    0.000    7.200    0.000    0.000 
#    0.000    0.000    0.000    0.000    0.000    0.000 
#
# Total GULP energy -111380.631788 kJ/mol
# GULP energy per Si atom -5569.031589 kJ/mol
# Density = 1.972084 g / cm^3
# Si number density = 19.765830 Si / 1000 Ang^3
#
#
#
# Elastic Constant Matrix: (Units=GPa)
#
#
# Indices 1 2 3 4 5 6 
#
# 1 73.0759 11.3402 0.8085 0.0000 0.0000 0.0000
# 2 11.3402 50.8709 6.4150 0.0000 0.0000 0.0000
# 3 0.8085 6.4150 77.7273 0.0000 0.0000 0.0000
# 4 0.0000 0.0000 0.0000 34.3316 0.0000 0.0000
# 5 0.0000 0.0000 0.0000 0.0000 25.7115 0.0000
# 6 0.0000 0.0000 0.0000 0.0000 0.0000 11.0855
#
#
#
# Elastic Compliance Matrix: (Units=1/GPa)
#
#
# Indices 1 2 3 4 5 6 
#
# 1 0.014176 -0.003175 0.000115 0.000000 0.000000 0.000000
# 2 -0.003175 0.020575 -0.001665 0.000000 0.000000 0.000000
# 3 0.000115 -0.001665 0.013002 0.000000 0.000000 0.000000
# 4 0.000000 0.000000 0.000000 0.029128 0.000000 0.000000
# 5 0.000000 0.000000 0.000000 0.000000 0.038893 0.000000
# 6 0.000000 0.000000 0.000000 0.000000 0.000000 0.090208
#
#
# Mechanical properties :
#
#
# Convention : Reuss Voigt Hill
#
# Bulk Modulus (GPa) = 26.10788 26.53349 26.32069
# Shear Modulus (GPa) = 21.91066 26.43306 24.17186
#
# Velocity S-wave (km/s) = 3.33304 3.66089 3.50081
# Velocity P-wave (km/s) = 5.29618 5.59666 5.44849
#
# Compressibility (1/GPa) = 0.03830261
#
# Stress axis : x y z
#
# Youngs Moduli (GPa) = 70.54292 48.60205 76.91283
#
# Poissons Ratio (x) = 0.15429 -0.00881
# Poissons Ratio (y) = 0.22394 0.12807
# Poissons Ratio (z) = -0.00808 0.08093
#
# Static dielectric constant tensor:
#      x y z
#    x 1.746520 0.000000 0.000000 
#    y 0.000000 1.676430 0.000000 
#    z 0.000000 0.000000 1.746630 
# 
# From -- ./inp_files/3983.got.cif
#   From: 2010.05.17/outbox.cif.g08.bks.cpg/sg42_2_cif.got.tgz:3983.got - 2010.06.03 19:03:34.
