data_PCOD9368809
_publ_section_title
;
Structure prediction by ZEFSAII (Michael W. Deem and Ramdas Pophale) SiO2 
 PCOD9368809
Probable space group: F M M 2
;
_chemical_formula_sum "Si O2"
_cell_formula_units_Z 96
_cell_length_a 32.063055
_cell_length_b 9.085119
_cell_length_c 18.708160
_cell_angle_alpha 90.000000
_cell_angle_beta 90.000000
_cell_angle_gamma 90.000000
_cell_volume 5449.624713
_symmetry_space_group_name_H-M "F M M 2"
_symmetry_group_IT_number 42
_symmetry_cell_setting 'orthorhombic'
loop_
_space_group_symop_operation_xyz
x,y,z
-x,-y,z
-x,y,z
x,-y,z
x,1/2+y,1/2+z
-x,1/2-y,1/2+z
-x,1/2+y,1/2+z
x,1/2-y,1/2+z
1/2+x,y,1/2+z
1/2-x,-y,1/2+z
1/2-x,y,1/2+z
1/2+x,-y,1/2+z
1/2+x,1/2+y,z
1/2-x,1/2-y,z
1/2-x,1/2+y,z
1/2+x,1/2-y,z
loop_
_atom_site_type_symbol
_atom_site_label
_atom_site_fract_x
_atom_site_fract_y
_atom_site_fract_z
Si Si1 0.621390 0.824158 0.320050
Si Si2 0.708786 0.168449 0.987864
Si Si3 0.292540 0.328956 0.313536
Si Si4 0.547844 0.671857 0.064199
Si Si5 0.547814 0.172977 0.735574
Si Si6 0.118167 0.676887 0.975124
O O1 0.665255 0.755821 0.292803
O O2 0.582667 0.771018 0.272596
O O3 0.614400 0.756254 0.398853
O O4 0.624370 0.000000 0.323241
O O5 0.750000 0.250000 0.013137
O O6 0.708481 0.173655 0.900783
O O7 0.662914 0.224300 0.008361
O O8 0.712111 0.000000 0.010029
O O9 0.293913 0.500000 0.292089
O O10 0.250000 0.250000 0.289209
O O11 0.500000 0.704528 0.043704
O O12 0.556098 0.500000 0.046665
O O13 0.550753 0.686448 0.149825
O O14 0.580388 0.774711 0.024655
O O15 0.500000 0.210647 0.756091
O O16 0.554473 0.000000 0.753481
O O17 0.119643 0.500000 0.964842
#
# Coordination Sequence:
#
# PCOD9368809 Si02
#       6
#    16  16  16  16  16  16
#     4  11  21  32  50  77 106 135 170 212 254 296
#     4   8  15  26  42  66  95 127 161 196 236 285
#     4   9  16  28  46  70 101 134 168 205 249 299
#     4   9  19  36  56  76  98 128 167 208 253 308
#     4   9  19  37  57  74  97 131 168 208 258 312
#     4  10  20  33  50  75 105 134 166 207 253 299
#
# _framework density 17.615891999999999
#
# number of rings (size 3 to 8) (size 9 to 14) (size 15 to 20)
#    0.000    2.667    0.000    4.500    0.000    6.667 
#    0.000    1.667    0.000    1.000    0.000    2.333 
#    0.000    0.000    0.000    0.000    0.000    0.000 
#
# Total GULP energy -133781.533727 kJ/mol
# GULP energy per Si atom -5574.230572 kJ/mol
# Density = 1.757580 g / cm^3
# Si number density = 17.615892 Si / 1000 Ang^3
#
#
#
# Elastic Constant Matrix: (Units=GPa)
#
#
# Indices 1 2 3 4 5 6 
#
# 1 158.3873 93.0325 37.7647 0.0000 0.0000 0.0000
# 2 93.0325 117.0547 29.0916 0.0000 0.0000 0.0000
# 3 37.7647 29.0916 15.1144 0.0000 0.0000 0.0000
# 4 0.0000 0.0000 0.0000 20.1200 0.0000 0.0000
# 5 0.0000 0.0000 0.0000 0.0000 -43.1413 0.0000
# 6 0.0000 0.0000 0.0000 0.0000 0.0000 36.6071
#
#
#
# Elastic Compliance Matrix: (Units=1/GPa)
#
#
# Indices 1 2 3 4 5 6 
#
# 1 0.017467 -0.005820 -0.032441 0.000000 0.000000 0.000000
# 2 -0.005820 0.018316 -0.020713 0.000000 0.000000 0.000000
# 3 -0.032441 -0.020713 0.187086 0.000000 0.000000 0.000000
# 4 0.000000 0.000000 0.000000 0.049702 0.000000 0.000000
# 5 0.000000 0.000000 0.000000 0.000000 -0.023180 0.000000
# 6 0.000000 0.000000 0.000000 0.000000 0.000000 0.027317
#
#
# Mechanical properties :
#
#
# Convention : Reuss Voigt Hill
#
# Bulk Modulus (GPa) = 9.53093 67.81490 38.67292
# Shear Modulus (GPa) = 11.63791 11.42835 11.53313
#
# Velocity S-wave (km/s) = 2.57310 2.54983 2.56149
# Velocity P-wave (km/s) = 3.77491 6.87378 5.54521
#
# Compressibility (1/GPa) = 0.10492151
#
# Stress axis : x y z
#
# Youngs Moduli (GPa) = 57.25062 54.59609 5.34513
#
# Poissons Ratio (x) = 0.31774 0.17340
# Poissons Ratio (y) = 0.33319 0.11071
# Poissons Ratio (z) = 1.85727 1.13085
#
# Static dielectric constant tensor:
#      x y z
#    x 1.614430 0.000000 0.000000 
#    y 0.000000 1.592700 0.000000 
#    z 0.000000 0.000000 1.579800 
# 
# From -- ./inp_files/23732.got.cif
#   From: 2010.05.17/outbox.cif.g08.bks.cpg/sg42_12_cif.got.tgz:23732.got - 2010.06.03 19:03:34.
