data_PCOD9368262
_publ_section_title
;
Structure prediction by ZEFSAII (Michael W. Deem and Ramdas Pophale) SiO2 
 PCOD9368262
Probable space group: F M M 2
;
_chemical_formula_sum "Si O2"
_cell_formula_units_Z 96
_cell_length_a 22.988119
_cell_length_b 23.277969
_cell_length_c 9.131340
_cell_angle_alpha 90.000000
_cell_angle_beta 90.000000
_cell_angle_gamma 90.000000
_cell_volume 4886.332723
_symmetry_space_group_name_H-M "F M M 2"
_symmetry_group_IT_number 42
_symmetry_cell_setting 'orthorhombic'
loop_
_space_group_symop_operation_xyz
x,y,z
-x,-y,z
-x,y,z
x,-y,z
x,1/2+y,1/2+z
-x,1/2-y,1/2+z
-x,1/2+y,1/2+z
x,1/2-y,1/2+z
1/2+x,y,1/2+z
1/2-x,-y,1/2+z
1/2-x,y,1/2+z
1/2+x,-y,1/2+z
1/2+x,1/2+y,z
1/2-x,1/2-y,z
1/2-x,1/2+y,z
1/2+x,1/2-y,z
loop_
_atom_site_type_symbol
_atom_site_label
_atom_site_fract_x
_atom_site_fract_y
_atom_site_fract_z
Si Si1 0.715967 0.389755 0.882580
Si Si2 0.891607 0.564273 0.549224
Si Si3 0.155586 0.879681 0.326344
Si Si4 0.174615 0.787764 0.078807
Si Si5 0.066093 0.321777 0.402789
Si Si6 0.851882 0.835389 0.633937
O O1 0.782225 0.407575 0.866342
O O2 0.687561 0.380429 0.723615
O O3 0.673028 0.429133 0.977743
O O4 0.709985 0.327346 0.963919
O O5 0.913292 0.500000 0.532125
O O6 0.883122 0.582033 0.718585
O O7 0.928221 0.613181 0.466188
O O8 0.171359 0.823543 0.228747
O O9 0.128578 0.860114 0.478948
O O10 0.187002 0.721714 0.109040
O O11 0.109766 0.786946 0.007479
O O12 0.095285 0.320922 0.242919
O O13 0.000000 0.302492 0.404003
#
# Coordination Sequence:
#
# PCOD9368262 Si02
#       6
#    16  16  16  16  16  16
#     4   9  19  31  48  74 107 141 166 193 238 301
#     4   9  20  37  53  71  96 130 170 210 258 310
#     4  10  18  31  49  76 106 132 167 205 238 285
#     4   9  19  31  48  74 107 141 166 193 238 301
#     4   9  20  37  53  71  96 130 170 210 258 310
#     4  10  18  31  49  76 106 132 167 205 238 285
#
# _framework density 19.646636999999998
#
# number of rings (size 3 to 8) (size 9 to 14) (size 15 to 20)
#    0.000    3.333    0.000    4.000    0.000    5.667 
#    0.000    6.667    0.000    0.000    0.000    0.000 
#    0.000    0.000    0.000    0.000    0.000    0.000 
#
# Total GULP energy -133832.964043 kJ/mol
# GULP energy per Si atom -5576.373502 kJ/mol
# Density = 1.960192 g / cm^3
# Si number density = 19.646637 Si / 1000 Ang^3
#
#
#
# Elastic Constant Matrix: (Units=GPa)
#
#
# Indices 1 2 3 4 5 6 
#
# 1 47.1068 -27.3734 0.2968 0.0000 0.0000 0.0000
# 2 -27.3734 48.5908 8.9891 0.0000 0.0000 0.0000
# 3 0.2968 8.9891 132.8776 0.0003 0.0000 0.0000
# 4 0.0000 0.0000 0.0003 5.5257 -0.0001 0.0000
# 5 0.0000 0.0000 0.0000 -0.0001 8.8719 0.0000
# 6 0.0000 0.0000 0.0000 0.0000 0.0000 5.5286
#
#
#
# Elastic Compliance Matrix: (Units=1/GPa)
#
#
# Indices 1 2 3 4 5 6 
#
# 1 0.031779 0.018143 -0.001298 0.000000 0.000000 0.000000
# 2 0.018143 0.031199 -0.002151 0.000000 0.000000 0.000000
# 3 -0.001298 -0.002151 0.007674 0.000000 0.000000 0.000000
# 4 0.000000 0.000000 0.000000 0.180971 0.000001 0.000002
# 5 0.000000 0.000000 0.000000 0.000001 0.112715 0.000000
# 6 0.000000 0.000000 0.000000 0.000002 0.000000 0.180878
#
#
# Mechanical properties :
#
#
# Convention : Reuss Voigt Hill
#
# Bulk Modulus (GPa) = 9.99611 21.37779 15.68695
# Shear Modulus (GPa) = 9.10456 20.42943 14.76700
#
# Velocity S-wave (km/s) = 2.15504 3.22816 2.74456
# Velocity P-wave (km/s) = 3.36025 4.97990 4.24798
#
# Compressibility (1/GPa) = 0.10003887
#
# Stress axis : x y z
#
# Youngs Moduli (GPa) = 31.46711 32.05265 130.30767
#
# Poissons Ratio (x) = -0.58153 0.16918
# Poissons Ratio (y) = -0.57090 0.28030
# Poissons Ratio (z) = 0.04085 0.06895
#
# Static dielectric constant tensor:
#      x y z
#    x 1.724460 0.000000 0.000000 
#    y 0.000000 1.714970 0.000000 
#    z 0.000000 0.000000 1.692640 
# 
# From -- ./inp_files/5319.got.cif
#   From: 2010.05.17/outbox.cif.g08.bks.cpg/sg42_3_cif.got.tgz:5319.got - 2010.06.03 19:03:34.
