data_PCOD9368131
_publ_section_title
;
Structure prediction by ZEFSAII (Michael W. Deem and Ramdas Pophale) SiO2 
 PCOD9368131
Probable space group: F M M 2
;
_chemical_formula_sum "Si O2"
_cell_formula_units_Z 96
_cell_length_a 26.645176
_cell_length_b 7.864068
_cell_length_c 24.125438
_cell_angle_alpha 90.000000
_cell_angle_beta 90.000000
_cell_angle_gamma 90.000000
_cell_volume 5055.231635
_symmetry_space_group_name_H-M "F M M 2"
_symmetry_group_IT_number 42
_symmetry_cell_setting 'orthorhombic'
loop_
_space_group_symop_operation_xyz
x,y,z
-x,-y,z
-x,y,z
x,-y,z
x,1/2+y,1/2+z
-x,1/2-y,1/2+z
-x,1/2+y,1/2+z
x,1/2-y,1/2+z
1/2+x,y,1/2+z
1/2-x,-y,1/2+z
1/2-x,y,1/2+z
1/2+x,-y,1/2+z
1/2+x,1/2+y,z
1/2-x,1/2-y,z
1/2-x,1/2+y,z
1/2+x,1/2-y,z
loop_
_atom_site_type_symbol
_atom_site_label
_atom_site_fract_x
_atom_site_fract_y
_atom_site_fract_z
Si Si1 0.692673 0.298045 0.402700
Si Si2 0.599013 0.691481 0.088388
Si Si3 0.440821 0.306314 0.477557
Si Si4 0.000000 0.792115 0.278916
Si Si5 0.000000 0.791543 0.149879
Si Si6 0.192590 0.797409 0.031466
Si Si7 0.092065 0.793582 0.354122
O O1 0.689921 0.500000 0.400597
O O2 0.750000 0.250000 0.390213
O O3 0.681850 0.251144 0.467145
O O4 0.649658 0.231654 0.360691
O O5 0.605678 0.500000 0.110912
O O6 0.551917 0.769803 0.121406
O O7 0.653643 0.773165 0.077480
O O8 0.580607 0.687945 0.024789
O O9 0.500000 0.311238 0.484831
O O10 0.421323 0.500000 0.485581
O O11 0.429798 0.256093 0.414956
O O12 0.051102 0.732774 0.309581
O O13 0.000000 0.748121 0.214438
O O14 0.000000 0.000000 0.282501
O O15 0.000000 0.000000 0.143662
O O16 0.250000 0.750000 0.042394
O O17 0.188248 0.000000 0.033913
O O18 0.093556 0.000000 0.347904
#
# Coordination Sequence:
#
# PCOD9368131 Si02
#       7
#    16  16  16   8   8  16  16
#     4  10  18  28  43  66  97 125 151 183 222 272
#     4  10  19  30  45  68  97 124 151 187 232 281
#     4  10  17  26  43  69  96 122 149 183 229 280
#     4   9  16  29  48  69  91 119 154 195 238 268
#     4   9  18  31  47  67  93 121 152 195 236 272
#     4  10  19  29  43  65  95 127 156 184 223 275
#     4   9  16  26  43  68  95 118 149 190 226 269
#
# _framework density 18.990228999999999
#
# number of rings (size 3 to 8) (size 9 to 14) (size 15 to 20)
#    0.000    2.333    3.333    2.000    0.000    0.667 
#    0.000    0.000    0.000    1.000    0.000    7.000 
#    0.000    0.000    0.000    0.000    0.000    1.333 
#
# Total GULP energy -133614.636835 kJ/mol
# GULP energy per Si atom -5567.276535 kJ/mol
# Density = 1.894701 g / cm^3
# Si number density = 18.990229 Si / 1000 Ang^3
#
#
#
# Elastic Constant Matrix: (Units=GPa)
#
#
# Indices 1 2 3 4 5 6 
#
# 1 186.0146 7.9565 70.4792 0.0000 0.0000 0.0000
# 2 7.9565 29.0549 5.4819 0.0000 -0.0001 -0.0001
# 3 70.4792 5.4819 83.5633 0.0000 0.0001 0.0000
# 4 0.0000 0.0000 0.0000 8.9833 0.0001 0.0000
# 5 0.0000 -0.0001 0.0001 0.0001 20.2073 0.0002
# 6 0.0000 -0.0001 0.0000 0.0000 0.0002 0.3541
#
#
#
# Elastic Compliance Matrix: (Units=1/GPa)
#
#
# Indices 1 2 3 4 5 6 
#
# 1 0.007925 -0.000920 -0.006624 0.000000 0.000000 0.000001
# 2 -0.000920 0.034956 -0.001517 0.000000 0.000000 0.000006
# 3 -0.006624 -0.001517 0.017653 0.000000 0.000000 -0.000001
# 4 0.000000 0.000000 0.000000 0.111317 0.000000 0.000005
# 5 0.000000 0.000000 0.000000 0.000000 0.049487 -0.000024
# 6 0.000001 0.000006 -0.000001 0.000005 -0.000024 2.824156
#
#
# Mechanical properties :
#
#
# Convention : Reuss Voigt Hill
#
# Bulk Modulus (GPa) = 23.57827 51.82976 37.70402
# Shear Modulus (GPa) = 1.62456 20.22329 10.92393
#
# Velocity S-wave (km/s) = 0.92592 3.26687 2.40102
# Velocity P-wave (km/s) = 3.68593 6.44841 5.25205
#
# Compressibility (1/GPa) = 0.04241193
#
# Stress axis : x y z
#
# Youngs Moduli (GPa) = 126.18363 28.60748 56.64734
#
# Poissons Ratio (x) = 0.02633 0.37522
# Poissons Ratio (y) = 0.11615 0.08592
# Poissons Ratio (z) = 0.83580 0.04339
#
# Static dielectric constant tensor:
#      x y z
#    x 1.340370 0.000000 0.000000 
#    y 0.000000 1.716570 0.000000 
#    z 0.000000 0.000000 1.615640 
# 
# From -- ./inp_files/30636.got.cif
#   From: 2010.05.17/outbox.cif.g08.bks.cpg/sg42_16_cif.got.tgz:30636.got - 2010.06.03 19:03:34.
