data_PCOD9368514
_publ_section_title
;
Structure prediction by ZEFSAII (Michael W. Deem and Ramdas Pophale) SiO2 
 PCOD9368514
Probable space group: F M M 2
;
_chemical_formula_sum "Si O2"
_cell_formula_units_Z 80
_cell_length_a 28.068068
_cell_length_b 11.565353
_cell_length_c 13.487399
_cell_angle_alpha 90.000000
_cell_angle_beta 90.000000
_cell_angle_gamma 90.000000
_cell_volume 4378.240545
_symmetry_space_group_name_H-M "F M M 2"
_symmetry_group_IT_number 42
_symmetry_cell_setting 'orthorhombic'
loop_
_space_group_symop_operation_xyz
x,y,z
-x,-y,z
-x,y,z
x,-y,z
x,1/2+y,1/2+z
-x,1/2-y,1/2+z
-x,1/2+y,1/2+z
x,1/2-y,1/2+z
1/2+x,y,1/2+z
1/2-x,-y,1/2+z
1/2-x,y,1/2+z
1/2+x,-y,1/2+z
1/2+x,1/2+y,z
1/2-x,1/2-y,z
1/2-x,1/2+y,z
1/2+x,1/2-y,z
loop_
_atom_site_type_symbol
_atom_site_label
_atom_site_fract_x
_atom_site_fract_y
_atom_site_fract_z
Si Si1 0.697163 0.286307 0.637570
Si Si2 0.945592 0.360541 0.692872
Si Si3 0.720804 0.372322 0.427933
Si Si4 0.360702 0.742889 0.317342
Si Si5 0.623690 0.363973 0.024859
O O1 0.750000 0.250000 0.669025
O O2 0.702755 0.369064 0.542422
O O3 0.666311 0.318849 0.733442
O O4 0.668307 0.178511 0.590610
O O5 0.944452 0.500000 0.700110
O O6 0.908568 0.308627 0.771120
O O7 0.923450 0.328493 0.585712
O O8 0.000000 0.322215 0.704898
O O9 0.743452 0.500000 0.411025
O O10 0.750000 0.250000 0.419115
O O11 0.677013 0.354979 0.352258
O O12 0.372271 0.810569 0.417035
O O13 0.624522 0.500000 0.017681
#
# Coordination Sequence:
#
# PCOD9368514 Si02
#       5
#    16  16  16  16  16
#     4   9  19  33  48  71 103 142 178 212 254 305
#     4   9  18  34  55  76  99 131 171 214 263 320
#     4  10  21  36  53  77 111 148 184 221 263 313
#     4  10  19  33  53  79 105 135 174 220 265 310
#     4   9  19  34  51  74 105 137 171 213 261 312
#
# _framework density 18.272179000000001
#
# number of rings (size 3 to 8) (size 9 to 14) (size 15 to 20)
#    0.000    2.600    0.000    1.200    0.000   10.400 
#    0.000    4.000    0.000    0.000    0.000    0.000 
#    0.000    0.000    0.000    0.000    0.000    0.000 
#
# Total GULP energy -111399.875579 kJ/mol
# GULP energy per Si atom -5569.993779 kJ/mol
# Density = 1.823059 g / cm^3
# Si number density = 18.272179 Si / 1000 Ang^3
#
#
#
# Elastic Constant Matrix: (Units=GPa)
#
#
# Indices 1 2 3 4 5 6 
#
# 1 145.6095 35.4151 61.3340 0.0000 0.0000 0.0000
# 2 35.4151 76.6285 28.4183 0.0000 0.0000 0.0000
# 3 61.3340 28.4183 122.3093 0.0000 0.0000 0.0000
# 4 0.0000 0.0000 0.0000 -0.1942 0.0000 0.0000
# 5 0.0000 0.0000 0.0000 0.0000 18.6614 0.0000
# 6 0.0000 0.0000 0.0000 0.0000 0.0000 19.5948
#
#
#
# Elastic Compliance Matrix: (Units=1/GPa)
#
#
# Indices 1 2 3 4 5 6 
#
# 1 0.009220 -0.002787 -0.003976 0.000000 0.000000 0.000000
# 2 -0.002787 0.015123 -0.002116 0.000000 0.000000 0.000000
# 3 -0.003976 -0.002116 0.010662 0.000000 0.000000 0.000000
# 4 0.000000 0.000000 0.000000 -5.149253 0.000000 0.000000
# 5 0.000000 0.000000 0.000000 0.000000 0.053587 0.000000
# 6 0.000000 0.000000 0.000000 0.000000 0.000000 0.051034
#
#
# Mechanical properties :
#
#
# Convention : Reuss Voigt Hill
#
# Bulk Modulus (GPa) = 57.98347 66.09801 62.04074
# Shear Modulus (GPa) = -1.00278 22.23772 10.61747
#
# Velocity S-wave (km/s) = -0.74162 3.49237 2.41316
# Velocity P-wave (km/s) = 5.57394 7.24672 6.46466
#
# Compressibility (1/GPa) = 0.01724630
#
# Stress axis : x y z
#
# Youngs Moduli (GPa) = 108.45595 66.12557 93.79425
#
# Poissons Ratio (x) = 0.18427 0.37294
# Poissons Ratio (y) = 0.30224 0.19850
# Poissons Ratio (z) = 0.43124 0.13994
#
# Static dielectric constant tensor:
#      x y z
#    x 1.649590 0.000000 0.000000 
#    y 0.000000 1.628290 0.000000 
#    z 0.000000 0.000000 1.654380 
# 
# From -- ./inp_files/6961.got.cif
#   From: 2010.05.17/outbox.cif.g08.bks.cpg/sg42_4_cif.got.tgz:6961.got - 2010.06.03 19:03:34.
