data_PCOD9368280
_publ_section_title
;
Structure prediction by ZEFSAII (Michael W. Deem and Ramdas Pophale) SiO2 
 PCOD9368280
Probable space group: F M M 2
;
_chemical_formula_sum "Si O2"
_cell_formula_units_Z 100
_cell_length_a 19.678224
_cell_length_b 8.050863
_cell_length_c 31.142277
_cell_angle_alpha 90.000000
_cell_angle_beta 90.000000
_cell_angle_gamma 90.000000
_cell_volume 4933.767724
_symmetry_space_group_name_H-M "F M M 2"
_symmetry_group_IT_number 42
_symmetry_cell_setting 'orthorhombic'
loop_
_space_group_symop_operation_xyz
x,y,z
-x,-y,z
-x,y,z
x,-y,z
x,1/2+y,1/2+z
-x,1/2-y,1/2+z
-x,1/2+y,1/2+z
x,1/2-y,1/2+z
1/2+x,y,1/2+z
1/2-x,-y,1/2+z
1/2-x,y,1/2+z
1/2+x,-y,1/2+z
1/2+x,1/2+y,z
1/2-x,1/2-y,z
1/2-x,1/2+y,z
1/2+x,1/2-y,z
loop_
_atom_site_type_symbol
_atom_site_label
_atom_site_fract_x
_atom_site_fract_y
_atom_site_fract_z
Si Si1 0.671455 0.694458 0.588280
Si Si2 0.328588 0.696451 0.995709
Si Si3 0.104677 0.188009 0.763205
Si Si4 0.322426 0.801233 0.841668
Si Si5 0.671381 0.692863 0.179179
Si Si6 0.000000 0.000000 0.273465
Si Si7 0.077590 0.700569 0.916462
O O1 0.668926 0.500000 0.596936
O O2 0.750000 0.750000 0.584856
O O3 0.644030 0.730916 0.540879
O O4 0.643757 0.783738 0.630666
O O5 0.327803 0.500000 0.000319
O O6 0.250000 0.750000 0.988454
O O7 0.376823 0.747382 0.956744
O O8 0.166808 0.212534 0.796284
O O9 0.130001 0.206339 0.714421
O O10 0.057823 0.348866 0.772750
O O11 0.077645 0.000000 0.769336
O O12 0.250000 0.750000 0.860830
O O13 0.383386 0.747979 0.873205
O O14 0.324022 0.000000 0.837273
O O15 0.668527 0.500000 0.190766
O O16 0.750000 0.750000 0.179009
O O17 0.075298 0.500000 0.915720
O O18 0.000000 0.761797 0.918400
#
# Coordination Sequence:
#
# PCOD9368280 Si02
#       7
#    16  16  16  16  16   4  16
#     4  10  18  31  55  88 121 157 203 254 320 381
#     4  11  21  36  59  88 122 159 205 262 316 375
#     4  12  25  43  68  94 128 172 218 263 318 378
#     4  11  23  41  66  97 131 164 210 265 320 377
#     4  11  20  36  60  94 131 163 207 265 322 377
#     4  12  26  48  64  94 128 176 216 268 308 390
#     4  10  23  41  64  88 123 166 207 256 314 378
#
# _framework density 20.268485999999999
#
# number of rings (size 3 to 8) (size 9 to 14) (size 15 to 20)
#    0.000    1.120    1.600    7.920    1.120    2.880 
#    0.000    0.000    1.760    0.000    0.000    0.000 
#    0.000    0.000    0.000    0.000    0.000    0.000 
#
# Total GULP energy -139352.236533 kJ/mol
# GULP energy per Si atom -5574.089461 kJ/mol
# Density = 2.022235 g / cm^3
# Si number density = 20.268486 Si / 1000 Ang^3
#
#
#
# Elastic Constant Matrix: (Units=GPa)
#
#
# Indices 1 2 3 4 5 6 
#
# 1 88.3048 23.6785 26.9833 0.0000 0.0000 0.0000
# 2 23.6785 123.3592 6.4843 0.0000 0.0000 0.0000
# 3 26.9833 6.4843 100.8351 0.0000 0.0000 0.0000
# 4 0.0000 0.0000 0.0000 -1.0287 0.0000 0.0000
# 5 0.0000 0.0000 0.0000 0.0000 65.6638 0.0000
# 6 0.0000 0.0000 0.0000 0.0000 0.0000 23.2398
#
#
#
# Elastic Compliance Matrix: (Units=1/GPa)
#
#
# Indices 1 2 3 4 5 6 
#
# 1 0.012959 -0.002313 -0.003319 0.000000 0.000000 0.000000
# 2 -0.002313 0.008547 0.000069 0.000000 0.000000 0.000000
# 3 -0.003319 0.000069 0.010801 0.000000 0.000000 0.000000
# 4 0.000000 0.000000 0.000000 -0.972093 0.000000 0.000000
# 5 0.000000 0.000000 0.000000 0.000000 0.015229 0.000000
# 6 0.000000 0.000000 0.000000 0.000000 0.000000 0.043030
#
#
# Mechanical properties :
#
#
# Convention : Reuss Voigt Hill
#
# Bulk Modulus (GPa) = 47.21177 47.42126 47.31652
# Shear Modulus (GPa) = -5.79144 34.59850 14.40353
#
# Velocity S-wave (km/s) = -1.69221 4.13608 2.66867
# Velocity P-wave (km/s) = 4.41879 6.80124 5.73509
#
# Compressibility (1/GPa) = 0.02118116
#
# Stress axis : x y z
#
# Youngs Moduli (GPa) = 77.16752 117.00381 92.58492
#
# Poissons Ratio (x) = 0.27062 0.30729
# Poissons Ratio (y) = 0.17848 -0.00642
# Poissons Ratio (z) = 0.25612 -0.00811
#
# Static dielectric constant tensor:
#      x y z
#    x 1.696520 0.000000 0.000000 
#    y 0.000000 1.725620 0.000000 
#    z 0.000000 0.000000 1.744030 
# 
# From -- ./inp_files/34671.got.cif
#   From: 2010.05.17/outbox.cif.g08.bks.cpg/sg42_18_cif.got.tgz:34671.got - 2010.06.03 19:03:34.
