data_PCOD9368358
_publ_section_title
;
Structure prediction by ZEFSAII (Michael W. Deem and Ramdas Pophale) SiO2 
 PCOD9368358
Probable space group: F M M 2
;
_chemical_formula_sum "Si O2"
_cell_formula_units_Z 84
_cell_length_a 20.563749
_cell_length_b 21.213711
_cell_length_c 9.789418
_cell_angle_alpha 90.000000
_cell_angle_beta 90.000000
_cell_angle_gamma 90.000000
_cell_volume 4270.471376
_symmetry_space_group_name_H-M "F M M 2"
_symmetry_group_IT_number 42
_symmetry_cell_setting 'orthorhombic'
loop_
_space_group_symop_operation_xyz
x,y,z
-x,-y,z
-x,y,z
x,-y,z
x,1/2+y,1/2+z
-x,1/2-y,1/2+z
-x,1/2+y,1/2+z
x,1/2-y,1/2+z
1/2+x,y,1/2+z
1/2-x,-y,1/2+z
1/2-x,y,1/2+z
1/2+x,-y,1/2+z
1/2+x,1/2+y,z
1/2-x,1/2-y,z
1/2-x,1/2+y,z
1/2+x,1/2-y,z
loop_
_atom_site_type_symbol
_atom_site_label
_atom_site_fract_x
_atom_site_fract_y
_atom_site_fract_z
Si Si1 0.225537 0.000000 0.705350
Si Si2 0.672417 0.500000 0.985670
Si Si3 0.500000 0.000000 0.175721
Si Si4 0.922795 0.146648 0.338096
Si Si5 0.618581 0.598166 0.621812
Si Si6 0.926449 0.107472 0.028828
Si Si7 0.423858 0.209746 0.306372
O O1 0.294131 0.000000 0.632045
O O2 0.183711 0.060552 0.658013
O O3 0.226308 0.000000 0.868552
O O4 0.626036 0.440000 0.970125
O O5 0.557493 0.055023 0.167706
O O6 0.887640 0.110905 0.460345
O O7 0.917198 0.114633 0.190365
O O8 0.900452 0.218939 0.321751
O O9 0.000000 0.147974 0.373243
O O10 0.612544 0.664846 0.699683
O O11 0.000000 0.083483 0.002953
O O12 0.921271 0.173941 0.951702
O O13 0.500000 0.212736 0.263802
#
# Coordination Sequence:
#
# PCOD9368358 Si02
#       7
#     8   8   4  16  16  16  16
#     4  11  28  41  66  83 116 170 206 251 312 357
#     4  12  25  47  61  89 120 158 213 252 303 377
#     4  10  20  30  56  84 124 152 200 254 282 342
#     4  10  20  34  56  96 129 161 194 248 314 360
#     4  11  20  37  58  89 119 163 207 247 302 363
#     4  10  22  37  63  94 125 158 192 259 312 357
#     4  10  18  34  60  90 127 159 198 251 307 365
#
# _framework density 19.66996
#
# number of rings (size 3 to 8) (size 9 to 14) (size 15 to 20)
#    0.000    1.524    3.810    1.429    2.667    3.810 
#    0.000    0.000    0.000    6.857    0.000    0.000 
#    0.000    0.000    0.000    0.000    0.000    0.000 
#
# Total GULP energy -117108.973076 kJ/mol
# GULP energy per Si atom -5576.617766 kJ/mol
# Density = 1.962519 g / cm^3
# Si number density = 19.669960 Si / 1000 Ang^3
#
#
#
# Elastic Constant Matrix: (Units=GPa)
#
#
# Indices 1 2 3 4 5 6 
#
# 1 33.0934 11.1653 5.9362 0.0000 0.0000 0.0000
# 2 11.1653 61.2610 -5.4255 0.0000 0.0000 0.0000
# 3 5.9362 -5.4255 87.3804 0.0000 0.0000 0.0000
# 4 0.0000 0.0000 0.0000 15.5409 0.0000 0.0000
# 5 0.0000 0.0000 0.0000 0.0000 28.1075 0.0000
# 6 0.0000 0.0000 0.0000 0.0000 0.0000 39.6032
#
#
#
# Elastic Compliance Matrix: (Units=1/GPa)
#
#
# Indices 1 2 3 4 5 6 
#
# 1 0.032780 -0.006206 -0.002612 0.000000 0.000000 0.000000
# 2 -0.006206 0.017589 0.001514 0.000000 0.000000 0.000000
# 3 -0.002612 0.001514 0.011716 0.000000 0.000000 0.000000
# 4 0.000000 0.000000 0.000000 0.064346 0.000000 0.000000
# 5 0.000000 0.000000 0.000000 0.000000 0.035578 0.000000
# 6 0.000000 0.000000 0.000000 0.000000 0.000000 0.025250
#
#
# Mechanical properties :
#
#
# Convention : Reuss Voigt Hill
#
# Bulk Modulus (GPa) = 21.06341 22.78741 21.92541
# Shear Modulus (GPa) = 22.96817 27.98757 25.47787
#
# Velocity S-wave (km/s) = 3.42084 3.77617 3.60289
# Velocity P-wave (km/s) = 5.13171 5.53377 5.33653
#
# Compressibility (1/GPa) = 0.04747569
#
# Stress axis : x y z
#
# Youngs Moduli (GPa) = 30.50655 56.85467 85.35582
#
# Poissons Ratio (x) = 0.35282 0.22297
# Poissons Ratio (y) = 0.18932 -0.12920
# Poissons Ratio (z) = 0.07969 -0.08606
#
# Static dielectric constant tensor:
#      x y z
#    x 1.654960 0.000000 0.000000 
#    y 0.000000 1.677620 0.000000 
#    z 0.000000 0.000000 1.723750 
# 
# From -- ./inp_files/4007.got.cif
#   From: 2010.05.17/outbox.cif.g08.bks.cpg/sg42_3_cif.got.tgz:4007.got - 2010.06.03 19:03:34.
