data_PCOD9368263
_publ_section_title
;
Structure prediction by ZEFSAII (Michael W. Deem and Ramdas Pophale) SiO2 
 PCOD9368263
Probable space group: F M M 2
;
_chemical_formula_sum "Si O2"
_cell_formula_units_Z 128
_cell_length_a 27.382841
_cell_length_b 17.192176
_cell_length_c 16.829210
_cell_angle_alpha 90.000000
_cell_angle_beta 90.000000
_cell_angle_gamma 90.000000
_cell_volume 7922.697657
_symmetry_space_group_name_H-M "F M M 2"
_symmetry_group_IT_number 42
_symmetry_cell_setting 'orthorhombic'
loop_
_space_group_symop_operation_xyz
x,y,z
-x,-y,z
-x,y,z
x,-y,z
x,1/2+y,1/2+z
-x,1/2-y,1/2+z
-x,1/2+y,1/2+z
x,1/2-y,1/2+z
1/2+x,y,1/2+z
1/2-x,-y,1/2+z
1/2-x,y,1/2+z
1/2+x,-y,1/2+z
1/2+x,1/2+y,z
1/2-x,1/2-y,z
1/2-x,1/2+y,z
1/2+x,1/2-y,z
loop_
_atom_site_type_symbol
_atom_site_label
_atom_site_fract_x
_atom_site_fract_y
_atom_site_fract_z
Si Si1 0.358897 0.832111 0.734520
Si Si2 0.730710 0.092793 0.826967
Si Si3 0.444002 0.589643 0.139292
Si Si4 0.118196 0.225809 0.882462
Si Si5 0.142460 0.185659 0.625979
Si Si6 0.944236 0.739856 0.532057
Si Si7 0.705300 0.805012 0.978124
Si Si8 0.842561 0.907938 0.782524
O O1 0.311198 0.874936 0.768344
O O2 0.400786 0.888084 0.699950
O O3 0.382097 0.783056 0.807082
O O4 0.344271 0.768057 0.668251
O O5 0.721853 0.132251 0.912715
O O6 0.785180 0.112397 0.796252
O O7 0.726896 0.000000 0.832609
O O8 0.500000 0.598001 0.171028
O O9 0.438532 0.500000 0.113842
O O10 0.439487 0.653470 0.069716
O O11 0.164732 0.251700 0.934844
O O12 0.127105 0.140286 0.847687
O O13 0.073101 0.235551 0.941285
O O14 0.091316 0.203903 0.582222
O O15 0.180595 0.162822 0.557660
O O16 0.141612 0.123234 0.696203
O O17 0.000000 0.764535 0.539261
O O18 0.750000 0.750000 0.999582
O O19 0.848209 0.000000 0.789780
#
# Coordination Sequence:
#
# PCOD9368263 Si02
#       8
#    16  16  16  16  16  16  16  16
#     4   9  18  31  50  72  99 125 168 207 242 295
#     4  10  20  32  48  70 100 137 165 202 249 290
#     4   9  17  30  48  71 100 128 154 197 253 298
#     4   9  18  32  50  74  93 130 165 199 251 287
#     4   9  20  32  52  75  94 132 169 202 253 289
#     4   9  18  34  53  74  97 123 164 208 244 295
#     4  10  18  31  50  68  96 129 166 204 238 290
#     4  10  20  34  49  71 106 135 165 204 247 298
#
# _framework density 16.156113000000001
#
# number of rings (size 3 to 8) (size 9 to 14) (size 15 to 20)
#    0.000    2.625    1.250    0.375    1.750    1.500 
#    0.000    1.875    0.000    1.125    0.000    0.000 
#    0.000    0.000    0.000    0.000    0.000    0.000 
#
# Total GULP energy -178269.198206 kJ/mol
# GULP energy per Si atom -5570.912444 kJ/mol
# Density = 1.611934 g / cm^3
# Si number density = 16.156113 Si / 1000 Ang^3
#
#
#
# Elastic Constant Matrix: (Units=GPa)
#
#
# Indices 1 2 3 4 5 6 
#
# 1 64.7285 18.3491 29.8022 0.0000 0.0000 0.0000
# 2 18.3491 47.6639 14.7760 0.0000 0.0000 0.0000
# 3 29.8022 14.7760 81.6488 0.0000 0.0000 0.0000
# 4 0.0000 0.0000 0.0000 8.6903 0.0000 0.0000
# 5 0.0000 0.0000 0.0000 0.0000 18.6996 0.0000
# 6 0.0000 0.0000 0.0000 0.0000 0.0000 18.5399
#
#
#
# Elastic Compliance Matrix: (Units=1/GPa)
#
#
# Indices 1 2 3 4 5 6 
#
# 1 0.019952 -0.005746 -0.006243 0.000000 0.000000 0.000000
# 2 -0.005746 0.023882 -0.002225 0.000000 0.000000 0.000000
# 3 -0.006243 -0.002225 0.014929 0.000000 0.000000 0.000000
# 4 0.000000 0.000000 0.000000 0.115071 0.000000 0.000000
# 5 0.000000 0.000000 0.000000 0.000000 0.053477 0.000000
# 6 0.000000 0.000000 0.000000 0.000000 0.000000 0.053938
#
#
# Mechanical properties :
#
#
# Convention : Reuss Voigt Hill
#
# Bulk Modulus (GPa) = 32.96367 35.54397 34.25382
# Shear Modulus (GPa) = 15.63539 17.92689 16.78114
#
# Velocity S-wave (km/s) = 3.11427 3.33469 3.22636
# Velocity P-wave (km/s) = 5.77747 6.07247 5.92681
#
# Compressibility (1/GPa) = 0.03033643
#
# Stress axis : x y z
#
# Youngs Moduli (GPa) = 50.11964 41.87289 66.98443
#
# Poissons Ratio (x) = 0.24059 0.41817
# Poissons Ratio (y) = 0.28797 0.14902
# Poissons Ratio (z) = 0.31289 0.09315
#
# Static dielectric constant tensor:
#      x y z
#    x 1.539850 0.000000 0.000000 
#    y 0.000000 1.522020 0.000000 
#    z 0.000000 0.000000 1.538650 
# 
# From -- ./inp_files/22335.got.cif
#   From: 2010.05.17/outbox.cif.g08.bks.cpg/sg42_12_cif.got.tgz:22335.got - 2010.06.03 19:03:34.
