data_PCOD9368096
_publ_section_title
;
Structure prediction by ZEFSAII (Michael W. Deem and Ramdas Pophale) SiO2 
 PCOD9368096
Probable space group: F M M 2
;
_chemical_formula_sum "Si O2"
_cell_formula_units_Z 88
_cell_length_a 20.522591
_cell_length_b 15.232311
_cell_length_c 15.067523
_cell_angle_alpha 90.000000
_cell_angle_beta 90.000000
_cell_angle_gamma 90.000000
_cell_volume 4710.205457
_symmetry_space_group_name_H-M "F M M 2"
_symmetry_group_IT_number 42
_symmetry_cell_setting 'orthorhombic'
loop_
_space_group_symop_operation_xyz
x,y,z
-x,-y,z
-x,y,z
x,-y,z
x,1/2+y,1/2+z
-x,1/2-y,1/2+z
-x,1/2+y,1/2+z
x,1/2-y,1/2+z
1/2+x,y,1/2+z
1/2-x,-y,1/2+z
1/2-x,y,1/2+z
1/2+x,-y,1/2+z
1/2+x,1/2+y,z
1/2-x,1/2-y,z
1/2-x,1/2+y,z
1/2+x,1/2-y,z
loop_
_atom_site_type_symbol
_atom_site_label
_atom_site_fract_x
_atom_site_fract_y
_atom_site_fract_z
Si Si1 0.718178 0.500000 0.438740
Si Si2 0.074565 0.166251 0.949043
Si Si3 0.859203 0.500000 0.371404
Si Si4 0.199680 0.177911 0.221597
Si Si5 0.687930 0.693609 0.435511
Si Si6 0.749551 0.500000 0.739067
Si Si7 0.573953 0.102775 0.650353
O O1 0.797536 0.500000 0.440652
O O2 0.690619 0.593372 0.471134
O O3 0.708203 0.500000 0.331078
O O4 0.101577 0.089493 0.885118
O O5 0.123185 0.249141 0.950503
O O6 0.000000 0.190293 0.927520
O O7 0.074677 0.120206 0.045364
O O8 0.823297 0.500000 0.276627
O O9 0.250000 0.250000 0.188822
O O10 0.197731 0.185471 0.328659
O O11 0.231982 0.087296 0.190345
O O12 0.125647 0.170190 0.190794
O O13 0.750000 0.750000 0.468244
O O14 0.500000 0.117152 0.682392
O O15 0.590291 0.000000 0.667957
#
# Coordination Sequence:
#
# PCOD9368096 Si02
#       7
#     8  16   8  16  16   8  16
#     4   8  16  29  51  78  97 134 164 212 264 306
#     4  11  21  33  51  78 109 143 181 223 268 320
#     4  10  15  31  52  75  99 133 170 226 262 307
#     4  10  18  33  54  80 106 139 178 219 270 323
#     4  10  18  33  55  79 108 137 174 221 273 321
#     4   8  16  30  51  75 103 133 166 214 269 313
#     4  10  21  36  53  75 110 146 178 223 272 314
#
# _framework density 18.682836000000002
#
# number of rings (size 3 to 8) (size 9 to 14) (size 15 to 20)
#    0.545    1.636    3.636    1.364    0.000    1.455 
#    0.000    0.455    0.000    0.000    0.000    1.273 
#    0.000    0.000    0.000    0.000    0.000    0.000 
#
# Total GULP energy -122492.545805 kJ/mol
# GULP energy per Si atom -5567.842991 kJ/mol
# Density = 1.864031 g / cm^3
# Si number density = 18.682836 Si / 1000 Ang^3
#
#
#
# Elastic Constant Matrix: (Units=GPa)
#
#
# Indices 1 2 3 4 5 6 
#
# 1 155.6588 85.1105 3.6014 0.0000 0.0000 0.0000
# 2 85.1105 146.6076 -4.8688 0.0000 0.0000 0.0000
# 3 3.6014 -4.8688 13.0569 0.0000 0.0000 0.0000
# 4 0.0000 0.0000 0.0000 -0.6478 0.0000 0.0000
# 5 0.0000 0.0000 0.0000 0.0000 27.9323 0.0000
# 6 0.0000 0.0000 0.0000 0.0000 0.0000 33.6088
#
#
#
# Elastic Compliance Matrix: (Units=1/GPa)
#
#
# Indices 1 2 3 4 5 6 
#
# 1 0.009704 -0.005794 -0.004837 0.000000 0.000000 0.000000
# 2 -0.005794 0.010366 0.005464 0.000000 0.000000 0.000000
# 3 -0.004837 0.005464 0.079960 0.000000 0.000000 0.000000
# 4 0.000000 0.000000 0.000000 -1.543786 0.000000 0.000000
# 5 0.000000 0.000000 0.000000 0.000000 0.035801 0.000000
# 6 0.000000 0.000000 0.000000 0.000000 0.000000 0.029754
#
#
# Mechanical properties :
#
#
# Convention : Reuss Voigt Hill
#
# Bulk Modulus (GPa) = 11.14900 53.66772 32.40836
# Shear Modulus (GPa) = -3.73701 27.61066 11.93682
#
# Velocity S-wave (km/s) = -1.41583 3.84847 2.53043
# Velocity P-wave (km/s) = 1.81870 6.96675 5.09133
#
# Compressibility (1/GPa) = 0.08969417
#
# Stress axis : x y z
#
# Youngs Moduli (GPa) = 103.04520 96.46708 12.50630
#
# Poissons Ratio (x) = 0.55897 0.06050
# Poissons Ratio (y) = 0.59709 -0.06833
# Poissons Ratio (z) = 0.49847 -0.52707
#
# Static dielectric constant tensor:
#      x y z
#    x 1.658370 0.000000 0.000000 
#    y 0.000000 1.690650 0.000000 
#    z 0.000000 0.000000 1.662950 
# 
# From -- ./inp_files/15795.got.cif
#   From: 2010.05.17/outbox.cif.g08.bks.cpg/sg42_8_cif.got.tgz:15795.got - 2010.06.03 19:03:34.
