data_PCOD9368898
_publ_section_title
;
Structure prediction by ZEFSAII (Michael W. Deem and Ramdas Pophale) SiO2 
 PCOD9368898
Probable space group: F M M 2
;
_chemical_formula_sum "Si O2"
_cell_formula_units_Z 96
_cell_length_a 18.551830
_cell_length_b 8.804414
_cell_length_c 31.962501
_cell_angle_alpha 90.000000
_cell_angle_beta 90.000000
_cell_angle_gamma 90.000000
_cell_volume 5220.690726
_symmetry_space_group_name_H-M "F M M 2"
_symmetry_group_IT_number 42
_symmetry_cell_setting 'orthorhombic'
loop_
_space_group_symop_operation_xyz
x,y,z
-x,-y,z
-x,y,z
x,-y,z
x,1/2+y,1/2+z
-x,1/2-y,1/2+z
-x,1/2+y,1/2+z
x,1/2-y,1/2+z
1/2+x,y,1/2+z
1/2-x,-y,1/2+z
1/2-x,y,1/2+z
1/2+x,-y,1/2+z
1/2+x,1/2+y,z
1/2-x,1/2-y,z
1/2-x,1/2+y,z
1/2+x,1/2-y,z
loop_
_atom_site_type_symbol
_atom_site_label
_atom_site_fract_x
_atom_site_fract_y
_atom_site_fract_z
Si Si1 0.329746 0.817415 0.079240
Si Si2 0.087565 0.824665 0.250101
Si Si3 0.829659 0.817935 0.414269
Si Si4 0.415316 0.316254 0.157101
Si Si5 0.417378 0.315129 0.496556
Si Si6 0.585222 0.180066 0.337001
O O1 0.250000 0.750000 0.076632
O O2 0.369251 0.757974 0.120686
O O3 0.326424 0.000000 0.079917
O O4 0.375548 0.769129 0.038464
O O5 0.109812 0.770693 0.203902
O O6 0.109241 0.729225 0.290471
O O7 0.000000 0.823840 0.248776
O O8 0.109969 0.000000 0.255656
O O9 0.750000 0.750000 0.415882
O O10 0.875069 0.767100 0.454962
O O11 0.870271 0.764189 0.372627
O O12 0.825576 0.000000 0.414752
O O13 0.500000 0.276184 0.152257
O O14 0.410551 0.500000 0.155176
O O15 0.500000 0.262126 0.496490
O O16 0.418770 0.500000 0.496296
O O17 0.500000 0.218505 0.340990
O O18 0.592923 0.000000 0.341864
#
# Coordination Sequence:
#
# PCOD9368898 Si02
#       6
#    16  16  16  16  16  16
#     4  11  22  36  55  79 111 147 182 222 268 320
#     4   8  15  30  53  79 107 141 180 222 269 319
#     4  11  22  37  57  79 109 146 181 220 268 322
#     4   9  18  34  56  82 111 142 180 225 270 320
#     4   9  19  36  58  83 107 136 178 223 266 318
#     4  10  20  34  54  82 113 142 179 226 270 318
#
# _framework density 18.388370999999999
#
# number of rings (size 3 to 8) (size 9 to 14) (size 15 to 20)
#    0.000    2.333    0.000    4.000    0.000    3.333 
#    0.000    5.000    0.000   10.000    0.000    0.000 
#    0.000    0.000    0.000    0.000    0.000    0.000 
#
# Total GULP energy -133959.140895 kJ/mol
# GULP energy per Si atom -5581.630871 kJ/mol
# Density = 1.834652 g / cm^3
# Si number density = 18.388371 Si / 1000 Ang^3
#
#
#
# Elastic Constant Matrix: (Units=GPa)
#
#
# Indices 1 2 3 4 5 6 
#
# 1 125.6448 48.3348 98.4939 0.0000 0.0000 0.0000
# 2 48.3348 41.4650 54.4538 0.0000 0.0000 0.0000
# 3 98.4939 54.4538 196.0363 0.0000 0.0000 0.0000
# 4 0.0000 0.0000 0.0000 23.4881 0.0000 0.0000
# 5 0.0000 0.0000 0.0000 0.0000 -15.0877 0.0000
# 6 0.0000 0.0000 0.0000 0.0000 0.0000 17.5205
#
#
#
# Elastic Compliance Matrix: (Units=1/GPa)
#
#
# Indices 1 2 3 4 5 6 
#
# 1 0.016820 -0.013395 -0.004730 0.000000 0.000000 0.000000
# 2 -0.013395 0.048633 -0.006779 0.000000 0.000000 0.000000
# 3 -0.004730 -0.006779 0.009361 0.000000 0.000000 0.000000
# 4 0.000000 0.000000 0.000000 0.042575 0.000000 0.000000
# 5 0.000000 0.000000 0.000000 0.000000 -0.066279 0.000000
# 6 0.000000 0.000000 0.000000 0.000000 0.000000 0.057076
#
#
# Mechanical properties :
#
#
# Convention : Reuss Voigt Hill
#
# Bulk Modulus (GPa) = 39.99050 85.07901 62.53475
# Shear Modulus (GPa) = 30.06106 15.97509 23.01807
#
# Velocity S-wave (km/s) = 4.04764 2.95067 3.54188
# Velocity P-wave (km/s) = 6.60601 7.61426 7.12798
#
# Compressibility (1/GPa) = 0.02500594
#
# Stress axis : x y z
#
# Youngs Moduli (GPa) = 59.45443 20.56201 106.83021
#
# Poissons Ratio (x) = 0.27542 0.50530
# Poissons Ratio (y) = 0.79637 0.72423
# Poissons Ratio (z) = 0.28122 0.13940
#
# Static dielectric constant tensor:
#      x y z
#    x 1.607170 0.000000 0.000000 
#    y 0.000000 1.616840 0.000000 
#    z 0.000000 0.000000 1.625490 
# 
# From -- ./inp_files/31446.got.cif
#   From: 2010.05.17/outbox.cif.g08.bks.cpg/sg42_16_cif.got.tgz:31446.got - 2010.06.03 19:03:34.
