data_PCOD9368480
_publ_section_title
;
Structure prediction by ZEFSAII (Michael W. Deem and Ramdas Pophale) SiO2 
 PCOD9368480
Probable space group: F M M 2
;
_chemical_formula_sum "Si O2"
_cell_formula_units_Z 80
_cell_length_a 9.005443
_cell_length_b 31.126036
_cell_length_c 14.835272
_cell_angle_alpha 90.000000
_cell_angle_beta 90.000000
_cell_angle_gamma 90.000000
_cell_volume 4158.382270
_symmetry_space_group_name_H-M "F M M 2"
_symmetry_group_IT_number 42
_symmetry_cell_setting 'orthorhombic'
loop_
_space_group_symop_operation_xyz
x,y,z
-x,-y,z
-x,y,z
x,-y,z
x,1/2+y,1/2+z
-x,1/2-y,1/2+z
-x,1/2+y,1/2+z
x,1/2-y,1/2+z
1/2+x,y,1/2+z
1/2-x,-y,1/2+z
1/2-x,y,1/2+z
1/2+x,-y,1/2+z
1/2+x,1/2+y,z
1/2-x,1/2-y,z
1/2-x,1/2+y,z
1/2+x,1/2-y,z
loop_
_atom_site_type_symbol
_atom_site_label
_atom_site_fract_x
_atom_site_fract_y
_atom_site_fract_z
Si Si1 0.668927 0.206984 0.937150
Si Si2 0.321472 0.382490 0.723031
Si Si3 0.680730 0.613369 0.418907
Si Si4 0.170812 0.706280 0.716689
Si Si5 0.680430 0.451184 0.573858
O O1 0.500000 0.209510 0.968275
O O2 0.750000 0.250000 0.967144
O O3 0.728107 0.159605 0.960412
O O4 0.670465 0.207011 0.827020
O O5 0.500000 0.380144 0.726688
O O6 0.254170 0.390570 0.821603
O O7 0.258477 0.336608 0.690611
O O8 0.275979 0.421000 0.657035
O O9 0.500000 0.615119 0.410003
O O10 0.721986 0.574242 0.483407
O O11 0.250000 0.750000 0.687159
O O12 0.000000 0.704659 0.687496
O O13 0.500000 0.452648 0.574751
O O14 0.735218 0.500000 0.578272
#
# Coordination Sequence:
#
# PCOD9368480 Si02
#       5
#    16  16  16  16  16
#     4   8  14  24  42  68  96 127 162 199 239 290
#     4  10  19  32  53  80 108 138 174 218 267 316
#     4   9  18  34  54  75 102 137 176 216 260 314
#     4   9  16  28  48  75 107 142 177 211 253 308
#     4   9  19  36  56  76 101 137 180 224 271 322
#
# _framework density 19.238251999999999
#
# number of rings (size 3 to 8) (size 9 to 14) (size 15 to 20)
#    0.000    3.000    0.000    2.400    0.000    5.600 
#    0.000    3.000    0.000    6.600    0.000    0.000 
#    0.000    0.000    0.000    0.000    0.000    0.000 
#
# Total GULP energy -111553.087286 kJ/mol
# GULP energy per Si atom -5577.654364 kJ/mol
# Density = 1.919446 g / cm^3
# Si number density = 19.238252 Si / 1000 Ang^3
#
#
#
# Elastic Constant Matrix: (Units=GPa)
#
#
# Indices 1 2 3 4 5 6 
#
# 1 52.6896 58.1301 30.4562 0.0000 0.0000 0.0000
# 2 58.1301 232.0969 77.1274 0.0000 0.0000 0.0000
# 3 30.4562 77.1274 80.8293 0.0000 0.0000 0.0000
# 4 0.0000 0.0000 0.0000 36.7565 0.0000 0.0000
# 5 0.0000 0.0000 0.0000 0.0000 0.5389 0.0000
# 6 0.0000 0.0000 0.0000 0.0000 0.0000 24.8331
#
#
#
# Elastic Compliance Matrix: (Units=1/GPa)
#
#
# Indices 1 2 3 4 5 6 
#
# 1 0.027869 -0.005111 -0.005624 0.000000 0.000000 0.000000
# 2 -0.005111 0.007246 -0.004989 0.000000 0.000000 0.000000
# 3 -0.005624 -0.004989 0.019251 0.000000 0.000000 0.000000
# 4 0.000000 0.000000 0.000000 0.027206 0.000000 0.000000
# 5 0.000000 0.000000 0.000000 0.000000 1.855801 0.000000
# 6 0.000000 0.000000 0.000000 0.000000 0.000000 0.040269
#
#
# Mechanical properties :
#
#
# Convention : Reuss Voigt Hill
#
# Bulk Modulus (GPa) = 43.63217 77.44924 60.54070
# Shear Modulus (GPa) = 2.47926 25.75250 14.11588
#
# Velocity S-wave (km/s) = 1.13645 3.66267 2.71170
# Velocity P-wave (km/s) = 4.94481 7.63100 6.42975
#
# Compressibility (1/GPa) = 0.02291887
#
# Stress axis : x y z
#
# Youngs Moduli (GPa) = 35.88269 137.99916 51.94525
#
# Poissons Ratio (x) = 0.70532 0.29213
# Poissons Ratio (y) = 0.18340 0.25914
# Poissons Ratio (z) = 0.20180 0.68844
#
# Static dielectric constant tensor:
#      x y z
#    x 1.649880 0.000000 0.000000 
#    y 0.000000 1.672380 0.000000 
#    z 0.000000 0.000000 1.695910 
# 
# From -- ./inp_files/18188.got.cif
#   From: 2010.05.17/outbox.cif.g08.bks.cpg/sg42_10_cif.got.tgz:18188.got - 2010.06.03 19:03:34.
