data_PCOD9368192
_publ_section_title
;
Structure prediction by ZEFSAII (Michael W. Deem and Ramdas Pophale) SiO2 
 PCOD9368192
Probable space group: F M M 2
;
_chemical_formula_sum "Si O2"
_cell_formula_units_Z 96
_cell_length_a 12.037973
_cell_length_b 22.115852
_cell_length_c 19.621153
_cell_angle_alpha 90.000000
_cell_angle_beta 90.000000
_cell_angle_gamma 90.000000
_cell_volume 5223.740137
_symmetry_space_group_name_H-M "F M M 2"
_symmetry_group_IT_number 42
_symmetry_cell_setting 'orthorhombic'
loop_
_space_group_symop_operation_xyz
x,y,z
-x,-y,z
-x,y,z
x,-y,z
x,1/2+y,1/2+z
-x,1/2-y,1/2+z
-x,1/2+y,1/2+z
x,1/2-y,1/2+z
1/2+x,y,1/2+z
1/2-x,-y,1/2+z
1/2-x,y,1/2+z
1/2+x,-y,1/2+z
1/2+x,1/2+y,z
1/2-x,1/2-y,z
1/2-x,1/2+y,z
1/2+x,1/2-y,z
loop_
_atom_site_type_symbol
_atom_site_label
_atom_site_fract_x
_atom_site_fract_y
_atom_site_fract_z
Si Si1 0.000000 0.353553 0.477430
Si Si2 0.675282 0.431637 0.340704
Si Si3 0.375266 0.890502 0.260017
Si Si4 0.000000 0.631851 0.630954
Si Si5 0.500000 0.791604 0.334432
Si Si6 0.000000 0.340999 0.779722
Si Si7 0.739741 0.071686 0.633617
Si Si8 0.772960 0.928466 0.980229
O O1 0.000000 0.334824 0.557581
O O2 0.000000 0.306976 0.414664
O O3 0.112171 0.392865 0.469831
O O4 0.632618 0.500000 0.332845
O O5 0.799062 0.428765 0.310454
O O6 0.603831 0.382863 0.300432
O O7 0.686765 0.415519 0.420033
O O8 0.500000 0.915342 0.251516
O O9 0.396897 0.825825 0.296757
O O10 0.311513 0.891664 0.188375
O O11 0.000000 0.671696 0.699018
O O12 0.889638 0.590742 0.635574
O O13 0.500000 0.721345 0.319800
O O14 0.773767 0.083736 0.555542
O O15 0.750292 0.000000 0.648353
O O16 0.798115 0.000000 0.977197
#
# Coordination Sequence:
#
# PCOD9368192 Si02
#       8
#     8  16  16   8   8   8  16  16
#     4  10  17  38  57  86 116 151 202 243 287 339
#     4  11  22  38  62  89 118 150 194 249 306 352
#     4  10  21  38  56  88 115 157 194 238 287 350
#     4  10  21  34  60  88 117 150 199 248 294 336
#     4  10  24  42  60  83 117 162 206 240 282 346
#     4  12  25  42  59  87 118 159 198 247 289 353
#     4  10  19  34  57  87 124 158 192 241 301 356
#     4   9  18  33  56  88 121 154 192 243 300 350
#
# _framework density 18.377637
#
# number of rings (size 3 to 8) (size 9 to 14) (size 15 to 20)
#    0.500    1.333    3.333    1.250    0.000    4.667 
#    1.500    1.667    0.000    4.000    0.000    0.000 
#    0.000    0.000    0.000    0.000    0.000    0.000 
#
# Total GULP energy -133733.649961 kJ/mol
# GULP energy per Si atom -5572.235415 kJ/mol
# Density = 1.833581 g / cm^3
# Si number density = 18.377637 Si / 1000 Ang^3
#
#
#
# Elastic Constant Matrix: (Units=GPa)
#
#
# Indices 1 2 3 4 5 6 
#
# 1 78.0182 21.9348 40.1702 0.0000 0.0000 0.0000
# 2 21.9348 72.8758 51.5192 0.0000 0.0000 0.0000
# 3 40.1702 51.5192 172.5092 0.0000 0.0000 0.0000
# 4 0.0000 0.0000 0.0000 21.4296 0.0000 0.0000
# 5 0.0000 0.0000 0.0000 0.0000 22.1326 0.0000
# 6 0.0000 0.0000 0.0000 0.0000 0.0000 7.5952
#
#
#
# Elastic Compliance Matrix: (Units=1/GPa)
#
#
# Indices 1 2 3 4 5 6 
#
# 1 0.014937 -0.002582 -0.002707 0.000000 0.000000 0.000000
# 2 -0.002582 0.017841 -0.004727 0.000000 0.000000 0.000000
# 3 -0.002707 -0.004727 0.007839 0.000000 0.000000 0.000000
# 4 0.000000 0.000000 0.000000 0.046664 0.000000 0.000000
# 5 0.000000 0.000000 0.000000 0.000000 0.045182 0.000000
# 6 0.000000 0.000000 0.000000 0.000000 0.000000 0.131661
#
#
# Mechanical properties :
#
#
# Convention : Reuss Voigt Hill
#
# Bulk Modulus (GPa) = 48.57970 61.18348 54.88159
# Shear Modulus (GPa) = 17.18102 24.21675 20.69889
#
# Velocity S-wave (km/s) = 3.06091 3.63399 3.35969
# Velocity P-wave (km/s) = 6.24370 7.13950 6.70657
#
# Compressibility (1/GPa) = 0.02058473
#
# Stress axis : x y z
#
# Youngs Moduli (GPa) = 66.94622 56.05137 127.57041
#
# Poissons Ratio (x) = 0.14474 0.34535
# Poissons Ratio (y) = 0.17287 0.60300
# Poissons Ratio (z) = 0.18123 0.26494
#
# Static dielectric constant tensor:
#      x y z
#    x 1.645470 0.000000 0.000000 
#    y 0.000000 1.592060 0.000000 
#    z 0.000000 0.000000 1.688050 
# 
# From -- ./inp_files/24539.got.cif
#   From: 2010.05.17/outbox.cif.g08.bks.cpg/sg42_13_cif.got.tgz:24539.got - 2010.06.03 19:03:34.
