data_PCOD9368401
_publ_section_title
;
Structure prediction by ZEFSAII (Michael W. Deem and Ramdas Pophale) SiO2 
 PCOD9368401
Probable space group: F M M 2
;
_chemical_formula_sum "Si O2"
_cell_formula_units_Z 96
_cell_length_a 32.406955
_cell_length_b 9.384147
_cell_length_c 14.602150
_cell_angle_alpha 90.000000
_cell_angle_beta 90.000000
_cell_angle_gamma 90.000000
_cell_volume 4440.683631
_symmetry_space_group_name_H-M "F M M 2"
_symmetry_group_IT_number 42
_symmetry_cell_setting 'orthorhombic'
loop_
_space_group_symop_operation_xyz
x,y,z
-x,-y,z
-x,y,z
x,-y,z
x,1/2+y,1/2+z
-x,1/2-y,1/2+z
-x,1/2+y,1/2+z
x,1/2-y,1/2+z
1/2+x,y,1/2+z
1/2-x,-y,1/2+z
1/2-x,y,1/2+z
1/2+x,-y,1/2+z
1/2+x,1/2+y,z
1/2-x,1/2-y,z
1/2-x,1/2+y,z
1/2+x,1/2-y,z
loop_
_atom_site_type_symbol
_atom_site_label
_atom_site_fract_x
_atom_site_fract_y
_atom_site_fract_z
Si Si1 0.043880 0.664681 0.893950
Si Si2 0.953859 0.836539 0.173866
Si Si3 0.632569 0.160983 0.932395
Si Si4 0.870757 0.660227 0.148638
Si Si5 0.709990 0.838531 0.432164
Si Si6 0.291125 0.663418 0.156357
O O1 0.044769 0.500000 0.928156
O O2 0.043913 0.658836 0.784232
O O3 0.000000 0.729198 0.923259
O O4 0.087460 0.729647 0.920434
O O5 0.915316 0.735790 0.153284
O O6 0.000000 0.791033 0.142550
O O7 0.946647 0.000000 0.142323
O O8 0.638572 0.146162 0.040789
O O9 0.669257 0.258728 0.898615
O O10 0.632957 0.000000 0.892073
O O11 0.871733 0.500000 0.188044
O O12 0.833304 0.757231 0.184924
O O13 0.750000 0.750000 0.405526
O O14 0.709048 0.841503 0.544156
O O15 0.712079 0.000000 0.399789
O O16 0.290031 0.500000 0.188453
O O17 0.250000 0.750000 0.182741
#
# Coordination Sequence:
#
# PCOD9368401 Si02
#       6
#    16  16  16  16  16  16
#     4   8  15  30  51  70  88 118 160 197 229 272
#     4   9  18  33  51  68  89 122 161 196 233 280
#     4   9  17  29  47  71  96 121 153 193 233 272
#     4  10  19  29  45  72 101 125 152 190 236 281
#     4   9  16  26  42  65  94 125 155 187 226 273
#     4   9  16  27  44  66  94 126 158 191 228 273
#
# _framework density 21.618292
#
# number of rings (size 3 to 8) (size 9 to 14) (size 15 to 20)
#    0.000    3.000    0.000    2.500    0.000    5.667 
#    0.000    2.500    0.000    2.500    0.000    4.667 
#    0.000    0.000    0.000    0.000    0.000    0.000 
#
# Total GULP energy -133852.738279 kJ/mol
# GULP energy per Si atom -5577.197428 kJ/mol
# Density = 2.156909 g / cm^3
# Si number density = 21.618292 Si / 1000 Ang^3
#
#
#
# Elastic Constant Matrix: (Units=GPa)
#
#
# Indices 1 2 3 4 5 6 
#
# 1 245.4240 131.9996 -3.8348 0.0000 0.0000 0.0000
# 2 131.9996 161.0572 3.8472 0.0000 0.0000 0.0000
# 3 -3.8348 3.8472 38.2232 0.0000 0.0000 0.0000
# 4 0.0000 0.0000 0.0000 0.0961 0.0000 0.0000
# 5 0.0000 0.0000 0.0000 0.0000 36.1495 0.0000
# 6 0.0000 0.0000 0.0000 0.0000 0.0000 32.1572
#
#
#
# Elastic Compliance Matrix: (Units=1/GPa)
#
#
# Indices 1 2 3 4 5 6 
#
# 1 0.007355 -0.006060 0.001348 0.000000 0.000000 0.000000
# 2 -0.006060 0.011217 -0.001737 0.000000 0.000000 0.000000
# 3 0.001348 -0.001737 0.026472 0.000000 0.000000 0.000000
# 4 0.000000 0.000000 0.000000 10.405338 0.000000 0.000000
# 5 0.000000 0.000000 0.000000 0.000000 0.027663 0.000000
# 6 0.000000 0.000000 0.000000 0.000000 0.000000 0.031097
#
#
# Mechanical properties :
#
#
# Convention : Reuss Voigt Hill
#
# Bulk Modulus (GPa) = 31.10834 78.74761 54.92797
# Shear Modulus (GPa) = 0.47471 34.52673 17.50072
#
# Velocity S-wave (km/s) = 0.46911 4.00072 2.84832
# Velocity P-wave (km/s) = 3.83595 7.60569 6.02333
#
# Compressibility (1/GPa) = 0.03214572
#
# Stress axis : x y z
#
# Youngs Moduli (GPa) = 135.95900 89.14705 37.77553
#
# Poissons Ratio (x) = 0.54026 -0.05092
# Poissons Ratio (y) = 0.82396 0.06562
# Poissons Ratio (z) = -0.18326 0.15485
#
# Static dielectric constant tensor:
#      x y z
#    x 1.792640 0.000000 0.000000 
#    y 0.000000 1.785100 0.000000 
#    z 0.000000 0.000000 1.825450 
# 
# From -- ./inp_files/23701.got.cif
#   From: 2010.05.17/outbox.cif.g08.bks.cpg/sg42_12_cif.got.tgz:23701.got - 2010.06.03 19:03:34.
