data_PCOD9368228
_publ_section_title
;
Structure prediction by ZEFSAII (Michael W. Deem and Ramdas Pophale) SiO2 
 PCOD9368228
Probable space group: F M M 2
;
_chemical_formula_sum "Si O2"
_cell_formula_units_Z 128
_cell_length_a 24.286709
_cell_length_b 14.747474
_cell_length_c 17.042179
_cell_angle_alpha 90.000000
_cell_angle_beta 90.000000
_cell_angle_gamma 90.000000
_cell_volume 6103.956513
_symmetry_space_group_name_H-M "F M M 2"
_symmetry_group_IT_number 42
_symmetry_cell_setting 'orthorhombic'
loop_
_space_group_symop_operation_xyz
x,y,z
-x,-y,z
-x,y,z
x,-y,z
x,1/2+y,1/2+z
-x,1/2-y,1/2+z
-x,1/2+y,1/2+z
x,1/2-y,1/2+z
1/2+x,y,1/2+z
1/2-x,-y,1/2+z
1/2-x,y,1/2+z
1/2+x,-y,1/2+z
1/2+x,1/2+y,z
1/2-x,1/2-y,z
1/2-x,1/2+y,z
1/2+x,1/2-y,z
loop_
_atom_site_type_symbol
_atom_site_label
_atom_site_fract_x
_atom_site_fract_y
_atom_site_fract_z
Si Si1 0.258264 0.640968 0.727420
Si Si2 0.361353 0.835761 0.133756
Si Si3 0.562067 0.132561 0.266259
Si Si4 0.332125 0.400497 0.874372
Si Si5 0.880949 0.241036 0.464751
Si Si6 0.560857 0.902148 0.540264
Si Si7 0.438118 0.658468 0.320282
Si Si8 0.137487 0.372925 0.684678
O O1 0.250000 0.750000 0.731933
O O2 0.304623 0.619774 0.662156
O O3 0.284119 0.611031 0.810125
O O4 0.199550 0.600515 0.704215
O O5 0.413071 0.880772 0.178651
O O6 0.359821 0.735540 0.172205
O O7 0.365386 0.815623 0.041825
O O8 0.500000 0.097275 0.275683
O O9 0.610217 0.100537 0.325259
O O10 0.557532 0.239574 0.285189
O O11 0.326330 0.500000 0.912610
O O12 0.335581 0.311940 0.930330
O O13 0.928422 0.313911 0.488276
O O14 0.903318 0.173816 0.398903
O O15 0.500000 0.893487 0.577125
O O16 0.608280 0.903927 0.605186
O O17 0.561650 0.000000 0.498255
O O18 0.500000 0.624347 0.333065
O O19 0.402750 0.605488 0.256364
#
# Coordination Sequence:
#
# PCOD9368228 Si02
#       8
#    16  16  16  16  16  16  16  16
#     4   9  17  34  52  70  94 127 174 214 244 283
#     4   8  16  28  46  69  94 123 159 201 239 282
#     4   8  15  28  45  65  93 130 167 197 229 281
#     4  10  20  32  48  73 104 135 165 202 254 313
#     4  10  18  30  47  71 103 130 151 187 249 306
#     4  10  20  32  46  67  96 127 156 188 233 292
#     4   9  16  27  45  70  96 120 151 194 242 289
#     4   9  17  31  49  67  88 120 164 205 239 274
#
# _framework density 20.970005
#
# number of rings (size 3 to 8) (size 9 to 14) (size 15 to 20)
#    0.000    2.875    0.000    3.375    0.000    4.750 
#    0.000    9.375    0.000    0.000    0.000    3.500 
#    0.000    0.000    0.000    0.000    0.000    0.000 
#
# Total GULP energy -178291.123970 kJ/mol
# GULP energy per Si atom -5571.597624 kJ/mol
# Density = 2.092228 g / cm^3
# Si number density = 20.970005 Si / 1000 Ang^3
#
#
#
# Elastic Constant Matrix: (Units=GPa)
#
#
# Indices 1 2 3 4 5 6 
#
# 1 70.4483 -9.8326 6.1771 0.0000 0.0000 0.0000
# 2 -9.8326 39.6742 -12.7838 0.0000 0.0000 0.0000
# 3 6.1771 -12.7838 94.4577 0.0000 0.0000 0.0000
# 4 0.0000 0.0000 0.0000 -0.0786 0.0000 0.0000
# 5 0.0000 0.0000 0.0000 0.0000 20.3091 0.0000
# 6 0.0000 0.0000 0.0000 0.0000 0.0000 -13.1591
#
#
#
# Elastic Compliance Matrix: (Units=1/GPa)
#
#
# Indices 1 2 3 4 5 6 
#
# 1 0.014725 0.003491 -0.000490 0.000000 0.000000 0.000000
# 2 0.003491 0.027182 0.003451 0.000000 0.000000 0.000000
# 3 -0.000490 0.003451 0.011086 0.000000 0.000000 0.000000
# 4 0.000000 0.000000 0.000000-12.718515 0.000000 0.000000
# 5 0.000000 0.000000 0.000000 0.000000 0.049239 0.000000
# 6 0.000000 0.000000 0.000000 0.000000 0.000000 -0.075993
#
#
# Mechanical properties :
#
#
# Convention : Reuss Voigt Hill
#
# Bulk Modulus (GPa) = 15.17541 19.07797 17.12669
# Shear Modulus (GPa) = -0.39422 16.14891 7.87734
#
# Velocity S-wave (km/s) = -0.43405 2.77807 1.94027
# Velocity P-wave (km/s) = 2.64598 4.40542 3.63380
#
# Compressibility (1/GPa) = 0.06589606
#
# Stress axis : x y z
#
# Youngs Moduli (GPa) = 67.91125 36.78857 90.20538
#
# Poissons Ratio (x) = -0.12844 0.04424
# Poissons Ratio (y) = -0.23710 -0.31125
# Poissons Ratio (z) = 0.03331 -0.12694
#
# Static dielectric constant tensor:
#      x y z
#    x 1.769180 0.000000 0.000000 
#    y 0.000000 1.812080 0.000000 
#    z 0.000000 0.000000 1.753880 
# 
# From -- ./inp_files/22329.got.cif
#   From: 2010.05.17/outbox.cif.g08.bks.cpg/sg42_12_cif.got.tgz:22329.got - 2010.06.03 19:03:34.
