data_PCOD9368103
_publ_section_title
;
Structure prediction by ZEFSAII (Michael W. Deem and Ramdas Pophale) SiO2 
 PCOD9368103
Probable space group: F M M 2
;
_chemical_formula_sum "Si O2"
_cell_formula_units_Z 116
_cell_length_a 14.889528
_cell_length_b 15.248425
_cell_length_c 23.561178
_cell_angle_alpha 90.000000
_cell_angle_beta 90.000000
_cell_angle_gamma 90.000000
_cell_volume 5349.373465
_symmetry_space_group_name_H-M "F M M 2"
_symmetry_group_IT_number 42
_symmetry_cell_setting 'orthorhombic'
loop_
_space_group_symop_operation_xyz
x,y,z
-x,-y,z
-x,y,z
x,-y,z
x,1/2+y,1/2+z
-x,1/2-y,1/2+z
-x,1/2+y,1/2+z
x,1/2-y,1/2+z
1/2+x,y,1/2+z
1/2-x,-y,1/2+z
1/2-x,y,1/2+z
1/2+x,-y,1/2+z
1/2+x,1/2+y,z
1/2-x,1/2-y,z
1/2-x,1/2+y,z
1/2+x,1/2-y,z
loop_
_atom_site_type_symbol
_atom_site_label
_atom_site_fract_x
_atom_site_fract_y
_atom_site_fract_z
Si Si1 0.500000 0.000000 0.253971
Si Si2 0.399886 0.706464 0.290364
Si Si3 0.391880 0.897644 0.109973
Si Si4 0.354579 0.402886 0.188561
Si Si5 0.609696 0.281213 0.503549
Si Si6 0.890656 0.100115 0.399102
Si Si7 0.159803 0.134919 0.730456
Si Si8 0.609388 0.398752 0.059240
O O1 0.420605 0.926312 0.249878
O O2 0.500000 0.735228 0.308696
O O3 0.407122 0.661190 0.229196
O O4 0.367535 0.637693 0.337255
O O5 0.338921 0.789196 0.276661
O O6 0.500000 0.903908 0.108259
O O7 0.361746 0.846234 0.054428
O O8 0.367519 0.842221 0.165518
O O9 0.359737 0.000000 0.114382
O O10 0.393614 0.500000 0.190250
O O11 0.257167 0.403695 0.218290
O O12 0.352063 0.379397 0.122147
O O13 0.500000 0.280621 0.503152
O O14 0.639112 0.328788 0.445830
O O15 0.636737 0.180957 0.517495
O O16 0.000000 0.095911 0.402257
O O17 0.858663 0.000000 0.408399
O O18 0.500000 0.396350 0.063703
O O19 0.633695 0.500000 0.043733
#
# Coordination Sequence:
#
# PCOD9368103 Si02
#       8
#     4  16  16  16  16  16  16  16
#     4  12  20  40  60  80 116 160 192 248 308 346
#     4  11  22  35  56  80 116 154 198 243 299 355
#     4  10  16  27  48  78 108 135 168 219 283 346
#     4  11  22  35  55  85 116 155 196 238 291 354
#     4   9  17  29  52  78 106 144 190 234 284 341
#     4   9  18  34  54  81 112 146 193 251 297 346
#     4  12  21  37  57  83 118 152 193 245 298 358
#     4   9  18  33  53  80 119 156 193 237 289 350
#
# _framework density 21.684781999999998
#
# number of rings (size 3 to 8) (size 9 to 14) (size 15 to 20)
#    0.000    1.793    2.759    2.483    0.000    4.138 
#    0.000    0.000    1.517    3.310    0.000    1.931 
#    0.000    0.000    0.000    0.000    0.000    0.000 
#
# Total GULP energy -161489.403360 kJ/mol
# GULP energy per Si atom -5568.600116 kJ/mol
# Density = 2.163543 g / cm^3
# Si number density = 21.684782 Si / 1000 Ang^3
#
#
#
# Elastic Constant Matrix: (Units=GPa)
#
#
# Indices 1 2 3 4 5 6 
#
# 1 74.9061 28.1573 0.2883 0.0000 0.0000 0.0000
# 2 28.1573 142.1092 82.5096 0.0000 0.0000 0.0000
# 3 0.2883 82.5096 91.0655 0.0000 0.0000 0.0000
# 4 0.0000 0.0000 0.0000 15.4085 0.0000 0.0000
# 5 0.0000 0.0000 0.0000 0.0000 7.6539 0.0000
# 6 0.0000 0.0000 0.0000 0.0000 0.0000 12.4970
#
#
#
# Elastic Compliance Matrix: (Units=1/GPa)
#
#
# Indices 1 2 3 4 5 6 
#
# 1 0.015785 -0.006538 0.005874 0.000000 0.000000 0.000000
# 2 -0.006538 0.017555 -0.015885 0.000000 0.000000 0.000000
# 3 0.005874 -0.015885 0.025355 0.000000 0.000000 0.000000
# 4 0.000000 0.000000 0.000000 0.064899 0.000000 0.000000
# 5 0.000000 0.000000 0.000000 0.000000 0.130653 0.000000
# 6 0.000000 0.000000 0.000000 0.000000 0.000000 0.080019
#
#
# Mechanical properties :
#
#
# Convention : Reuss Voigt Hill
#
# Bulk Modulus (GPa) = 39.06750 58.88790 48.97770
# Shear Modulus (GPa) = 13.30146 20.25358 16.77752
#
# Velocity S-wave (km/s) = 2.47938 3.05946 2.78456
# Velocity P-wave (km/s) = 5.12363 6.30045 5.74227
#
# Compressibility (1/GPa) = 0.02559672
#
# Stress axis : x y z
#
# Youngs Moduli (GPa) = 63.35099 56.96254 39.43940
#
# Poissons Ratio (x) = 0.37242 -0.23166
# Poissons Ratio (y) = 0.41419 0.62651
# Poissons Ratio (z) = -0.37211 0.90487
#
# Static dielectric constant tensor:
#      x y z
#    x 1.845140 0.000000 0.000000 
#    y 0.000000 1.804040 0.000000 
#    z 0.000000 0.000000 1.761670 
# 
# From -- ./inp_files/29953.got.cif
#   From: 2010.05.17/outbox.cif.g08.bks.cpg/sg42_15_cif.got.tgz:29953.got - 2010.06.03 19:03:34.
