data_PCOD9368618
_publ_section_title
;
Structure prediction by ZEFSAII (Michael W. Deem and Ramdas Pophale) SiO2 
 PCOD9368618
Probable space group: F M M 2
;
_chemical_formula_sum "Si O2"
_cell_formula_units_Z 96
_cell_length_a 14.786335
_cell_length_b 20.550274
_cell_length_c 14.918949
_cell_angle_alpha 90.000000
_cell_angle_beta 90.000000
_cell_angle_gamma 90.000000
_cell_volume 4533.320116
_symmetry_space_group_name_H-M "F M M 2"
_symmetry_group_IT_number 42
_symmetry_cell_setting 'orthorhombic'
loop_
_space_group_symop_operation_xyz
x,y,z
-x,-y,z
-x,y,z
x,-y,z
x,1/2+y,1/2+z
-x,1/2-y,1/2+z
-x,1/2+y,1/2+z
x,1/2-y,1/2+z
1/2+x,y,1/2+z
1/2-x,-y,1/2+z
1/2-x,y,1/2+z
1/2+x,-y,1/2+z
1/2+x,1/2+y,z
1/2-x,1/2-y,z
1/2-x,1/2+y,z
1/2+x,1/2-y,z
loop_
_atom_site_type_symbol
_atom_site_label
_atom_site_fract_x
_atom_site_fract_y
_atom_site_fract_z
Si Si1 0.609997 0.573457 0.746300
Si Si2 0.889891 0.118003 0.942765
Si Si3 0.602367 0.679940 0.274082
Si Si4 0.159881 0.206624 0.658131
Si Si5 0.109436 0.268003 0.955373
Si Si6 0.389559 0.427652 0.137226
O O1 0.500000 0.579854 0.740061
O O2 0.633267 0.500000 0.717323
O O3 0.635810 0.583189 0.850814
O O4 0.653143 0.633067 0.692104
O O5 0.861451 0.193250 0.943676
O O6 0.000000 0.116654 0.944785
O O7 0.858303 0.086723 0.036009
O O8 0.500000 0.657294 0.291166
O O9 0.597514 0.748917 0.222629
O O10 0.645902 0.691244 0.370931
O O11 0.642136 0.626900 0.206579
O O12 0.250000 0.250000 0.667144
O O13 0.134392 0.208564 0.553871
O O14 0.000000 0.267854 0.949754
O O15 0.500000 0.424290 0.133996
O O16 0.364144 0.500000 0.165179
#
# Coordination Sequence:
#
# PCOD9368618 Si02
#       6
#    16  16  16  16  16  16
#     4  10  20  37  63  93 123 157 205 261 309 356
#     4   9  15  27  54  88 116 142 185 253 308 342
#     4  10  19  35  58  82 110 148 196 249 297 348
#     4  12  24  37  56  86 120 161 194 241 303 373
#     4  10  19  34  58  84 111 147 201 255 294 347
#     4   9  16  27  48  82 117 143 177 231 296 354
#
# _framework density 21.176532999999999
#
# number of rings (size 3 to 8) (size 9 to 14) (size 15 to 20)
#    0.000    2.000    3.333    2.000    0.000    2.667 
#    0.000    1.667    0.000    3.000    0.000    0.000 
#    0.000    0.000    0.000    0.000    0.000    0.000 
#
# Total GULP energy -133989.157092 kJ/mol
# GULP energy per Si atom -5582.881546 kJ/mol
# Density = 2.112833 g / cm^3
# Si number density = 21.176533 Si / 1000 Ang^3
#
#
#
# Elastic Constant Matrix: (Units=GPa)
#
#
# Indices 1 2 3 4 5 6 
#
# 1 51.5942 20.6562 20.9440 0.0000 0.0000 0.0000
# 2 20.6562 187.3358 78.0397 0.0000 0.0000 0.0000
# 3 20.9440 78.0397 138.3180 0.0000 0.0000 0.0000
# 4 0.0000 0.0000 0.0000 27.5688 0.0000 0.0000
# 5 0.0000 0.0000 0.0000 0.0000 15.2839 0.0000
# 6 0.0000 0.0000 0.0000 0.0000 0.0000 7.9742
#
#
#
# Elastic Compliance Matrix: (Units=1/GPa)
#
#
# Indices 1 2 3 4 5 6 
#
# 1 0.020887 -0.001288 -0.002436 0.000000 0.000000 0.000000
# 2 -0.001288 0.007058 -0.003787 0.000000 0.000000 0.000000
# 3 -0.002436 -0.003787 0.009735 0.000000 0.000000 0.000000
# 4 0.000000 0.000000 0.000000 0.036273 0.000000 0.000000
# 5 0.000000 0.000000 0.000000 0.000000 0.065428 0.000000
# 6 0.000000 0.000000 0.000000 0.000000 0.000000 0.125405
#
#
# Mechanical properties :
#
#
# Convention : Reuss Voigt Hill
#
# Bulk Modulus (GPa) = 44.13570 68.50307 56.31938
# Shear Modulus (GPa) = 17.39979 27.33926 22.36952
#
# Velocity S-wave (km/s) = 2.86956 3.59697 3.25366
# Velocity P-wave (km/s) = 5.64502 7.04768 6.38498
#
# Compressibility (1/GPa) = 0.02265740
#
# Stress axis : x y z
#
# Youngs Moduli (GPa) = 47.87767 141.69184 102.72130
#
# Poissons Ratio (x) = 0.18255 0.25020
# Poissons Ratio (y) = 0.06168 0.38899
# Poissons Ratio (z) = 0.11662 0.53656
#
# Static dielectric constant tensor:
#      x y z
#    x 1.830150 0.000000 0.000000 
#    y 0.000000 1.738140 0.000000 
#    z 0.000000 0.000000 1.748990 
# 
# From -- ./inp_files/13976.got.cif
#   From: 2010.05.17/outbox.cif.g08.bks.cpg/sg42_7_cif.got.tgz:13976.got - 2010.06.03 19:03:34.
