data_PCOD9368908
_publ_section_title
;
Structure prediction by ZEFSAII (Michael W. Deem and Ramdas Pophale) SiO2 
 PCOD9368908
Probable space group: F M M 2
;
_chemical_formula_sum "Si O2"
_cell_formula_units_Z 112
_cell_length_a 20.722795
_cell_length_b 21.667118
_cell_length_c 12.833845
_cell_angle_alpha 90.000000
_cell_angle_beta 90.000000
_cell_angle_gamma 90.000000
_cell_volume 5762.438045
_symmetry_space_group_name_H-M "F M M 2"
_symmetry_group_IT_number 42
_symmetry_cell_setting 'orthorhombic'
loop_
_space_group_symop_operation_xyz
x,y,z
-x,-y,z
-x,y,z
x,-y,z
x,1/2+y,1/2+z
-x,1/2-y,1/2+z
-x,1/2+y,1/2+z
x,1/2-y,1/2+z
1/2+x,y,1/2+z
1/2-x,-y,1/2+z
1/2-x,y,1/2+z
1/2+x,-y,1/2+z
1/2+x,1/2+y,z
1/2-x,1/2-y,z
1/2-x,1/2+y,z
1/2+x,1/2-y,z
loop_
_atom_site_type_symbol
_atom_site_label
_atom_site_fract_x
_atom_site_fract_y
_atom_site_fract_z
Si Si1 0.672503 0.145705 0.321910
Si Si2 0.071358 0.150022 0.166889
Si Si3 0.246732 0.431050 0.665819
Si Si4 0.074896 0.428921 0.462384
Si Si5 0.370860 0.429228 0.327599
Si Si6 0.286651 0.651041 0.478118
Si Si7 0.326551 0.741209 0.648301
O O1 0.699316 0.091932 0.246502
O O2 0.618374 0.116212 0.393993
O O3 0.733122 0.168579 0.392166
O O4 0.649540 0.198286 0.242899
O O5 0.076452 0.096921 0.079488
O O6 0.077053 0.116560 0.278393
O O7 0.128793 0.198837 0.149722
O O8 0.000000 0.178802 0.155360
O O9 0.258387 0.500000 0.627544
O O10 0.182529 0.430494 0.734911
O O11 0.248384 0.384784 0.569397
O O12 0.097792 0.500000 0.458675
O O13 0.000000 0.427579 0.428458
O O14 0.390465 0.500000 0.348003
O O15 0.335995 0.396493 0.424525
O O16 0.324208 0.706049 0.536822
O O17 0.250000 0.750000 0.669948
#
# Coordination Sequence:
#
# PCOD9368908 Si02
#       7
#    16  16  16  16  16  16  16
#     4  10  20  34  55  82 112 146 186 231 281 333
#     4  11  24  40  58  82 112 147 188 234 281 334
#     4   9  17  30  52  84 117 144 177 228 283 332
#     4  10  21  37  58  83 110 144 187 235 288 341
#     4  10  20  35  57  84 112 145 185 229 281 336
#     4  10  20  34  55  84 114 146 185 230 280 332
#     4  11  23  39  58  83 117 153 192 233 278 334
#
# _framework density 19.436216999999999
#
# number of rings (size 3 to 8) (size 9 to 14) (size 15 to 20)
#    0.000    1.857    0.000    5.571    0.000    8.286 
#    0.000    2.143    0.000    0.857    0.000    0.000 
#    0.000    0.000    0.000    0.000    0.000    0.000 
#
# Total GULP energy -156314.752750 kJ/mol
# GULP energy per Si atom -5582.669741 kJ/mol
# Density = 1.939198 g / cm^3
# Si number density = 19.436217 Si / 1000 Ang^3
#
#
#
# Elastic Constant Matrix: (Units=GPa)
#
#
# Indices 1 2 3 4 5 6 
#
# 1 68.7159 40.3268 29.9365 0.0000 0.0000 0.0000
# 2 40.3268 110.4179 32.3779 0.0000 0.0000 0.0000
# 3 29.9365 32.3779 63.0598 0.0000 0.0000 0.0000
# 4 0.0000 0.0000 0.0000 31.9914 0.0000 0.0000
# 5 0.0000 0.0000 0.0000 0.0000 18.2234 0.0000
# 6 0.0000 0.0000 0.0000 0.0000 0.0000 17.5133
#
#
#
# Elastic Compliance Matrix: (Units=1/GPa)
#
#
# Indices 1 2 3 4 5 6 
#
# 1 0.020893 -0.005559 -0.007064 0.000000 0.000000 0.000000
# 2 -0.005559 0.012141 -0.003595 0.000000 0.000000 0.000000
# 3 -0.007064 -0.003595 0.021057 0.000000 0.000000 0.000000
# 4 0.000000 0.000000 0.000000 0.031258 0.000000 0.000000
# 5 0.000000 0.000000 0.000000 0.000000 0.054875 0.000000
# 6 0.000000 0.000000 0.000000 0.000000 0.000000 0.057099
#
#
# Mechanical properties :
#
#
# Convention : Reuss Voigt Hill
#
# Bulk Modulus (GPa) = 46.17855 49.71957 47.94906
# Shear Modulus (GPa) = 21.09910 22.84909 21.97410
#
# Velocity S-wave (km/s) = 3.29835 3.43241 3.36605
# Velocity P-wave (km/s) = 6.19000 6.43001 6.31115
#
# Compressibility (1/GPa) = 0.02165508
#
# Stress axis : x y z
#
# Youngs Moduli (GPa) = 47.86392 82.36688 47.48966
#
# Poissons Ratio (x) = 0.45787 0.33547
# Poissons Ratio (y) = 0.26607 0.17071
# Poissons Ratio (z) = 0.33812 0.29608
#
# Static dielectric constant tensor:
#      x y z
#    x 1.699770 0.000000 0.000000 
#    y 0.000000 1.708680 0.000000 
#    z 0.000000 0.000000 1.679200 
# 
# From -- ./inp_files/9672.got.cif
#   From: 2010.05.17/outbox.cif.g08.bks.cpg/sg42_5_cif.got.tgz:9672.got - 2010.06.03 19:03:34.
