data_PCOD9368921
_publ_section_title
;
Structure prediction by ZEFSAII (Michael W. Deem and Ramdas Pophale) SiO2 
 PCOD9368921
Probable space group: F M M 2
;
_chemical_formula_sum "Si O2"
_cell_formula_units_Z 80
_cell_length_a 29.562646
_cell_length_b 8.871129
_cell_length_c 15.966230
_cell_angle_alpha 90.000000
_cell_angle_beta 90.000000
_cell_angle_gamma 90.000000
_cell_volume 4187.208421
_symmetry_space_group_name_H-M "F M M 2"
_symmetry_group_IT_number 42
_symmetry_cell_setting 'orthorhombic'
loop_
_space_group_symop_operation_xyz
x,y,z
-x,-y,z
-x,y,z
x,-y,z
x,1/2+y,1/2+z
-x,1/2-y,1/2+z
-x,1/2+y,1/2+z
x,1/2-y,1/2+z
1/2+x,y,1/2+z
1/2-x,-y,1/2+z
1/2-x,y,1/2+z
1/2+x,-y,1/2+z
1/2+x,1/2+y,z
1/2-x,1/2-y,z
1/2-x,1/2+y,z
1/2+x,1/2-y,z
loop_
_atom_site_type_symbol
_atom_site_label
_atom_site_fract_x
_atom_site_fract_y
_atom_site_fract_z
Si Si1 0.550888 0.680213 0.835810
Si Si2 0.200268 0.818148 0.238677
Si Si3 0.144754 0.681120 0.572555
Si Si4 0.858610 0.180137 0.399674
Si Si5 0.050525 0.680526 0.650952
O O1 0.500000 0.720482 0.864396
O O2 0.555250 0.500000 0.839345
O O3 0.591120 0.755399 0.886731
O O4 0.554877 0.736558 0.739881
O O5 0.250000 0.750000 0.240639
O O6 0.174008 0.775294 0.153667
O O7 0.171350 0.771124 0.319949
O O8 0.202910 0.000000 0.239820
O O9 0.147111 0.500000 0.563161
O O10 0.159964 0.758524 0.487246
O O11 0.092516 0.721701 0.592660
O O12 0.860120 0.000000 0.400307
O O13 0.053914 0.500000 0.666520
O O14 0.000000 0.710632 0.617161
#
# Coordination Sequence:
#
# PCOD9368921 Si02
#       5
#    16  16  16  16  16
#     4  10  20  34  56  87 121 158 200 242 288 346
#     4  10  23  43  64  86 117 153 195 245 302 357
#     4  10  21  39  60  88 122 155 195 241 291 353
#     4  11  23  40  61  89 121 156 199 245 293 351
#     4   9  17  33  58  84 117 159 195 234 289 349
#
# _framework density 19.105806999999999
#
# number of rings (size 3 to 8) (size 9 to 14) (size 15 to 20)
#    0.000    2.000    2.000    1.200    0.000    6.000 
#    0.000    6.000    0.000    0.000    0.000    0.000 
#    0.000    0.000    0.000    0.000    0.000    0.000 
#
# Total GULP energy -111694.695240 kJ/mol
# GULP energy per Si atom -5584.734762 kJ/mol
# Density = 1.906232 g / cm^3
# Si number density = 19.105807 Si / 1000 Ang^3
#
#
#
# Elastic Constant Matrix: (Units=GPa)
#
#
# Indices 1 2 3 4 5 6 
#
# 1 128.0932 38.8470 79.7024 0.0000 0.0000 0.0000
# 2 38.8470 24.2417 41.9221 0.0000 0.0000 0.0000
# 3 79.7024 41.9221 152.7109 0.0000 0.0000 0.0000
# 4 0.0000 0.0000 0.0000 29.4421 0.0000 0.0000
# 5 0.0000 0.0000 0.0000 0.0000 0.2323 0.0000
# 6 0.0000 0.0000 0.0000 0.0000 0.0000 30.8760
#
#
#
# Elastic Compliance Matrix: (Units=1/GPa)
#
#
# Indices 1 2 3 4 5 6 
#
# 1 0.015653 -0.020857 -0.002444 0.000000 0.000000 0.000000
# 2 -0.020857 0.106327 -0.018303 0.000000 0.000000 0.000000
# 3 -0.002444 -0.018303 0.012848 0.000000 0.000000 0.000000
# 4 0.000000 0.000000 0.000000 0.033965 0.000000 0.000000
# 5 0.000000 0.000000 0.000000 0.000000 4.305140 0.000000
# 6 0.000000 0.000000 0.000000 0.000000 0.000000 0.032388
#
#
# Mechanical properties :
#
#
# Convention : Reuss Voigt Hill
#
# Bulk Modulus (GPa) = 19.37240 69.55433 44.46337
# Shear Modulus (GPa) = 1.08537 21.74835 11.41686
#
# Velocity S-wave (km/s) = 0.75453 3.37755 2.44716
# Velocity P-wave (km/s) = 3.30464 7.18987 5.59531
#
# Compressibility (1/GPa) = 0.05161983
#
# Stress axis : x y z
#
# Youngs Moduli (GPa) = 63.88629 9.40495 77.83170
#
# Poissons Ratio (x) = 0.19616 0.19020
# Poissons Ratio (y) = 1.33251 1.42455
# Poissons Ratio (z) = 0.15612 0.17214
#
# Static dielectric constant tensor:
#      x y z
#    x 1.659100 0.000000 0.000000 
#    y 0.000000 1.638320 0.000000 
#    z 0.000000 0.000000 1.664810 
# 
# From -- ./inp_files/18185.got.cif
#   From: 2010.05.17/outbox.cif.g08.bks.cpg/sg42_10_cif.got.tgz:18185.got - 2010.06.03 19:03:34.
