data_PCOD9368580
_publ_section_title
;
Structure prediction by ZEFSAII (Michael W. Deem and Ramdas Pophale) SiO2 
 PCOD9368580
Probable space group: F M M 2
;
_chemical_formula_sum "Si O2"
_cell_formula_units_Z 112
_cell_length_a 12.786226
_cell_length_b 27.852281
_cell_length_c 13.292550
_cell_angle_alpha 90.000000
_cell_angle_beta 90.000000
_cell_angle_gamma 90.000000
_cell_volume 4733.816806
_symmetry_space_group_name_H-M "F M M 2"
_symmetry_group_IT_number 42
_symmetry_cell_setting 'orthorhombic'
loop_
_space_group_symop_operation_xyz
x,y,z
-x,-y,z
-x,y,z
x,-y,z
x,1/2+y,1/2+z
-x,1/2-y,1/2+z
-x,1/2+y,1/2+z
x,1/2-y,1/2+z
1/2+x,y,1/2+z
1/2-x,-y,1/2+z
1/2-x,y,1/2+z
1/2+x,-y,1/2+z
1/2+x,1/2+y,z
1/2-x,1/2-y,z
1/2-x,1/2+y,z
1/2+x,1/2-y,z
loop_
_atom_site_type_symbol
_atom_site_label
_atom_site_fract_x
_atom_site_fract_y
_atom_site_fract_z
Si Si1 0.197449 0.654656 0.981130
Si Si2 0.890094 0.443516 0.232110
Si Si3 0.164718 0.651456 0.769348
Si Si4 0.383288 0.683995 0.682445
Si Si5 0.615891 0.712428 0.079803
Si Si6 0.342900 0.555096 0.178958
Si Si7 0.683729 0.444077 0.957531
O O1 0.140996 0.670959 0.879407
O O2 0.126145 0.654554 0.078882
O O3 0.295944 0.689967 0.006837
O O4 0.237998 0.600855 0.959676
O O5 0.899208 0.500000 0.216489
O O6 0.781815 0.434016 0.176466
O O7 0.875777 0.437453 0.352298
O O8 0.000000 0.420704 0.201444
O O9 0.290085 0.663772 0.752791
O O10 0.115143 0.676345 0.673498
O O11 0.126785 0.596422 0.756096
O O12 0.500000 0.684237 0.726309
O O13 0.362370 0.737171 0.636500
O O14 0.500000 0.715427 0.033152
O O15 0.360659 0.500000 0.211068
O O16 0.378147 0.560162 0.063402
O O17 0.723532 0.500000 0.956924
#
# Coordination Sequence:
#
# PCOD9368580 Si02
#       7
#    16  16  16  16  16  16  16
#     4  11  21  37  61  88 115 150 192 233 281 342
#     4   9  18  32  52  80 110 143 189 239 278 320
#     4  11  21  37  61  88 115 150 192 233 281 342
#     4  10  23  42  60  83 116 148 186 240 294 343
#     4  10  23  42  60  83 116 148 186 240 294 343
#     4  10  19  34  54  81 117 154 186 226 281 333
#     4  10  19  34  54  81 117 154 186 226 281 333
#
# _framework density 23.659555000000001
#
# number of rings (size 3 to 8) (size 9 to 14) (size 15 to 20)
#    0.000    1.857    4.286    1.714    0.000    4.571 
#    0.000    2.857    0.000    0.857    0.000    2.000 
#    0.000    0.000    0.000    0.000    0.000    0.000 
#
# Total GULP energy -156044.127519 kJ/mol
# GULP energy per Si atom -5573.004554 kJ/mol
# Density = 2.360570 g / cm^3
# Si number density = 23.659555 Si / 1000 Ang^3
#
#
#
# Elastic Constant Matrix: (Units=GPa)
#
#
# Indices 1 2 3 4 5 6 
#
# 1 103.0628 -0.7718 -3.6704 0.0000 0.0000 0.0000
# 2 -0.7718 138.9767 -4.1843 0.0000 0.0000 0.0000
# 3 -3.6704 -4.1843 80.5227 0.0000 0.0000 0.0000
# 4 0.0000 0.0000 0.0000 10.1796 0.0000 0.0000
# 5 0.0000 0.0000 0.0000 0.0000 25.3629 0.0000
# 6 0.0000 0.0000 0.0000 0.0000 0.0000 -3.1282
#
#
#
# Elastic Compliance Matrix: (Units=1/GPa)
#
#
# Indices 1 2 3 4 5 6 
#
# 1 0.009719 0.000067 0.000447 0.000000 0.000000 0.000000
# 2 0.000067 0.007207 0.000378 0.000000 0.000000 0.000000
# 3 0.000447 0.000378 0.012459 0.000000 0.000000 0.000000
# 4 0.000000 0.000000 0.000000 0.098235 0.000000 0.000000
# 5 0.000000 0.000000 0.000000 0.000000 0.039428 0.000000
# 6 0.000000 0.000000 0.000000 0.000000 0.000000 -0.319672
#
#
# Mechanical properties :
#
#
# Convention : Reuss Voigt Hill
#
# Bulk Modulus (GPa) = 32.08385 33.92324 33.00355
# Shear Modulus (GPa) = -34.71810 28.56210 -3.07800
#
# Velocity S-wave (km/s) = -3.83483 3.47826 -1.14183
# Velocity P-wave (km/s) = 2.45312 5.52271 3.49875
#
# Compressibility (1/GPa) = 0.03116833
#
# Stress axis : x y z
#
# Youngs Moduli (GPa) = 102.88879 138.75024 80.26433
#
# Poissons Ratio (x) = -0.00935 -0.03584
# Poissons Ratio (y) = -0.00694 -0.03031
# Poissons Ratio (z) = -0.04594 -0.05239
#
# Static dielectric constant tensor:
#      x y z
#    x 2.006410 0.000000 0.000000 
#    y 0.000000 1.983710 0.000000 
#    z 0.000000 0.000000 1.844000 
# 
# From -- ./inp_files/14386.got.cif
#   From: 2010.05.17/outbox.cif.g08.bks.cpg/sg42_8_cif.got.tgz:14386.got - 2010.06.03 19:03:34.
