data_PCOD9368575
_publ_section_title
;
Structure prediction by ZEFSAII (Michael W. Deem and Ramdas Pophale) SiO2 
 PCOD9368575
Probable space group: F M M 2
;
_chemical_formula_sum "Si O2"
_cell_formula_units_Z 80
_cell_length_a 10.041740
_cell_length_b 16.501911
_cell_length_c 26.543698
_cell_angle_alpha 90.000000
_cell_angle_beta 90.000000
_cell_angle_gamma 90.000000
_cell_volume 4398.500448
_symmetry_space_group_name_H-M "F M M 2"
_symmetry_group_IT_number 42
_symmetry_cell_setting 'orthorhombic'
loop_
_space_group_symop_operation_xyz
x,y,z
-x,-y,z
-x,y,z
x,-y,z
x,1/2+y,1/2+z
-x,1/2-y,1/2+z
-x,1/2+y,1/2+z
x,1/2-y,1/2+z
1/2+x,y,1/2+z
1/2-x,-y,1/2+z
1/2-x,y,1/2+z
1/2+x,-y,1/2+z
1/2+x,1/2+y,z
1/2-x,1/2-y,z
1/2-x,1/2+y,z
1/2+x,1/2-y,z
loop_
_atom_site_type_symbol
_atom_site_label
_atom_site_fract_x
_atom_site_fract_y
_atom_site_fract_z
Si Si1 0.780514 0.844485 0.259980
Si Si2 0.000000 0.597870 0.837535
Si Si3 0.500000 0.597778 0.182820
Si Si4 0.000000 0.405211 0.290315
Si Si5 0.500000 0.599029 0.903486
Si Si6 0.500000 0.901000 0.955080
Si Si7 0.500000 0.901252 0.566903
Si Si8 0.786707 0.598890 0.485722
O O1 0.750000 0.750000 0.260117
O O2 0.635742 0.884228 0.262267
O O3 0.870036 0.870101 0.308139
O O4 0.870788 0.870494 0.212716
O O5 0.000000 0.500000 0.834036
O O6 0.000000 0.620959 0.896052
O O7 0.500000 0.500000 0.185438
O O8 0.500000 0.624224 0.124734
O O9 0.000000 0.367970 0.346872
O O10 0.000000 0.500000 0.298239
O O11 0.500000 0.500000 0.902554
O O12 0.371102 0.622647 0.936195
O O13 0.364353 0.872586 0.981186
O O14 0.500000 0.000000 0.956493
O O15 0.629114 0.875754 0.534549
O O16 0.500000 0.000000 0.566956
O O17 0.784771 0.500000 0.486107
#
# Coordination Sequence:
#
# PCOD9368575 Si02
#       8
#    16   8   8   8   8   8   8  16
#     4  11  22  35  50  73 104 137 171 212 260 309
#     4  10  19  34  54  78 108 146 177 201 242 306
#     4  10  20  38  58  75  97 134 177 219 265 316
#     4  11  19  30  50  76 100 129 169 214 248 287
#     4   8  14  23  39  64  97 128 157 193 241 293
#     4   9  15  23  43  74 107 133 159 198 246 292
#     4   8  15  28  48  69  94 126 163 207 259 304
#     4   8  13  23  39  68 102 127 153 197 250 299
#
# _framework density 18.188016999999999
#
# number of rings (size 3 to 8) (size 9 to 14) (size 15 to 20)
#    0.000    2.600    0.000    6.000    0.000    3.200 
#    0.000    1.000    0.000    3.600    0.000   21.000 
#    0.000    0.000    0.000    0.000    0.000    0.000 
#
# Total GULP energy -111528.405108 kJ/mol
# GULP energy per Si atom -5576.420255 kJ/mol
# Density = 1.814662 g / cm^3
# Si number density = 18.188017 Si / 1000 Ang^3
#
#
#
# Elastic Constant Matrix: (Units=GPa)
#
#
# Indices 1 2 3 4 5 6 
#
# 1 204.2750 23.3842 93.2201 0.0000 0.0000 0.0000
# 2 23.3842 41.0843 20.2832 0.0000 0.0000 0.0000
# 3 93.2201 20.2832 146.3960 0.0000 0.0000 0.0000
# 4 0.0000 0.0000 0.0000 -5.0306 0.0000 0.0000
# 5 0.0000 0.0000 0.0000 0.0000 -3.2222 0.0000
# 6 0.0000 0.0000 0.0000 0.0000 0.0000 33.0817
#
#
#
# Elastic Compliance Matrix: (Units=1/GPa)
#
#
# Indices 1 2 3 4 5 6 
#
# 1 0.007040 -0.001925 -0.004216 0.000000 0.000000 0.000000
# 2 -0.001925 0.026654 -0.002467 0.000000 0.000000 0.000000
# 3 -0.004216 -0.002467 0.009857 0.000000 0.000000 0.000000
# 4 0.000000 0.000000 0.000000 -0.198785 0.000000 0.000000
# 5 0.000000 0.000000 0.000000 0.000000 -0.310344 0.000000
# 6 0.000000 0.000000 0.000000 0.000000 0.000000 0.030228
#
#
# Mechanical properties :
#
#
# Convention : Reuss Voigt Hill
#
# Bulk Modulus (GPa) = 37.97313 73.94781 55.96047
# Shear Modulus (GPa) = -12.21433 21.95697 4.87132
#
# Velocity S-wave (km/s) = -2.59426 3.47828 1.63833
# Velocity P-wave (km/s) = 3.45686 7.54168 5.86629
#
# Compressibility (1/GPa) = 0.02633441
#
# Stress axis : x y z
#
# Youngs Moduli (GPa) = 142.05227 37.51788 101.44992
#
# Poissons Ratio (x) = 0.07224 0.42770
# Poissons Ratio (y) = 0.27351 0.25026
# Poissons Ratio (z) = 0.59887 0.09255
#
# Static dielectric constant tensor:
#      x y z
#    x 1.689620 0.000000 0.000000 
#    y 0.000000 1.589270 0.000000 
#    z 0.000000 0.000000 1.612030 
# 
# From -- ./inp_files/33601.got.cif
#   From: 2010.05.17/outbox.cif.g08.bks.cpg/sg42_17_cif.got.tgz:33601.got - 2010.06.03 19:03:34.
