data_PCOD9368365
_publ_section_title
;
Structure prediction by ZEFSAII (Michael W. Deem and Ramdas Pophale) SiO2 
 PCOD9368365
Probable space group: F M M 2
;
_chemical_formula_sum "Si O2"
_cell_formula_units_Z 56
_cell_length_a 14.161315
_cell_length_b 5.351026
_cell_length_c 34.629820
_cell_angle_alpha 90.000000
_cell_angle_beta 90.000000
_cell_angle_gamma 90.000000
_cell_volume 2624.163428
_symmetry_space_group_name_H-M "F M M 2"
_symmetry_group_IT_number 42
_symmetry_cell_setting 'orthorhombic'
loop_
_space_group_symop_operation_xyz
x,y,z
-x,-y,z
-x,y,z
x,-y,z
x,1/2+y,1/2+z
-x,1/2-y,1/2+z
-x,1/2+y,1/2+z
x,1/2-y,1/2+z
1/2+x,y,1/2+z
1/2-x,-y,1/2+z
1/2-x,y,1/2+z
1/2+x,-y,1/2+z
1/2+x,1/2+y,z
1/2-x,1/2-y,z
1/2-x,1/2+y,z
1/2+x,1/2-y,z
loop_
_atom_site_type_symbol
_atom_site_label
_atom_site_fract_x
_atom_site_fract_y
_atom_site_fract_z
Si Si1 0.858816 0.500000 0.666538
Si Si2 0.809179 0.000000 0.422591
Si Si3 0.386310 0.000000 0.288702
Si Si4 0.314126 0.000000 0.576873
Si Si5 0.852673 0.500000 0.200251
Si Si6 0.386012 0.000000 0.836169
Si Si7 0.000000 0.500000 0.523536
Si Si8 0.500000 0.500000 0.472253
O O1 0.854920 0.500000 0.620518
O O2 0.899726 0.749762 0.684748
O O3 0.750306 0.500000 0.680898
O O4 0.750000 0.250000 0.431475
O O5 0.835133 0.000000 0.377233
O O6 0.906409 0.000000 0.446102
O O7 0.362537 0.250178 0.312274
O O8 0.500000 0.000000 0.283336
O O9 0.343316 0.000000 0.246156
O O10 0.250000 0.750000 0.571926
O O11 0.404140 0.000000 0.548796
O O12 0.500000 0.000000 0.842375
O O13 0.000000 0.750283 0.497928
#
# Coordination Sequence:
#
# PCOD9368365 Si02
#       8
#     8   8   8   8   8   8   4   4
#     4  10  19  37  58  82 125 185 226 273 359 388
#     4  12  26  47  78 108 139 194 240 276 361 438
#     4  10  21  36  59  90 134 185 234 296 360 391
#     4  12  23  47  74 101 150 186 231 298 349 435
#     4  10  18  35  54  84 122 173 236 271 330 409
#     4  10  21  43  64  92 140 185 229 297 353 405
#     4  12  30  46  78 120 133 188 239 274 382 432
#     4  12  28  54  74 110 157 172 227 312 342 432
#
# _framework density 21.340136000000001
#
# number of rings (size 3 to 8) (size 9 to 14) (size 15 to 20)
#    0.000    1.143    3.571    3.429    0.000    3.429 
#   18.000    0.000    0.000    0.000    0.000    0.000 
#    0.000    0.000    0.000    0.000    0.000    0.000 
#
# Total GULP energy -78340.258675 kJ/mol
# GULP energy per Si atom -5595.732763 kJ/mol
# Density = 2.129157 g / cm^3
# Si number density = 21.340136 Si / 1000 Ang^3
#
#
#
# Elastic Constant Matrix: (Units=GPa)
#
#
# Indices 1 2 3 4 5 6 
#
# 1 121.8795 60.7856 65.9256 0.0000 0.0000 0.0000
# 2 60.7856 257.4774 90.9943 0.0000 0.0000 0.0000
# 3 65.9256 90.9943 167.8859 0.0000 0.0000 0.0000
# 4 0.0000 0.0000 0.0000 34.0691 0.0000 0.0000
# 5 0.0000 0.0000 0.0000 0.0000 50.0470 0.0000
# 6 0.0000 0.0000 0.0000 0.0000 0.0000 -8.8970
#
#
#
# Elastic Compliance Matrix: (Units=1/GPa)
#
#
# Indices 1 2 3 4 5 6 
#
# 1 0.010755 -0.001295 -0.003522 0.000000 0.000000 0.000000
# 2 -0.001295 0.004960 -0.002180 0.000000 0.000000 0.000000
# 3 -0.003522 -0.002180 0.008521 0.000000 0.000000 0.000000
# 4 0.000000 0.000000 0.000000 0.029352 0.000000 0.000000
# 5 0.000000 0.000000 0.000000 0.000000 0.019981 0.000000
# 6 0.000000 0.000000 0.000000 0.000000 0.000000 -0.112398
#
#
# Mechanical properties :
#
#
# Convention : Reuss Voigt Hill
#
# Bulk Modulus (GPa) = 97.62132 109.18378 103.40255
# Shear Modulus (GPa) = -233.41616 37.01297 -98.20159
#
# Velocity S-wave (km/s) = -10.46978 4.16917 -6.79097
# Velocity P-wave (km/s) = 10.01551 8.62848 3.59582
#
# Compressibility (1/GPa) = 0.01024366
#
# Stress axis : x y z
#
# Youngs Moduli (GPa) = 92.97632 201.61926 117.35858
#
# Poissons Ratio (x) = 0.26100 0.41332
# Poissons Ratio (y) = 0.12036 0.25583
# Poissons Ratio (z) = 0.32745 0.43951
#
# Static dielectric constant tensor:
#      x y z
#    x 1.747850 0.000000 0.000000 
#    y 0.000000 1.723260 0.000000 
#    z 0.000000 0.000000 1.706230 
# 
# From -- ./inp_files/34259.got.cif
#   From: 2010.05.17/outbox.cif.g08.bks.cpg/sg42_18_cif.got.tgz:34259.got - 2010.06.03 19:03:34.
