data_PCOD9368731
_publ_section_title
;
Structure prediction by ZEFSAII (Michael W. Deem and Ramdas Pophale) SiO2 
 PCOD9368731
Probable space group: F M M 2
;
_chemical_formula_sum "Si O2"
_cell_formula_units_Z 88
_cell_length_a 21.025597
_cell_length_b 15.288390
_cell_length_c 12.936778
_cell_angle_alpha 90.000000
_cell_angle_beta 90.000000
_cell_angle_gamma 90.000000
_cell_volume 4158.495294
_symmetry_space_group_name_H-M "F M M 2"
_symmetry_group_IT_number 42
_symmetry_cell_setting 'orthorhombic'
loop_
_space_group_symop_operation_xyz
x,y,z
-x,-y,z
-x,y,z
x,-y,z
x,1/2+y,1/2+z
-x,1/2-y,1/2+z
-x,1/2+y,1/2+z
x,1/2-y,1/2+z
1/2+x,y,1/2+z
1/2-x,-y,1/2+z
1/2-x,y,1/2+z
1/2+x,-y,1/2+z
1/2+x,1/2+y,z
1/2-x,1/2-y,z
1/2-x,1/2+y,z
1/2+x,1/2-y,z
loop_
_atom_site_type_symbol
_atom_site_label
_atom_site_fract_x
_atom_site_fract_y
_atom_site_fract_z
Si Si1 0.076616 0.000000 0.148041
Si Si2 0.346915 0.164417 0.554761
Si Si3 0.250000 0.750000 0.711628
Si Si4 0.074531 0.674201 0.010097
Si Si5 0.200244 0.598858 0.353994
Si Si6 0.576883 0.500000 0.393622
Si Si7 0.069471 0.101235 0.738076
O O1 0.108811 0.087114 0.099915
O O2 0.088837 0.000000 0.271445
O O3 0.000000 0.000000 0.131443
O O4 0.307861 0.217446 0.640588
O O5 0.387276 0.237299 0.493337
O O6 0.297876 0.121164 0.474447
O O7 0.235329 0.831626 0.784385
O O8 0.078348 0.654774 0.132980
O O9 0.000000 0.685315 0.984122
O O10 0.099732 0.589400 0.948186
O O11 0.221782 0.500000 0.334506
O O12 0.126564 0.606412 0.317912
O O13 0.500000 0.500000 0.408655
O O14 0.000000 0.123017 0.783023
O O15 0.067723 0.000000 0.703607
#
# Coordination Sequence:
#
# PCOD9368731 Si02
#       7
#     8  16   8  16  16   8  16
#     4  11  26  48  70 102 146 183 221 291 371 424
#     4  12  26  47  67 101 136 179 233 287 347 412
#     4  12  28  48  70  96 134 186 242 286 324 410
#     4  10  19  36  67 103 137 174 223 279 338 411
#     4  11  25  47  70  98 133 175 229 280 344 408
#     4   9  20  38  66 104 142 179 218 265 345 426
#     4   9  17  34  63  98 133 168 212 269 329 394
#
# _framework density 21.161498999999999
#
# number of rings (size 3 to 8) (size 9 to 14) (size 15 to 20)
#    0.000    1.455    3.636    1.091    3.818    1.455 
#    0.000    0.000    0.000    0.000    0.000    0.000 
#    0.000    0.000    0.000    0.000    0.000    0.000 
#
# Total GULP energy -122930.136152 kJ/mol
# GULP energy per Si atom -5587.733461 kJ/mol
# Density = 2.111333 g / cm^3
# Si number density = 21.161499 Si / 1000 Ang^3
#
#
#
# Elastic Constant Matrix: (Units=GPa)
#
#
# Indices 1 2 3 4 5 6 
#
# 1 46.1231 54.1049 19.9039 0.0000 0.0000 0.0000
# 2 54.1049 191.6305 59.6537 0.0000 0.0000 0.0000
# 3 19.9039 59.6537 67.3954 0.0000 0.0000 0.0000
# 4 0.0000 0.0000 0.0000 33.6711 0.0000 0.0000
# 5 0.0000 0.0000 0.0000 0.0000 4.7788 0.0000
# 6 0.0000 0.0000 0.0000 0.0000 0.0000 30.2411
#
#
#
# Elastic Compliance Matrix: (Units=1/GPa)
#
#
# Indices 1 2 3 4 5 6 
#
# 1 0.032621 -0.008573 -0.002045 0.000000 0.000000 0.000000
# 2 -0.008573 0.009456 -0.005838 0.000000 0.000000 0.000000
# 3 -0.002045 -0.005838 0.020609 0.000000 0.000000 0.000000
# 4 0.000000 0.000000 0.000000 0.029699 0.000000 0.000000
# 5 0.000000 0.000000 0.000000 0.000000 0.209257 0.000000
# 6 0.000000 0.000000 0.000000 0.000000 0.000000 0.033068
#
#
# Mechanical properties :
#
#
# Convention : Reuss Voigt Hill
#
# Bulk Modulus (GPa) = 33.58771 63.60824 48.59797
# Shear Modulus (GPa) = 13.24333 25.17066 19.20700
#
# Velocity S-wave (km/s) = 2.50436 3.45259 3.01597
# Velocity P-wave (km/s) = 4.92635 6.78362 5.92817
#
# Compressibility (1/GPa) = 0.02977280
#
# Stress axis : x y z
#
# Youngs Moduli (GPa) = 30.65525 105.74865 48.52170
#
# Poissons Ratio (x) = 0.90663 0.09924
# Poissons Ratio (y) = 0.26282 0.28328
# Poissons Ratio (z) = 0.06270 0.61737
#
# Static dielectric constant tensor:
#      x y z
#    x 1.779760 0.000000 0.000000 
#    y 0.000000 1.743180 0.000000 
#    z 0.000000 0.000000 1.744800 
# 
# From -- ./inp_files/10079.got.cif
#   From: 2010.05.17/outbox.cif.g08.bks.cpg/sg42_6_cif.got.tgz:10079.got - 2010.06.03 19:03:34.
