data_PCOD9368530
_publ_section_title
;
Structure prediction by ZEFSAII (Michael W. Deem and Ramdas Pophale) SiO2 
 PCOD9368530
Probable space group: F M M 2
;
_chemical_formula_sum "Si O2"
_cell_formula_units_Z 80
_cell_length_a 8.715884
_cell_length_b 17.987514
_cell_length_c 27.429859
_cell_angle_alpha 90.000000
_cell_angle_beta 90.000000
_cell_angle_gamma 90.000000
_cell_volume 4300.373349
_symmetry_space_group_name_H-M "F M M 2"
_symmetry_group_IT_number 42
_symmetry_cell_setting 'orthorhombic'
loop_
_space_group_symop_operation_xyz
x,y,z
-x,-y,z
-x,y,z
x,-y,z
x,1/2+y,1/2+z
-x,1/2-y,1/2+z
-x,1/2+y,1/2+z
x,1/2-y,1/2+z
1/2+x,y,1/2+z
1/2-x,-y,1/2+z
1/2-x,y,1/2+z
1/2+x,-y,1/2+z
1/2+x,1/2+y,z
1/2-x,1/2-y,z
1/2-x,1/2+y,z
1/2+x,1/2-y,z
loop_
_atom_site_type_symbol
_atom_site_label
_atom_site_fract_x
_atom_site_fract_y
_atom_site_fract_z
Si Si1 0.821282 0.411334 0.739250
Si Si2 0.315485 0.834359 0.545695
Si Si3 0.684636 0.666199 0.833655
Si Si4 0.682244 0.166712 0.145617
Si Si5 0.184623 0.166343 0.940269
O O1 0.810772 0.500000 0.738952
O O2 0.751578 0.379818 0.789084
O O3 0.733947 0.378252 0.692839
O O4 0.000000 0.389368 0.735999
O O5 0.500000 0.832222 0.549491
O O6 0.250000 0.750000 0.544677
O O7 0.247505 0.867548 0.595213
O O8 0.271763 0.868111 0.492753
O O9 0.500000 0.668688 0.830403
O O10 0.750000 0.750000 0.830664
O O11 0.728369 0.634340 0.887406
O O12 0.500000 0.171480 0.142433
O O13 0.750000 0.250000 0.150138
O O14 0.250000 0.250000 0.940195
O O15 0.000000 0.170796 0.940602
#
# Coordination Sequence:
#
# PCOD9368530 Si02
#       5
#    16  16  16  16  16
#     4  11  24  40  55  72  98 133 172 215 263 309
#     4   9  15  26  45  72 105 135 166 203 247 295
#     4  10  19  33  54  80 108 136 170 209 250 298
#     4  11  21  34  54  79 106 135 170 210 253 301
#     4   8  15  26  44  72 104 135 164 200 245 293
#
# _framework density 18.603037
#
# number of rings (size 3 to 8) (size 9 to 14) (size 15 to 20)
#    0.000    2.200    0.000    5.400    0.000    3.200 
#    0.000    0.000    0.000    1.200    0.000    2.800 
#    0.000    0.000    0.000    0.000    0.000    0.000 
#
# Total GULP energy -111476.454832 kJ/mol
# GULP energy per Si atom -5573.822742 kJ/mol
# Density = 1.856070 g / cm^3
# Si number density = 18.603037 Si / 1000 Ang^3
#
#
#
# Elastic Constant Matrix: (Units=GPa)
#
#
# Indices 1 2 3 4 5 6 
#
# 1 104.4333 21.3683 68.5047 0.0000 0.0000 0.0000
# 2 21.3683 15.9605 33.1074 0.0000 0.0000 0.0000
# 3 68.5047 33.1074 222.9535 0.0000 0.0000 0.0000
# 4 0.0000 0.0000 0.0000 -9.8742 0.0000 0.0000
# 5 0.0000 0.0000 0.0000 0.0000 32.7117 0.0000
# 6 0.0000 0.0000 0.0000 0.0000 0.0000 15.5952
#
#
#
# Elastic Compliance Matrix: (Units=1/GPa)
#
#
# Indices 1 2 3 4 5 6 
#
# 1 0.013882 -0.014073 -0.002176 0.000000 0.000000 0.000000
# 2 -0.014073 0.104811 -0.011240 0.000000 0.000000 0.000000
# 3 -0.002176 -0.011240 0.006823 0.000000 0.000000 0.000000
# 4 0.000000 0.000000 0.000000 -0.101274 0.000000 0.000000
# 5 0.000000 0.000000 0.000000 0.000000 0.030570 0.000000
# 6 0.000000 0.000000 0.000000 0.000000 0.000000 0.064122
#
#
# Mechanical properties :
#
#
# Convention : Reuss Voigt Hill
#
# Bulk Modulus (GPa) = 14.17644 65.47869 39.82757
# Shear Modulus (GPa) = 25.32620 22.37766 23.85193
#
# Velocity S-wave (km/s) = 3.69372 3.47205 3.58460
# Velocity P-wave (km/s) = 5.08217 7.16574 6.21193
#
# Compressibility (1/GPa) = 0.07053957
#
# Stress axis : x y z
#
# Youngs Moduli (GPa) = 72.03508 9.54096 146.56697
#
# Poissons Ratio (x) = 0.13427 0.31889
# Poissons Ratio (y) = 1.01372 1.64740
# Poissons Ratio (z) = 0.15673 0.10724
#
# Static dielectric constant tensor:
#      x y z
#    x 1.628090 0.000000 0.000000 
#    y 0.000000 1.591860 0.000000 
#    z 0.000000 0.000000 1.714510 
# 
# From -- ./inp_files/31250.got.cif
#   From: 2010.05.17/outbox.cif.g08.bks.cpg/sg42_16_cif.got.tgz:31250.got - 2010.06.03 19:03:34.
