data_PCOD9368763
_publ_section_title
;
Structure prediction by ZEFSAII (Michael W. Deem and Ramdas Pophale) SiO2 
 PCOD9368763
Probable space group: F M M 2
;
_chemical_formula_sum "Si O2"
_cell_formula_units_Z 96
_cell_length_a 20.128006
_cell_length_b 27.400733
_cell_length_c 8.579562
_cell_angle_alpha 90.000000
_cell_angle_beta 90.000000
_cell_angle_gamma 90.000000
_cell_volume 4731.818208
_symmetry_space_group_name_H-M "F M M 2"
_symmetry_group_IT_number 42
_symmetry_cell_setting 'orthorhombic'
loop_
_space_group_symop_operation_xyz
x,y,z
-x,-y,z
-x,y,z
x,-y,z
x,1/2+y,1/2+z
-x,1/2-y,1/2+z
-x,1/2+y,1/2+z
x,1/2-y,1/2+z
1/2+x,y,1/2+z
1/2-x,-y,1/2+z
1/2-x,y,1/2+z
1/2+x,-y,1/2+z
1/2+x,1/2+y,z
1/2-x,1/2-y,z
1/2-x,1/2+y,z
1/2+x,1/2-y,z
loop_
_atom_site_type_symbol
_atom_site_label
_atom_site_fract_x
_atom_site_fract_y
_atom_site_fract_z
Si Si1 0.770291 0.598764 0.652280
Si Si2 0.421527 0.679168 0.361096
Si Si3 0.339306 0.140396 0.358222
Si Si4 0.578123 0.279874 0.010549
Si Si5 0.077892 0.552841 0.207033
Si Si6 0.152743 0.421346 0.928495
O O1 0.728092 0.637502 0.756341
O O2 0.818049 0.623860 0.529861
O O3 0.814038 0.564972 0.764995
O O4 0.713540 0.573403 0.549984
O O5 0.500000 0.664933 0.370672
O O6 0.410974 0.701236 0.187151
O O7 0.409608 0.722606 0.484236
O O8 0.373822 0.633846 0.398431
O O9 0.377830 0.190347 0.386452
O O10 0.386454 0.098976 0.284660
O O11 0.500000 0.288159 0.975229
O O12 0.101802 0.500000 0.267764
O O13 0.000000 0.556496 0.234519
O O14 0.093230 0.554144 0.021973
#
# Coordination Sequence:
#
# PCOD9368763 Si02
#       6
#    16  16  16  16  16  16
#     4   9  20  35  59  82 110 154 197 232 278 343
#     4  10  21  35  55  83 113 150 197 242 291 347
#     4  10  19  39  58  80 117 152 188 240 286 332
#     4  10  21  35  55  83 113 150 197 242 291 347
#     4  10  22  39  63  92 117 148 188 233 295 355
#     4  10  19  39  58  80 117 152 188 240 286 332
#
# _framework density 20.288184999999999
#
# number of rings (size 3 to 8) (size 9 to 14) (size 15 to 20)
#    0.000    2.167    1.667    1.000    4.667    0.000 
#    0.000   19.167    0.000    2.000    0.000    0.000 
#    0.000    0.000    0.000    0.000    0.000    0.000 
#
# Total GULP energy -133725.815947 kJ/mol
# GULP energy per Si atom -5571.908998 kJ/mol
# Density = 2.024201 g / cm^3
# Si number density = 20.288185 Si / 1000 Ang^3
#
#
#
# Elastic Constant Matrix: (Units=GPa)
#
#
# Indices 1 2 3 4 5 6 
#
# 1 58.8818 25.9939 21.1296 0.0000 0.0000 -0.0003
# 2 25.9939 65.0097 13.5657 0.0000 -0.0001 0.0005
# 3 21.1296 13.5657 87.8098 0.0000 0.0004 0.0006
# 4 0.0000 0.0000 0.0000 4.0277 0.0000 0.0005
# 5 0.0000 -0.0001 0.0004 0.0000 36.4628 -0.0002
# 6 -0.0003 0.0005 0.0006 0.0005 -0.0002 -250.4182
#
#
#
# Elastic Compliance Matrix: (Units=1/GPa)
#
#
# Indices 1 2 3 4 5 6 
#
# 1 0.021937 -0.007925 -0.004054 0.000000 0.000000 0.000000
# 2 -0.007925 0.018758 -0.000991 0.000000 0.000000 0.000000
# 3 -0.004054 -0.000991 0.012517 0.000000 0.000000 0.000000
# 4 0.000000 0.000000 0.000000 0.248281 0.000000 0.000001
# 5 0.000000 0.000000 0.000000 0.000000 0.027425 0.000000
# 6 0.000000 0.000000 0.000000 0.000001 0.000000 -0.003993
#
#
# Mechanical properties :
#
#
# Convention : Reuss Voigt Hill
#
# Bulk Modulus (GPa) = 36.66925 37.00885 36.83905
# Shear Modulus (GPa) = 13.89062 -31.91806 -9.01372
#
# Velocity S-wave (km/s) = 2.61945 -3.97070 -2.11009
# Velocity P-wave (km/s) = 5.22131 1.65554 3.50152
#
# Compressibility (1/GPa) = 0.02727081
#
# Stress axis : x y z
#
# Youngs Moduli (GPa) = 45.58571 53.31059 79.89209
#
# Poissons Ratio (x) = 0.42250 0.32390
# Poissons Ratio (y) = 0.36128 0.07916
# Poissons Ratio (z) = 0.18481 0.05282
#
# Static dielectric constant tensor:
#      x y z
#    x 1.731880 0.000000 0.000000 
#    y 0.000000 1.731180 0.000000 
#    z 0.000000 0.000000 1.756370 
# 
# From -- ./inp_files/4152.got.cif
#   From: 2010.05.17/outbox.cif.g08.bks.cpg/sg42_3_cif.got.tgz:4152.got - 2010.06.03 19:03:34.
