data_PCOD9368841
_publ_section_title
;
Structure prediction by ZEFSAII (Michael W. Deem and Ramdas Pophale) SiO2 
 PCOD9368841
Probable space group: F M M 2
;
_chemical_formula_sum "Si O2"
_cell_formula_units_Z 112
_cell_length_a 28.513779
_cell_length_b 14.487112
_cell_length_c 13.897607
_cell_angle_alpha 90.000000
_cell_angle_beta 90.000000
_cell_angle_gamma 90.000000
_cell_volume 5740.855602
_symmetry_space_group_name_H-M "F M M 2"
_symmetry_group_IT_number 42
_symmetry_cell_setting 'orthorhombic'
loop_
_space_group_symop_operation_xyz
x,y,z
-x,-y,z
-x,y,z
x,-y,z
x,1/2+y,1/2+z
-x,1/2-y,1/2+z
-x,1/2+y,1/2+z
x,1/2-y,1/2+z
1/2+x,y,1/2+z
1/2-x,-y,1/2+z
1/2-x,y,1/2+z
1/2+x,-y,1/2+z
1/2+x,1/2+y,z
1/2-x,1/2-y,z
1/2-x,1/2+y,z
1/2+x,1/2-y,z
loop_
_atom_site_type_symbol
_atom_site_label
_atom_site_fract_x
_atom_site_fract_y
_atom_site_fract_z
Si Si1 0.309180 0.098759 0.132070
Si Si2 0.721425 0.847491 0.532111
Si Si3 0.410688 0.889704 0.119869
Si Si4 0.899088 0.256534 0.787241
Si Si5 0.201447 0.302504 0.330546
Si Si6 0.879256 0.111721 0.113197
Si Si7 0.447001 0.235177 0.486100
O O1 0.357257 0.126234 0.080462
O O2 0.298020 0.158952 0.223693
O O3 0.321344 0.000000 0.175698
O O4 0.264329 0.091487 0.066110
O O5 0.750000 0.750000 0.537966
O O6 0.703342 0.866947 0.424491
O O7 0.675250 0.857151 0.597908
O O8 0.408635 0.836346 0.222995
O O9 0.421112 0.000000 0.123552
O O10 0.442403 0.828130 0.050351
O O11 0.847172 0.252410 0.834066
O O12 0.898135 0.341112 0.711730
O O13 0.934357 0.258780 0.876091
O O14 0.250000 0.250000 0.339204
O O15 0.881691 0.000000 0.112709
O O16 0.910523 0.160416 0.030095
O O17 0.500000 0.199871 0.493522
#
# Coordination Sequence:
#
# PCOD9368841 Si02
#       7
#    16  16  16  16  16  16  16
#     4  10  20  34  53  85 124 155 195 247 294 355
#     4  11  20  35  60  87 124 169 207 242 300 367
#     4   9  21  41  65  92 124 161 206 259 310 374
#     4  10  21  40  63  92 125 167 208 257 317 377
#     4  10  20  33  57  83 117 164 205 238 296 362
#     4  11  24  42  66  96 130 168 213 266 322 379
#     4  11  24  43  65  91 123 162 209 267 332 387
#
# _framework density 19.509288000000002
#
# number of rings (size 3 to 8) (size 9 to 14) (size 15 to 20)
#    0.000    1.714    1.429    4.286    2.000    5.143 
#    0.000    0.000    0.000    0.000    0.000    0.000 
#    0.000    0.000    0.000    0.000    0.000    0.000 
#
# Total GULP energy -155885.781019 kJ/mol
# GULP energy per Si atom -5567.349322 kJ/mol
# Density = 1.946488 g / cm^3
# Si number density = 19.509288 Si / 1000 Ang^3
#
#
#
# Elastic Constant Matrix: (Units=GPa)
#
#
# Indices 1 2 3 4 5 6 
#
# 1 96.7520 21.7048 25.7602 0.0000 0.0000 0.0000
# 2 21.7048 114.2090 23.7120 0.0000 0.0000 0.0000
# 3 25.7602 23.7120 80.3677 0.0000 0.0000 0.0000
# 4 0.0000 0.0000 0.0000 4.0252 0.0000 0.0000
# 5 0.0000 0.0000 0.0000 0.0000 51.9555 0.0000
# 6 0.0000 0.0000 0.0000 0.0000 0.0000 7.3044
#
#
#
# Elastic Compliance Matrix: (Units=1/GPa)
#
#
# Indices 1 2 3 4 5 6 
#
# 1 0.011542 -0.001518 -0.003252 0.000000 0.000000 0.000000
# 2 -0.001518 0.009527 -0.002324 0.000000 0.000000 0.000000
# 3 -0.003252 -0.002324 0.014171 0.000000 0.000000 0.000000
# 4 0.000000 0.000000 0.000000 0.248435 0.000000 0.000000
# 5 0.000000 0.000000 0.000000 0.000000 0.019247 0.000000
# 6 0.000000 0.000000 0.000000 0.000000 0.000000 0.136903
#
#
# Mechanical properties :
#
#
# Convention : Reuss Voigt Hill
#
# Bulk Modulus (GPa) = 47.50259 48.18697 47.84478
# Shear Modulus (GPa) = 10.84527 27.33380 19.08953
#
# Velocity S-wave (km/s) = 2.36032 3.74714 3.13147
# Velocity P-wave (km/s) = 5.64178 6.59352 6.13613
#
# Compressibility (1/GPa) = 0.02105148
#
# Stress axis : x y z
#
# Youngs Moduli (GPa) = 86.63959 104.96498 70.56776
#
# Poissons Ratio (x) = 0.15938 0.22946
# Poissons Ratio (y) = 0.13155 0.16401
# Poissons Ratio (z) = 0.28171 0.24396
#
# Static dielectric constant tensor:
#      x y z
#    x 1.719170 0.000000 0.000000 
#    y 0.000000 2.669380 0.000000 
#    z 0.000000 0.000000 1.689710 
# 
# From -- ./inp_files/14394.got.cif
#   From: 2010.05.17/outbox.cif.g08.bks.cpg/sg42_8_cif.got.tgz:14394.got - 2010.06.03 19:03:34.
