data_PCOD9368718
_publ_section_title
;
Structure prediction by ZEFSAII (Michael W. Deem and Ramdas Pophale) SiO2 
 PCOD9368718
Probable space group: F M M 2
;
_chemical_formula_sum "Si O2"
_cell_formula_units_Z 100
_cell_length_a 22.703911
_cell_length_b 21.677201
_cell_length_c 10.044470
_cell_angle_alpha 90.000000
_cell_angle_beta 90.000000
_cell_angle_gamma 90.000000
_cell_volume 4943.458655
_symmetry_space_group_name_H-M "F M M 2"
_symmetry_group_IT_number 42
_symmetry_cell_setting 'orthorhombic'
loop_
_space_group_symop_operation_xyz
x,y,z
-x,-y,z
-x,y,z
x,-y,z
x,1/2+y,1/2+z
-x,1/2-y,1/2+z
-x,1/2+y,1/2+z
x,1/2-y,1/2+z
1/2+x,y,1/2+z
1/2-x,-y,1/2+z
1/2-x,y,1/2+z
1/2+x,-y,1/2+z
1/2+x,1/2+y,z
1/2-x,1/2-y,z
1/2-x,1/2+y,z
1/2+x,1/2-y,z
loop_
_atom_site_type_symbol
_atom_site_label
_atom_site_fract_x
_atom_site_fract_y
_atom_site_fract_z
Si Si1 0.231801 0.428014 0.918420
Si Si2 0.691365 0.572174 0.144793
Si Si3 0.435150 0.387583 0.107554
Si Si4 0.000000 0.000000 0.481754
Si Si5 0.394957 0.600647 0.528603
Si Si6 0.930649 0.847111 0.804236
Si Si7 0.068260 0.208912 0.335664
O O1 0.246373 0.500000 0.895642
O O2 0.221306 0.398960 0.774296
O O3 0.282593 0.399885 0.009966
O O4 0.169434 0.425089 0.994199
O O5 0.706571 0.500000 0.141446
O O6 0.621324 0.575612 0.155601
O O7 0.500000 0.414874 0.136599
O O8 0.431850 0.324273 0.191488
O O9 0.429435 0.378028 0.949680
O O10 0.947557 0.945913 0.488535
O O11 0.400296 0.615956 0.685258
O O12 0.402618 0.663189 0.441912
O O13 0.907187 0.777589 0.821442
O O14 0.000000 0.842887 0.765315
O O15 0.000000 0.215403 0.378560
#
# Coordination Sequence:
#
# PCOD9368718 Si02
#       7
#    16  16  16   4  16  16  16
#     4  10  22  39  61  85 116 164 209 244 302 374
#     4  10  22  41  59  86 117 161 210 242 298 377
#     4  10  21  37  58  91 121 150 196 258 311 347
#     4  12  24  36  60  98 136 156 198 264 316 368
#     4  12  21  38  61  92 126 163 201 261 309 360
#     4  10  21  36  57  89 124 165 204 244 307 367
#     4  10  19  36  61  87 119 161 207 252 302 361
#
# _framework density 20.228753000000001
#
# number of rings (size 3 to 8) (size 9 to 14) (size 15 to 20)
#    0.000    1.600    4.000    0.960    2.240    2.880 
#    1.440    0.000    0.000    5.760    0.000    0.000 
#    0.000    0.000    0.000    0.000    0.000    0.000 
#
# Total GULP energy -139183.343035 kJ/mol
# GULP energy per Si atom -5567.333721 kJ/mol
# Density = 2.018271 g / cm^3
# Si number density = 20.228753 Si / 1000 Ang^3
#
#
#
# Elastic Constant Matrix: (Units=GPa)
#
#
# Indices 1 2 3 4 5 6 
#
# 1 65.9228 -9.6157 14.9181 0.0001 -0.0001 0.0000
# 2 -9.6157 26.6802 -6.5394 0.0001 -0.0001 0.0000
# 3 14.9181 -6.5394 97.2994 0.0003 -0.0002 0.0000
# 4 0.0001 0.0001 0.0003 13.5101 -0.0001 0.0000
# 5 -0.0001 -0.0001 -0.0002 -0.0001 26.8598 0.0000
# 6 0.0000 0.0000 0.0000 0.0000 0.0000 6.2593
#
#
#
# Elastic Compliance Matrix: (Units=1/GPa)
#
#
# Indices 1 2 3 4 5 6 
#
# 1 0.016445 0.005398 -0.002159 0.000000 0.000000 0.000000
# 2 0.005398 0.039881 0.001853 0.000000 0.000000 0.000000
# 3 -0.002159 0.001853 0.010733 0.000000 0.000000 0.000000
# 4 0.000000 0.000000 0.000000 0.074019 0.000000 0.000001
# 5 0.000000 0.000000 0.000000 0.000000 0.037230 0.000000
# 6 0.000000 0.000000 0.000000 0.000001 0.000000 0.159763
#
#
# Mechanical properties :
#
#
# Convention : Reuss Voigt Hill
#
# Bulk Modulus (GPa) = 12.94624 20.82538 16.88581
# Shear Modulus (GPa) = 14.13890 22.06847 18.10369
#
# Velocity S-wave (km/s) = 2.64664 3.30653 2.99481
# Velocity P-wave (km/s) = 3.96905 4.98947 4.50823
#
# Compressibility (1/GPa) = 0.07724251
#
# Stress axis : x y z
#
# Youngs Moduli (GPa) = 60.80847 25.07491 93.17028
#
# Poissons Ratio (x) = -0.13535 0.20112
# Poissons Ratio (y) = -0.32823 -0.17262
# Poissons Ratio (z) = 0.13126 -0.04646
#
# Static dielectric constant tensor:
#      x y z
#    x 1.711110 0.000000 0.000000 
#    y 0.000000 1.720360 0.000000 
#    z 0.000000 0.000000 1.787970 
# 
# From -- ./inp_files/4273.got.cif
#   From: 2010.05.17/outbox.cif.g08.bks.cpg/sg42_3_cif.got.tgz:4273.got - 2010.06.03 19:03:34.
