data_PCOD9368833
_publ_section_title
;
Structure prediction by ZEFSAII (Michael W. Deem and Ramdas Pophale) SiO2 
 PCOD9368833
Probable space group: F M M 2
;
_chemical_formula_sum "Si O2"
_cell_formula_units_Z 116
_cell_length_a 9.015643
_cell_length_b 25.691203
_cell_length_c 26.340947
_cell_angle_alpha 90.000000
_cell_angle_beta 90.000000
_cell_angle_gamma 90.000000
_cell_volume 6101.161646
_symmetry_space_group_name_H-M "F M M 2"
_symmetry_group_IT_number 42
_symmetry_cell_setting 'orthorhombic'
loop_
_space_group_symop_operation_xyz
x,y,z
-x,-y,z
-x,y,z
x,-y,z
x,1/2+y,1/2+z
-x,1/2-y,1/2+z
-x,1/2+y,1/2+z
x,1/2-y,1/2+z
1/2+x,y,1/2+z
1/2-x,-y,1/2+z
1/2-x,y,1/2+z
1/2+x,-y,1/2+z
1/2+x,1/2+y,z
1/2-x,1/2-y,z
1/2-x,1/2+y,z
1/2+x,1/2-y,z
loop_
_atom_site_type_symbol
_atom_site_label
_atom_site_fract_x
_atom_site_fract_y
_atom_site_fract_z
Si Si1 0.324481 0.303137 0.103630
Si Si2 0.676384 0.558683 0.234044
Si Si3 0.828292 0.337765 0.202078
Si Si4 0.000000 0.000000 0.578760
Si Si5 0.336450 0.103261 0.047875
Si Si6 0.826336 0.804209 0.819023
Si Si7 0.324186 0.409702 0.349588
Si Si8 0.670491 0.060483 0.452154
O O1 0.500000 0.299892 0.098921
O O2 0.250000 0.250000 0.083625
O O3 0.275324 0.309063 0.162245
O O4 0.262876 0.355685 0.077856
O O5 0.500000 0.568387 0.226072
O O6 0.711343 0.500000 0.217712
O O7 0.773158 0.602717 0.207337
O O8 0.702775 0.563791 0.294752
O O9 0.817064 0.313605 0.258220
O O10 0.000000 0.335720 0.185436
O O11 0.872432 0.047330 0.574293
O O12 0.500000 0.127429 0.041288
O O13 0.264585 0.091464 0.993458
O O14 0.750000 0.750000 0.831684
O O15 0.737866 0.851473 0.844116
O O16 0.000000 0.805378 0.832726
O O17 0.500000 0.410633 0.358429
O O18 0.240674 0.435284 0.396458
O O19 0.500000 0.078093 0.451081
O O20 0.673936 0.000000 0.467289
#
# Coordination Sequence:
#
# PCOD9368833 Si02
#       8
#    16  16  16   4  16  16  16  16
#     4  12  25  42  64  91 121 158 200 248 300 360
#     4   9  18  34  52  78 114 154 195 242 291 344
#     4  10  21  37  57  83 112 149 194 240 289 349
#     4   8  20  40  70  92 120 156 190 258 296 364
#     4  10  20  41  64  91 119 153 196 244 299 352
#     4  10  20  35  55  79 109 144 187 234 285 338
#     4  10  20  33  54  80 112 150 191 234 283 340
#     4  11  21  35  57  87 118 152 190 235 285 344
#
# _framework density 19.012772999999999
#
# number of rings (size 3 to 8) (size 9 to 14) (size 15 to 20)
#    0.414    1.379    0.690    4.138    0.000    4.966 
#    1.241    0.690    0.000    0.000    0.000    0.000 
#    0.000    0.000    0.000    0.000    0.000    0.000 
#
# Total GULP energy -161619.034630 kJ/mol
# GULP energy per Si atom -5573.070160 kJ/mol
# Density = 1.896950 g / cm^3
# Si number density = 19.012773 Si / 1000 Ang^3
#
#
#
# Elastic Constant Matrix: (Units=GPa)
#
#
# Indices 1 2 3 4 5 6 
#
# 1 120.2491 38.1886 23.0152 0.0000 0.0000 0.0000
# 2 38.1886 101.7193 6.4186 0.0000 0.0000 0.0000
# 3 23.0152 6.4186 32.0513 0.0000 0.0000 0.0000
# 4 0.0000 0.0000 0.0000 14.4474 0.0000 0.0000
# 5 0.0000 0.0000 0.0000 0.0000 28.2359 0.0000
# 6 0.0000 0.0000 0.0000 0.0000 0.0000 29.2334
#
#
#
# Elastic Compliance Matrix: (Units=1/GPa)
#
#
# Indices 1 2 3 4 5 6 
#
# 1 0.010811 -0.003615 -0.007039 0.000000 0.000000 0.000000
# 2 -0.003615 0.011165 0.000360 0.000000 0.000000 0.000000
# 3 -0.007039 0.000360 0.036183 0.000000 0.000000 0.000000
# 4 0.000000 0.000000 0.000000 0.069216 0.000000 0.000000
# 5 0.000000 0.000000 0.000000 0.000000 0.035416 0.000000
# 6 0.000000 0.000000 0.000000 0.000000 0.000000 0.034207
#
#
# Mechanical properties :
#
#
# Convention : Reuss Voigt Hill
#
# Bulk Modulus (GPa) = 26.61667 43.25159 34.93413
# Shear Modulus (GPa) = 21.72857 26.80984 24.26921
#
# Velocity S-wave (km/s) = 3.38426 3.75920 3.57665
# Velocity P-wave (km/s) = 5.41301 6.45292 5.95571
#
# Compressibility (1/GPa) = 0.03757044
#
# Stress axis : x y z
#
# Youngs Moduli (GPa) = 92.49542 89.56274 27.63749
#
# Poissons Ratio (x) = 0.32374 0.19455
# Poissons Ratio (y) = 0.33434 -0.00994
# Poissons Ratio (z) = 0.65112 -0.03221
#
# Static dielectric constant tensor:
#      x y z
#    x 1.642600 0.000000 0.000000 
#    y 0.000000 1.704450 0.000000 
#    z 0.000000 0.000000 1.657630 
# 
# From -- ./inp_files/28350.got.cif
#   From: 2010.05.17/outbox.cif.g08.bks.cpg/sg42_15_cif.got.tgz:28350.got - 2010.06.03 19:03:34.
