data_PCOD9368604
_publ_section_title
;
Structure prediction by ZEFSAII (Michael W. Deem and Ramdas Pophale) SiO2 
 PCOD9368604
Probable space group: F M M 2
;
_chemical_formula_sum "Si O2"
_cell_formula_units_Z 112
_cell_length_a 37.101604
_cell_length_b 13.719122
_cell_length_c 11.158660
_cell_angle_alpha 90.000000
_cell_angle_beta 90.000000
_cell_angle_gamma 90.000000
_cell_volume 5679.773916
_symmetry_space_group_name_H-M "F M M 2"
_symmetry_group_IT_number 42
_symmetry_cell_setting 'orthorhombic'
loop_
_space_group_symop_operation_xyz
x,y,z
-x,-y,z
-x,y,z
x,-y,z
x,1/2+y,1/2+z
-x,1/2-y,1/2+z
-x,1/2+y,1/2+z
x,1/2-y,1/2+z
1/2+x,y,1/2+z
1/2-x,-y,1/2+z
1/2-x,y,1/2+z
1/2+x,-y,1/2+z
1/2+x,1/2+y,z
1/2-x,1/2-y,z
1/2-x,1/2+y,z
1/2+x,1/2-y,z
loop_
_atom_site_type_symbol
_atom_site_label
_atom_site_fract_x
_atom_site_fract_y
_atom_site_fract_z
Si Si1 0.223752 0.884130 0.171810
Si Si2 0.846384 0.685339 0.358597
Si Si3 0.595963 0.812835 0.553592
Si Si4 0.765808 0.617694 0.408092
Si Si5 0.899913 0.613934 0.168074
Si Si6 0.144705 0.113596 0.252579
Si Si7 0.459351 0.116510 0.373099
O O1 0.239695 0.850536 0.299573
O O2 0.180713 0.868046 0.172205
O O3 0.228796 0.000000 0.173761
O O4 0.241481 0.851933 0.046252
O O5 0.873188 0.651130 0.462378
O O6 0.805862 0.653323 0.377874
O O7 0.862800 0.638445 0.237813
O O8 0.850531 0.802403 0.350941
O O9 0.596655 0.696209 0.567793
O O10 0.608629 0.860439 0.678570
O O11 0.558637 0.843291 0.493992
O O12 0.765651 0.500000 0.408528
O O13 0.901279 0.500000 0.134109
O O14 0.932240 0.635950 0.262653
O O15 0.145144 0.000000 0.289397
O O16 0.500000 0.152500 0.353115
O O17 0.460416 0.000000 0.383752
#
# Coordination Sequence:
#
# PCOD9368604 Si02
#       7
#    16  16  16  16  16  16  16
#     4   9  19  35  56  80 109 147 189 239 298 351
#     4  10  20  34  55  80 104 144 188 233 283 340
#     4  10  19  34  57  82 107 145 189 226 282 338
#     4  10  19  36  58  82 111 145 192 245 298 353
#     4   9  19  34  53  81 114 145 182 229 281 337
#     4  10  20  36  54  77 109 146 186 233 285 339
#     4   9  18  33  55  84 113 143 183 228 273 330
#
# _framework density 19.719093999999998
#
# number of rings (size 3 to 8) (size 9 to 14) (size 15 to 20)
#    0.000    2.429    1.429    0.857    0.000    2.857 
#    5.143    1.429    0.000    0.000    0.000    0.000 
#    0.000    0.000    0.000    0.000    0.000    0.000 
#
# Total GULP energy -156050.515650 kJ/mol
# GULP energy per Si atom -5573.232702 kJ/mol
# Density = 1.967421 g / cm^3
# Si number density = 19.719094 Si / 1000 Ang^3
#
#
#
# Elastic Constant Matrix: (Units=GPa)
#
#
# Indices 1 2 3 4 5 6 
#
# 1 69.2273 10.6757 26.8314 0.0000 0.0000 0.0000
# 2 10.6757 72.6125 -2.8053 0.0000 0.0000 0.0000
# 3 26.8314 -2.8053 65.9095 0.0000 0.0000 0.0000
# 4 0.0000 0.0000 0.0000 13.3658 0.0000 0.0000
# 5 0.0000 0.0000 0.0000 0.0000 16.5204 0.0000
# 6 0.0000 0.0000 0.0000 0.0000 0.0000 23.9403
#
#
#
# Elastic Compliance Matrix: (Units=1/GPa)
#
#
# Indices 1 2 3 4 5 6 
#
# 1 0.017737 -0.002892 -0.007344 0.000000 0.000000 0.000000
# 2 -0.002892 0.014266 0.001784 0.000000 0.000000 0.000000
# 3 -0.007344 0.001784 0.018238 0.000000 0.000000 0.000000
# 4 0.000000 0.000000 0.000000 0.074818 0.000000 0.000000
# 5 0.000000 0.000000 0.000000 0.000000 0.060531 0.000000
# 6 0.000000 0.000000 0.000000 0.000000 0.000000 0.041770
#
#
# Mechanical properties :
#
#
# Convention : Reuss Voigt Hill
#
# Bulk Modulus (GPa) = 29.99494 30.79477 30.39485
# Shear Modulus (GPa) = 19.57899 22.30181 20.94040
#
# Velocity S-wave (km/s) = 3.15444 3.36665 3.26227
# Velocity P-wave (km/s) = 5.33961 5.54644 5.44401
#
# Compressibility (1/GPa) = 0.03333896
#
# Stress axis : x y z
#
# Youngs Moduli (GPa) = 56.37786 70.09776 54.83078
#
# Poissons Ratio (x) = 0.20269 0.40267
# Poissons Ratio (y) = 0.16302 -0.09784
# Poissons Ratio (z) = 0.41403 -0.12508
#
# Static dielectric constant tensor:
#      x y z
#    x 1.691360 0.000000 0.000000 
#    y 0.000000 1.691810 0.000000 
#    z 0.000000 0.000000 1.732090 
# 
# From -- ./inp_files/8140.got.cif
#   From: 2010.05.17/outbox.cif.g08.bks.cpg/sg42_5_cif.got.tgz:8140.got - 2010.06.03 19:03:34.
