data_PCOD9368872
_publ_section_title
;
Structure prediction by ZEFSAII (Michael W. Deem and Ramdas Pophale) SiO2 
 PCOD9368872
Probable space group: F M M 2
;
_chemical_formula_sum "Si O2"
_cell_formula_units_Z 96
_cell_length_a 8.878623
_cell_length_b 18.505582
_cell_length_c 31.981113
_cell_angle_alpha 90.000000
_cell_angle_beta 90.000000
_cell_angle_gamma 90.000000
_cell_volume 5254.627540
_symmetry_space_group_name_H-M "F M M 2"
_symmetry_group_IT_number 42
_symmetry_cell_setting 'orthorhombic'
loop_
_space_group_symop_operation_xyz
x,y,z
-x,-y,z
-x,y,z
x,-y,z
x,1/2+y,1/2+z
-x,1/2-y,1/2+z
-x,1/2+y,1/2+z
x,1/2-y,1/2+z
1/2+x,y,1/2+z
1/2-x,-y,1/2+z
1/2-x,y,1/2+z
1/2+x,-y,1/2+z
1/2+x,1/2+y,z
1/2-x,1/2-y,z
1/2-x,1/2+y,z
1/2+x,1/2-y,z
loop_
_atom_site_type_symbol
_atom_site_label
_atom_site_fract_x
_atom_site_fract_y
_atom_site_fract_z
Si Si1 0.317727 0.670468 0.267990
Si Si2 0.178749 0.086092 0.525376
Si Si3 0.819063 0.170390 0.102799
Si Si4 0.316632 0.417161 0.185588
Si Si5 0.318984 0.915198 0.851297
Si Si6 0.173466 0.087865 0.938276
O O1 0.500000 0.674503 0.267430
O O2 0.250000 0.750000 0.266060
O O3 0.269656 0.624116 0.227609
O O4 0.273271 0.630236 0.310791
O O5 0.262241 0.128689 0.561858
O O6 0.236363 0.109840 0.479646
O O7 0.000000 0.096829 0.528467
O O8 0.209391 0.000000 0.529518
O O9 0.750000 0.250000 0.104104
O O10 0.771197 0.125930 0.144095
O O11 0.000000 0.174617 0.102371
O O12 0.500000 0.418681 0.185857
O O13 0.264388 0.500000 0.184869
O O14 0.500000 0.911328 0.855482
O O15 0.245098 0.888795 0.894383
O O16 0.280421 0.000000 0.845118
O O17 0.000000 0.110238 0.941415
O O18 0.178274 0.000000 0.937585
#
# Coordination Sequence:
#
# PCOD9368872 Si02
#       6
#    16  16  16  16  16  16
#     4  10  20  34  53  77 107 141 175 214 261 314
#     4  10  20  35  56  81 109 141 180 225 270 319
#     4  11  22  36  55  79 110 145 180 220 268 322
#     4   9  18  34  57  82 105 135 178 222 262 310
#     4   9  17  31  52  76 102 136 179 222 262 308
#     4   9  17  30  51  79 108 137 173 220 271 318
#
# _framework density 18.269611000000001
#
# number of rings (size 3 to 8) (size 9 to 14) (size 15 to 20)
#    0.000    2.333    0.000    3.000    0.000    6.333 
#    0.000    1.667    0.000    5.500    0.000    0.000 
#    0.000    0.000    0.000    0.000    0.000    0.000 
#
# Total GULP energy -133964.807395 kJ/mol
# GULP energy per Si atom -5581.866975 kJ/mol
# Density = 1.822803 g / cm^3
# Si number density = 18.269611 Si / 1000 Ang^3
#
#
#
# Elastic Constant Matrix: (Units=GPa)
#
#
# Indices 1 2 3 4 5 6 
#
# 1 44.3434 48.3334 59.0670 0.0000 0.0000 0.0000
# 2 48.3334 112.0226 95.5229 0.0000 0.0000 0.0000
# 3 59.0670 95.5229 205.6752 0.0000 0.0000 0.0000
# 4 0.0000 0.0000 0.0000 -10.0510 0.0000 0.0000
# 5 0.0000 0.0000 0.0000 0.0000 24.7014 0.0000
# 6 0.0000 0.0000 0.0000 0.0000 0.0000 25.9218
#
#
#
# Elastic Compliance Matrix: (Units=1/GPa)
#
#
# Indices 1 2 3 4 5 6 
#
# 1 0.047793 -0.014764 -0.006869 0.000000 0.000000 0.000000
# 2 -0.014764 0.019341 -0.004743 0.000000 0.000000 0.000000
# 3 -0.006869 -0.004743 0.009037 0.000000 0.000000 0.000000
# 4 0.000000 0.000000 0.000000 -0.099492 0.000000 0.000000
# 5 0.000000 0.000000 0.000000 0.000000 0.040484 0.000000
# 6 0.000000 0.000000 0.000000 0.000000 0.000000 0.038578
#
#
# Mechanical properties :
#
#
# Convention : Reuss Voigt Hill
#
# Bulk Modulus (GPa) = 42.69713 85.32086 64.00899
# Shear Modulus (GPa) = 42.99375 18.72231 30.85803
#
# Velocity S-wave (km/s) = 4.85634 3.20469 4.11425
# Velocity P-wave (km/s) = 7.40720 7.77790 7.59481
#
# Compressibility (1/GPa) = 0.02342078
#
# Stress axis : x y z
#
# Youngs Moduli (GPa) = 20.92377 51.70401 110.65337
#
# Poissons Ratio (x) = 0.76335 0.76003
# Poissons Ratio (y) = 0.30891 0.52479
# Poissons Ratio (z) = 0.14372 0.24521
#
# Static dielectric constant tensor:
#      x y z
#    x 1.616170 0.000000 0.000000 
#    y 0.000000 1.603220 0.000000 
#    z 0.000000 0.000000 1.610100 
# 
# From -- ./inp_files/31438.got.cif
#   From: 2010.05.17/outbox.cif.g08.bks.cpg/sg42_16_cif.got.tgz:31438.got - 2010.06.03 19:03:34.
