data_PCOD9368503
_publ_section_title
;
Structure prediction by ZEFSAII (Michael W. Deem and Ramdas Pophale) SiO2 
 PCOD9368503
Probable space group: F M M 2
;
_chemical_formula_sum "Si O2"
_cell_formula_units_Z 104
_cell_length_a 19.462552
_cell_length_b 13.741656
_cell_length_c 22.996650
_cell_angle_alpha 90.000000
_cell_angle_beta 90.000000
_cell_angle_gamma 90.000000
_cell_volume 6150.401023
_symmetry_space_group_name_H-M "F M M 2"
_symmetry_group_IT_number 42
_symmetry_cell_setting 'orthorhombic'
loop_
_space_group_symop_operation_xyz
x,y,z
-x,-y,z
-x,y,z
x,-y,z
x,1/2+y,1/2+z
-x,1/2-y,1/2+z
-x,1/2+y,1/2+z
x,1/2-y,1/2+z
1/2+x,y,1/2+z
1/2-x,-y,1/2+z
1/2-x,y,1/2+z
1/2+x,-y,1/2+z
1/2+x,1/2+y,z
1/2-x,1/2-y,z
1/2-x,1/2+y,z
1/2+x,1/2-y,z
loop_
_atom_site_type_symbol
_atom_site_label
_atom_site_fract_x
_atom_site_fract_y
_atom_site_fract_z
Si Si1 0.079109 0.883105 0.309740
Si Si2 0.650070 0.382983 0.426967
Si Si3 0.314529 0.115542 0.597940
Si Si4 0.927054 0.383660 0.038278
Si Si5 0.250000 0.250000 0.499849
Si Si6 0.917558 0.711863 0.685168
Si Si7 0.833591 0.386202 0.145520
O O1 0.129209 0.853676 0.362118
O O2 0.094988 0.839869 0.246832
O O3 0.000000 0.857155 0.324399
O O4 0.082186 0.000000 0.305964
O O5 0.662165 0.500000 0.428493
O O6 0.587747 0.361282 0.471609
O O7 0.710342 0.323745 0.457348
O O8 0.297160 0.181534 0.541709
O O9 0.381229 0.151012 0.633283
O O10 0.247791 0.129731 0.640085
O O11 0.317507 0.000000 0.584210
O O12 0.931607 0.500000 0.041361
O O13 0.864849 0.362571 0.081502
O O14 0.000000 0.341678 0.058046
O O15 0.877363 0.814712 0.685476
O O16 0.000000 0.720986 0.677783
O O17 0.845564 0.500000 0.158103
#
# Coordination Sequence:
#
# PCOD9368503 Si02
#       7
#    16  16  16  16   8  16  16
#     4   9  19  36  56  77 102 136 180 229 274 316
#     4  10  19  33  52  75 105 138 176 225 272 313
#     4  11  21  36  56  79 115 150 178 218 269 328
#     4   9  15  25  47  77 103 129 166 211 263 315
#     4  12  20  34  52  82 108 144 176 220 270 332
#     4  11  21  35  56  82 111 144 185 226 270 325
#     4  10  19  33  53  80 114 147 178 221 276 325
#
# _framework density 16.909465999999998
#
# number of rings (size 3 to 8) (size 9 to 14) (size 15 to 20)
#    0.000    1.846    3.077    1.846    0.000    3.692 
#    2.769    0.769    0.000    0.923    0.000    0.000 
#    0.000    0.000    0.000    0.000    0.000    0.000 
#
# Total GULP energy -144816.884192 kJ/mol
# GULP energy per Si atom -5569.880161 kJ/mol
# Density = 1.687098 g / cm^3
# Si number density = 16.909466 Si / 1000 Ang^3
#
#
#
# Elastic Constant Matrix: (Units=GPa)
#
#
# Indices 1 2 3 4 5 6 
#
# 1 78.2309 28.9016 34.9082 0.0000 0.0000 0.0000
# 2 28.9016 85.2315 38.3462 0.0000 0.0000 0.0000
# 3 34.9082 38.3462 103.5576 0.0000 0.0000 0.0000
# 4 0.0000 0.0000 0.0000 29.7496 0.0000 0.0000
# 5 0.0000 0.0000 0.0000 0.0000 29.1172 0.0000
# 6 0.0000 0.0000 0.0000 0.0000 0.0000 21.4903
#
#
#
# Elastic Compliance Matrix: (Units=1/GPa)
#
#
# Indices 1 2 3 4 5 6 
#
# 1 0.015906 -0.003577 -0.004037 0.000000 0.000000 0.000000
# 2 -0.003577 0.014883 -0.004305 0.000000 0.000000 0.000000
# 3 -0.004037 -0.004305 0.012611 0.000000 0.000000 0.000000
# 4 0.000000 0.000000 0.000000 0.033614 0.000000 0.000000
# 5 0.000000 0.000000 0.000000 0.000000 0.034344 0.000000
# 6 0.000000 0.000000 0.000000 0.000000 0.000000 0.046533
#
#
# Mechanical properties :
#
#
# Convention : Reuss Voigt Hill
#
# Bulk Modulus (GPa) = 51.12185 52.37024 51.74605
# Shear Modulus (GPa) = 26.56053 27.06233 26.81143
#
# Velocity S-wave (km/s) = 3.96757 4.00487 3.98626
# Velocity P-wave (km/s) = 7.16150 7.24041 7.20106
#
# Compressibility (1/GPa) = 0.01956111
#
# Stress axis : x y z
#
# Youngs Moduli (GPa) = 62.87072 67.19245 79.29338
#
# Poissons Ratio (x) = 0.24036 0.32011
# Poissons Ratio (y) = 0.22490 0.34136
# Poissons Ratio (z) = 0.25381 0.28926
#
# Static dielectric constant tensor:
#      x y z
#    x 1.638160 0.000000 0.000000 
#    y 0.000000 1.590180 0.000000 
#    z 0.000000 0.000000 1.561200 
# 
# From -- ./inp_files/26509.got.cif
#   From: 2010.05.17/outbox.cif.g08.bks.cpg/sg42_14_cif.got.tgz:26509.got - 2010.06.03 19:03:34.
