data_PCOD9368770
_publ_section_title
;
Structure prediction by ZEFSAII (Michael W. Deem and Ramdas Pophale) SiO2 
 PCOD9368770
Probable space group: F M M 2
;
_chemical_formula_sum "Si O2"
_cell_formula_units_Z 104
_cell_length_a 9.572601
_cell_length_b 28.884766
_cell_length_c 19.448559
_cell_angle_alpha 90.000000
_cell_angle_beta 90.000000
_cell_angle_gamma 90.000000
_cell_volume 5377.572071
_symmetry_space_group_name_H-M "F M M 2"
_symmetry_group_IT_number 42
_symmetry_cell_setting 'orthorhombic'
loop_
_space_group_symop_operation_xyz
x,y,z
-x,-y,z
-x,y,z
x,-y,z
x,1/2+y,1/2+z
-x,1/2-y,1/2+z
-x,1/2+y,1/2+z
x,1/2-y,1/2+z
1/2+x,y,1/2+z
1/2-x,-y,1/2+z
1/2-x,y,1/2+z
1/2+x,-y,1/2+z
1/2+x,1/2+y,z
1/2-x,1/2-y,z
1/2-x,1/2+y,z
1/2+x,1/2-y,z
loop_
_atom_site_type_symbol
_atom_site_label
_atom_site_fract_x
_atom_site_fract_y
_atom_site_fract_z
Si Si1 0.500000 0.262676 0.145078
Si Si2 0.841366 0.579358 0.143443
Si Si3 0.666047 0.203613 0.829493
Si Si4 0.264507 0.684365 0.674853
Si Si5 0.335524 0.390207 0.404732
Si Si6 0.657871 0.553564 0.800877
Si Si7 0.834117 0.553184 0.515320
O O1 0.380046 0.223105 0.161245
O O2 0.376342 0.301603 0.135952
O O3 0.817965 0.634160 0.153147
O O4 0.828492 0.557864 0.219148
O O5 0.729883 0.559169 0.090906
O O6 0.000000 0.570742 0.118493
O O7 0.500000 0.213138 0.819321
O O8 0.750000 0.250000 0.847008
O O9 0.724611 0.185938 0.756142
O O10 0.682022 0.164014 0.886748
O O11 0.500000 0.398819 0.414610
O O12 0.274692 0.417131 0.338898
O O13 0.246707 0.410384 0.467417
O O14 0.500000 0.570129 0.819224
O O15 0.667641 0.500000 0.820874
O O16 0.808640 0.500000 0.492245
O O17 0.000000 0.560962 0.513882
#
# Coordination Sequence:
#
# PCOD9368770 Si02
#       7
#     8  16  16  16  16  16  16
#     4  10  20  30  56  86 130 166 206 244 304 362
#     4  11  23  38  64  93 127 162 206 257 316 373
#     4  11  21  35  59  91 128 164 205 249 306 365
#     4  11  18  34  55  92 126 165 202 253 301 370
#     4  11  24  40  64  92 124 162 208 257 308 371
#     4  10  21  37  59  91 125 157 199 255 314 370
#     4  11  26  47  67  88 119 165 213 260 318 381
#
# _framework density 19.339583000000001
#
# number of rings (size 3 to 8) (size 9 to 14) (size 15 to 20)
#    0.000    1.231    4.615    1.846    1.077    5.846 
#    0.000    0.000    3.385    0.000    0.000    0.000 
#    0.000    0.000    0.000    0.000    0.000    0.000 
#
# Total GULP energy -144734.698524 kJ/mol
# GULP energy per Si atom -5566.719174 kJ/mol
# Density = 1.929557 g / cm^3
# Si number density = 19.339583 Si / 1000 Ang^3
#
#
#
# Elastic Constant Matrix: (Units=GPa)
#
#
# Indices 1 2 3 4 5 6 
#
# 1 138.7146 33.7344 32.5720 0.0000 0.0000 0.0000
# 2 33.7344 69.7685 16.1100 0.0000 0.0000 0.0000
# 3 32.5720 16.1100 45.2724 0.0000 0.0000 0.0000
# 4 0.0000 0.0000 0.0000 14.5902 0.0000 0.0000
# 5 0.0000 0.0000 0.0000 0.0000 26.3885 0.0000
# 6 0.0000 0.0000 0.0000 0.0000 0.0000 30.3222
#
#
#
# Elastic Compliance Matrix: (Units=1/GPa)
#
#
# Indices 1 2 3 4 5 6 
#
# 1 0.009292 -0.003213 -0.005542 0.000000 0.000000 0.000000
# 2 -0.003213 0.016727 -0.003641 0.000000 0.000000 0.000000
# 3 -0.005542 -0.003641 0.027371 0.000000 0.000000 0.000000
# 4 0.000000 0.000000 0.000000 0.068539 0.000000 0.000000
# 5 0.000000 0.000000 0.000000 0.000000 0.037895 0.000000
# 6 0.000000 0.000000 0.000000 0.000000 0.000000 0.032979
#
#
# Mechanical properties :
#
#
# Convention : Reuss Voigt Hill
#
# Bulk Modulus (GPa) = 34.96595 46.50982 40.73788
# Shear Modulus (GPa) = 22.01406 25.68279 23.84842
#
# Velocity S-wave (km/s) = 3.37752 3.64811 3.51542
# Velocity P-wave (km/s) = 5.77316 6.46887 6.13089
#
# Compressibility (1/GPa) = 0.02859925
#
# Stress axis : x y z
#
# Youngs Moduli (GPa) = 107.62271 59.78231 36.53488
#
# Poissons Ratio (x) = 0.19209 0.20247
# Poissons Ratio (y) = 0.34580 0.13301
# Poissons Ratio (z) = 0.59642 0.21765
#
# Static dielectric constant tensor:
#      x y z
#    x 1.649000 0.000000 0.000000 
#    y 0.000000 1.682170 0.000000 
#    z 0.000000 0.000000 1.694870 
# 
# From -- ./inp_files/23955.got.cif
#   From: 2010.05.17/outbox.cif.g08.bks.cpg/sg42_12_cif.got.tgz:23955.got - 2010.06.03 19:03:34.
