data_PCOD9368298
_publ_section_title
;
Structure prediction by ZEFSAII (Michael W. Deem and Ramdas Pophale) SiO2 
 PCOD9368298
Probable space group: F M M 2
;
_chemical_formula_sum "Si O2"
_cell_formula_units_Z 72
_cell_length_a 8.391647
_cell_length_b 23.744715
_cell_length_c 19.284529
_cell_angle_alpha 90.000000
_cell_angle_beta 90.000000
_cell_angle_gamma 90.000000
_cell_volume 3842.582532
_symmetry_space_group_name_H-M "F M M 2"
_symmetry_group_IT_number 42
_symmetry_cell_setting 'orthorhombic'
loop_
_space_group_symop_operation_xyz
x,y,z
-x,-y,z
-x,y,z
x,-y,z
x,1/2+y,1/2+z
-x,1/2-y,1/2+z
-x,1/2+y,1/2+z
x,1/2-y,1/2+z
1/2+x,y,1/2+z
1/2-x,-y,1/2+z
1/2-x,y,1/2+z
1/2+x,-y,1/2+z
1/2+x,1/2+y,z
1/2-x,1/2-y,z
1/2-x,1/2+y,z
1/2+x,1/2-y,z
loop_
_atom_site_type_symbol
_atom_site_label
_atom_site_fract_x
_atom_site_fract_y
_atom_site_fract_z
Si Si1 0.750000 0.750000 0.339250
Si Si2 0.186111 0.344293 0.241117
Si Si3 0.318967 0.149945 0.443351
Si Si4 0.808511 0.813807 0.096272
Si Si5 0.186560 0.435189 0.837630
O O1 0.704269 0.701492 0.282540
O O2 0.675204 0.793852 0.395129
O O3 0.233436 0.345908 0.161239
O O4 0.213905 0.403504 0.278408
O O5 0.000000 0.326742 0.249365
O O6 0.500000 0.128814 0.447926
O O7 0.260801 0.164631 0.520133
O O8 0.215417 0.102987 0.405334
O O9 0.750000 0.750000 0.102952
O O10 0.000000 0.815731 0.100316
O O11 0.232757 0.500000 0.847612
O O12 0.000000 0.433196 0.819289
#
# Coordination Sequence:
#
# PCOD9368298 Si02
#       5
#     8  16  16  16  16
#     4  10  18  32  52  84 112 146 186 230 278 338
#     4  11  23  37  57  85 116 154 193 234 289 342
#     4  10  22  37  57  85 115 152 192 232 287 343
#     4  11  22  37  56  84 121 156 190 231 284 345
#     4  10  22  40  62  86 112 148 195 245 291 337
#
# _framework density 18.737399
#
# number of rings (size 3 to 8) (size 9 to 14) (size 15 to 20)
#    0.000    1.556    2.222    4.000    0.000   11.556 
#    0.000    1.111    0.000    1.333    0.000    0.000 
#    0.000    0.000    0.000    0.000    0.000    0.000 
#
# Total GULP energy -100211.403982 kJ/mol
# GULP energy per Si atom -5567.300221 kJ/mol
# Density = 1.869475 g / cm^3
# Si number density = 18.737399 Si / 1000 Ang^3
#
#
#
# Elastic Constant Matrix: (Units=GPa)
#
#
# Indices 1 2 3 4 5 6 
#
# 1 46.0589 33.2115 31.2153 0.0000 0.0000 0.0000
# 2 33.2115 99.8133 28.0106 0.0000 0.0000 0.0000
# 3 31.2153 28.0106 146.9264 0.0000 0.0000 0.0000
# 4 0.0000 0.0000 0.0000 14.2588 0.0000 0.0000
# 5 0.0000 0.0000 0.0000 0.0000 22.2931 0.0000
# 6 0.0000 0.0000 0.0000 0.0000 0.0000 19.5996
#
#
#
# Elastic Compliance Matrix: (Units=1/GPa)
#
#
# Indices 1 2 3 4 5 6 
#
# 1 0.031685 -0.009143 -0.004989 0.000000 0.000000 0.000000
# 2 -0.009143 0.013223 -0.000578 0.000000 0.000000 0.000000
# 3 -0.004989 -0.000578 0.007976 0.000000 0.000000 0.000000
# 4 0.000000 0.000000 0.000000 0.070132 0.000000 0.000000
# 5 0.000000 0.000000 0.000000 0.000000 0.044857 0.000000
# 6 0.000000 0.000000 0.000000 0.000000 0.000000 0.051022
#
#
# Mechanical properties :
#
#
# Convention : Reuss Voigt Hill
#
# Bulk Modulus (GPa) = 42.61746 53.07482 47.84614
# Shear Modulus (GPa) = 19.52088 24.58770 22.05429
#
# Velocity S-wave (km/s) = 3.23122 3.62640 3.43449
# Velocity P-wave (km/s) = 6.05929 6.77653 6.42792
#
# Compressibility (1/GPa) = 0.02346456
#
# Stress axis : x y z
#
# Youngs Moduli (GPa) = 31.56096 75.62489 125.37192
#
# Poissons Ratio (x) = 0.69142 0.62543
# Poissons Ratio (y) = 0.28855 0.07253
# Poissons Ratio (z) = 0.15744 0.04375
#
# Static dielectric constant tensor:
#      x y z
#    x 1.698070 0.000000 0.000000 
#    y 0.000000 1.627420 0.000000 
#    z 0.000000 0.000000 1.656690 
# 
# From -- ./inp_files/18047.got.cif
#   From: 2010.05.17/outbox.cif.g08.bks.cpg/sg42_10_cif.got.tgz:18047.got - 2010.06.03 19:03:34.
