data_PCOD9368689
_publ_section_title
;
Structure prediction by ZEFSAII (Michael W. Deem and Ramdas Pophale) SiO2 
 PCOD9368689
Probable space group: F M M 2
;
_chemical_formula_sum "Si O2"
_cell_formula_units_Z 48
_cell_length_a 14.349557
_cell_length_b 5.554857
_cell_length_c 23.037987
_cell_angle_alpha 90.000000
_cell_angle_beta 90.000000
_cell_angle_gamma 90.000000
_cell_volume 1836.351888
_symmetry_space_group_name_H-M "F M M 2"
_symmetry_group_IT_number 42
_symmetry_cell_setting 'orthorhombic'
loop_
_space_group_symop_operation_xyz
x,y,z
-x,-y,z
-x,y,z
x,-y,z
x,1/2+y,1/2+z
-x,1/2-y,1/2+z
-x,1/2+y,1/2+z
x,1/2-y,1/2+z
1/2+x,y,1/2+z
1/2-x,-y,1/2+z
1/2-x,y,1/2+z
1/2+x,-y,1/2+z
1/2+x,1/2+y,z
1/2-x,1/2-y,z
1/2-x,1/2+y,z
1/2+x,1/2-y,z
loop_
_atom_site_type_symbol
_atom_site_label
_atom_site_fract_x
_atom_site_fract_y
_atom_site_fract_z
Si Si1 0.385835 0.500000 0.410040
Si Si2 0.886213 0.500000 0.213744
Si Si3 0.605662 0.000000 0.459670
Si Si4 0.803969 0.500000 0.082684
Si Si5 0.000000 0.500000 0.573997
Si Si6 0.000000 0.500000 0.086552
Si Si7 0.887139 0.000000 0.275502
O O1 0.500000 0.500000 0.414432
O O2 0.352669 0.749872 0.438470
O O3 0.358682 0.500000 0.342585
O O4 0.840875 0.500000 0.149617
O O5 0.858382 0.249822 0.244761
O O6 0.000000 0.500000 0.213342
O O7 0.584700 0.000000 0.528555
O O8 0.500000 0.000000 0.433786
O O9 0.750000 0.750000 0.073409
O O10 0.904424 0.500000 0.050150
O O11 0.000000 0.265834 0.612647
O O12 0.000000 0.000000 0.274823
#
# Coordination Sequence:
#
# PCOD9368689 Si02
#       7
#     8   8   8   8   4   4   8
#     4   9  13  23  38  70 114 158 183 241 291 336
#     4  10  19  36  53  82 119 160 202 245 299 360
#     4   8  15  24  42  70 114 154 185 234 302 355
#     4  12  26  44  67  93 124 167 213 261 327 386
#     4  10  20  34  58  85 120 171 194 256 336 366
#     4  12  24  44  66  91 128 161 204 276 322 382
#     4   9  17  25  48  76 115 164 194 240 300 338
#
# _framework density 26.138781999999999
#
# number of rings (size 3 to 8) (size 9 to 14) (size 15 to 20)
#    0.500    1.667    0.833    4.000    0.000    4.000 
#    0.000    0.000    0.000    0.000    0.000    0.000 
#    0.000   93.333    0.000    0.000    0.000    0.000 
#
# Total GULP energy -67053.836035 kJ/mol
# GULP energy per Si atom -5587.819670 kJ/mol
# Density = 2.607929 g / cm^3
# Si number density = 26.138782 Si / 1000 Ang^3
#
#
#
# Elastic Constant Matrix: (Units=GPa)
#
#
# Indices 1 2 3 4 5 6 
#
# 1 159.8821 57.6606 21.2418 0.0000 0.0000 0.0000
# 2 57.6606 338.5281 82.1101 0.0000 0.0000 0.0000
# 3 21.2418 82.1101 127.8915 0.0000 0.0000 0.0000
# 4 0.0000 0.0000 0.0000 51.5150 0.0000 0.0000
# 5 0.0000 0.0000 0.0000 0.0000 11.2159 0.0000
# 6 0.0000 0.0000 0.0000 0.0000 0.0000 -0.9515
#
#
#
# Elastic Compliance Matrix: (Units=1/GPa)
#
#
# Indices 1 2 3 4 5 6 
#
# 1 0.006686 -0.001030 -0.000449 0.000000 0.000000 0.000000
# 2 -0.001030 0.003657 -0.002177 0.000000 0.000000 0.000000
# 3 -0.000449 -0.002177 0.009292 0.000000 0.000000 0.000000
# 4 0.000000 0.000000 0.000000 0.019412 0.000000 0.000000
# 5 0.000000 0.000000 0.000000 0.000000 0.089159 0.000000
# 6 0.000000 0.000000 0.000000 0.000000 0.000000 -1.050994
#
#
# Mechanical properties :
#
#
# Convention : Reuss Voigt Hill
#
# Bulk Modulus (GPa) = 81.15414 105.36963 93.26188
# Shear Modulus (GPa) = -5.48625 43.37517 18.94446
#
# Velocity S-wave (km/s) = -1.45033 4.07801 2.69507
# Velocity P-wave (km/s) = 5.32073 7.91029 6.74103
#
# Compressibility (1/GPa) = 0.01232223
#
# Stress axis : x y z
#
# Youngs Moduli (GPa) = 149.57325 273.41606 107.62483
#
# Poissons Ratio (x) = 0.28156 0.04836
# Poissons Ratio (y) = 0.15403 0.23431
# Poissons Ratio (z) = 0.06720 0.59526
#
# Static dielectric constant tensor:
#      x y z
#    x 2.194080 0.000000 0.000000 
#    y 0.000000 2.032020 0.000000 
#    z 0.000000 0.000000 1.978460 
# 
# From -- ./inp_files/32351.got.cif
#   From: 2010.05.17/outbox.cif.g08.bks.cpg/sg42_17_cif.got.tgz:32351.got - 2010.06.03 19:03:34.
