data_PCOD9368378
_publ_section_title
;
Structure prediction by ZEFSAII (Michael W. Deem and Ramdas Pophale) SiO2 
 PCOD9368378
Probable space group: F M M 2
;
_chemical_formula_sum "Si O2"
_cell_formula_units_Z 72
_cell_length_a 8.705315
_cell_length_b 23.988231
_cell_length_c 15.571709
_cell_angle_alpha 90.000000
_cell_angle_beta 90.000000
_cell_angle_gamma 90.000000
_cell_volume 3251.763800
_symmetry_space_group_name_H-M "F M M 2"
_symmetry_group_IT_number 42
_symmetry_cell_setting 'orthorhombic'
loop_
_space_group_symop_operation_xyz
x,y,z
-x,-y,z
-x,y,z
x,-y,z
x,1/2+y,1/2+z
-x,1/2-y,1/2+z
-x,1/2+y,1/2+z
x,1/2-y,1/2+z
1/2+x,y,1/2+z
1/2-x,-y,1/2+z
1/2-x,y,1/2+z
1/2+x,-y,1/2+z
1/2+x,1/2+y,z
1/2-x,1/2-y,z
1/2-x,1/2+y,z
1/2+x,1/2-y,z
loop_
_atom_site_type_symbol
_atom_site_label
_atom_site_fract_x
_atom_site_fract_y
_atom_site_fract_z
Si Si1 0.319473 0.000000 0.424130
Si Si2 0.500000 0.304355 0.727930
Si Si3 0.824826 0.000000 0.133652
Si Si4 0.175151 0.382485 0.930411
Si Si5 0.722072 0.120867 0.131720
Si Si6 0.500000 0.186627 0.412795
Si Si7 0.500000 0.703066 0.098513
O O1 0.500000 0.000000 0.395997
O O2 0.326302 0.000000 0.529009
O O3 0.226543 0.055665 0.400339
O O4 0.363032 0.345872 0.705872
O O5 0.500000 0.281671 0.823295
O O6 0.500000 0.255242 0.659828
O O7 0.749667 0.057806 0.160498
O O8 0.000000 0.000000 0.162756
O O9 0.335184 0.347066 0.914391
O O10 0.000000 0.367978 0.897790
O O11 0.157869 0.383184 0.034539
O O12 0.862889 0.161315 0.115005
O O13 0.500000 0.222280 0.499596
#
# Coordination Sequence:
#
# PCOD9368378 Si02
#       7
#     8   8   8  16  16   8   8
#     4   9  15  27  57  97 135 179 229 287 345 404
#     4  12  24  43  63 106 141 175 233 293 355 422
#     4   9  16  32  62  99 129 177 230 278 347 413
#     4  10  18  36  63  96 134 181 233 285 344 416
#     4  10  20  38  67  97 135 175 229 290 342 411
#     4  10  24  43  68  94 136 181 232 292 362 412
#     4  10  22  45  73  96 129 187 233 287 351 420
#
# _framework density 22.141829000000001
#
# number of rings (size 3 to 8) (size 9 to 14) (size 15 to 20)
#    0.000    2.000    3.333    1.000    0.000    0.444 
#    2.000   11.111    0.000    0.000    0.000    0.000 
#    0.000    0.000    0.000    0.000    0.000    0.000 
#
# Total GULP energy -100223.615989 kJ/mol
# GULP energy per Si atom -5567.978666 kJ/mol
# Density = 2.209143 g / cm^3
# Si number density = 22.141829 Si / 1000 Ang^3
#
#
#
# Elastic Constant Matrix: (Units=GPa)
#
#
# Indices 1 2 3 4 5 6 
#
# 1 137.5395 30.2787 29.1455 0.0000 0.0000 0.0000
# 2 30.2787 128.4524 46.9849 0.0000 0.0000 0.0000
# 3 29.1455 46.9849 101.6482 0.0000 0.0000 0.0000
# 4 0.0000 0.0000 0.0000 7.7799 0.0000 0.0000
# 5 0.0000 0.0000 0.0000 0.0000 -26.9341 0.0000
# 6 0.0000 0.0000 0.0000 0.0000 0.0000 -10.6647
#
#
#
# Elastic Compliance Matrix: (Units=1/GPa)
#
#
# Indices 1 2 3 4 5 6 
#
# 1 0.007903 -0.001244 -0.001691 0.000000 0.000000 0.000000
# 2 -0.001244 0.009565 -0.004064 0.000000 0.000000 0.000000
# 3 -0.001691 -0.004064 0.012201 0.000000 0.000000 0.000000
# 4 0.000000 0.000000 0.000000 0.128536 0.000000 0.000000
# 5 0.000000 0.000000 0.000000 0.000000 -0.037128 0.000000
# 6 0.000000 0.000000 0.000000 0.000000 0.000000 -0.093768
#
#
# Mechanical properties :
#
#
# Convention : Reuss Voigt Hill
#
# Bulk Modulus (GPa) = 63.81625 64.49536 64.15581
# Shear Modulus (GPa) = 107.45112 11.45163 59.45138
#
# Velocity S-wave (km/s) = 6.97380 2.27666 5.18734
# Velocity P-wave (km/s) = 9.68139 6.00853 8.05704
#
# Compressibility (1/GPa) = 0.01566999
#
# Stress axis : x y z
#
# Youngs Moduli (GPa) = 126.53625 104.54797 81.95822
#
# Poissons Ratio (x) = 0.13010 0.13857
# Poissons Ratio (y) = 0.15746 0.33311
# Poissons Ratio (z) = 0.21394 0.42493
#
# Static dielectric constant tensor:
#      x y z
#    x 1.962850 0.000000 0.000000 
#    y 0.000000 1.767320 0.000000 
#    z 0.000000 0.000000 1.820130 
# 
# From -- ./inp_files/12107.got.cif
#   From: 2010.05.17/outbox.cif.g08.bks.cpg/sg42_7_cif.got.tgz:12107.got - 2010.06.03 19:03:34.
