data_PCOD9368965
_publ_section_title
;
Structure prediction by ZEFSAII (Michael W. Deem and Ramdas Pophale) SiO2 
 PCOD9368965
Probable space group: F M M 2
;
_chemical_formula_sum "Si O2"
_cell_formula_units_Z 112
_cell_length_a 30.428783
_cell_length_b 14.564921
_cell_length_c 13.549118
_cell_angle_alpha 90.000000
_cell_angle_beta 90.000000
_cell_angle_gamma 90.000000
_cell_volume 6004.871822
_symmetry_space_group_name_H-M "F M M 2"
_symmetry_group_IT_number 42
_symmetry_cell_setting 'orthorhombic'
loop_
_space_group_symop_operation_xyz
x,y,z
-x,-y,z
-x,y,z
x,-y,z
x,1/2+y,1/2+z
-x,1/2-y,1/2+z
-x,1/2+y,1/2+z
x,1/2-y,1/2+z
1/2+x,y,1/2+z
1/2-x,-y,1/2+z
1/2-x,y,1/2+z
1/2+x,-y,1/2+z
1/2+x,1/2+y,z
1/2-x,1/2-y,z
1/2-x,1/2+y,z
1/2+x,1/2-y,z
loop_
_atom_site_type_symbol
_atom_site_label
_atom_site_fract_x
_atom_site_fract_y
_atom_site_fract_z
Si Si1 0.000000 0.610123 0.001150
Si Si2 0.000000 0.387234 0.769704
Si Si3 0.144641 0.340963 0.930310
Si Si4 0.588142 0.608746 0.618667
Si Si5 0.711188 0.314095 0.968275
Si Si6 0.908119 0.794410 0.231502
Si Si7 0.829294 0.395419 0.643689
Si Si8 0.272478 0.397642 0.315620
O O1 0.042932 0.635390 0.062828
O O2 0.000000 0.500000 0.996216
O O3 0.000000 0.638749 0.886839
O O4 0.043868 0.340803 0.725079
O O5 0.000000 0.500000 0.760668
O O6 0.110973 0.324327 0.839540
O O7 0.186358 0.399191 0.891550
O O8 0.123568 0.379763 0.030081
O O9 0.167985 0.244982 0.952100
O O10 0.587009 0.500000 0.648262
O O11 0.593098 0.685408 0.705000
O O12 0.750000 0.250000 0.012527
O O13 0.695697 0.392782 0.040819
O O14 0.732314 0.348201 0.867142
O O15 0.874271 0.840239 0.153886
O O16 0.838401 0.500000 0.674372
O O17 0.794602 0.352267 0.720835
O O18 0.258655 0.500000 0.289236
#
# Coordination Sequence:
#
# PCOD9368965 Si02
#       8
#     8   8  16  16  16  16  16  16
#     4   9  19  34  60  88 112 148 198 247 287 343
#     4  11  21  36  61  92 118 154 199 245 298 355
#     4  10  20  36  57  83 116 150 193 244 298 347
#     4  11  21  38  61  90 120 155 200 245 295 354
#     4  10  20  35  55  77 111 153 192 240 293 353
#     4  11  22  37  61  89 122 152 194 248 299 352
#     4  10  20  35  57  83 114 152 193 240 296 354
#     4   9  19  34  53  79 107 145 194 244 290 343
#
# _framework density 18.651520999999999
#
# number of rings (size 3 to 8) (size 9 to 14) (size 15 to 20)
#    0.000    1.857    2.857    1.714    0.000    4.000 
#    0.000    1.429    0.000    0.000    0.000    0.000 
#    0.000    0.000    0.000    0.000    0.000    0.000 
#
# Total GULP energy -155875.997726 kJ/mol
# GULP energy per Si atom -5566.999919 kJ/mol
# Density = 1.860907 g / cm^3
# Si number density = 18.651521 Si / 1000 Ang^3
#
#
#
# Elastic Constant Matrix: (Units=GPa)
#
#
# Indices 1 2 3 4 5 6 
#
# 1 75.4928 20.7082 10.6021 0.0000 0.0000 0.0000
# 2 20.7082 89.2716 16.7149 0.0000 0.0000 0.0000
# 3 10.6021 16.7149 29.7900 0.0000 0.0000 0.0000
# 4 0.0000 0.0000 0.0000 5.5959 0.0000 0.0000
# 5 0.0000 0.0000 0.0000 0.0000 16.3573 0.0000
# 6 0.0000 0.0000 0.0000 0.0000 0.0000 17.6495
#
#
#
# Elastic Compliance Matrix: (Units=1/GPa)
#
#
# Indices 1 2 3 4 5 6 
#
# 1 0.014494 -0.002678 -0.003656 0.000000 0.000000 0.000000
# 2 -0.002678 0.013011 -0.006348 0.000000 0.000000 0.000000
# 3 -0.003656 -0.006348 0.038431 0.000000 0.000000 0.000000
# 4 0.000000 0.000000 0.000000 0.178703 0.000000 0.000000
# 5 0.000000 0.000000 0.000000 0.000000 0.061135 0.000000
# 6 0.000000 0.000000 0.000000 0.000000 0.000000 0.056659
#
#
# Mechanical properties :
#
#
# Convention : Reuss Voigt Hill
#
# Bulk Modulus (GPa) = 24.64624 32.28941 28.46783
# Shear Modulus (GPa) = 12.45888 17.68916 15.07402
#
# Velocity S-wave (km/s) = 2.58734 3.08296 2.84596
# Velocity P-wave (km/s) = 4.70834 5.47927 5.10837
#
# Compressibility (1/GPa) = 0.04057414
#
# Stress axis : x y z
#
# Youngs Moduli (GPa) = 68.99287 76.85569 26.02062
#
# Poissons Ratio (x) = 0.20579 0.09513
# Poissons Ratio (y) = 0.18474 0.16517
# Poissons Ratio (z) = 0.25224 0.48785
#
# Static dielectric constant tensor:
#      x y z
#    x 1.656120 0.000000 0.000000 
#    y 0.000000 1.676980 0.000000 
#    z 0.000000 0.000000 1.688730 
# 
# From -- ./inp_files/14461.got.cif
#   From: 2010.05.17/outbox.cif.g08.bks.cpg/sg42_8_cif.got.tgz:14461.got - 2010.06.03 19:03:34.
