data_PCOD9368204
_publ_section_title
;
Structure prediction by ZEFSAII (Michael W. Deem and Ramdas Pophale) SiO2 
 PCOD9368204
Probable space group: F M M 2
;
_chemical_formula_sum "Si O2"
_cell_formula_units_Z 96
_cell_length_a 24.312593
_cell_length_b 8.887709
_cell_length_c 25.850000
_cell_angle_alpha 90.000000
_cell_angle_beta 90.000000
_cell_angle_gamma 90.000000
_cell_volume 5585.752054
_symmetry_space_group_name_H-M "F M M 2"
_symmetry_group_IT_number 42
_symmetry_cell_setting 'orthorhombic'
loop_
_space_group_symop_operation_xyz
x,y,z
-x,-y,z
-x,y,z
x,-y,z
x,1/2+y,1/2+z
-x,1/2-y,1/2+z
-x,1/2+y,1/2+z
x,1/2-y,1/2+z
1/2+x,y,1/2+z
1/2-x,-y,1/2+z
1/2-x,y,1/2+z
1/2+x,-y,1/2+z
1/2+x,1/2+y,z
1/2-x,1/2-y,z
1/2-x,1/2+y,z
1/2+x,1/2-y,z
loop_
_atom_site_type_symbol
_atom_site_label
_atom_site_fract_x
_atom_site_fract_y
_atom_site_fract_z
Si Si1 0.116770 0.182747 0.211450
Si Si2 0.500000 0.672482 0.250762
Si Si3 0.063835 0.180664 0.106890
Si Si4 0.936223 0.179393 0.494896
Si Si5 0.617374 0.829352 0.401058
Si Si6 0.689438 0.181709 0.301600
Si Si7 0.500000 0.161490 0.347236
O O1 0.108840 0.219449 0.150762
O O2 0.161312 0.256865 0.248957
O O3 0.057623 0.236699 0.232896
O O4 0.121336 0.000000 0.216201
O O5 0.500000 0.500000 0.232994
O O6 0.500000 0.692831 0.311755
O O7 0.000000 0.219803 0.122214
O O8 0.064580 0.000000 0.101589
O O9 0.074784 0.255294 0.051803
O O10 0.891760 0.236265 0.453284
O O11 0.000000 0.225475 0.482017
O O12 0.935431 0.000000 0.496182
O O13 0.654717 0.773322 0.353203
O O14 0.555584 0.836998 0.379006
O O15 0.635436 0.000000 0.413484
O O16 0.750000 0.250000 0.305599
O O17 0.690203 0.000000 0.299978
O O18 0.500000 0.000000 0.317356
#
# Coordination Sequence:
#
# PCOD9368204 Si02
#       7
#    16   8  16  16  16  16   8
#     4  10  19  33  54  80 110 143 178 217 263 317
#     4  10  18  28  47  78 111 139 170 210 262 319
#     4   9  17  31  51  76 110 149 181 209 251 312
#     4  10  20  31  47  77 113 145 177 214 258 309
#     4  10  20  34  53  75 104 141 176 213 263 322
#     4  11  24  40  57  78 104 139 182 227 274 320
#     4  10  18  30  47  74 107 137 172 212 262 323
#
# _framework density 17.186585000000001
#
# number of rings (size 3 to 8) (size 9 to 14) (size 15 to 20)
#    0.000    2.000    3.333    1.000    0.000    3.333 
#    0.000    0.000    0.000    1.000    0.000    4.667 
#    0.000    0.000    0.000    0.000    0.000    0.000 
#
# Total GULP energy -133609.226263 kJ/mol
# GULP energy per Si atom -5567.051094 kJ/mol
# Density = 1.714747 g / cm^3
# Si number density = 17.186585 Si / 1000 Ang^3
#
#
#
# Elastic Constant Matrix: (Units=GPa)
#
#
# Indices 1 2 3 4 5 6 
#
# 1 97.4788 30.4341 62.4418 0.0000 0.0000 0.0000
# 2 30.4341 39.4479 53.4099 0.0000 0.0000 0.0000
# 3 62.4418 53.4099 139.5993 0.0000 0.0000 0.0000
# 4 0.0000 0.0000 0.0000 26.1734 0.0000 0.0000
# 5 0.0000 0.0000 0.0000 0.0000 11.5438 0.0000
# 6 0.0000 0.0000 0.0000 0.0000 0.0000 17.2921
#
#
#
# Elastic Compliance Matrix: (Units=1/GPa)
#
#
# Indices 1 2 3 4 5 6 
#
# 1 0.014860 -0.005115 -0.004690 0.000000 0.000000 0.000000
# 2 -0.005115 0.054354 -0.018508 0.000000 0.000000 0.000000
# 3 -0.004690 -0.018508 0.016342 0.000000 0.000000 0.000000
# 4 0.000000 0.000000 0.000000 0.038207 0.000000 0.000000
# 5 0.000000 0.000000 0.000000 0.000000 0.086627 0.000000
# 6 0.000000 0.000000 0.000000 0.000000 0.000000 0.057830
#
#
# Mechanical properties :
#
#
# Convention : Reuss Voigt Hill
#
# Bulk Modulus (GPa) = 34.56440 63.23306 48.89873
# Shear Modulus (GPa) = 14.94823 19.68455 17.31639
#
# Velocity S-wave (km/s) = 2.95237 3.38796 3.17764
# Velocity P-wave (km/s) = 5.63710 7.22332 6.47894
#
# Compressibility (1/GPa) = 0.02893150
#
# Stress axis : x y z
#
# Youngs Moduli (GPa) = 67.29656 18.39777 61.19150
#
# Poissons Ratio (x) = 0.09410 0.28698
# Poissons Ratio (y) = 0.34419 1.13253
# Poissons Ratio (z) = 0.31561 0.34051
#
# Static dielectric constant tensor:
#      x y z
#    x 1.569080 0.000000 0.000000 
#    y 0.000000 1.619350 0.000000 
#    z 0.000000 0.000000 1.614680 
# 
# From -- ./inp_files/28105.got.cif
#   From: 2010.05.17/outbox.cif.g08.bks.cpg/sg42_15_cif.got.tgz:28105.got - 2010.06.03 19:03:34.
