data_PCOD9368535
_publ_section_title
;
Structure prediction by ZEFSAII (Michael W. Deem and Ramdas Pophale) SiO2 
 PCOD9368535
Probable space group: F M M 2
;
_chemical_formula_sum "Si O2"
_cell_formula_units_Z 116
_cell_length_a 30.091718
_cell_length_b 8.006424
_cell_length_c 25.686709
_cell_angle_alpha 90.000000
_cell_angle_beta 90.000000
_cell_angle_gamma 90.000000
_cell_volume 6188.623106
_symmetry_space_group_name_H-M "F M M 2"
_symmetry_group_IT_number 42
_symmetry_cell_setting 'orthorhombic'
loop_
_space_group_symop_operation_xyz
x,y,z
-x,-y,z
-x,y,z
x,-y,z
x,1/2+y,1/2+z
-x,1/2-y,1/2+z
-x,1/2+y,1/2+z
x,1/2-y,1/2+z
1/2+x,y,1/2+z
1/2-x,-y,1/2+z
1/2-x,y,1/2+z
1/2+x,-y,1/2+z
1/2+x,1/2+y,z
1/2-x,1/2-y,z
1/2-x,1/2+y,z
1/2+x,1/2-y,z
loop_
_atom_site_type_symbol
_atom_site_label
_atom_site_fract_x
_atom_site_fract_y
_atom_site_fract_z
Si Si1 0.204787 0.688499 0.878590
Si Si2 0.568963 0.806606 0.533980
Si Si3 0.123276 0.310071 0.437434
Si Si4 0.000000 0.500000 0.015728
Si Si5 0.448636 0.698866 0.356683
Si Si6 0.052336 0.297682 0.146011
Si Si7 0.799279 0.310319 0.263916
Si Si8 0.897319 0.796814 0.751479
O O1 0.210896 0.500000 0.859662
O O2 0.250000 0.750000 0.905121
O O3 0.162193 0.698666 0.914648
O O4 0.198500 0.797199 0.826713
O O5 0.500000 0.746086 0.645321
O O6 0.611889 0.787318 0.497614
O O7 0.574585 0.784444 0.595757
O O8 0.553277 0.000000 0.524469
O O9 0.137584 0.500000 0.428195
O O10 0.078570 0.279117 0.404033
O O11 0.962314 0.651071 0.018148
O O12 0.500000 0.756337 0.353473
O O13 0.449302 0.500000 0.365516
O O14 0.421986 0.734821 0.303480
O O15 0.054577 0.500000 0.140530
O O16 0.074771 0.251208 0.200350
O O17 0.801275 0.500000 0.246367
O O18 0.750000 0.250000 0.248852
O O19 0.846534 0.232206 0.247094
O O20 0.896500 0.000000 0.755091
#
# Coordination Sequence:
#
# PCOD9368535 Si02
#       8
#    16  16  16   4  16  16  16  16
#     4  11  21  35  59  84 113 149 188 235 290 347
#     4  11  24  39  61  89 116 157 203 249 296 344
#     4  11  24  39  57  83 117 149 194 242 290 352
#     4  12  22  40  64  82 124 152 202 256 292 344
#     4  11  24  36  51  78 115 155 192 230 286 349
#     4  10  19  36  59  82 112 151 195 247 295 343
#     4  10  19  33  54  82 114 148 190 237 285 346
#     4  10  21  36  57  82 113 152 193 236 291 346
#
# _framework density 18.744074000000001
#
# number of rings (size 3 to 8) (size 9 to 14) (size 15 to 20)
#    0.000    1.379    2.759    3.931    2.897    2.759 
#    0.000    0.000    0.000    0.828    0.000    3.862 
#    0.000    0.000    0.000    0.000    0.000    0.000 
#
# Total GULP energy -161511.390780 kJ/mol
# GULP energy per Si atom -5569.358303 kJ/mol
# Density = 1.870141 g / cm^3
# Si number density = 18.744074 Si / 1000 Ang^3
#
#
#
# Elastic Constant Matrix: (Units=GPa)
#
#
# Indices 1 2 3 4 5 6 
#
# 1 93.5634 -0.2014 36.2213 -0.0001 0.0001 0.0017
# 2 -0.2014 59.5410 -3.7053 -0.0002 0.0000 0.0011
# 3 36.2213 -3.7053 81.1710 0.0000 0.0000 0.0003
# 4 -0.0001 -0.0002 0.0000 18.3030 0.0000 0.0002
# 5 0.0001 0.0000 0.0000 0.0000 39.2419 -0.0001
# 6 0.0017 0.0011 0.0003 0.0002 -0.0001 88.0157
#
#
#
# Elastic Compliance Matrix: (Units=1/GPa)
#
#
# Indices 1 2 3 4 5 6 
#
# 1 0.012926 -0.000316 -0.005782 0.000000 0.000000 0.000000
# 2 -0.000316 0.016851 0.000910 0.000000 0.000000 0.000000
# 3 -0.005782 0.000910 0.014942 0.000000 0.000000 0.000000
# 4 0.000000 0.000000 0.000000 0.054636 0.000000 0.000000
# 5 0.000000 0.000000 0.000000 0.000000 0.025483 0.000000
# 6 0.000000 0.000000 0.000000 0.000000 0.000000 0.011362
#
#
# Mechanical properties :
#
#
# Convention : Reuss Voigt Hill
#
# Bulk Modulus (GPa) = 29.11921 33.21162 31.16541
# Shear Modulus (GPa) = 31.64112 42.57616 37.10864
#
# Velocity S-wave (km/s) = 4.11306 4.77114 4.45427
# Velocity P-wave (km/s) = 6.17456 6.93604 6.56635
#
# Compressibility (1/GPa) = 0.03434159
#
# Stress axis : x y z
#
# Youngs Moduli (GPa) = 77.36476 59.34467 66.92761
#
# Poissons Ratio (x) = 0.01876 0.38700
# Poissons Ratio (y) = 0.02446 -0.06092
# Poissons Ratio (z) = 0.44735 -0.05402
#
# Static dielectric constant tensor:
#      x y z
#    x 1.670130 0.000000 0.000000 
#    y 0.000000 1.689760 0.000000 
#    z 0.000000 0.000000 1.628020 
# 
# From -- ./inp_files/33499.got.cif
#   From: 2010.05.17/outbox.cif.g08.bks.cpg/sg42_17_cif.got.tgz:33499.got - 2010.06.03 19:03:34.
