data_PCOD9368322
_publ_section_title
;
Structure prediction by ZEFSAII (Michael W. Deem and Ramdas Pophale) SiO2 
 PCOD9368322
Probable space group: F M M 2
;
_chemical_formula_sum "Si O2"
_cell_formula_units_Z 96
_cell_length_a 23.835504
_cell_length_b 7.655984
_cell_length_c 26.789667
_cell_angle_alpha 90.000000
_cell_angle_beta 90.000000
_cell_angle_gamma 90.000000
_cell_volume 4888.691949
_symmetry_space_group_name_H-M "F M M 2"
_symmetry_group_IT_number 42
_symmetry_cell_setting 'orthorhombic'
loop_
_space_group_symop_operation_xyz
x,y,z
-x,-y,z
-x,y,z
x,-y,z
x,1/2+y,1/2+z
-x,1/2-y,1/2+z
-x,1/2+y,1/2+z
x,1/2-y,1/2+z
1/2+x,y,1/2+z
1/2-x,-y,1/2+z
1/2-x,y,1/2+z
1/2+x,-y,1/2+z
1/2+x,1/2+y,z
1/2-x,1/2-y,z
1/2-x,1/2+y,z
1/2+x,1/2-y,z
loop_
_atom_site_type_symbol
_atom_site_label
_atom_site_fract_x
_atom_site_fract_y
_atom_site_fract_z
Si Si1 0.936505 0.707651 0.267220
Si Si2 0.315524 0.789168 0.961741
Si Si3 0.119768 0.699349 0.058343
Si Si4 0.000000 0.299088 0.403510
Si Si5 0.000000 0.701492 0.522126
Si Si6 0.565203 0.213899 0.154829
Si Si7 0.119581 0.696873 0.865877
O O1 0.941444 0.500000 0.262951
O O2 0.922887 0.771794 0.211457
O O3 0.890212 0.738038 0.309622
O O4 0.000000 0.772881 0.280550
O O5 0.250000 0.750000 0.962002
O O6 0.343470 0.719405 0.910292
O O7 0.324842 0.000000 0.961913
O O8 0.344060 0.721039 0.013056
O O9 0.139870 0.500000 0.064829
O O10 0.056007 0.702632 0.038683
O O11 0.109733 0.777438 0.113525
O O12 0.000000 0.305322 0.462702
O O13 0.056423 0.207031 0.386732
O O14 0.000000 0.500000 0.383820
O O15 0.000000 0.500000 0.540065
O O16 0.500000 0.262597 0.143711
O O17 0.566484 0.000000 0.153012
O O18 0.140023 0.500000 0.860934
#
# Coordination Sequence:
#
# PCOD9368322 Si02
#       7
#    16  16  16   8   8  16  16
#     4   9  17  29  47  76 108 139 173 201 239 296
#     4  10  23  38  54  75  98 129 173 217 260 306
#     4  10  18  33  55  75 100 137 173 206 246 301
#     4  11  21  31  46  73 106 139 166 198 251 310
#     4  11  21  29  44  77 110 135 162 200 255 308
#     4   8  14  26  49  76 103 137 172 201 233 294
#     4  11  21  33  51  76 103 134 170 209 254 304
#
# _framework density 19.637155
#
# number of rings (size 3 to 8) (size 9 to 14) (size 15 to 20)
#    0.000    2.167    3.333    2.000    0.000    2.667 
#    0.000    0.833    0.000    1.000    0.000    4.667 
#    0.000    0.000    0.000    0.000    0.000    0.000 
#
# Total GULP energy -133680.213857 kJ/mol
# GULP energy per Si atom -5570.008911 kJ/mol
# Density = 1.959246 g / cm^3
# Si number density = 19.637155 Si / 1000 Ang^3
#
#
#
# Elastic Constant Matrix: (Units=GPa)
#
#
# Indices 1 2 3 4 5 6 
#
# 1 88.9322 -12.2788 66.4637 0.0000 0.0001 0.0006
# 2 -12.2788 41.9547 8.7045 -0.0001 0.0001 0.0005
# 3 66.4637 8.7045 198.3497 0.0000 0.0000 0.0000
# 4 0.0000 -0.0001 0.0000 13.5341 0.0000 0.0000
# 5 0.0001 0.0001 0.0000 0.0000 12.0124 -0.0001
# 6 0.0006 0.0005 0.0000 0.0000 -0.0001 3.2081
#
#
#
# Elastic Compliance Matrix: (Units=1/GPa)
#
#
# Indices 1 2 3 4 5 6 
#
# 1 0.016365 0.005982 -0.005746 0.000000 0.000000 -0.000004
# 2 0.005982 0.026241 -0.003156 0.000000 0.000000 -0.000005
# 3 -0.005746 -0.003156 0.007106 0.000000 0.000000 0.000001
# 4 0.000000 0.000000 0.000000 0.073888 0.000000 0.000000
# 5 0.000000 0.000000 0.000000 0.000000 0.083247 0.000002
# 6 -0.000004 -0.000005 0.000001 0.000000 0.000002 0.311709
#
#
# Mechanical properties :
#
#
# Convention : Reuss Voigt Hill
#
# Bulk Modulus (GPa) = 22.79454 50.55726 36.67590
# Shear Modulus (GPa) = 9.27611 23.50740 16.39176
#
# Velocity S-wave (km/s) = 2.17578 3.46365 2.89231
# Velocity P-wave (km/s) = 4.23616 6.46509 5.46546
#
# Compressibility (1/GPa) = 0.04387015
#
# Stress axis : x y z
#
# Youngs Moduli (GPa) = 61.10707 38.10886 140.73605
#
# Poissons Ratio (x) = -0.22795 0.80868
# Poissons Ratio (y) = -0.36552 0.44415
# Poissons Ratio (z) = 0.35112 0.12027
#
# Static dielectric constant tensor:
#      x y z
#    x 1.631450 0.000000 0.000000 
#    y 0.000000 1.782600 0.000000 
#    z 0.000000 0.000000 1.787180 
# 
# From -- ./inp_files/31635.got.cif
#   From: 2010.05.17/outbox.cif.g08.bks.cpg/sg42_16_cif.got.tgz:31635.got - 2010.06.03 19:03:34.
