data_PCOD9368760
_publ_section_title
;
Structure prediction by ZEFSAII (Michael W. Deem and Ramdas Pophale) SiO2 
 PCOD9368760
Probable space group: F M M 2
;
_chemical_formula_sum "Si O2"
_cell_formula_units_Z 96
_cell_length_a 16.402047
_cell_length_b 14.546321
_cell_length_c 20.727271
_cell_angle_alpha 90.000000
_cell_angle_beta 90.000000
_cell_angle_gamma 90.000000
_cell_volume 4945.307996
_symmetry_space_group_name_H-M "F M M 2"
_symmetry_group_IT_number 42
_symmetry_cell_setting 'orthorhombic'
loop_
_space_group_symop_operation_xyz
x,y,z
-x,-y,z
-x,y,z
x,-y,z
x,1/2+y,1/2+z
-x,1/2-y,1/2+z
-x,1/2+y,1/2+z
x,1/2-y,1/2+z
1/2+x,y,1/2+z
1/2-x,-y,1/2+z
1/2-x,y,1/2+z
1/2+x,-y,1/2+z
1/2+x,1/2+y,z
1/2-x,1/2-y,z
1/2-x,1/2+y,z
1/2+x,1/2-y,z
loop_
_atom_site_type_symbol
_atom_site_label
_atom_site_fract_x
_atom_site_fract_y
_atom_site_fract_z
Si Si1 0.162198 0.200207 0.558130
Si Si2 0.141825 0.500000 0.878775
Si Si3 0.598032 0.500000 0.767507
Si Si4 0.904572 0.000000 0.522578
Si Si5 0.098398 0.307005 0.823648
Si Si6 0.098735 0.807845 0.701059
Si Si7 0.671058 0.000000 0.411868
Si Si8 0.405358 0.185397 0.444626
O O1 0.250000 0.250000 0.547928
O O2 0.137141 0.212533 0.632251
O O3 0.104472 0.253218 0.507757
O O4 0.145005 0.091831 0.543405
O O5 0.125899 0.409529 0.837518
O O6 0.233471 0.500000 0.903196
O O7 0.090397 0.500000 0.944761
O O8 0.500000 0.500000 0.773507
O O9 0.621394 0.408489 0.728527
O O10 0.632672 0.500000 0.839822
O O11 0.000000 0.000000 0.547342
O O12 0.124352 0.264670 0.755793
O O13 0.126243 0.242832 0.882966
O O14 0.000000 0.305385 0.824971
O O15 0.000000 0.805979 0.695165
O O16 0.642535 0.909196 0.448359
O O17 0.500000 0.163854 0.433026
#
# Coordination Sequence:
#
# PCOD9368760 Si02
#       8
#    16   8   8   8  16  16   8  16
#     4  12  26  42  64  99 138 171 213 276 338 389
#     4  12  24  37  60  97 132 166 212 274 330 379
#     4  10  19  38  66  95 125 161 222 279 315 376
#     4  12  23  44  74  97 125 175 234 281 321 386
#     4  10  21  39  65  90 122 164 215 265 313 381
#     4  10  21  40  65  93 126 171 219 265 318 387
#     4  12  24  37  62  97 136 166 206 270 340 393
#     4  11  22  41  66  92 124 168 213 263 322 392
#
# _framework density 19.412338999999999
#
# number of rings (size 3 to 8) (size 9 to 14) (size 15 to 20)
#    0.000    1.000    3.333    4.500    0.000    2.000 
#    0.000    1.667    0.000    2.000    0.000    0.000 
#    0.000    0.000    0.000    0.000    0.000    0.000 
#
# Total GULP energy -134133.052856 kJ/mol
# GULP energy per Si atom -5588.877202 kJ/mol
# Density = 1.936816 g / cm^3
# Si number density = 19.412339 Si / 1000 Ang^3
#
#
#
# Elastic Constant Matrix: (Units=GPa)
#
#
# Indices 1 2 3 4 5 6 
#
# 1 57.5864 38.4245 14.3174 0.0000 0.0000 0.0000
# 2 38.4245 173.6103 61.9503 0.0000 0.0000 0.0000
# 3 14.3174 61.9503 116.1342 0.0000 0.0000 0.0000
# 4 0.0000 0.0000 0.0000 24.4964 0.0000 0.0000
# 5 0.0000 0.0000 0.0000 0.0000 25.6673 0.0000
# 6 0.0000 0.0000 0.0000 0.0000 0.0000 -1.9782
#
#
#
# Elastic Compliance Matrix: (Units=1/GPa)
#
#
# Indices 1 2 3 4 5 6 
#
# 1 0.020376 -0.004463 -0.000131 0.000000 0.000000 0.000000
# 2 -0.004463 0.008092 -0.003766 0.000000 0.000000 0.000000
# 3 -0.000131 -0.003766 0.010636 0.000000 0.000000 0.000000
# 4 0.000000 0.000000 0.000000 0.040822 0.000000 0.000000
# 5 0.000000 0.000000 0.000000 0.000000 0.038960 0.000000
# 6 0.000000 0.000000 0.000000 0.000000 0.000000 -0.505515
#
#
# Mechanical properties :
#
#
# Convention : Reuss Voigt Hill
#
# Bulk Modulus (GPa) = 44.67764 64.07949 54.37856
# Shear Modulus (GPa) = -13.79510 25.14635 5.67563
#
# Velocity S-wave (km/s) = -2.66867 3.60304 1.71174
# Velocity P-wave (km/s) = 3.68366 7.09863 5.65508
#
# Compressibility (1/GPa) = 0.02238256
#
# Stress axis : x y z
#
# Youngs Moduli (GPa) = 49.07815 123.58378 94.02072
#
# Poissons Ratio (x) = 0.55153 0.01235
# Poissons Ratio (y) = 0.21903 0.35410
# Poissons Ratio (z) = 0.00645 0.46544
#
# Static dielectric constant tensor:
#      x y z
#    x 1.695800 0.000000 0.000000 
#    y 0.000000 1.677680 0.000000 
#    z 0.000000 0.000000 1.654020 
# 
# From -- ./inp_files/25156.got.cif
#   From: 2010.05.17/outbox.cif.g08.bks.cpg/sg42_13_cif.got.tgz:25156.got - 2010.06.03 19:03:34.
