data_PCOD9368268
_publ_section_title
;
Structure prediction by ZEFSAII (Michael W. Deem and Ramdas Pophale) SiO2 
 PCOD9368268
Probable space group: F M M 2
;
_chemical_formula_sum "Si O2"
_cell_formula_units_Z 128
_cell_length_a 20.226678
_cell_length_b 15.050093
_cell_length_c 21.589403
_cell_angle_alpha 90.000000
_cell_angle_beta 90.000000
_cell_angle_gamma 90.000000
_cell_volume 6572.103247
_symmetry_space_group_name_H-M "F M M 2"
_symmetry_group_IT_number 42
_symmetry_cell_setting 'orthorhombic'
loop_
_space_group_symop_operation_xyz
x,y,z
-x,-y,z
-x,y,z
x,-y,z
x,1/2+y,1/2+z
-x,1/2-y,1/2+z
-x,1/2+y,1/2+z
x,1/2-y,1/2+z
1/2+x,y,1/2+z
1/2-x,-y,1/2+z
1/2-x,y,1/2+z
1/2+x,-y,1/2+z
1/2+x,1/2+y,z
1/2-x,1/2-y,z
1/2-x,1/2+y,z
1/2+x,1/2-y,z
loop_
_atom_site_type_symbol
_atom_site_label
_atom_site_fract_x
_atom_site_fract_y
_atom_site_fract_z
Si Si1 0.573004 0.396501 0.997630
Si Si2 0.711413 0.894295 0.694813
Si Si3 0.288587 0.394295 0.573929
Si Si4 0.426996 0.603499 0.771112
Si Si5 0.573296 0.855921 0.641142
Si Si6 0.926704 0.644079 0.127600
Si Si7 0.786493 0.109112 0.815870
Si Si8 0.286493 0.609112 0.952872
O O1 0.500000 0.356576 0.985466
O O2 0.569416 0.500000 0.979659
O O3 0.638179 0.359575 0.965205
O O4 0.584323 0.392843 0.071751
O O5 0.750000 0.858124 0.634371
O O6 0.633855 0.880397 0.684682
O O7 0.741059 0.860060 0.759106
O O8 0.723393 0.000000 0.695277
O O9 0.276607 0.500000 0.573465
O O10 0.366145 0.380398 0.584061
O O11 0.258941 0.360060 0.509636
O O12 0.500000 0.643424 0.783276
O O13 0.430584 0.500000 0.789083
O O14 0.415677 0.607157 0.696991
O O15 0.361821 0.640425 0.803537
O O16 0.500000 0.884911 0.661680
O O17 0.572769 0.750000 0.634371
O O18 0.000000 0.615088 0.107062
O O19 0.764284 0.135337 0.884371
O O20 0.787640 0.000000 0.814450
O O21 0.287640 0.500000 0.954292
#
# Coordination Sequence:
#
# PCOD9368268 Si02
#       8
#    16  16  16  16  16  16  16  16
#     4   9  16  28  47  70  97 128 161 197 242 293
#     4  10  18  31  51  74  98 127 160 195 239 287
#     4  10  18  31  51  74  98 127 160 195 239 287
#     4   9  16  28  47  70  97 128 161 197 242 293
#     4  10  20  32  48  72  99 126 161 203 244 284
#     4  10  20  32  48  72  99 126 161 203 244 284
#     4   9  17  29  46  71 101 128 157 198 243 286
#     4   9  17  29  46  71 101 128 157 198 243 286
#
# _framework density 19.476261000000001
#
# number of rings (size 3 to 8) (size 9 to 14) (size 15 to 20)
#    0.000    2.500    2.500    0.750    0.000    2.500 
#    0.000    2.500    0.000    3.750    0.000    7.000 
#    0.000    0.000    0.000    0.000    0.000    0.000 
#
# Total GULP energy -178447.782262 kJ/mol
# GULP energy per Si atom -5576.493196 kJ/mol
# Density = 1.943193 g / cm^3
# Si number density = 19.476261 Si / 1000 Ang^3
#
#
#
# Elastic Constant Matrix: (Units=GPa)
#
#
# Indices 1 2 3 4 5 6 
#
# 1 119.5853 -9.7512 96.8051 0.0000 0.0000 0.0000
# 2 -9.7512 28.8026 3.6065 0.0000 0.0000 0.0000
# 3 96.8051 3.6065 145.5816 0.0000 0.0000 0.0000
# 4 0.0000 0.0000 0.0000 -8.8025 0.0000 0.0000
# 5 0.0000 0.0000 0.0000 0.0000 24.0492 0.0000
# 6 0.0000 0.0000 0.0000 0.0000 0.0000 27.6115
#
#
#
# Elastic Compliance Matrix: (Units=1/GPa)
#
#
# Indices 1 2 3 4 5 6 
#
# 1 0.019971 0.008450 -0.013489 0.000000 0.000000 0.000000
# 2 0.008450 0.038403 -0.006570 0.000000 0.000000 0.000000
# 3 -0.013489 -0.006570 0.016001 0.000000 0.000000 0.000000
# 4 0.000000 0.000000 0.000000 -0.113604 0.000000 0.000000
# 5 0.000000 0.000000 0.000000 0.000000 0.041581 0.000000
# 6 0.000000 0.000000 0.000000 0.000000 0.000000 0.036217
#
#
# Mechanical properties :
#
#
# Convention : Reuss Voigt Hill
#
# Bulk Modulus (GPa) = 19.54792 52.81004 36.17898
# Shear Modulus (GPa) = 63.42074 22.12558 42.77316
#
# Velocity S-wave (km/s) = 5.71260 3.37416 4.69141
# Velocity P-wave (km/s) = 7.31917 6.50799 6.92547
#
# Compressibility (1/GPa) = 0.05115633
#
# Stress axis : x y z
#
# Youngs Moduli (GPa) = 50.07352 26.03991 62.49501
#
# Poissons Ratio (x) = -0.22004 0.84299
# Poissons Ratio (y) = -0.42313 0.41061
# Poissons Ratio (z) = 0.67544 0.17109
#
# Static dielectric constant tensor:
#      x y z
#    x 1.717640 0.000000 0.000000 
#    y 0.000000 1.695640 0.000000 
#    z 0.000000 0.000000 1.681820 
# 
# From -- ./inp_files/21931.got.cif
#   From: 2010.05.17/outbox.cif.g08.bks.cpg/sg42_11_cif.got.tgz:21931.got - 2010.06.03 19:03:34.
