data_PCOD9368786
_publ_section_title
;
Structure prediction by ZEFSAII (Michael W. Deem and Ramdas Pophale) SiO2 
 PCOD9368786
Probable space group: F M M 2
;
_chemical_formula_sum "Si O2"
_cell_formula_units_Z 128
_cell_length_a 25.399581
_cell_length_b 24.733140
_cell_length_c 11.739082
_cell_angle_alpha 90.000000
_cell_angle_beta 90.000000
_cell_angle_gamma 90.000000
_cell_volume 7374.625054
_symmetry_space_group_name_H-M "F M M 2"
_symmetry_group_IT_number 42
_symmetry_cell_setting 'orthorhombic'
loop_
_space_group_symop_operation_xyz
x,y,z
-x,-y,z
-x,y,z
x,-y,z
x,1/2+y,1/2+z
-x,1/2-y,1/2+z
-x,1/2+y,1/2+z
x,1/2-y,1/2+z
1/2+x,y,1/2+z
1/2-x,-y,1/2+z
1/2-x,y,1/2+z
1/2+x,-y,1/2+z
1/2+x,1/2+y,z
1/2-x,1/2-y,z
1/2-x,1/2+y,z
1/2+x,1/2-y,z
loop_
_atom_site_type_symbol
_atom_site_label
_atom_site_fract_x
_atom_site_fract_y
_atom_site_fract_z
Si Si1 0.138884 0.720981 0.852910
Si Si2 0.334161 0.656944 0.797298
Si Si3 0.061835 0.564274 0.674898
Si Si4 0.861572 0.859266 0.036183
Si Si5 0.901289 0.334939 0.073803
Si Si6 0.937263 0.439421 0.939468
Si Si7 0.059750 0.776610 0.148526
Si Si8 0.728633 0.811459 0.685183
O O1 0.156614 0.783153 0.850155
O O2 0.086458 0.717550 0.773642
O O3 0.184809 0.692939 0.782480
O O4 0.133086 0.694009 0.975179
O O5 0.371362 0.650966 0.689156
O O6 0.276594 0.656097 0.741481
O O7 0.350909 0.622635 0.906518
O O8 0.064241 0.500000 0.657502
O O9 0.106196 0.594362 0.602389
O O10 0.074537 0.574622 0.807956
O O11 0.000000 0.579787 0.653759
O O12 0.902139 0.809265 0.062203
O O13 0.804569 0.840186 0.085159
O O14 0.939606 0.286057 0.110753
O O15 0.921432 0.390138 0.019384
O O16 0.915868 0.500000 0.965307
O O17 0.000000 0.443485 0.945254
O O18 0.000000 0.796261 0.148378
O O19 0.750000 0.750000 0.656447
#
# Coordination Sequence:
#
# PCOD9368786 Si02
#       8
#    16  16  16  16  16  16  16  16
#     4   9  19  35  50  74 107 143 188 221 267 333
#     4  10  22  34  49  79 112 145 185 225 277 333
#     4   9  19  38  65  91 112 143 188 235 282 333
#     4  11  20  36  55  82 114 145 186 232 279 336
#     4  11  20  34  51  77 112 146 181 224 282 339
#     4   9  18  34  57  82 106 139 186 230 267 321
#     4  10  20  32  50  77 110 148 180 218 276 337
#     4   9  20  33  55  77 106 148 188 233 273 326
#
# _framework density 17.356815000000001
#
# number of rings (size 3 to 8) (size 9 to 14) (size 15 to 20)
#    0.000    2.250    1.250    3.750    1.750    2.500 
#    0.000    2.500    0.000    3.000    0.000    0.000 
#    0.000    0.000    0.000    0.000    0.000    0.000 
#
# Total GULP energy -178141.636342 kJ/mol
# GULP energy per Si atom -5566.926136 kJ/mol
# Density = 1.731731 g / cm^3
# Si number density = 17.356815 Si / 1000 Ang^3
#
#
#
# Elastic Constant Matrix: (Units=GPa)
#
#
# Indices 1 2 3 4 5 6 
#
# 1 95.8216 29.7894 52.5363 0.0000 0.0000 0.0000
# 2 29.7894 80.9157 48.8383 0.0000 0.0000 0.0000
# 3 52.5363 48.8383 116.7003 0.0001 -0.0001 0.0000
# 4 0.0000 0.0000 0.0001 34.5631 0.0000 0.0000
# 5 0.0000 0.0000 -0.0001 0.0000 6.5758 0.0000
# 6 0.0000 0.0000 0.0000 0.0000 0.0000 19.2862
#
#
#
# Elastic Compliance Matrix: (Units=1/GPa)
#
#
# Indices 1 2 3 4 5 6 
#
# 1 0.014052 -0.001813 -0.005567 0.000000 0.000000 0.000000
# 2 -0.001813 0.016769 -0.006202 0.000000 0.000000 0.000000
# 3 -0.005567 -0.006202 0.013671 0.000000 0.000000 0.000000
# 4 0.000000 0.000000 0.000000 0.028933 0.000000 0.000000
# 5 0.000000 0.000000 0.000000 0.000000 0.152072 0.000000
# 6 0.000000 0.000000 0.000000 0.000000 0.000000 0.051851
#
#
# Mechanical properties :
#
#
# Convention : Reuss Voigt Hill
#
# Bulk Modulus (GPa) = 57.71010 61.75172 59.73091
# Shear Modulus (GPa) = 16.11413 22.90327 19.50870
#
# Velocity S-wave (km/s) = 3.05028 3.63651 3.35622
# Velocity P-wave (km/s) = 6.76218 7.29981 7.03613
#
# Compressibility (1/GPa) = 0.01732799
#
# Stress axis : x y z
#
# Youngs Moduli (GPa) = 71.16388 59.63347 73.15019
#
# Poissons Ratio (x) = 0.10812 0.40724
# Poissons Ratio (y) = 0.12903 0.45364
# Poissons Ratio (z) = 0.39618 0.36982
#
# Static dielectric constant tensor:
#      x y z
#    x 1.600100 0.000000 0.000000 
#    y 0.000000 1.631680 0.000000 
#    z 0.000000 0.000000 1.631770 
# 
# From -- ./inp_files/10346.got.cif
#   From: 2010.05.17/outbox.cif.g08.bks.cpg/sg42_6_cif.got.tgz:10346.got - 2010.06.03 19:03:34.
