data_PCOD9368389
_publ_section_title
;
Structure prediction by ZEFSAII (Michael W. Deem and Ramdas Pophale) SiO2 
 PCOD9368389
Probable space group: F M M 2
;
_chemical_formula_sum "Si O2"
_cell_formula_units_Z 60
_cell_length_a 15.600050
_cell_length_b 10.758824
_cell_length_c 16.933396
_cell_angle_alpha 90.000000
_cell_angle_beta 90.000000
_cell_angle_gamma 90.000000
_cell_volume 2842.070575
_symmetry_space_group_name_H-M "F M M 2"
_symmetry_group_IT_number 42
_symmetry_cell_setting 'orthorhombic'
loop_
_space_group_symop_operation_xyz
x,y,z
-x,-y,z
-x,y,z
x,-y,z
x,1/2+y,1/2+z
-x,1/2-y,1/2+z
-x,1/2+y,1/2+z
x,1/2-y,1/2+z
1/2+x,y,1/2+z
1/2-x,-y,1/2+z
1/2-x,y,1/2+z
1/2+x,-y,1/2+z
1/2+x,1/2+y,z
1/2-x,1/2-y,z
1/2-x,1/2+y,z
1/2+x,1/2-y,z
loop_
_atom_site_type_symbol
_atom_site_label
_atom_site_fract_x
_atom_site_fract_y
_atom_site_fract_z
Si Si1 0.177679 0.644603 0.491990
Si Si2 0.904618 0.000000 0.354235
Si Si3 0.000000 0.144037 0.723487
Si Si4 0.000000 0.217560 0.074639
Si Si5 0.341861 0.260681 0.824535
Si Si6 0.500000 0.500000 0.199431
O O1 0.194667 0.500000 0.517319
O O2 0.250000 0.750000 0.511582
O O3 0.086462 0.691845 0.526238
O O4 0.166782 0.644954 0.397017
O O5 0.860051 0.129530 0.368663
O O6 0.920645 0.000000 0.259442
O O7 0.000000 0.000000 0.390313
O O8 0.082602 0.205518 0.765401
O O9 0.000000 0.159754 0.628705
O O10 0.000000 0.000000 0.744040
O O11 0.000000 0.116722 0.144325
O O12 0.250000 0.250000 0.782983
#
# Coordination Sequence:
#
# PCOD9368389 Si02
#       6
#    16   8   8   8  16   4
#     4  11  26  44  68  97 130 174 217 267 324 386
#     4  10  20  42  67  92 127 171 218 266 316 385
#     4  12  25  44  63 100 132 168 218 269 323 386
#     4  12  23  46  66  91 130 176 213 261 323 392
#     4  11  24  41  68  98 129 168 216 271 324 382
#     4  10  18  42  66  86 124 164 226 238 328 372
#
# _framework density 21.111367000000001
#
# number of rings (size 3 to 8) (size 9 to 14) (size 15 to 20)
#    0.400    0.533    5.333    1.600    9.333    2.133 
#    0.000    0.000    0.000    0.000    0.000    0.000 
#    0.000    0.000    0.000    0.000    0.000    0.000 
#
# Total GULP energy -83662.795171 kJ/mol
# GULP energy per Si atom -5577.519678 kJ/mol
# Density = 2.106332 g / cm^3
# Si number density = 21.111367 Si / 1000 Ang^3
#
#
#
# Elastic Constant Matrix: (Units=GPa)
#
#
# Indices 1 2 3 4 5 6 
#
# 1 195.9136 62.9636 48.6232 0.0000 0.0000 0.0000
# 2 62.9636 150.6008 4.8108 0.0000 0.0000 0.0000
# 3 48.6232 4.8108 63.6500 0.0000 0.0000 0.0000
# 4 0.0000 0.0000 0.0000 33.3601 0.0000 0.0000
# 5 0.0000 0.0000 0.0000 0.0000 -84.1590 0.0000
# 6 0.0000 0.0000 0.0000 0.0000 0.0000 23.1213
#
#
#
# Elastic Compliance Matrix: (Units=1/GPa)
#
#
# Indices 1 2 3 4 5 6 
#
# 1 0.007387 -0.002915 -0.005423 0.000000 0.000000 0.000000
# 2 -0.002915 0.007807 0.001637 0.000000 0.000000 0.000000
# 3 -0.005423 0.001637 0.019730 0.000000 0.000000 0.000000
# 4 0.000000 0.000000 0.000000 0.029976 0.000000 0.000000
# 5 0.000000 0.000000 0.000000 0.000000 -0.011882 0.000000
# 6 0.000000 0.000000 0.000000 0.000000 0.000000 0.043250
#
#
# Mechanical properties :
#
#
# Convention : Reuss Voigt Hill
#
# Bulk Modulus (GPa) = 46.46556 71.43997 58.95277
# Shear Modulus (GPa) = 42.79251 14.04894 28.42072
#
# Velocity S-wave (km/s) = 4.50709 2.58246 3.67308
# Velocity P-wave (km/s) = 7.01019 6.54257 6.78041
#
# Compressibility (1/GPa) = 0.02152132
#
# Stress axis : x y z
#
# Youngs Moduli (GPa) = 135.37227 128.09733 50.68495
#
# Poissons Ratio (x) = 0.37343 0.27485
# Poissons Ratio (y) = 0.39463 -0.08297
# Poissons Ratio (z) = 0.73409 -0.20968
#
# Static dielectric constant tensor:
#      x y z
#    x 1.798220 0.000000 0.000000 
#    y 0.000000 1.880010 0.000000 
#    z 0.000000 0.000000 1.717640 
# 
# From -- ./inp_files/18631.got.cif
#   From: 2010.05.17/outbox.cif.g08.bks.cpg/sg42_10_cif.got.tgz:18631.got - 2010.06.03 19:03:34.
