data_PCOD9368972
_publ_section_title
;
Structure prediction by ZEFSAII (Michael W. Deem and Ramdas Pophale) SiO2 
 PCOD9368972
Probable space group: F M M 2
;
_chemical_formula_sum "Si O2"
_cell_formula_units_Z 80
_cell_length_a 17.730559
_cell_length_b 20.392313
_cell_length_c 13.277540
_cell_angle_alpha 90.000000
_cell_angle_beta 90.000000
_cell_angle_gamma 90.000000
_cell_volume 4800.721750
_symmetry_space_group_name_H-M "F M M 2"
_symmetry_group_IT_number 42
_symmetry_cell_setting 'orthorhombic'
loop_
_space_group_symop_operation_xyz
x,y,z
-x,-y,z
-x,y,z
x,-y,z
x,1/2+y,1/2+z
-x,1/2-y,1/2+z
-x,1/2+y,1/2+z
x,1/2-y,1/2+z
1/2+x,y,1/2+z
1/2-x,-y,1/2+z
1/2-x,y,1/2+z
1/2+x,-y,1/2+z
1/2+x,1/2+y,z
1/2-x,1/2-y,z
1/2-x,1/2+y,z
1/2+x,1/2-y,z
loop_
_atom_site_type_symbol
_atom_site_label
_atom_site_fract_x
_atom_site_fract_y
_atom_site_fract_z
Si Si1 0.662605 0.369722 0.975360
Si Si2 0.409156 0.500000 0.647524
Si Si3 0.677043 0.872343 0.075701
Si Si4 0.911081 0.744727 0.596160
Si Si5 0.320744 0.703807 0.770028
Si Si6 0.590253 0.000000 0.388720
O O1 0.656993 0.327672 0.873784
O O2 0.622132 0.437076 0.947196
O O3 0.749371 0.381557 0.007746
O O4 0.623677 0.323472 0.058659
O O5 0.500000 0.500000 0.640714
O O6 0.374390 0.564053 0.593149
O O7 0.389688 0.500000 0.768228
O O8 0.629846 0.807399 0.042521
O O9 0.702728 0.851225 0.188305
O O10 0.887563 0.758068 0.712178
O O11 0.000000 0.746618 0.581538
O O12 0.250000 0.750000 0.785049
O O13 0.500000 0.000000 0.392127
#
# Coordination Sequence:
#
# PCOD9368972 Si02
#       6
#    16   8  16  16  16   8
#     4  12  21  38  60  83 118 154 199 242 287 356
#     4  11  21  38  60  87 121 149 189 245 299 346
#     4  10  20  37  56  85 112 153 192 239 287 348
#     4  10  20  35  55  84 116 149 189 238 293 342
#     4  10  20  36  56  81 115 147 193 243 282 342
#     4  11  23  36  56  87 117 155 193 239 303 352
#
# _framework density 16.664162000000001
#
# number of rings (size 3 to 8) (size 9 to 14) (size 15 to 20)
#    1.200    0.200    4.000    3.600    0.000    1.600 
#    0.000    0.000    0.000    0.000    0.000    1.400 
#    0.000    0.000    0.000    0.000    0.000    0.000 
#
# Total GULP energy -111355.281980 kJ/mol
# GULP energy per Si atom -5567.764099 kJ/mol
# Density = 1.662623 g / cm^3
# Si number density = 16.664162 Si / 1000 Ang^3
#
#
#
# Elastic Constant Matrix: (Units=GPa)
#
#
# Indices 1 2 3 4 5 6 
#
# 1 121.4703 71.8393 32.5941 0.0000 0.0000 0.0000
# 2 71.8393 119.1650 26.8370 0.0000 0.0000 0.0000
# 3 32.5941 26.8370 71.0478 0.0000 0.0000 0.0000
# 4 0.0000 0.0000 0.0000 35.4843 0.0000 0.0000
# 5 0.0000 0.0000 0.0000 0.0000 18.4007 0.0000
# 6 0.0000 0.0000 0.0000 0.0000 0.0000 23.5677
#
#
#
# Elastic Compliance Matrix: (Units=1/GPa)
#
#
# Indices 1 2 3 4 5 6 
#
# 1 0.013511 -0.007377 -0.003412 0.000000 0.000000 0.000000
# 2 -0.007377 0.013199 -0.001602 0.000000 0.000000 0.000000
# 3 -0.003412 -0.001602 0.016245 0.000000 0.000000 0.000000
# 4 0.000000 0.000000 0.000000 0.028181 0.000000 0.000000
# 5 0.000000 0.000000 0.000000 0.000000 0.054346 0.000000
# 6 0.000000 0.000000 0.000000 0.000000 0.000000 0.042431
#
#
# Mechanical properties :
#
#
# Convention : Reuss Voigt Hill
#
# Bulk Modulus (GPa) = 55.02042 63.80267 59.41154
# Shear Modulus (GPa) = 25.15699 27.51806 26.33752
#
# Velocity S-wave (km/s) = 3.88963 4.06807 3.97985
# Velocity P-wave (km/s) = 7.29803 7.77406 7.53980
#
# Compressibility (1/GPa) = 0.01817507
#
# Stress axis : x y z
#
# Youngs Moduli (GPa) = 74.01627 75.76079 61.55636
#
# Poissons Ratio (x) = 0.55885 0.21002
# Poissons Ratio (y) = 0.54598 0.09860
# Poissons Ratio (z) = 0.25253 0.12135
#
# Static dielectric constant tensor:
#      x y z
#    x 1.543360 0.000000 0.000000 
#    y 0.000000 1.577910 0.000000 
#    z 0.000000 0.000000 1.561670 
# 
# From -- ./inp_files/8607.got.cif
#   From: 2010.05.17/outbox.cif.g08.bks.cpg/sg42_5_cif.got.tgz:8607.got - 2010.06.03 19:03:34.
