data_PCOD9368275
_publ_section_title
;
Structure prediction by ZEFSAII (Michael W. Deem and Ramdas Pophale) SiO2 
 PCOD9368275
Probable space group: F M M 2
;
_chemical_formula_sum "Si O2"
_cell_formula_units_Z 64
_cell_length_a 8.688449
_cell_length_b 18.500293
_cell_length_c 21.468689
_cell_angle_alpha 90.000000
_cell_angle_beta 90.000000
_cell_angle_gamma 90.000000
_cell_volume 3450.852428
_symmetry_space_group_name_H-M "F M M 2"
_symmetry_group_IT_number 42
_symmetry_cell_setting 'orthorhombic'
loop_
_space_group_symop_operation_xyz
x,y,z
-x,-y,z
-x,y,z
x,-y,z
x,1/2+y,1/2+z
-x,1/2-y,1/2+z
-x,1/2+y,1/2+z
x,1/2-y,1/2+z
1/2+x,y,1/2+z
1/2-x,-y,1/2+z
1/2-x,y,1/2+z
1/2+x,-y,1/2+z
1/2+x,1/2+y,z
1/2-x,1/2-y,z
1/2-x,1/2+y,z
1/2+x,1/2-y,z
loop_
_atom_site_type_symbol
_atom_site_label
_atom_site_fract_x
_atom_site_fract_y
_atom_site_fract_z
Si Si1 0.816253 0.831918 0.555740
Si Si2 0.184526 0.168879 0.927096
Si Si3 0.815656 0.084866 0.800830
Si Si4 0.182816 0.830987 0.184229
O O1 0.750000 0.750000 0.555679
O O2 0.753941 0.863367 0.490920
O O3 0.753864 0.863397 0.620499
O O4 0.000000 0.830282 0.555872
O O5 0.250000 0.250000 0.919281
O O6 0.223818 0.122772 0.866211
O O7 0.000000 0.172904 0.933278
O O8 0.730046 0.122850 0.743896
O O9 0.000000 0.093834 0.791758
O O10 0.781585 0.000000 0.803181
O O11 0.250000 0.750000 0.192155
O O12 0.000000 0.826016 0.177646
#
# Coordination Sequence:
#
# PCOD9368275 Si02
#       4
#    16  16  16  16
#     4  10  18  31  53  80 109 138 173 221 271 319
#     4  10  19  33  55  81 108 139 176 220 268 320
#     4  10  22  39  56  77 109 146 182 223 270 318
#     4  11  21  35  57  83 110 141 180 224 269 320
#
# _framework density 18.546142
#
# number of rings (size 3 to 8) (size 9 to 14) (size 15 to 20)
#    0.000    1.750    0.000    9.000    0.000    4.500 
#    0.000    1.250    0.000    4.500    0.000    0.000 
#    0.000    0.000    0.000    0.000    0.000    0.000 
#
# Total GULP energy -89345.704422 kJ/mol
# GULP energy per Si atom -5584.106526 kJ/mol
# Density = 1.850393 g / cm^3
# Si number density = 18.546142 Si / 1000 Ang^3
#
#
#
# Elastic Constant Matrix: (Units=GPa)
#
#
# Indices 1 2 3 4 5 6 
#
# 1 134.9918 44.6062 101.6645 0.0000 0.0000 0.0000
# 2 44.6062 54.2968 58.5108 0.0000 0.0000 0.0000
# 3 101.6645 58.5108 204.8069 0.0000 0.0000 0.0000
# 4 0.0000 0.0000 0.0000 -8.2131 0.0000 0.0000
# 5 0.0000 0.0000 0.0000 0.0000 43.2749 0.0000
# 6 0.0000 0.0000 0.0000 0.0000 0.0000 15.7521
#
#
#
# Elastic Compliance Matrix: (Units=1/GPa)
#
#
# Indices 1 2 3 4 5 6 
#
# 1 0.012807 -0.005303 -0.004842 0.000000 0.000000 0.000000
# 2 -0.005303 0.028805 -0.005597 0.000000 0.000000 0.000000
# 3 -0.004842 -0.005597 0.008885 0.000000 0.000000 0.000000
# 4 0.000000 0.000000 0.000000 -0.121757 0.000000 0.000000
# 5 0.000000 0.000000 0.000000 0.000000 0.023108 0.000000
# 6 0.000000 0.000000 0.000000 0.000000 0.000000 0.063484
#
#
# Mechanical properties :
#
#
# Convention : Reuss Voigt Hill
#
# Bulk Modulus (GPa) = 52.59584 89.29538 70.94561
# Shear Modulus (GPa) = 94.06466 22.78371 58.42418
#
# Velocity S-wave (km/s) = 7.12947 3.50878 5.61876
# Velocity P-wave (km/s) = 9.80783 8.04162 8.96831
#
# Compressibility (1/GPa) = 0.01901291
#
# Stress axis : x y z
#
# Youngs Moduli (GPa) = 78.08236 34.71591 112.54631
#
# Poissons Ratio (x) = 0.18411 0.54497
# Poissons Ratio (y) = 0.41409 0.62990
# Poissons Ratio (z) = 0.37809 0.19430
#
# Static dielectric constant tensor:
#      x y z
#    x 1.622070 0.000000 0.000000 
#    y 0.000000 1.608580 0.000000 
#    z 0.000000 0.000000 1.677760 
# 
# From -- ./inp_files/17878.got.cif
#   From: 2010.05.17/outbox.cif.g08.bks.cpg/sg42_9_cif.got.tgz:17878.got - 2010.06.03 19:03:34.
