data_PCOD9368609
_publ_section_title
;
Structure prediction by ZEFSAII (Michael W. Deem and Ramdas Pophale) SiO2 
 PCOD9368609
Probable space group: F M M 2
;
_chemical_formula_sum "Si O2"
_cell_formula_units_Z 80
_cell_length_a 19.720660
_cell_length_b 14.803931
_cell_length_c 13.050561
_cell_angle_alpha 90.000000
_cell_angle_beta 90.000000
_cell_angle_gamma 90.000000
_cell_volume 3810.023714
_symmetry_space_group_name_H-M "F M M 2"
_symmetry_group_IT_number 42
_symmetry_cell_setting 'orthorhombic'
loop_
_space_group_symop_operation_xyz
x,y,z
-x,-y,z
-x,y,z
x,-y,z
x,1/2+y,1/2+z
-x,1/2-y,1/2+z
-x,1/2+y,1/2+z
x,1/2-y,1/2+z
1/2+x,y,1/2+z
1/2-x,-y,1/2+z
1/2-x,y,1/2+z
1/2+x,-y,1/2+z
1/2+x,1/2+y,z
1/2-x,1/2-y,z
1/2-x,1/2+y,z
1/2+x,1/2-y,z
loop_
_atom_site_type_symbol
_atom_site_label
_atom_site_fract_x
_atom_site_fract_y
_atom_site_fract_z
Si Si1 0.076466 0.890802 0.328800
Si Si2 0.331712 0.100431 0.252125
Si Si3 0.803044 0.332748 0.690499
Si Si4 0.295646 0.109766 0.472032
Si Si5 0.357343 0.890709 0.032738
O O1 0.133605 0.840118 0.264360
O O2 0.087305 0.867908 0.448540
O O3 0.000000 0.870571 0.296506
O O4 0.087221 0.000000 0.318431
O O5 0.252278 0.091645 0.221238
O O6 0.328603 0.141915 0.365713
O O7 0.364603 0.143405 0.149714
O O8 0.361434 0.000000 0.264111
O O9 0.750000 0.250000 0.699898
O O10 0.826807 0.348884 0.574563
O O11 0.215953 0.134715 0.484479
O O12 0.299343 0.000000 0.473640
O O13 0.355770 0.000000 0.042042
#
# Coordination Sequence:
#
# PCOD9368609 Si02
#       5
#    16  16  16  16  16
#     4  10  19  34  57  83 116 155 198 242 284 347
#     4   9  16  30  52  77 107 139 179 239 288 331
#     4  11  21  31  48  81 118 148 184 237 292 345
#     4   9  16  29  51  75 107 142 182 240 288 331
#     4   8  14  26  47  77 106 132 176 232 288 331
#
# _framework density 20.997246000000001
#
# number of rings (size 3 to 8) (size 9 to 14) (size 15 to 20)
#    0.000    2.600    2.000    3.000    0.000    0.800 
#    0.000    0.000    0.000    6.000    0.000    5.600 
#    0.000    4.000    0.000    0.000    0.000    0.000 
#
# Total GULP energy -111409.565605 kJ/mol
# GULP energy per Si atom -5570.478280 kJ/mol
# Density = 2.094946 g / cm^3
# Si number density = 20.997246 Si / 1000 Ang^3
#
#
#
# Elastic Constant Matrix: (Units=GPa)
#
#
# Indices 1 2 3 4 5 6 
#
# 1 66.9150 23.2874 50.5334 0.0000 0.0000 0.0000
# 2 23.2874 67.8786 31.7298 0.0000 0.0000 0.0000
# 3 50.5334 31.7298 199.1119 0.0000 0.0000 0.0000
# 4 0.0000 0.0000 0.0000 12.7137 0.0000 0.0000
# 5 0.0000 0.0000 0.0000 0.0000 19.8359 0.0000
# 6 0.0000 0.0000 0.0000 0.0000 0.0000 12.4091
#
#
#
# Elastic Compliance Matrix: (Units=1/GPa)
#
#
# Indices 1 2 3 4 5 6 
#
# 1 0.019843 -0.004812 -0.004269 0.000000 0.000000 0.000000
# 2 -0.004812 0.017085 -0.001501 0.000000 0.000000 0.000000
# 3 -0.004269 -0.001501 0.006345 0.000000 0.000000 0.000000
# 4 0.000000 0.000000 0.000000 0.078655 0.000000 0.000000
# 5 0.000000 0.000000 0.000000 0.000000 0.050414 0.000000
# 6 0.000000 0.000000 0.000000 0.000000 0.000000 0.080586
#
#
# Mechanical properties :
#
#
# Convention : Reuss Voigt Hill
#
# Bulk Modulus (GPa) = 45.23280 60.55630 52.89455
# Shear Modulus (GPa) = 17.76437 24.21540 20.98989
#
# Velocity S-wave (km/s) = 2.91182 3.39966 3.16515
# Velocity P-wave (km/s) = 5.73533 6.65680 6.21317
#
# Compressibility (1/GPa) = 0.02210785
#
# Stress axis : x y z
#
# Youngs Moduli (GPa) = 50.39550 58.53138 157.60318
#
# Poissons Ratio (x) = 0.28165 0.67284
# Poissons Ratio (y) = 0.24250 0.23661
# Poissons Ratio (z) = 0.21515 0.08787
#
# Static dielectric constant tensor:
#      x y z
#    x 1.680600 0.000000 0.000000 
#    y 0.000000 1.948620 0.000000 
#    z 0.000000 0.000000 1.833110 
# 
# From -- ./inp_files/15899.got.cif
#   From: 2010.05.17/outbox.cif.g08.bks.cpg/sg42_8_cif.got.tgz:15899.got - 2010.06.03 19:03:34.
