data_PCOD9368442
_publ_section_title
;
Structure prediction by ZEFSAII (Michael W. Deem and Ramdas Pophale) SiO2 
 PCOD9368442
Probable space group: F M M 2
;
_chemical_formula_sum "Si O2"
_cell_formula_units_Z 104
_cell_length_a 19.023764
_cell_length_b 14.102377
_cell_length_c 18.689337
_cell_angle_alpha 90.000000
_cell_angle_beta 90.000000
_cell_angle_gamma 90.000000
_cell_volume 5013.980786
_symmetry_space_group_name_H-M "F M M 2"
_symmetry_group_IT_number 42
_symmetry_cell_setting 'orthorhombic'
loop_
_space_group_symop_operation_xyz
x,y,z
-x,-y,z
-x,y,z
x,-y,z
x,1/2+y,1/2+z
-x,1/2-y,1/2+z
-x,1/2+y,1/2+z
x,1/2-y,1/2+z
1/2+x,y,1/2+z
1/2-x,-y,1/2+z
1/2-x,y,1/2+z
1/2+x,-y,1/2+z
1/2+x,1/2+y,z
1/2-x,1/2-y,z
1/2-x,1/2+y,z
1/2+x,1/2-y,z
loop_
_atom_site_type_symbol
_atom_site_label
_atom_site_fract_x
_atom_site_fract_y
_atom_site_fract_z
Si Si1 0.717192 0.884542 0.650060
Si Si2 0.630613 0.111835 0.209445
Si Si3 0.500000 0.613208 0.316156
Si Si4 0.500000 0.390457 0.048803
Si Si5 0.645374 0.105672 0.794344
Si Si6 0.500000 0.252036 0.181531
Si Si7 0.655195 0.388084 0.998914
Si Si8 0.214633 0.152705 0.849240
O O1 0.798716 0.862385 0.664847
O O2 0.670340 0.851926 0.718029
O O3 0.687771 0.852823 0.573826
O O4 0.713683 0.000000 0.650800
O O5 0.566879 0.182712 0.193292
O O6 0.656941 0.120335 0.291971
O O7 0.613617 0.000000 0.196236
O O8 0.500000 0.500000 0.332008
O O9 0.578766 0.648458 0.336877
O O10 0.500000 0.658324 0.236240
O O11 0.500000 0.500000 0.079042
O O12 0.500000 0.306743 0.106563
O O13 0.571329 0.381181 0.004299
O O14 0.713922 0.093960 0.842555
O O15 0.621414 0.000000 0.773061
O O16 0.672790 0.500000 0.992417
O O17 0.684723 0.340477 0.928119
O O18 0.250000 0.250000 0.825518
#
# Coordination Sequence:
#
# PCOD9368442 Si02
#       8
#    16  16   8   8  16   8  16  16
#     4   8  16  32  56  81 106 143 194 246 300 361
#     4  10  22  40  60  86 120 160 206 255 308 367
#     4  10  19  31  52  82 116 149 184 235 299 358
#     4  10  23  40  59  89 124 156 199 257 320 378
#     4   9  17  33  55  79 109 146 189 241 300 364
#     4  12  22  35  59  87 116 153 197 250 307 366
#     4  10  20  37  60  84 116 160 201 245 306 370
#     4  11  22  36  56  85 118 156 204 254 299 358
#
# _framework density 20.742001999999999
#
# number of rings (size 3 to 8) (size 9 to 14) (size 15 to 20)
#    0.000    2.154    0.000    4.615    0.000    5.538 
#    0.000    3.077    0.000    0.923    0.000    3.231 
#    0.000    2.462    0.000    0.000    0.000    0.000 
#
# Total GULP energy -144785.891818 kJ/mol
# GULP energy per Si atom -5568.688147 kJ/mol
# Density = 2.069479 g / cm^3
# Si number density = 20.742002 Si / 1000 Ang^3
#
#
#
# Elastic Constant Matrix: (Units=GPa)
#
#
# Indices 1 2 3 4 5 6 
#
# 1 150.7900 21.5417 58.2196 0.0000 0.0000 0.0000
# 2 21.5417 68.6441 4.6214 0.0000 0.0000 0.0000
# 3 58.2196 4.6214 93.7515 0.0000 0.0000 0.0000
# 4 0.0000 0.0000 0.0000 27.2120 0.0000 0.0000
# 5 0.0000 0.0000 0.0000 0.0000 12.4868 0.0000
# 6 0.0000 0.0000 0.0000 0.0000 0.0000 -35.0645
#
#
#
# Elastic Compliance Matrix: (Units=1/GPa)
#
#
# Indices 1 2 3 4 5 6 
#
# 1 0.009129 -0.002491 -0.005546 0.000000 0.000000 0.000000
# 2 -0.002491 0.015296 0.000793 0.000000 0.000000 0.000000
# 3 -0.005546 0.000793 0.014072 0.000000 0.000000 0.000000
# 4 0.000000 0.000000 0.000000 0.036749 0.000000 0.000000
# 5 0.000000 0.000000 0.000000 0.000000 0.080085 0.000000
# 6 0.000000 0.000000 0.000000 0.000000 0.000000 -0.028519
#
#
# Mechanical properties :
#
#
# Convention : Reuss Voigt Hill
#
# Bulk Modulus (GPa) = 41.65302 53.55011 47.60157
# Shear Modulus (GPa) = 33.48886 16.18039 24.83463
#
# Velocity S-wave (km/s) = 4.02250 2.79602 3.46397
# Velocity P-wave (km/s) = 6.45748 6.02469 6.24484
#
# Compressibility (1/GPa) = 0.02400786
#
# Stress axis : x y z
#
# Youngs Moduli (GPa) = 109.53989 65.37501 71.06480
#
# Poissons Ratio (x) = 0.16288 0.39415
# Poissons Ratio (y) = 0.27291 -0.05637
# Poissons Ratio (z) = 0.60755 -0.05185
#
# Static dielectric constant tensor:
#      x y z
#    x 1.816440 0.000000 0.000000 
#    y 0.000000 1.346870 0.000000 
#    z 0.000000 0.000000 1.709660 
# 
# From -- ./inp_files/25971.got.cif
#   From: 2010.05.17/outbox.cif.g08.bks.cpg/sg42_13_cif.got.tgz:25971.got - 2010.06.03 19:03:34.
