data_PCOD9368250
_publ_section_title
;
Structure prediction by ZEFSAII (Michael W. Deem and Ramdas Pophale) SiO2 
 PCOD9368250
Probable space group: F M M 2
;
_chemical_formula_sum "Si O2"
_cell_formula_units_Z 128
_cell_length_a 16.957564
_cell_length_b 24.353276
_cell_length_c 15.090652
_cell_angle_alpha 90.000000
_cell_angle_beta 90.000000
_cell_angle_gamma 90.000000
_cell_volume 6232.020305
_symmetry_space_group_name_H-M "F M M 2"
_symmetry_group_IT_number 42
_symmetry_cell_setting 'orthorhombic'
loop_
_space_group_symop_operation_xyz
x,y,z
-x,-y,z
-x,y,z
x,-y,z
x,1/2+y,1/2+z
-x,1/2-y,1/2+z
-x,1/2+y,1/2+z
x,1/2-y,1/2+z
1/2+x,y,1/2+z
1/2-x,-y,1/2+z
1/2-x,y,1/2+z
1/2+x,-y,1/2+z
1/2+x,1/2+y,z
1/2-x,1/2-y,z
1/2-x,1/2+y,z
1/2+x,1/2-y,z
loop_
_atom_site_type_symbol
_atom_site_label
_atom_site_fract_x
_atom_site_fract_y
_atom_site_fract_z
Si Si1 0.412517 0.235581 0.245620
Si Si2 0.089834 0.438963 0.183637
Si Si3 0.800499 0.839602 0.265286
Si Si4 0.086814 0.166709 0.563974
Si Si5 0.592627 0.437452 0.206970
Si Si6 0.246602 0.814443 0.070788
Si Si7 0.646967 0.371685 0.838761
Si Si8 0.410042 0.376064 0.024720
O O1 0.500000 0.259208 0.257743
O O2 0.348616 0.282460 0.265641
O O3 0.409370 0.210743 0.145637
O O4 0.401411 0.182148 0.307211
O O5 0.110829 0.500000 0.153606
O O6 0.088310 0.393746 0.107122
O O7 0.143420 0.417202 0.262482
O O8 0.000000 0.439641 0.218826
O O9 0.859214 0.890993 0.258582
O O10 0.752243 0.837451 0.171756
O O11 0.736247 0.849411 0.341008
O O12 0.172667 0.170136 0.519572
O O13 0.000000 0.174476 0.520593
O O14 0.500000 0.434551 0.229812
O O15 0.619933 0.500000 0.220360
O O16 0.598732 0.420250 0.103131
O O17 0.250000 0.750000 0.075552
O O18 0.160670 0.832672 0.037553
O O19 0.608450 0.396269 0.926380
O O20 0.500000 0.354445 0.030780
#
# Coordination Sequence:
#
# PCOD9368250 Si02
#       8
#    16  16  16  16  16  16  16  16
#     4  10  18  30  53  78 107 144 181 228 283 336
#     4   9  17  29  48  74 102 132 167 212 266 322
#     4  11  19  32  54  83 110 139 185 235 286 336
#     4   9  17  30  49  76 105 135 174 223 276 327
#     4   9  20  39  59  79 107 145 191 241 285 332
#     4  11  19  34  52  78 108 144 184 229 277 329
#     4  11  20  34  51  77 114 144 180 227 280 335
#     4  10  23  38  54  77 112 156 193 226 277 339
#
# _framework density 20.539086000000001
#
# number of rings (size 3 to 8) (size 9 to 14) (size 15 to 20)
#    0.000    2.000    3.750    2.625    0.000    3.000 
#    0.000    1.250    0.000    1.500    0.000    0.000 
#    0.000    2.000    0.000    0.000    0.000    0.000 
#
# Total GULP energy -178362.316981 kJ/mol
# GULP energy per Si atom -5573.822406 kJ/mol
# Density = 2.049234 g / cm^3
# Si number density = 20.539086 Si / 1000 Ang^3
#
#
#
# Elastic Constant Matrix: (Units=GPa)
#
#
# Indices 1 2 3 4 5 6 
#
# 1 134.4479 35.3317 11.4231 0.0000 0.0000 0.0000
# 2 35.3317 100.6408 -10.5265 0.0000 0.0000 0.0000
# 3 11.4231 -10.5265 16.0736 0.0000 0.0000 0.0000
# 4 0.0000 0.0000 0.0000 2.7922 0.0000 0.0000
# 5 0.0000 0.0000 0.0000 0.0000 22.4492 0.0000
# 6 0.0000 0.0000 0.0000 0.0000 0.0000 24.8558
#
#
#
# Elastic Compliance Matrix: (Units=1/GPa)
#
#
# Indices 1 2 3 4 5 6 
#
# 1 0.009365 -0.004277 -0.009457 0.000000 0.000000 0.000000
# 2 -0.004277 0.012620 0.011304 0.000000 0.000000 0.000000
# 3 -0.009457 0.011304 0.076338 0.000000 0.000000 0.000000
# 4 0.000000 0.000000 0.000000 0.358135 0.000000 0.000000
# 5 0.000000 0.000000 0.000000 0.000000 0.044545 0.000000
# 6 0.000000 0.000000 0.000000 0.000000 0.000000 0.040232
#
#
# Mechanical properties :
#
#
# Convention : Reuss Voigt Hill
#
# Bulk Modulus (GPa) = 10.69921 35.95767 23.32844
# Shear Modulus (GPa) = 8.66178 24.34836 16.50507
#
# Velocity S-wave (km/s) = 2.05581 3.44679 2.83785
# Velocity P-wave (km/s) = 3.29479 5.77802 4.70325
#
# Compressibility (1/GPa) = 0.09346487
#
# Stress axis : x y z
#
# Youngs Moduli (GPa) = 106.77793 79.23807 13.09969
#
# Poissons Ratio (x) = 0.33890 0.12388
# Poissons Ratio (y) = 0.45668 -0.14808
# Poissons Ratio (z) = 1.00976 -0.89574
#
# Static dielectric constant tensor:
#      x y z
#    x 1.817190 0.000000 0.000000 
#    y 0.000000 1.699680 0.000000 
#    z 0.000000 0.000000 1.797970 
# 
# From -- ./inp_files/21264.got.cif
#   From: 2010.05.17/outbox.cif.g08.bks.cpg/sg42_11_cif.got.tgz:21264.got - 2010.06.03 19:03:34.
