data_PCOD9368187
_publ_section_title
;
Structure prediction by ZEFSAII (Michael W. Deem and Ramdas Pophale) SiO2 
 PCOD9368187
Probable space group: F M M 2
;
_chemical_formula_sum "Si O2"
_cell_formula_units_Z 116
_cell_length_a 14.509792
_cell_length_b 22.822865
_cell_length_c 16.540046
_cell_angle_alpha 90.000000
_cell_angle_beta 90.000000
_cell_angle_gamma 90.000000
_cell_volume 5477.319330
_symmetry_space_group_name_H-M "F M M 2"
_symmetry_group_IT_number 42
_symmetry_cell_setting 'orthorhombic'
loop_
_space_group_symop_operation_xyz
x,y,z
-x,-y,z
-x,y,z
x,-y,z
x,1/2+y,1/2+z
-x,1/2-y,1/2+z
-x,1/2+y,1/2+z
x,1/2-y,1/2+z
1/2+x,y,1/2+z
1/2-x,-y,1/2+z
1/2-x,y,1/2+z
1/2+x,-y,1/2+z
1/2+x,1/2+y,z
1/2-x,1/2-y,z
1/2-x,1/2+y,z
1/2+x,1/2-y,z
loop_
_atom_site_type_symbol
_atom_site_label
_atom_site_fract_x
_atom_site_fract_y
_atom_site_fract_z
Si Si1 0.353635 0.101588 0.986840
Si Si2 0.604666 0.653136 0.187806
Si Si3 0.000000 0.000000 0.528920
Si Si4 0.654998 0.857216 0.509819
Si Si5 0.199901 0.434612 0.805911
Si Si6 0.605587 0.609444 0.830180
Si Si7 0.110447 0.762474 0.778015
Si Si8 0.607607 0.766165 0.957874
O O1 0.341794 0.086399 0.891642
O O2 0.387504 0.168916 0.993663
O O3 0.249571 0.106878 0.019134
O O4 0.419258 0.052374 0.024227
O O5 0.500000 0.649303 0.219909
O O6 0.603601 0.638511 0.093948
O O7 0.666399 0.608496 0.236884
O O8 0.639287 0.719413 0.206434
O O9 0.608183 0.878616 0.426751
O O10 0.665462 0.787188 0.495155
O O11 0.166475 0.500000 0.790416
O O12 0.310915 0.433767 0.812155
O O13 0.500000 0.594538 0.807181
O O14 0.637669 0.670090 0.786781
O O15 0.134431 0.731386 0.863024
O O16 0.000000 0.766698 0.773900
O O17 0.500000 0.747093 0.962259
#
# Coordination Sequence:
#
# PCOD9368187 Si02
#       8
#    16  16   4  16  16  16  16  16
#     4  11  22  39  64  94 128 168 225 270 318 388
#     4  11  22  39  64  95 133 161 205 274 350 396
#     4  12  24  40  72  92 130 184 232 276 316 388
#     4  10  22  39  63  97 132 165 211 277 340 403
#     4  11  24  39  62  94 124 170 223 274 317 385
#     4   9  19  40  65  89 125 168 218 267 326 390
#     4   8  16  31  60  92 121 159 201 258 324 393
#     4  10  17  34  63  95 127 165 212 264 335 390
#
# _framework density 21.178242999999998
#
# number of rings (size 3 to 8) (size 9 to 14) (size 15 to 20)
#    0.000    1.931    2.759    2.483    0.966    1.103 
#    6.207    0.000    1.517    1.655    0.000    0.000 
#    0.000    0.000    0.000    0.000    0.000    0.000 
#
# Total GULP energy -161507.581655 kJ/mol
# GULP energy per Si atom -5569.226954 kJ/mol
# Density = 2.113004 g / cm^3
# Si number density = 21.178243 Si / 1000 Ang^3
#
#
#
# Elastic Constant Matrix: (Units=GPa)
#
#
# Indices 1 2 3 4 5 6 
#
# 1 95.5103 30.1091 10.8233 0.0000 0.0000 0.0000
# 2 30.1091 99.9508 10.4846 0.0000 0.0000 0.0000
# 3 10.8233 10.4846 49.2004 0.0000 0.0000 0.0000
# 4 0.0000 0.0000 0.0000 3.3352 0.0000 0.0000
# 5 0.0000 0.0000 0.0000 0.0000 10.6884 0.0000
# 6 0.0000 0.0000 0.0000 0.0000 0.0000 41.0257
#
#
#
# Elastic Compliance Matrix: (Units=1/GPa)
#
#
# Indices 1 2 3 4 5 6 
#
# 1 0.011734 -0.003339 -0.001870 0.000000 0.000000 0.000000
# 2 -0.003339 0.011184 -0.001649 0.000000 0.000000 0.000000
# 3 -0.001870 -0.001649 0.021088 0.000000 0.000000 0.000000
# 4 0.000000 0.000000 0.000000 0.299828 0.000000 0.000000
# 5 0.000000 0.000000 0.000000 0.000000 0.093560 0.000000
# 6 0.000000 0.000000 0.000000 0.000000 0.000000 0.024375
#
#
# Mechanical properties :
#
#
# Convention : Reuss Voigt Hill
#
# Bulk Modulus (GPa) = 33.01309 38.61062 35.81186
# Shear Modulus (GPa) = 10.29695 23.89283 17.09489
#
# Velocity S-wave (km/s) = 2.20740 3.36248 2.84419
# Velocity P-wave (km/s) = 4.70307 5.77459 5.26615
#
# Compressibility (1/GPa) = 0.03029101
#
# Stress axis : x y z
#
# Youngs Moduli (GPa) = 85.21890 89.41639 47.42096
#
# Poissons Ratio (x) = 0.29854 0.08867
# Poissons Ratio (y) = 0.28452 0.07819
# Poissons Ratio (z) = 0.15935 0.14743
#
# Static dielectric constant tensor:
#      x y z
#    x 1.803850 0.000000 0.000000 
#    y 0.000000 1.755700 0.000000 
#    z 0.000000 0.000000 1.746670 
# 
# From -- ./inp_files/20263.got.cif
#   From: 2010.05.17/outbox.cif.g08.bks.cpg/sg42_11_cif.got.tgz:20263.got - 2010.06.03 19:03:34.
