data_PCOD9368411
_publ_section_title
;
Structure prediction by ZEFSAII (Michael W. Deem and Ramdas Pophale) SiO2 
 PCOD9368411
Probable space group: F M M 2
;
_chemical_formula_sum "Si O2"
_cell_formula_units_Z 96
_cell_length_a 26.326154
_cell_length_b 7.992523
_cell_length_c 23.782056
_cell_angle_alpha 90.000000
_cell_angle_beta 90.000000
_cell_angle_gamma 90.000000
_cell_volume 5004.039274
_symmetry_space_group_name_H-M "F M M 2"
_symmetry_group_IT_number 42
_symmetry_cell_setting 'orthorhombic'
loop_
_space_group_symop_operation_xyz
x,y,z
-x,-y,z
-x,y,z
x,-y,z
x,1/2+y,1/2+z
-x,1/2-y,1/2+z
-x,1/2+y,1/2+z
x,1/2-y,1/2+z
1/2+x,y,1/2+z
1/2-x,-y,1/2+z
1/2-x,y,1/2+z
1/2+x,-y,1/2+z
1/2+x,1/2+y,z
1/2-x,1/2-y,z
1/2-x,1/2+y,z
1/2+x,1/2-y,z
loop_
_atom_site_type_symbol
_atom_site_label
_atom_site_fract_x
_atom_site_fract_y
_atom_site_fract_z
Si Si1 0.308095 0.300085 0.842380
Si Si2 0.307769 0.702227 0.713188
Si Si3 0.599598 0.189351 0.151743
Si Si4 0.940004 0.692727 0.764929
Si Si5 0.500000 0.305471 0.593485
Si Si6 0.910614 0.198728 0.388954
Si Si7 0.000000 0.691061 0.470308
O O1 0.311203 0.500000 0.841667
O O2 0.250000 0.250000 0.855133
O O3 0.319092 0.239326 0.777761
O O4 0.350394 0.235333 0.886141
O O5 0.312157 0.500000 0.713623
O O6 0.250000 0.750000 0.702205
O O7 0.345131 0.767133 0.663963
O O8 0.580470 0.191198 0.216066
O O9 0.552965 0.269070 0.117197
O O10 0.606494 0.000000 0.129839
O O11 0.921072 0.500000 0.758727
O O12 0.928173 0.755586 0.827058
O O13 0.000000 0.685699 0.758636
O O14 0.500000 0.500000 0.613247
O O15 0.500000 0.299362 0.526622
O O16 0.949072 0.276314 0.433960
O O17 0.918372 0.000000 0.392512
O O18 0.000000 0.500000 0.488990
#
# Coordination Sequence:
#
# PCOD9368411 Si02
#       7
#    16  16  16  16   8  16   8
#     4  10  19  32  51  80 117 153 187 222 266 324
#     4   9  18  30  47  76 112 147 181 213 254 314
#     4  10  19  33  54  79 107 142 179 218 265 324
#     4  10  19  30  47  77 111 141 171 210 266 331
#     4  10  22  39  58  77 103 138 180 230 281 328
#     4  11  21  36  56  80 112 147 183 225 277 332
#     4  12  26  41  58  79 105 140 186 236 283 334
#
# _framework density 19.1845
#
# number of rings (size 3 to 8) (size 9 to 14) (size 15 to 20)
#    0.000    1.833    3.333    1.750    0.000    2.667 
#    0.000    0.000    0.000    1.000    0.000    4.667 
#    0.000    0.000    0.000    0.000    0.000    0.000 
#
# Total GULP energy -133727.596589 kJ/mol
# GULP energy per Si atom -5571.983191 kJ/mol
# Density = 1.914084 g / cm^3
# Si number density = 19.184500 Si / 1000 Ang^3
#
#
#
# Elastic Constant Matrix: (Units=GPa)
#
#
# Indices 1 2 3 4 5 6 
#
# 1 140.3685 -0.6336 36.2134 0.0000 0.0000 0.0000
# 2 -0.6336 25.6095 -2.0372 0.0000 0.0000 0.0000
# 3 36.2134 -2.0372 56.5018 0.0000 0.0000 0.0000
# 4 0.0000 0.0000 0.0000 12.8690 0.0000 0.0000
# 5 0.0000 0.0000 0.0000 0.0000 12.5204 0.0000
# 6 0.0000 0.0000 0.0000 0.0000 0.0000 23.6778
#
#
#
# Elastic Compliance Matrix: (Units=1/GPa)
#
#
# Indices 1 2 3 4 5 6 
#
# 1 0.008537 -0.000225 -0.005480 0.000000 0.000000 0.000000
# 2 -0.000225 0.039166 0.001556 0.000000 0.000000 0.000000
# 3 -0.005480 0.001556 0.021267 0.000000 0.000000 0.000000
# 4 0.000000 0.000000 0.000000 0.077706 0.000000 0.000000
# 5 0.000000 0.000000 0.000000 0.000000 0.079870 0.000000
# 6 0.000000 0.000000 0.000000 0.000000 0.000000 0.042234
#
#
# Mechanical properties :
#
#
# Convention : Reuss Voigt Hill
#
# Bulk Modulus (GPa) = 16.48166 32.17389 24.32777
# Shear Modulus (GPa) = 16.81806 22.40926 19.61366
#
# Velocity S-wave (km/s) = 2.96404 3.42144 3.20092
# Velocity P-wave (km/s) = 4.50819 5.69347 5.13514
#
# Compressibility (1/GPa) = 0.06067352
#
# Stress axis : x y z
#
# Youngs Moduli (GPa) = 117.14070 25.53224 47.02204
#
# Poissons Ratio (x) = 0.00574 0.25766
# Poissons Ratio (y) = 0.02632 -0.07318
# Poissons Ratio (z) = 0.64187 -0.03973
#
# Static dielectric constant tensor:
#      x y z
#    x 1.759630 0.000000 0.000000 
#    y 0.000000 1.718260 0.000000 
#    z 0.000000 0.000000 1.636680 
# 
# From -- ./inp_files/28200.got.cif
#   From: 2010.05.17/outbox.cif.g08.bks.cpg/sg42_15_cif.got.tgz:28200.got - 2010.06.03 19:03:34.
