data_PCOD9368880
_publ_section_title
;
Structure prediction by ZEFSAII (Michael W. Deem and Ramdas Pophale) SiO2 
 PCOD9368880
Probable space group: F M M 2
;
_chemical_formula_sum "Si O2"
_cell_formula_units_Z 112
_cell_length_a 32.656536
_cell_length_b 13.694840
_cell_length_c 13.179056
_cell_angle_alpha 90.000000
_cell_angle_beta 90.000000
_cell_angle_gamma 90.000000
_cell_volume 5894.016966
_symmetry_space_group_name_H-M "F M M 2"
_symmetry_group_IT_number 42
_symmetry_cell_setting 'orthorhombic'
loop_
_space_group_symop_operation_xyz
x,y,z
-x,-y,z
-x,y,z
x,-y,z
x,1/2+y,1/2+z
-x,1/2-y,1/2+z
-x,1/2+y,1/2+z
x,1/2-y,1/2+z
1/2+x,y,1/2+z
1/2-x,-y,1/2+z
1/2-x,y,1/2+z
1/2+x,-y,1/2+z
1/2+x,1/2+y,z
1/2-x,1/2-y,z
1/2-x,1/2+y,z
1/2+x,1/2-y,z
loop_
_atom_site_type_symbol
_atom_site_label
_atom_site_fract_x
_atom_site_fract_y
_atom_site_fract_z
Si Si1 0.951820 0.304376 0.183000
Si Si2 0.451271 0.611517 0.461279
Si Si3 0.236338 0.614167 0.804315
Si Si4 0.689504 0.722989 0.892979
Si Si5 0.686147 0.613794 0.101121
Si Si6 0.409501 0.387476 0.102736
Si Si7 0.406015 0.199647 0.380677
O O1 0.936407 0.194584 0.157445
O O2 0.927354 0.341325 0.280529
O O3 0.000000 0.303675 0.204251
O O4 0.944764 0.367105 0.081114
O O5 0.500000 0.623946 0.442060
O O6 0.439987 0.500000 0.436416
O O7 0.426221 0.694681 0.403308
O O8 0.238570 0.500000 0.822410
O O9 0.280674 0.661878 0.819339
O O10 0.206106 0.667650 0.882915
O O11 0.216264 0.631408 0.694477
O O12 0.642302 0.712195 0.865293
O O13 0.695040 0.681482 0.005639
O O14 0.689936 0.500000 0.069912
O O15 0.638405 0.627387 0.131284
O O16 0.420657 0.500000 0.123631
O O17 0.412359 0.364943 0.981942
#
# Coordination Sequence:
#
# PCOD9368880 Si02
#       7
#    16  16  16  16  16  16  16
#     4  10  20  34  53  79 110 141 178 226 272 316
#     4   9  19  36  55  77 109 146 181 219 265 318
#     4  10  21  36  55  78 105 141 181 220 269 327
#     4  10  21  35  56  82 110 140 179 227 272 316
#     4   9  18  36  58  79 110 148 182 222 271 319
#     4   9  19  35  55  79 109 147 186 222 264 318
#     4  10  20  35  56  81 109 142 181 224 269 318
#
# _framework density 19.002321999999999
#
# number of rings (size 3 to 8) (size 9 to 14) (size 15 to 20)
#    0.000    2.429    0.000    1.714    0.000    5.429 
#    0.000    0.000    0.000    4.286    0.000    0.000 
#    0.000    0.000    0.000    0.000    0.000    0.000 
#
# Total GULP energy -156316.195418 kJ/mol
# GULP energy per Si atom -5582.721265 kJ/mol
# Density = 1.895907 g / cm^3
# Si number density = 19.002322 Si / 1000 Ang^3
#
#
#
# Elastic Constant Matrix: (Units=GPa)
#
#
# Indices 1 2 3 4 5 6 
#
# 1 65.4510 7.5117 23.2928 0.0000 0.0000 0.0000
# 2 7.5117 65.3807 0.1769 0.0000 0.0000 0.0000
# 3 23.2928 0.1769 35.1462 0.0000 0.0000 0.0000
# 4 0.0000 0.0000 0.0000 18.3240 0.0000 0.0000
# 5 0.0000 0.0000 0.0000 0.0000 32.7905 0.0000
# 6 0.0000 0.0000 0.0000 0.0000 0.0000 19.9719
#
#
#
# Elastic Compliance Matrix: (Units=1/GPa)
#
#
# Indices 1 2 3 4 5 6 
#
# 1 0.020334 -0.002300 -0.013465 0.000000 0.000000 0.000000
# 2 -0.002300 0.015555 0.001446 0.000000 0.000000 0.000000
# 3 -0.013465 0.001446 0.037369 0.000000 0.000000 0.000000
# 4 0.000000 0.000000 0.000000 0.054573 0.000000 0.000000
# 5 0.000000 0.000000 0.000000 0.000000 0.030497 0.000000
# 6 0.000000 0.000000 0.000000 0.000000 0.000000 0.050070
#
#
# Mechanical properties :
#
#
# Convention : Reuss Voigt Hill
#
# Bulk Modulus (GPa) = 22.41087 25.32674 23.86880
# Shear Modulus (GPa) = 19.84833 23.21705 21.53269
#
# Velocity S-wave (km/s) = 3.23541 3.49922 3.36990
# Velocity P-wave (km/s) = 5.07706 5.44823 5.26592
#
# Compressibility (1/GPa) = 0.04462121
#
# Stress axis : x y z
#
# Youngs Moduli (GPa) = 49.17766 64.28652 26.76017
#
# Poissons Ratio (x) = 0.14785 0.36032
# Poissons Ratio (y) = 0.11310 -0.03869
# Poissons Ratio (z) = 0.66217 -0.09295
#
# Static dielectric constant tensor:
#      x y z
#    x 1.639270 0.000000 0.000000 
#    y 0.000000 1.652580 0.000000 
#    z 0.000000 0.000000 1.663530 
# 
# From -- ./inp_files/8118.got.cif
#   From: 2010.05.17/outbox.cif.g08.bks.cpg/sg42_5_cif.got.tgz:8118.got - 2010.06.03 19:03:34.
