data_PCOD9368231
_publ_section_title
;
Structure prediction by ZEFSAII (Michael W. Deem and Ramdas Pophale) SiO2 
 PCOD9368231
Probable space group: F M M 2
;
_chemical_formula_sum "Si O2"
_cell_formula_units_Z 100
_cell_length_a 7.553632
_cell_length_b 27.517003
_cell_length_c 27.512218
_cell_angle_alpha 90.000000
_cell_angle_beta 90.000000
_cell_angle_gamma 90.000000
_cell_volume 5718.505698
_symmetry_space_group_name_H-M "F M M 2"
_symmetry_group_IT_number 42
_symmetry_cell_setting 'orthorhombic'
loop_
_space_group_symop_operation_xyz
x,y,z
-x,-y,z
-x,y,z
x,-y,z
x,1/2+y,1/2+z
-x,1/2-y,1/2+z
-x,1/2+y,1/2+z
x,1/2-y,1/2+z
1/2+x,y,1/2+z
1/2-x,-y,1/2+z
1/2-x,y,1/2+z
1/2+x,-y,1/2+z
1/2+x,1/2+y,z
1/2-x,1/2-y,z
1/2-x,1/2+y,z
1/2+x,1/2-y,z
loop_
_atom_site_type_symbol
_atom_site_label
_atom_site_fract_x
_atom_site_fract_y
_atom_site_fract_z
Si Si1 0.712978 0.805821 0.931100
Si Si2 0.500000 0.055678 0.703280
Si Si3 0.500000 0.000000 0.608727
Si Si4 0.200020 0.402357 0.969995
Si Si5 0.783198 0.000000 0.525522
Si Si6 0.789363 0.305598 0.819583
Si Si7 0.797686 0.899452 0.765929
Si Si8 0.712692 0.443507 0.868603
O O1 0.500000 0.810890 0.929565
O O2 0.750000 0.750000 0.944774
O O3 0.781668 0.848196 0.967000
O O4 0.778156 0.812975 0.875221
O O5 0.500000 0.045804 0.645669
O O6 0.330136 0.084088 0.723141
O O7 0.500000 0.000000 0.723598
O O8 0.674330 0.000000 0.575408
O O9 0.198975 0.416384 0.913155
O O10 0.000000 0.397266 0.988858
O O11 0.271989 0.450393 0.996976
O O12 0.000000 0.000000 0.529473
O O13 0.750000 0.250000 0.807153
O O14 0.710373 0.343136 0.781232
O O15 0.000000 0.313261 0.820092
O O16 0.734001 0.925201 0.815707
O O17 0.000000 0.914009 0.756436
O O18 0.500000 0.436644 0.872560
O O19 0.752523 0.500000 0.873298
#
# Coordination Sequence:
#
# PCOD9368231 Si02
#       8
#    16   8   4  16   8  16  16  16
#     4   9  18  30  44  69 112 159 199 227 256 313
#     4  10  24  42  60  84 105 147 188 234 290 355
#     4  10  26  46  64  84 106 138 194 234 296 362
#     4  10  19  31  50  79 110 151 187 222 277 331
#     4  10  22  40  61  85 113 139 180 244 298 343
#     4  10  18  30  48  74 116 164 200 231 266 318
#     4  11  21  35  54  81 118 152 191 233 279 335
#     4  10  20  29  43  73 111 152 183 219 262 325
#
# _framework density 17.487086000000001
#
# number of rings (size 3 to 8) (size 9 to 14) (size 15 to 20)
#    0.240    1.760    3.200    0.960    2.240    2.880 
#    0.000    0.000    0.000    0.000    0.000    1.120 
#    0.000    0.000    0.000    0.000    0.000    0.000 
#
# Total GULP energy -139342.372525 kJ/mol
# GULP energy per Si atom -5573.694901 kJ/mol
# Density = 1.744728 g / cm^3
# Si number density = 17.487086 Si / 1000 Ang^3
#
#
#
# Elastic Constant Matrix: (Units=GPa)
#
#
# Indices 1 2 3 4 5 6 
#
# 1 66.0637 19.0556 24.3808 0.0000 0.0000 0.0000
# 2 19.0556 132.5062 46.9775 0.0000 0.0000 0.0000
# 3 24.3808 46.9775 72.6539 0.0000 0.0000 0.0000
# 4 0.0000 0.0000 0.0000 14.2144 0.0000 0.0000
# 5 0.0000 0.0000 0.0000 0.0000 40.3361 0.0000
# 6 0.0000 0.0000 0.0000 0.0000 0.0000 17.7673
#
#
#
# Elastic Compliance Matrix: (Units=1/GPa)
#
#
# Indices 1 2 3 4 5 6 
#
# 1 0.017308 -0.000558 -0.005448 0.000000 0.000000 0.000000
# 2 -0.000558 0.009809 -0.006155 0.000000 0.000000 0.000000
# 3 -0.005448 -0.006155 0.019572 0.000000 0.000000 0.000000
# 4 0.000000 0.000000 0.000000 0.070351 0.000000 0.000000
# 5 0.000000 0.000000 0.000000 0.000000 0.024792 0.000000
# 6 0.000000 0.000000 0.000000 0.000000 0.000000 0.056283
#
#
# Mechanical properties :
#
#
# Convention : Reuss Voigt Hill
#
# Bulk Modulus (GPa) = 44.70673 50.22796 47.46735
# Shear Modulus (GPa) = 21.74923 26.51754 24.13339
#
# Velocity S-wave (km/s) = 3.53048 3.89833 3.71896
# Velocity P-wave (km/s) = 6.49924 7.00342 6.75604
#
# Compressibility (1/GPa) = 0.02236800
#
# Stress axis : x y z
#
# Youngs Moduli (GPa) = 57.77600 101.94382 51.09335
#
# Poissons Ratio (x) = 0.05686 0.27833
# Poissons Ratio (y) = 0.03222 0.31450
# Poissons Ratio (z) = 0.31474 0.62751
#
# Static dielectric constant tensor:
#      x y z
#    x 1.630400 0.000000 0.000000 
#    y 0.000000 1.656230 0.000000 
#    z 0.000000 0.000000 1.551510 
# 
# From -- ./inp_files/23849.got.cif
#   From: 2010.05.17/outbox.cif.g08.bks.cpg/sg42_12_cif.got.tgz:23849.got - 2010.06.03 19:03:34.
