data_PCOD9368576
_publ_section_title
;
Structure prediction by ZEFSAII (Michael W. Deem and Ramdas Pophale) SiO2 
 PCOD9368576
Probable space group: F M M 2
;
_chemical_formula_sum "Si O2"
_cell_formula_units_Z 116
_cell_length_a 26.016658
_cell_length_b 7.633032
_cell_length_c 28.065057
_cell_angle_alpha 90.000000
_cell_angle_beta 90.000000
_cell_angle_gamma 90.000000
_cell_volume 5573.326934
_symmetry_space_group_name_H-M "F M M 2"
_symmetry_group_IT_number 42
_symmetry_cell_setting 'orthorhombic'
loop_
_space_group_symop_operation_xyz
x,y,z
-x,-y,z
-x,y,z
x,-y,z
x,1/2+y,1/2+z
-x,1/2-y,1/2+z
-x,1/2+y,1/2+z
x,1/2-y,1/2+z
1/2+x,y,1/2+z
1/2-x,-y,1/2+z
1/2-x,y,1/2+z
1/2+x,-y,1/2+z
1/2+x,1/2+y,z
1/2-x,1/2-y,z
1/2-x,1/2+y,z
1/2+x,1/2-y,z
loop_
_atom_site_type_symbol
_atom_site_label
_atom_site_fract_x
_atom_site_fract_y
_atom_site_fract_z
Si Si1 0.833319 0.794570 0.254660
Si Si2 0.307117 0.709363 0.151531
Si Si3 0.443222 0.712644 0.789676
Si Si4 0.586508 0.302126 0.894021
Si Si5 0.193713 0.208926 0.358540
Si Si6 0.556463 0.207129 0.000045
Si Si7 0.500000 0.500000 0.126171
Si Si8 0.913398 0.706952 0.101917
O O1 0.811855 0.719471 0.205845
O O2 0.895054 0.775430 0.258877
O O3 0.811435 0.721120 0.304236
O O4 0.820725 0.000000 0.255058
O O5 0.312562 0.500000 0.152997
O O6 0.250000 0.750000 0.132938
O O7 0.356556 0.778453 0.123660
O O8 0.500000 0.765316 0.773067
O O9 0.440781 0.500000 0.790090
O O10 0.435066 0.777197 0.844489
O O11 0.567443 0.500000 0.893517
O O12 0.647618 0.292047 0.887794
O O13 0.572931 0.233722 0.945809
O O14 0.250000 0.250000 0.376903
O O15 0.185348 0.000000 0.358354
O O16 0.500000 0.288143 0.006851
O O17 0.552405 0.000000 0.004844
O O18 0.589414 0.260639 0.045681
O O19 0.454398 0.343074 0.124232
O O20 0.929364 0.500000 0.106293
#
# Coordination Sequence:
#
# PCOD9368576 Si02
#       8
#    16  16  16  16  16  16   4  16
#     4   9  20  36  56  82 112 149 197 246 301 364
#     4  11  23  42  65  92 125 165 213 266 323 387
#     4   9  18  33  49  76 115 154 193 241 294 356
#     4  10  20  32  53  80 111 149 194 238 289 355
#     4  10  19  34  54  78 110 147 189 241 293 347
#     4  10  21  37  58  86 118 153 194 243 295 360
#     4  12  22  44  72  98 132 168 206 270 324 394
#     4  11  24  43  67  99 132 166 212 266 324 383
#
# _framework density 20.813421000000002
#
# number of rings (size 3 to 8) (size 9 to 14) (size 15 to 20)
#    0.000    1.931    1.379    2.276    0.966    3.310 
#    1.241    0.690    0.000    3.310    0.000    0.000 
#    0.000    0.000    0.000    0.000    0.000    0.000 
#
# Total GULP energy -161525.978441 kJ/mol
# GULP energy per Si atom -5569.861326 kJ/mol
# Density = 2.076605 g / cm^3
# Si number density = 20.813421 Si / 1000 Ang^3
#
#
#
# Elastic Constant Matrix: (Units=GPa)
#
#
# Indices 1 2 3 4 5 6 
#
# 1 125.0470 7.6644 31.7072 0.0001 0.0000 -0.0003
# 2 7.6644 87.1394 7.1364 0.0003 -0.0001 -0.0009
# 3 31.7072 7.1364 63.7558 0.0000 0.0000 0.0001
# 4 0.0001 0.0003 0.0000 9.9122 0.0000 -0.0001
# 5 0.0000 -0.0001 0.0000 0.0000 9.8541 0.0001
# 6 -0.0003 -0.0009 0.0001 -0.0001 0.0001 30.8406
#
#
#
# Elastic Compliance Matrix: (Units=1/GPa)
#
#
# Indices 1 2 3 4 5 6 
#
# 1 0.009167 -0.000437 -0.004510 0.000000 0.000000 0.000000
# 2 -0.000437 0.011603 -0.001081 0.000000 0.000000 0.000000
# 3 -0.004510 -0.001081 0.018049 0.000000 0.000000 0.000000
# 4 0.000000 0.000000 0.000000 0.100885 0.000000 0.000000
# 5 0.000000 0.000000 0.000000 0.000000 0.101480 0.000000
# 6 0.000000 0.000000 0.000000 0.000000 0.000000 0.032425
#
#
# Mechanical properties :
#
#
# Convention : Reuss Voigt Hill
#
# Bulk Modulus (GPa) = 37.36650 40.99536 39.18093
# Shear Modulus (GPa) = 16.97288 25.41701 21.19494
#
# Velocity S-wave (km/s) = 2.85875 3.49833 3.19459
# Velocity P-wave (km/s) = 5.37482 6.00476 5.69850
#
# Compressibility (1/GPa) = 0.02676194
#
# Stress axis : x y z
#
# Youngs Moduli (GPa) = 109.08208 86.18558 55.40486
#
# Poissons Ratio (x) = 0.03766 0.24989
# Poissons Ratio (y) = 0.04766 0.05992
# Poissons Ratio (z) = 0.49199 0.09320
#
# Static dielectric constant tensor:
#      x y z
#    x 1.751060 0.000000 0.000000 
#    y 0.000000 1.806030 0.000000 
#    z 0.000000 0.000000 1.766700 
# 
# From -- ./inp_files/30752.got.cif
#   From: 2010.05.17/outbox.cif.g08.bks.cpg/sg42_16_cif.got.tgz:30752.got - 2010.06.03 19:03:34.
