data_PCOD9368893
_publ_section_title
;
Structure prediction by ZEFSAII (Michael W. Deem and Ramdas Pophale) SiO2 
 PCOD9368893
Probable space group: F M M 2
;
_chemical_formula_sum "Si O2"
_cell_formula_units_Z 96
_cell_length_a 18.930666
_cell_length_b 8.940158
_cell_length_c 31.459705
_cell_angle_alpha 90.000000
_cell_angle_beta 90.000000
_cell_angle_gamma 90.000000
_cell_volume 5324.339418
_symmetry_space_group_name_H-M "F M M 2"
_symmetry_group_IT_number 42
_symmetry_cell_setting 'orthorhombic'
loop_
_space_group_symop_operation_xyz
x,y,z
-x,-y,z
-x,y,z
x,-y,z
x,1/2+y,1/2+z
-x,1/2-y,1/2+z
-x,1/2+y,1/2+z
x,1/2-y,1/2+z
1/2+x,y,1/2+z
1/2-x,-y,1/2+z
1/2-x,y,1/2+z
1/2+x,-y,1/2+z
1/2+x,1/2+y,z
1/2-x,1/2-y,z
1/2-x,1/2+y,z
1/2+x,1/2-y,z
loop_
_atom_site_type_symbol
_atom_site_label
_atom_site_fract_x
_atom_site_fract_y
_atom_site_fract_z
Si Si1 0.417117 0.319596 0.345030
Si Si2 0.083598 0.319991 0.997003
Si Si3 0.826785 0.179678 0.263428
Si Si4 0.672155 0.321200 0.921411
Si Si5 0.826524 0.821735 0.167360
Si Si6 0.915573 0.825158 0.594147
O O1 0.500000 0.282527 0.346800
O O2 0.410718 0.500000 0.350540
O O3 0.382565 0.279363 0.299677
O O4 0.373420 0.238552 0.381739
O O5 0.091958 0.500000 0.992235
O O6 0.131567 0.234956 0.963458
O O7 0.000000 0.288162 0.990429
O O8 0.102441 0.280517 0.045721
O O9 0.750000 0.250000 0.272059
O O10 0.848932 0.222467 0.215438
O O11 0.819277 0.000000 0.264328
O O12 0.677096 0.500000 0.920591
O O13 0.750000 0.250000 0.919750
O O14 0.750000 0.750000 0.160239
O O15 0.878169 0.766814 0.130751
O O16 0.820767 0.000000 0.166200
O O17 0.000000 0.812976 0.597769
O O18 0.896669 0.000000 0.598951
#
# Coordination Sequence:
#
# PCOD9368893 Si02
#       6
#    16  16  16  16  16  16
#     4  10  21  38  59  82 111 145 178 217 269 325
#     4   9  19  38  61  82 108 143 180 220 270 325
#     4   9  19  35  55  79 107 143 184 224 268 318
#     4  12  25  39  57  82 111 142 180 224 269 320
#     4  10  20  34  54  80 111 146 184 226 270 318
#     4   9  19  36  57  81 110 144 181 222 270 323
#
# _framework density 18.030405999999999
#
# number of rings (size 3 to 8) (size 9 to 14) (size 15 to 20)
#    0.000    2.167    0.000    4.000    0.000    7.667 
#    0.000    3.333    0.000    0.000    0.000    0.000 
#    0.000    0.000    0.000    0.000    0.000    0.000 
#
# Total GULP energy -133997.520743 kJ/mol
# GULP energy per Si atom -5583.230031 kJ/mol
# Density = 1.798937 g / cm^3
# Si number density = 18.030406 Si / 1000 Ang^3
#
#
#
# Elastic Constant Matrix: (Units=GPa)
#
#
# Indices 1 2 3 4 5 6 
#
# 1 114.5717 62.2153 100.3089 0.0000 0.0000 0.0000
# 2 62.2153 63.6183 73.7547 0.0000 0.0000 0.0000
# 3 100.3089 73.7547 152.5821 0.0000 0.0000 0.0000
# 4 0.0000 0.0000 0.0000 28.4653 0.0000 0.0000
# 5 0.0000 0.0000 0.0000 0.0000 37.8031 0.0000
# 6 0.0000 0.0000 0.0000 0.0000 0.0000 29.8514
#
#
#
# Elastic Compliance Matrix: (Units=1/GPa)
#
#
# Indices 1 2 3 4 5 6 
#
# 1 0.023873 -0.011719 -0.010030 0.000000 0.000000 0.000000
# 2 -0.011719 0.041509 -0.012361 0.000000 0.000000 0.000000
# 3 -0.010030 -0.012361 0.019122 0.000000 0.000000 0.000000
# 4 0.000000 0.000000 0.000000 0.035130 0.000000 0.000000
# 5 0.000000 0.000000 0.000000 0.000000 0.026453 0.000000
# 6 0.000000 0.000000 0.000000 0.000000 0.000000 0.033499
#
#
# Mechanical properties :
#
#
# Convention : Reuss Voigt Hill
#
# Bulk Modulus (GPa) = 61.40130 89.25886 75.33008
# Shear Modulus (GPa) = 19.74468 25.52350 22.63409
#
# Velocity S-wave (km/s) = 3.31278 3.76650 3.54691
# Velocity P-wave (km/s) = 6.98291 8.27813 7.65795
#
# Compressibility (1/GPa) = 0.01628630
#
# Stress axis : x y z
#
# Youngs Moduli (GPa) = 41.88880 24.09125 52.29505
#
# Poissons Ratio (x) = 0.28231 0.52450
# Poissons Ratio (y) = 0.49088 0.64640
# Poissons Ratio (z) = 0.42013 0.29778
#
# Static dielectric constant tensor:
#      x y z
#    x 1.580900 0.000000 0.000000 
#    y 0.000000 1.604460 0.000000 
#    z 0.000000 0.000000 1.620520 
# 
# From -- ./inp_files/31433.got.cif
#   From: 2010.05.17/outbox.cif.g08.bks.cpg/sg42_16_cif.got.tgz:31433.got - 2010.06.03 19:03:34.
