data_PCOD9368273
_publ_section_title
;
Structure prediction by ZEFSAII (Michael W. Deem and Ramdas Pophale) SiO2 
 PCOD9368273
Probable space group: F M M 2
;
_chemical_formula_sum "Si O2"
_cell_formula_units_Z 80
_cell_length_a 8.350354
_cell_length_b 30.125739
_cell_length_c 16.052339
_cell_angle_alpha 90.000000
_cell_angle_beta 90.000000
_cell_angle_gamma 90.000000
_cell_volume 4038.135792
_symmetry_space_group_name_H-M "F M M 2"
_symmetry_group_IT_number 42
_symmetry_cell_setting 'orthorhombic'
loop_
_space_group_symop_operation_xyz
x,y,z
-x,-y,z
-x,y,z
x,-y,z
x,1/2+y,1/2+z
-x,1/2-y,1/2+z
-x,1/2+y,1/2+z
x,1/2-y,1/2+z
1/2+x,y,1/2+z
1/2-x,-y,1/2+z
1/2-x,y,1/2+z
1/2+x,-y,1/2+z
1/2+x,1/2+y,z
1/2-x,1/2-y,z
1/2-x,1/2+y,z
1/2+x,1/2-y,z
loop_
_atom_site_type_symbol
_atom_site_label
_atom_site_fract_x
_atom_site_fract_y
_atom_site_fract_z
Si Si1 0.306323 0.107190 0.343730
Si Si2 0.193437 0.449164 0.686607
Si Si3 0.804358 0.607586 0.527844
Si Si4 0.808563 0.297184 0.590622
Si Si5 0.691423 0.202814 0.281711
O O1 0.500000 0.106355 0.341289
O O2 0.244511 0.076958 0.269089
O O3 0.254031 0.092678 0.435922
O O4 0.255494 0.158289 0.328396
O O5 0.249690 0.500000 0.687404
O O6 0.250120 0.422882 0.604342
O O7 0.000000 0.449490 0.683875
O O8 0.754019 0.658480 0.543854
O O9 0.000000 0.607278 0.528960
O O10 0.750000 0.250000 0.556361
O O11 0.751123 0.300442 0.686347
O O12 0.000000 0.296664 0.590543
O O13 0.500000 0.203653 0.281057
O O14 0.750000 0.250000 0.316287
#
# Coordination Sequence:
#
# PCOD9368273 Si02
#       5
#    16  16  16  16  16
#     4  10  21  37  58  84 112 144 185 227 271 326
#     4  10  21  39  61  82 107 142 183 227 279 334
#     4   9  19  36  57  81 110 146 183 220 268 330
#     4  10  18  31  53  78 109 146 184 222 265 318
#     4  10  19  31  51  79 111 146 184 222 266 319
#
# _framework density 19.811122999999998
#
# number of rings (size 3 to 8) (size 9 to 14) (size 15 to 20)
#    0.000    2.200    2.000    2.400    0.000    2.800 
#    0.000    5.000    0.000    0.000    0.000    0.000 
#    0.000    0.000    0.000    0.000    0.000    0.000 
#
# Total GULP energy -111643.054971 kJ/mol
# GULP energy per Si atom -5582.152749 kJ/mol
# Density = 1.976603 g / cm^3
# Si number density = 19.811123 Si / 1000 Ang^3
#
#
#
# Elastic Constant Matrix: (Units=GPa)
#
#
# Indices 1 2 3 4 5 6 
#
# 1 18.0147 22.1866 12.5867 0.0000 0.0000 0.0000
# 2 22.1866 169.5714 98.2984 0.0000 0.0000 0.0000
# 3 12.5867 98.2984 161.9208 0.0000 0.0000 0.0000
# 4 0.0000 0.0000 0.0000 0.4483 0.0000 0.0000
# 5 0.0000 0.0000 0.0000 0.0000 16.9050 0.0000
# 6 0.0000 0.0000 0.0000 0.0000 0.0000 12.6778
#
#
#
# Elastic Compliance Matrix: (Units=1/GPa)
#
#
# Indices 1 2 3 4 5 6 
#
# 1 0.066176 -0.008759 0.000173 0.000000 0.000000 0.000000
# 2 -0.008759 0.010259 -0.005547 0.000000 0.000000 0.000000
# 3 0.000173 -0.005547 0.009530 0.000000 0.000000 0.000000
# 4 0.000000 0.000000 0.000000 2.230629 0.000000 0.000000
# 5 0.000000 0.000000 0.000000 0.000000 0.059154 0.000000
# 6 0.000000 0.000000 0.000000 0.000000 0.000000 0.078878
#
#
# Mechanical properties :
#
#
# Convention : Reuss Voigt Hill
#
# Bulk Modulus (GPa) = 17.33113 68.40559 42.86836
# Shear Modulus (GPa) = 1.99830 20.43525 11.21678
#
# Velocity S-wave (km/s) = 1.00542 3.21519 2.38205
# Velocity P-wave (km/s) = 3.18041 6.95608 5.40842
#
# Compressibility (1/GPa) = 0.05769966
#
# Stress axis : x y z
#
# Youngs Moduli (GPa) = 15.11112 97.47780 104.93345
#
# Poissons Ratio (x) = 0.85380 -0.01817
# Poissons Ratio (y) = 0.13236 0.58206
# Poissons Ratio (z) = -0.00262 0.54071
#
# Static dielectric constant tensor:
#      x y z
#    x 1.692770 0.000000 0.000000 
#    y 0.000000 1.700940 0.000000 
#    z 0.000000 0.000000 1.689610 
# 
# From -- ./inp_files/18218.got.cif
#   From: 2010.05.17/outbox.cif.g08.bks.cpg/sg42_10_cif.got.tgz:18218.got - 2010.06.03 19:03:34.
