data_PCOD9368329
_publ_section_title
;
Structure prediction by ZEFSAII (Michael W. Deem and Ramdas Pophale) SiO2 
 PCOD9368329
Probable space group: F M M 2
;
_chemical_formula_sum "Si O2"
_cell_formula_units_Z 96
_cell_length_a 8.563598
_cell_length_b 25.952499
_cell_length_c 24.170294
_cell_angle_alpha 90.000000
_cell_angle_beta 90.000000
_cell_angle_gamma 90.000000
_cell_volume 5371.769736
_symmetry_space_group_name_H-M "F M M 2"
_symmetry_group_IT_number 42
_symmetry_cell_setting 'orthorhombic'
loop_
_space_group_symop_operation_xyz
x,y,z
-x,-y,z
-x,y,z
x,-y,z
x,1/2+y,1/2+z
-x,1/2-y,1/2+z
-x,1/2+y,1/2+z
x,1/2-y,1/2+z
1/2+x,y,1/2+z
1/2-x,-y,1/2+z
1/2-x,y,1/2+z
1/2+x,-y,1/2+z
1/2+x,1/2+y,z
1/2-x,1/2-y,z
1/2-x,1/2+y,z
1/2+x,1/2-y,z
loop_
_atom_site_type_symbol
_atom_site_label
_atom_site_fract_x
_atom_site_fract_y
_atom_site_fract_z
Si Si1 0.685935 0.900472 0.850260
Si Si2 0.810936 0.060744 0.965261
Si Si3 0.814002 0.000000 0.785895
Si Si4 0.189847 0.596806 0.586162
Si Si5 0.813687 0.807160 0.779724
Si Si6 0.312139 0.192982 0.657638
Si Si7 0.310705 0.000000 0.662065
O O1 0.500000 0.897899 0.846964
O O2 0.739677 0.910298 0.912971
O O3 0.757601 0.849146 0.823636
O O4 0.745821 0.949432 0.815295
O O5 0.000000 0.063591 0.962131
O O6 0.769625 0.000000 0.963431
O O7 0.759271 0.084628 0.023830
O O8 0.765682 0.000000 0.721946
O O9 0.000000 0.000000 0.792157
O O10 0.239760 0.650640 0.613018
O O11 0.234406 0.550227 0.626812
O O12 0.000000 0.596943 0.584895
O O13 0.750000 0.750000 0.792333
O O14 0.748683 0.821359 0.718806
O O15 0.000000 0.805578 0.777292
O O16 0.500000 0.194032 0.659461
O O17 0.250000 0.250000 0.645100
O O18 0.500000 0.000000 0.668226
#
# Coordination Sequence:
#
# PCOD9368329 Si02
#       7
#    16  16   8  16  16  16   8
#     4  12  24  39  58  84 116 152 194 240 291 347
#     4  10  19  36  60  83 111 150 195 240 289 344
#     4  12  24  37  54  83 117 152 190 238 293 346
#     4   9  18  33  57  84 110 145 189 234 285 342
#     4  11  22  39  62  88 118 153 193 238 291 346
#     4  10  19  34  56  84 117 153 192 232 282 340
#     4  10  18  33  56  83 111 142 180 232 291 346
#
# _framework density 17.871205
#
# number of rings (size 3 to 8) (size 9 to 14) (size 15 to 20)
#    0.000    1.500    1.667    6.250    0.000    1.333 
#    0.000    4.167    0.000    2.000    0.000    0.000 
#    0.000    0.000    0.000    0.000    0.000    0.000 
#
# Total GULP energy -134118.979381 kJ/mol
# GULP energy per Si atom -5588.290808 kJ/mol
# Density = 1.783053 g / cm^3
# Si number density = 17.871205 Si / 1000 Ang^3
#
#
#
# Elastic Constant Matrix: (Units=GPa)
#
#
# Indices 1 2 3 4 5 6 
#
# 1 88.6406 41.6767 40.4517 0.0000 0.0000 0.0000
# 2 41.6767 122.9694 93.8113 0.0000 0.0000 0.0000
# 3 40.4517 93.8113 155.3525 0.0000 0.0000 0.0000
# 4 0.0000 0.0000 0.0000 5.1449 0.0000 0.0000
# 5 0.0000 0.0000 0.0000 0.0000 28.2063 0.0000
# 6 0.0000 0.0000 0.0000 0.0000 0.0000 15.6623
#
#
#
# Elastic Compliance Matrix: (Units=1/GPa)
#
#
# Indices 1 2 3 4 5 6 
#
# 1 0.013583 -0.003533 -0.001403 0.000000 0.000000 0.000000
# 2 -0.003533 0.015997 -0.008740 0.000000 0.000000 0.000000
# 3 -0.001403 -0.008740 0.012080 0.000000 0.000000 0.000000
# 4 0.000000 0.000000 0.000000 0.194368 0.000000 0.000000
# 5 0.000000 0.000000 0.000000 0.000000 0.035453 0.000000
# 6 0.000000 0.000000 0.000000 0.000000 0.000000 0.063847
#
#
# Mechanical properties :
#
#
# Convention : Reuss Voigt Hill
#
# Bulk Modulus (GPa) = 69.89349 79.87131 74.88240
# Shear Modulus (GPa) = 13.60725 22.53756 18.07241
#
# Velocity S-wave (km/s) = 2.76235 3.55506 3.18348
# Velocity P-wave (km/s) = 7.02628 7.85118 7.45016
#
# Compressibility (1/GPa) = 0.01430748
#
# Stress axis : x y z
#
# Youngs Moduli (GPa) = 73.62110 62.51107 82.77967
#
# Poissons Ratio (x) = 0.22084 0.11618
# Poissons Ratio (y) = 0.26009 0.72351
# Poissons Ratio (z) = 0.10333 0.54636
#
# Static dielectric constant tensor:
#      x y z
#    x 1.604820 0.000000 0.000000 
#    y 0.000000 1.588920 0.000000 
#    z 0.000000 0.000000 1.589090 
# 
# From -- ./inp_files/28109.got.cif
#   From: 2010.05.17/outbox.cif.g08.bks.cpg/sg42_15_cif.got.tgz:28109.got - 2010.06.03 19:03:34.
