data_PCOD9368208
_publ_section_title
;
Structure prediction by ZEFSAII (Michael W. Deem and Ramdas Pophale) SiO2 
 PCOD9368208
Probable space group: F M M 2
;
_chemical_formula_sum "Si O2"
_cell_formula_units_Z 96
_cell_length_a 14.631372
_cell_length_b 18.520735
_cell_length_c 18.700829
_cell_angle_alpha 90.000000
_cell_angle_beta 90.000000
_cell_angle_gamma 90.000000
_cell_volume 5067.621023
_symmetry_space_group_name_H-M "F M M 2"
_symmetry_group_IT_number 42
_symmetry_cell_setting 'orthorhombic'
loop_
_space_group_symop_operation_xyz
x,y,z
-x,-y,z
-x,y,z
x,-y,z
x,1/2+y,1/2+z
-x,1/2-y,1/2+z
-x,1/2+y,1/2+z
x,1/2-y,1/2+z
1/2+x,y,1/2+z
1/2-x,-y,1/2+z
1/2-x,y,1/2+z
1/2+x,-y,1/2+z
1/2+x,1/2+y,z
1/2-x,1/2-y,z
1/2-x,1/2+y,z
1/2+x,1/2-y,z
loop_
_atom_site_type_symbol
_atom_site_label
_atom_site_fract_x
_atom_site_fract_y
_atom_site_fract_z
Si Si1 0.112227 0.582195 0.753840
Si Si2 0.888884 0.916673 0.849843
Si Si3 0.601313 0.182747 0.872307
Si Si4 0.155137 0.790131 0.756007
Si Si5 0.612531 0.803203 0.472016
Si Si6 0.609439 0.196026 0.634056
O O1 0.139953 0.500000 0.744650
O O2 0.143910 0.616076 0.829451
O O3 0.142193 0.633193 0.688258
O O4 0.000000 0.584803 0.755166
O O5 0.852315 0.871710 0.781728
O O6 0.862344 0.869477 0.919854
O O7 0.000000 0.915701 0.846255
O O8 0.860000 0.000000 0.852862
O O9 0.500000 0.159919 0.895689
O O10 0.592370 0.243708 0.810034
O O11 0.644748 0.227689 0.936576
O O12 0.250000 0.750000 0.770694
O O13 0.131558 0.770740 0.674701
O O14 0.500000 0.800789 0.471591
O O15 0.643748 0.810431 0.553503
O O16 0.500000 0.189637 0.630917
#
# Coordination Sequence:
#
# PCOD9368208 Si02
#       6
#    16  16  16  16  16  16
#     4   8  13  21  36  58  81 105 133 167 208 254
#     4   9  17  31  52  74  94 118 152 197 242 278
#     4   8  14  27  44  60  81 111 147 184 222 267
#     4  10  18  29  44  66  91 121 158 189 224 272
#     4   8  14  25  44  68  88 110 145 188 231 271
#     4   9  16  27  43  63  89 118 147 183 227 277
#
# _framework density 18.943801000000001
#
# number of rings (size 3 to 8) (size 9 to 14) (size 15 to 20)
#    0.000    3.333    0.000    3.500    0.000    0.667 
#    0.000   10.000    0.000    1.000    0.000    4.667 
#    0.000    0.000    0.000    0.000    0.000    0.000 
#
# Total GULP energy -133605.685279 kJ/mol
# GULP energy per Si atom -5566.903553 kJ/mol
# Density = 1.890068 g / cm^3
# Si number density = 18.943801 Si / 1000 Ang^3
#
#
#
# Elastic Constant Matrix: (Units=GPa)
#
#
# Indices 1 2 3 4 5 6 
#
# 1 35.2649 3.5289 5.9869 0.0000 0.0000 0.0000
# 2 3.5289 142.1134 102.0410 0.0000 0.0000 0.0000
# 3 5.9869 102.0410 136.6111 0.0000 0.0000 0.0000
# 4 0.0000 0.0000 0.0000 19.3336 0.0000 0.0000
# 5 0.0000 0.0000 0.0000 0.0000 6.0043 0.0000
# 6 0.0000 0.0000 0.0000 0.0000 0.0000 6.6418
#
#
#
# Elastic Compliance Matrix: (Units=1/GPa)
#
#
# Indices 1 2 3 4 5 6 
#
# 1 0.028580 0.000409 -0.001558 0.000000 0.000000 0.000000
# 2 0.000409 0.015182 -0.011358 0.000000 0.000000 0.000000
# 3 -0.001558 -0.011358 0.015872 0.000000 0.000000 0.000000
# 4 0.000000 0.000000 0.000000 0.051723 0.000000 0.000000
# 5 0.000000 0.000000 0.000000 0.000000 0.166547 0.000000
# 6 0.000000 0.000000 0.000000 0.000000 0.000000 0.150561
#
#
# Mechanical properties :
#
#
# Convention : Reuss Voigt Hill
#
# Bulk Modulus (GPa) = 28.88471 59.67809 44.28140
# Shear Modulus (GPa) = 10.75224 19.89146 15.32185
#
# Velocity S-wave (km/s) = 2.38499 3.24392 2.84704
# Velocity P-wave (km/s) = 4.78173 6.75291 5.85093
#
# Compressibility (1/GPa) = 0.03462039
#
# Stress axis : x y z
#
# Youngs Moduli (GPa) = 34.98906 65.86899 63.00416
#
# Poissons Ratio (x) = -0.02694 0.09816
# Poissons Ratio (y) = -0.01431 0.71559
# Poissons Ratio (z) = 0.05451 0.74813
#
# Static dielectric constant tensor:
#      x y z
#    x 1.735840 0.000000 0.000000 
#    y 0.000000 1.665260 0.000000 
#    z 0.000000 0.000000 1.669390 
# 
# From -- ./inp_files/20796.got.cif
#   From: 2010.05.17/outbox.cif.g08.bks.cpg/sg42_11_cif.got.tgz:20796.got - 2010.06.03 19:03:34.
