data_PCOD9368008
_publ_section_title
;
Structure prediction by ZEFSAII (Michael W. Deem and Ramdas Pophale) SiO2 
 PCOD9368008
Probable space group: A B A 2
;
_chemical_formula_sum "Si O2"
_cell_formula_units_Z 32
_cell_length_a 8.207829
_cell_length_b 8.819669
_cell_length_c 16.500017
_cell_angle_alpha 90.000000
_cell_angle_beta 90.000000
_cell_angle_gamma 90.000000
_cell_volume 1194.441758
_symmetry_space_group_name_H-M "A B A 2"
_symmetry_group_IT_number 41
_symmetry_cell_setting 'orthorhombic'
loop_
_space_group_symop_operation_xyz
x,y,z
-x,-y,z
1/2-x,y,1/2+z
1/2+x,-y,1/2+z
x,1/2+y,1/2+z
-x,1/2-y,1/2+z
1/2-x,1/2+y,z
1/2+x,1/2-y,z
loop_
_atom_site_type_symbol
_atom_site_label
_atom_site_fract_x
_atom_site_fract_y
_atom_site_fract_z
Si Si1 0.856194 0.099393 0.127660
Si Si2 0.612022 0.637778 0.760021
Si Si3 0.105751 0.631322 0.506019
Si Si4 0.397931 0.860146 0.871283
O O1 0.772090 0.680233 0.184073
O O2 0.784638 0.971897 0.065754
O O3 0.968165 0.199412 0.067485
O O4 0.000000 0.000000 0.172199
O O5 0.500000 0.500000 0.733161
O O6 0.507221 0.762956 0.807574
O O7 0.744197 0.576759 0.823519
O O8 0.000000 0.500000 0.461185
O O9 0.164265 0.750498 0.442292
O O10 0.500000 0.000000 0.904085
#
# Coordination Sequence:
#
# PCOD9368008 Si02
#       4
#     8   8   8   8
#     4   6  17  43  86 109 152 203 275 328 391 484
#     4  12  25  46  84 113 161 217 273 343 406 495
#     4   6  17  43  84 108 162 200 274 325 398 485
#     4  12  25  44  80 122 164 206 276 340 417 490
#
# _framework density 26.790759999999999
#
# number of rings (size 3 to 8) (size 9 to 14) (size 15 to 20)
#    3.000    0.000    0.000    3.000    0.000    0.000 
#    0.000    2.500   16.500    1.500    0.000    0.000 
#    0.000    0.000    0.000    0.000    0.000    0.000 
#
# Total GULP energy -89226.993208 kJ/mol
# GULP energy per Si atom -5576.687076 kJ/mol
# Density = 2.672978 g / cm^3
# Si number density = 26.790760 Si / 1000 Ang^3
#
#
#
# Elastic Constant Matrix: (Units=GPa)
#
#
# Indices 1 2 3 4 5 6 
#
# 1 74.2359 9.8784 41.0795 0.0000 0.0000 0.0000
# 2 9.8784 54.3122 29.2405 0.0000 0.0000 0.0000
# 3 41.0795 29.2405 116.9825 0.0000 0.0000 0.0000
# 4 0.0000 0.0000 0.0000 34.5741 0.0000 0.0000
# 5 0.0000 0.0000 0.0000 0.0000 36.9292 0.0000
# 6 0.0000 0.0000 0.0000 0.0000 0.0000 46.4984
#
#
#
# Elastic Compliance Matrix: (Units=1/GPa)
#
#
# Indices 1 2 3 4 5 6 
#
# 1 0.016720 0.000139 -0.005906 0.000000 0.000000 0.000000
# 2 0.000139 0.021276 -0.005367 0.000000 0.000000 0.000000
# 3 -0.005906 -0.005367 0.011964 0.000000 0.000000 0.000000
# 4 0.000000 0.000000 0.000000 0.028923 0.000000 0.000000
# 5 0.000000 0.000000 0.000000 0.000000 0.027079 0.000000
# 6 0.000000 0.000000 0.000000 0.000000 0.000000 0.021506
#
#
# Mechanical properties :
#
#
# Convention : Reuss Voigt Hill
#
# Bulk Modulus (GPa) = 36.11194 45.10303 40.60749
# Shear Modulus (GPa) = 31.45291 34.62251 33.03771
#
# Velocity S-wave (km/s) = 3.43012 3.59880 3.51547
# Velocity P-wave (km/s) = 5.40334 5.84297 5.62745
#
# Compressibility (1/GPa) = 0.02769167
#
# Stress axis : x y z
#
# Youngs Moduli (GPa) = 59.80728 47.00086 83.58588
#
# Poissons Ratio (x) = -0.00652 0.49367
# Poissons Ratio (y) = -0.00829 0.44859
# Poissons Ratio (z) = 0.35323 0.25224
#
# Static dielectric constant tensor:
#      x y z
#    x 2.101740 0.000000 0.000000 
#    y 0.000000 2.027100 0.000000 
#    z 0.000000 0.000000 2.142210 
# 
# From -- ./inp_files/11055.got.cif
#   From: 2010.05.17/outbox.cif.g08.bks.cpg/sg41_6_cif.got.tgz:11055.got - 2010.06.03 18:54:24.
