data_PCOD9368653
_publ_section_title
;
Structure prediction by ZEFSAII (Michael W. Deem and Ramdas Pophale) SiO2 
 PCOD9368653
Probable space group: F M M 2
;
_chemical_formula_sum "Si O2"
_cell_formula_units_Z 116
_cell_length_a 7.949779
_cell_length_b 30.438264
_cell_length_c 25.802690
_cell_angle_alpha 90.000000
_cell_angle_beta 90.000000
_cell_angle_gamma 90.000000
_cell_volume 6243.669696
_symmetry_space_group_name_H-M "F M M 2"
_symmetry_group_IT_number 42
_symmetry_cell_setting 'orthorhombic'
loop_
_space_group_symop_operation_xyz
x,y,z
-x,-y,z
-x,y,z
x,-y,z
x,1/2+y,1/2+z
-x,1/2-y,1/2+z
-x,1/2+y,1/2+z
x,1/2-y,1/2+z
1/2+x,y,1/2+z
1/2-x,-y,1/2+z
1/2-x,y,1/2+z
1/2+x,-y,1/2+z
1/2+x,1/2+y,z
1/2-x,1/2-y,z
1/2-x,1/2+y,z
1/2+x,1/2-y,z
loop_
_atom_site_type_symbol
_atom_site_label
_atom_site_fract_x
_atom_site_fract_y
_atom_site_fract_z
Si Si1 0.797754 0.297799 0.980550
Si Si2 0.500000 0.500000 0.225983
Si Si3 0.700275 0.297213 0.599763
Si Si4 0.800395 0.885042 0.156046
Si Si5 0.299457 0.050682 0.365463
Si Si6 0.299442 0.050212 0.565899
Si Si7 0.305191 0.432687 0.748095
Si Si8 0.197445 0.104873 0.464910
O O1 0.750000 0.250000 0.958005
O O2 0.738524 0.344899 0.958402
O O3 0.000000 0.298270 0.980004
O O4 0.736341 0.298589 0.040292
O O5 0.652487 0.462918 0.227846
O O6 0.500000 0.300718 0.597795
O O7 0.750000 0.250000 0.621844
O O8 0.769001 0.338106 0.630799
O O9 0.735253 0.922143 0.115243
O O10 0.710217 0.890920 0.210942
O O11 0.000000 0.890148 0.161557
O O12 0.500000 0.049206 0.373918
O O13 0.270441 0.072040 0.309317
O O14 0.223408 0.077255 0.412845
O O15 0.237938 0.000000 0.363079
O O16 0.500000 0.046687 0.573151
O O17 0.271983 0.078223 0.513654
O O18 0.233351 0.000000 0.562379
O O19 0.500000 0.449194 0.744546
O O20 0.000000 0.107863 0.476371
#
# Coordination Sequence:
#
# PCOD9368653 Si02
#       8
#    16   4  16  16  16  16  16  16
#     4   9  19  34  53  80 111 144 188 236 288 347
#     4  12  22  40  64  86 120 152 206 252 296 348
#     4  10  19  35  57  82 114 149 191 241 293 354
#     4  11  22  36  59  85 118 155 196 243 298 353
#     4  10  22  39  58  81 112 150 198 242 285 338
#     4  10  22  36  51  75 114 155 190 227 280 347
#     4  11  24  40  61  88 118 157 202 252 298 344
#     4  11  22  35  54  82 113 147 189 237 289 343
#
# _framework density 18.578817999999998
#
# number of rings (size 3 to 8) (size 9 to 14) (size 15 to 20)
#    0.000    1.655    2.759    1.862    1.931    4.414 
#    0.000    0.000    0.000    0.828    0.000    1.931 
#    0.000    0.000    0.000    0.000    0.000    0.000 
#
# Total GULP energy -161461.100556 kJ/mol
# GULP energy per Si atom -5567.624157 kJ/mol
# Density = 1.853653 g / cm^3
# Si number density = 18.578818 Si / 1000 Ang^3
#
#
#
# Elastic Constant Matrix: (Units=GPa)
#
#
# Indices 1 2 3 4 5 6 
#
# 1 53.6739 12.3108 6.7417 0.0000 0.0000 0.0000
# 2 12.3108 123.6140 58.9588 0.0000 0.0000 0.0000
# 3 6.7417 58.9588 82.4029 0.0000 0.0000 0.0000
# 4 0.0000 0.0000 0.0000 19.2593 0.0000 0.0000
# 5 0.0000 0.0000 0.0000 0.0000 13.5960 0.0000
# 6 0.0000 0.0000 0.0000 0.0000 0.0000 27.9784
#
#
#
# Elastic Compliance Matrix: (Units=1/GPa)
#
#
# Indices 1 2 3 4 5 6 
#
# 1 0.019072 -0.001754 -0.000306 0.000000 0.000000 0.000000
# 2 -0.001754 0.012442 -0.008759 0.000000 0.000000 0.000000
# 3 -0.000306 -0.008759 0.018427 0.000000 0.000000 0.000000
# 4 0.000000 0.000000 0.000000 0.051923 0.000000 0.000000
# 5 0.000000 0.000000 0.000000 0.000000 0.073551 0.000000
# 6 0.000000 0.000000 0.000000 0.000000 0.000000 0.035742
#
#
# Mechanical properties :
#
#
# Convention : Reuss Voigt Hill
#
# Bulk Modulus (GPa) = 35.32937 46.19037 40.75987
# Shear Modulus (GPa) = 20.64179 24.27871 22.46025
#
# Velocity S-wave (km/s) = 3.33684 3.61888 3.48072
# Velocity P-wave (km/s) = 5.82265 6.50981 6.17579
#
# Compressibility (1/GPa) = 0.02830506
#
# Stress axis : x y z
#
# Youngs Moduli (GPa) = 52.43389 80.37409 54.26757
#
# Poissons Ratio (x) = 0.14094 0.01659
# Poissons Ratio (y) = 0.09195 0.47531
# Poissons Ratio (z) = 0.01603 0.70396
#
# Static dielectric constant tensor:
#      x y z
#    x 1.665000 0.000000 0.000000 
#    y 0.000000 1.658380 0.000000 
#    z 0.000000 0.000000 1.633190 
# 
# From -- ./inp_files/28482.got.cif
#   From: 2010.05.17/outbox.cif.g08.bks.cpg/sg42_15_cif.got.tgz:28482.got - 2010.06.03 19:03:34.
