data_PCOD9368136
_publ_section_title
;
Structure prediction by ZEFSAII (Michael W. Deem and Ramdas Pophale) SiO2 
 PCOD9368136
Probable space group: F M M 2
;
_chemical_formula_sum "Si O2"
_cell_formula_units_Z 96
_cell_length_a 19.413885
_cell_length_b 8.623059
_cell_length_c 32.584573
_cell_angle_alpha 90.000000
_cell_angle_beta 90.000000
_cell_angle_gamma 90.000000
_cell_volume 5454.888081
_symmetry_space_group_name_H-M "F M M 2"
_symmetry_group_IT_number 42
_symmetry_cell_setting 'orthorhombic'
loop_
_space_group_symop_operation_xyz
x,y,z
-x,-y,z
-x,y,z
x,-y,z
x,1/2+y,1/2+z
-x,1/2-y,1/2+z
-x,1/2+y,1/2+z
x,1/2-y,1/2+z
1/2+x,y,1/2+z
1/2-x,-y,1/2+z
1/2-x,y,1/2+z
1/2+x,-y,1/2+z
1/2+x,1/2+y,z
1/2-x,1/2-y,z
1/2-x,1/2+y,z
1/2+x,1/2-y,z
loop_
_atom_site_type_symbol
_atom_site_label
_atom_site_fract_x
_atom_site_fract_y
_atom_site_fract_z
Si Si1 0.420832 0.810923 0.112340
Si Si2 0.328270 0.314175 0.446918
Si Si3 0.171647 0.684591 0.363004
Si Si4 0.172633 0.683947 0.777717
Si Si5 0.672564 0.187295 0.037198
Si Si6 0.918227 0.313968 0.204790
O O1 0.500000 0.762537 0.106344
O O2 0.372973 0.757122 0.075284
O O3 0.398658 0.765497 0.158320
O O4 0.420518 0.000000 0.112000
O O5 0.326476 0.500000 0.443081
O O6 0.250000 0.250000 0.448181
O O7 0.360761 0.244669 0.405579
O O8 0.356958 0.272130 0.491929
O O9 0.173700 0.500000 0.363060
O O10 0.250000 0.750000 0.362949
O O11 0.142285 0.745993 0.320077
O O12 0.177226 0.500000 0.781975
O O13 0.250000 0.750000 0.772216
O O14 0.126213 0.731404 0.739310
O O15 0.750000 0.250000 0.040473
O O16 0.675475 0.000000 0.038531
O O17 0.908303 0.500000 0.208173
O O18 0.000000 0.284294 0.209515
#
# Coordination Sequence:
#
# PCOD9368136 Si02
#       6
#    16  16  16  16  16  16
#     4   8  15  30  51  71  92 123 161 195 230 279
#     4   9  15  24  39  62  92 123 154 190 232 278
#     4  10  17  27  44  66  93 124 158 194 236 285
#     4  11  21  33  50  73 101 128 160 202 245 289
#     4   9  17  28  45  70  97 124 156 194 235 276
#     4   9  18  34  54  73  96 128 164 200 242 293
#
# _framework density 17.598894000000001
#
# number of rings (size 3 to 8) (size 9 to 14) (size 15 to 20)
#    0.000    2.667    0.000    6.500    0.000    1.667 
#    0.000    2.500    0.000    2.500    0.000    2.333 
#    0.000    0.000    0.000    0.000    0.000    0.000 
#
# Total GULP energy -133696.415102 kJ/mol
# GULP energy per Si atom -5570.683963 kJ/mol
# Density = 1.755884 g / cm^3
# Si number density = 17.598894 Si / 1000 Ang^3
#
#
#
# Elastic Constant Matrix: (Units=GPa)
#
#
# Indices 1 2 3 4 5 6 
#
# 1 30.7646 22.5462 62.0921 0.0000 0.0000 0.0000
# 2 22.5462 82.4592 61.1025 0.0000 0.0000 0.0000
# 3 62.0921 61.1025 211.6683 0.0000 0.0000 0.0000
# 4 0.0000 0.0000 0.0000 47.6386 0.0000 0.0000
# 5 0.0000 0.0000 0.0000 0.0000 -12.6540 0.0000
# 6 0.0000 0.0000 0.0000 0.0000 0.0000 12.8753
#
#
#
# Elastic Compliance Matrix: (Units=1/GPa)
#
#
# Indices 1 2 3 4 5 6 
#
# 1 0.081829 -0.005835 -0.022320 0.000000 0.000000 0.000000
# 2 -0.005835 0.015843 -0.002862 0.000000 0.000000 0.000000
# 3 -0.022320 -0.002862 0.012098 0.000000 0.000000 0.000000
# 4 0.000000 0.000000 0.000000 0.020991 0.000000 0.000000
# 5 0.000000 0.000000 0.000000 0.000000 -0.079026 0.000000
# 6 0.000000 0.000000 0.000000 0.000000 0.000000 0.077668
#
#
# Mechanical properties :
#
#
# Convention : Reuss Voigt Hill
#
# Bulk Modulus (GPa) = 20.94806 68.48597 44.71701
# Shear Modulus (GPa) = 24.11399 21.51540 22.81470
#
# Velocity S-wave (km/s) = 3.70564 3.50028 3.60442
# Velocity P-wave (km/s) = 5.49890 7.43877 6.54115
#
# Compressibility (1/GPa) = 0.04773712
#
# Stress axis : x y z
#
# Youngs Moduli (GPa) = 12.22062 63.11852 82.65857
#
# Poissons Ratio (x) = 0.36828 1.84493
# Poissons Ratio (y) = 0.07130 0.23656
# Poissons Ratio (z) = 0.27276 0.18064
#
# Static dielectric constant tensor:
#      x y z
#    x 1.569210 0.000000 0.000000 
#    y 0.000000 1.590060 0.000000 
#    z 0.000000 0.000000 1.663040 
# 
# From -- ./inp_files/33180.got.cif
#   From: 2010.05.17/outbox.cif.g08.bks.cpg/sg42_17_cif.got.tgz:33180.got - 2010.06.03 19:03:34.
