data_PCOD9368269
_publ_section_title
;
Structure prediction by ZEFSAII (Michael W. Deem and Ramdas Pophale) SiO2 
 PCOD9368269
Probable space group: F M M 2
;
_chemical_formula_sum "Si O2"
_cell_formula_units_Z 128
_cell_length_a 17.953231
_cell_length_b 24.967319
_cell_length_c 15.953068
_cell_angle_alpha 90.000000
_cell_angle_beta 90.000000
_cell_angle_gamma 90.000000
_cell_volume 7150.867738
_symmetry_space_group_name_H-M "F M M 2"
_symmetry_group_IT_number 42
_symmetry_cell_setting 'orthorhombic'
loop_
_space_group_symop_operation_xyz
x,y,z
-x,-y,z
-x,y,z
x,-y,z
x,1/2+y,1/2+z
-x,1/2-y,1/2+z
-x,1/2+y,1/2+z
x,1/2-y,1/2+z
1/2+x,y,1/2+z
1/2-x,-y,1/2+z
1/2-x,y,1/2+z
1/2+x,-y,1/2+z
1/2+x,1/2+y,z
1/2-x,1/2-y,z
1/2-x,1/2+y,z
1/2+x,1/2-y,z
loop_
_atom_site_type_symbol
_atom_site_label
_atom_site_fract_x
_atom_site_fract_y
_atom_site_fract_z
Si Si1 0.584032 0.636249 0.016320
Si Si2 0.731077 0.874505 0.850358
Si Si3 0.587846 0.691815 0.318898
Si Si4 0.415354 0.654763 0.668459
Si Si5 0.283109 0.438362 0.012892
Si Si6 0.701861 0.062634 0.191505
Si Si7 0.910277 0.767700 0.129061
Si Si8 0.623190 0.192064 0.351298
O O1 0.500000 0.627459 0.045651
O O2 0.617893 0.686953 0.066349
O O3 0.634188 0.584483 0.023503
O O4 0.586456 0.654944 0.920792
O O5 0.646972 0.853710 0.841690
O O6 0.744722 0.903946 0.939011
O O7 0.755119 0.912219 0.771811
O O8 0.789896 0.824776 0.846656
O O9 0.500000 0.678896 0.328445
O O10 0.602101 0.708955 0.222088
O O11 0.607302 0.745980 0.369630
O O12 0.500000 0.644873 0.641215
O O13 0.368513 0.600846 0.673245
O O14 0.382076 0.706608 0.619225
O O15 0.413873 0.677718 0.762935
O O16 0.282150 0.500000 0.986855
O O17 0.247073 0.434077 0.104654
O O18 0.684355 0.000000 0.207458
O O19 0.000000 0.763458 0.118077
#
# Coordination Sequence:
#
# PCOD9368269 Si02
#       8
#    16  16  16  16  16  16  16  16
#     4  10  18  31  53  78 102 129 165 209 262 320
#     4  10  20  35  55  76 101 138 175 211 259 314
#     4  10  18  31  51  75 105 138 173 211 252 304
#     4   9  17  32  52  75 104 136 171 209 255 311
#     4  10  22  38  53  73 102 134 173 220 263 306
#     4  10  21  37  55  73  99 138 178 218 263 305
#     4   8  16  29  48  76 107 133 157 201 261 311
#     4   9  18  31  49  76 108 136 162 202 261 321
#
# _framework density 17.899926000000001
#
# number of rings (size 3 to 8) (size 9 to 14) (size 15 to 20)
#    0.000    2.500    0.000    3.375    0.000    1.500 
#    0.000    5.000    0.000    7.500    0.000    0.000 
#    0.000    0.000    0.000    0.000    0.000    0.000 
#
# Total GULP energy -178274.035694 kJ/mol
# GULP energy per Si atom -5571.063615 kJ/mol
# Density = 1.785918 g / cm^3
# Si number density = 17.899926 Si / 1000 Ang^3
#
#
#
# Elastic Constant Matrix: (Units=GPa)
#
#
# Indices 1 2 3 4 5 6 
#
# 1 93.2561 58.9027 15.3212 0.0000 0.0000 0.0000
# 2 58.9027 83.3615 15.6826 0.0000 0.0000 0.0000
# 3 15.3212 15.6826 37.8902 0.0000 0.0000 0.0000
# 4 0.0000 0.0000 0.0000 23.9143 0.0000 0.0000
# 5 0.0000 0.0000 0.0000 0.0000 13.4807 0.0000
# 6 0.0000 0.0000 0.0000 0.0000 0.0000 9.8822
#
#
#
# Elastic Compliance Matrix: (Units=1/GPa)
#
#
# Indices 1 2 3 4 5 6 
#
# 1 0.019561 -0.013375 -0.002374 0.000000 0.000000 0.000000
# 2 -0.013375 0.022154 -0.003761 0.000000 0.000000 0.000000
# 3 -0.002374 -0.003761 0.028909 0.000000 0.000000 0.000000
# 4 0.000000 0.000000 0.000000 0.041816 0.000000 0.000000
# 5 0.000000 0.000000 0.000000 0.000000 0.074180 0.000000
# 6 0.000000 0.000000 0.000000 0.000000 0.000000 0.101192
#
#
# Mechanical properties :
#
#
# Convention : Reuss Voigt Hill
#
# Bulk Modulus (GPa) = 31.64178 43.81342 37.72760
# Shear Modulus (GPa) = 14.82062 17.76221 16.29142
#
# Velocity S-wave (km/s) = 2.88057 3.15351 3.02012
# Velocity P-wave (km/s) = 5.36461 6.14732 5.76925
#
# Compressibility (1/GPa) = 0.03160378
#
# Stress axis : x y z
#
# Youngs Moduli (GPa) = 51.12131 45.13767 34.59173
#
# Poissons Ratio (x) = 0.60373 0.08211
# Poissons Ratio (y) = 0.68376 0.13011
# Poissons Ratio (z) = 0.12135 0.16977
#
# Static dielectric constant tensor:
#      x y z
#    x 1.643270 0.000000 0.000000 
#    y 0.000000 1.620190 0.000000 
#    z 0.000000 0.000000 1.628010 
# 
# From -- ./inp_files/21217.got.cif
#   From: 2010.05.17/outbox.cif.g08.bks.cpg/sg42_11_cif.got.tgz:21217.got - 2010.06.03 19:03:34.
