data_PCOD9368448
_publ_section_title
;
Structure prediction by ZEFSAII (Michael W. Deem and Ramdas Pophale) SiO2 
 PCOD9368448
Probable space group: F M M 2
;
_chemical_formula_sum "Si O2"
_cell_formula_units_Z 112
_cell_length_a 13.715609
_cell_length_b 29.473871
_cell_length_c 15.439939
_cell_angle_alpha 90.000000
_cell_angle_beta 90.000000
_cell_angle_gamma 90.000000
_cell_volume 6241.627616
_symmetry_space_group_name_H-M "F M M 2"
_symmetry_group_IT_number 42
_symmetry_cell_setting 'orthorhombic'
loop_
_space_group_symop_operation_xyz
x,y,z
-x,-y,z
-x,y,z
x,-y,z
x,1/2+y,1/2+z
-x,1/2-y,1/2+z
-x,1/2+y,1/2+z
x,1/2-y,1/2+z
1/2+x,y,1/2+z
1/2-x,-y,1/2+z
1/2-x,y,1/2+z
1/2+x,-y,1/2+z
1/2+x,1/2+y,z
1/2-x,1/2-y,z
1/2-x,1/2+y,z
1/2+x,1/2-y,z
loop_
_atom_site_type_symbol
_atom_site_label
_atom_site_fract_x
_atom_site_fract_y
_atom_site_fract_z
Si Si1 0.284513 0.139052 0.313320
Si Si2 0.611850 0.448699 0.808154
Si Si3 0.381753 0.145572 0.125145
Si Si4 0.116084 0.203516 0.282420
Si Si5 0.114068 0.950903 0.597559
Si Si6 0.116557 0.216832 0.919590
Si Si7 0.382252 0.247375 0.103594
O O1 0.308411 0.087467 0.338653
O O2 0.343043 0.145034 0.223164
O O3 0.176006 0.157416 0.296554
O O4 0.330911 0.173601 0.380830
O O5 0.500000 0.434580 0.829514
O O6 0.626910 0.500000 0.839878
O O7 0.616056 0.450922 0.702942
O O8 0.500000 0.143340 0.126525
O O9 0.346525 0.099625 0.076589
O O10 0.352580 0.194980 0.091673
O O11 0.136273 0.239116 0.359745
O O12 0.147256 0.228452 0.193012
O O13 0.000000 0.195602 0.279610
O O14 0.000000 0.951417 0.571730
O O15 0.156646 0.000000 0.569510
O O16 0.000000 0.209885 0.915341
O O17 0.145180 0.225751 0.018044
O O18 0.500000 0.246324 0.107472
#
# Coordination Sequence:
#
# PCOD9368448 Si02
#       7
#    16  16  16  16  16  16  16
#     4  11  18  29  48  74  96 133 166 199 253 304
#     4   8  14  25  45  75 105 125 150 200 260 313
#     4   9  15  25  43  66  95 127 155 192 247 304
#     4  10  21  36  47  65  99 136 176 213 246 288
#     4   7  10  17  32  58  90 119 145 178 229 293
#     4  10  19  32  49  71  99 131 167 209 256 306
#     4   9  18  32  48  66  97 135 167 207 252 297
#
# _framework density 17.944037999999999
#
# number of rings (size 3 to 8) (size 9 to 14) (size 15 to 20)
#    0.000    2.857    1.429    3.429    0.000    0.000 
#    5.143    0.000    0.000    0.429    0.000    2.000 
#    0.000    6.857    0.000    0.000    0.000    0.857 
#
# Total GULP energy -155932.462916 kJ/mol
# GULP energy per Si atom -5569.016533 kJ/mol
# Density = 1.790320 g / cm^3
# Si number density = 17.944038 Si / 1000 Ang^3
#
#
#
# Elastic Constant Matrix: (Units=GPa)
#
#
# Indices 1 2 3 4 5 6 
#
# 1 77.9373 51.5446 13.9298 0.0000 0.0000 0.0000
# 2 51.5446 125.8853 11.7668 0.0000 0.0000 0.0000
# 3 13.9298 11.7668 41.1757 0.0000 0.0000 0.0000
# 4 0.0000 0.0000 0.0000 12.3584 0.0000 0.0000
# 5 0.0000 0.0000 0.0000 0.0000 -1.7015 0.0000
# 6 0.0000 0.0000 0.0000 0.0000 0.0000 25.5363
#
#
#
# Elastic Compliance Matrix: (Units=1/GPa)
#
#
# Indices 1 2 3 4 5 6 
#
# 1 0.018261 -0.007089 -0.004152 0.000000 0.000000 0.000000
# 2 -0.007089 0.010914 -0.000721 0.000000 0.000000 0.000000
# 3 -0.004152 -0.000721 0.025897 0.000000 0.000000 0.000000
# 4 0.000000 0.000000 0.000000 0.080916 0.000000 0.000000
# 5 0.000000 0.000000 0.000000 0.000000 -0.587704 0.000000
# 6 0.000000 0.000000 0.000000 0.000000 0.000000 0.039160
#
#
# Mechanical properties :
#
#
# Convention : Reuss Voigt Hill
#
# Bulk Modulus (GPa) = 32.10430 44.38675 38.24553
# Shear Modulus (GPa) = -13.21879 18.42244 2.60183
#
# Velocity S-wave (km/s) = -2.71711 3.20763 1.20545
# Velocity P-wave (km/s) = 2.84370 6.20552 4.82675
#
# Compressibility (1/GPa) = 0.03114847
#
# Stress axis : x y z
#
# Youngs Moduli (GPa) = 54.76028 91.62712 38.61492
#
# Poissons Ratio (x) = 0.64956 0.16033
# Poissons Ratio (y) = 0.38820 0.02782
# Poissons Ratio (z) = 0.22736 0.06602
#
# Static dielectric constant tensor:
#      x y z
#    x 1.636410 0.000000 0.000000 
#    y 0.000000 1.677800 0.000000 
#    z 0.000000 0.000000 1.605990 
# 
# From -- ./inp_files/14377.got.cif
#   From: 2010.05.17/outbox.cif.g08.bks.cpg/sg42_8_cif.got.tgz:14377.got - 2010.06.03 19:03:34.
