data_PCOD9368027
_publ_section_title
;
Structure prediction by ZEFSAII (Michael W. Deem and Ramdas Pophale) SiO2 
 PCOD9368027
Probable space group: A B A 2
;
_chemical_formula_sum "Si O2"
_cell_formula_units_Z 28
_cell_length_a 10.777079
_cell_length_b 12.663695
_cell_length_c 8.374552
_cell_angle_alpha 90.000000
_cell_angle_beta 90.000000
_cell_angle_gamma 90.000000
_cell_volume 1142.939105
_symmetry_space_group_name_H-M "A B A 2"
_symmetry_group_IT_number 41
_symmetry_cell_setting 'orthorhombic'
loop_
_space_group_symop_operation_xyz
x,y,z
-x,-y,z
1/2-x,y,1/2+z
1/2+x,-y,1/2+z
x,1/2+y,1/2+z
-x,1/2-y,1/2+z
1/2-x,1/2+y,z
1/2+x,1/2-y,z
loop_
_atom_site_type_symbol
_atom_site_label
_atom_site_fract_x
_atom_site_fract_y
_atom_site_fract_z
Si Si1 0.122010 0.654609 0.241160
Si Si2 0.575803 0.654519 0.472550
Si Si3 0.215903 0.023343 0.019264
Si Si4 0.000000 0.000000 0.246026
O O1 0.128582 0.750704 0.366291
O O2 0.142414 0.555134 0.359377
O O3 0.226217 0.626605 0.108344
O O4 0.995451 0.671245 0.139512
O O5 0.679617 0.564765 0.494185
O O6 0.473788 0.599543 0.357444
O O7 0.115510 0.973940 0.137287
#
# Coordination Sequence:
#
# PCOD9368027 Si02
#       4
#     8   8   8   4
#     4  12  27  52  82 120 163 214 276 329 424 483
#     4  12  27  53  83 118 167 216 271 344 406 497
#     4  12  27  50  81 117 165 212 268 344 400 491
#     4  12  26  50  76 118 160 210 266 332 408 470
#
# _framework density 24.498242000000001
#
# number of rings (size 3 to 8) (size 9 to 14) (size 15 to 20)
#    0.000    0.000    5.714    1.714    8.000    0.000 
#    5.143    0.000    0.000    0.000    0.000    0.000 
#    0.000    0.000    0.000    0.000    0.000    0.000 
#
# Total GULP energy -78213.744982 kJ/mol
# GULP energy per Si atom -5586.696070 kJ/mol
# Density = 2.444248 g / cm^3
# Si number density = 24.498242 Si / 1000 Ang^3
#
#
#
# Elastic Constant Matrix: (Units=GPa)
#
#
# Indices 1 2 3 4 5 6 
#
# 1 95.0610 52.6264 66.0138 0.0000 0.0000 0.0000
# 2 52.6264 105.2009 72.3701 0.0000 0.0000 0.0000
# 3 66.0138 72.3701 179.9667 0.0000 0.0000 0.0000
# 4 0.0000 0.0000 0.0000 41.2878 0.0000 0.0000
# 5 0.0000 0.0000 0.0000 0.0000 57.1448 0.0000
# 6 0.0000 0.0000 0.0000 0.0000 0.0000 25.8792
#
#
#
# Elastic Compliance Matrix: (Units=1/GPa)
#
#
# Indices 1 2 3 4 5 6 
#
# 1 0.016153 -0.005536 -0.003699 0.000000 0.000000 0.000000
# 2 -0.005536 0.015038 -0.004017 0.000000 0.000000 0.000000
# 3 -0.003699 -0.004017 0.008529 0.000000 0.000000 0.000000
# 4 0.000000 0.000000 0.000000 0.024220 0.000000 0.000000
# 5 0.000000 0.000000 0.000000 0.000000 0.017499 0.000000
# 6 0.000000 0.000000 0.000000 0.000000 0.000000 0.038641
#
#
# Mechanical properties :
#
#
# Convention : Reuss Voigt Hill
#
# Bulk Modulus (GPa) = 75.66182 84.69436 80.17809
# Shear Modulus (GPa) = 33.11502 37.47689 35.29596
#
# Velocity S-wave (km/s) = 3.68058 3.91548 3.79985
# Velocity P-wave (km/s) = 7.00099 7.42213 7.21463
#
# Compressibility (1/GPa) = 0.01321671
#
# Stress axis : x y z
#
# Youngs Moduli (GPa) = 61.90822 66.49794 117.25235
#
# Poissons Ratio (x) = 0.36812 0.43371
# Poissons Ratio (y) = 0.34272 0.47096
# Poissons Ratio (z) = 0.22899 0.26710
#
# Static dielectric constant tensor:
#      x y z
#    x 1.938620 0.000000 0.000000 
#    y 0.000000 1.968320 0.000000 
#    z 0.000000 0.000000 1.976110 
# 
# From -- ./inp_files/1854.got.cif
#   From: 2010.05.17/outbox.cif.g08.bks.cpg/sg41_1_cif.got.tgz:1854.got - 2010.06.03 18:54:24.
