data_PCOD9368234
_publ_section_title
;
Structure prediction by ZEFSAII (Michael W. Deem and Ramdas Pophale) SiO2 
 PCOD9368234
Probable space group: F M M 2
;
_chemical_formula_sum "Si O2"
_cell_formula_units_Z 96
_cell_length_a 25.861960
_cell_length_b 8.682957
_cell_length_c 26.198308
_cell_angle_alpha 90.000000
_cell_angle_beta 90.000000
_cell_angle_gamma 90.000000
_cell_volume 5883.047157
_symmetry_space_group_name_H-M "F M M 2"
_symmetry_group_IT_number 42
_symmetry_cell_setting 'orthorhombic'
loop_
_space_group_symop_operation_xyz
x,y,z
-x,-y,z
-x,y,z
x,-y,z
x,1/2+y,1/2+z
-x,1/2-y,1/2+z
-x,1/2+y,1/2+z
x,1/2-y,1/2+z
1/2+x,y,1/2+z
1/2-x,-y,1/2+z
1/2-x,y,1/2+z
1/2+x,-y,1/2+z
1/2+x,1/2+y,z
1/2-x,1/2-y,z
1/2-x,1/2+y,z
1/2+x,1/2-y,z
loop_
_atom_site_type_symbol
_atom_site_label
_atom_site_fract_x
_atom_site_fract_y
_atom_site_fract_z
Si Si1 0.000000 0.323707 0.850531
Si Si2 0.612073 0.186812 0.857239
Si Si3 0.691947 0.685097 0.057086
Si Si4 0.308534 0.184139 0.163544
Si Si5 0.807902 0.184954 0.269422
Si Si6 0.000000 0.323971 0.974526
Si Si7 0.390070 0.184023 0.470510
O O1 0.055836 0.255003 0.837594
O O2 0.000000 0.500000 0.831472
O O3 0.000000 0.326653 0.912438
O O4 0.656739 0.227151 0.817570
O O5 0.620534 0.248370 0.914259
O O6 0.609108 0.000000 0.860356
O O7 0.694975 0.500000 0.060952
O O8 0.750000 0.750000 0.049742
O O9 0.669870 0.752174 0.110292
O O10 0.654571 0.727639 0.010426
O O11 0.250000 0.250000 0.163769
O O12 0.330770 0.247443 0.216645
O O13 0.307698 0.000000 0.163490
O O14 0.750000 0.250000 0.275938
O O15 0.805318 0.000000 0.265239
O O16 0.946388 0.242578 0.988618
O O17 0.000000 0.500000 0.992277
O O18 0.391558 0.000000 0.466785
#
# Coordination Sequence:
#
# PCOD9368234 Si02
#       7
#     8  16  16  16  16   8  16
#     4   7  12  27  47  66  85 112 153 192 222 262
#     4   9  18  31  49  70  94 125 159 193 234 284
#     4  10  20  33  49  71  98 128 160 197 240 287
#     4  10  18  30  49  69  90 121 160 200 237 279
#     4  10  19  31  47  69  96 126 158 194 236 285
#     4   9  17  31  51  70  93 126 163 198 234 282
#     4  10  20  32  49  73 100 127 159 200 241 280
#
# _framework density 16.318075
#
# number of rings (size 3 to 8) (size 9 to 14) (size 15 to 20)
#    0.000    2.500    0.000    6.250    0.000    4.667 
#    0.000    3.333    0.000    1.000    0.000    5.833 
#    0.000    0.000    0.000    0.000    0.000    0.000 
#
# Total GULP energy -133687.042977 kJ/mol
# GULP energy per Si atom -5570.293457 kJ/mol
# Density = 1.628093 g / cm^3
# Si number density = 16.318075 Si / 1000 Ang^3
#
#
#
# Elastic Constant Matrix: (Units=GPa)
#
#
# Indices 1 2 3 4 5 6 
#
# 1 102.6550 36.7521 75.9747 0.0000 0.0000 0.0000
# 2 36.7521 62.5154 44.1830 0.0000 0.0000 -0.0001
# 3 75.9747 44.1830 124.5202 0.0000 0.0000 0.0000
# 4 0.0000 0.0000 0.0000 25.7994 0.0000 0.0000
# 5 0.0000 0.0000 0.0000 0.0000 -1.5665 0.0000
# 6 0.0000 -0.0001 0.0000 0.0000 0.0000 21.8864
#
#
#
# Elastic Compliance Matrix: (Units=1/GPa)
#
#
# Indices 1 2 3 4 5 6 
#
# 1 0.018433 -0.003854 -0.009879 0.000000 0.000000 0.000000
# 2 -0.003854 0.022156 -0.005510 0.000000 0.000000 0.000000
# 3 -0.009879 -0.005510 0.016013 0.000000 0.000000 0.000000
# 4 0.000000 0.000000 0.000000 0.038761 0.000000 0.000000
# 5 0.000000 0.000000 0.000000 0.000000 -0.638386 0.000000
# 6 0.000000 0.000000 0.000000 0.000000 0.000000 0.045690
#
#
# Mechanical properties :
#
#
# Convention : Reuss Voigt Hill
#
# Bulk Modulus (GPa) = 55.20012 67.05668 61.12840
# Shear Modulus (GPa) = -11.04220 18.07593 3.51687
#
# Velocity S-wave (km/s) = -2.60414 3.33186 1.46965
# Velocity P-wave (km/s) = 4.98588 7.48227 6.35781
#
# Compressibility (1/GPa) = 0.01811590
#
# Stress axis : x y z
#
# Youngs Moduli (GPa) = 54.25176 45.13425 62.44811
#
# Poissons Ratio (x) = 0.17397 0.61691
# Poissons Ratio (y) = 0.20911 0.34408
# Poissons Ratio (z) = 0.53594 0.24868
#
# Static dielectric constant tensor:
#      x y z
#    x 1.562960 0.000000 0.000000 
#    y 0.000000 1.555470 0.000000 
#    z 0.000000 0.000000 1.556680 
# 
# From -- ./inp_files/33195.got.cif
#   From: 2010.05.17/outbox.cif.g08.bks.cpg/sg42_17_cif.got.tgz:33195.got - 2010.06.03 19:03:34.
