data_PCOD9368012
_publ_section_title
;
Structure prediction by ZEFSAII (Michael W. Deem and Ramdas Pophale) SiO2 
 PCOD9368012
Probable space group: A B A 2
;
_chemical_formula_sum "Si O2"
_cell_formula_units_Z 32
_cell_length_a 28.608785
_cell_length_b 4.714583
_cell_length_c 9.139849
_cell_angle_alpha 90.000000
_cell_angle_beta 90.000000
_cell_angle_gamma 90.000000
_cell_volume 1232.769045
_symmetry_space_group_name_H-M "A B A 2"
_symmetry_group_IT_number 41
_symmetry_cell_setting 'orthorhombic'
loop_
_space_group_symop_operation_xyz
x,y,z
-x,-y,z
1/2-x,y,1/2+z
1/2+x,-y,1/2+z
x,1/2+y,1/2+z
-x,1/2-y,1/2+z
1/2-x,1/2+y,z
1/2+x,1/2-y,z
loop_
_atom_site_type_symbol
_atom_site_label
_atom_site_fract_x
_atom_site_fract_y
_atom_site_fract_z
Si Si1 0.903200 0.972408 0.724450
Si Si2 0.718350 0.630005 0.438627
Si Si3 0.340040 0.532823 0.173056
Si Si4 0.966799 0.739818 0.978533
O O1 0.876041 0.719405 0.641123
O O2 0.941641 0.105328 0.617900
O O3 0.867912 0.226893 0.764638
O O4 0.928016 0.842049 0.864883
O O5 0.734386 0.309084 0.463087
O O6 0.699068 0.616969 0.273923
O O7 0.680822 0.779974 0.541917
O O8 0.000000 0.500000 0.909751
O O9 0.000000 0.000000 0.019336
#
# Coordination Sequence:
#
# PCOD9368012 Si02
#       4
#     8   8   8   8
#     4  12  27  49  76 112 151 198 251 312 376 449
#     4  12  25  46  73 108 148 196 248 308 373 446
#     4  12  26  47  75 110 149 196 249 310 375 447
#     4  12  27  50  77 112 152 200 252 312 377 450
#
# _framework density 25.957823000000001
#
# number of rings (size 3 to 8) (size 9 to 14) (size 15 to 20)
#    0.000    0.000    0.000    9.750    0.000    6.000 
#    0.000    0.000    0.000    0.000    0.000    0.000 
#    0.000    0.000    0.000    0.000    0.000    0.000 
#
# Total GULP energy -89821.187113 kJ/mol
# GULP energy per Si atom -5613.824195 kJ/mol
# Density = 2.589874 g / cm^3
# Si number density = 25.957823 Si / 1000 Ang^3
#
#
#
# Elastic Constant Matrix: (Units=GPa)
#
#
# Indices 1 2 3 4 5 6 
#
# 1 83.2818 46.7797 23.6417 0.0000 0.0000 0.0000
# 2 46.7797 163.5738 29.2726 0.0000 0.0000 0.0000
# 3 23.6417 29.2726 96.5383 0.0000 0.0000 0.0000
# 4 0.0000 0.0000 0.0000 24.0103 0.0000 0.0000
# 5 0.0000 0.0000 0.0000 0.0000 13.4655 0.0000
# 6 0.0000 0.0000 0.0000 0.0000 0.0000 73.7501
#
#
#
# Elastic Compliance Matrix: (Units=1/GPa)
#
#
# Indices 1 2 3 4 5 6 
#
# 1 0.014848 -0.003802 -0.002483 0.000000 0.000000 0.000000
# 2 -0.003802 0.007438 -0.001324 0.000000 0.000000 0.000000
# 3 -0.002483 -0.001324 0.011368 0.000000 0.000000 0.000000
# 4 0.000000 0.000000 0.000000 0.041649 0.000000 0.000000
# 5 0.000000 0.000000 0.000000 0.000000 0.074264 0.000000
# 6 0.000000 0.000000 0.000000 0.000000 0.000000 0.013559
#
#
# Mechanical properties :
#
#
# Convention : Reuss Voigt Hill
#
# Bulk Modulus (GPa) = 54.24466 60.30909 57.27688
# Shear Modulus (GPa) = 27.10181 38.49186 32.79683
#
# Velocity S-wave (km/s) = 3.23471 3.85497 3.55838
# Velocity P-wave (km/s) = 5.90709 6.56493 6.24468
#
# Compressibility (1/GPa) = 0.01843499
#
# Stress axis : x y z
#
# Youngs Moduli (GPa) = 67.34952 134.45002 87.96409
#
# Poissons Ratio (x) = 0.51116 0.21845
# Poissons Ratio (y) = 0.25605 0.11648
# Poissons Ratio (z) = 0.16725 0.17804
#
# Static dielectric constant tensor:
#      x y z
#    x 2.061530 0.000000 0.000000 
#    y 0.000000 1.981860 0.000000 
#    z 0.000000 0.000000 2.013010 
# 
# From -- ./inp_files/3864.got.cif
#   From: 2010.05.17/outbox.cif.g08.bks.cpg/sg41_2_cif.got.tgz:3864.got - 2010.06.03 18:54:24.
