data_PCOD9368256
_publ_section_title
;
Structure prediction by ZEFSAII (Michael W. Deem and Ramdas Pophale) SiO2 
 PCOD9368256
Probable space group: F M M 2
;
_chemical_formula_sum "Si O2"
_cell_formula_units_Z 112
_cell_length_a 28.539683
_cell_length_b 14.190203
_cell_length_c 13.913692
_cell_angle_alpha 90.000000
_cell_angle_beta 90.000000
_cell_angle_gamma 90.000000
_cell_volume 5634.821185
_symmetry_space_group_name_H-M "F M M 2"
_symmetry_group_IT_number 42
_symmetry_cell_setting 'orthorhombic'
loop_
_space_group_symop_operation_xyz
x,y,z
-x,-y,z
-x,y,z
x,-y,z
x,1/2+y,1/2+z
-x,1/2-y,1/2+z
-x,1/2+y,1/2+z
x,1/2-y,1/2+z
1/2+x,y,1/2+z
1/2-x,-y,1/2+z
1/2-x,y,1/2+z
1/2+x,-y,1/2+z
1/2+x,1/2+y,z
1/2-x,1/2-y,z
1/2-x,1/2+y,z
1/2+x,1/2-y,z
loop_
_atom_site_type_symbol
_atom_site_label
_atom_site_fract_x
_atom_site_fract_y
_atom_site_fract_z
Si Si1 0.208276 0.821009 0.382050
Si Si2 0.111263 0.767121 0.875549
Si Si3 0.446371 0.111013 0.762245
Si Si4 0.554954 0.277898 0.062418
Si Si5 0.822830 0.400297 0.685562
Si Si6 0.365785 0.192933 0.166772
Si Si7 0.230643 0.857297 0.582801
O O1 0.250000 0.750000 0.350267
O O2 0.162919 0.759850 0.414103
O O3 0.190588 0.884305 0.295953
O O4 0.224955 0.880866 0.471777
O O5 0.086153 0.673927 0.831202
O O6 0.120662 0.826189 0.777719
O O7 0.079389 0.806831 0.961603
O O8 0.500000 0.128936 0.791847
O O9 0.443421 0.147618 0.651384
O O10 0.437621 0.000000 0.770062
O O11 0.500000 0.255309 0.047911
O O12 0.587812 0.191830 0.101162
O O13 0.847987 0.500000 0.669501
O O14 0.848621 0.303052 0.658941
O O15 0.773438 0.406054 0.633015
O O16 0.319825 0.136647 0.133734
O O17 0.250000 0.750000 0.582418
#
# Coordination Sequence:
#
# PCOD9368256 Si02
#       7
#    16  16  16  16  16  16  16
#     4  10  19  32  53  70  97 136 173 205 251 306
#     4  10  18  30  54  79 102 136 178 221 251 312
#     4   9  19  35  54  80 113 140 166 215 278 321
#     4  10  19  31  51  80 106 134 177 224 261 305
#     4  10  20  32  49  77 106 130 165 209 250 304
#     4   9  18  33  52  72 102 140 168 206 259 308
#     4   9  17  33  52  71  97 134 170 199 248 306
#
# _framework density 19.876408000000001
#
# number of rings (size 3 to 8) (size 9 to 14) (size 15 to 20)
#    0.000    2.429    1.429    2.571    0.000    6.286 
#    0.000    0.000    0.000    0.857    0.000    3.000 
#    0.000   10.286    0.000    0.000    0.000    0.000 
#
# Total GULP energy -155941.517823 kJ/mol
# GULP energy per Si atom -5569.339922 kJ/mol
# Density = 1.983117 g / cm^3
# Si number density = 19.876408 Si / 1000 Ang^3
#
#
#
# Elastic Constant Matrix: (Units=GPa)
#
#
# Indices 1 2 3 4 5 6 
#
# 1 124.1608 -0.4576 7.6147 0.0000 0.0000 0.0000
# 2 -0.4576 42.4712 -6.5700 0.0000 0.0000 0.0000
# 3 7.6147 -6.5700 62.8515 0.0000 0.0000 0.0000
# 4 0.0000 0.0000 0.0000 26.8065 0.0000 0.0000
# 5 0.0000 0.0000 0.0000 0.0000 43.4944 0.0000
# 6 0.0000 0.0000 0.0000 0.0000 0.0000 -14.0556
#
#
#
# Elastic Compliance Matrix: (Units=1/GPa)
#
#
# Indices 1 2 3 4 5 6 
#
# 1 0.008115 -0.000066 -0.000990 0.000000 0.000000 0.000000
# 2 -0.000066 0.023933 0.002510 0.000000 0.000000 0.000000
# 3 -0.000990 0.002510 0.016293 0.000000 0.000000 0.000000
# 4 0.000000 0.000000 0.000000 0.037304 0.000000 0.000000
# 5 0.000000 0.000000 0.000000 0.000000 0.022991 0.000000
# 6 0.000000 0.000000 0.000000 0.000000 0.000000 -0.071146
#
#
# Mechanical properties :
#
#
# Convention : Reuss Voigt Hill
#
# Bulk Modulus (GPa) = 19.51284 25.62863 22.57073
# Shear Modulus (GPa) = 96.77771 26.50882 61.64327
#
# Velocity S-wave (km/s) = 6.98537 3.65592 5.57500
# Velocity P-wave (km/s) = 8.65442 5.54464 7.26781
#
# Compressibility (1/GPa) = 0.05124832
#
# Stress axis : x y z
#
# Youngs Moduli (GPa) = 123.23554 41.78348 61.37682
#
# Poissons Ratio (x) = 0.00275 0.06076
# Poissons Ratio (y) = 0.00810 -0.15404
# Poissons Ratio (z) = 0.12200 -0.10487
#
# Static dielectric constant tensor:
#      x y z
#    x 1.750870 0.000000 0.000000 
#    y 0.000000 1.711290 0.000000 
#    z 0.000000 0.000000 1.738720 
# 
# From -- ./inp_files/17395.got.cif
#   From: 2010.05.17/outbox.cif.g08.bks.cpg/sg42_9_cif.got.tgz:17395.got - 2010.06.03 19:03:34.
