data_PCOD9368991
_publ_section_title
;
Structure prediction by ZEFSAII (Michael W. Deem and Ramdas Pophale) SiO2 
 PCOD9368991
Probable space group: F M M 2
;
_chemical_formula_sum "Si O2"
_cell_formula_units_Z 96
_cell_length_a 13.956259
_cell_length_b 19.521873
_cell_length_c 14.487547
_cell_angle_alpha 90.000000
_cell_angle_beta 90.000000
_cell_angle_gamma 90.000000
_cell_volume 3947.165730
_symmetry_space_group_name_H-M "F M M 2"
_symmetry_group_IT_number 42
_symmetry_cell_setting 'orthorhombic'
loop_
_space_group_symop_operation_xyz
x,y,z
-x,-y,z
-x,y,z
x,-y,z
x,1/2+y,1/2+z
-x,1/2-y,1/2+z
-x,1/2+y,1/2+z
x,1/2-y,1/2+z
1/2+x,y,1/2+z
1/2-x,-y,1/2+z
1/2-x,y,1/2+z
1/2+x,-y,1/2+z
1/2+x,1/2+y,z
1/2-x,1/2-y,z
1/2-x,1/2+y,z
1/2+x,1/2-y,z
loop_
_atom_site_type_symbol
_atom_site_label
_atom_site_fract_x
_atom_site_fract_y
_atom_site_fract_z
Si Si1 0.885284 0.146902 0.920570
Si Si2 0.160261 0.077773 0.739687
Si Si3 0.383631 0.214427 0.816477
Si Si4 0.789170 0.573869 0.576738
Si Si5 0.107778 0.782105 0.642075
Si Si6 0.884802 0.871627 0.480062
O O1 0.844832 0.090599 0.848653
O O2 0.855107 0.219058 0.876034
O O3 0.000000 0.144024 0.919243
O O4 0.848373 0.131050 0.022885
O O5 0.260653 0.082188 0.683791
O O6 0.106201 0.144252 0.696663
O O7 0.124308 0.000000 0.721290
O O8 0.500000 0.216356 0.812500
O O9 0.348042 0.227957 0.712915
O O10 0.361039 0.147498 0.875195
O O11 0.836815 0.500000 0.564895
O O12 0.685762 0.573864 0.524390
O O13 0.142777 0.804897 0.542473
O O14 0.000000 0.758496 0.624991
O O15 0.000000 0.883540 0.489293
#
# Coordination Sequence:
#
# PCOD9368991 Si02
#       6
#    16  16  16  16  16  16
#     4  10  20  35  57  82 108 143 185 228 275 324
#     4   9  17  30  49  74 104 136 173 221 270 313
#     4   8  15  29  49  74 102 134 179 227 266 315
#     4  10  21  34  51  81 114 141 180 229 271 322
#     4   8  14  25  44  72 101 129 168 216 261 310
#     4   9  17  31  51  74 106 144 174 215 276 325
#
# _framework density 24.321251
#
# number of rings (size 3 to 8) (size 9 to 14) (size 15 to 20)
#    0.000    3.000    0.000    2.000    0.000    4.000 
#    0.000    6.667    0.000    9.000    0.000    2.333 
#    0.000    0.000    0.000    0.000    0.000    0.000 
#
# Total GULP energy -133810.841862 kJ/mol
# GULP energy per Si atom -5575.451744 kJ/mol
# Density = 2.426589 g / cm^3
# Si number density = 24.321251 Si / 1000 Ang^3
#
#
#
# Elastic Constant Matrix: (Units=GPa)
#
#
# Indices 1 2 3 4 5 6 
#
# 1 83.0579 8.9723 18.1225 0.0000 0.0000 0.0000
# 2 8.9723 65.0695 13.3962 0.0000 0.0000 0.0000
# 3 18.1225 13.3962 108.2228 0.0000 0.0000 0.0000
# 4 0.0000 0.0000 0.0000 26.9161 0.0000 0.0000
# 5 0.0000 0.0000 0.0000 0.0000 26.1220 0.0000
# 6 0.0000 0.0000 0.0000 0.0000 0.0000 15.8294
#
#
#
# Elastic Compliance Matrix: (Units=1/GPa)
#
#
# Indices 1 2 3 4 5 6 
#
# 1 0.012609 -0.001338 -0.001946 0.000000 0.000000 0.000000
# 2 -0.001338 0.015912 -0.001746 0.000000 0.000000 0.000000
# 3 -0.001946 -0.001746 0.009782 0.000000 0.000000 0.000000
# 4 0.000000 0.000000 0.000000 0.037152 0.000000 0.000000
# 5 0.000000 0.000000 0.000000 0.000000 0.038282 0.000000
# 6 0.000000 0.000000 0.000000 0.000000 0.000000 0.063174
#
#
# Mechanical properties :
#
#
# Convention : Reuss Voigt Hill
#
# Bulk Modulus (GPa) = 35.40544 37.48133 36.44339
# Shear Modulus (GPa) = 25.46024 28.16411 26.81218
#
# Velocity S-wave (km/s) = 3.23899 3.40664 3.32387
# Velocity P-wave (km/s) = 5.34575 5.56039 5.45413
#
# Compressibility (1/GPa) = 0.02824424
#
# Stress axis : x y z
#
# Youngs Moduli (GPa) = 79.30911 62.84541 102.22748
#
# Poissons Ratio (x) = 0.08409 0.19891
# Poissons Ratio (y) = 0.10612 0.17845
# Poissons Ratio (z) = 0.15432 0.10970
#
# Static dielectric constant tensor:
#      x y z
#    x 1.928210 0.000000 0.000000 
#    y 0.000000 1.950140 0.000000 
#    z 0.000000 0.000000 1.977010 
# 
# From -- ./inp_files/14006.got.cif
#   From: 2010.05.17/outbox.cif.g08.bks.cpg/sg42_8_cif.got.tgz:14006.got - 2010.06.03 19:03:34.
