data_PCOD9368746
_publ_section_title
;
Structure prediction by ZEFSAII (Michael W. Deem and Ramdas Pophale) SiO2 
 PCOD9368746
Probable space group: F M M 2
;
_chemical_formula_sum "Si O2"
_cell_formula_units_Z 68
_cell_length_a 10.617464
_cell_length_b 21.796056
_cell_length_c 14.952227
_cell_angle_alpha 90.000000
_cell_angle_beta 90.000000
_cell_angle_gamma 90.000000
_cell_volume 3460.227027
_symmetry_space_group_name_H-M "F M M 2"
_symmetry_group_IT_number 42
_symmetry_cell_setting 'orthorhombic'
loop_
_space_group_symop_operation_xyz
x,y,z
-x,-y,z
-x,y,z
x,-y,z
x,1/2+y,1/2+z
-x,1/2-y,1/2+z
-x,1/2+y,1/2+z
x,1/2-y,1/2+z
1/2+x,y,1/2+z
1/2-x,-y,1/2+z
1/2-x,y,1/2+z
1/2+x,-y,1/2+z
1/2+x,1/2+y,z
1/2-x,1/2-y,z
1/2-x,1/2+y,z
1/2+x,1/2-y,z
loop_
_atom_site_type_symbol
_atom_site_label
_atom_site_fract_x
_atom_site_fract_y
_atom_site_fract_z
Si Si1 0.145194 0.300529 0.304240
Si Si2 0.285626 0.101662 0.452585
Si Si3 0.642009 0.000000 0.858112
Si Si4 0.856215 0.132451 0.617240
Si Si5 0.858050 0.500000 0.207887
Si Si6 0.500000 0.000000 0.484735
O O1 0.250000 0.250000 0.324224
O O2 0.163134 0.356480 0.372892
O O3 0.167487 0.326795 0.204613
O O4 0.000000 0.278634 0.309666
O O5 0.238959 0.141128 0.536356
O O6 0.390588 0.053408 0.481739
O O7 0.169363 0.060472 0.416471
O O8 0.500000 0.000000 0.822764
O O9 0.749704 0.000000 0.781972
O O10 0.847556 0.061349 0.649500
O O11 0.000000 0.143477 0.588461
O O12 0.000000 0.500000 0.250676
#
# Coordination Sequence:
#
# PCOD9368746 Si02
#       6
#    16  16   8  16   8   4
#     4  11  25  47  69  93 128 182 231 276 328 395
#     4  11  22  41  66  98 133 175 217 276 332 407
#     4  11  22  34  60 101 138 168 211 275 337 394
#     4  10  22  41  66  94 130 173 218 267 337 401
#     4  10  19  37  65  91 130 176 210 263 338 410
#     4  10  22  38  68 100 136 170 220 266 342 404
#
# _framework density 19.651890000000002
#
# number of rings (size 3 to 8) (size 9 to 14) (size 15 to 20)
#    0.000    1.412    3.529    2.118    3.294    3.765 
#    6.353    2.353    0.000    0.000    0.000    0.000 
#    0.000    0.000    0.000    0.000    0.000    0.000 
#
# Total GULP energy -94735.152213 kJ/mol
# GULP energy per Si atom -5572.656013 kJ/mol
# Density = 1.960716 g / cm^3
# Si number density = 19.651890 Si / 1000 Ang^3
#
#
#
# Elastic Constant Matrix: (Units=GPa)
#
#
# Indices 1 2 3 4 5 6 
#
# 1 119.9804 17.7057 49.2754 0.0000 0.0000 0.0000
# 2 17.7057 35.3194 -6.7984 0.0000 0.0000 0.0000
# 3 49.2754 -6.7984 82.2784 0.0000 0.0000 0.0000
# 4 0.0000 0.0000 0.0000 1.1500 0.0000 0.0000
# 5 0.0000 0.0000 0.0000 0.0000 18.9515 0.0000
# 6 0.0000 0.0000 0.0000 0.0000 0.0000 13.5916
#
#
#
# Elastic Compliance Matrix: (Units=1/GPa)
#
#
# Indices 1 2 3 4 5 6 
#
# 1 0.013016 -0.008155 -0.008469 0.000000 0.000000 0.000000
# 2 -0.008155 0.033880 0.007684 0.000000 0.000000 0.000000
# 3 -0.008469 0.007684 0.017861 0.000000 0.000000 0.000000
# 4 0.000000 0.000000 0.000000 0.869562 0.000000 0.000000
# 5 0.000000 0.000000 0.000000 0.000000 0.052766 0.000000
# 6 0.000000 0.000000 0.000000 0.000000 0.000000 0.073575
#
#
# Mechanical properties :
#
#
# Convention : Reuss Voigt Hill
#
# Bulk Modulus (GPa) = 21.33308 39.77150 30.55229
# Shear Modulus (GPa) = 4.56968 18.56500 11.56734
#
# Velocity S-wave (km/s) = 1.52655 3.07692 2.42876
# Velocity P-wave (km/s) = 3.73981 5.73630 4.84208
#
# Compressibility (1/GPa) = 0.04687556
#
# Stress axis : x y z
#
# Youngs Moduli (GPa) = 76.82575 29.51567 55.98837
#
# Poissons Ratio (x) = 0.24071 0.47418
# Poissons Ratio (y) = 0.62654 -0.43019
# Poissons Ratio (z) = 0.65066 -0.22679
#
# Static dielectric constant tensor:
#      x y z
#    x 1.671500 0.000000 0.000000 
#    y 0.000000 1.668430 0.000000 
#    z 0.000000 0.000000 1.731420 
# 
# From -- ./inp_files/17967.got.cif
#   From: 2010.05.17/outbox.cif.g08.bks.cpg/sg42_9_cif.got.tgz:17967.got - 2010.06.03 19:03:34.
