data_PCOD9368543
_publ_section_title
;
Structure prediction by ZEFSAII (Michael W. Deem and Ramdas Pophale) SiO2 
 PCOD9368543
Probable space group: F M M 2
;
_chemical_formula_sum "Si O2"
_cell_formula_units_Z 112
_cell_length_a 19.255407
_cell_length_b 16.357565
_cell_length_c 18.451123
_cell_angle_alpha 90.000000
_cell_angle_beta 90.000000
_cell_angle_gamma 90.000000
_cell_volume 5811.579209
_symmetry_space_group_name_H-M "F M M 2"
_symmetry_group_IT_number 42
_symmetry_cell_setting 'orthorhombic'
loop_
_space_group_symop_operation_xyz
x,y,z
-x,-y,z
-x,y,z
x,-y,z
x,1/2+y,1/2+z
-x,1/2-y,1/2+z
-x,1/2+y,1/2+z
x,1/2-y,1/2+z
1/2+x,y,1/2+z
1/2-x,-y,1/2+z
1/2-x,y,1/2+z
1/2+x,-y,1/2+z
1/2+x,1/2+y,z
1/2-x,1/2-y,z
1/2-x,1/2+y,z
1/2+x,1/2-y,z
loop_
_atom_site_type_symbol
_atom_site_label
_atom_site_fract_x
_atom_site_fract_y
_atom_site_fract_z
Si Si1 0.079320 0.595045 0.696610
Si Si2 0.792556 0.165995 0.119131
Si Si3 0.713373 0.595541 0.743727
Si Si4 0.219114 0.662612 0.880029
Si Si5 0.335550 0.092706 0.467225
Si Si6 0.578328 0.599512 0.829759
Si Si7 0.576951 0.095438 0.871412
O O1 0.097856 0.500000 0.678046
O O2 0.136025 0.656287 0.664580
O O3 0.078057 0.599218 0.783816
O O4 0.000000 0.609673 0.671378
O O5 0.750000 0.250000 0.118099
O O6 0.737820 0.107871 0.161706
O O7 0.817297 0.141166 0.039320
O O8 0.720570 0.500000 0.761574
O O9 0.764966 0.646412 0.795459
O O10 0.635974 0.621954 0.769185
O O11 0.250000 0.750000 0.900064
O O12 0.139186 0.651375 0.897956
O O13 0.264890 0.595498 0.920827
O O14 0.392241 0.124606 0.408904
O O15 0.354727 0.000000 0.486666
O O16 0.500000 0.629142 0.816775
O O17 0.576682 0.500000 0.830621
O O18 0.500000 0.118793 0.896183
O O19 0.589077 0.000000 0.890245
#
# Coordination Sequence:
#
# PCOD9368543 Si02
#       7
#    16  16  16  16  16  16  16
#     4   9  18  33  55  82 111 145 190 239 282 335
#     4  12  23  35  53  83 119 154 185 237 303 359
#     4  10  19  33  55  79 108 149 193 231 279 349
#     4  11  20  33  53  80 114 142 180 238 294 344
#     4  10  21  36  56  78 105 150 200 242 286 348
#     4   8  16  33  57  83 106 137 189 244 287 329
#     4   9  17  31  54  81 108 143 186 230 277 334
#
# _framework density 19.271871000000001
#
# number of rings (size 3 to 8) (size 9 to 14) (size 15 to 20)
#    0.000    2.143    1.429    5.143    0.000    0.571 
#    0.000    5.000    0.000    3.429    0.000    2.000 
#    0.000    0.000    0.000    0.000    0.000    0.000 
#
# Total GULP energy -156033.245112 kJ/mol
# GULP energy per Si atom -5572.615897 kJ/mol
# Density = 1.922801 g / cm^3
# Si number density = 19.271871 Si / 1000 Ang^3
#
#
#
# Elastic Constant Matrix: (Units=GPa)
#
#
# Indices 1 2 3 4 5 6 
#
# 1 160.7866 31.6316 15.9838 0.0000 0.0000 0.0000
# 2 31.6316 49.6198 -6.1604 0.0000 0.0000 0.0000
# 3 15.9838 -6.1604 38.4475 0.0000 0.0000 0.0000
# 4 0.0000 0.0000 0.0000 110.2631 0.0000 0.0000
# 5 0.0000 0.0000 0.0000 0.0000 15.4928 0.0000
# 6 0.0000 0.0000 0.0000 0.0000 0.0000 26.9141
#
#
#
# Elastic Compliance Matrix: (Units=1/GPa)
#
#
# Indices 1 2 3 4 5 6 
#
# 1 0.007686 -0.005404 -0.004061 0.000000 0.000000 0.000000
# 2 -0.005404 0.024362 0.006150 0.000000 0.000000 0.000000
# 3 -0.004061 0.006150 0.028683 0.000000 0.000000 0.000000
# 4 0.000000 0.000000 0.000000 0.009069 0.000000 0.000000
# 5 0.000000 0.000000 0.000000 0.000000 0.064546 0.000000
# 6 0.000000 0.000000 0.000000 0.000000 0.000000 0.037155
#
#
# Mechanical properties :
#
#
# Convention : Reuss Voigt Hill
#
# Bulk Modulus (GPa) = 18.48402 36.86266 27.67334
# Shear Modulus (GPa) = 25.48857 44.36058 34.92457
#
# Velocity S-wave (km/s) = 3.64067 4.80294 4.26162
# Velocity P-wave (km/s) = 5.22347 7.06590 6.21336
#
# Compressibility (1/GPa) = 0.05410078
#
# Stress axis : x y z
#
# Youngs Moduli (GPa) = 130.10156 41.04787 34.86350
#
# Poissons Ratio (x) = 0.22183 0.14159
# Poissons Ratio (y) = 0.70308 -0.21441
# Poissons Ratio (z) = 0.52838 -0.25245
#
# Static dielectric constant tensor:
#      x y z
#    x 1.699190 0.000000 0.000000 
#    y 0.000000 1.660970 0.000000 
#    z 0.000000 0.000000 1.691530 
# 
# From -- ./inp_files/26077.got.cif
#   From: 2010.05.17/outbox.cif.g08.bks.cpg/sg42_14_cif.got.tgz:26077.got - 2010.06.03 19:03:34.
