data_PCOD9368976
_publ_section_title
;
Structure prediction by ZEFSAII (Michael W. Deem and Ramdas Pophale) SiO2 
 PCOD9368976
Probable space group: F M M 2
;
_chemical_formula_sum "Si O2"
_cell_formula_units_Z 96
_cell_length_a 18.926474
_cell_length_b 8.938191
_cell_length_c 31.542839
_cell_angle_alpha 90.000000
_cell_angle_beta 90.000000
_cell_angle_gamma 90.000000
_cell_volume 5336.052853
_symmetry_space_group_name_H-M "F M M 2"
_symmetry_group_IT_number 42
_symmetry_cell_setting 'orthorhombic'
loop_
_space_group_symop_operation_xyz
x,y,z
-x,-y,z
-x,y,z
x,-y,z
x,1/2+y,1/2+z
-x,1/2-y,1/2+z
-x,1/2+y,1/2+z
x,1/2-y,1/2+z
1/2+x,y,1/2+z
1/2-x,-y,1/2+z
1/2-x,y,1/2+z
1/2+x,-y,1/2+z
1/2+x,1/2+y,z
1/2-x,1/2-y,z
1/2-x,1/2+y,z
1/2+x,1/2-y,z
loop_
_atom_site_type_symbol
_atom_site_label
_atom_site_fract_x
_atom_site_fract_y
_atom_site_fract_z
Si Si1 0.082470 0.319287 0.883730
Si Si2 0.917640 0.320516 0.542945
Si Si3 0.084609 0.175005 0.632170
Si Si4 0.673235 0.179637 0.802699
Si Si5 0.172208 0.179840 0.959891
Si Si6 0.827040 0.679123 0.706434
O O1 0.087517 0.500000 0.888010
O O2 0.117674 0.277300 0.838772
O O3 0.126508 0.242456 0.920964
O O4 0.000000 0.278453 0.885494
O O5 0.914901 0.500000 0.548372
O O6 0.894956 0.243392 0.586650
O O7 0.868612 0.280135 0.503362
O O8 0.000000 0.280316 0.534450
O O9 0.121246 0.258955 0.670836
O O10 0.000000 0.190784 0.635498
O O11 0.102620 0.000000 0.633530
O O12 0.750000 0.250000 0.811183
O O13 0.651235 0.220201 0.754695
O O14 0.680671 0.000000 0.803929
O O15 0.250000 0.250000 0.959096
O O16 0.176746 0.000000 0.957257
O O17 0.822852 0.500000 0.703776
O O18 0.750000 0.750000 0.699687
#
# Coordination Sequence:
#
# PCOD9368976 Si02
#       6
#    16  16  16  16  16  16
#     4  10  21  37  57  82 112 144 179 221 269 321
#     4   9  19  37  58  78 104 141 183 225 270 321
#     4  10  21  36  55  81 112 144 180 223 270 321
#     4   9  19  35  55  79 107 142 182 223 268 319
#     4  11  23  38  57  82 111 143 181 223 268 320
#     4  10  20  35  56  80 109 145 183 224 270 320
#
# _framework density 17.990825000000001
#
# number of rings (size 3 to 8) (size 9 to 14) (size 15 to 20)
#    0.000    2.167    0.000    2.500    0.000    7.333 
#    0.000    5.000    0.000    0.000    0.000    0.000 
#    0.000    0.000    0.000    0.000    0.000    0.000 
#
# Total GULP energy -134004.788681 kJ/mol
# GULP energy per Si atom -5583.532862 kJ/mol
# Density = 1.794988 g / cm^3
# Si number density = 17.990825 Si / 1000 Ang^3
#
#
#
# Elastic Constant Matrix: (Units=GPa)
#
#
# Indices 1 2 3 4 5 6 
#
# 1 117.3019 54.6358 106.5748 0.0000 0.0000 0.0000
# 2 54.6358 50.4620 70.0484 0.0000 0.0000 0.0000
# 3 106.5748 70.0484 171.4529 0.0000 0.0000 0.0000
# 4 0.0000 0.0000 0.0000 27.8741 0.0000 0.0000
# 5 0.0000 0.0000 0.0000 0.0000 40.9529 0.0000
# 6 0.0000 0.0000 0.0000 0.0000 0.0000 25.9891
#
#
#
# Elastic Compliance Matrix: (Units=1/GPa)
#
#
# Indices 1 2 3 4 5 6 
#
# 1 0.022016 -0.011182 -0.009117 0.000000 0.000000 0.000000
# 2 -0.011182 0.051460 -0.014074 0.000000 0.000000 0.000000
# 3 -0.009117 -0.014074 0.017250 0.000000 0.000000 0.000000
# 4 0.000000 0.000000 0.000000 0.035876 0.000000 0.000000
# 5 0.000000 0.000000 0.000000 0.000000 0.024418 0.000000
# 6 0.000000 0.000000 0.000000 0.000000 0.000000 0.038478
#
#
# Mechanical properties :
#
#
# Convention : Reuss Voigt Hill
#
# Bulk Modulus (GPa) = 45.49417 89.08166 67.28791
# Shear Modulus (GPa) = 18.82748 26.16040 22.49394
#
# Velocity S-wave (km/s) = 3.23848 3.81740 3.53979
# Velocity P-wave (km/s) = 6.27105 8.30979 7.36134
#
# Compressibility (1/GPa) = 0.02198084
#
# Stress axis : x y z
#
# Youngs Moduli (GPa) = 45.42083 19.43261 57.97255
#
# Poissons Ratio (x) = 0.21729 0.52853
# Poissons Ratio (y) = 0.50788 0.81589
# Poissons Ratio (z) = 0.41410 0.27349
#
# Static dielectric constant tensor:
#      x y z
#    x 1.584240 0.000000 0.000000 
#    y 0.000000 1.600560 0.000000 
#    z 0.000000 0.000000 1.602600 
# 
# From -- ./inp_files/31425.got.cif
#   From: 2010.05.17/outbox.cif.g08.bks.cpg/sg42_16_cif.got.tgz:31425.got - 2010.06.03 19:03:34.
