data_PCOD9368126
_publ_section_title
;
Structure prediction by ZEFSAII (Michael W. Deem and Ramdas Pophale) SiO2 
 PCOD9368126
Probable space group: F M M 2
;
_chemical_formula_sum "Si O2"
_cell_formula_units_Z 92
_cell_length_a 17.102499
_cell_length_b 16.272696
_cell_length_c 20.934081
_cell_angle_alpha 90.000000
_cell_angle_beta 90.000000
_cell_angle_gamma 90.000000
_cell_volume 5826.033602
_symmetry_space_group_name_H-M "F M M 2"
_symmetry_group_IT_number 42
_symmetry_cell_setting 'orthorhombic'
loop_
_space_group_symop_operation_xyz
x,y,z
-x,-y,z
-x,y,z
x,-y,z
x,1/2+y,1/2+z
-x,1/2-y,1/2+z
-x,1/2+y,1/2+z
x,1/2-y,1/2+z
1/2+x,y,1/2+z
1/2-x,-y,1/2+z
1/2-x,y,1/2+z
1/2+x,-y,1/2+z
1/2+x,1/2+y,z
1/2-x,1/2-y,z
1/2-x,1/2+y,z
1/2+x,1/2-y,z
loop_
_atom_site_type_symbol
_atom_site_label
_atom_site_fract_x
_atom_site_fract_y
_atom_site_fract_z
Si Si1 0.849077 0.500000 0.288211
Si Si2 0.500000 0.500000 0.698872
Si Si3 0.586820 0.401823 0.360862
Si Si4 0.500000 0.594169 0.574717
Si Si5 0.092326 0.500000 0.434992
Si Si6 0.862417 0.832167 0.496454
Si Si7 0.751207 0.157285 0.314867
Si Si8 0.193323 0.348281 0.463213
O O1 0.922277 0.500000 0.241025
O O2 0.882478 0.500000 0.360521
O O3 0.797698 0.416467 0.282516
O O4 0.500000 0.577259 0.650243
O O5 0.500000 0.381282 0.336954
O O6 0.593289 0.500000 0.366726
O O7 0.598583 0.362881 0.430676
O O8 0.658762 0.369922 0.319463
O O9 0.500000 0.500000 0.546809
O O10 0.577492 0.640568 0.550756
O O11 0.131429 0.420409 0.465817
O O12 0.000000 0.500000 0.440126
O O13 0.844155 0.735483 0.489310
O O14 0.774751 0.869451 0.498646
O O15 0.750000 0.250000 0.288168
O O16 0.718144 0.162771 0.388303
#
# Coordination Sequence:
#
# PCOD9368126 Si02
#       8
#     8   4  16   8   8  16  16  16
#     4  10  20  38  54  61 107 138 178 225 252 285
#     4  10  24  42  50  78  90 132 184 232 260 284
#     4  10  17  25  43  73 112 134 160 195 246 314
#     4  10  22  32  57  74  95 126 178 216 261 296
#     4  10  20  29  47  74  98 151 169 189 239 319
#     4  10  17  31  45  76 104 141 156 205 255 303
#     4  10  17  32  49  78 102 145 170 196 251 322
#     4   9  19  29  47  72 117 133 165 193 242 325
#
# _framework density 15.791188999999999
#
# number of rings (size 3 to 8) (size 9 to 14) (size 15 to 20)
#    0.261    1.913    5.652    0.522    6.087    0.000 
#    1.565    0.000    3.826    0.000    0.000    0.000 
#    0.000    1.391    0.000    0.000    0.000    0.000 
#
# Total GULP energy -128058.169016 kJ/mol
# GULP energy per Si atom -5567.746479 kJ/mol
# Density = 1.575525 g / cm^3
# Si number density = 15.791189 Si / 1000 Ang^3
#
#
#
# Elastic Constant Matrix: (Units=GPa)
#
#
# Indices 1 2 3 4 5 6 
#
# 1 159.8029 83.8469 35.7197 0.0000 0.0000 0.0000
# 2 83.8469 101.2780 22.6138 0.0000 0.0000 0.0000
# 3 35.7197 22.6138 38.5394 0.0000 0.0000 0.0000
# 4 0.0000 0.0000 0.0000 9.7764 0.0000 0.0000
# 5 0.0000 0.0000 0.0000 0.0000 10.9461 0.0000
# 6 0.0000 0.0000 0.0000 0.0000 0.0000 27.5335
#
#
#
# Elastic Compliance Matrix: (Units=1/GPa)
#
#
# Indices 1 2 3 4 5 6 
#
# 1 0.012231 -0.008740 -0.006208 0.000000 0.000000 0.000000
# 2 -0.008740 0.017608 -0.002231 0.000000 0.000000 0.000000
# 3 -0.006208 -0.002231 0.033010 0.000000 0.000000 0.000000
# 4 0.000000 0.000000 0.000000 0.102288 0.000000 0.000000
# 5 0.000000 0.000000 0.000000 0.000000 0.091357 0.000000
# 6 0.000000 0.000000 0.000000 0.000000 0.000000 0.036319
#
#
# Mechanical properties :
#
#
# Convention : Reuss Voigt Hill
#
# Bulk Modulus (GPa) = 35.09867 64.88679 49.99273
# Shear Modulus (GPa) = 14.85145 20.14720 17.49932
#
# Velocity S-wave (km/s) = 3.07007 3.57578 3.33253
# Velocity P-wave (km/s) = 5.90272 7.63073 6.82166
#
# Compressibility (1/GPa) = 0.02849111
#
# Stress axis : x y z
#
# Youngs Moduli (GPa) = 81.75970 56.79376 30.29349
#
# Poissons Ratio (x) = 0.49636 0.18806
# Poissons Ratio (y) = 0.71456 0.06759
# Poissons Ratio (z) = 0.50755 0.12672
#
# Static dielectric constant tensor:
#      x y z
#    x 1.534180 0.000000 0.000000 
#    y 0.000000 1.546710 0.000000 
#    z 0.000000 0.000000 1.500460 
# 
# From -- ./inp_files/29581.got.cif
#   From: 2010.05.17/outbox.cif.g08.bks.cpg/sg42_15_cif.got.tgz:29581.got - 2010.06.03 19:03:34.
