data_PCOD9368063
_publ_section_title
;
Structure prediction by ZEFSAII (Michael W. Deem and Ramdas Pophale) SiO2 
 PCOD9368063
Probable space group: A B A 2
;
_chemical_formula_sum "Si O2"
_cell_formula_units_Z 32
_cell_length_a 12.000000
_cell_length_b 18.000000
_cell_length_c 15.000000
_cell_angle_alpha 90.000000
_cell_angle_beta 90.000000
_cell_angle_gamma 90.000000
_cell_volume 3240.000000
_symmetry_space_group_name_H-M "A B A 2"
_symmetry_group_IT_number 41
_symmetry_cell_setting 'orthorhombic'
loop_
_space_group_symop_operation_xyz
x,y,z
-x,-y,z
1/2-x,y,1/2+z
1/2+x,-y,1/2+z
x,1/2+y,1/2+z
-x,1/2-y,1/2+z
1/2-x,1/2+y,z
1/2+x,1/2-y,z
loop_
_atom_site_type_symbol
_atom_site_label
_atom_site_fract_x
_atom_site_fract_y
_atom_site_fract_z
Si Si1 0.285345 0.844259 0.708190
Si Si2 0.778982 0.266606 0.373418
Si Si3 0.808977 0.928761 0.334677
Si Si4 0.484150 0.079925 0.681385
Si Si5 0.676567 0.149479 0.505512
Si Si6 0.917934 0.362677 0.508841
Si Si7 0.366165 0.986710 0.213218
Si Si8 0.773998 0.486981 0.015227
O O1 0.298879 0.780033 0.782166
O O2 0.395575 0.895008 0.714353
O O3 0.295725 0.818630 0.604702
O O4 0.179332 0.900672 0.718720
O O5 0.716535 0.341922 0.347055
O O6 0.710017 0.209885 0.433799
O O7 0.874331 0.298300 0.442113
O O8 0.904552 0.936094 0.262592
O O9 0.700691 0.969570 0.291203
O O10 0.845427 0.962031 0.429899
O O11 0.429013 0.142284 0.617205
O O12 0.500000 0.000000 0.632506
O O13 0.548284 0.127156 0.489184
O O14 0.742777 0.072502 0.500788
O O15 0.832234 0.431777 0.502436
O O16 0.324973 0.016940 0.115215
O O17 0.500000 0.000000 0.220594
#
# Coordination Sequence:
#
# PCOD9368063 Si02
#       8
#     8   8   8   8   8   8   8   8
#     4  10  23  43  65  94 131 180 218 273 335 398
#     4  11  26  39  60  98 140 168 221 266 331 408
#     4  11  24  39  68  96 133 172 219 277 327 401
#     4  11  20  41  74  90 123 171 227 276 329 397
#     4  10  22  41  66  93 131 177 220 269 332 401
#     4  10  21  41  67  93 123 174 219 272 323 390
#     4  11  23  45  70  99 132 171 225 284 336 388
#     4  10  21  42  68 100 125 165 227 286 326 389
#
# _framework density 9.8765429999999999
#
# number of rings (size 3 to 8) (size 9 to 14) (size 15 to 20)
#    0.000    1.500    2.500    2.625    3.500    4.500 
#    2.250    1.250    0.000    0.000    0.000    0.000 
#    0.000    0.000    0.000    0.000    0.000    0.000 
#
# Total GULP energy -178302.870911 kJ/mol
# GULP energy per Si atom -5571.964716 kJ/mol
# Density = 0.985406 g / cm^3
# Si number density = 9.876543 Si / 1000 Ang^3
#
#
#
# Elastic Constant Matrix: (Units=GPa)
#
#
# Indices 1 2 3 4 5 6 
#
# 1 60.5601 12.9081 17.3457 0.0000 0.0000 0.0000
# 2 12.9081 81.1994 41.8872 0.0000 0.0000 0.0000
# 3 17.3457 41.8872 103.2337 0.0000 0.0000 0.0000
# 4 0.0000 0.0000 0.0000 46.8107 0.0000 0.0000
# 5 0.0000 0.0000 0.0000 0.0000 -16.4390 0.0000
# 6 0.0000 0.0000 0.0000 0.0000 0.0000 19.0925
#
#
#
# Elastic Compliance Matrix: (Units=1/GPa)
#
#
# Indices 1 2 3 4 5 6 
#
# 1 0.017510 -0.001601 -0.002293 0.000000 0.000000 0.000000
# 2 -0.001601 0.015722 -0.006110 0.000000 0.000000 0.000000
# 3 -0.002293 -0.006110 0.012551 0.000000 0.000000 0.000000
# 4 0.000000 0.000000 0.000000 0.021363 0.000000 0.000000
# 5 0.000000 0.000000 0.000000 0.000000 -0.060831 0.000000
# 6 0.000000 0.000000 0.000000 0.000000 0.000000 0.052377
#
#
# Mechanical properties :
#
#
# Convention : Reuss Voigt Hill
#
# Bulk Modulus (GPa) = 38.79573 43.25280 41.02427
# Shear Modulus (GPa) = 57.27965 21.41633 39.34799
#
# Velocity S-wave (km/s) = 5.39080 3.29629 4.46802
# Velocity P-wave (km/s) = 7.64400 6.03587 6.88703
#
# Compressibility (1/GPa) = 0.02577603
#
# Stress axis : x y z
#
# Youngs Moduli (GPa) = 57.10891 63.60591 79.67394
#
# Poissons Ratio (x) = 0.10183 0.18266
# Poissons Ratio (y) = 0.09143 0.48682
# Poissons Ratio (z) = 0.13093 0.38864
#
# Static dielectric constant tensor:
#      x y z
#    x 1.715250 0.000000 0.000000 
#    y 0.000000 1.696210 0.000000 
#    z 0.000000 0.000000 1.751890 
# 
# From -- ./inp_files/8090.got.cif
#   From: 2010.05.17/outbox.ucp.g08.bks.cvg/sg41_5_cif.got.tgz:8090.got - 2010.06.11 16:28:22.
