data_PCOD9368678
_publ_section_title
;
Structure prediction by ZEFSAII (Michael W. Deem and Ramdas Pophale) SiO2 
 PCOD9368678
Probable space group: F M M 2
;
_chemical_formula_sum "Si O2"
_cell_formula_units_Z 80
_cell_length_a 10.574101
_cell_length_b 16.877699
_cell_length_c 23.675896
_cell_angle_alpha 90.000000
_cell_angle_beta 90.000000
_cell_angle_gamma 90.000000
_cell_volume 4225.354148
_symmetry_space_group_name_H-M "F M M 2"
_symmetry_group_IT_number 42
_symmetry_cell_setting 'orthorhombic'
loop_
_space_group_symop_operation_xyz
x,y,z
-x,-y,z
-x,y,z
x,-y,z
x,1/2+y,1/2+z
-x,1/2-y,1/2+z
-x,1/2+y,1/2+z
x,1/2-y,1/2+z
1/2+x,y,1/2+z
1/2-x,-y,1/2+z
1/2-x,y,1/2+z
1/2+x,-y,1/2+z
1/2+x,1/2+y,z
1/2-x,1/2-y,z
1/2-x,1/2+y,z
1/2+x,1/2-y,z
loop_
_atom_site_type_symbol
_atom_site_label
_atom_site_fract_x
_atom_site_fract_y
_atom_site_fract_z
Si Si1 0.648561 0.904209 0.336710
Si Si2 0.742081 0.656066 0.717481
Si Si3 0.000000 0.596790 0.016896
Si Si4 0.759974 0.596754 0.459680
Si Si5 0.000000 0.096810 0.033992
Si Si6 0.500000 0.095401 0.148098
Si Si7 0.500000 0.905344 0.663415
O O1 0.500000 0.882432 0.336988
O O2 0.715076 0.870160 0.281556
O O3 0.712154 0.878678 0.395521
O O4 0.654334 0.000000 0.333927
O O5 0.750000 0.750000 0.714292
O O6 0.624944 0.625505 0.679828
O O7 0.873486 0.621851 0.694623
O O8 0.000000 0.620395 0.082525
O O9 0.000000 0.500000 0.016450
O O10 0.873553 0.623183 0.984870
O O11 0.759838 0.500000 0.459703
O O12 0.875153 0.621642 0.500070
O O13 0.000000 0.124170 0.098571
O O14 0.000000 0.000000 0.034400
O O15 0.500000 0.000000 0.150288
O O16 0.500000 0.000000 0.661472
#
# Coordination Sequence:
#
# PCOD9368678 Si02
#       7
#    16  16   8  16   8   8   8
#     4  10  19  35  62  88 113 154 205 245 287 358
#     4  12  25  40  59  86 124 160 200 249 302 351
#     4   9  18  30  53  90 122 143 182 245 302 339
#     4   9  16  29  52  87 118 143 183 244 299 342
#     4   9  16  30  53  82 114 143 186 241 292 345
#     4  11  21  40  67  90 118 163 206 239 286 367
#     4  11  23  38  59  90 120 151 196 253 300 345
#
# _framework density 18.933323999999999
#
# number of rings (size 3 to 8) (size 9 to 14) (size 15 to 20)
#    0.000    1.800    2.000    3.600    0.000    4.000 
#    0.000    2.000    0.000    7.200    0.000    0.000 
#    0.000    0.000    0.000    0.000    0.000    0.000 
#
# Total GULP energy -111738.563842 kJ/mol
# GULP energy per Si atom -5586.928192 kJ/mol
# Density = 1.889023 g / cm^3
# Si number density = 18.933324 Si / 1000 Ang^3
#
#
#
# Elastic Constant Matrix: (Units=GPa)
#
#
# Indices 1 2 3 4 5 6 
#
# 1 218.0449 36.7079 139.9614 0.0000 0.0000 0.0000
# 2 36.7079 37.9210 43.4150 0.0000 0.0000 0.0000
# 3 139.9614 43.4150 227.9617 0.0000 0.0000 0.0000
# 4 0.0000 0.0000 0.0000 -14.9871 0.0000 0.0000
# 5 0.0000 0.0000 0.0000 0.0000 -19.5298 0.0000
# 6 0.0000 0.0000 0.0000 0.0000 0.0000 17.6677
#
#
#
# Elastic Compliance Matrix: (Units=1/GPa)
#
#
# Indices 1 2 3 4 5 6 
#
# 1 0.007770 -0.002634 -0.004269 0.000000 0.000000 0.000000
# 2 -0.002634 0.034617 -0.004976 0.000000 0.000000 0.000000
# 3 -0.004269 -0.004976 0.007955 0.000000 0.000000 0.000000
# 4 0.000000 0.000000 0.000000 -0.066724 0.000000 0.000000
# 5 0.000000 0.000000 0.000000 0.000000 -0.051204 0.000000
# 6 0.000000 0.000000 0.000000 0.000000 0.000000 0.056601
#
#
# Mechanical properties :
#
#
# Convention : Reuss Voigt Hill
#
# Bulk Modulus (GPa) = 37.61500 102.67735 70.14618
# Shear Modulus (GPa) = 231.13668 14.21972 122.67820
#
# Velocity S-wave (km/s) = 11.06094 2.74349 8.05826
# Velocity P-wave (km/s) = 13.52908 8.02399 11.12251
#
# Compressibility (1/GPa) = 0.02658514
#
# Stress axis : x y z
#
# Youngs Moduli (GPa) = 128.70506 28.88776 125.70481
#
# Poissons Ratio (x) = 0.07609 0.53660
# Poissons Ratio (y) = 0.33901 0.62545
# Poissons Ratio (z) = 0.54941 0.14373
#
# Static dielectric constant tensor:
#      x y z
#    x 1.631180 0.000000 0.000000 
#    y 0.000000 1.629110 0.000000 
#    z 0.000000 0.000000 1.638400 
# 
# From -- ./inp_files/27859.got.cif
#   From: 2010.05.17/outbox.cif.g08.bks.cpg/sg42_14_cif.got.tgz:27859.got - 2010.06.03 19:03:34.
