data_PCOD9368573
_publ_section_title
;
Structure prediction by ZEFSAII (Michael W. Deem and Ramdas Pophale) SiO2 
 PCOD9368573
Probable space group: F M M 2
;
_chemical_formula_sum "Si O2"
_cell_formula_units_Z 72
_cell_length_a 28.915308
_cell_length_b 13.256112
_cell_length_c 7.585075
_cell_angle_alpha 90.000000
_cell_angle_beta 90.000000
_cell_angle_gamma 90.000000
_cell_volume 2907.393846
_symmetry_space_group_name_H-M "F M M 2"
_symmetry_group_IT_number 42
_symmetry_cell_setting 'orthorhombic'
loop_
_space_group_symop_operation_xyz
x,y,z
-x,-y,z
-x,y,z
x,-y,z
x,1/2+y,1/2+z
-x,1/2-y,1/2+z
-x,1/2+y,1/2+z
x,1/2-y,1/2+z
1/2+x,y,1/2+z
1/2-x,-y,1/2+z
1/2-x,y,1/2+z
1/2+x,-y,1/2+z
1/2+x,1/2+y,z
1/2-x,1/2-y,z
1/2-x,1/2+y,z
1/2+x,1/2-y,z
loop_
_atom_site_type_symbol
_atom_site_label
_atom_site_fract_x
_atom_site_fract_y
_atom_site_fract_z
Si Si1 0.897431 0.390632 0.351480
Si Si2 0.104180 0.844984 0.269611
Si Si3 0.000000 0.136146 0.293143
Si Si4 0.750000 0.750000 0.210831
Si Si5 0.500000 0.130942 0.377310
Si Si6 0.803394 0.613252 0.966867
O O1 0.874661 0.500000 0.303122
O O2 0.889340 0.277621 0.276826
O O3 0.892224 0.377990 0.564484
O O4 0.951463 0.403217 0.305388
O O5 0.054065 0.885256 0.341145
O O6 0.145212 0.885422 0.390312
O O7 0.000000 0.251777 0.342800
O O8 0.000000 0.113448 0.085862
O O9 0.792844 0.701343 0.106582
O O10 0.769471 0.845557 0.314988
O O11 0.791094 0.500000 0.021730
#
# Coordination Sequence:
#
# PCOD9368573 Si02
#       6
#    16  16   8   8   8  16
#     4  10  19  34  53  79 113 154 195 238 281 331
#     4  10  20  35  58  87 120 154 195 235 284 345
#     4   8  16  30  50  82 118 152 188 234 274 332
#     4  10  24  42  64  90 116 146 196 246 296 350
#     4   8  15  28  50  72 103 152 199 232 276 324
#     4  11  22  41  64  89 118 153 191 241 295 347
#
# _framework density 24.764448000000002
#
# number of rings (size 3 to 8) (size 9 to 14) (size 15 to 20)
#    0.000    2.222    0.000    3.000    0.000    0.000 
#    0.000   11.667    0.000    0.000    0.000   35.778 
#    0.000    0.000    0.000    0.000    0.000    0.000 
#
# Total GULP energy -100262.505047 kJ/mol
# GULP energy per Si atom -5570.139169 kJ/mol
# Density = 2.470808 g / cm^3
# Si number density = 24.764448 Si / 1000 Ang^3
#
#
#
# Elastic Constant Matrix: (Units=GPa)
#
#
# Indices 1 2 3 4 5 6 
#
# 1 125.2919 20.5315 23.7505 0.0000 0.0000 0.0000
# 2 20.5315 184.6939 18.3576 0.0000 0.0000 0.0000
# 3 23.7505 18.3576 43.4482 0.0000 0.0000 0.0000
# 4 0.0000 0.0000 0.0000 -23.3718 0.0000 0.0000
# 5 0.0000 0.0000 0.0000 0.0000 -2.4368 0.0000
# 6 0.0000 0.0000 0.0000 0.0000 0.0000 -560.4385
#
#
#
# Elastic Compliance Matrix: (Units=1/GPa)
#
#
# Indices 1 2 3 4 5 6 
#
# 1 0.008954 -0.000531 -0.004670 0.000000 0.000000 0.000000
# 2 -0.000531 0.005683 -0.002111 0.000000 0.000000 0.000000
# 3 -0.004670 -0.002111 0.026461 0.000000 0.000000 0.000000
# 4 0.000000 0.000000 0.000000 -0.042787 0.000000 0.000000
# 5 0.000000 0.000000 0.000000 0.000000 -0.410370 0.000000
# 6 0.000000 0.000000 0.000000 0.000000 0.000000 -0.001784
#
#
# Mechanical properties :
#
#
# Convention : Reuss Voigt Hill
#
# Bulk Modulus (GPa) = 37.77383 53.19037 45.48210
# Shear Modulus (GPa) = -12.80753 -97.86314 -55.33534
#
# Velocity S-wave (km/s) = -2.27661 -6.29312 -4.73214
# Velocity P-wave (km/s) = 2.89409 5.59280 3.38405
#
# Compressibility (1/GPa) = 0.02647335
#
# Stress axis : x y z
#
# Youngs Moduli (GPa) = 111.68620 175.95646 37.79202
#
# Poissons Ratio (x) = 0.09346 0.17649
# Poissons Ratio (y) = 0.05932 0.07978
# Poissons Ratio (z) = 0.52157 0.37143
#
# Static dielectric constant tensor:
#      x y z
#    x 2.420150 0.000000 0.000000 
#    y 0.000000 1.949660 0.000000 
#    z 0.000000 0.000000 2.024010 
# 
# From -- ./inp_files/2948.got.cif
#   From: 2010.05.17/outbox.cif.g08.bks.cpg/sg42_2_cif.got.tgz:2948.got - 2010.06.03 19:03:34.
