data_PCOD9368846
_publ_section_title
;
Structure prediction by ZEFSAII (Michael W. Deem and Ramdas Pophale) SiO2 
 PCOD9368846
Probable space group: F M M 2
;
_chemical_formula_sum "Si O2"
_cell_formula_units_Z 88
_cell_length_a 30.845783
_cell_length_b 13.312932
_cell_length_c 12.343393
_cell_angle_alpha 90.000000
_cell_angle_beta 90.000000
_cell_angle_gamma 90.000000
_cell_volume 5068.787323
_symmetry_space_group_name_H-M "F M M 2"
_symmetry_group_IT_number 42
_symmetry_cell_setting 'orthorhombic'
loop_
_space_group_symop_operation_xyz
x,y,z
-x,-y,z
-x,y,z
x,-y,z
x,1/2+y,1/2+z
-x,1/2-y,1/2+z
-x,1/2+y,1/2+z
x,1/2-y,1/2+z
1/2+x,y,1/2+z
1/2-x,-y,1/2+z
1/2-x,y,1/2+z
1/2+x,-y,1/2+z
1/2+x,1/2+y,z
1/2-x,1/2-y,z
1/2-x,1/2+y,z
1/2+x,1/2-y,z
loop_
_atom_site_type_symbol
_atom_site_label
_atom_site_fract_x
_atom_site_fract_y
_atom_site_fract_z
Si Si1 0.390326 0.234096 0.553680
Si Si2 0.376567 0.385089 0.269911
Si Si3 0.250000 0.250000 0.022277
Si Si4 0.329247 0.701586 0.869793
Si Si5 0.449613 0.113361 0.953949
Si Si6 0.683017 0.115633 0.138962
O O1 0.390689 0.159363 0.654403
O O2 0.370567 0.180814 0.447028
O O3 0.433897 0.295605 0.529744
O O4 0.355380 0.321088 0.583002
O O5 0.361875 0.500000 0.261681
O O6 0.339838 0.311444 0.318327
O O7 0.417431 0.381298 0.351304
O O8 0.287202 0.295185 0.945387
O O9 0.272912 0.167185 0.097436
O O10 0.322707 0.629925 0.767595
O O11 0.500000 0.123634 0.925005
O O12 0.443889 0.000000 0.000961
O O13 0.681027 0.000000 0.107790
#
# Coordination Sequence:
#
# PCOD9368846 Si02
#       6
#    16  16   8  16  16  16
#     4   9  18  33  52  74 100 130 166 205 246 293
#     4   9  18  33  53  75 100 133 168 205 248 294
#     4  10  20  34  48  70  96 124 162 202 244 292
#     4   9  19  34  49  69  97 125 162 204 245 293
#     4   9  17  30  50  76 103 132 167 204 245 295
#     4  10  20  34  51  70  96 129 164 203 245 292
#
# _framework density 17.361155
#
# number of rings (size 3 to 8) (size 9 to 14) (size 15 to 20)
#    0.000    2.727    0.000    1.091    0.000    6.545 
#    0.000   12.727    0.000    0.000    0.000    0.000 
#    0.000    0.000    0.000    0.000    0.000    0.000 
#
# Total GULP energy -122597.923507 kJ/mol
# GULP energy per Si atom -5572.632887 kJ/mol
# Density = 1.732164 g / cm^3
# Si number density = 17.361155 Si / 1000 Ang^3
#
#
#
# Elastic Constant Matrix: (Units=GPa)
#
#
# Indices 1 2 3 4 5 6 
#
# 1 59.8463 12.6104 -2.7967 0.0000 0.0000 0.0000
# 2 12.6104 59.3914 9.2378 0.0000 0.0000 0.0000
# 3 -2.7967 9.2378 65.4979 0.0000 0.0000 0.0000
# 4 0.0000 0.0000 0.0000 15.0270 0.0000 0.0000
# 5 0.0000 0.0000 0.0000 0.0000 11.3663 0.0000
# 6 0.0000 0.0000 0.0000 0.0000 0.0000 22.2009
#
#
#
# Elastic Compliance Matrix: (Units=1/GPa)
#
#
# Indices 1 2 3 4 5 6 
#
# 1 0.017601 -0.003940 0.001307 0.000000 0.000000 0.000000
# 2 -0.003940 0.018097 -0.002721 0.000000 0.000000 0.000000
# 3 0.001307 -0.002721 0.015707 0.000000 0.000000 0.000000
# 4 0.000000 0.000000 0.000000 0.066547 0.000000 0.000000
# 5 0.000000 0.000000 0.000000 0.000000 0.087979 0.000000
# 6 0.000000 0.000000 0.000000 0.000000 0.000000 0.045043
#
#
# Mechanical properties :
#
#
# Convention : Reuss Voigt Hill
#
# Bulk Modulus (GPa) = 24.57143 24.75983 24.66563
# Shear Modulus (GPa) = 18.16540 20.76444 19.46492
#
# Velocity S-wave (km/s) = 3.23820 3.46212 3.35203
# Velocity P-wave (km/s) = 5.30708 5.50220 5.40552
#
# Compressibility (1/GPa) = 0.04069768
#
# Stress axis : x y z
#
# Youngs Moduli (GPa) = 56.81531 55.25686 63.66500
#
# Poissons Ratio (x) = 0.21774 -0.08323
# Poissons Ratio (y) = 0.22388 0.17321
# Poissons Ratio (z) = -0.07428 0.15034
#
# Static dielectric constant tensor:
#      x y z
#    x 1.579040 0.000000 0.000000 
#    y 0.000000 1.584090 0.000000 
#    z 0.000000 0.000000 1.609610 
# 
# From -- ./inp_files/10984.got.cif
#   From: 2010.05.17/outbox.cif.g08.bks.cpg/sg42_6_cif.got.tgz:10984.got - 2010.06.03 19:03:34.
