data_PCOD9368449
_publ_section_title
;
Structure prediction by ZEFSAII (Michael W. Deem and Ramdas Pophale) SiO2 
 PCOD9368449
Probable space group: F M M 2
;
_chemical_formula_sum "Si O2"
_cell_formula_units_Z 96
_cell_length_a 25.868908
_cell_length_b 8.610767
_cell_length_c 26.306691
_cell_angle_alpha 90.000000
_cell_angle_beta 90.000000
_cell_angle_gamma 90.000000
_cell_volume 5859.845392
_symmetry_space_group_name_H-M "F M M 2"
_symmetry_group_IT_number 42
_symmetry_cell_setting 'orthorhombic'
loop_
_space_group_symop_operation_xyz
x,y,z
-x,-y,z
-x,y,z
x,-y,z
x,1/2+y,1/2+z
-x,1/2-y,1/2+z
-x,1/2+y,1/2+z
x,1/2-y,1/2+z
1/2+x,y,1/2+z
1/2-x,-y,1/2+z
1/2-x,y,1/2+z
1/2+x,-y,1/2+z
1/2+x,1/2+y,z
1/2-x,1/2-y,z
1/2-x,1/2+y,z
1/2+x,1/2-y,z
loop_
_atom_site_type_symbol
_atom_site_label
_atom_site_fract_x
_atom_site_fract_y
_atom_site_fract_z
Si Si1 0.308655 0.812916 0.609640
Si Si2 0.889420 0.684875 0.028597
Si Si3 0.387814 0.187519 0.414635
Si Si4 0.500000 0.321818 0.908503
Si Si5 0.500000 0.321767 0.031938
Si Si6 0.691742 0.186678 0.721482
Si Si7 0.308532 0.687007 0.332851
O O1 0.250000 0.750000 0.604447
O O2 0.345885 0.747026 0.566591
O O3 0.329315 0.766384 0.666178
O O4 0.307308 0.000000 0.606609
O O5 0.888062 0.500000 0.026150
O O6 0.946472 0.739940 0.046327
O O7 0.880507 0.752377 0.972003
O O8 0.444221 0.246873 0.395205
O O9 0.343550 0.244494 0.377193
O O10 0.389433 0.000000 0.416321
O O11 0.500000 0.500000 0.890207
O O12 0.500000 0.324041 0.970156
O O13 0.500000 0.500000 0.049388
O O14 0.750000 0.250000 0.721684
O O15 0.669987 0.233423 0.776598
O O16 0.693137 0.000000 0.721501
O O17 0.307565 0.500000 0.336120
O O18 0.250000 0.750000 0.336849
#
# Coordination Sequence:
#
# PCOD9368449 Si02
#       7
#    16  16  16   8   8  16  16
#     4  10  19  33  51  73  99 130 164 202 246 295
#     4  11  21  33  50  75 102 130 163 203 244 289
#     4  10  19  33  51  72  97 129 163 199 242 291
#     4   7  14  29  49  68  89 118 157 194 230 276
#     4   9  17  33  53  72  95 128 165 202 240 286
#     4   8  16  30  49  69  93 124 162 201 240 286
#     4  10  19  32  49  73 100 128 161 200 243 291
#
# _framework density 16.382686
#
# number of rings (size 3 to 8) (size 9 to 14) (size 15 to 20)
#    0.000    2.500    0.000    4.250    0.000    2.000 
#    0.000    4.583    0.000    1.000    0.000    5.833 
#    0.000    0.000    0.000    0.000    0.000    0.000 
#
# Total GULP energy -133634.160298 kJ/mol
# GULP energy per Si atom -5568.090012 kJ/mol
# Density = 1.634540 g / cm^3
# Si number density = 16.382686 Si / 1000 Ang^3
#
#
#
# Elastic Constant Matrix: (Units=GPa)
#
#
# Indices 1 2 3 4 5 6 
#
# 1 107.4786 40.0672 77.1368 0.0000 0.0000 0.0000
# 2 40.0672 78.7837 43.9047 0.0000 0.0000 -0.0001
# 3 77.1368 43.9047 123.7686 0.0000 0.0000 0.0000
# 4 0.0000 0.0000 0.0000 17.8883 0.0000 0.0000
# 5 0.0000 0.0000 0.0000 0.0000 -3.9427 0.0000
# 6 0.0000 -0.0001 0.0000 0.0000 0.0000 23.6538
#
#
#
# Elastic Compliance Matrix: (Units=1/GPa)
#
#
# Indices 1 2 3 4 5 6 
#
# 1 0.017590 -0.003535 -0.009708 0.000000 0.000000 0.000000
# 2 -0.003535 0.016531 -0.003661 0.000000 0.000000 0.000000
# 3 -0.009708 -0.003661 0.015429 0.000000 0.000000 0.000000
# 4 0.000000 0.000000 0.000000 0.055902 0.000000 0.000000
# 5 0.000000 0.000000 0.000000 0.000000 -0.253635 0.000000
# 6 0.000000 0.000000 0.000000 0.000000 0.000000 0.042277
#
#
# Mechanical properties :
#
#
# Convention : Reuss Voigt Hill
#
# Bulk Modulus (GPa) = 63.53017 70.24982 66.89000
# Shear Modulus (GPa) = -74.79376 17.44804 -28.67286
#
# Velocity S-wave (km/s) = -6.76412 3.26702 -4.18807
# Velocity P-wave (km/s) = 4.70546 7.56339 4.18709
#
# Compressibility (1/GPa) = 0.01574055
#
# Stress axis : x y z
#
# Youngs Moduli (GPa) = 56.85097 60.49236 64.81373
#
# Poissons Ratio (x) = 0.21386 0.62924
# Poissons Ratio (y) = 0.20099 0.23727
# Poissons Ratio (z) = 0.55194 0.22145
#
# Static dielectric constant tensor:
#      x y z
#    x 1.539040 0.000000 0.000000 
#    y 0.000000 1.555040 0.000000 
#    z 0.000000 0.000000 1.563710 
# 
# From -- ./inp_files/28195.got.cif
#   From: 2010.05.17/outbox.cif.g08.bks.cpg/sg42_15_cif.got.tgz:28195.got - 2010.06.03 19:03:34.
