data_PCOD9368845
_publ_section_title
;
Structure prediction by ZEFSAII (Michael W. Deem and Ramdas Pophale) SiO2 
 PCOD9368845
Probable space group: F M M 2
;
_chemical_formula_sum "Si O2"
_cell_formula_units_Z 104
_cell_length_a 17.296991
_cell_length_b 20.406975
_cell_length_c 15.075820
_cell_angle_alpha 90.000000
_cell_angle_beta 90.000000
_cell_angle_gamma 90.000000
_cell_volume 5321.451831
_symmetry_space_group_name_H-M "F M M 2"
_symmetry_group_IT_number 42
_symmetry_cell_setting 'orthorhombic'
loop_
_space_group_symop_operation_xyz
x,y,z
-x,-y,z
-x,y,z
x,-y,z
x,1/2+y,1/2+z
-x,1/2-y,1/2+z
-x,1/2+y,1/2+z
x,1/2-y,1/2+z
1/2+x,y,1/2+z
1/2-x,-y,1/2+z
1/2-x,y,1/2+z
1/2+x,-y,1/2+z
1/2+x,1/2+y,z
1/2-x,1/2-y,z
1/2-x,1/2+y,z
1/2+x,1/2-y,z
loop_
_atom_site_type_symbol
_atom_site_label
_atom_site_fract_x
_atom_site_fract_y
_atom_site_fract_z
Si Si1 0.180830 0.500000 0.758080
Si Si2 0.813690 0.638306 0.719172
Si Si3 0.683523 0.000000 0.113754
Si Si4 0.778896 0.000000 0.928119
Si Si5 0.678192 0.639048 0.865876
Si Si6 0.089049 0.130465 0.579950
Si Si7 0.756586 0.677922 0.040041
Si Si8 0.912985 0.230559 0.745005
O O1 0.142110 0.430392 0.735947
O O2 0.260303 0.500000 0.699004
O O3 0.206415 0.500000 0.860300
O O4 0.742989 0.638626 0.788825
O O5 0.779243 0.635307 0.619542
O O6 0.859860 0.705404 0.735008
O O7 0.625768 0.937777 0.112895
O O8 0.739480 0.000000 0.025770
O O9 0.827683 0.064766 0.902663
O O10 0.609573 0.680550 0.823432
O O11 0.707590 0.676938 0.951718
O O12 0.156593 0.156218 0.515034
O O13 0.091091 0.184797 0.657610
O O14 0.000000 0.123720 0.550071
O O15 0.750000 0.750000 0.078712
O O16 0.000000 0.253824 0.756434
#
# Coordination Sequence:
#
# PCOD9368845 Si02
#       8
#     8  16   8   8  16  16  16  16
#     4  10  20  33  62  87 111 159 212 247 297 367
#     4  11  20  39  60  86 120 158 209 256 302 370
#     4  12  19  38  58  94 129 160 198 254 309 370
#     4  10  20  33  60  87 121 157 202 251 289 363
#     4  11  21  37  61  90 121 159 212 247 300 371
#     4  11  22  36  59  91 128 160 194 253 323 364
#     4  12  20  35  62  90 119 166 212 249 304 367
#     4  11  23  41  61  88 125 161 199 265 323 361
#
# _framework density 19.543538999999999
#
# number of rings (size 3 to 8) (size 9 to 14) (size 15 to 20)
#    0.000    0.923    6.154    2.538    0.000    0.000 
#    0.000    5.385    0.000    0.000    0.000    3.231 
#    0.000    0.000    0.000    0.000    0.000    0.000 
#
# Total GULP energy -144956.159202 kJ/mol
# GULP energy per Si atom -5575.236892 kJ/mol
# Density = 1.949906 g / cm^3
# Si number density = 19.543539 Si / 1000 Ang^3
#
#
#
# Elastic Constant Matrix: (Units=GPa)
#
#
# Indices 1 2 3 4 5 6 
#
# 1 49.8753 20.5741 -5.9792 0.0000 0.0000 0.0000
# 2 20.5741 129.2486 -13.5722 0.0000 0.0000 0.0000
# 3 -5.9792 -13.5722 75.0010 0.0000 0.0000 0.0000
# 4 0.0000 0.0000 0.0000 24.3030 0.0000 0.0000
# 5 0.0000 0.0000 0.0000 0.0000 19.0915 0.0000
# 6 0.0000 0.0000 0.0000 0.0000 0.0000 12.8184
#
#
#
# Elastic Compliance Matrix: (Units=1/GPa)
#
#
# Indices 1 2 3 4 5 6 
#
# 1 0.021551 -0.003313 0.001119 0.000000 0.000000 0.000000
# 2 -0.003313 0.008396 0.001255 0.000000 0.000000 0.000000
# 3 0.001119 0.001255 0.013649 0.000000 0.000000 0.000000
# 4 0.000000 0.000000 0.000000 0.041147 0.000000 0.000000
# 5 0.000000 0.000000 0.000000 0.000000 0.052379 0.000000
# 6 0.000000 0.000000 0.000000 0.000000 0.000000 0.078013
#
#
# Mechanical properties :
#
#
# Convention : Reuss Voigt Hill
#
# Bulk Modulus (GPa) = 23.97051 28.46337 26.21694
# Shear Modulus (GPa) = 21.65253 28.11609 24.88431
#
# Velocity S-wave (km/s) = 3.33214 3.79705 3.57217
# Velocity P-wave (km/s) = 5.20539 5.81543 5.51884
#
# Compressibility (1/GPa) = 0.04171794
#
# Stress axis : x y z
#
# Youngs Moduli (GPa) = 46.40211 119.10124 73.26292
#
# Poissons Ratio (x) = 0.39459 -0.08195
# Poissons Ratio (y) = 0.15373 -0.09196
# Poissons Ratio (z) = -0.05190 -0.14950
#
# Static dielectric constant tensor:
#      x y z
#    x 1.672330 0.000000 0.000000 
#    y 0.000000 1.797970 0.000000 
#    z 0.000000 0.000000 1.666760 
# 
# From -- ./inp_files/15274.got.cif
#   From: 2010.05.17/outbox.cif.g08.bks.cpg/sg42_8_cif.got.tgz:15274.got - 2010.06.03 19:03:34.
