data_PCOD9368960
_publ_section_title
;
Structure prediction by ZEFSAII (Michael W. Deem and Ramdas Pophale) SiO2 
 PCOD9368960
Probable space group: F M M 2
;
_chemical_formula_sum "Si O2"
_cell_formula_units_Z 52
_cell_length_a 23.641184
_cell_length_b 18.066523
_cell_length_c 4.927351
_cell_angle_alpha 90.000000
_cell_angle_beta 90.000000
_cell_angle_gamma 90.000000
_cell_volume 2104.540568
_symmetry_space_group_name_H-M "F M M 2"
_symmetry_group_IT_number 42
_symmetry_cell_setting 'orthorhombic'
loop_
_space_group_symop_operation_xyz
x,y,z
-x,-y,z
-x,y,z
x,-y,z
x,1/2+y,1/2+z
-x,1/2-y,1/2+z
-x,1/2+y,1/2+z
x,1/2-y,1/2+z
1/2+x,y,1/2+z
1/2-x,-y,1/2+z
1/2-x,y,1/2+z
1/2+x,-y,1/2+z
1/2+x,1/2+y,z
1/2-x,1/2-y,z
1/2-x,1/2+y,z
1/2+x,1/2-y,z
loop_
_atom_site_type_symbol
_atom_site_label
_atom_site_fract_x
_atom_site_fract_y
_atom_site_fract_z
Si Si1 0.610468 0.917977 0.511750
Si Si2 0.433274 0.201100 0.907205
Si Si3 0.217028 0.089532 0.658746
Si Si4 0.500000 0.000000 0.343984
O O1 0.599051 0.865962 0.766370
O O2 0.658649 0.892005 0.306324
O O3 0.628637 0.000000 0.617377
O O4 0.550630 0.936602 0.364657
O O5 0.500000 0.184009 0.884106
O O6 0.422154 0.271441 0.709957
O O7 0.232754 0.115645 0.359845
O O8 0.217930 0.000000 0.648120
#
# Coordination Sequence:
#
# PCOD9368960 Si02
#       4
#    16  16  16   4
#     4   9  17  34  60  81 118 138 186 230 275 324
#     4  10  20  35  54  79 111 147 181 217 272 336
#     4   9  18  32  53  78 104 141 182 222 266 316
#     4   8  16  32  56  90 112 142 174 236 284 314
#
# _framework density 24.708483000000001
#
# number of rings (size 3 to 8) (size 9 to 14) (size 15 to 20)
#    0.923    1.846    1.538    0.000    0.000    2.462 
#    0.000    4.615    0.000   18.462    0.000    0.000 
#    0.000    0.000    0.000    0.000    0.000    0.000 
#
# Total GULP energy -72421.494470 kJ/mol
# GULP energy per Si atom -5570.884190 kJ/mol
# Density = 2.465225 g / cm^3
# Si number density = 24.708483 Si / 1000 Ang^3
#
#
#
# Elastic Constant Matrix: (Units=GPa)
#
#
# Indices 1 2 3 4 5 6 
#
# 1 134.6831 16.2335 22.9481 -0.0004 0.0001 0.0004
# 2 16.2335 54.6770 -1.5544 0.0044 -0.0007 -0.0010
# 3 22.9481 -1.5544 95.5148 0.0090 -0.0023 -0.0017
# 4 -0.0004 0.0044 0.0090 17.7780 -0.0009 -0.0010
# 5 0.0001 -0.0007 -0.0023 -0.0009 30.2321 0.0003
# 6 0.0004 -0.0010 -0.0017 -0.0010 0.0003 29.2878
#
#
#
# Elastic Compliance Matrix: (Units=1/GPa)
#
#
# Indices 1 2 3 4 5 6 
#
# 1 0.008057 -0.002448 -0.001975 0.000002 0.000000 0.000000
# 2 -0.002448 0.019042 0.000898 -0.000005 0.000001 0.000001
# 3 -0.001975 0.000898 0.010959 -0.000006 0.000001 0.000001
# 4 0.000002 -0.000005 -0.000006 0.056249 0.000002 0.000002
# 5 0.000000 0.000001 0.000001 0.000002 0.033077 0.000000
# 6 0.000000 0.000001 0.000001 0.000002 0.000000 0.034144
#
#
# Mechanical properties :
#
#
# Convention : Reuss Voigt Hill
#
# Bulk Modulus (GPa) = 32.25198 40.01438 36.13318
# Shear Modulus (GPa) = 27.94643 31.94278 29.94460
#
# Velocity S-wave (km/s) = 3.36675 3.59943 3.48503
# Velocity P-wave (km/s) = 5.30987 5.78829 5.55423
#
# Compressibility (1/GPa) = 0.03100585
#
# Stress axis : x y z
#
# Youngs Moduli (GPa) = 124.12333 52.51660 91.25074
#
# Poissons Ratio (x) = 0.12857 0.18026
# Poissons Ratio (y) = 0.30387 -0.08195
# Poissons Ratio (z) = 0.24520 -0.04716
#
# Static dielectric constant tensor:
#      x y z
#    x 1.980040 0.000000 0.000000 
#    y 0.000000 2.024700 0.000000 
#    z 0.000000 0.000000 1.966530 
# 
# From -- ./inp_files/495.got.cif
#   From: 2010.05.17/outbox.cif.g08.bks.cpg/sg42_1_cif.got.tgz:495.got - 2010.06.03 19:03:34.
