data_PCOD9368243
_publ_section_title
;
Structure prediction by ZEFSAII (Michael W. Deem and Ramdas Pophale) SiO2 
 PCOD9368243
Probable space group: F M M 2
;
_chemical_formula_sum "Si O2"
_cell_formula_units_Z 116
_cell_length_a 21.995054
_cell_length_b 26.265958
_cell_length_c 10.192675
_cell_angle_alpha 90.000000
_cell_angle_beta 90.000000
_cell_angle_gamma 90.000000
_cell_volume 5888.524071
_symmetry_space_group_name_H-M "F M M 2"
_symmetry_group_IT_number 42
_symmetry_cell_setting 'orthorhombic'
loop_
_space_group_symop_operation_xyz
x,y,z
-x,-y,z
-x,y,z
x,-y,z
x,1/2+y,1/2+z
-x,1/2-y,1/2+z
-x,1/2+y,1/2+z
x,1/2-y,1/2+z
1/2+x,y,1/2+z
1/2-x,-y,1/2+z
1/2-x,y,1/2+z
1/2+x,-y,1/2+z
1/2+x,1/2+y,z
1/2-x,1/2-y,z
1/2-x,1/2+y,z
1/2+x,1/2-y,z
loop_
_atom_site_type_symbol
_atom_site_label
_atom_site_fract_x
_atom_site_fract_y
_atom_site_fract_z
Si Si1 0.428634 0.558194 0.273670
Si Si2 0.890788 0.578375 0.061406
Si Si3 0.759585 0.441111 0.182464
Si Si4 0.686817 0.061591 0.440986
Si Si5 0.427140 0.725557 0.898891
Si Si6 0.074175 0.693957 0.111187
Si Si7 0.000000 0.000000 0.622128
Si Si8 0.569882 0.113159 0.499701
O O1 0.500000 0.558057 0.313884
O O2 0.414102 0.500000 0.231954
O O3 0.391987 0.572198 0.403087
O O4 0.423791 0.595508 0.150601
O O5 0.825840 0.560863 0.115691
O O6 0.902307 0.636782 0.098898
O O7 0.945957 0.543985 0.113954
O O8 0.741862 0.500000 0.200644
O O9 0.769265 0.418872 0.326248
O O10 0.711358 0.419264 0.080698
O O11 0.618614 0.080489 0.420127
O O12 0.687619 0.000000 0.439089
O O13 0.500000 0.732220 0.889867
O O14 0.405734 0.718857 0.749440
O O15 0.417417 0.672250 0.974440
O O16 0.404933 0.771969 0.987987
O O17 0.000000 0.692338 0.111269
O O18 0.500000 0.102750 0.460341
#
# Coordination Sequence:
#
# PCOD9368243 Si02
#       8
#    16  16  16  16  16  16   4  16
#     4  10  18  30  50  84 123 154 189 234 300 360
#     4  12  20  35  57  88 119 162 203 247 301 352
#     4  10  22  38  57  81 117 157 204 241 291 364
#     4  10  22  40  57  84 114 161 202 241 298 363
#     4   9  20  36  53  82 115 154 197 247 303 360
#     4  10  20  34  56  81 118 154 198 246 304 358
#     4  12  20  36  56  92 130 160 194 264 288 368
#     4  10  21  36  58  85 120 155 194 254 308 351
#
# _framework density 19.699332999999999
#
# number of rings (size 3 to 8) (size 9 to 14) (size 15 to 20)
#    0.000    1.793    2.759    1.241    3.862    0.828 
#    1.241    0.000    0.000    0.828    0.000    3.862 
#    0.000    0.000    0.000    0.000    0.000    0.000 
#
# Total GULP energy -161631.805191 kJ/mol
# GULP energy per Si atom -5573.510524 kJ/mol
# Density = 1.965450 g / cm^3
# Si number density = 19.699333 Si / 1000 Ang^3
#
#
#
# Elastic Constant Matrix: (Units=GPa)
#
#
# Indices 1 2 3 4 5 6 
#
# 1 65.0864 8.0513 -0.8734 0.0000 0.0000 0.0000
# 2 8.0513 81.1983 33.1947 0.0000 0.0000 0.0000
# 3 -0.8734 33.1947 63.3185 0.0000 -0.0001 0.0000
# 4 0.0000 0.0000 0.0000 21.6084 0.0000 0.0000
# 5 0.0000 0.0000 -0.0001 0.0000 20.1167 0.0000
# 6 0.0000 0.0000 0.0000 0.0000 0.0000 12.6232
#
#
#
# Elastic Compliance Matrix: (Units=1/GPa)
#
#
# Indices 1 2 3 4 5 6 
#
# 1 0.015640 -0.002086 0.001309 0.000000 0.000000 0.000000
# 2 -0.002086 0.015953 -0.008392 0.000000 0.000000 0.000000
# 3 0.001309 -0.008392 0.020211 0.000000 0.000000 0.000000
# 4 0.000000 0.000000 0.000000 0.046278 0.000000 0.000000
# 5 0.000000 0.000000 0.000000 0.000000 0.049710 0.000000
# 6 0.000000 0.000000 0.000000 0.000000 0.000000 0.079219
#
#
# Mechanical properties :
#
#
# Convention : Reuss Voigt Hill
#
# Bulk Modulus (GPa) = 29.88107 32.26091 31.07099
# Shear Modulus (GPa) = 19.49282 22.15170 20.82226
#
# Velocity S-wave (km/s) = 3.14907 3.35698 3.25469
# Velocity P-wave (km/s) = 5.33139 5.60696 5.47091
#
# Compressibility (1/GPa) = 0.03346601
#
# Stress axis : x y z
#
# Youngs Moduli (GPa) = 63.93941 62.68331 49.47835
#
# Poissons Ratio (x) = 0.13076 -0.06478
# Poissons Ratio (y) = 0.13338 0.41523
# Poissons Ratio (z) = -0.08372 0.52605
#
# Static dielectric constant tensor:
#      x y z
#    x 1.690640 0.000000 0.000000 
#    y 0.000000 1.654350 0.000000 
#    z 0.000000 0.000000 1.756950 
# 
# From -- ./inp_files/4927.got.cif
#   From: 2010.05.17/outbox.cif.g08.bks.cpg/sg42_3_cif.got.tgz:4927.got - 2010.06.03 19:03:34.
