data_PCOD9368969
_publ_section_title
;
Structure prediction by ZEFSAII (Michael W. Deem and Ramdas Pophale) SiO2 
 PCOD9368969
Probable space group: F M M 2
;
_chemical_formula_sum "Si O2"
_cell_formula_units_Z 112
_cell_length_a 13.996459
_cell_length_b 26.443610
_cell_length_c 15.357781
_cell_angle_alpha 90.000000
_cell_angle_beta 90.000000
_cell_angle_gamma 90.000000
_cell_volume 5684.174343
_symmetry_space_group_name_H-M "F M M 2"
_symmetry_group_IT_number 42
_symmetry_cell_setting 'orthorhombic'
loop_
_space_group_symop_operation_xyz
x,y,z
-x,-y,z
-x,y,z
x,-y,z
x,1/2+y,1/2+z
-x,1/2-y,1/2+z
-x,1/2+y,1/2+z
x,1/2-y,1/2+z
1/2+x,y,1/2+z
1/2-x,-y,1/2+z
1/2-x,y,1/2+z
1/2+x,-y,1/2+z
1/2+x,1/2+y,z
1/2-x,1/2-y,z
1/2-x,1/2+y,z
1/2+x,1/2-y,z
loop_
_atom_site_type_symbol
_atom_site_label
_atom_site_fract_x
_atom_site_fract_y
_atom_site_fract_z
Si Si1 0.289642 0.665838 0.856200
Si Si2 0.606349 0.592218 0.165425
Si Si3 0.889569 0.299965 0.184461
Si Si4 0.611251 0.943635 0.985214
Si Si5 0.721895 0.054478 0.814920
Si Si6 0.250527 0.145095 0.046882
Si Si7 0.897039 0.302436 0.766236
O O1 0.366836 0.684038 0.784980
O O2 0.279694 0.605372 0.836598
O O3 0.192881 0.694949 0.828431
O O4 0.289567 0.672467 0.960252
O O5 0.500000 0.571966 0.150585
O O6 0.678411 0.557329 0.218927
O O7 0.660714 0.613981 0.082959
O O8 0.598532 0.642080 0.225744
O O9 0.808446 0.322486 0.120085
O O10 0.883498 0.239157 0.190998
O O11 0.000000 0.313689 0.161636
O O12 0.500000 0.936431 0.002052
O O13 0.672520 0.897706 0.020920
O O14 0.639082 0.000000 0.017771
O O15 0.633228 0.944012 0.882151
O O16 0.771122 0.000000 0.828412
O O17 0.000000 0.291493 0.808726
#
# Coordination Sequence:
#
# PCOD9368969 Si02
#       7
#    16  16  16  16  16  16  16
#     4  10  21  38  58  85 119 153 189 238 293 347
#     4  10  20  35  55  81 112 145 187 237 288 335
#     4  11  22  40  60  85 117 153 196 241 289 350
#     4   9  18  33  54  84 117 145 186 243 293 341
#     4   9  17  33  59  85 110 144 187 236 291 340
#     4  11  22  36  58  85 114 157 195 238 288 354
#     4   9  19  38  60  79 110 146 186 240 291 335
#
# _framework density 19.703828000000001
#
# number of rings (size 3 to 8) (size 9 to 14) (size 15 to 20)
#    0.000    2.143    2.857    1.286    0.000    6.000 
#    5.143    0.000    0.000    0.429    0.000    4.000 
#    0.000    0.000    0.000    0.000    0.000    0.000 
#
# Total GULP energy -155870.716802 kJ/mol
# GULP energy per Si atom -5566.811314 kJ/mol
# Density = 1.965898 g / cm^3
# Si number density = 19.703828 Si / 1000 Ang^3
#
#
#
# Elastic Constant Matrix: (Units=GPa)
#
#
# Indices 1 2 3 4 5 6 
#
# 1 30.5614 -12.0793 6.5083 0.0000 0.0000 0.0000
# 2 -12.0793 58.0914 -6.6074 0.0000 0.0000 0.0000
# 3 6.5083 -6.6074 72.8103 0.0000 0.0000 0.0000
# 4 0.0000 0.0000 0.0000 20.2968 0.0000 0.0000
# 5 0.0000 0.0000 0.0000 0.0000 14.6154 0.0000
# 6 0.0000 0.0000 0.0000 0.0000 0.0000 16.6977
#
#
#
# Elastic Compliance Matrix: (Units=1/GPa)
#
#
# Indices 1 2 3 4 5 6 
#
# 1 0.036122 0.007218 -0.002574 0.000000 0.000000 0.000000
# 2 0.007218 0.018836 0.001064 0.000000 0.000000 0.000000
# 3 -0.002574 0.001064 0.014061 0.000000 0.000000 0.000000
# 4 0.000000 0.000000 0.000000 0.049269 0.000000 0.000000
# 5 0.000000 0.000000 0.000000 0.000000 0.068421 0.000000
# 6 0.000000 0.000000 0.000000 0.000000 0.000000 0.059889
#
#
# Mechanical properties :
#
#
# Convention : Reuss Voigt Hill
#
# Bulk Modulus (GPa) = 12.43211 15.23402 13.83307
# Shear Modulus (GPa) = 19.08450 21.89807 20.49129
#
# Velocity S-wave (km/s) = 3.11556 3.33733 3.22835
# Velocity P-wave (km/s) = 4.38924 4.75380 4.57515
#
# Compressibility (1/GPa) = 0.08043684
#
# Stress axis : x y z
#
# Youngs Moduli (GPa) = 27.68380 53.08912 71.11891
#
# Poissons Ratio (x) = -0.38322 0.18305
# Poissons Ratio (y) = -0.19983 -0.07568
# Poissons Ratio (z) = 0.07125 -0.05649
#
# Static dielectric constant tensor:
#      x y z
#    x 1.716730 0.000000 0.000000 
#    y 0.000000 1.753550 0.000000 
#    z 0.000000 0.000000 1.734540 
# 
# From -- ./inp_files/14415.got.cif
#   From: 2010.05.17/outbox.cif.g08.bks.cpg/sg42_8_cif.got.tgz:14415.got - 2010.06.03 19:03:34.
