data_PCOD9368686
_publ_section_title
;
Structure prediction by ZEFSAII (Michael W. Deem and Ramdas Pophale) SiO2 
 PCOD9368686
Probable space group: F M M 2
;
_chemical_formula_sum "Si O2"
_cell_formula_units_Z 116
_cell_length_a 28.405015
_cell_length_b 17.116842
_cell_length_c 10.856261
_cell_angle_alpha 90.000000
_cell_angle_beta 90.000000
_cell_angle_gamma 90.000000
_cell_volume 5278.359193
_symmetry_space_group_name_H-M "F M M 2"
_symmetry_group_IT_number 42
_symmetry_cell_setting 'orthorhombic'
loop_
_space_group_symop_operation_xyz
x,y,z
-x,-y,z
-x,y,z
x,-y,z
x,1/2+y,1/2+z
-x,1/2-y,1/2+z
-x,1/2+y,1/2+z
x,1/2-y,1/2+z
1/2+x,y,1/2+z
1/2-x,-y,1/2+z
1/2-x,y,1/2+z
1/2+x,-y,1/2+z
1/2+x,1/2+y,z
1/2-x,1/2-y,z
1/2-x,1/2+y,z
1/2+x,1/2-y,z
loop_
_atom_site_type_symbol
_atom_site_label
_atom_site_fract_x
_atom_site_fract_y
_atom_site_fract_z
Si Si1 0.410391 0.589636 0.073340
Si Si2 0.085586 0.880129 0.494893
Si Si3 0.000000 0.500000 0.968999
Si Si4 0.838602 0.088930 0.281242
Si Si5 0.827225 0.411217 0.158440
Si Si6 0.871432 0.815062 0.860842
Si Si7 0.295914 0.699585 0.445954
Si Si8 0.946378 0.746877 0.667830
O O1 0.427149 0.500000 0.079773
O O2 0.360793 0.593360 0.146844
O O3 0.442465 0.655144 0.137241
O O4 0.400073 0.620739 0.937425
O O5 0.118532 0.890629 0.375017
O O6 0.119475 0.911740 0.603554
O O7 0.067434 0.796506 0.545469
O O8 0.040873 0.932772 0.472921
O O9 0.799704 0.151673 0.317804
O O10 0.823617 0.000000 0.305997
O O11 0.811148 0.500000 0.175982
O O12 0.832305 0.360041 0.280280
O O13 0.799012 0.363564 0.054986
O O14 0.841751 0.756067 0.946812
O O15 0.907766 0.770486 0.770372
O O16 0.250000 0.750000 0.455582
O O17 0.000000 0.766253 0.704355
#
# Coordination Sequence:
#
# PCOD9368686 Si02
#       8
#    16  16   4  16  16  16  16  16
#     4  11  24  44  66  93 135 186 227 280 344 411
#     4  10  19  35  63  98 131 166 226 284 332 397
#     4  12  16  32  64 108 128 160 244 284 328 410
#     4  10  20  41  65  95 135 177 218 281 349 397
#     4  10  21  42  67  93 132 174 210 274 344 394
#     4  11  23  44  67  99 134 176 229 279 341 412
#     4  11  23  41  72  99 132 169 225 281 346 407
#     4  11  24  41  65  95 137 187 229 284 340 407
#
# _framework density 21.976526
#
# number of rings (size 3 to 8) (size 9 to 14) (size 15 to 20)
#    0.000    1.379    3.448    4.138    0.000    1.379 
#    1.241    2.759    0.000    0.000    0.000    0.000 
#    0.000    0.000    0.000    0.000    0.000    0.000 
#
# Total GULP energy -161764.199236 kJ/mol
# GULP energy per Si atom -5578.075836 kJ/mol
# Density = 2.192651 g / cm^3
# Si number density = 21.976526 Si / 1000 Ang^3
#
#
#
# Elastic Constant Matrix: (Units=GPa)
#
#
# Indices 1 2 3 4 5 6 
#
# 1 90.3187 39.4238 -4.4454 0.0000 0.0000 0.0000
# 2 39.4238 171.7210 25.2250 0.0000 0.0000 0.0000
# 3 -4.4454 25.2250 50.2426 0.0000 0.0000 0.0000
# 4 0.0000 0.0000 0.0000 23.6032 0.0000 0.0000
# 5 0.0000 0.0000 0.0000 0.0000 4.6849 0.0000
# 6 0.0000 0.0000 0.0000 0.0000 0.0000 35.6944
#
#
#
# Elastic Compliance Matrix: (Units=1/GPa)
#
#
# Indices 1 2 3 4 5 6 
#
# 1 0.012656 -0.003314 0.002784 0.000000 0.000000 0.000000
# 2 -0.003314 0.007155 -0.003886 0.000000 0.000000 0.000000
# 3 0.002784 -0.003886 0.022101 0.000000 0.000000 0.000000
# 4 0.000000 0.000000 0.000000 0.042367 0.000000 0.000000
# 5 0.000000 0.000000 0.000000 0.000000 0.213450 0.000000
# 6 0.000000 0.000000 0.000000 0.000000 0.000000 0.028016
#
#
# Mechanical properties :
#
#
# Convention : Reuss Voigt Hill
#
# Bulk Modulus (GPa) = 30.23075 48.07658 39.15366
# Shear Modulus (GPa) = 14.46747 29.60178 22.03462
#
# Velocity S-wave (km/s) = 2.56855 3.67409 3.16989
# Velocity P-wave (km/s) = 4.75209 6.31842 5.59039
#
# Compressibility (1/GPa) = 0.03307890
#
# Stress axis : x y z
#
# Youngs Moduli (GPa) = 79.01608 139.76054 45.24778
#
# Poissons Ratio (x) = 0.46322 -0.12596
# Poissons Ratio (y) = 0.26189 0.17581
# Poissons Ratio (z) = -0.21996 0.54305
#
# Static dielectric constant tensor:
#      x y z
#    x 1.796560 0.000000 0.000000 
#    y 0.000000 1.843700 0.000000 
#    z 0.000000 0.000000 1.847580 
# 
# From -- ./inp_files/11187.got.cif
#   From: 2010.05.17/outbox.cif.g08.bks.cpg/sg42_6_cif.got.tgz:11187.got - 2010.06.03 19:03:34.
