data_PCOD9368860
_publ_section_title
;
Structure prediction by ZEFSAII (Michael W. Deem and Ramdas Pophale) SiO2 
 PCOD9368860
Probable space group: F M M 2
;
_chemical_formula_sum "Si O2"
_cell_formula_units_Z 96
_cell_length_a 19.136438
_cell_length_b 8.752613
_cell_length_c 32.573346
_cell_angle_alpha 90.000000
_cell_angle_beta 90.000000
_cell_angle_gamma 90.000000
_cell_volume 5455.834673
_symmetry_space_group_name_H-M "F M M 2"
_symmetry_group_IT_number 42
_symmetry_cell_setting 'orthorhombic'
loop_
_space_group_symop_operation_xyz
x,y,z
-x,-y,z
-x,y,z
x,-y,z
x,1/2+y,1/2+z
-x,1/2-y,1/2+z
-x,1/2+y,1/2+z
x,1/2-y,1/2+z
1/2+x,y,1/2+z
1/2-x,-y,1/2+z
1/2-x,y,1/2+z
1/2+x,-y,1/2+z
1/2+x,1/2+y,z
1/2-x,1/2-y,z
1/2-x,1/2+y,z
1/2+x,1/2-y,z
loop_
_atom_site_type_symbol
_atom_site_label
_atom_site_fract_x
_atom_site_fract_y
_atom_site_fract_z
Si Si1 0.419402 0.313360 0.680830
Si Si2 0.417065 0.680498 0.004936
Si Si3 0.172092 0.315629 0.257778
Si Si4 0.671351 0.683206 0.848047
Si Si5 0.415035 0.823149 0.090739
Si Si6 0.828057 0.818700 0.432013
O O1 0.500000 0.265380 0.685524
O O2 0.419322 0.500000 0.680103
O O3 0.373920 0.262789 0.719428
O O4 0.392257 0.265967 0.635724
O O5 0.500000 0.714584 0.001497
O O6 0.407356 0.500000 0.999273
O O7 0.374233 0.769320 0.970554
O O8 0.394325 0.728657 0.050813
O O9 0.176287 0.500000 0.256282
O O10 0.250000 0.250000 0.254800
O O11 0.141592 0.277129 0.303029
O O12 0.673543 0.500000 0.851921
O O13 0.750000 0.750000 0.846981
O O14 0.640045 0.753164 0.889450
O O15 0.500000 0.821693 0.092587
O O16 0.393727 0.000000 0.085452
O O17 0.750000 0.750000 0.436525
O O18 0.822594 0.000000 0.429012
#
# Coordination Sequence:
#
# PCOD9368860 Si02
#       6
#    16  16  16  16  16  16
#     4   8  14  27  48  71  93 121 160 200 234 274
#     4  10  20  34  52  74 100 128 161 201 243 289
#     4   9  17  29  47  70  95 124 158 195 235 280
#     4   9  16  28  46  68  94 125 161 195 233 284
#     4   8  14  27  48  70  92 123 162 198 234 281
#     4  11  21  34  53  74  98 127 162 202 244 292
#
# _framework density 17.595841
#
# number of rings (size 3 to 8) (size 9 to 14) (size 15 to 20)
#    0.000    2.833    0.000    4.500    0.000    1.667 
#    0.000    2.500    0.000    6.500    0.000    0.000 
#    0.000    0.000    0.000    0.000    0.000    0.000 
#
# Total GULP energy -133673.883795 kJ/mol
# GULP energy per Si atom -5569.745158 kJ/mol
# Density = 1.755579 g / cm^3
# Si number density = 17.595841 Si / 1000 Ang^3
#
#
#
# Elastic Constant Matrix: (Units=GPa)
#
#
# Indices 1 2 3 4 5 6 
#
# 1 30.0405 23.2716 49.3546 0.0000 0.0000 0.0000
# 2 23.2716 63.0155 55.4884 0.0000 0.0000 0.0000
# 3 49.3546 55.4884 190.5357 0.0000 0.0000 0.0000
# 4 0.0000 0.0000 0.0000 20.3408 0.0000 0.0000
# 5 0.0000 0.0000 0.0000 0.0000 29.8282 0.0000
# 6 0.0000 0.0000 0.0000 0.0000 0.0000 16.5729
#
#
#
# Elastic Compliance Matrix: (Units=1/GPa)
#
#
# Indices 1 2 3 4 5 6 
#
# 1 0.064242 -0.012200 -0.013088 0.000000 0.000000 0.000000
# 2 -0.012200 0.023659 -0.003730 0.000000 0.000000 0.000000
# 3 -0.013088 -0.003730 0.009725 0.000000 0.000000 0.000000
# 4 0.000000 0.000000 0.000000 0.049162 0.000000 0.000000
# 5 0.000000 0.000000 0.000000 0.000000 0.033525 0.000000
# 6 0.000000 0.000000 0.000000 0.000000 0.000000 0.060339
#
#
# Mechanical properties :
#
#
# Convention : Reuss Voigt Hill
#
# Bulk Modulus (GPa) = 25.25880 59.98009 42.61945
# Shear Modulus (GPa) = 16.03158 23.71352 19.87255
#
# Velocity S-wave (km/s) = 3.02172 3.67506 3.36428
# Velocity P-wave (km/s) = 5.15369 7.22286 6.27416
#
# Compressibility (1/GPa) = 0.03959017
#
# Stress axis : x y z
#
# Youngs Moduli (GPa) = 15.56619 42.26733 102.83131
#
# Poissons Ratio (x) = 0.51567 1.34582
# Poissons Ratio (y) = 0.18991 0.38354
# Poissons Ratio (z) = 0.20372 0.15765
#
# Static dielectric constant tensor:
#      x y z
#    x 1.579200 0.000000 0.000000 
#    y 0.000000 1.593630 0.000000 
#    z 0.000000 0.000000 1.648740 
# 
# From -- ./inp_files/28053.got.cif
#   From: 2010.05.17/outbox.cif.g08.bks.cpg/sg42_15_cif.got.tgz:28053.got - 2010.06.03 19:03:34.
