data_PCOD9368545
_publ_section_title
;
Structure prediction by ZEFSAII (Michael W. Deem and Ramdas Pophale) SiO2 
 PCOD9368545
Probable space group: F M M 2
;
_chemical_formula_sum "Si O2"
_cell_formula_units_Z 128
_cell_length_a 19.429331
_cell_length_b 19.410030
_cell_length_c 18.989457
_cell_angle_alpha 90.000000
_cell_angle_beta 90.000000
_cell_angle_gamma 90.000000
_cell_volume 7161.378037
_symmetry_space_group_name_H-M "F M M 2"
_symmetry_group_IT_number 42
_symmetry_cell_setting 'orthorhombic'
loop_
_space_group_symop_operation_xyz
x,y,z
-x,-y,z
-x,y,z
x,-y,z
x,1/2+y,1/2+z
-x,1/2-y,1/2+z
-x,1/2+y,1/2+z
x,1/2-y,1/2+z
1/2+x,y,1/2+z
1/2-x,-y,1/2+z
1/2-x,y,1/2+z
1/2+x,-y,1/2+z
1/2+x,1/2+y,z
1/2-x,1/2-y,z
1/2-x,1/2+y,z
1/2+x,1/2-y,z
loop_
_atom_site_type_symbol
_atom_site_label
_atom_site_fract_x
_atom_site_fract_y
_atom_site_fract_z
Si Si1 0.076611 0.581548 0.186820
Si Si2 0.669044 0.342816 0.585536
Si Si3 0.715203 0.680486 0.198073
Si Si4 0.078430 0.688060 0.459106
Si Si5 0.186563 0.196209 0.429036
Si Si6 0.582068 0.707859 0.114564
Si Si7 0.384441 0.920671 0.342874
Si Si8 0.222941 0.579663 0.823226
O O1 0.073260 0.500000 0.195079
O O2 0.132070 0.595745 0.126500
O O3 0.097373 0.608013 0.264759
O O4 0.000000 0.607389 0.168971
O O5 0.738360 0.326625 0.628289
O O6 0.687992 0.342957 0.504061
O O7 0.611392 0.283546 0.596557
O O8 0.750000 0.750000 0.232297
O O9 0.635196 0.686523 0.176088
O O10 0.723889 0.613668 0.246115
O O11 0.122710 0.751935 0.431601
O O12 0.096254 0.668711 0.540229
O O13 0.086577 0.625821 0.404913
O O14 0.000000 0.710771 0.462426
O O15 0.250000 0.250000 0.421791
O O16 0.184936 0.136911 0.370580
O O17 0.500000 0.705486 0.130278
O O18 0.301993 0.920767 0.348652
O O19 0.408508 0.000000 0.347977
O O20 0.198412 0.500000 0.824701
#
# Coordination Sequence:
#
# PCOD9368545 Si02
#       8
#    16  16  16  16  16  16  16  16
#     4  10  20  33  51  78 112 147 180 222 278 334
#     4  10  19  33  55  81 110 142 182 228 281 326
#     4  10  20  35  58  83 109 145 184 230 281 326
#     4  10  20  35  58  87 116 148 184 228 284 336
#     4  11  21  38  60  81 113 145 187 234 275 324
#     4   9  19  35  56  83 111 140 183 232 281 332
#     4  10  20  35  54  84 120 151 184 228 282 336
#     4  11  23  38  58  83 113 149 189 231 276 324
#
# _framework density 17.873654999999999
#
# number of rings (size 3 to 8) (size 9 to 14) (size 15 to 20)
#    0.000    1.875    2.500    3.000    0.000    1.750 
#    0.000    2.500    0.000    2.250    0.000    0.000 
#    0.000    0.000    0.000    0.000    0.000    0.000 
#
# Total GULP energy -178212.009118 kJ/mol
# GULP energy per Si atom -5569.125285 kJ/mol
# Density = 1.783297 g / cm^3
# Si number density = 17.873655 Si / 1000 Ang^3
#
#
#
# Elastic Constant Matrix: (Units=GPa)
#
#
# Indices 1 2 3 4 5 6 
#
# 1 82.3760 21.2492 14.2181 0.0000 0.0000 0.0000
# 2 21.2492 70.5700 37.4607 0.0000 0.0000 0.0000
# 3 14.2181 37.4607 67.8108 0.0000 0.0000 0.0000
# 4 0.0000 0.0000 0.0000 24.5753 0.0000 0.0000
# 5 0.0000 0.0000 0.0000 0.0000 20.9851 0.0000
# 6 0.0000 0.0000 0.0000 0.0000 0.0000 19.3940
#
#
#
# Elastic Compliance Matrix: (Units=1/GPa)
#
#
# Indices 1 2 3 4 5 6 
#
# 1 0.013193 -0.003543 -0.000809 0.000000 0.000000 0.000000
# 2 -0.003543 0.021001 -0.010859 0.000000 0.000000 0.000000
# 3 -0.000809 -0.010859 0.020915 0.000000 0.000000 0.000000
# 4 0.000000 0.000000 0.000000 0.040691 0.000000 0.000000
# 5 0.000000 0.000000 0.000000 0.000000 0.047653 0.000000
# 6 0.000000 0.000000 0.000000 0.000000 0.000000 0.051562
#
#
# Mechanical properties :
#
#
# Convention : Reuss Voigt Hill
#
# Bulk Modulus (GPa) = 40.50570 40.73476 40.62023
# Shear Modulus (GPa) = 21.39793 22.84613 22.12203
#
# Velocity S-wave (km/s) = 3.46378 3.57907 3.52190
# Velocity P-wave (km/s) = 6.22161 6.31819 6.27009
#
# Compressibility (1/GPa) = 0.02468788
#
# Stress axis : x y z
#
# Youngs Moduli (GPa) = 75.79747 47.61580 47.81193
#
# Poissons Ratio (x) = 0.16871 0.03867
# Poissons Ratio (y) = 0.26856 0.51919
# Poissons Ratio (z) = 0.06131 0.51706
#
# Static dielectric constant tensor:
#      x y z
#    x 1.628010 0.000000 0.000000 
#    y 0.000000 1.640340 0.000000 
#    z 0.000000 0.000000 1.642900 
# 
# From -- ./inp_files/21950.got.cif
#   From: 2010.05.17/outbox.cif.g08.bks.cpg/sg42_11_cif.got.tgz:21950.got - 2010.06.03 19:03:34.
