data_PCOD9368198
_publ_section_title
;
Structure prediction by ZEFSAII (Michael W. Deem and Ramdas Pophale) SiO2 
 PCOD9368198
Probable space group: F M M 2
;
_chemical_formula_sum "Si O2"
_cell_formula_units_Z 80
_cell_length_a 8.020204
_cell_length_b 19.829958
_cell_length_c 27.197698
_cell_angle_alpha 90.000000
_cell_angle_beta 90.000000
_cell_angle_gamma 90.000000
_cell_volume 4325.530280
_symmetry_space_group_name_H-M "F M M 2"
_symmetry_group_IT_number 42
_symmetry_cell_setting 'orthorhombic'
loop_
_space_group_symop_operation_xyz
x,y,z
-x,-y,z
-x,y,z
x,-y,z
x,1/2+y,1/2+z
-x,1/2-y,1/2+z
-x,1/2+y,1/2+z
x,1/2-y,1/2+z
1/2+x,y,1/2+z
1/2-x,-y,1/2+z
1/2-x,y,1/2+z
1/2+x,-y,1/2+z
1/2+x,1/2+y,z
1/2-x,1/2-y,z
1/2-x,1/2+y,z
1/2+x,1/2-y,z
loop_
_atom_site_type_symbol
_atom_site_label
_atom_site_fract_x
_atom_site_fract_y
_atom_site_fract_z
Si Si1 0.203836 0.577858 0.480650
Si Si2 0.703531 0.077827 0.369960
Si Si3 0.298342 0.828318 0.281632
Si Si4 0.802430 0.328183 0.567991
Si Si5 0.301262 0.828638 0.174187
O O1 0.252629 0.500000 0.488939
O O2 0.255550 0.597553 0.425270
O O3 0.266254 0.626990 0.523372
O O4 0.000000 0.579046 0.481108
O O5 0.500000 0.079205 0.369472
O O6 0.763220 0.126807 0.326892
O O7 0.752411 0.000000 0.361670
O O8 0.500000 0.831336 0.281535
O O9 0.250000 0.750000 0.287014
O O10 0.240897 0.853794 0.227556
O O11 0.750000 0.250000 0.564718
O O12 0.759629 0.356597 0.622144
O O13 0.000000 0.328774 0.564035
O O14 0.500000 0.832929 0.173614
O O15 0.250000 0.750000 0.173610
#
# Coordination Sequence:
#
# PCOD9368198 Si02
#       5
#    16  16  16  16  16
#     4   8  15  28  45  64  86 114 147 179 211 252
#     4   8  14  27  46  65  86 113 145 179 213 252
#     4   9  17  28  45  68  89 112 143 178 215 254
#     4  10  18  28  45  67  89 113 144 180 215 253
#     4   9  16  27  42  62  89 117 144 173 211 257
#
# _framework density 18.494841999999998
#
# number of rings (size 3 to 8) (size 9 to 14) (size 15 to 20)
#    0.000    3.200    0.000    3.600    0.000    1.600 
#    0.000    1.000    0.000    5.400    0.000    5.600 
#    0.000    0.000    0.000    0.000    0.000    0.000 
#
# Total GULP energy -111347.384916 kJ/mol
# GULP energy per Si atom -5567.369246 kJ/mol
# Density = 1.845275 g / cm^3
# Si number density = 18.494842 Si / 1000 Ang^3
#
#
#
# Elastic Constant Matrix: (Units=GPa)
#
#
# Indices 1 2 3 4 5 6 
#
# 1 16.9914 5.4190 14.6194 0.0000 0.0000 0.0000
# 2 5.4190 65.3457 100.5522 0.0000 0.0000 0.0000
# 3 14.6194 100.5522 230.7949 0.0000 0.0000 0.0000
# 4 0.0000 0.0000 0.0000 -14.2100 0.0000 0.0000
# 5 0.0000 0.0000 0.0000 0.0000 -9.9142 0.0000
# 6 0.0000 0.0000 0.0000 0.0000 0.0000 6.9008
#
#
#
# Elastic Compliance Matrix: (Units=1/GPa)
#
#
# Indices 1 2 3 4 5 6 
#
# 1 0.062409 0.002754 -0.005153 0.000000 0.000000 0.000000
# 2 0.002754 0.046553 -0.020456 0.000000 0.000000 0.000000
# 3 -0.005153 -0.020456 0.013572 0.000000 0.000000 0.000000
# 4 0.000000 0.000000 0.000000 -0.070373 0.000000 0.000000
# 5 0.000000 0.000000 0.000000 0.000000 -0.100866 0.000000
# 6 0.000000 0.000000 0.000000 0.000000 0.000000 0.144910
#
#
# Mechanical properties :
#
#
# Convention : Reuss Voigt Hill
#
# Bulk Modulus (GPa) = 13.01717 61.59035 37.30376
# Shear Modulus (GPa) = 29.84668 9.39142 19.61905
#
# Velocity S-wave (km/s) = 4.02155 2.25585 3.26050
# Velocity P-wave (km/s) = 5.34952 6.33710 5.86414
#
# Compressibility (1/GPa) = 0.07682163
#
# Stress axis : x y z
#
# Youngs Moduli (GPa) = 16.02346 21.48107 73.68304
#
# Poissons Ratio (x) = -0.05915 0.37968
# Poissons Ratio (y) = -0.04412 1.50729
# Poissons Ratio (z) = 0.08257 0.43942
#
# Static dielectric constant tensor:
#      x y z
#    x 1.662480 0.000000 0.000000 
#    y 0.000000 1.609640 0.000000 
#    z 0.000000 0.000000 1.693190 
# 
# From -- ./inp_files/33575.got.cif
#   From: 2010.05.17/outbox.cif.g08.bks.cpg/sg42_17_cif.got.tgz:33575.got - 2010.06.03 19:03:34.
