data_PCOD9368951
_publ_section_title
;
Structure prediction by ZEFSAII (Michael W. Deem and Ramdas Pophale) SiO2 
 PCOD9368951
Probable space group: F M M 2
;
_chemical_formula_sum "Si O2"
_cell_formula_units_Z 104
_cell_length_a 25.003773
_cell_length_b 14.051422
_cell_length_c 16.658685
_cell_angle_alpha 90.000000
_cell_angle_beta 90.000000
_cell_angle_gamma 90.000000
_cell_volume 5852.838500
_symmetry_space_group_name_H-M "F M M 2"
_symmetry_group_IT_number 42
_symmetry_cell_setting 'orthorhombic'
loop_
_space_group_symop_operation_xyz
x,y,z
-x,-y,z
-x,y,z
x,-y,z
x,1/2+y,1/2+z
-x,1/2-y,1/2+z
-x,1/2+y,1/2+z
x,1/2-y,1/2+z
1/2+x,y,1/2+z
1/2-x,-y,1/2+z
1/2-x,y,1/2+z
1/2+x,-y,1/2+z
1/2+x,1/2+y,z
1/2-x,1/2-y,z
1/2-x,1/2+y,z
1/2+x,1/2-y,z
loop_
_atom_site_type_symbol
_atom_site_label
_atom_site_fract_x
_atom_site_fract_y
_atom_site_fract_z
Si Si1 0.500000 0.386207 0.138790
Si Si2 0.000000 0.113170 0.489643
Si Si3 0.308757 0.257609 0.142141
Si Si4 0.000000 0.292605 0.810875
Si Si5 0.199586 0.890058 0.785930
Si Si6 0.915703 0.258117 0.544993
Si Si7 0.679484 0.888289 0.791315
Si Si8 0.608390 0.222871 0.362222
O O1 0.500000 0.500000 0.127914
O O2 0.500000 0.359904 0.233232
O O3 0.449586 0.334041 0.096539
O O4 0.000000 0.150178 0.396328
O O5 0.050481 0.160896 0.534824
O O6 0.000000 0.000000 0.491293
O O7 0.250000 0.250000 0.102988
O O8 0.307022 0.173772 0.207440
O O9 0.318536 0.350353 0.198987
O O10 0.357964 0.245443 0.083622
O O11 0.946184 0.229479 0.811211
O O12 0.259215 0.872592 0.820363
O O13 0.150924 0.857721 0.840894
O O14 0.196986 0.000000 0.765796
O O15 0.908399 0.290254 0.453587
O O16 0.639192 0.822164 0.841491
O O17 0.666423 0.000000 0.795323
#
# Coordination Sequence:
#
# PCOD9368951 Si02
#       8
#     8   8  16   8  16  16  16  16
#     4  11  22  37  57  77 102 135 172 218 262 303
#     4   9  20  39  57  75 104 137 172 218 258 297
#     4   9  18  33  53  77 108 140 170 211 256 301
#     4  10  21  36  57  80  98 130 183 218 251 304
#     4   9  18  34  55  77 102 138 179 212 248 301
#     4  10  22  35  51  80 109 135 170 208 261 321
#     4   9  18  34  57  80 100 132 180 221 252 293
#     4  10  20  35  53  76 107 136 167 216 261 303
#
# _framework density 17.769155999999999
#
# number of rings (size 3 to 8) (size 9 to 14) (size 15 to 20)
#    0.000    2.462    0.000    3.923    0.000    7.385 
#    0.000    0.385    0.000    3.692    0.000    0.000 
#    0.000    0.000    0.000    0.000    0.000    0.000 
#
# Total GULP energy -144868.683702 kJ/mol
# GULP energy per Si atom -5571.872450 kJ/mol
# Density = 1.772871 g / cm^3
# Si number density = 17.769156 Si / 1000 Ang^3
#
#
#
# Elastic Constant Matrix: (Units=GPa)
#
#
# Indices 1 2 3 4 5 6 
#
# 1 120.9028 14.9758 34.2447 0.0000 0.0000 0.0000
# 2 14.9758 50.5412 13.6853 0.0000 0.0000 0.0000
# 3 34.2447 13.6853 56.6508 0.0000 0.0000 0.0000
# 4 0.0000 0.0000 0.0000 7.5395 0.0000 0.0000
# 5 0.0000 0.0000 0.0000 0.0000 28.7133 0.0000
# 6 0.0000 0.0000 0.0000 0.0000 0.0000 13.7426
#
#
#
# Elastic Compliance Matrix: (Units=1/GPa)
#
#
# Indices 1 2 3 4 5 6 
#
# 1 0.010075 -0.001430 -0.005745 0.000000 0.000000 0.000000
# 2 -0.001430 0.021374 -0.004299 0.000000 0.000000 0.000000
# 3 -0.005745 -0.004299 0.022163 0.000000 0.000000 0.000000
# 4 0.000000 0.000000 0.000000 0.132635 0.000000 0.000000
# 5 0.000000 0.000000 0.000000 0.000000 0.034827 0.000000
# 6 0.000000 0.000000 0.000000 0.000000 0.000000 0.072767
#
#
# Mechanical properties :
#
#
# Convention : Reuss Voigt Hill
#
# Bulk Modulus (GPa) = 32.61088 39.32294 35.96691
# Shear Modulus (GPa) = 15.29002 21.01166 18.15084
#
# Velocity S-wave (km/s) = 2.93658 3.44245 3.19953
# Velocity P-wave (km/s) = 5.46721 6.16267 5.82533
#
# Compressibility (1/GPa) = 0.03066461
#
# Stress axis : x y z
#
# Youngs Moduli (GPa) = 99.25107 46.78679 45.11956
#
# Poissons Ratio (x) = 0.06690 0.25922
# Poissons Ratio (y) = 0.14191 0.19397
# Poissons Ratio (z) = 0.57021 0.20114
#
# Static dielectric constant tensor:
#      x y z
#    x 1.659670 0.000000 0.000000 
#    y 0.000000 1.591220 0.000000 
#    z 0.000000 0.000000 1.601460 
# 
# From -- ./inp_files/22246.got.cif
#   From: 2010.05.17/outbox.cif.g08.bks.cpg/sg42_12_cif.got.tgz:22246.got - 2010.06.03 19:03:34.
