data_PCOD9368565
_publ_section_title
;
Structure prediction by ZEFSAII (Michael W. Deem and Ramdas Pophale) SiO2 
 PCOD9368565
Probable space group: F M M 2
;
_chemical_formula_sum "Si O2"
_cell_formula_units_Z 64
_cell_length_a 14.568251
_cell_length_b 13.253913
_cell_length_c 14.319389
_cell_angle_alpha 90.000000
_cell_angle_beta 90.000000
_cell_angle_gamma 90.000000
_cell_volume 2764.878289
_symmetry_space_group_name_H-M "F M M 2"
_symmetry_group_IT_number 42
_symmetry_cell_setting 'orthorhombic'
loop_
_space_group_symop_operation_xyz
x,y,z
-x,-y,z
-x,y,z
x,-y,z
x,1/2+y,1/2+z
-x,1/2-y,1/2+z
-x,1/2+y,1/2+z
x,1/2-y,1/2+z
1/2+x,y,1/2+z
1/2-x,-y,1/2+z
1/2-x,y,1/2+z
1/2+x,-y,1/2+z
1/2+x,1/2+y,z
1/2-x,1/2-y,z
1/2-x,1/2+y,z
1/2+x,1/2-y,z
loop_
_atom_site_type_symbol
_atom_site_label
_atom_site_fract_x
_atom_site_fract_y
_atom_site_fract_z
Si Si1 0.104592 0.248821 0.997570
Si Si2 0.297995 0.881483 0.846954
Si Si3 0.891368 0.887219 0.158037
Si Si4 0.097517 0.880501 0.820970
O O1 0.168813 0.324523 0.939665
O O2 0.096189 0.151507 0.929532
O O3 0.000000 0.290113 0.008045
O O4 0.142034 0.204172 0.093706
O O5 0.373712 0.869119 0.766963
O O6 0.201508 0.848873 0.798734
O O7 0.288933 0.000000 0.868874
O O8 0.000000 0.891137 0.140535
O O9 0.852888 0.000000 0.136786
O O10 0.000000 0.840226 0.780411
O O11 0.094882 0.000000 0.807472
#
# Coordination Sequence:
#
# PCOD9368565 Si02
#       4
#    16  16  16  16
#     4  10  19  33  57  86 117 153 192 238 291 348
#     4  10  20  35  58  88 120 154 195 244 293 345
#     4   9  18  34  58  88 119 155 201 244 285 346
#     4   9  18  34  56  82 113 152 197 242 291 345
#
# _framework density 23.147493000000001
#
# number of rings (size 3 to 8) (size 9 to 14) (size 15 to 20)
#    0.000    2.500    0.000    2.250    0.000    4.500 
#    0.000    5.000    0.000   10.500    0.000    7.000 
#    0.000   12.000    0.000    0.000    0.000    0.500 
#
# Total GULP energy -89176.987764 kJ/mol
# GULP energy per Si atom -5573.561735 kJ/mol
# Density = 2.309481 g / cm^3
# Si number density = 23.147493 Si / 1000 Ang^3
#
#
#
# Elastic Constant Matrix: (Units=GPa)
#
#
# Indices 1 2 3 4 5 6 
#
# 1 117.7526 54.6338 19.1813 0.0000 0.0000 0.0000
# 2 54.6338 108.1780 44.1998 0.0000 0.0000 0.0000
# 3 19.1813 44.1998 73.8669 0.0000 0.0000 0.0000
# 4 0.0000 0.0000 0.0000 36.8968 0.0000 0.0000
# 5 0.0000 0.0000 0.0000 0.0000 8.6657 0.0000
# 6 0.0000 0.0000 0.0000 0.0000 0.0000 34.3050
#
#
#
# Elastic Compliance Matrix: (Units=1/GPa)
#
#
# Indices 1 2 3 4 5 6 
#
# 1 0.011113 -0.005868 0.000626 0.000000 0.000000 0.000000
# 2 -0.005868 0.015334 -0.007652 0.000000 0.000000 0.000000
# 3 0.000626 -0.007652 0.017954 0.000000 0.000000 0.000000
# 4 0.000000 0.000000 0.000000 0.027103 0.000000 0.000000
# 5 0.000000 0.000000 0.000000 0.000000 0.115398 0.000000
# 6 0.000000 0.000000 0.000000 0.000000 0.000000 0.029150
#
#
# Mechanical properties :
#
#
# Convention : Reuss Voigt Hill
#
# Bulk Modulus (GPa) = 53.72700 59.53639 56.63169
# Shear Modulus (GPa) = 20.15771 28.09234 24.12503
#
# Velocity S-wave (km/s) = 2.95420 3.48749 3.23186
# Velocity P-wave (km/s) = 5.90741 6.48021 6.20043
#
# Compressibility (1/GPa) = 0.01861262
#
# Stress axis : x y z
#
# Youngs Moduli (GPa) = 89.98378 65.21475 55.69811
#
# Poissons Ratio (x) = 0.38269 -0.03484
# Poissons Ratio (y) = 0.52803 0.42618
# Poissons Ratio (z) = -0.05629 0.49900
#
# Static dielectric constant tensor:
#      x y z
#    x 1.959430 0.000000 0.000000 
#    y 0.000000 1.955460 0.000000 
#    z 0.000000 0.000000 1.814000 
# 
# From -- ./inp_files/12583.got.cif
#   From: 2010.05.17/outbox.cif.g08.bks.cpg/sg42_7_cif.got.tgz:12583.got - 2010.06.03 19:03:34.
