data_PCOD9368560
_publ_section_title
;
Structure prediction by ZEFSAII (Michael W. Deem and Ramdas Pophale) SiO2 
 PCOD9368560
Probable space group: F M M 2
;
_chemical_formula_sum "Si O2"
_cell_formula_units_Z 96
_cell_length_a 17.041121
_cell_length_b 27.894781
_cell_length_c 10.048898
_cell_angle_alpha 90.000000
_cell_angle_beta 90.000000
_cell_angle_gamma 90.000000
_cell_volume 4776.827455
_symmetry_space_group_name_H-M "F M M 2"
_symmetry_group_IT_number 42
_symmetry_cell_setting 'orthorhombic'
loop_
_space_group_symop_operation_xyz
x,y,z
-x,-y,z
-x,y,z
x,-y,z
x,1/2+y,1/2+z
-x,1/2-y,1/2+z
-x,1/2+y,1/2+z
x,1/2-y,1/2+z
1/2+x,y,1/2+z
1/2-x,-y,1/2+z
1/2-x,y,1/2+z
1/2+x,-y,1/2+z
1/2+x,1/2+y,z
1/2-x,1/2-y,z
1/2-x,1/2+y,z
1/2+x,1/2-y,z
loop_
_atom_site_type_symbol
_atom_site_label
_atom_site_fract_x
_atom_site_fract_y
_atom_site_fract_z
Si Si1 0.910375 0.295965 0.899280
Si Si2 0.143799 0.555242 0.273811
Si Si3 0.663312 0.727443 0.113621
Si Si4 0.166379 0.551435 0.742920
Si Si5 0.359978 0.600777 0.499139
Si Si6 0.172458 0.878878 0.016120
O O1 0.860937 0.282714 0.766741
O O2 0.000000 0.287846 0.862202
O O3 0.888271 0.264061 0.027435
O O4 0.898159 0.350705 0.945790
O O5 0.117024 0.500000 0.294283
O O6 0.238812 0.551938 0.255632
O O7 0.112760 0.579992 0.139745
O O8 0.133507 0.592477 0.394460
O O9 0.750000 0.750000 0.114344
O O10 0.660326 0.677336 0.033154
O O11 0.143935 0.500000 0.685212
O O12 0.143613 0.594815 0.648873
O O13 0.132264 0.559991 0.888053
O O14 0.266509 0.612595 0.507879
#
# Coordination Sequence:
#
# PCOD9368560 Si02
#       6
#    16  16  16  16  16  16
#     4  12  27  44  62  92 129 169 211 264 326 383
#     4   9  18  30  53  90 126 155 196 257 313 363
#     4  12  25  42  68  94 123 168 218 270 315 378
#     4   9  16  29  51  82 122 157 195 253 310 364
#     4  10  19  33  56  85 123 159 202 247 309 376
#     4  10  19  33  56  91 121 155 203 256 311 362
#
# _framework density 20.097021000000002
#
# number of rings (size 3 to 8) (size 9 to 14) (size 15 to 20)
#    0.000    1.667    3.333    2.000    2.333    4.000 
#    0.000    0.000    0.000    2.000    0.000    0.000 
#    0.000    0.000    0.000    0.000    0.000    0.000 
#
# Total GULP energy -133909.860401 kJ/mol
# GULP energy per Si atom -5579.577517 kJ/mol
# Density = 2.005128 g / cm^3
# Si number density = 20.097021 Si / 1000 Ang^3
#
#
#
# Elastic Constant Matrix: (Units=GPa)
#
#
# Indices 1 2 3 4 5 6 
#
# 1 20.0142 18.5022 13.8788 0.0000 0.0000 0.0000
# 2 18.5022 136.3380 35.9136 0.0000 0.0000 0.0000
# 3 13.8788 35.9136 105.2707 0.0000 0.0000 0.0000
# 4 0.0000 0.0000 0.0000 32.7466 0.0000 0.0000
# 5 0.0000 0.0000 0.0000 0.0000 6.9969 0.0000
# 6 0.0000 0.0000 0.0000 0.0000 0.0000 1.4631
#
#
#
# Elastic Compliance Matrix: (Units=1/GPa)
#
#
# Indices 1 2 3 4 5 6 
#
# 1 0.060035 -0.006661 -0.005643 0.000000 0.000000 0.000000
# 2 -0.006661 0.008798 -0.002123 0.000000 0.000000 0.000000
# 3 -0.005643 -0.002123 0.010968 0.000000 0.000000 0.000000
# 4 0.000000 0.000000 0.000000 0.030537 0.000000 0.000000
# 5 0.000000 0.000000 0.000000 0.000000 0.142920 0.000000
# 6 0.000000 0.000000 0.000000 0.000000 0.000000 0.683501
#
#
# Mechanical properties :
#
#
# Convention : Reuss Voigt Hill
#
# Bulk Modulus (GPa) = 19.62818 44.24579 31.93699
# Shear Modulus (GPa) = 5.08856 21.12987 13.10922
#
# Velocity S-wave (km/s) = 1.59295 3.24604 2.55678
# Velocity P-wave (km/s) = 3.62922 6.00940 4.96408
#
# Compressibility (1/GPa) = 0.05094716
#
# Stress axis : x y z
#
# Youngs Moduli (GPa) = 16.65690 113.66267 91.17762
#
# Poissons Ratio (x) = 0.75710 0.51448
# Poissons Ratio (y) = 0.11095 0.19360
# Poissons Ratio (z) = 0.09399 0.24134
#
# Static dielectric constant tensor:
#      x y z
#    x 1.704730 0.000000 0.000000 
#    y 0.000000 1.792410 0.000000 
#    z 0.000000 0.000000 1.704210 
# 
# From -- ./inp_files/4190.got.cif
#   From: 2010.05.17/outbox.cif.g08.bks.cpg/sg42_3_cif.got.tgz:4190.got - 2010.06.03 19:03:34.
