data_PCOD9368195
_publ_section_title
;
Structure prediction by ZEFSAII (Michael W. Deem and Ramdas Pophale) SiO2 
 PCOD9368195
Probable space group: F M M 2
;
_chemical_formula_sum "Si O2"
_cell_formula_units_Z 96
_cell_length_a 26.411353
_cell_length_b 7.654645
_cell_length_c 24.375967
_cell_angle_alpha 90.000000
_cell_angle_beta 90.000000
_cell_angle_gamma 90.000000
_cell_volume 4928.077821
_symmetry_space_group_name_H-M "F M M 2"
_symmetry_group_IT_number 42
_symmetry_cell_setting 'orthorhombic'
loop_
_space_group_symop_operation_xyz
x,y,z
-x,-y,z
-x,y,z
x,-y,z
x,1/2+y,1/2+z
-x,1/2-y,1/2+z
-x,1/2+y,1/2+z
x,1/2-y,1/2+z
1/2+x,y,1/2+z
1/2-x,-y,1/2+z
1/2-x,y,1/2+z
1/2+x,-y,1/2+z
1/2+x,1/2+y,z
1/2-x,1/2-y,z
1/2-x,1/2+y,z
1/2+x,1/2-y,z
loop_
_atom_site_type_symbol
_atom_site_label
_atom_site_fract_x
_atom_site_fract_y
_atom_site_fract_z
Si Si1 0.691716 0.207078 0.356240
Si Si2 0.598580 0.303533 0.042323
Si Si3 0.439999 0.297689 0.428161
Si Si4 0.000000 0.786312 0.232754
Si Si5 0.000000 0.785204 0.105998
Si Si6 0.191656 0.789613 0.981775
Si Si7 0.090588 0.792894 0.310298
O O1 0.750000 0.250000 0.343563
O O2 0.681369 0.275110 0.418922
O O3 0.651094 0.269152 0.311074
O O4 0.687185 0.000000 0.358962
O O5 0.606372 0.500000 0.064395
O O6 0.552157 0.224115 0.076945
O O7 0.577909 0.307961 0.980267
O O8 0.653511 0.221749 0.028908
O O9 0.500000 0.302461 0.428372
O O10 0.422469 0.500000 0.433697
O O11 0.423912 0.220744 0.370019
O O12 0.948867 0.727879 0.264633
O O13 0.000000 0.734247 0.169457
O O14 0.000000 0.000000 0.232379
O O15 0.000000 0.000000 0.101191
O O16 0.250000 0.750000 0.993271
O O17 0.185622 0.000000 0.980755
O O18 0.080825 0.000000 0.312805
#
# Coordination Sequence:
#
# PCOD9368195 Si02
#       7
#    16  16  16   8   8  16  16
#     4  10  19  31  47  71 103 134 163 197 242 294
#     4  10  18  30  48  71  97 126 160 199 239 288
#     4  10  18  27  42  69  99 128 156 190 241 298
#     4   9  18  33  51  73  97 129 170 207 244 288
#     4   9  18  31  51  73  95 125 164 207 246 284
#     4   9  18  29  43  67  98 128 156 189 230 284
#     4  10  18  30  49  71  99 131 166 203 240 290
#
# _framework density 19.480212000000002
#
# number of rings (size 3 to 8) (size 9 to 14) (size 15 to 20)
#    0.000    2.333    3.333    0.500    0.000    1.333 
#    0.000    0.417    0.000    3.000    0.000    2.333 
#    0.000    0.000    0.000    0.000    0.000    0.000 
#
# Total GULP energy -133662.640191 kJ/mol
# GULP energy per Si atom -5569.276675 kJ/mol
# Density = 1.943587 g / cm^3
# Si number density = 19.480212 Si / 1000 Ang^3
#
#
#
# Elastic Constant Matrix: (Units=GPa)
#
#
# Indices 1 2 3 4 5 6 
#
# 1 171.3254 2.1481 72.7414 0.0000 0.0000 -0.0002
# 2 2.1481 40.9645 3.7542 0.0004 -0.0001 -0.0003
# 3 72.7414 3.7542 103.4168 0.0001 0.0000 0.0000
# 4 0.0000 0.0004 0.0001 12.3743 -0.0001 -0.0001
# 5 0.0000 -0.0001 0.0000 -0.0001 12.0876 0.0000
# 6 -0.0002 -0.0003 0.0000 -0.0001 0.0000 13.2436
#
#
#
# Elastic Compliance Matrix: (Units=1/GPa)
#
#
# Indices 1 2 3 4 5 6 
#
# 1 0.008323 0.000100 -0.005858 0.000000 0.000000 0.000000
# 2 0.000100 0.024494 -0.000960 -0.000001 0.000000 0.000001
# 3 -0.005858 -0.000960 0.013825 0.000000 0.000000 0.000000
# 4 0.000000 -0.000001 0.000000 0.080812 0.000000 0.000000
# 5 0.000000 0.000000 0.000000 0.000000 0.082729 0.000000
# 6 0.000000 0.000001 0.000000 0.000000 0.000000 0.075508
#
#
# Mechanical properties :
#
#
# Convention : Reuss Voigt Hill
#
# Bulk Modulus (GPa) = 30.11390 52.55491 41.33440
# Shear Modulus (GPa) = 16.11895 23.34532 19.73213
#
# Velocity S-wave (km/s) = 2.87967 3.46556 3.18611
# Velocity P-wave (km/s) = 5.15256 6.56130 5.89914
#
# Compressibility (1/GPa) = 0.03320726
#
# Stress axis : x y z
#
# Youngs Moduli (GPa) = 120.15459 40.82617 72.33491
#
# Poissons Ratio (x) = -0.00410 0.42371
# Poissons Ratio (y) = -0.01206 0.06943
# Poissons Ratio (z) = 0.70382 0.03918
#
# Static dielectric constant tensor:
#      x y z
#    x 1.775550 0.000000 0.000000 
#    y 0.000000 1.721030 0.000000 
#    z 0.000000 0.000000 1.653640 
# 
# From -- ./inp_files/24528.got.cif
#   From: 2010.05.17/outbox.cif.g08.bks.cpg/sg42_13_cif.got.tgz:24528.got - 2010.06.03 19:03:34.
