data_PCOD9368199
_publ_section_title
;
Structure prediction by ZEFSAII (Michael W. Deem and Ramdas Pophale) SiO2 
 PCOD9368199
Probable space group: F M M 2
;
_chemical_formula_sum "Si O2"
_cell_formula_units_Z 96
_cell_length_a 18.844459
_cell_length_b 20.418567
_cell_length_c 14.221287
_cell_angle_alpha 90.000000
_cell_angle_beta 90.000000
_cell_angle_gamma 90.000000
_cell_volume 5472.021996
_symmetry_space_group_name_H-M "F M M 2"
_symmetry_group_IT_number 42
_symmetry_cell_setting 'orthorhombic'
loop_
_space_group_symop_operation_xyz
x,y,z
-x,-y,z
-x,y,z
x,-y,z
x,1/2+y,1/2+z
-x,1/2-y,1/2+z
-x,1/2+y,1/2+z
x,1/2-y,1/2+z
1/2+x,y,1/2+z
1/2-x,-y,1/2+z
1/2-x,y,1/2+z
1/2+x,-y,1/2+z
1/2+x,1/2+y,z
1/2-x,1/2-y,z
1/2-x,1/2+y,z
1/2+x,1/2-y,z
loop_
_atom_site_type_symbol
_atom_site_label
_atom_site_fract_x
_atom_site_fract_y
_atom_site_fract_z
Si Si1 0.722631 0.325435 0.074870
Si Si2 0.917958 0.793843 0.174986
Si Si3 0.082654 0.193555 0.398582
Si Si4 0.858174 0.853141 0.686296
Si Si5 0.308720 0.196818 0.377702
Si Si6 0.916061 0.571935 0.025465
O O1 0.750000 0.250000 0.078182
O O2 0.644286 0.330048 0.118557
O O3 0.781986 0.360379 0.135935
O O4 0.722163 0.342572 0.965134
O O5 0.912276 0.813582 0.285391
O O6 0.897200 0.716760 0.167088
O O7 0.000000 0.803511 0.145902
O O8 0.129818 0.256803 0.420348
O O9 0.108641 0.131078 0.457724
O O10 0.000000 0.205087 0.421361
O O11 0.840533 0.847686 0.796171
O O12 0.904027 0.907416 0.633702
O O13 0.250000 0.250000 0.340263
O O14 0.885417 0.500000 0.006146
O O15 0.000000 0.568699 0.008227
#
# Coordination Sequence:
#
# PCOD9368199 Si02
#       6
#    16  16  16  16  16  16
#     4   9  17  27  43  66  94 126 152 185 233 284
#     4   9  16  27  45  70  98 124 151 192 244 288
#     4   9  17  28  44  68  95 121 155 197 237 277
#     4  10  18  29  45  66  94 124 157 195 237 282
#     4  10  18  28  45  70  97 125 153 192 242 288
#     4  10  20  33  49  69  95 129 164 195 229 275
#
# _framework density 17.543787999999999
#
# number of rings (size 3 to 8) (size 9 to 14) (size 15 to 20)
#    0.000    2.500    0.000    6.000    0.000    2.667 
#    0.000    0.000    0.000    9.000    0.000    0.000 
#    0.000    2.667    0.000    0.000    0.000    0.000 
#
# Total GULP energy -133652.204885 kJ/mol
# GULP energy per Si atom -5568.841870 kJ/mol
# Density = 1.750386 g / cm^3
# Si number density = 17.543788 Si / 1000 Ang^3
#
#
#
# Elastic Constant Matrix: (Units=GPa)
#
#
# Indices 1 2 3 4 5 6 
#
# 1 88.8118 11.5214 22.4502 0.0000 0.0000 0.0000
# 2 11.5214 47.0018 34.1025 0.0000 0.0000 0.0000
# 3 22.4502 34.1025 71.5933 0.0000 0.0000 0.0000
# 4 0.0000 0.0000 0.0000 10.1759 0.0000 0.0000
# 5 0.0000 0.0000 0.0000 0.0000 29.6335 0.0000
# 6 0.0000 0.0000 0.0000 0.0000 0.0000 8.4061
#
#
#
# Elastic Compliance Matrix: (Units=1/GPa)
#
#
# Indices 1 2 3 4 5 6 
#
# 1 0.012232 -0.000329 -0.003679 0.000000 0.000000 0.000000
# 2 -0.000329 0.032521 -0.015388 0.000000 0.000000 0.000000
# 3 -0.003679 -0.015388 0.022451 0.000000 0.000000 0.000000
# 4 0.000000 0.000000 0.000000 0.098271 0.000000 0.000000
# 5 0.000000 0.000000 0.000000 0.000000 0.033746 0.000000
# 6 0.000000 0.000000 0.000000 0.000000 0.000000 0.118961
#
#
# Mechanical properties :
#
#
# Convention : Reuss Voigt Hill
#
# Bulk Modulus (GPa) = 35.19532 38.17279 36.68405
# Shear Modulus (GPa) = 13.64460 18.93197 16.28828
#
# Velocity S-wave (km/s) = 2.79183 3.28857 3.05033
# Velocity P-wave (km/s) = 5.52245 6.01875 5.77593
#
# Compressibility (1/GPa) = 0.02841287
#
# Stress axis : x y z
#
# Youngs Moduli (GPa) = 81.74957 30.74920 44.54098
#
# Poissons Ratio (x) = 0.01012 0.16387
# Poissons Ratio (y) = 0.02691 0.68539
# Poissons Ratio (z) = 0.30076 0.47316
#
# Static dielectric constant tensor:
#      x y z
#    x 1.649820 0.000000 0.000000 
#    y 0.000000 1.598850 0.000000 
#    z 0.000000 0.000000 1.639010 
# 
# From -- ./inp_files/16057.got.cif
#   From: 2010.05.17/outbox.cif.g08.bks.cpg/sg42_9_cif.got.tgz:16057.got - 2010.06.03 19:03:34.
