data_PCOD9368347
_publ_section_title
;
Structure prediction by ZEFSAII (Michael W. Deem and Ramdas Pophale) SiO2 
 PCOD9368347
Probable space group: F M M 2
;
_chemical_formula_sum "Si O2"
_cell_formula_units_Z 96
_cell_length_a 22.483972
_cell_length_b 8.457776
_cell_length_c 23.563985
_cell_angle_alpha 90.000000
_cell_angle_beta 90.000000
_cell_angle_gamma 90.000000
_cell_volume 4481.031040
_symmetry_space_group_name_H-M "F M M 2"
_symmetry_group_IT_number 42
_symmetry_cell_setting 'orthorhombic'
loop_
_space_group_symop_operation_xyz
x,y,z
-x,-y,z
-x,y,z
x,-y,z
x,1/2+y,1/2+z
-x,1/2-y,1/2+z
-x,1/2+y,1/2+z
x,1/2-y,1/2+z
1/2+x,y,1/2+z
1/2-x,-y,1/2+z
1/2-x,y,1/2+z
1/2+x,-y,1/2+z
1/2+x,1/2+y,z
1/2-x,1/2-y,z
1/2-x,1/2+y,z
1/2+x,1/2-y,z
loop_
_atom_site_type_symbol
_atom_site_label
_atom_site_fract_x
_atom_site_fract_y
_atom_site_fract_z
Si Si1 0.500000 0.182387 0.705770
Si Si2 0.629243 0.691752 0.209680
Si Si3 0.813401 0.688253 0.597147
Si Si4 0.500000 0.323125 0.824415
Si Si5 0.898540 0.684319 0.418480
Si Si6 0.315918 0.810542 0.324888
Si Si7 0.066912 0.186614 0.538072
O O1 0.564001 0.251223 0.689666
O O2 0.500000 0.197290 0.774404
O O3 0.500000 0.000000 0.687460
O O4 0.627061 0.500000 0.211567
O O5 0.676966 0.740631 0.162587
O O6 0.645094 0.751997 0.271845
O O7 0.811053 0.500000 0.595436
O O8 0.750000 0.750000 0.574984
O O9 0.874274 0.739755 0.566369
O O10 0.500000 0.500000 0.798147
O O11 0.555255 0.311713 0.866568
O O12 0.892202 0.500000 0.436465
O O13 0.839325 0.743106 0.386818
O O14 0.923072 0.780855 0.471150
O O15 0.250000 0.750000 0.315168
O O16 0.318241 0.000000 0.325294
O O17 0.000000 0.247998 0.553604
O O18 0.067213 0.000000 0.549204
#
# Coordination Sequence:
#
# PCOD9368347 Si02
#       7
#     8  16  16   8  16  16  16
#     4  10  20  34  57  92 129 161 200 250 306 369
#     4  10  22  39  62  92 126 163 204 253 310 373
#     4  11  25  45  69  92 124 168 214 265 320 381
#     4  10  18  34  57  86 121 157 198 240 294 359
#     4  10  21  38  61  88 121 161 203 249 306 369
#     4  11  23  38  59  88 124 165 208 252 304 367
#     4  11  25  43  66  97 129 164 211 266 321 378
#
# _framework density 21.423641
#
# number of rings (size 3 to 8) (size 9 to 14) (size 15 to 20)
#    0.000    1.500    2.500    2.000    1.167    6.333 
#    0.000    1.667    0.000    0.000    0.000    0.000 
#    0.000    0.000    0.000    0.000    0.000    0.000 
#
# Total GULP energy -133983.304985 kJ/mol
# GULP energy per Si atom -5582.637708 kJ/mol
# Density = 2.137488 g / cm^3
# Si number density = 21.423641 Si / 1000 Ang^3
#
#
#
# Elastic Constant Matrix: (Units=GPa)
#
#
# Indices 1 2 3 4 5 6 
#
# 1 166.2692 25.5186 34.3380 0.0000 0.0000 0.0000
# 2 25.5186 35.4939 10.2406 0.0000 0.0000 0.0000
# 3 34.3380 10.2406 48.7136 0.0000 0.0000 0.0000
# 4 0.0000 0.0000 0.0000 25.2055 0.0000 0.0000
# 5 0.0000 0.0000 0.0000 0.0000 30.0541 0.0000
# 6 0.0000 0.0000 0.0000 0.0000 0.0000 22.6957
#
#
#
# Elastic Compliance Matrix: (Units=1/GPa)
#
#
# Indices 1 2 3 4 5 6 
#
# 1 0.007575 -0.004158 -0.004465 0.000000 0.000000 0.000000
# 2 -0.004158 0.032275 -0.003854 0.000000 0.000000 0.000000
# 3 -0.004465 -0.003854 0.024486 0.000000 0.000000 0.000000
# 4 0.000000 0.000000 0.000000 0.039674 0.000000 0.000000
# 5 0.000000 0.000000 0.000000 0.000000 0.033273 0.000000
# 6 0.000000 0.000000 0.000000 0.000000 0.000000 0.044061
#
#
# Mechanical properties :
#
#
# Convention : Reuss Voigt Hill
#
# Bulk Modulus (GPa) = 25.39271 43.40791 34.40031
# Shear Modulus (GPa) = 22.78679 27.61634 25.20157
#
# Velocity S-wave (km/s) = 3.26487 3.59424 3.43351
# Velocity P-wave (km/s) = 5.10792 6.12621 5.64009
#
# Compressibility (1/GPa) = 0.03938138
#
# Stress axis : x y z
#
# Youngs Moduli (GPa) = 132.02000 30.98373 40.83971
#
# Poissons Ratio (x) = 0.12882 0.18236
# Poissons Ratio (y) = 0.54887 0.15741
# Poissons Ratio (z) = 0.58951 0.11942
#
# Static dielectric constant tensor:
#      x y z
#    x 1.847450 0.000000 0.000000 
#    y 0.000000 1.743820 0.000000 
#    z 0.000000 0.000000 1.760770 
# 
# From -- ./inp_files/30462.got.cif
#   From: 2010.05.17/outbox.cif.g08.bks.cpg/sg42_16_cif.got.tgz:30462.got - 2010.06.03 19:03:34.
