data_PCOD9368393
_publ_section_title
;
Structure prediction by ZEFSAII (Michael W. Deem and Ramdas Pophale) SiO2 
 PCOD9368393
Probable space group: F M M 2
;
_chemical_formula_sum "Si O2"
_cell_formula_units_Z 96
_cell_length_a 27.555854
_cell_length_b 8.605989
_cell_length_c 23.635201
_cell_angle_alpha 90.000000
_cell_angle_beta 90.000000
_cell_angle_gamma 90.000000
_cell_volume 5604.978638
_symmetry_space_group_name_H-M "F M M 2"
_symmetry_group_IT_number 42
_symmetry_cell_setting 'orthorhombic'
loop_
_space_group_symop_operation_xyz
x,y,z
-x,-y,z
-x,y,z
x,-y,z
x,1/2+y,1/2+z
-x,1/2-y,1/2+z
-x,1/2+y,1/2+z
x,1/2-y,1/2+z
1/2+x,y,1/2+z
1/2-x,-y,1/2+z
1/2-x,y,1/2+z
1/2+x,-y,1/2+z
1/2+x,1/2+y,z
1/2-x,1/2-y,z
1/2-x,1/2+y,z
1/2+x,1/2-y,z
loop_
_atom_site_type_symbol
_atom_site_label
_atom_site_fract_x
_atom_site_fract_y
_atom_site_fract_z
Si Si1 0.799108 0.174723 0.750000
Si Si2 0.197665 0.685225 0.562561
Si Si3 0.631808 0.317587 0.336568
Si Si4 0.943885 0.812081 0.243212
Si Si5 0.697369 0.187795 0.935419
Si Si6 0.623533 0.175361 0.149721
O O1 0.750000 0.250000 0.729711
O O2 0.822255 0.287094 0.796331
O O3 0.835836 0.166339 0.698388
O O4 0.792427 0.000000 0.772713
O O5 0.201223 0.500000 0.560847
O O6 0.250000 0.750000 0.584030
O O7 0.191961 0.752819 0.499388
O O8 0.151319 0.735438 0.599790
O O9 0.622209 0.500000 0.344041
O O10 0.587290 0.254498 0.298055
O O11 0.651990 0.257826 0.396609
O O12 0.920578 0.753130 0.184332
O O13 0.000000 0.767130 0.247956
O O14 0.940510 0.000000 0.242987
O O15 0.750000 0.250000 0.914778
O O16 0.698954 0.000000 0.934560
O O17 0.610818 0.000000 0.131706
#
# Coordination Sequence:
#
# PCOD9368393 Si02
#       6
#    16  16  16  16  16  16
#     4  10  19  28  42  65  94 126 156 192 237 287
#     4  11  21  33  50  72 100 135 171 205 244 290
#     4   9  18  31  48  70  96 127 162 200 242 291
#     4   9  18  34  55  77 100 127 161 204 255 305
#     4  10  19  31  47  69  99 134 169 203 240 286
#     4  10  20  33  49  71  98 128 164 204 246 294
#
# _framework density 17.12763
#
# number of rings (size 3 to 8) (size 9 to 14) (size 15 to 20)
#    0.000    2.167    0.000    5.000    0.000    6.333 
#    0.000    0.000    0.000    1.000    0.000    2.333 
#    0.000    0.000    0.000    0.000    0.000    0.000 
#
# Total GULP energy -133653.198431 kJ/mol
# GULP energy per Si atom -5568.883268 kJ/mol
# Density = 1.708865 g / cm^3
# Si number density = 17.127630 Si / 1000 Ang^3
#
#
#
# Elastic Constant Matrix: (Units=GPa)
#
#
# Indices 1 2 3 4 5 6 
#
# 1 105.1920 36.3441 52.9890 0.0000 0.0000 0.0000
# 2 36.3441 41.6927 15.1576 0.0000 0.0000 0.0000
# 3 52.9890 15.1576 80.5301 0.0000 0.0000 0.0000
# 4 0.0000 0.0000 0.0000 9.6959 0.0000 0.0000
# 5 0.0000 0.0000 0.0000 0.0000 24.6257 0.0000
# 6 0.0000 0.0000 0.0000 0.0000 0.0000 18.2304
#
#
#
# Elastic Compliance Matrix: (Units=1/GPa)
#
#
# Indices 1 2 3 4 5 6 
#
# 1 0.019076 -0.012952 -0.010114 0.000000 0.000000 0.000000
# 2 -0.012952 0.034541 0.002021 0.000000 0.000000 0.000000
# 3 -0.010114 0.002021 0.018693 0.000000 0.000000 0.000000
# 4 0.000000 0.000000 0.000000 0.103137 0.000000 0.000000
# 5 0.000000 0.000000 0.000000 0.000000 0.040608 0.000000
# 6 0.000000 0.000000 0.000000 0.000000 0.000000 0.054853
#
#
# Mechanical properties :
#
#
# Convention : Reuss Voigt Hill
#
# Bulk Modulus (GPa) = 33.09177 48.48847 40.79012
# Shear Modulus (GPa) = 15.47647 18.70535 17.09091
#
# Velocity S-wave (km/s) = 3.00925 3.30830 3.16231
# Velocity P-wave (km/s) = 5.60685 6.55475 6.09924
#
# Compressibility (1/GPa) = 0.03021900
#
# Stress axis : x y z
#
# Youngs Moduli (GPa) = 52.42089 28.95146 53.49697
#
# Poissons Ratio (x) = 0.37498 0.54109
# Poissons Ratio (y) = 0.67895 -0.10812
# Poissons Ratio (z) = 0.53021 -0.05851
#
# Static dielectric constant tensor:
#      x y z
#    x 1.597110 0.000000 0.000000 
#    y 0.000000 1.613570 0.000000 
#    z 0.000000 0.000000 1.598780 
# 
# From -- ./inp_files/27031.got.cif
#   From: 2010.05.17/outbox.cif.g08.bks.cpg/sg42_14_cif.got.tgz:27031.got - 2010.06.03 19:03:34.
