data_PCOD9368874
_publ_section_title
;
Structure prediction by ZEFSAII (Michael W. Deem and Ramdas Pophale) SiO2 
 PCOD9368874
Probable space group: F M M 2
;
_chemical_formula_sum "Si O2"
_cell_formula_units_Z 96
_cell_length_a 8.393251
_cell_length_b 29.078521
_cell_length_c 21.217568
_cell_angle_alpha 90.000000
_cell_angle_beta 90.000000
_cell_angle_gamma 90.000000
_cell_volume 5178.430204
_symmetry_space_group_name_H-M "F M M 2"
_symmetry_group_IT_number 42
_symmetry_cell_setting 'orthorhombic'
loop_
_space_group_symop_operation_xyz
x,y,z
-x,-y,z
-x,y,z
x,-y,z
x,1/2+y,1/2+z
-x,1/2-y,1/2+z
-x,1/2+y,1/2+z
x,1/2-y,1/2+z
1/2+x,y,1/2+z
1/2-x,-y,1/2+z
1/2-x,y,1/2+z
1/2+x,-y,1/2+z
1/2+x,1/2+y,z
1/2-x,1/2-y,z
1/2-x,1/2+y,z
1/2+x,1/2-y,z
loop_
_atom_site_type_symbol
_atom_site_label
_atom_site_fract_x
_atom_site_fract_y
_atom_site_fract_z
Si Si1 0.192499 0.948406 0.837600
Si Si2 0.809200 0.552258 0.980093
Si Si3 0.805410 0.646029 0.282887
Si Si4 0.690874 0.697586 0.656747
Si Si5 0.692378 0.197957 0.409793
Si Si6 0.690745 0.643634 0.034492
O O1 0.244669 0.938618 0.909447
O O2 0.245840 0.906825 0.792867
O O3 0.000000 0.948713 0.837006
O O4 0.248438 0.000000 0.821172
O O5 0.760699 0.500000 0.996704
O O6 0.000000 0.554117 0.978348
O O7 0.745944 0.591175 0.026640
O O8 0.751013 0.671301 0.219686
O O9 0.754496 0.673818 0.345159
O O10 0.000000 0.646150 0.281937
O O11 0.500000 0.698512 0.658259
O O12 0.750000 0.750000 0.654966
O O13 0.744974 0.669559 0.595506
O O14 0.500000 0.197271 0.409906
O O15 0.750000 0.250000 0.412533
O O16 0.747026 0.170164 0.471355
O O17 0.500000 0.645042 0.035669
#
# Coordination Sequence:
#
# PCOD9368874 Si02
#       6
#    16  16  16  16  16  16
#     4   9  16  31  57  84 111 146 186 228 280 339
#     4  10  20  34  55  86 119 147 181 230 286 338
#     4   9  18  35  55  80 111 145 187 232 278 334
#     4  11  23  39  58  79 113 153 192 237 285 341
#     4  10  20  34  53  78 106 138 182 233 279 327
#     4  11  22  38  59  81 111 149 191 234 281 340
#
# _framework density 18.538436000000001
#
# number of rings (size 3 to 8) (size 9 to 14) (size 15 to 20)
#    0.000    2.000    1.667    2.500    0.000    3.667 
#    0.000    3.333    0.000    3.000    0.000    0.000 
#    0.000    0.000    0.000    0.000    0.000    0.000 
#
# Total GULP energy -133985.672536 kJ/mol
# GULP energy per Si atom -5582.736356 kJ/mol
# Density = 1.849624 g / cm^3
# Si number density = 18.538436 Si / 1000 Ang^3
#
#
#
# Elastic Constant Matrix: (Units=GPa)
#
#
# Indices 1 2 3 4 5 6 
#
# 1 21.0112 24.7602 23.1734 0.0000 0.0000 0.0000
# 2 24.7602 189.6585 102.1319 0.0000 0.0000 0.0000
# 3 23.1734 102.1319 154.7083 0.0000 0.0000 0.0000
# 4 0.0000 0.0000 0.0000 31.2229 0.0000 0.0000
# 5 0.0000 0.0000 0.0000 0.0000 -0.3705 0.0000
# 6 0.0000 0.0000 0.0000 0.0000 0.0000 28.1922
#
#
#
# Elastic Compliance Matrix: (Units=1/GPa)
#
#
# Indices 1 2 3 4 5 6 
#
# 1 0.059497 -0.004606 -0.005872 0.000000 0.000000 0.000000
# 2 -0.004606 0.008537 -0.004946 0.000000 0.000000 0.000000
# 3 -0.005872 -0.004946 0.010609 0.000000 0.000000 0.000000
# 4 0.000000 0.000000 0.000000 0.032028 0.000000 0.000000
# 5 0.000000 0.000000 0.000000 0.000000 -2.698738 0.000000
# 6 0.000000 0.000000 0.000000 0.000000 0.000000 0.035471
#
#
# Mechanical properties :
#
#
# Convention : Reuss Voigt Hill
#
# Bulk Modulus (GPa) = 20.92213 73.94545 47.43379
# Shear Modulus (GPa) = -1.99536 26.16307 12.08386
#
# Velocity S-wave (km/s) = -1.03859 3.76079 2.55586
# Velocity P-wave (km/s) = 3.14199 7.67022 5.86107
#
# Compressibility (1/GPa) = 0.04779627
#
# Stress axis : x y z
#
# Youngs Moduli (GPa) = 16.80762 117.13099 94.26370
#
# Poissons Ratio (x) = 0.53945 0.55347
# Poissons Ratio (y) = 0.07741 0.46625
# Poissons Ratio (z) = 0.09869 0.57935
#
# Static dielectric constant tensor:
#      x y z
#    x 1.641310 0.000000 0.000000 
#    y 0.000000 1.647750 0.000000 
#    z 0.000000 0.000000 1.615040 
# 
# From -- ./inp_files/23680.got.cif
#   From: 2010.05.17/outbox.cif.g08.bks.cpg/sg42_12_cif.got.tgz:23680.got - 2010.06.03 19:03:34.
