data_PCOD9368897
_publ_section_title
;
Structure prediction by ZEFSAII (Michael W. Deem and Ramdas Pophale) SiO2 
 PCOD9368897
Probable space group: F M M 2
;
_chemical_formula_sum "Si O2"
_cell_formula_units_Z 100
_cell_length_a 9.389199
_cell_length_b 25.000578
_cell_length_c 19.590625
_cell_angle_alpha 90.000000
_cell_angle_beta 90.000000
_cell_angle_gamma 90.000000
_cell_volume 4598.613234
_symmetry_space_group_name_H-M "F M M 2"
_symmetry_group_IT_number 42
_symmetry_cell_setting 'orthorhombic'
loop_
_space_group_symop_operation_xyz
x,y,z
-x,-y,z
-x,y,z
x,-y,z
x,1/2+y,1/2+z
-x,1/2-y,1/2+z
-x,1/2+y,1/2+z
x,1/2-y,1/2+z
1/2+x,y,1/2+z
1/2-x,-y,1/2+z
1/2-x,y,1/2+z
1/2+x,-y,1/2+z
1/2+x,1/2+y,z
1/2-x,1/2-y,z
1/2-x,1/2+y,z
1/2+x,1/2-y,z
loop_
_atom_site_type_symbol
_atom_site_label
_atom_site_fract_x
_atom_site_fract_y
_atom_site_fract_z
Si Si1 0.342821 0.406364 0.849250
Si Si2 0.334388 0.938866 0.566769
Si Si3 0.664934 0.303077 0.393267
Si Si4 0.164233 0.701672 0.677362
Si Si5 0.661969 0.082114 0.725606
Si Si6 0.836970 0.163350 0.547088
Si Si7 0.500000 0.000000 0.415194
O O1 0.500000 0.384382 0.830606
O O2 0.242925 0.357739 0.871384
O O3 0.273021 0.433718 0.782947
O O4 0.378289 0.452049 0.904508
O O5 0.500000 0.922000 0.556169
O O6 0.311256 0.938276 0.648906
O O7 0.227104 0.895988 0.536564
O O8 0.324542 0.000000 0.543184
O O9 0.500000 0.302074 0.370084
O O10 0.750000 0.250000 0.372408
O O11 0.665241 0.305828 0.475911
O O12 0.250000 0.750000 0.710209
O O13 0.170516 0.646550 0.718553
O O14 0.238713 0.689361 0.604909
O O15 0.000000 0.715901 0.666982
O O16 0.500000 0.067461 0.743985
O O17 0.000000 0.160193 0.571360
#
# Coordination Sequence:
#
# PCOD9368897 Si02
#       7
#    16  16  16  16  16  16   4
#     4  10  22  41  62  88 120 157 205 249 306 363
#     4   9  19  35  56  84 117 157 197 240 296 355
#     4  11  24  42  65  91 120 159 204 256 311 368
#     4  10  20  34  54  81 117 155 194 236 295 358
#     4   9  19  35  56  83 117 152 197 247 294 354
#     4  10  21  37  56  84 116 151 198 244 298 357
#     4   8  24  44  62  88 124 156 210 250 304 366
#
# _framework density 21.745685999999999
#
# number of rings (size 3 to 8) (size 9 to 14) (size 15 to 20)
#    0.480    1.760    0.000    3.360    1.120    8.000 
#    1.440    2.800    0.000    0.000    0.000    0.000 
#    0.000    0.000    0.000    0.000    0.000    0.000 
#
# Total GULP energy -139408.711105 kJ/mol
# GULP energy per Si atom -5576.348444 kJ/mol
# Density = 2.169619 g / cm^3
# Si number density = 21.745686 Si / 1000 Ang^3
#
#
#
# Elastic Constant Matrix: (Units=GPa)
#
#
# Indices 1 2 3 4 5 6 
#
# 1 148.6738 59.8286 34.7725 0.0000 0.0000 0.0000
# 2 59.8286 122.5052 2.7833 0.0000 0.0000 0.0000
# 3 34.7725 2.7833 69.7477 0.0000 0.0000 0.0000
# 4 0.0000 0.0000 0.0000 -9.0174 0.0000 0.0000
# 5 0.0000 0.0000 0.0000 0.0000 16.1462 0.0000
# 6 0.0000 0.0000 0.0000 0.0000 0.0000 28.1036
#
#
#
# Elastic Compliance Matrix: (Units=1/GPa)
#
#
# Indices 1 2 3 4 5 6 
#
# 1 0.009668 -0.004616 -0.004636 0.000000 0.000000 0.000000
# 2 -0.004616 0.010375 0.001887 0.000000 0.000000 0.000000
# 3 -0.004636 0.001887 0.016573 0.000000 0.000000 0.000000
# 4 0.000000 0.000000 0.000000 -0.110897 0.000000 0.000000
# 5 0.000000 0.000000 0.000000 0.000000 0.061934 0.000000
# 6 0.000000 0.000000 0.000000 0.000000 0.000000 0.035583
#
#
# Mechanical properties :
#
#
# Convention : Reuss Voigt Hill
#
# Bulk Modulus (GPa) = 45.69017 59.52171 52.60594
# Shear Modulus (GPa) = 110.47163 23.28262 66.87713
#
# Velocity S-wave (km/s) = 7.13526 3.27567 5.55166
# Velocity P-wave (km/s) = 9.43076 6.46048 8.08323
#
# Compressibility (1/GPa) = 0.02188654
#
# Stress axis : x y z
#
# Youngs Moduli (GPa) = 103.43357 96.38985 60.33836
#
# Poissons Ratio (x) = 0.44497 0.27971
# Poissons Ratio (y) = 0.47748 -0.11389
# Poissons Ratio (z) = 0.47949 -0.18193
#
# Static dielectric constant tensor:
#      x y z
#    x 1.753520 0.000000 0.000000 
#    y 0.000000 1.814640 0.000000 
#    z 0.000000 0.000000 1.857020 
# 
# From -- ./inp_files/23780.got.cif
#   From: 2010.05.17/outbox.cif.g08.bks.cpg/sg42_12_cif.got.tgz:23780.got - 2010.06.03 19:03:34.
