data_PCOD9368602
_publ_section_title
;
Structure prediction by ZEFSAII (Michael W. Deem and Ramdas Pophale) SiO2 
 PCOD9368602
Probable space group: F M M 2
;
_chemical_formula_sum "Si O2"
_cell_formula_units_Z 116
_cell_length_a 14.616078
_cell_length_b 15.937987
_cell_length_c 20.006968
_cell_angle_alpha 90.000000
_cell_angle_beta 90.000000
_cell_angle_gamma 90.000000
_cell_volume 4660.640425
_symmetry_space_group_name_H-M "F M M 2"
_symmetry_group_IT_number 42
_symmetry_cell_setting 'orthorhombic'
loop_
_space_group_symop_operation_xyz
x,y,z
-x,-y,z
-x,y,z
x,-y,z
x,1/2+y,1/2+z
-x,1/2-y,1/2+z
-x,1/2+y,1/2+z
x,1/2-y,1/2+z
1/2+x,y,1/2+z
1/2-x,-y,1/2+z
1/2-x,y,1/2+z
1/2+x,-y,1/2+z
1/2+x,1/2+y,z
1/2-x,1/2-y,z
1/2-x,1/2+y,z
1/2+x,1/2-y,z
loop_
_atom_site_type_symbol
_atom_site_label
_atom_site_fract_x
_atom_site_fract_y
_atom_site_fract_z
Si Si1 0.102612 0.408384 0.290390
Si Si2 0.636206 0.858619 0.507600
Si Si3 0.109686 0.725264 0.782106
Si Si4 0.639140 0.909352 0.138805
Si Si5 0.895579 0.087869 0.377675
Si Si6 0.500000 0.000000 0.455865
Si Si7 0.356261 0.168760 0.007681
Si Si8 0.856197 0.402498 0.660433
O O1 0.144229 0.500000 0.307105
O O2 0.148795 0.317882 0.297631
O O3 0.092883 0.407097 0.209948
O O4 0.000000 0.410756 0.320802
O O5 0.616087 0.762726 0.488126
O O6 0.747699 0.855052 0.505169
O O7 0.611520 0.880260 0.585228
O O8 0.581434 0.926038 0.464234
O O9 0.146562 0.665031 0.839601
O O10 0.122222 0.671113 0.713754
O O11 0.000000 0.738700 0.786555
O O12 0.614779 0.841294 0.084414
O O13 0.746451 0.903498 0.155248
O O14 0.621897 0.000000 0.106933
O O15 0.898378 0.105154 0.455622
O O16 0.000000 0.084315 0.352920
O O17 0.849895 0.000000 0.362275
O O18 0.884604 0.500000 0.677426
#
# Coordination Sequence:
#
# PCOD9368602 Si02
#       8
#    16  16  16  16  16   4  16  16
#     4   9  18  34  55  80 114 152 200 261 321 380
#     4  10  23  38  61  94 128 169 210 264 329 403
#     4  10  21  35  56  86 120 156 200 255 316 383
#     4   9  18  33  56  87 118 157 205 257 314 385
#     4  10  22  39  61  88 118 159 212 269 317 380
#     4  12  24  40  64 100 136 168 216 280 332 410
#     4  10  21  40  62  86 126 173 216 260 325 386
#     4  10  19  34  56  86 126 162 196 249 321 391
#
# _framework density 24.889282999999999
#
# number of rings (size 3 to 8) (size 9 to 14) (size 15 to 20)
#    0.000    2.207    0.690    1.655    3.862    3.034 
#    0.000    4.138    1.517    0.000    0.000    0.000 
#    0.000    0.000    0.000    0.000    0.000    0.000 
#
# Total GULP energy -161562.910290 kJ/mol
# GULP energy per Si atom -5571.134838 kJ/mol
# Density = 2.483263 g / cm^3
# Si number density = 24.889283 Si / 1000 Ang^3
#
#
#
# Elastic Constant Matrix: (Units=GPa)
#
#
# Indices 1 2 3 4 5 6 
#
# 1 94.7883 28.0537 5.2570 0.0000 0.0000 0.0000
# 2 28.0537 249.8519 32.9613 0.0000 0.0000 0.0000
# 3 5.2570 32.9613 52.1767 0.0000 0.0000 0.0000
# 4 0.0000 0.0000 0.0000 17.5997 0.0000 0.0000
# 5 0.0000 0.0000 0.0000 0.0000 23.0842 0.0000
# 6 0.0000 0.0000 0.0000 0.0000 0.0000 16.0482
#
#
#
# Elastic Compliance Matrix: (Units=1/GPa)
#
#
# Indices 1 2 3 4 5 6 
#
# 1 0.010918 -0.001179 -0.000355 0.000000 0.000000 0.000000
# 2 -0.001179 0.004494 -0.002720 0.000000 0.000000 0.000000
# 3 -0.000355 -0.002720 0.020920 0.000000 0.000000 0.000000
# 4 0.000000 0.000000 0.000000 0.056819 0.000000 0.000000
# 5 0.000000 0.000000 0.000000 0.000000 0.043320 0.000000
# 6 0.000000 0.000000 0.000000 0.000000 0.000000 0.062312
#
#
# Mechanical properties :
#
#
# Convention : Reuss Voigt Hill
#
# Bulk Modulus (GPa) = 35.94108 58.81787 47.37947
# Shear Modulus (GPa) = 23.08767 33.38273 28.23520
#
# Velocity S-wave (km/s) = 3.04898 3.66628 3.37179
# Velocity P-wave (km/s) = 5.18332 6.45021 5.85116
#
# Compressibility (1/GPa) = 0.02782332
#
# Stress axis : x y z
#
# Youngs Moduli (GPa) = 91.58776 222.53974 47.80189
#
# Poissons Ratio (x) = 0.26239 0.01698
# Poissons Ratio (y) = 0.10799 0.13002
# Poissons Ratio (z) = 0.03253 0.60529
#
# Static dielectric constant tensor:
#      x y z
#    x 1.995300 0.000000 0.000000 
#    y 0.000000 2.051040 0.000000 
#    z 0.000000 0.000000 1.957140 
# 
# From -- ./inp_files/29952.got.cif
#   From: 2010.05.17/outbox.cif.g08.bks.cpg/sg42_15_cif.got.tgz:29952.got - 2010.06.03 19:03:34.
