data_PCOD9368114
_publ_section_title
;
Structure prediction by ZEFSAII (Michael W. Deem and Ramdas Pophale) SiO2 
 PCOD9368114
Probable space group: F M M 2
;
_chemical_formula_sum "Si O2"
_cell_formula_units_Z 64
_cell_length_a 5.610443
_cell_length_b 22.234807
_cell_length_c 22.905879
_cell_angle_alpha 90.000000
_cell_angle_beta 90.000000
_cell_angle_gamma 90.000000
_cell_volume 2857.442374
_symmetry_space_group_name_H-M "F M M 2"
_symmetry_group_IT_number 42
_symmetry_cell_setting 'orthorhombic'
loop_
_space_group_symop_operation_xyz
x,y,z
-x,-y,z
-x,y,z
x,-y,z
x,1/2+y,1/2+z
-x,1/2-y,1/2+z
-x,1/2+y,1/2+z
x,1/2-y,1/2+z
1/2+x,y,1/2+z
1/2-x,-y,1/2+z
1/2-x,y,1/2+z
1/2+x,-y,1/2+z
1/2+x,1/2+y,z
1/2-x,1/2-y,z
1/2-x,1/2+y,z
1/2+x,1/2-y,z
loop_
_atom_site_type_symbol
_atom_site_label
_atom_site_fract_x
_atom_site_fract_y
_atom_site_fract_z
Si Si1 0.500000 0.102477 0.223568
Si Si2 0.000000 0.932228 0.858105
Si Si3 0.500000 0.812968 0.969863
Si Si4 0.500000 0.240997 0.260585
Si Si5 0.500000 0.429223 0.230715
Si Si6 0.500000 0.825397 0.515628
Si Si7 0.500000 0.372101 0.358305
Si Si8 0.500000 0.716357 0.134207
O O1 0.500000 0.071028 0.287216
O O2 0.500000 0.173735 0.234993
O O3 0.246741 0.083730 0.197196
O O4 0.751710 0.902015 0.875063
O O5 0.000000 0.000000 0.878135
O O6 0.500000 0.746111 0.997393
O O7 0.743338 0.844863 0.991255
O O8 0.500000 0.812935 0.899121
O O9 0.250000 0.250000 0.292577
O O10 0.500000 0.285505 0.204508
O O11 0.500000 0.500000 0.249283
O O12 0.500000 0.384483 0.287901
O O13 0.500000 0.834384 0.585364
O O14 0.750000 0.750000 0.121853
#
# Coordination Sequence:
#
# PCOD9368114 Si02
#       8
#     8   8   8   8   8   8   8   8
#     4  10  18  32  51  71 101 129 167 208 237 295
#     4  10  19  33  53  69  94 128 161 207 250 284
#     4  10  18  27  46  65  95 123 157 202 230 271
#     4  10  21  32  50  71 103 136 165 203 234 286
#     4  10  19  33  55  73  96 130 165 213 256 288
#     4  10  17  30  45  64  93 130 158 188 239 272
#     4  10  18  29  46  70  97 118 158 202 246 279
#     4  10  16  30  48  69  87 128 158 203 233 277
#
# _framework density 22.397651
#
# number of rings (size 3 to 8) (size 9 to 14) (size 15 to 20)
#    0.000    2.000    2.500    5.250    0.000    0.000 
#    0.000    0.000   66.000    0.000    0.000    0.000 
#    0.000   11.000    0.000    0.000    0.000    0.000 
#
# Total GULP energy -89075.785829 kJ/mol
# GULP energy per Si atom -5567.236614 kJ/mol
# Density = 2.234667 g / cm^3
# Si number density = 22.397651 Si / 1000 Ang^3
#
#
#
# Elastic Constant Matrix: (Units=GPa)
#
#
# Indices 1 2 3 4 5 6 
#
# 1 280.9266 22.1717 30.6537 0.0000 0.0000 0.0000
# 2 22.1717 50.5229 32.0231 0.0000 0.0000 0.0000
# 3 30.6537 32.0231 74.2957 0.0000 0.0000 0.0000
# 4 0.0000 0.0000 0.0000 -18.8470 0.0000 0.0000
# 5 0.0000 0.0000 0.0000 0.0000 20.3962 0.0000
# 6 0.0000 0.0000 0.0000 0.0000 0.0000 25.8375
#
#
#
# Elastic Compliance Matrix: (Units=1/GPa)
#
#
# Indices 1 2 3 4 5 6 
#
# 1 0.003758 -0.000917 -0.001155 0.000000 0.000000 0.000000
# 2 -0.000917 0.027457 -0.011456 0.000000 0.000000 0.000000
# 3 -0.001155 -0.011456 0.018874 0.000000 0.000000 0.000000
# 4 0.000000 0.000000 0.000000 -0.053059 0.000000 0.000000
# 5 0.000000 0.000000 0.000000 0.000000 0.049029 0.000000
# 6 0.000000 0.000000 0.000000 0.000000 0.000000 0.038703
#
#
# Mechanical properties :
#
#
# Convention : Reuss Voigt Hill
#
# Bulk Modulus (GPa) = 43.41743 63.93803 53.67773
# Shear Modulus (GPa) = 41.84225 26.87046 34.35635
#
# Velocity S-wave (km/s) = 4.32690 3.46743 3.92079
# Velocity P-wave (km/s) = 6.66256 6.68128 6.67192
#
# Compressibility (1/GPa) = 0.02303223
#
# Stress axis : x y z
#
# Youngs Moduli (GPa) = 266.09322 36.42105 52.98222
#
# Poissons Ratio (x) = 0.03340 0.06121
# Poissons Ratio (y) = 0.24399 0.60697
# Poissons Ratio (z) = 0.30743 0.41724
#
# Static dielectric constant tensor:
#      x y z
#    x 1.929460 0.000000 0.000000 
#    y 0.000000 2.065550 0.000000 
#    z 0.000000 0.000000 1.812510 
# 
# From -- ./inp_files/27463.got.cif
#   From: 2010.05.17/outbox.cif.g08.bks.cpg/sg42_14_cif.got.tgz:27463.got - 2010.06.03 19:03:34.
