data_PCOD9368593
_publ_section_title
;
Structure prediction by ZEFSAII (Michael W. Deem and Ramdas Pophale) SiO2 
 PCOD9368593
Probable space group: F M M 2
;
_chemical_formula_sum "Si O2"
_cell_formula_units_Z 80
_cell_length_a 26.741661
_cell_length_b 8.666626
_cell_length_c 19.544538
_cell_angle_alpha 90.000000
_cell_angle_beta 90.000000
_cell_angle_gamma 90.000000
_cell_volume 4529.641629
_symmetry_space_group_name_H-M "F M M 2"
_symmetry_group_IT_number 42
_symmetry_cell_setting 'orthorhombic'
loop_
_space_group_symop_operation_xyz
x,y,z
-x,-y,z
-x,y,z
x,-y,z
x,1/2+y,1/2+z
-x,1/2-y,1/2+z
-x,1/2+y,1/2+z
x,1/2-y,1/2+z
1/2+x,y,1/2+z
1/2-x,-y,1/2+z
1/2-x,y,1/2+z
1/2+x,-y,1/2+z
1/2+x,1/2+y,z
1/2-x,1/2-y,z
1/2-x,1/2+y,z
1/2+x,1/2-y,z
loop_
_atom_site_type_symbol
_atom_site_label
_atom_site_fract_x
_atom_site_fract_y
_atom_site_fract_z
Si Si1 0.894481 0.184537 0.406200
Si Si2 0.391215 0.313535 0.753458
Si Si3 0.000000 0.178698 0.747434
Si Si4 0.000000 0.821759 0.913820
Si Si5 0.696522 0.314706 0.506676
Si Si6 0.196068 0.815671 0.159031
O O1 0.886207 0.260862 0.332077
O O2 0.848996 0.224679 0.456483
O O3 0.948279 0.240801 0.434153
O O4 0.895929 0.000000 0.397970
O O5 0.391051 0.500000 0.751256
O O6 0.446012 0.255851 0.727646
O O7 0.347195 0.246519 0.707898
O O8 0.000000 0.181147 0.830481
O O9 0.000000 0.000000 0.725435
O O10 0.000000 0.000000 0.935049
O O11 0.699759 0.500000 0.512325
O O12 0.750000 0.250000 0.481981
O O13 0.687826 0.244722 0.581842
O O14 0.250000 0.750000 0.181125
O O15 0.197485 0.000000 0.159390
#
# Coordination Sequence:
#
# PCOD9368593 Si02
#       6
#    16  16   8   8  16  16
#     4  10  20  34  54  81 110 140 177 218 261 312
#     4  10  19  34  56  81 109 140 176 216 261 312
#     4   7  14  29  50  75 102 135 169 205 253 305
#     4   9  17  31  52  77 106 141 177 215 263 311
#     4  10  21  37  56  77 104 139 176 216 265 317
#     4  11  22  37  56  77 104 139 178 219 266 317
#
# _framework density 17.661442000000001
#
# number of rings (size 3 to 8) (size 9 to 14) (size 15 to 20)
#    0.000    2.200    0.000    6.300    0.000    4.000 
#    0.000    4.500    0.000    2.400    0.000    0.000 
#    0.000    0.000    0.000    0.000    0.000    0.000 
#
# Total GULP energy -111560.928790 kJ/mol
# GULP energy per Si atom -5578.046440 kJ/mol
# Density = 1.762124 g / cm^3
# Si number density = 17.661442 Si / 1000 Ang^3
#
#
#
# Elastic Constant Matrix: (Units=GPa)
#
#
# Indices 1 2 3 4 5 6 
#
# 1 220.2132 75.7782 90.8890 0.0000 0.0000 0.0000
# 2 75.7782 93.7147 38.3473 0.0000 0.0000 0.0000
# 3 90.8890 38.3473 53.9294 0.0000 0.0000 0.0000
# 4 0.0000 0.0000 0.0000 26.8062 0.0000 0.0000
# 5 0.0000 0.0000 0.0000 0.0000 -88.9967 0.0000
# 6 0.0000 0.0000 0.0000 0.0000 0.0000 32.5744
#
#
#
# Elastic Compliance Matrix: (Units=1/GPa)
#
#
# Indices 1 2 3 4 5 6 
#
# 1 0.015346 -0.002575 -0.024032 0.000000 0.000000 0.000000
# 2 -0.002575 0.015482 -0.006668 0.000000 0.000000 0.000000
# 3 -0.024032 -0.006668 0.063786 0.000000 0.000000 0.000000
# 4 0.000000 0.000000 0.000000 0.037305 0.000000 0.000000
# 5 0.000000 0.000000 0.000000 0.000000 -0.011236 0.000000
# 6 0.000000 0.000000 0.000000 0.000000 0.000000 0.030699
#
#
# Mechanical properties :
#
#
# Convention : Reuss Voigt Hill
#
# Bulk Modulus (GPa) = 35.63449 86.43181 61.03315
# Shear Modulus (GPa) = 21.99873 4.93297 13.46585
#
# Velocity S-wave (km/s) = 3.53311 1.67306 2.76423
# Velocity P-wave (km/s) = 6.07157 7.26475 6.69480
#
# Compressibility (1/GPa) = 0.02806270
#
# Stress axis : x y z
#
# Youngs Moduli (GPa) = 65.16412 64.59266 15.67744
#
# Poissons Ratio (x) = 0.16634 0.37676
# Poissons Ratio (y) = 0.16781 0.10454
# Poissons Ratio (z) = 1.56601 0.43073
#
# Static dielectric constant tensor:
#      x y z
#    x 1.622240 0.000000 0.000000 
#    y 0.000000 1.595950 0.000000 
#    z 0.000000 0.000000 1.568240 
# 
# From -- ./inp_files/22444.got.cif
#   From: 2010.05.17/outbox.cif.g08.bks.cpg/sg42_12_cif.got.tgz:22444.got - 2010.06.03 19:03:34.
