data_PCOD9368447
_publ_section_title
;
Structure prediction by ZEFSAII (Michael W. Deem and Ramdas Pophale) SiO2 
 PCOD9368447
Probable space group: F M M 2
;
_chemical_formula_sum "Si O2"
_cell_formula_units_Z 96
_cell_length_a 26.431416
_cell_length_b 7.509505
_cell_length_c 24.332289
_cell_angle_alpha 90.000000
_cell_angle_beta 90.000000
_cell_angle_gamma 90.000000
_cell_volume 4829.639412
_symmetry_space_group_name_H-M "F M M 2"
_symmetry_group_IT_number 42
_symmetry_cell_setting 'orthorhombic'
loop_
_space_group_symop_operation_xyz
x,y,z
-x,-y,z
-x,y,z
x,-y,z
x,1/2+y,1/2+z
-x,1/2-y,1/2+z
-x,1/2+y,1/2+z
x,1/2-y,1/2+z
1/2+x,y,1/2+z
1/2-x,-y,1/2+z
1/2-x,y,1/2+z
1/2+x,-y,1/2+z
1/2+x,1/2+y,z
1/2-x,1/2-y,z
1/2-x,1/2+y,z
1/2+x,1/2-y,z
loop_
_atom_site_type_symbol
_atom_site_label
_atom_site_fract_x
_atom_site_fract_y
_atom_site_fract_z
Si Si1 0.401441 0.713678 0.471260
Si Si2 0.403106 0.282012 0.735225
Si Si3 0.192317 0.786548 0.541400
Si Si4 0.057892 0.787164 0.852504
Si Si5 0.500000 0.281933 0.537633
Si Si6 0.307770 0.213283 0.166593
Si Si7 0.000000 0.783110 0.663818
O O1 0.401023 0.500000 0.476159
O O2 0.349994 0.780831 0.499331
O O3 0.410814 0.752929 0.407590
O O4 0.450051 0.777866 0.505564
O O5 0.402221 0.500000 0.735977
O O6 0.415362 0.221428 0.796975
O O7 0.350579 0.221109 0.708271
O O8 0.449837 0.228644 0.696389
O O9 0.250000 0.750000 0.524796
O O10 0.185016 0.718665 0.603989
O O11 0.187050 0.000000 0.544126
O O12 0.000000 0.718554 0.857687
O O13 0.053925 0.000000 0.846794
O O14 0.500000 0.500000 0.537429
O O15 0.500000 0.224826 0.600807
O O16 0.250000 0.250000 0.183137
O O17 0.313339 0.000000 0.163973
O O18 0.000000 0.000000 0.663451
#
# Coordination Sequence:
#
# PCOD9368447 Si02
#       7
#    16  16  16  16   8  16   8
#     4  10  19  32  49  72  99 128 162 199 241 290
#     4   9  16  28  47  71  97 123 158 200 238 280
#     4   9  18  32  51  74  99 127 162 200 243 292
#     4  10  19  32  49  71  98 131 166 199 238 286
#     4   9  16  25  43  71  99 121 148 193 246 290
#     4   9  17  31  51  74  99 126 157 198 244 288
#     4   9  14  23  44  73  97 117 148 197 246 282
#
# _framework density 19.877261000000001
#
# number of rings (size 3 to 8) (size 9 to 14) (size 15 to 20)
#    0.000    2.667    1.667    1.000    0.000    4.667 
#    0.000    1.667    0.000    4.000    0.000    2.333 
#    0.000    0.000    0.000    0.000    0.000    0.000 
#
# Total GULP energy -133955.918321 kJ/mol
# GULP energy per Si atom -5581.496597 kJ/mol
# Density = 1.983202 g / cm^3
# Si number density = 19.877261 Si / 1000 Ang^3
#
#
#
# Elastic Constant Matrix: (Units=GPa)
#
#
# Indices 1 2 3 4 5 6 
#
# 1 195.8897 4.9625 130.9397 0.0000 -0.0001 0.0000
# 2 4.9625 51.7850 2.8333 0.0000 0.0000 0.0001
# 3 130.9397 2.8333 190.2228 0.0000 -0.0001 0.0000
# 4 0.0000 0.0000 0.0000 11.2132 -0.0001 0.0000
# 5 -0.0001 0.0000 -0.0001 -0.0001 -10.7125 0.0000
# 6 0.0000 0.0001 0.0000 0.0000 0.0000 -5.5994
#
#
#
# Elastic Compliance Matrix: (Units=1/GPa)
#
#
# Indices 1 2 3 4 5 6 
#
# 1 0.009471 -0.000551 -0.006511 0.000000 0.000000 0.000000
# 2 -0.000551 0.019358 0.000091 0.000000 0.000000 0.000000
# 3 -0.006511 0.000091 0.009738 0.000000 0.000000 0.000000
# 4 0.000000 0.000000 0.000000 0.089180 -0.000001 0.000001
# 5 0.000000 0.000000 0.000000 -0.000001 -0.093348 0.000001
# 6 0.000000 0.000000 0.000000 0.000001 0.000001 -0.178590
#
#
# Mechanical properties :
#
#
# Convention : Reuss Voigt Hill
#
# Bulk Modulus (GPa) = 40.61010 79.48540 60.04775
# Shear Modulus (GPa) = -40.97025 18.92439 -11.02293
#
# Velocity S-wave (km/s) = -4.54493 3.08890 -2.35744
# Velocity P-wave (km/s) = 2.65839 7.26613 4.78172
#
# Compressibility (1/GPa) = 0.02462441
#
# Stress axis : x y z
#
# Youngs Moduli (GPa) = 105.58209 51.65705 102.69348
#
# Poissons Ratio (x) = 0.02848 0.66867
# Poissons Ratio (y) = 0.05821 -0.00936
# Poissons Ratio (z) = 0.68748 -0.00471
#
# Static dielectric constant tensor:
#      x y z
#    x 1.683740 0.000000 0.000000 
#    y 0.000000 1.780110 0.000000 
#    z 0.000000 0.000000 1.676290 
# 
# From -- ./inp_files/19155.got.cif
#   From: 2010.05.17/outbox.cif.g08.bks.cpg/sg42_10_cif.got.tgz:19155.got - 2010.06.03 19:03:34.
