data_PCOD9368109
_publ_section_title
;
Structure prediction by ZEFSAII (Michael W. Deem and Ramdas Pophale) SiO2 
 PCOD9368109
Probable space group: F M M 2
;
_chemical_formula_sum "Si O2"
_cell_formula_units_Z 96
_cell_length_a 18.696007
_cell_length_b 18.352743
_cell_length_c 14.713253
_cell_angle_alpha 90.000000
_cell_angle_beta 90.000000
_cell_angle_gamma 90.000000
_cell_volume 5048.455680
_symmetry_space_group_name_H-M "F M M 2"
_symmetry_group_IT_number 42
_symmetry_cell_setting 'orthorhombic'
loop_
_space_group_symop_operation_xyz
x,y,z
-x,-y,z
-x,y,z
x,-y,z
x,1/2+y,1/2+z
-x,1/2-y,1/2+z
-x,1/2+y,1/2+z
x,1/2-y,1/2+z
1/2+x,y,1/2+z
1/2-x,-y,1/2+z
1/2-x,y,1/2+z
1/2+x,-y,1/2+z
1/2+x,1/2+y,z
1/2-x,1/2-y,z
1/2-x,1/2+y,z
1/2+x,1/2-y,z
loop_
_atom_site_type_symbol
_atom_site_label
_atom_site_fract_x
_atom_site_fract_y
_atom_site_fract_z
Si Si1 0.917613 0.286531 0.640800
Si Si2 0.649039 0.375146 0.646195
Si Si3 0.144926 0.692116 0.826793
Si Si4 0.195396 0.146492 0.833186
Si Si5 0.283059 0.668587 0.028495
Si Si6 0.415313 0.578965 0.466267
O O1 0.890115 0.203357 0.648919
O O2 0.906629 0.319799 0.741305
O O3 0.860414 0.322348 0.573435
O O4 0.000000 0.289874 0.612283
O O5 0.659899 0.398096 0.751016
O O6 0.726488 0.364558 0.598981
O O7 0.604595 0.419303 0.572412
O O8 0.150512 0.778377 0.845395
O O9 0.225168 0.668542 0.799694
O O10 0.121234 0.645458 0.913321
O O11 0.208548 0.121977 0.936379
O O12 0.250000 0.750000 0.006627
O O13 0.500000 0.586172 0.456184
O O14 0.392685 0.500000 0.428314
#
# Coordination Sequence:
#
# PCOD9368109 Si02
#       6
#    16  16  16  16  16  16
#     4  10  19  29  49  81 112 138 169 223 286 330
#     4  10  19  32  51  74 106 141 182 219 266 325
#     4  10  17  32  52  80 108 137 178 227 274 321
#     4  10  17  30  55  82 102 135 173 227 284 318
#     4  10  16  28  50  72 105 140 167 212 270 327
#     4  11  23  38  55  77 112 155 190 221 261 320
#
# _framework density 19.015716999999999
#
# number of rings (size 3 to 8) (size 9 to 14) (size 15 to 20)
#    0.000    1.833    5.000    2.000    0.000    0.000 
#    0.000    5.000    0.000    0.000    0.000    0.000 
#    0.000    0.000    0.000    0.000    0.000    0.000 
#
# Total GULP energy -133726.683019 kJ/mol
# GULP energy per Si atom -5571.945126 kJ/mol
# Density = 1.897244 g / cm^3
# Si number density = 19.015717 Si / 1000 Ang^3
#
#
#
# Elastic Constant Matrix: (Units=GPa)
#
#
# Indices 1 2 3 4 5 6 
#
# 1 93.2860 8.6825 23.4267 0.0000 0.0000 0.0000
# 2 8.6825 35.3181 19.5947 0.0000 0.0000 0.0000
# 3 23.4267 19.5947 113.6252 0.0000 0.0000 0.0000
# 4 0.0000 0.0000 0.0000 -3.2203 0.0000 0.0000
# 5 0.0000 0.0000 0.0000 0.0000 26.7200 0.0000
# 6 0.0000 0.0000 0.0000 0.0000 0.0000 -8.1837
#
#
#
# Elastic Compliance Matrix: (Units=1/GPa)
#
#
# Indices 1 2 3 4 5 6 
#
# 1 0.011392 -0.001656 -0.002063 0.000000 0.000000 0.000000
# 2 -0.001656 0.031550 -0.005099 0.000000 0.000000 0.000000
# 3 -0.002063 -0.005099 0.010106 0.000000 0.000000 0.000000
# 4 0.000000 0.000000 0.000000 -0.310530 0.000000 0.000000
# 5 0.000000 0.000000 0.000000 0.000000 0.037425 0.000000
# 6 0.000000 0.000000 0.000000 0.000000 0.000000 -0.122194
#
#
# Mechanical properties :
#
#
# Convention : Reuss Voigt Hill
#
# Bulk Modulus (GPa) = 28.23990 38.40413 33.32201
# Shear Modulus (GPa) = -15.98412 15.76490 -0.10961
#
# Velocity S-wave (km/s) = -2.90241 2.88244 -0.24034
# Velocity P-wave (km/s) = 1.91078 5.59623 4.18144
#
# Compressibility (1/GPa) = 0.03541089
#
# Stress axis : x y z
#
# Youngs Moduli (GPa) = 87.78117 31.69536 98.95466
#
# Poissons Ratio (x) = 0.05248 0.20416
# Poissons Ratio (y) = 0.14536 0.50461
# Poissons Ratio (z) = 0.18111 0.16163
#
# Static dielectric constant tensor:
#      x y z
#    x 1.644630 0.000000 0.000000 
#    y 0.000000 1.691560 0.000000 
#    z 0.000000 0.000000 1.723870 
# 
# From -- ./inp_files/16059.got.cif
#   From: 2010.05.17/outbox.cif.g08.bks.cpg/sg42_9_cif.got.tgz:16059.got - 2010.06.03 19:03:34.
