data_PCOD9368628
_publ_section_title
;
Structure prediction by ZEFSAII (Michael W. Deem and Ramdas Pophale) SiO2 
 PCOD9368628
Probable space group: F M M 2
;
_chemical_formula_sum "Si O2"
_cell_formula_units_Z 116
_cell_length_a 14.756694
_cell_length_b 30.700452
_cell_length_c 11.083887
_cell_angle_alpha 90.000000
_cell_angle_beta 90.000000
_cell_angle_gamma 90.000000
_cell_volume 5021.412864
_symmetry_space_group_name_H-M "F M M 2"
_symmetry_group_IT_number 42
_symmetry_cell_setting 'orthorhombic'
loop_
_space_group_symop_operation_xyz
x,y,z
-x,-y,z
-x,y,z
x,-y,z
x,1/2+y,1/2+z
-x,1/2-y,1/2+z
-x,1/2+y,1/2+z
x,1/2-y,1/2+z
1/2+x,y,1/2+z
1/2-x,-y,1/2+z
1/2-x,y,1/2+z
1/2+x,-y,1/2+z
1/2+x,1/2+y,z
1/2-x,1/2-y,z
1/2-x,1/2+y,z
1/2+x,1/2-y,z
loop_
_atom_site_type_symbol
_atom_site_label
_atom_site_fract_x
_atom_site_fract_y
_atom_site_fract_z
Si Si1 0.105137 0.609004 0.569030
Si Si2 0.391582 0.366564 0.682930
Si Si3 0.161884 0.566739 0.356320
Si Si4 0.104579 0.047419 0.551467
Si Si5 0.860518 0.547716 0.774416
Si Si6 0.500000 0.500000 0.802328
Si Si7 0.889215 0.727920 0.245345
Si Si8 0.889415 0.291187 0.525246
O O1 0.164256 0.572850 0.498678
O O2 0.108654 0.590169 0.703251
O O3 0.136273 0.658421 0.550534
O O4 0.000000 0.606122 0.528288
O O5 0.500000 0.364907 0.669160
O O6 0.363173 0.384889 0.812305
O O7 0.358952 0.406356 0.598432
O O8 0.359779 0.317267 0.680783
O O9 0.253520 0.550775 0.298144
O O10 0.079686 0.537085 0.318420
O O11 0.100711 0.049314 0.408509
O O12 0.000000 0.043620 0.595421
O O13 0.147683 0.000000 0.580817
O O14 0.884409 0.500000 0.721043
O O15 0.861259 0.725954 0.389230
O O16 0.861759 0.764449 0.146571
O O17 0.000000 0.729010 0.249881
O O18 0.000000 0.289846 0.522592
#
# Coordination Sequence:
#
# PCOD9368628 Si02
#       8
#    16  16  16  16  16   4  16  16
#     4  11  23  42  68  94 129 172 221 276 331 398
#     4  10  19  34  59  86 119 159 209 268 323 388
#     4  12  24  40  61  95 128 164 224 270 320 382
#     4   9  20  37  56  83 125 172 214 263 331 399
#     4  11  26  40  58  92 133 171 216 271 325 392
#     4  12  24  40  64  96 124 180 216 280 316 386
#     4   9  17  32  57  93 128 160 212 282 340 392
#     4   9  18  34  59  94 129 164 215 280 341 397
#
# _framework density 23.101067
#
# number of rings (size 3 to 8) (size 9 to 14) (size 15 to 20)
#    0.000    1.793    3.448    0.414    3.862    1.931 
#    0.000    4.138    0.000    0.828    0.000    0.000 
#    0.000    0.000    0.000    0.000    0.000    0.000 
#
# Total GULP energy -161471.065347 kJ/mol
# GULP energy per Si atom -5567.967771 kJ/mol
# Density = 2.304849 g / cm^3
# Si number density = 23.101067 Si / 1000 Ang^3
#
#
#
# Elastic Constant Matrix: (Units=GPa)
#
#
# Indices 1 2 3 4 5 6 
#
# 1 77.4390 9.4867 3.0405 0.0000 0.0000 0.0000
# 2 9.4867 151.1961 77.1117 0.0000 0.0000 0.0000
# 3 3.0405 77.1117 137.6975 0.0000 0.0000 0.0000
# 4 0.0000 0.0000 0.0000 9.2253 0.0000 0.0000
# 5 0.0000 0.0000 0.0000 0.0000 36.2845 0.0000
# 6 0.0000 0.0000 0.0000 0.0000 0.0000 5.8143
#
#
#
# Elastic Compliance Matrix: (Units=1/GPa)
#
#
# Indices 1 2 3 4 5 6 
#
# 1 0.013019 -0.000938 0.000238 0.000000 0.000000 0.000000
# 2 -0.000938 0.009326 -0.005202 0.000000 0.000000 0.000000
# 3 0.000238 -0.005202 0.010170 0.000000 0.000000 0.000000
# 4 0.000000 0.000000 0.000000 0.108397 0.000000 0.000000
# 5 0.000000 0.000000 0.000000 0.000000 0.027560 0.000000
# 6 0.000000 0.000000 0.000000 0.000000 0.000000 0.171989
#
#
# Mechanical properties :
#
#
# Convention : Reuss Voigt Hill
#
# Bulk Modulus (GPa) = 48.28420 60.62336 54.45378
# Shear Modulus (GPa) = 13.92102 28.71108 21.31605
#
# Velocity S-wave (km/s) = 2.45748 3.52923 3.04094
# Velocity P-wave (km/s) = 5.38507 6.55034 5.99608
#
# Compressibility (1/GPa) = 0.02071071
#
# Stress axis : x y z
#
# Youngs Moduli (GPa) = 76.81090 107.22988 98.32761
#
# Poissons Ratio (x) = 0.10060 -0.02340
# Poissons Ratio (y) = 0.07207 0.51148
# Poissons Ratio (z) = -0.01828 0.55779
#
# Static dielectric constant tensor:
#      x y z
#    x 1.875180 0.000000 0.000000 
#    y 0.000000 1.980620 0.000000 
#    z 0.000000 0.000000 1.970970 
# 
# From -- ./inp_files/9091.got.cif
#   From: 2010.05.17/outbox.cif.g08.bks.cpg/sg42_5_cif.got.tgz:9091.got - 2010.06.03 19:03:34.
