data_PCOD9368533
_publ_section_title
;
Structure prediction by ZEFSAII (Michael W. Deem and Ramdas Pophale) SiO2 
 PCOD9368533
Probable space group: F M M 2
;
_chemical_formula_sum "Si O2"
_cell_formula_units_Z 80
_cell_length_a 7.841083
_cell_length_b 23.169245
_cell_length_c 25.084469
_cell_angle_alpha 90.000000
_cell_angle_beta 90.000000
_cell_angle_gamma 90.000000
_cell_volume 4557.144977
_symmetry_space_group_name_H-M "F M M 2"
_symmetry_group_IT_number 42
_symmetry_cell_setting 'orthorhombic'
loop_
_space_group_symop_operation_xyz
x,y,z
-x,-y,z
-x,y,z
x,-y,z
x,1/2+y,1/2+z
-x,1/2-y,1/2+z
-x,1/2+y,1/2+z
x,1/2-y,1/2+z
1/2+x,y,1/2+z
1/2-x,-y,1/2+z
1/2-x,y,1/2+z
1/2+x,-y,1/2+z
1/2+x,1/2+y,z
1/2-x,1/2-y,z
1/2-x,1/2+y,z
1/2+x,1/2-y,z
loop_
_atom_site_type_symbol
_atom_site_label
_atom_site_fract_x
_atom_site_fract_y
_atom_site_fract_z
Si Si1 0.701955 0.183456 0.638830
Si Si2 0.500000 0.500000 0.729012
Si Si3 0.000000 0.395137 0.309081
Si Si4 0.824444 0.000000 0.156845
Si Si5 0.500000 0.500000 0.892929
Si Si6 0.297444 0.000000 0.978234
Si Si7 0.804042 0.915892 0.572950
Si Si8 0.706156 0.181448 0.761272
O O1 0.500000 0.177380 0.634639
O O2 0.750000 0.250000 0.636377
O O3 0.785484 0.150143 0.589264
O O4 0.749112 0.164147 0.699468
O O5 0.500000 0.441998 0.762444
O O6 0.666760 0.500000 0.694275
O O7 0.831180 0.355220 0.299924
O O8 0.000000 0.439554 0.359334
O O9 0.810616 0.053541 0.117144
O O10 0.000000 0.000000 0.187720
O O11 0.669229 0.500000 0.929357
O O12 0.500000 0.000000 0.964761
O O13 0.262515 0.943859 0.015957
O O14 0.000000 0.933026 0.582491
O O15 0.500000 0.173737 0.769031
O O16 0.750000 0.250000 0.766243
#
# Coordination Sequence:
#
# PCOD9368533 Si02
#       8
#    16   4   8   8   4   8  16  16
#     4  10  20  30  49  85 124 164 188 217 269 335
#     4  11  22  36  48  80 134 156 182 237 282 352
#     4  11  24  38  60  87 112 157 194 241 306 343
#     4  11  20  31  50  79 113 155 191 226 273 332
#     4  11  26  44  64  86 110 148 198 251 322 352
#     4   9  22  41  62  83 107 143 195 248 293 344
#     4  10  19  33  54  82 111 151 193 230 279 335
#     4  10  20  36  59  89 124 159 197 233 278 347
#
# _framework density 17.554850999999999
#
# number of rings (size 3 to 8) (size 9 to 14) (size 15 to 20)
#    0.000    1.800    2.000    3.000    7.000    3.200 
#    0.000    2.000    0.000    1.200    0.000    0.000 
#    0.000    0.000    0.000    0.000    0.000    0.000 
#
# Total GULP energy -111412.371772 kJ/mol
# GULP energy per Si atom -5570.618589 kJ/mol
# Density = 1.751490 g / cm^3
# Si number density = 17.554851 Si / 1000 Ang^3
#
#
#
# Elastic Constant Matrix: (Units=GPa)
#
#
# Indices 1 2 3 4 5 6 
#
# 1 124.0262 40.3355 63.5882 0.0000 0.0000 0.0000
# 2 40.3355 90.7312 50.2651 0.0000 0.0000 0.0000
# 3 63.5882 50.2651 94.8928 0.0000 0.0000 0.0000
# 4 0.0000 0.0000 0.0000 24.1977 0.0000 0.0000
# 5 0.0000 0.0000 0.0000 0.0000 27.3911 0.0000
# 6 0.0000 0.0000 0.0000 0.0000 0.0000 26.2488
#
#
#
# Elastic Compliance Matrix: (Units=1/GPa)
#
#
# Indices 1 2 3 4 5 6 
#
# 1 0.012388 -0.001286 -0.007620 0.000000 0.000000 0.000000
# 2 -0.001286 0.015733 -0.007472 0.000000 0.000000 0.000000
# 3 -0.007620 -0.007472 0.019603 0.000000 0.000000 0.000000
# 4 0.000000 0.000000 0.000000 0.041326 0.000000 0.000000
# 5 0.000000 0.000000 0.000000 0.000000 0.036508 0.000000
# 6 0.000000 0.000000 0.000000 0.000000 0.000000 0.038097
#
#
# Mechanical properties :
#
#
# Convention : Reuss Voigt Hill
#
# Bulk Modulus (GPa) = 66.81278 68.66975 67.74127
# Shear Modulus (GPa) = 24.82630 25.93160 25.37895
#
# Velocity S-wave (km/s) = 3.76468 3.84757 3.80635
# Velocity P-wave (km/s) = 7.55243 7.67728 7.61511
#
# Compressibility (1/GPa) = 0.01496720
#
# Stress axis : x y z
#
# Youngs Moduli (GPa) = 80.72499 63.56192 51.01368
#
# Poissons Ratio (x) = 0.08171 0.38873
# Poissons Ratio (y) = 0.10377 0.38119
# Poissons Ratio (z) = 0.61514 0.47495
#
# Static dielectric constant tensor:
#      x y z
#    x 1.612290 0.000000 0.000000 
#    y 0.000000 1.582810 0.000000 
#    z 0.000000 0.000000 1.586820 
# 
# From -- ./inp_files/27864.got.cif
#   From: 2010.05.17/outbox.cif.g08.bks.cpg/sg42_14_cif.got.tgz:27864.got - 2010.06.03 19:03:34.
