data_PCOD9368758
_publ_section_title
;
Structure prediction by ZEFSAII (Michael W. Deem and Ramdas Pophale) SiO2 
 PCOD9368758
Probable space group: F M M 2
;
_chemical_formula_sum "Si O2"
_cell_formula_units_Z 88
_cell_length_a 40.532355
_cell_length_b 19.331396
_cell_length_c 5.402102
_cell_angle_alpha 90.000000
_cell_angle_beta 90.000000
_cell_angle_gamma 90.000000
_cell_volume 4232.800845
_symmetry_space_group_name_H-M "F M M 2"
_symmetry_group_IT_number 42
_symmetry_cell_setting 'orthorhombic'
loop_
_space_group_symop_operation_xyz
x,y,z
-x,-y,z
-x,y,z
x,-y,z
x,1/2+y,1/2+z
-x,1/2-y,1/2+z
-x,1/2+y,1/2+z
x,1/2-y,1/2+z
1/2+x,y,1/2+z
1/2-x,-y,1/2+z
1/2-x,y,1/2+z
1/2+x,-y,1/2+z
1/2+x,1/2+y,z
1/2-x,1/2-y,z
1/2-x,1/2+y,z
1/2+x,1/2-y,z
loop_
_atom_site_type_symbol
_atom_site_label
_atom_site_fract_x
_atom_site_fract_y
_atom_site_fract_z
Si Si1 0.764574 0.174117 0.256530
Si Si2 0.229758 0.500000 0.604594
Si Si3 0.173745 0.884910 0.165394
Si Si4 0.064279 0.338069 0.161011
Si Si5 0.038050 0.684118 0.661023
Si Si6 0.633565 0.583501 0.666724
O O1 0.756642 0.142155 0.527757
O O2 0.750000 0.250000 0.290873
O O3 0.803493 0.182471 0.197901
O O4 0.243385 0.500000 0.324729
O O5 0.204500 0.437261 0.651132
O O6 0.152647 0.900428 0.410172
O O7 0.153430 0.893272 0.913195
O O8 0.045927 0.357349 0.413581
O O9 0.060696 0.253674 0.160561
O O10 0.100066 0.371859 0.162445
O O11 0.046149 0.357507 0.907729
O O12 0.000000 0.706882 0.662158
O O13 0.628330 0.500000 0.681175
#
# Coordination Sequence:
#
# PCOD9368758 Si02
#       6
#    16   8  16  16  16  16
#     4  10  21  40  60  83 114 145 184 244 318 365
#     4  12  22  36  62  86 106 138 201 260 291 344
#     4  12  23  41  60  84 114 155 203 244 302 355
#     4  10  20  35  61  90 122 161 199 241 307 339
#     4  10  19  38  65  94 122 153 207 259 294 345
#     4  12  24  42  59  86 127 163 203 240 285 369
#
# _framework density 20.790016999999999
#
# number of rings (size 3 to 8) (size 9 to 14) (size 15 to 20)
#    0.000    1.091    1.818    7.091    0.000    0.000 
#    0.000   21.818    0.000    6.000    0.000    0.000 
#    0.000    0.000    0.000    0.000    0.000    0.000 
#
# Total GULP energy -122633.526170 kJ/mol
# GULP energy per Si atom -5574.251190 kJ/mol
# Density = 2.074270 g / cm^3
# Si number density = 20.790017 Si / 1000 Ang^3
#
#
#
# Elastic Constant Matrix: (Units=GPa)
#
#
# Indices 1 2 3 4 5 6 
#
# 1 160.4212 52.6443 80.2690 -0.0004 0.0000 -0.0007
# 2 52.6443 47.3690 16.3150 0.0019 -0.0004 -0.0001
# 3 80.2690 16.3150 237.6989 0.0021 0.0002 0.0001
# 4 -0.0004 0.0019 0.0021 -0.8253 -0.0001 0.0000
# 5 0.0000 -0.0004 0.0002 -0.0001 48.8126 0.0000
# 6 -0.0007 -0.0001 0.0001 0.0000 0.0000 51.0485
#
#
#
# Elastic Compliance Matrix: (Units=1/GPa)
#
#
# Indices 1 2 3 4 5 6 
#
# 1 0.011726 -0.011951 -0.003140 -0.000040 0.000000 0.000000
# 2 -0.011951 0.033802 0.001716 0.000086 0.000000 0.000000
# 3 -0.003140 0.001716 0.005149 0.000018 0.000000 0.000000
# 4 -0.000040 0.000086 0.000018 -1.211720 -0.000003 0.000001
# 5 0.000000 0.000000 0.000000 -0.000003 0.020487 0.000000
# 6 0.000000 0.000000 0.000000 0.000001 0.000000 0.019589
#
#
# Mechanical properties :
#
#
# Convention : Reuss Voigt Hill
#
# Bulk Modulus (GPa) = 41.79224 82.66064 62.22644
# Shear Modulus (GPa) = -4.60303 39.55788 17.47742
#
# Velocity S-wave (km/s) = -1.48959 4.36677 2.90257
# Velocity P-wave (km/s) = 4.14575 8.07904 6.42099
#
# Compressibility (1/GPa) = 0.02392789
#
# Stress axis : x y z
#
# Youngs Moduli (GPa) = 85.27738 29.58415 194.19454
#
# Poissons Ratio (x) = 0.35356 0.60970
# Poissons Ratio (y) = 1.01915 -0.33318
# Poissons Ratio (z) = 0.26774 -0.05076
#
# Static dielectric constant tensor:
#      x y z
#    x 1.760870 0.000000 0.000000 
#    y 0.000000 2.664990 -0.000010 
#    z 0.000000 -0.000010 1.864430 
# 
# From -- ./inp_files/1415.got.cif
#   From: 2010.05.17/outbox.cif.g08.bks.cpg/sg42_1_cif.got.tgz:1415.got - 2010.06.03 19:03:34.
