data_PCOD9368493
_publ_section_title
;
Structure prediction by ZEFSAII (Michael W. Deem and Ramdas Pophale) SiO2 
 PCOD9368493
Probable space group: F M M 2
;
_chemical_formula_sum "Si O2"
_cell_formula_units_Z 128
_cell_length_a 30.118775
_cell_length_b 24.895281
_cell_length_c 9.793760
_cell_angle_alpha 90.000000
_cell_angle_beta 90.000000
_cell_angle_gamma 90.000000
_cell_volume 7343.511749
_symmetry_space_group_name_H-M "F M M 2"
_symmetry_group_IT_number 42
_symmetry_cell_setting 'orthorhombic'
loop_
_space_group_symop_operation_xyz
x,y,z
-x,-y,z
-x,y,z
x,-y,z
x,1/2+y,1/2+z
-x,1/2-y,1/2+z
-x,1/2+y,1/2+z
x,1/2-y,1/2+z
1/2+x,y,1/2+z
1/2-x,-y,1/2+z
1/2-x,y,1/2+z
1/2+x,-y,1/2+z
1/2+x,1/2+y,z
1/2-x,1/2-y,z
1/2-x,1/2+y,z
1/2+x,1/2-y,z
loop_
_atom_site_type_symbol
_atom_site_label
_atom_site_fract_x
_atom_site_fract_y
_atom_site_fract_z
Si Si1 0.550112 0.062079 0.910000
Si Si2 0.876177 0.640362 0.245911
Si Si3 0.368477 0.135588 0.919595
Si Si4 0.287800 0.211990 0.537976
Si Si5 0.344799 0.741706 0.294323
Si Si6 0.768981 0.895099 0.470043
Si Si7 0.449210 0.940207 0.242422
Si Si8 0.202129 0.060752 0.762018
O O1 0.500000 0.080585 0.870640
O O2 0.592800 0.096586 0.864782
O O3 0.554876 0.000000 0.866923
O O4 0.550760 0.061775 0.076358
O O5 0.871193 0.702847 0.275997
O O6 0.919553 0.608669 0.293630
O O7 0.834749 0.605218 0.298444
O O8 0.873792 0.635960 0.082435
O O9 0.373482 0.195246 0.863000
O O10 0.316275 0.120622 0.900879
O O11 0.250000 0.250000 0.598237
O O12 0.306197 0.240234 0.400640
O O13 0.325749 0.216252 0.653704
O O14 0.262599 0.156246 0.505084
O O15 0.780642 0.924253 0.611375
O O16 0.741834 0.932362 0.368069
O O17 0.500000 0.935766 0.287128
O O18 0.432410 0.000000 0.279696
O O19 0.184533 0.000000 0.762074
#
# Coordination Sequence:
#
# PCOD9368493 Si02
#       8
#    16  16  16  16  16  16  16  16
#     4   8  15  30  53  79 106 135 170 216 270 323
#     4  10  19  33  49  74 104 137 174 217 270 316
#     4  10  20  32  51  78 104 137 173 220 264 311
#     4  12  22  34  54  73 104 143 186 222 257 307
#     4  12  21  35  51  79 105 142 184 219 264 313
#     4  11  22  35  50  74 104 141 179 221 265 309
#     4   8  14  27  50  77 102 130 169 218 268 320
#     4  11  22  35  50  71 104 142 177 217 267 320
#
# _framework density 17.430353
#
# number of rings (size 3 to 8) (size 9 to 14) (size 15 to 20)
#    0.000    1.750    3.750    3.375    0.000    3.500 
#    0.000    0.625    0.000    0.000    0.000    0.000 
#    0.000    2.000    0.000    0.000    0.000    0.000 
#
# Total GULP energy -178235.864366 kJ/mol
# GULP energy per Si atom -5569.870761 kJ/mol
# Density = 1.739068 g / cm^3
# Si number density = 17.430353 Si / 1000 Ang^3
#
#
#
# Elastic Constant Matrix: (Units=GPa)
#
#
# Indices 1 2 3 4 5 6 
#
# 1 100.9443 68.6233 17.7871 -0.0015 0.0003 0.0001
# 2 68.6233 112.7878 3.8707 -0.0049 0.0009 0.0008
# 3 17.7871 3.8707 21.4637 -0.0070 0.0017 0.0010
# 4 -0.0015 -0.0049 -0.0070 3.3342 0.0020 0.0013
# 5 0.0003 0.0009 0.0017 0.0020 7.6401 -0.0001
# 6 0.0001 0.0008 0.0010 0.0013 -0.0001 32.6929
#
#
#
# Elastic Compliance Matrix: (Units=1/GPa)
#
#
# Indices 1 2 3 4 5 6 
#
# 1 0.020821 -0.012151 -0.015063 -0.000040 0.000004 0.000001
# 2 -0.012151 0.016013 0.007182 0.000033 -0.000003 -0.000001
# 3 -0.015063 0.007182 0.057778 0.000125 -0.000013 -0.000002
# 4 -0.000040 0.000033 0.000125 0.299919 -0.000077 -0.000012
# 5 0.000004 -0.000003 -0.000013 -0.000077 0.130889 0.000000
# 6 0.000001 -0.000001 -0.000002 -0.000012 0.000000 0.030588
#
#
# Mechanical properties :
#
#
# Convention : Reuss Voigt Hill
#
# Bulk Modulus (GPa) = 18.33269 46.19532 32.26400
# Shear Modulus (GPa) = 8.13993 18.39443 13.26718
#
# Velocity S-wave (km/s) = 2.16336 3.25208 2.76189
# Velocity P-wave (km/s) = 4.09642 6.37665 5.35921
#
# Compressibility (1/GPa) = 0.05454738
#
# Stress axis : x y z
#
# Youngs Moduli (GPa) = 48.02748 62.44939 17.30752
#
# Poissons Ratio (x) = 0.75885 0.26071
# Poissons Ratio (y) = 0.58360 -0.12431
# Poissons Ratio (z) = 0.72346 -0.44852
#
# Static dielectric constant tensor:
#      x y z
#    x 1.626150 0.000000 0.000000 
#    y 0.000000 1.616810 0.000000 
#    z 0.000000 0.000000 1.585420 
# 
# From -- ./inp_files/10805.got.cif
#   From: 2010.05.17/outbox.cif.g08.bks.cpg/sg42_6_cif.got.tgz:10805.got - 2010.06.03 19:03:34.
