data_PCOD9368888
_publ_section_title
;
Structure prediction by ZEFSAII (Michael W. Deem and Ramdas Pophale) SiO2 
 PCOD9368888
Probable space group: F M M 2
;
_chemical_formula_sum "Si O2"
_cell_formula_units_Z 104
_cell_length_a 13.683853
_cell_length_b 24.345541
_cell_length_c 16.411835
_cell_angle_alpha 90.000000
_cell_angle_beta 90.000000
_cell_angle_gamma 90.000000
_cell_volume 5467.451911
_symmetry_space_group_name_H-M "F M M 2"
_symmetry_group_IT_number 42
_symmetry_cell_setting 'orthorhombic'
loop_
_space_group_symop_operation_xyz
x,y,z
-x,-y,z
-x,y,z
x,-y,z
x,1/2+y,1/2+z
-x,1/2-y,1/2+z
-x,1/2+y,1/2+z
x,1/2-y,1/2+z
1/2+x,y,1/2+z
1/2-x,-y,1/2+z
1/2-x,y,1/2+z
1/2+x,-y,1/2+z
1/2+x,1/2+y,z
1/2-x,1/2-y,z
1/2-x,1/2+y,z
1/2+x,1/2-y,z
loop_
_atom_site_type_symbol
_atom_site_label
_atom_site_fract_x
_atom_site_fract_y
_atom_site_fract_z
Si Si1 0.250000 0.750000 0.413710
Si Si2 0.115326 0.611846 0.818442
Si Si3 0.811521 0.938816 0.776334
Si Si4 0.616127 0.265830 0.266644
Si Si5 0.611429 0.564076 0.961146
Si Si6 0.883419 0.338808 0.165722
Si Si7 0.708255 0.862685 0.992703
O O1 0.341171 0.754169 0.352533
O O2 0.251820 0.696320 0.466891
O O3 0.194749 0.568172 0.788079
O O4 0.139003 0.668875 0.769442
O O5 0.141846 0.619961 0.914582
O O6 0.000000 0.599891 0.809256
O O7 0.862630 0.933291 0.864841
O O8 0.847770 0.888125 0.723193
O O9 0.834047 0.000000 0.744492
O O10 0.500000 0.263521 0.266849
O O11 0.650301 0.221198 0.199676
O O12 0.500000 0.583878 0.975023
O O13 0.615417 0.500000 0.984625
O O14 0.699130 0.597217 0.002807
O O15 0.000000 0.337626 0.167348
O O16 0.848964 0.353783 0.075610
#
# Coordination Sequence:
#
# PCOD9368888 Si02
#       7
#     8  16  16  16  16  16  16
#     4  10  20  34  54  78 110 144 176 222 260 308
#     4   9  18  36  59  81 109 142 179 222 263 312
#     4  10  21  35  55  82 107 140 187 226 261 312
#     4   9  18  33  56  82 105 139 181 216 260 315
#     4   9  18  36  60  81 104 139 185 229 262 305
#     4  11  22  36  55  79 110 142 175 222 275 323
#     4  10  21  34  53  83 113 141 176 217 271 326
#
# _framework density 19.021657000000001
#
# number of rings (size 3 to 8) (size 9 to 14) (size 15 to 20)
#    0.000    2.308    0.000    3.692    0.000    6.154 
#    0.000    0.769    0.000    3.692    0.000    0.000 
#    0.000    0.000    0.000    0.000    0.000    0.000 
#
# Total GULP energy -144930.358204 kJ/mol
# GULP energy per Si atom -5574.244546 kJ/mol
# Density = 1.897836 g / cm^3
# Si number density = 19.021657 Si / 1000 Ang^3
#
#
#
# Elastic Constant Matrix: (Units=GPa)
#
#
# Indices 1 2 3 4 5 6 
#
# 1 101.1642 41.0654 11.3661 0.0000 0.0000 0.0000
# 2 41.0654 69.1981 35.1508 0.0000 0.0000 0.0000
# 3 11.3661 35.1508 35.5780 0.0000 0.0000 0.0000
# 4 0.0000 0.0000 0.0000 -22.4477 0.0000 0.0000
# 5 0.0000 0.0000 0.0000 0.0000 21.4131 0.0000
# 6 0.0000 0.0000 0.0000 0.0000 0.0000 31.3899
#
#
#
# Elastic Compliance Matrix: (Units=1/GPa)
#
#
# Indices 1 2 3 4 5 6 
#
# 1 0.013945 -0.012071 0.007471 0.000000 0.000000 0.000000
# 2 -0.012071 0.039459 -0.035129 0.000000 0.000000 0.000000
# 3 0.007471 -0.035129 0.060428 0.000000 0.000000 0.000000
# 4 0.000000 0.000000 0.000000 -0.044548 0.000000 0.000000
# 5 0.000000 0.000000 0.000000 0.000000 0.046700 0.000000
# 6 0.000000 0.000000 0.000000 0.000000 0.000000 0.031857
#
#
# Mechanical properties :
#
#
# Convention : Reuss Voigt Hill
#
# Bulk Modulus (GPa) = 29.09167 42.34498 35.71832
# Shear Modulus (GPa) = 20.94159 13.96162 17.45160
#
# Velocity S-wave (km/s) = 3.32163 2.71216 3.03225
# Velocity P-wave (km/s) = 5.48071 5.66723 5.57475
#
# Compressibility (1/GPa) = 0.03437410
#
# Stress axis : x y z
#
# Youngs Moduli (GPa) = 71.70794 25.34249 16.54860
#
# Poissons Ratio (x) = 0.30590 -0.12363
# Poissons Ratio (y) = 0.86557 0.58134
# Poissons Ratio (z) = -0.53571 0.89026
#
# Static dielectric constant tensor:
#      x y z
#    x 1.667540 0.000000 0.000000 
#    y 0.000000 1.671480 0.000000 
#    z 0.000000 0.000000 1.637510 
# 
# From -- ./inp_files/14212.got.cif
#   From: 2010.05.17/outbox.cif.g08.bks.cpg/sg42_8_cif.got.tgz:14212.got - 2010.06.03 19:03:34.
