data_PCOD9368734
_publ_section_title
;
Structure prediction by ZEFSAII (Michael W. Deem and Ramdas Pophale) SiO2 
 PCOD9368734
Probable space group: F M M 2
;
_chemical_formula_sum "Si O2"
_cell_formula_units_Z 100
_cell_length_a 25.528637
_cell_length_b 19.719911
_cell_length_c 9.319950
_cell_angle_alpha 90.000000
_cell_angle_beta 90.000000
_cell_angle_gamma 90.000000
_cell_volume 4691.872059
_symmetry_space_group_name_H-M "F M M 2"
_symmetry_group_IT_number 42
_symmetry_cell_setting 'orthorhombic'
loop_
_space_group_symop_operation_xyz
x,y,z
-x,-y,z
-x,y,z
x,-y,z
x,1/2+y,1/2+z
-x,1/2-y,1/2+z
-x,1/2+y,1/2+z
x,1/2-y,1/2+z
1/2+x,y,1/2+z
1/2-x,-y,1/2+z
1/2-x,y,1/2+z
1/2+x,-y,1/2+z
1/2+x,1/2+y,z
1/2-x,1/2-y,z
1/2-x,1/2+y,z
1/2+x,1/2-y,z
loop_
_atom_site_type_symbol
_atom_site_label
_atom_site_fract_x
_atom_site_fract_y
_atom_site_fract_z
Si Si1 0.368888 0.287279 0.082630
Si Si2 0.084716 0.393771 0.174041
Si Si3 0.500000 0.000000 0.080106
Si Si4 0.244224 0.079429 0.267889
Si Si5 0.850902 0.928582 0.948267
Si Si6 0.190200 0.848635 0.524035
Si Si7 0.059262 0.254290 0.318795
O O1 0.323213 0.231408 0.051805
O O2 0.394805 0.286646 0.238968
O O3 0.352258 0.362572 0.044149
O O4 0.417036 0.269952 0.974400
O O5 0.045199 0.441362 0.093604
O O6 0.105055 0.423947 0.324954
O O7 0.135826 0.381326 0.077941
O O8 0.059726 0.323189 0.225284
O O9 0.296545 0.072697 0.363769
O O10 0.205393 0.124713 0.365926
O O11 0.264947 0.121095 0.129759
O O12 0.228578 0.000000 0.239332
O O13 0.857830 0.000000 0.025591
O O14 0.000000 0.226941 0.323880
#
# Coordination Sequence:
#
# PCOD9368734 Si02
#       7
#    16  16   4  16  16  16  16
#     4  10  22  37  61  88 124 160 203 263 308 356
#     4   9  19  31  56  90 129 155 206 253 300 359
#     4  12  16  28  60  92 120 170 194 256 308 352
#     4  10  21  38  66  89 122 162 200 247 315 361
#     4   9  18  36  56  87 120 155 203 260 302 371
#     4  10  22  40  57  93 129 161 209 255 301 377
#     4  10  19  37  56  87 121 165 208 248 308 370
#
# _framework density 21.313452999999999
#
# number of rings (size 3 to 8) (size 9 to 14) (size 15 to 20)
#    0.000    2.240    1.600    1.920    2.240    1.920 
#    0.000    4.800    0.000    0.960    0.000    0.000 
#    0.000    1.280    0.000    0.000    0.000    0.000 
#
# Total GULP energy -139215.642484 kJ/mol
# GULP energy per Si atom -5568.625699 kJ/mol
# Density = 2.126494 g / cm^3
# Si number density = 21.313453 Si / 1000 Ang^3
#
#
#
# Elastic Constant Matrix: (Units=GPa)
#
#
# Indices 1 2 3 4 5 6 
#
# 1 89.6269 37.3449 33.5216 0.0000 0.0000 0.0000
# 2 37.3449 158.4708 28.0495 0.0000 0.0000 0.0000
# 3 33.5216 28.0495 60.2682 -0.0001 0.0001 0.0000
# 4 0.0000 0.0000 -0.0001 8.3122 0.0000 0.0000
# 5 0.0000 0.0000 0.0001 0.0000 4.5497 0.0000
# 6 0.0000 0.0000 0.0000 0.0000 0.0000 33.3395
#
#
#
# Elastic Compliance Matrix: (Units=1/GPa)
#
#
# Indices 1 2 3 4 5 6 
#
# 1 0.014764 -0.002208 -0.007185 0.000000 0.000000 0.000000
# 2 -0.002208 0.007207 -0.002126 0.000000 0.000000 0.000000
# 3 -0.007185 -0.002126 0.021578 0.000000 0.000000 0.000000
# 4 0.000000 0.000000 0.000000 0.120306 -0.000001 0.000000
# 5 0.000000 0.000000 0.000000 -0.000001 0.219796 0.000000
# 6 0.000000 0.000000 0.000000 0.000000 0.000000 0.029994
#
#
# Mechanical properties :
#
#
# Convention : Reuss Voigt Hill
#
# Bulk Modulus (GPa) = 48.75083 56.24422 52.49752
# Shear Modulus (GPa) = 11.27346 23.20359 17.23853
#
# Velocity S-wave (km/s) = 2.30236 3.30310 2.84704
# Velocity P-wave (km/s) = 5.47638 6.40263 5.95753
#
# Compressibility (1/GPa) = 0.02051247
#
# Stress axis : x y z
#
# Youngs Moduli (GPa) = 67.73076 138.75559 46.34314
#
# Poissons Ratio (x) = 0.30633 0.33295
# Poissons Ratio (y) = 0.14953 0.09854
# Poissons Ratio (z) = 0.48661 0.29503
#
# Static dielectric constant tensor:
#      x y z
#    x 1.790180 0.000000 0.000000 
#    y 0.000000 1.811390 0.000000 
#    z 0.000000 0.000000 1.792230 
# 
# From -- ./inp_files/5214.got.cif
#   From: 2010.05.17/outbox.cif.g08.bks.cpg/sg42_3_cif.got.tgz:5214.got - 2010.06.03 19:03:34.
