data_PCOD9368679
_publ_section_title
;
Structure prediction by ZEFSAII (Michael W. Deem and Ramdas Pophale) SiO2 
 PCOD9368679
Probable space group: F M M 2
;
_chemical_formula_sum "Si O2"
_cell_formula_units_Z 96
_cell_length_a 31.485902
_cell_length_b 18.637786
_cell_length_c 8.371401
_cell_angle_alpha 90.000000
_cell_angle_beta 90.000000
_cell_angle_gamma 90.000000
_cell_volume 4912.568350
_symmetry_space_group_name_H-M "F M M 2"
_symmetry_group_IT_number 42
_symmetry_cell_setting 'orthorhombic'
loop_
_space_group_symop_operation_xyz
x,y,z
-x,-y,z
-x,y,z
x,-y,z
x,1/2+y,1/2+z
-x,1/2-y,1/2+z
-x,1/2+y,1/2+z
x,1/2-y,1/2+z
1/2+x,y,1/2+z
1/2-x,-y,1/2+z
1/2-x,y,1/2+z
1/2+x,-y,1/2+z
1/2+x,1/2+y,z
1/2-x,1/2-y,z
1/2-x,1/2+y,z
1/2+x,1/2-y,z
loop_
_atom_site_type_symbol
_atom_site_label
_atom_site_fract_x
_atom_site_fract_y
_atom_site_fract_z
Si Si1 0.132528 0.418047 0.121650
Si Si2 0.290481 0.585682 0.863442
Si Si3 0.639636 0.691372 0.344063
Si Si4 0.276208 0.819583 0.665096
Si Si5 0.047554 0.846667 0.741429
Si Si6 0.581861 0.208692 0.558269
O O1 0.133144 0.500000 0.073780
O O2 0.166306 0.407785 0.262846
O O3 0.085818 0.395611 0.179372
O O4 0.145878 0.370771 0.971593
O O5 0.281454 0.500000 0.884033
O O6 0.253727 0.627816 0.767960
O O7 0.294023 0.629457 0.026837
O O8 0.684486 0.710532 0.267415
O O9 0.617461 0.754447 0.444749
O O10 0.607088 0.670645 0.201855
O O11 0.250000 0.750000 0.606365
O O12 0.055249 0.771479 0.646586
O O13 0.000000 0.872408 0.708868
O O14 0.054077 0.834622 0.931334
#
# Coordination Sequence:
#
# PCOD9368679 Si02
#       6
#    16  16  16  16  16  16
#     4  10  23  42  61  83 117 165 208 247 299 367
#     4  11  25  44  60  84 125 169 209 248 311 380
#     4  10  22  38  60  84 125 157 198 246 306 361
#     4  12  26  37  64  94 121 159 210 267 307 348
#     4  10  19  35  62  91 119 153 195 250 306 367
#     4   9  20  36  59  89 124 156 190 240 312 375
#
# _framework density 19.541713999999999
#
# number of rings (size 3 to 8) (size 9 to 14) (size 15 to 20)
#    0.000    1.667    0.000    3.500   11.667    3.000 
#    0.000    1.667    0.000    0.000    0.000    0.000 
#    0.000    0.000    0.000    0.000    0.000    0.000 
#
# Total GULP energy -134102.267917 kJ/mol
# GULP energy per Si atom -5587.594497 kJ/mol
# Density = 1.949724 g / cm^3
# Si number density = 19.541714 Si / 1000 Ang^3
#
#
#
# Elastic Constant Matrix: (Units=GPa)
#
#
# Indices 1 2 3 4 5 6 
#
# 1 78.3712 3.0486 7.9910 0.0000 0.0000 0.0000
# 2 3.0486 54.6050 18.4734 0.0000 0.0000 0.0000
# 3 7.9910 18.4734 80.6652 0.0000 0.0000 0.0000
# 4 0.0000 0.0000 0.0000 14.8682 0.0000 0.0000
# 5 0.0000 0.0000 0.0000 0.0000 24.8972 0.0000
# 6 0.0000 0.0000 0.0000 0.0000 0.0000 10.0078
#
#
#
# Elastic Compliance Matrix: (Units=1/GPa)
#
#
# Indices 1 2 3 4 5 6 
#
# 1 0.012895 -0.000312 -0.001206 0.000000 0.000000 0.000000
# 2 -0.000312 0.019859 -0.004517 0.000000 0.000000 0.000000
# 3 -0.001206 -0.004517 0.013551 0.000000 0.000000 0.000000
# 4 0.000000 0.000000 0.000000 0.067257 0.000000 0.000000
# 5 0.000000 0.000000 0.000000 0.000000 0.040165 0.000000
# 6 0.000000 0.000000 0.000000 0.000000 0.000000 0.099923
#
#
# Mechanical properties :
#
#
# Convention : Reuss Voigt Hill
#
# Bulk Modulus (GPa) = 29.21011 30.29639 29.75325
# Shear Modulus (GPa) = 18.04198 22.22986 20.13592
#
# Velocity S-wave (km/s) = 3.04181 3.37643 3.21348
# Velocity P-wave (km/s) = 5.22655 5.54414 5.38768
#
# Compressibility (1/GPa) = 0.03423473
#
# Stress axis : x y z
#
# Youngs Moduli (GPa) = 77.55013 50.35515 73.79609
#
# Poissons Ratio (x) = 0.01571 0.08900
# Poissons Ratio (y) = 0.02419 0.33334
# Poissons Ratio (z) = 0.09352 0.22746
#
# Static dielectric constant tensor:
#      x y z
#    x 1.694160 0.000000 0.000000 
#    y 0.000000 1.673980 0.000000 
#    z 0.000000 0.000000 1.697360 
# 
# From -- ./inp_files/5172.got.cif
#   From: 2010.05.17/outbox.cif.g08.bks.cpg/sg42_3_cif.got.tgz:5172.got - 2010.06.03 19:03:34.
