data_PCOD9368524
_publ_section_title
;
Structure prediction by ZEFSAII (Michael W. Deem and Ramdas Pophale) SiO2 
 PCOD9368524
Probable space group: F M M 2
;
_chemical_formula_sum "Si O2"
_cell_formula_units_Z 80
_cell_length_a 26.577743
_cell_length_b 8.295892
_cell_length_c 18.827369
_cell_angle_alpha 90.000000
_cell_angle_beta 90.000000
_cell_angle_gamma 90.000000
_cell_volume 4151.172892
_symmetry_space_group_name_H-M "F M M 2"
_symmetry_group_IT_number 42
_symmetry_cell_setting 'orthorhombic'
loop_
_space_group_symop_operation_xyz
x,y,z
-x,-y,z
-x,y,z
x,-y,z
x,1/2+y,1/2+z
-x,1/2-y,1/2+z
-x,1/2+y,1/2+z
x,1/2-y,1/2+z
1/2+x,y,1/2+z
1/2-x,-y,1/2+z
1/2-x,y,1/2+z
1/2+x,-y,1/2+z
1/2+x,1/2+y,z
1/2-x,1/2-y,z
1/2-x,1/2+y,z
1/2+x,1/2-y,z
loop_
_atom_site_type_symbol
_atom_site_label
_atom_site_fract_x
_atom_site_fract_y
_atom_site_fract_z
Si Si1 0.597740 0.304950 0.927420
Si Si2 0.694771 0.807066 0.176456
Si Si3 0.098060 0.802869 0.764252
Si Si4 0.000000 0.306900 0.012940
Si Si5 0.194676 0.807119 0.014654
Si Si6 0.500000 0.303057 0.676324
O O1 0.598329 0.500000 0.926813
O O2 0.594597 0.250012 0.845823
O O3 0.549562 0.250928 0.972034
O O4 0.649139 0.249169 0.965224
O O5 0.750000 0.750000 0.199557
O O6 0.649580 0.750030 0.226573
O O7 0.694614 0.000000 0.176045
O O8 0.686754 0.749830 0.095597
O O9 0.049896 0.751507 0.718349
O O10 0.098082 0.000000 0.764380
O O11 0.000000 0.500000 0.014152
O O12 0.000000 0.249063 0.094665
O O13 0.250000 0.750000 0.991600
O O14 0.194719 0.000000 0.014502
O O15 0.500000 0.500000 0.675882
#
# Coordination Sequence:
#
# PCOD9368524 Si02
#       6
#    16  16  16   8  16   8
#     4  10  21  37  56  78 106 141 178 216 263 318
#     4  10  19  33  54  78 105 138 177 219 260 309
#     4   9  18  33  54  77 101 134 174 212 255 310
#     4  11  22  35  55  83 108 135 174 218 266 315
#     4  10  20  34  54  79 107 141 179 219 263 312
#     4   9  17  31  53  77 100 129 168 212 254 303
#
# _framework density 19.271661999999999
#
# number of rings (size 3 to 8) (size 9 to 14) (size 15 to 20)
#    0.000    2.200    0.000    4.500    0.000    5.600 
#    0.000    2.000    0.000    7.200    0.000    0.000 
#    0.000    0.000    0.000    0.000    0.000    0.000 
#
# Total GULP energy -111695.172779 kJ/mol
# GULP energy per Si atom -5584.758639 kJ/mol
# Density = 1.922780 g / cm^3
# Si number density = 19.271662 Si / 1000 Ang^3
#
#
#
# Elastic Constant Matrix: (Units=GPa)
#
#
# Indices 1 2 3 4 5 6 
#
# 1 219.3185 20.7363 148.2103 0.0000 0.0000 0.0000
# 2 20.7363 21.8037 17.4565 0.0000 0.0000 0.0000
# 3 148.2103 17.4565 178.5308 0.0000 0.0000 0.0000
# 4 0.0000 0.0000 0.0000 17.6785 0.0000 0.0000
# 5 0.0000 0.0000 0.0000 0.0000 13.3583 0.0000
# 6 0.0000 0.0000 0.0000 0.0000 0.0000 23.8886
#
#
#
# Elastic Compliance Matrix: (Units=1/GPa)
#
#
# Indices 1 2 3 4 5 6 
#
# 1 0.010600 -0.003294 -0.008478 0.000000 0.000000 0.000000
# 2 -0.003294 0.050782 -0.002231 0.000000 0.000000 0.000000
# 3 -0.008478 -0.002231 0.012857 0.000000 0.000000 0.000000
# 4 0.000000 0.000000 0.000000 0.056566 0.000000 0.000000
# 5 0.000000 0.000000 0.000000 0.000000 0.074860 0.000000
# 6 0.000000 0.000000 0.000000 0.000000 0.000000 0.041861
#
#
# Mechanical properties :
#
#
# Convention : Reuss Voigt Hill
#
# Bulk Modulus (GPa) = 21.62877 88.05103 54.83990
# Shear Modulus (GPa) = 17.18548 26.53508 21.86028
#
# Velocity S-wave (km/s) = 2.98946 3.71468 3.37162
# Velocity P-wave (km/s) = 4.81282 8.01168 6.60872
#
# Compressibility (1/GPa) = 0.04623471
#
# Stress axis : x y z
#
# Youngs Moduli (GPa) = 94.33905 19.69186 77.77628
#
# Poissons Ratio (x) = 0.06486 0.65937
# Poissons Ratio (y) = 0.31072 0.17353
# Poissons Ratio (z) = 0.79978 0.04394
#
# Static dielectric constant tensor:
#      x y z
#    x 1.654050 0.000000 0.000000 
#    y 0.000000 1.677460 0.000000 
#    z 0.000000 0.000000 1.647800 
# 
# From -- ./inp_files/16378.got.cif
#   From: 2010.05.17/outbox.cif.g08.bks.cpg/sg42_9_cif.got.tgz:16378.got - 2010.06.03 19:03:34.
