data_PCOD9368194
_publ_section_title
;
Structure prediction by ZEFSAII (Michael W. Deem and Ramdas Pophale) SiO2 
 PCOD9368194
Probable space group: F M M 2
;
_chemical_formula_sum "Si O2"
_cell_formula_units_Z 104
_cell_length_a 20.154906
_cell_length_b 16.811085
_cell_length_c 15.168884
_cell_angle_alpha 90.000000
_cell_angle_beta 90.000000
_cell_angle_gamma 90.000000
_cell_volume 5139.609832
_symmetry_space_group_name_H-M "F M M 2"
_symmetry_group_IT_number 42
_symmetry_cell_setting 'orthorhombic'
loop_
_space_group_symop_operation_xyz
x,y,z
-x,-y,z
-x,y,z
x,-y,z
x,1/2+y,1/2+z
-x,1/2-y,1/2+z
-x,1/2+y,1/2+z
x,1/2-y,1/2+z
1/2+x,y,1/2+z
1/2-x,-y,1/2+z
1/2-x,y,1/2+z
1/2+x,-y,1/2+z
1/2+x,1/2+y,z
1/2-x,1/2-y,z
1/2-x,1/2+y,z
1/2+x,1/2-y,z
loop_
_atom_site_type_symbol
_atom_site_label
_atom_site_fract_x
_atom_site_fract_y
_atom_site_fract_z
Si Si1 0.283681 0.908292 0.851820
Si Si2 0.157070 0.092722 0.752284
Si Si3 0.250000 0.250000 0.051364
Si Si4 0.575704 0.126069 0.424652
Si Si5 0.877265 0.799033 0.435931
Si Si6 0.424439 0.093598 0.089761
Si Si7 0.203028 0.911911 0.037812
O O1 0.225513 0.874212 0.790275
O O2 0.346324 0.850582 0.857110
O O3 0.300211 0.000000 0.829721
O O4 0.249389 0.911878 0.949522
O O5 0.104405 0.094934 0.832138
O O6 0.124746 0.126755 0.664360
O O7 0.169972 0.000000 0.734383
O O8 0.228713 0.164640 0.092690
O O9 0.186567 0.266472 0.989505
O O10 0.500000 0.101945 0.440903
O O11 0.580611 0.221598 0.415336
O O12 0.628240 0.099539 0.500153
O O13 0.914903 0.858600 0.500597
O O14 0.500000 0.100089 0.121579
O O15 0.410711 0.000000 0.074608
O O16 0.209403 0.000000 0.078566
#
# Coordination Sequence:
#
# PCOD9368194 Si02
#       7
#    16  16   8  16  16  16  16
#     4   8  14  27  47  67  87 119 164 208 249 295
#     4   9  18  32  50  71  94 123 163 210 258 307
#     4   8  16  28  42  62  88 120 162 204 248 292
#     4  10  18  27  42  65  95 131 168 204 243 297
#     4  10  18  30  46  68  99 133 167 205 250 304
#     4  10  20  33  50  74 104 135 165 204 262 325
#     4   8  14  24  40  62  86 114 153 203 253 297
#
# _framework density 20.234998000000001
#
# number of rings (size 3 to 8) (size 9 to 14) (size 15 to 20)
#    0.000    2.923    0.000    3.692    0.000    2.462 
#    0.000    1.538    0.000    0.000    0.000    0.000 
#    0.000    2.462    0.000   15.231    0.000   40.462 
#
# Total GULP energy -144913.435250 kJ/mol
# GULP energy per Si atom -5573.593663 kJ/mol
# Density = 2.018894 g / cm^3
# Si number density = 20.234998 Si / 1000 Ang^3
#
#
#
# Elastic Constant Matrix: (Units=GPa)
#
#
# Indices 1 2 3 4 5 6 
#
# 1 65.9628 33.7331 18.3015 0.0000 0.0000 0.0000
# 2 33.7331 110.0450 17.6831 0.0000 0.0000 0.0000
# 3 18.3015 17.6831 37.7620 0.0000 0.0000 0.0000
# 4 0.0000 0.0000 0.0000 6.0195 0.0000 0.0000
# 5 0.0000 0.0000 0.0000 0.0000 3.7308 0.0000
# 6 0.0000 0.0000 0.0000 0.0000 0.0000 24.6116
#
#
#
# Elastic Compliance Matrix: (Units=1/GPa)
#
#
# Indices 1 2 3 4 5 6 
#
# 1 0.019658 -0.004861 -0.007251 0.000000 0.000000 0.000000
# 2 -0.004861 0.011029 -0.002809 0.000000 0.000000 0.000000
# 3 -0.007251 -0.002809 0.031311 0.000000 0.000000 0.000000
# 4 0.000000 0.000000 0.000000 0.166127 0.000000 0.000000
# 5 0.000000 0.000000 0.000000 0.000000 0.268039 0.000000
# 6 0.000000 0.000000 0.000000 0.000000 0.000000 0.040631
#
#
# Mechanical properties :
#
#
# Convention : Reuss Voigt Hill
#
# Bulk Modulus (GPa) = 31.09784 39.24502 35.17143
# Shear Modulus (GPa) = 8.66020 16.47584 12.56802
#
# Velocity S-wave (km/s) = 2.07101 2.85656 2.49490
# Velocity P-wave (km/s) = 4.59571 5.50605 5.07135
#
# Compressibility (1/GPa) = 0.03215658
#
# Stress axis : x y z
#
# Youngs Moduli (GPa) = 50.87091 90.67411 31.93753
#
# Poissons Ratio (x) = 0.44074 0.23158
# Poissons Ratio (y) = 0.24727 0.08970
# Poissons Ratio (z) = 0.36886 0.25467
#
# Static dielectric constant tensor:
#      x y z
#    x 1.729460 0.000000 0.000000 
#    y 0.000000 1.796490 0.000000 
#    z 0.000000 0.000000 1.708420 
# 
# From -- ./inp_files/16000.got.cif
#   From: 2010.05.17/outbox.cif.g08.bks.cpg/sg42_8_cif.got.tgz:16000.got - 2010.06.03 19:03:34.
