data_PCOD9368102
_publ_section_title
;
Structure prediction by ZEFSAII (Michael W. Deem and Ramdas Pophale) SiO2 
 PCOD9368102
Probable space group: F M M 2
;
_chemical_formula_sum "Si O2"
_cell_formula_units_Z 128
_cell_length_a 15.026276
_cell_length_b 24.112823
_cell_length_c 19.920142
_cell_angle_alpha 90.000000
_cell_angle_beta 90.000000
_cell_angle_gamma 90.000000
_cell_volume 7217.584046
_symmetry_space_group_name_H-M "F M M 2"
_symmetry_group_IT_number 42
_symmetry_cell_setting 'orthorhombic'
loop_
_space_group_symop_operation_xyz
x,y,z
-x,-y,z
-x,y,z
x,-y,z
x,1/2+y,1/2+z
-x,1/2-y,1/2+z
-x,1/2+y,1/2+z
x,1/2-y,1/2+z
1/2+x,y,1/2+z
1/2-x,-y,1/2+z
1/2-x,y,1/2+z
1/2+x,-y,1/2+z
1/2+x,1/2+y,z
1/2-x,1/2-y,z
1/2-x,1/2+y,z
1/2+x,1/2-y,z
loop_
_atom_site_type_symbol
_atom_site_label
_atom_site_fract_x
_atom_site_fract_y
_atom_site_fract_z
Si Si1 0.109217 0.226996 0.099380
Si Si2 0.392753 0.836599 0.017936
Si Si3 0.108999 0.936481 0.882652
Si Si4 0.148722 0.732974 0.893852
Si Si5 0.391527 0.120854 0.243948
Si Si6 0.102266 0.159966 0.976098
Si Si7 0.893313 0.751510 0.745007
Si Si8 0.608765 0.436818 0.604621
O O1 0.139051 0.223164 0.176285
O O2 0.000000 0.224904 0.097964
O O3 0.134224 0.286881 0.068541
O O4 0.142971 0.181877 0.045706
O O5 0.500000 0.837140 0.019771
O O6 0.366967 0.818112 0.943472
O O7 0.361489 0.895305 0.045969
O O8 0.135757 0.912965 0.809875
O O9 0.141987 0.892708 0.938177
O O10 0.000000 0.935375 0.883423
O O11 0.136330 0.000000 0.892621
O O12 0.250000 0.750000 0.897891
O O13 0.100227 0.787011 0.925725
O O14 0.126129 0.723945 0.816357
O O15 0.500000 0.122329 0.243893
O O16 0.360765 0.184633 0.247259
O O17 0.364727 0.090325 0.175667
O O18 0.000000 0.145343 0.990893
O O19 0.000000 0.754273 0.739141
O O20 0.500000 0.437662 0.604361
O O21 0.639198 0.500000 0.598238
#
# Coordination Sequence:
#
# PCOD9368102 Si02
#       8
#    16  16  16  16  16  16  16  16
#     4   8  14  24  43  64  82 109 147 177 206 257
#     4   9  16  29  46  65  88 117 146 175 218 267
#     4   9  15  22  37  63  92 119 144 170 207 257
#     4  11  21  30  42  62  89 116 153 188 218 255
#     4   9  14  21  36  63  95 119 137 167 213 267
#     4   9  16  29  46  64  88 118 146 176 218 263
#     4  10  16  27  45  64  87 119 147 174 220 271
#     4   9  15  23  40  68  96 116 140 178 221 264
#
# _framework density 17.734466999999999
#
# number of rings (size 3 to 8) (size 9 to 14) (size 15 to 20)
#    0.000    2.750    2.500    2.250    0.000    1.500 
#    0.000    2.500    0.000    0.750    0.000    0.875 
#    0.000    5.000    0.000    0.000    0.000    0.000 
#
# Total GULP energy -178318.267174 kJ/mol
# GULP energy per Si atom -5572.445849 kJ/mol
# Density = 1.769410 g / cm^3
# Si number density = 17.734467 Si / 1000 Ang^3
#
#
#
# Elastic Constant Matrix: (Units=GPa)
#
#
# Indices 1 2 3 4 5 6 
#
# 1 15.3295 1.0813 3.9184 0.0000 0.0000 0.0000
# 2 1.0813 96.6934 95.7124 0.0000 0.0000 0.0000
# 3 3.9184 95.7124 181.6758 0.0000 0.0000 0.0000
# 4 0.0000 0.0000 0.0000 22.4860 0.0000 0.0000
# 5 0.0000 0.0000 0.0000 0.0000 3.9024 0.0000
# 6 0.0000 0.0000 0.0000 0.0000 0.0000 0.6593
#
#
#
# Elastic Compliance Matrix: (Units=1/GPa)
#
#
# Indices 1 2 3 4 5 6 
#
# 1 0.065685 0.001396 -0.002152 0.000000 0.000000 0.000000
# 2 0.001396 0.021642 -0.011432 0.000000 0.000000 0.000000
# 3 -0.002152 -0.011432 0.011573 0.000000 0.000000 0.000000
# 4 0.000000 0.000000 0.000000 0.044472 0.000000 0.000000
# 5 0.000000 0.000000 0.000000 0.000000 0.256249 0.000000
# 6 0.000000 0.000000 0.000000 0.000000 0.000000 1.516742
#
#
# Mechanical properties :
#
#
# Convention : Reuss Voigt Hill
#
# Bulk Modulus (GPa) = 13.41842 55.01365 34.21603
# Shear Modulus (GPa) = 2.54378 18.27533 10.40955
#
# Velocity S-wave (km/s) = 1.19895 3.21362 2.42537
# Velocity P-wave (km/s) = 3.08210 6.69760 5.21331
#
# Compressibility (1/GPa) = 0.07452440
#
# Stress axis : x y z
#
# Youngs Moduli (GPa) = 15.22410 46.20580 86.40491
#
# Poissons Ratio (x) = -0.06448 0.18594
# Poissons Ratio (y) = -0.02125 0.98777
# Poissons Ratio (z) = 0.03276 0.52822
#
# Static dielectric constant tensor:
#      x y z
#    x 1.561550 0.000000 0.000000 
#    y 0.000000 1.603130 0.000000 
#    z 0.000000 0.000000 1.648190 
# 
# From -- ./inp_files/21978.got.cif
#   From: 2010.05.17/outbox.cif.g08.bks.cpg/sg42_11_cif.got.tgz:21978.got - 2010.06.03 19:03:34.
