data_PCOD9368069
_publ_section_title
;
Structure prediction by ZEFSAII (Michael W. Deem and Ramdas Pophale) SiO2 
 PCOD9368069
Probable space group: A B A 2
;
_chemical_formula_sum "Si O2"
_cell_formula_units_Z 24
_cell_length_a 15.000000
_cell_length_b 18.000000
_cell_length_c 9.000000
_cell_angle_alpha 90.000000
_cell_angle_beta 90.000000
_cell_angle_gamma 90.000000
_cell_volume 2430.000000
_symmetry_space_group_name_H-M "A B A 2"
_symmetry_group_IT_number 41
_symmetry_cell_setting 'orthorhombic'
loop_
_space_group_symop_operation_xyz
x,y,z
-x,-y,z
1/2-x,y,1/2+z
1/2+x,-y,1/2+z
x,1/2+y,1/2+z
-x,1/2-y,1/2+z
1/2-x,1/2+y,z
1/2+x,1/2-y,z
loop_
_atom_site_type_symbol
_atom_site_label
_atom_site_fract_x
_atom_site_fract_y
_atom_site_fract_z
Si Si1 0.532104 0.915807 0.991490
Si Si2 0.209701 0.584109 0.793870
Si Si3 0.783656 0.584735 0.242486
Si Si4 0.857077 0.837111 0.991062
Si Si5 0.147939 0.838880 0.445601
Si Si6 0.014523 0.913909 0.837343
O O1 0.628599 0.911856 0.914195
O O2 0.500000 0.000000 0.967933
O O3 0.455378 0.862561 0.924421
O O4 0.526124 0.903233 0.170096
O O5 0.244746 0.499554 0.759340
O O6 0.173587 0.624084 0.644832
O O7 0.291928 0.628759 0.865324
O O8 0.811227 0.608058 0.075515
O O9 0.708867 0.640638 0.304778
O O10 0.878300 0.595302 0.328842
O O11 0.957591 0.861986 0.946579
O O12 0.848248 0.747676 0.991042
O O13 0.000000 0.000000 0.878929
#
# Coordination Sequence:
#
# PCOD9368069 Si02
#       6
#     8   8   8   8   8   8
#     4  10  22  42  68  96 131 177 220 276 329 393
#     4  12  24  43  71  98 132 177 230 268 330 405
#     4  11  23  43  70  94 132 179 221 272 326 406
#     4  12  26  41  67 102 135 173 219 281 335 396
#     4  11  25  43  65 100 138 171 220 278 342 385
#     4  10  22  42  69  94 132 175 220 269 334 389
#
# _framework density 9.8765429999999999
#
# number of rings (size 3 to 8) (size 9 to 14) (size 15 to 20)
#    0.000    1.000    3.333    3.000    2.333    6.000 
#    0.000    0.000    0.000    0.000    0.000    0.000 
#    0.000    0.000    0.000    0.000    0.000    0.000 
#
# Total GULP energy -134186.105692 kJ/mol
# GULP energy per Si atom -5591.087737 kJ/mol
# Density = 0.985406 g / cm^3
# Si number density = 9.876543 Si / 1000 Ang^3
#
#
#
# Elastic Constant Matrix: (Units=GPa)
#
#
# Indices 1 2 3 4 5 6 
#
# 1 123.6927 43.4764 22.1388 0.0000 0.0000 0.0000
# 2 43.4764 123.4799 27.5430 0.0000 0.0000 0.0000
# 3 22.1388 27.5430 43.5640 0.0000 0.0000 0.0000
# 4 0.0000 0.0000 0.0000 27.3231 0.0000 0.0000
# 5 0.0000 0.0000 0.0000 0.0000 43.7840 0.0000
# 6 0.0000 0.0000 0.0000 0.0000 0.0000 35.5403
#
#
#
# Elastic Compliance Matrix: (Units=1/GPa)
#
#
# Indices 1 2 3 4 5 6 
#
# 1 0.009592 -0.002666 -0.003189 0.000000 0.000000 0.000000
# 2 -0.002666 0.010169 -0.005074 0.000000 0.000000 0.000000
# 3 -0.003189 -0.005074 0.027784 0.000000 0.000000 0.000000
# 4 0.000000 0.000000 0.000000 0.036599 0.000000 0.000000
# 5 0.000000 0.000000 0.000000 0.000000 0.022839 0.000000
# 6 0.000000 0.000000 0.000000 0.000000 0.000000 0.028137
#
#
# Mechanical properties :
#
#
# Convention : Reuss Voigt Hill
#
# Bulk Modulus (GPa) = 38.93196 53.00589 45.96893
# Shear Modulus (GPa) = 30.20379 34.50138 32.35259
#
# Velocity S-wave (km/s) = 3.91457 4.18381 4.05143
# Velocity P-wave (km/s) = 6.33908 7.08742 6.72367
#
# Compressibility (1/GPa) = 0.02568584
#
# Stress axis : x y z
#
# Youngs Moduli (GPa) = 104.24868 98.33739 35.99228
#
# Poissons Ratio (x) = 0.26217 0.11479
# Poissons Ratio (y) = 0.27793 0.18264
# Poissons Ratio (z) = 0.33247 0.49901
#
# Static dielectric constant tensor:
#      x y z
#    x 1.704000 0.000000 0.000000 
#    y 0.000000 1.664960 0.000000 
#    z 0.000000 0.000000 1.717650 
# 
# From -- ./inp_files/2509.got.cif
#   From: 2010.05.17/outbox.ucp.g08.bks.cvg/sg41_2_cif.got.tgz:2509.got - 2010.06.11 16:28:22.
