data_PCOD9368498
_publ_section_title
;
Structure prediction by ZEFSAII (Michael W. Deem and Ramdas Pophale) SiO2 
 PCOD9368498
Probable space group: F M M 2
;
_chemical_formula_sum "Si O2"
_cell_formula_units_Z 116
_cell_length_a 7.659075
_cell_length_b 31.561160
_cell_length_c 25.179594
_cell_angle_alpha 90.000000
_cell_angle_beta 90.000000
_cell_angle_gamma 90.000000
_cell_volume 6086.645419
_symmetry_space_group_name_H-M "F M M 2"
_symmetry_group_IT_number 42
_symmetry_cell_setting 'orthorhombic'
loop_
_space_group_symop_operation_xyz
x,y,z
-x,-y,z
-x,y,z
x,-y,z
x,1/2+y,1/2+z
-x,1/2-y,1/2+z
-x,1/2+y,1/2+z
x,1/2-y,1/2+z
1/2+x,y,1/2+z
1/2-x,-y,1/2+z
1/2-x,y,1/2+z
1/2+x,-y,1/2+z
1/2+x,1/2+y,z
1/2-x,1/2-y,z
1/2-x,1/2+y,z
1/2+x,1/2-y,z
loop_
_atom_site_type_symbol
_atom_site_label
_atom_site_fract_x
_atom_site_fract_y
_atom_site_fract_z
Si Si1 0.295015 0.884172 0.966010
Si Si2 0.707222 0.797891 0.429162
Si Si3 0.710211 0.298216 0.807476
Si Si4 0.707547 0.618110 0.754426
Si Si5 0.305584 0.068806 0.364522
Si Si6 0.786529 0.952519 0.673670
Si Si7 0.500000 0.500000 0.376099
Si Si8 0.212612 0.047231 0.550626
O O1 0.500000 0.893366 0.960326
O O2 0.274751 0.833805 0.968845
O O3 0.200385 0.897742 0.912226
O O4 0.229331 0.914296 0.013452
O O5 0.500000 0.802094 0.426849
O O6 0.750000 0.750000 0.444986
O O7 0.776273 0.803845 0.368367
O O8 0.500000 0.302695 0.809760
O O9 0.750000 0.250000 0.791419
O O10 0.776614 0.334925 0.767984
O O11 0.500000 0.622840 0.743129
O O12 0.725261 0.592429 0.809152
O O13 0.777656 0.586765 0.708862
O O14 0.500000 0.050067 0.362162
O O15 0.153266 0.036204 0.375251
O O16 0.734719 0.948337 0.612039
O O17 0.000000 0.952402 0.675505
O O18 0.733123 0.000000 0.692434
O O19 0.000000 0.047273 0.550409
O O20 0.265911 0.000000 0.531418
#
# Coordination Sequence:
#
# PCOD9368498 Si02
#       8
#    16  16  16  16  16  16   4  16
#     4  11  20  32  53  79 112 146 184 228 274 333
#     4  10  19  33  51  75 105 140 178 224 277 333
#     4   9  17  30  47  71 101 132 168 214 266 325
#     4   9  17  31  52  77 108 138 179 224 267 326
#     4  11  23  38  54  79 112 149 187 226 273 336
#     4   8  14  27  48  76 102 137 184 229 266 310
#     4  12  26  40  48  78 116 156 186 216 284 332
#     4   8  16  29  48  74 107 141 186 232 265 311
#
# _framework density 19.058115999999998
#
# number of rings (size 3 to 8) (size 9 to 14) (size 15 to 20)
#    0.000    2.483    2.069    1.862    1.931    0.552 
#    1.241    0.000    0.000    0.828    3.586    1.931 
#    0.000    0.000    0.000    0.000    0.000    0.000 
#
# Total GULP energy -161442.851539 kJ/mol
# GULP energy per Si atom -5566.994881 kJ/mol
# Density = 1.901474 g / cm^3
# Si number density = 19.058116 Si / 1000 Ang^3
#
#
#
# Elastic Constant Matrix: (Units=GPa)
#
#
# Indices 1 2 3 4 5 6 
#
# 1 42.4850 14.9361 -0.3337 0.0000 0.0000 0.0000
# 2 14.9361 186.3075 69.5425 0.0000 0.0000 0.0000
# 3 -0.3337 69.5425 74.0170 0.0000 0.0000 0.0000
# 4 0.0000 0.0000 0.0000 21.5851 0.0000 0.0000
# 5 0.0000 0.0000 0.0000 0.0000 1.4182 0.0000
# 6 0.0000 0.0000 0.0000 0.0000 0.0000 -62.0039
#
#
#
# Elastic Compliance Matrix: (Units=1/GPa)
#
#
# Indices 1 2 3 4 5 6 
#
# 1 0.024654 -0.003108 0.003031 0.000000 0.000000 0.000000
# 2 -0.003108 0.008658 -0.008149 0.000000 0.000000 0.000000
# 3 0.003031 -0.008149 0.021180 0.000000 0.000000 0.000000
# 4 0.000000 0.000000 0.000000 0.046328 0.000000 0.000000
# 5 0.000000 0.000000 0.000000 0.000000 0.705103 0.000000
# 6 0.000000 0.000000 0.000000 0.000000 0.000000 -0.016128
#
#
# Mechanical properties :
#
#
# Convention : Reuss Voigt Hill
#
# Bulk Modulus (GPa) = 26.28707 52.34438 39.31572
# Shear Modulus (GPa) = 6.10554 6.77752 6.44153
#
# Velocity S-wave (km/s) = 1.79181 1.88784 1.84046
# Velocity P-wave (km/s) = 4.25486 5.68131 5.01902
#
# Compressibility (1/GPa) = 0.03804152
#
# Stress axis : x y z
#
# Youngs Moduli (GPa) = 40.56114 115.49511 47.21344
#
# Poissons Ratio (x) = 0.35895 -0.14311
# Poissons Ratio (y) = 0.12606 0.38474
# Poissons Ratio (z) = -0.12295 0.94117
#
# Static dielectric constant tensor:
#      x y z
#    x 1.709630 0.000000 0.000000 
#    y 0.000000 1.706350 0.000000 
#    z 0.000000 0.000000 1.647370 
# 
# From -- ./inp_files/28470.got.cif
#   From: 2010.05.17/outbox.cif.g08.bks.cpg/sg42_15_cif.got.tgz:28470.got - 2010.06.03 19:03:34.
