data_PCOD9368829
_publ_section_title
;
Structure prediction by ZEFSAII (Michael W. Deem and Ramdas Pophale) SiO2 
 PCOD9368829
Probable space group: F M M 2
;
_chemical_formula_sum "Si O2"
_cell_formula_units_Z 88
_cell_length_a 14.004269
_cell_length_b 11.066439
_cell_length_c 30.083548
_cell_angle_alpha 90.000000
_cell_angle_beta 90.000000
_cell_angle_gamma 90.000000
_cell_volume 4662.269710
_symmetry_space_group_name_H-M "F M M 2"
_symmetry_group_IT_number 42
_symmetry_cell_setting 'orthorhombic'
loop_
_space_group_symop_operation_xyz
x,y,z
-x,-y,z
-x,y,z
x,-y,z
x,1/2+y,1/2+z
-x,1/2-y,1/2+z
-x,1/2+y,1/2+z
x,1/2-y,1/2+z
1/2+x,y,1/2+z
1/2-x,-y,1/2+z
1/2-x,y,1/2+z
1/2+x,-y,1/2+z
1/2+x,1/2+y,z
1/2-x,1/2-y,z
1/2-x,1/2+y,z
1/2+x,1/2-y,z
loop_
_atom_site_type_symbol
_atom_site_label
_atom_site_fract_x
_atom_site_fract_y
_atom_site_fract_z
Si Si1 0.300176 0.125921 0.930380
Si Si2 0.000000 0.142708 0.560991
Si Si3 0.655589 0.199328 0.832688
Si Si4 0.169153 0.856994 0.631398
Si Si5 0.500000 0.362210 0.703466
Si Si6 0.500000 0.627919 0.265100
Si Si7 0.500000 0.702716 0.464232
Si Si8 0.500000 0.140336 0.379208
O O1 0.250000 0.250000 0.943739
O O2 0.311973 0.129477 0.876988
O O3 0.404917 0.131309 0.951093
O O4 0.251123 0.000000 0.943051
O O5 0.904144 0.162209 0.590034
O O6 0.000000 0.221952 0.516640
O O7 0.000000 0.000000 0.548416
O O8 0.750000 0.250000 0.810189
O O9 0.590494 0.131597 0.797881
O O10 0.590700 0.304523 0.853912
O O11 0.250000 0.750000 0.632852
O O12 0.095476 0.850945 0.673139
O O13 0.203272 0.000000 0.629426
O O14 0.500000 0.500000 0.722271
O O15 0.500000 0.251036 0.737333
O O16 0.500000 0.500000 0.239674
O O17 0.500000 0.814549 0.430017
O O18 0.500000 0.000000 0.376792
#
# Coordination Sequence:
#
# PCOD9368829 Si02
#       8
#    16   8  16  16   8   8   8   8
#     4  10  20  34  52  74 102 141 185 224 261 310
#     4   9  18  35  56  79 109 144 178 214 267 334
#     4   9  20  35  52  73 104 146 183 219 271 324
#     4   9  19  38  63  84 107 140 178 217 263 324
#     4   9  21  41  58  78 110 146 175 207 266 340
#     4  11  22  35  55  85 111 134 177 233 270 310
#     4  10  20  33  53  76 107 147 182 219 268 321
#     4   9  19  34  52  76 106 145 193 235 270 311
#
# _framework density 18.874925999999999
#
# number of rings (size 3 to 8) (size 9 to 14) (size 15 to 20)
#    0.000    2.545    0.000    3.000    0.000   10.909 
#    0.000    4.091    0.000    0.000    0.000    0.000 
#    0.000    0.000    0.000    0.000    0.000    0.000 
#
# Total GULP energy -122525.198941 kJ/mol
# GULP energy per Si atom -5569.327225 kJ/mol
# Density = 1.883197 g / cm^3
# Si number density = 18.874926 Si / 1000 Ang^3
#
#
#
# Elastic Constant Matrix: (Units=GPa)
#
#
# Indices 1 2 3 4 5 6 
#
# 1 114.1538 63.2259 16.3362 0.0000 0.0000 0.0000
# 2 63.2259 192.2337 36.7986 0.0000 0.0000 0.0000
# 3 16.3362 36.7986 54.5709 0.0000 0.0000 0.0000
# 4 0.0000 0.0000 0.0000 749.2948 0.0000 0.0000
# 5 0.0000 0.0000 0.0000 0.0000 -34.3467 0.0000
# 6 0.0000 0.0000 0.0000 0.0000 0.0000 8.2387
#
#
#
# Elastic Compliance Matrix: (Units=1/GPa)
#
#
# Indices 1 2 3 4 5 6 
#
# 1 0.010755 -0.003354 -0.000958 0.000000 0.000000 0.000000
# 2 -0.003354 0.007019 -0.003729 0.000000 0.000000 0.000000
# 3 -0.000958 -0.003729 0.021126 0.000000 0.000000 0.000000
# 4 0.000000 0.000000 0.000000 0.001335 0.000000 0.000000
# 5 0.000000 0.000000 0.000000 0.000000 -0.029115 0.000000
# 6 0.000000 0.000000 0.000000 0.000000 0.000000 0.121378
#
#
# Mechanical properties :
#
#
# Convention : Reuss Voigt Hill
#
# Bulk Modulus (GPa) = 43.82475 65.96442 54.89459
# Shear Modulus (GPa) = 32.01332 160.94389 96.47861
#
# Velocity S-wave (km/s) = 4.12281 9.24412 7.15721
# Velocity P-wave (km/s) = 6.77734 12.20501 9.87154
#
# Compressibility (1/GPa) = 0.02281816
#
# Stress axis : x y z
#
# Youngs Moduli (GPa) = 92.98175 142.47178 47.33479
#
# Poissons Ratio (x) = 0.47784 0.04534
# Poissons Ratio (y) = 0.31185 0.17651
# Poissons Ratio (z) = 0.08907 0.53128
#
# Static dielectric constant tensor:
#      x y z
#    x 1.676090 0.000000 0.000000 
#    y 0.000000 1.485240 0.000000 
#    z 0.000000 0.000000 1.647920 
# 
# From -- ./inp_files/32552.got.cif
#   From: 2010.05.17/outbox.cif.g08.bks.cpg/sg42_17_cif.got.tgz:32552.got - 2010.06.03 19:03:34.
