data_PCOD9368338
_publ_section_title
;
Structure prediction by ZEFSAII (Michael W. Deem and Ramdas Pophale) SiO2 
 PCOD9368338
Probable space group: F M M 2
;
_chemical_formula_sum "Si O2"
_cell_formula_units_Z 128
_cell_length_a 26.006901
_cell_length_b 25.290447
_cell_length_c 9.848317
_cell_angle_alpha 90.000000
_cell_angle_beta 90.000000
_cell_angle_gamma 90.000000
_cell_volume 6477.495638
_symmetry_space_group_name_H-M "F M M 2"
_symmetry_group_IT_number 42
_symmetry_cell_setting 'orthorhombic'
loop_
_space_group_symop_operation_xyz
x,y,z
-x,-y,z
-x,y,z
x,-y,z
x,1/2+y,1/2+z
-x,1/2-y,1/2+z
-x,1/2+y,1/2+z
x,1/2-y,1/2+z
1/2+x,y,1/2+z
1/2-x,-y,1/2+z
1/2-x,y,1/2+z
1/2+x,-y,1/2+z
1/2+x,1/2+y,z
1/2-x,1/2-y,z
1/2-x,1/2+y,z
1/2+x,1/2-y,z
loop_
_atom_site_type_symbol
_atom_site_label
_atom_site_fract_x
_atom_site_fract_y
_atom_site_fract_z
Si Si1 0.336465 0.407365 0.669630
Si Si2 0.899837 0.259640 0.080658
Si Si3 0.857055 0.560080 0.483111
Si Si4 0.828809 0.257451 0.836758
Si Si5 0.941174 0.853974 0.987973
Si Si6 0.055254 0.363282 0.160122
Si Si7 0.740413 0.336426 0.802532
Si Si8 0.755132 0.058178 0.470261
O O1 0.345406 0.429580 0.822140
O O2 0.393098 0.393529 0.617740
O O3 0.298233 0.356764 0.686101
O O4 0.303225 0.442602 0.570200
O O5 0.870687 0.255538 0.223458
O O6 0.941315 0.305560 0.094674
O O7 0.858374 0.276850 0.968449
O O8 0.923272 0.203481 0.037685
O O9 0.875215 0.500000 0.500338
O O10 0.898970 0.602351 0.530357
O O11 0.800003 0.565238 0.546526
O O12 0.789497 0.300135 0.774082
O O13 0.797108 0.204806 0.880679
O O14 0.941092 0.855940 0.823382
O O15 0.000000 0.864699 0.031866
O O16 0.000000 0.388567 0.129789
O O17 0.758209 0.389820 0.876907
O O18 0.751791 0.000000 0.401842
#
# Coordination Sequence:
#
# PCOD9368338 Si02
#       8
#    16  16  16  16  16  16  16  16
#     4  10  18  34  54  82 114 150 188 244 293 352
#     4  12  20  39  54  86 113 158 186 243 284 356
#     4   9  19  35  54  81 112 148 195 242 294 350
#     4  11  24  34  60  85 122 151 196 232 304 345
#     4  10  21  36  57  83 115 151 195 247 294 348
#     4  10  20  36  56  81 114 154 195 242 294 345
#     4  10  22  35  52  85 116 156 187 244 282 366
#     4  10  20  34  56  81 114 153 193 238 292 347
#
# _framework density 19.760725000000001
#
# number of rings (size 3 to 8) (size 9 to 14) (size 15 to 20)
#    0.000    1.750    2.500    3.000    3.500    1.750 
#    0.000    0.000    0.000    1.125    0.000    0.000 
#    0.000    0.000    0.000    0.000    0.000    0.000 
#
# Total GULP energy -178391.961271 kJ/mol
# GULP energy per Si atom -5574.748790 kJ/mol
# Density = 1.971575 g / cm^3
# Si number density = 19.760725 Si / 1000 Ang^3
#
#
#
# Elastic Constant Matrix: (Units=GPa)
#
#
# Indices 1 2 3 4 5 6 
#
# 1 151.8563 55.7131 17.9406 -0.0003 0.0002 0.0002
# 2 55.7131 97.3084 1.6250 -0.0003 0.0001 0.0003
# 3 17.9406 1.6250 29.0811 -0.0002 0.0002 0.0003
# 4 -0.0003 -0.0003 -0.0002 20.3200 0.0002 0.0003
# 5 0.0002 0.0001 0.0002 0.0002 17.4752 -0.0002
# 6 0.0002 0.0003 0.0003 0.0003 -0.0002 18.2705
#
#
#
# Elastic Compliance Matrix: (Units=1/GPa)
#
#
# Indices 1 2 3 4 5 6 
#
# 1 0.009091 -0.005116 -0.005323 0.000000 0.000000 0.000000
# 2 -0.005116 0.013165 0.002421 0.000000 0.000000 0.000000
# 3 -0.005323 0.002421 0.037535 0.000000 0.000000 -0.000001
# 4 0.000000 0.000000 0.000000 0.049213 -0.000001 -0.000001
# 5 0.000000 0.000000 0.000000 -0.000001 0.057224 0.000001
# 6 0.000000 0.000000 -0.000001 -0.000001 0.000001 0.054733
#
#
# Mechanical properties :
#
#
# Convention : Reuss Voigt Hill
#
# Bulk Modulus (GPa) = 22.85447 47.64482 35.24965
# Shear Modulus (GPa) = 19.87426 24.74429 22.30927
#
# Velocity S-wave (km/s) = 3.17479 3.54248 3.36366
# Velocity P-wave (km/s) = 5.00298 6.39495 5.74130
#
# Compressibility (1/GPa) = 0.04375511
#
# Stress axis : x y z
#
# Youngs Moduli (GPa) = 109.99919 75.95692 26.64191
#
# Poissons Ratio (x) = 0.38860 0.14180
# Poissons Ratio (y) = 0.56277 -0.06449
# Poissons Ratio (z) = 0.58547 -0.18386
#
# Static dielectric constant tensor:
#      x y z
#    x 1.722180 0.000000 0.000000 
#    y 0.000000 1.716720 0.000000 
#    z 0.000000 0.000000 1.703480 
# 
# From -- ./inp_files/10418.got.cif
#   From: 2010.05.17/outbox.cif.g08.bks.cpg/sg42_6_cif.got.tgz:10418.got - 2010.06.03 19:03:34.
