data_PCOD9368335
_publ_section_title
;
Structure prediction by ZEFSAII (Michael W. Deem and Ramdas Pophale) SiO2 
 PCOD9368335
Probable space group: F M M 2
;
_chemical_formula_sum "Si O2"
_cell_formula_units_Z 100
_cell_length_a 18.796043
_cell_length_b 15.104481
_cell_length_c 18.313762
_cell_angle_alpha 90.000000
_cell_angle_beta 90.000000
_cell_angle_gamma 90.000000
_cell_volume 5199.358974
_symmetry_space_group_name_H-M "F M M 2"
_symmetry_group_IT_number 42
_symmetry_cell_setting 'orthorhombic'
loop_
_space_group_symop_operation_xyz
x,y,z
-x,-y,z
-x,y,z
x,-y,z
x,1/2+y,1/2+z
-x,1/2-y,1/2+z
-x,1/2+y,1/2+z
x,1/2-y,1/2+z
1/2+x,y,1/2+z
1/2-x,-y,1/2+z
1/2-x,y,1/2+z
1/2+x,-y,1/2+z
1/2+x,1/2+y,z
1/2-x,1/2-y,z
1/2-x,1/2+y,z
1/2+x,1/2-y,z
loop_
_atom_site_type_symbol
_atom_site_label
_atom_site_fract_x
_atom_site_fract_y
_atom_site_fract_z
Si Si1 0.081275 0.732213 0.055550
Si Si2 0.673223 0.105188 0.149107
Si Si3 0.670647 0.289217 0.793386
Si Si4 0.767738 0.898665 0.920902
Si Si5 0.108709 0.667018 0.899570
Si Si6 0.500000 0.000000 0.896332
Si Si7 0.173096 0.399000 0.585187
O O1 0.129106 0.651166 0.084570
O O2 0.115189 0.821852 0.088062
O O3 0.000000 0.721639 0.078925
O O4 0.083510 0.727546 0.967377
O O5 0.650822 0.154287 0.223004
O O6 0.757726 0.118759 0.135113
O O7 0.661157 0.000000 0.150921
O O8 0.750000 0.250000 0.779613
O O9 0.681230 0.351648 0.863594
O O10 0.614769 0.215871 0.821187
O O11 0.690992 0.853904 0.917465
O O12 0.758982 0.000000 0.898894
O O13 0.797459 0.895296 0.002449
O O14 0.061791 0.578871 0.897494
O O15 0.148130 0.500000 0.599354
#
# Coordination Sequence:
#
# PCOD9368335 Si02
#       7
#    16  16  16  16  16   4  16
#     4  12  24  39  62  94 132 174 214 261 321 390
#     4  11  24  41  68  97 129 164 214 271 333 384
#     4  10  21  38  62  92 126 162 210 270 325 376
#     4  10  18  33  61  94 123 159 211 263 316 373
#     4  11  22  36  61  91 128 170 214 265 315 379
#     4  12  24  40  60  92 138 172 226 270 316 404
#     4  10  21  38  66  94 124 165 215 271 320 377
#
# _framework density 19.233139999999999
#
# number of rings (size 3 to 8) (size 9 to 14) (size 15 to 20)
#    0.000    1.280    4.800    1.920    1.120    0.640 
#    1.440    0.000    1.760    0.000    0.000    0.000 
#    0.000    0.000    0.000    0.000    0.000    0.000 
#
# Total GULP energy -139298.913672 kJ/mol
# GULP energy per Si atom -5571.956547 kJ/mol
# Density = 1.918936 g / cm^3
# Si number density = 19.233140 Si / 1000 Ang^3
#
#
#
# Elastic Constant Matrix: (Units=GPa)
#
#
# Indices 1 2 3 4 5 6 
#
# 1 56.3729 28.5629 8.7093 0.0000 0.0000 0.0000
# 2 28.5629 99.1778 35.0813 0.0000 0.0000 0.0000
# 3 8.7093 35.0813 71.8707 0.0000 0.0000 0.0000
# 4 0.0000 0.0000 0.0000 26.2221 0.0000 0.0000
# 5 0.0000 0.0000 0.0000 0.0000 5.5445 0.0000
# 6 0.0000 0.0000 0.0000 0.0000 0.0000 30.4281
#
#
#
# Elastic Compliance Matrix: (Units=1/GPa)
#
#
# Indices 1 2 3 4 5 6 
#
# 1 0.020784 -0.006158 0.000487 0.000000 0.000000 0.000000
# 2 -0.006158 0.014012 -0.006093 0.000000 0.000000 0.000000
# 3 0.000487 -0.006093 0.016829 0.000000 0.000000 0.000000
# 4 0.000000 0.000000 0.000000 0.038136 0.000000 0.000000
# 5 0.000000 0.000000 0.000000 0.000000 0.180357 0.000000
# 6 0.000000 0.000000 0.000000 0.000000 0.000000 0.032864
#
#
# Mechanical properties :
#
#
# Convention : Reuss Voigt Hill
#
# Bulk Modulus (GPa) = 35.59132 41.34760 38.46946
# Shear Modulus (GPa) = 14.88647 22.77681 18.83164
#
# Velocity S-wave (km/s) = 2.78511 3.44502 3.13249
# Velocity P-wave (km/s) = 5.37474 6.11302 5.75573
#
# Compressibility (1/GPa) = 0.02809674
#
# Stress axis : x y z
#
# Youngs Moduli (GPa) = 48.11420 71.36911 59.42137
#
# Poissons Ratio (x) = 0.43949 -0.02895
# Poissons Ratio (y) = 0.29629 0.36206
# Poissons Ratio (z) = -0.02344 0.43486
#
# Static dielectric constant tensor:
#      x y z
#    x 1.649590 0.000000 0.000000 
#    y 0.000000 1.697430 0.000000 
#    z 0.000000 0.000000 1.687880 
# 
# From -- ./inp_files/20093.got.cif
#   From: 2010.05.17/outbox.cif.g08.bks.cpg/sg42_11_cif.got.tgz:20093.got - 2010.06.03 19:03:34.
