data_PCOD9368788
_publ_section_title
;
Structure prediction by ZEFSAII (Michael W. Deem and Ramdas Pophale) SiO2 
 PCOD9368788
Probable space group: F M M 2
;
_chemical_formula_sum "Si O2"
_cell_formula_units_Z 96
_cell_length_a 24.044822
_cell_length_b 8.368921
_cell_length_c 26.572215
_cell_angle_alpha 90.000000
_cell_angle_beta 90.000000
_cell_angle_gamma 90.000000
_cell_volume 5347.105986
_symmetry_space_group_name_H-M "F M M 2"
_symmetry_group_IT_number 42
_symmetry_cell_setting 'orthorhombic'
loop_
_space_group_symop_operation_xyz
x,y,z
-x,-y,z
-x,y,z
x,-y,z
x,1/2+y,1/2+z
-x,1/2-y,1/2+z
-x,1/2+y,1/2+z
x,1/2-y,1/2+z
1/2+x,y,1/2+z
1/2-x,-y,1/2+z
1/2-x,y,1/2+z
1/2+x,-y,1/2+z
1/2+x,1/2+y,z
1/2-x,1/2-y,z
1/2-x,1/2+y,z
1/2+x,1/2-y,z
loop_
_atom_site_type_symbol
_atom_site_label
_atom_site_fract_x
_atom_site_fract_y
_atom_site_fract_z
Si Si1 0.935500 0.809139 0.807640
Si Si2 0.500000 0.806802 0.558550
Si Si3 0.382765 0.310419 0.518750
Si Si4 0.186956 0.691216 0.614521
Si Si5 0.116824 0.689038 0.711492
Si Si6 0.064243 0.306871 0.920291
Si Si7 0.500000 0.308914 0.671756
O O1 0.888040 0.755275 0.768244
O O2 0.923753 0.748574 0.863808
O O3 0.000000 0.754619 0.795788
O O4 0.937073 0.000000 0.806773
O O5 0.555156 0.733773 0.535360
O O6 0.500000 0.740969 0.614437
O O7 0.500000 0.000000 0.556582
O O8 0.373324 0.500000 0.518929
O O9 0.343291 0.240559 0.562323
O O10 0.388373 0.254398 0.460403
O O11 0.185055 0.500000 0.616414
O O12 0.250000 0.750000 0.613909
O O13 0.156645 0.751034 0.666172
O O14 0.125410 0.500000 0.714625
O O15 0.055301 0.732389 0.693265
O O16 0.062858 0.500000 0.922113
O O17 0.000000 0.251666 0.931632
O O18 0.500000 0.500000 0.679510
#
# Coordination Sequence:
#
# PCOD9368788 Si02
#       7
#    16   8  16  16  16  16   8
#     4  10  20  32  50  81 117 153 189 224 270 330
#     4  12  22  32  49  80 117 150 184 224 278 342
#     4  11  21  36  58  83 114 150 188 233 282 336
#     4  11  25  42  60  83 110 146 191 236 288 340
#     4  11  22  36  56  81 113 149 185 230 281 337
#     4   9  18  33  52  79 115 154 189 222 272 331
#     4  12  22  32  51  80 113 148 184 224 276 338
#
# _framework density 17.953635999999999
#
# number of rings (size 3 to 8) (size 9 to 14) (size 15 to 20)
#    0.000    1.333    3.333    3.500    0.000    4.000 
#    0.000    0.000    0.000    1.000    0.000    4.667 
#    0.000    0.000    0.000    0.000    0.000    0.000 
#
# Total GULP energy -133692.416035 kJ/mol
# GULP energy per Si atom -5570.517335 kJ/mol
# Density = 1.791277 g / cm^3
# Si number density = 17.953636 Si / 1000 Ang^3
#
#
#
# Elastic Constant Matrix: (Units=GPa)
#
#
# Indices 1 2 3 4 5 6 
#
# 1 96.0987 5.9645 64.7524 0.0000 0.0002 0.0000
# 2 5.9645 19.9981 21.2785 0.0000 0.0003 0.0001
# 3 64.7524 21.2785 168.1731 0.0000 0.0000 0.0000
# 4 0.0000 0.0000 0.0000 23.7812 0.0001 0.0000
# 5 0.0002 0.0003 0.0000 0.0001 -16.5413 -0.0002
# 6 0.0000 0.0001 0.0000 0.0000 -0.0002 20.5970
#
#
#
# Elastic Compliance Matrix: (Units=1/GPa)
#
#
# Indices 1 2 3 4 5 6 
#
# 1 0.014108 0.001817 -0.005662 0.000000 0.000000 0.000000
# 2 0.001817 0.058018 -0.008040 0.000000 0.000001 0.000000
# 3 -0.005662 -0.008040 0.009144 0.000000 0.000000 0.000000
# 4 0.000000 0.000000 0.000000 0.042050 0.000000 0.000000
# 5 0.000000 0.000001 0.000000 0.000000 -0.060455 -0.000001
# 6 0.000000 0.000000 0.000000 0.000000 -0.000001 0.048551
#
#
# Mechanical properties :
#
#
# Convention : Reuss Voigt Hill
#
# Bulk Modulus (GPa) = 17.39172 52.02897 34.71034
# Shear Modulus (GPa) = 32.39309 18.38567 25.38938
#
# Velocity S-wave (km/s) = 4.25227 3.20357 3.76462
# Velocity P-wave (km/s) = 5.81525 6.53654 6.18642
#
# Compressibility (1/GPa) = 0.05749863
#
# Stress axis : x y z
#
# Youngs Moduli (GPa) = 70.87984 17.23602 109.36527
#
# Poissons Ratio (x) = -0.03131 0.61923
# Poissons Ratio (y) = -0.12877 0.87934
# Poissons Ratio (z) = 0.40133 0.13858
#
# Static dielectric constant tensor:
#      x y z
#    x 8.942720 0.000000 0.000000 
#    y 0.000000 1.615740 0.000000 
#    z 0.000000 0.000000 1.703110 
# 
# From -- ./inp_files/33198.got.cif
#   From: 2010.05.17/outbox.cif.g08.bks.cpg/sg42_17_cif.got.tgz:33198.got - 2010.06.03 19:03:34.
