data_PCOD9368942
_publ_section_title
;
Structure prediction by ZEFSAII (Michael W. Deem and Ramdas Pophale) SiO2 
 PCOD9368942
Probable space group: F M M 2
;
_chemical_formula_sum "Si O2"
_cell_formula_units_Z 104
_cell_length_a 22.385583
_cell_length_b 27.729759
_cell_length_c 7.715818
_cell_angle_alpha 90.000000
_cell_angle_beta 90.000000
_cell_angle_gamma 90.000000
_cell_volume 4789.569500
_symmetry_space_group_name_H-M "F M M 2"
_symmetry_group_IT_number 42
_symmetry_cell_setting 'orthorhombic'
loop_
_space_group_symop_operation_xyz
x,y,z
-x,-y,z
-x,y,z
x,-y,z
x,1/2+y,1/2+z
-x,1/2-y,1/2+z
-x,1/2+y,1/2+z
x,1/2-y,1/2+z
1/2+x,y,1/2+z
1/2-x,-y,1/2+z
1/2-x,y,1/2+z
1/2+x,-y,1/2+z
1/2+x,1/2+y,z
1/2-x,1/2-y,z
1/2-x,1/2+y,z
1/2+x,1/2-y,z
loop_
_atom_site_type_symbol
_atom_site_label
_atom_site_fract_x
_atom_site_fract_y
_atom_site_fract_z
Si Si1 0.070763 0.788884 0.977710
Si Si2 0.652846 0.367638 0.831823
Si Si3 0.241684 0.400641 0.626716
Si Si4 0.132241 0.914487 0.364921
Si Si5 0.191630 0.000000 0.550126
Si Si6 0.930163 0.817104 0.380201
Si Si7 0.570224 0.443314 0.001947
O O1 0.112520 0.820661 0.854481
O O2 0.088830 0.732951 0.968003
O O3 0.000000 0.791895 0.929803
O O4 0.077076 0.809260 0.172497
O O5 0.697625 0.372893 0.672226
O O6 0.699656 0.373936 0.990247
O O7 0.608034 0.412340 0.865390
O O8 0.198332 0.402808 0.793498
O O9 0.258664 0.456765 0.592276
O O10 0.142888 0.958057 0.494786
O O11 0.101261 0.866292 0.431825
O O12 0.095086 0.931403 0.194138
O O13 0.000000 0.822596 0.416462
O O14 0.500000 0.431461 0.994230
O O15 0.578791 0.500000 0.969282
#
# Coordination Sequence:
#
# PCOD9368942 Si02
#       7
#    16  16  16  16   8  16  16
#     4  10  21  41  71  97 124 168 219 276 334 392
#     4  11  23  40  64  91 128 167 223 265 326 387
#     4  11  24  37  62  92 124 175 212 264 316 388
#     4  11  21  38  63  92 125 167 219 264 314 389
#     4  12  24  38  61  90 135 168 220 262 322 390
#     4  10  21  40  68  99 127 165 220 275 330 390
#     4  10  20  34  62  93 120 161 216 266 316 388
#
# _framework density 21.713853
#
# number of rings (size 3 to 8) (size 9 to 14) (size 15 to 20)
#    0.000    1.385    5.385    1.385    4.308    1.231 
#    0.000    0.769    3.385    6.462    0.000    0.000 
#    0.000    0.000    0.000    0.000    0.000    0.000 
#
# Total GULP energy -144789.076948 kJ/mol
# GULP energy per Si atom -5568.810652 kJ/mol
# Density = 2.166443 g / cm^3
# Si number density = 21.713853 Si / 1000 Ang^3
#
#
#
# Elastic Constant Matrix: (Units=GPa)
#
#
# Indices 1 2 3 4 5 6 
#
# 1 126.2815 75.5960 27.6399 0.0009 -0.0008 -0.0006
# 2 75.5960 149.2655 24.8024 0.0015 -0.0015 -0.0009
# 3 27.6399 24.8024 35.4484 0.0015 0.0023 -0.0041
# 4 0.0009 0.0015 0.0015 19.8606 -0.0004 -0.0010
# 5 -0.0008 -0.0015 0.0023 -0.0004 31.4498 0.0009
# 6 -0.0006 -0.0009 -0.0041 -0.0010 0.0009 25.5357
#
#
#
# Elastic Compliance Matrix: (Units=1/GPa)
#
#
# Indices 1 2 3 4 5 6 
#
# 1 0.012386 -0.005282 -0.005962 0.000000 0.000001 -0.000001
# 2 -0.005282 0.009834 -0.002762 0.000000 0.000001 0.000000
# 3 -0.005962 -0.002762 0.034791 -0.000002 -0.000003 0.000005
# 4 0.000000 0.000000 -0.000002 0.050351 0.000001 0.000002
# 5 0.000001 0.000001 -0.000003 0.000001 0.031797 -0.000001
# 6 -0.000001 0.000000 0.000005 0.000002 -0.000001 0.039161
#
#
# Mechanical properties :
#
#
# Convention : Reuss Voigt Hill
#
# Bulk Modulus (GPa) = 34.48387 63.00801 48.74594
# Shear Modulus (GPa) = 23.14861 27.56638 25.35749
#
# Velocity S-wave (km/s) = 3.26862 3.56691 3.42102
# Velocity P-wave (km/s) = 5.49188 6.78559 6.17272
#
# Compressibility (1/GPa) = 0.02899907
#
# Stress axis : x y z
#
# Youngs Moduli (GPa) = 80.73790 101.69273 28.74329
#
# Poissons Ratio (x) = 0.53716 0.17136
# Poissons Ratio (y) = 0.42647 0.07938
# Poissons Ratio (z) = 0.48133 0.28084
#
# Static dielectric constant tensor:
#      x y z
#    x 1.763040 0.000000 0.000000 
#    y 0.000000 1.748020 0.000000 
#    z 0.000000 0.000000 1.953100 
# 
# From -- ./inp_files/4250.got.cif
#   From: 2010.05.17/outbox.cif.g08.bks.cpg/sg42_3_cif.got.tgz:4250.got - 2010.06.03 19:03:34.
