data_PCOD9368003
_publ_section_title
;
Structure prediction by ZEFSAII (Michael W. Deem and Ramdas Pophale) SiO2 
 PCOD9368003
Probable space group: A B A 2
;
_chemical_formula_sum "Si O2"
_cell_formula_units_Z 32
_cell_length_a 14.478250
_cell_length_b 7.081664
_cell_length_c 12.672511
_cell_angle_alpha 90.000000
_cell_angle_beta 90.000000
_cell_angle_gamma 90.000000
_cell_volume 1299.313843
_symmetry_space_group_name_H-M "A B A 2"
_symmetry_group_IT_number 41
_symmetry_cell_setting 'orthorhombic'
loop_
_space_group_symop_operation_xyz
x,y,z
-x,-y,z
1/2-x,y,1/2+z
1/2+x,-y,1/2+z
x,1/2+y,1/2+z
-x,1/2-y,1/2+z
1/2-x,1/2+y,z
1/2+x,1/2-y,z
loop_
_atom_site_type_symbol
_atom_site_label
_atom_site_fract_x
_atom_site_fract_y
_atom_site_fract_z
Si Si1 0.602244 0.918625 0.131830
Si Si2 0.667243 0.199535 0.285994
Si Si3 0.872072 0.632576 0.820022
Si Si4 0.032259 0.812665 0.954642
O O1 0.607007 0.753714 0.216786
O O2 0.500000 0.000000 0.133979
O O3 0.668352 0.086644 0.174620
O O4 0.604521 0.817395 0.018667
O O5 0.631215 0.413659 0.285626
O O6 0.765756 0.186324 0.342611
O O7 0.590157 0.100779 0.357637
O O8 0.945898 0.691468 0.909746
O O9 0.000000 0.000000 0.017101
#
# Coordination Sequence:
#
# PCOD9368003 Si02
#       4
#     8   8   8   8
#     4  12  26  47  75 112 147 202 258 312 388 460
#     4  12  24  50  75 109 155 206 256 318 392 455
#     4  12  24  50  77 105 161 201 252 331 380 460
#     4  12  26  50  79 112 155 207 258 318 392 463
#
# _framework density 24.628385000000002
#
# number of rings (size 3 to 8) (size 9 to 14) (size 15 to 20)
#    0.000    0.000    7.500    2.250    3.500    0.000 
#   13.500    0.000    0.000    0.000    0.000    0.000 
#    0.000    0.000    0.000    0.000    0.000    0.000 
#
# Total GULP energy -89413.944974 kJ/mol
# GULP energy per Si atom -5588.371561 kJ/mol
# Density = 2.457233 g / cm^3
# Si number density = 24.628385 Si / 1000 Ang^3
#
#
#
# Elastic Constant Matrix: (Units=GPa)
#
#
# Indices 1 2 3 4 5 6 
#
# 1 114.8804 3.0026 35.3355 0.0000 0.0000 0.0000
# 2 3.0026 164.9603 53.4586 0.0000 0.0000 0.0000
# 3 35.3355 53.4586 89.5446 0.0000 0.0000 0.0000
# 4 0.0000 0.0000 0.0000 45.2203 0.0000 0.0000
# 5 0.0000 0.0000 0.0000 0.0000 27.6594 0.0000
# 6 0.0000 0.0000 0.0000 0.0000 0.0000 42.0000
#
#
#
# Elastic Compliance Matrix: (Units=1/GPa)
#
#
# Indices 1 2 3 4 5 6 
#
# 1 0.010155 0.001381 -0.004832 0.000000 0.000000 0.000000
# 2 0.001381 0.007704 -0.005144 0.000000 0.000000 0.000000
# 3 -0.004832 -0.005144 0.016145 0.000000 0.000000 0.000000
# 4 0.000000 0.000000 0.000000 0.022114 0.000000 0.000000
# 5 0.000000 0.000000 0.000000 0.000000 0.036154 0.000000
# 6 0.000000 0.000000 0.000000 0.000000 0.000000 0.023810
#
#
# Mechanical properties :
#
#
# Convention : Reuss Voigt Hill
#
# Bulk Modulus (GPa) = 59.47335 61.44206 60.45771
# Shear Modulus (GPa) = 36.00321 41.48183 38.74252
#
# Velocity S-wave (km/s) = 3.82757 4.10849 3.97052
# Velocity P-wave (km/s) = 6.61320 6.89261 6.75435
#
# Compressibility (1/GPa) = 0.01681425
#
# Stress axis : x y z
#
# Youngs Moduli (GPa) = 98.47605 129.80204 61.93707
#
# Poissons Ratio (x) = -0.17925 0.29926
# Poissons Ratio (y) = -0.13599 0.31862
# Poissons Ratio (z) = 0.47580 0.66774
#
# Static dielectric constant tensor:
#      x y z
#    x 2.069030 0.000000 0.000000 
#    y 0.000000 2.124220 0.000000 
#    z 0.000000 0.000000 2.005440 
# 
# From -- ./inp_files/5311.got.cif
#   From: 2010.05.17/outbox.cif.g08.bks.cpg/sg41_3_cif.got.tgz:5311.got - 2010.06.03 18:54:24.
