data_PCOD9368752
_publ_section_title
;
Structure prediction by ZEFSAII (Michael W. Deem and Ramdas Pophale) SiO2 
 PCOD9368752
Probable space group: F M M 2
;
_chemical_formula_sum "Si O2"
_cell_formula_units_Z 112
_cell_length_a 31.762514
_cell_length_b 14.426244
_cell_length_c 11.979291
_cell_angle_alpha 90.000000
_cell_angle_beta 90.000000
_cell_angle_gamma 90.000000
_cell_volume 5489.076175
_symmetry_space_group_name_H-M "F M M 2"
_symmetry_group_IT_number 42
_symmetry_cell_setting 'orthorhombic'
loop_
_space_group_symop_operation_xyz
x,y,z
-x,-y,z
-x,y,z
x,-y,z
x,1/2+y,1/2+z
-x,1/2-y,1/2+z
-x,1/2+y,1/2+z
x,1/2-y,1/2+z
1/2+x,y,1/2+z
1/2-x,-y,1/2+z
1/2-x,y,1/2+z
1/2+x,-y,1/2+z
1/2+x,1/2+y,z
1/2-x,1/2-y,z
1/2-x,1/2+y,z
1/2+x,1/2-y,z
loop_
_atom_site_type_symbol
_atom_site_label
_atom_site_fract_x
_atom_site_fract_y
_atom_site_fract_z
Si Si1 0.085416 0.396273 0.664410
Si Si2 0.164970 0.392154 0.251604
Si Si3 0.682655 0.896351 0.701457
Si Si4 0.737007 0.892813 0.062054
Si Si5 0.604572 0.708155 0.579254
Si Si6 0.547135 0.609691 0.407478
Si Si7 0.182857 0.736481 0.912817
O O1 0.068496 0.500000 0.635713
O O2 0.135883 0.402557 0.654406
O O3 0.077701 0.301891 0.598239
O O4 0.071741 0.374543 0.791362
O O5 0.153888 0.500000 0.271575
O O6 0.203601 0.390668 0.163792
O O7 0.126419 0.337001 0.189846
O O8 0.181487 0.340077 0.362433
O O9 0.717520 0.867571 0.611905
O O10 0.679232 0.824396 0.800562
O O11 0.694877 0.000000 0.740794
O O12 0.738212 0.000000 0.020942
O O13 0.720128 0.819465 0.973841
O O14 0.573941 0.640478 0.513118
O O15 0.643249 0.727114 0.495039
O O16 0.500000 0.650399 0.403311
O O17 0.543300 0.500000 0.414030
#
# Coordination Sequence:
#
# PCOD9368752 Si02
#       7
#    16  16  16  16  16  16  16
#     4  10  21  39  61  89 126 162 204 253 305 367
#     4  10  21  38  56  83 120 158 203 253 302 358
#     4  10  19  38  61  85 116 155 206 258 306 361
#     4   9  21  39  58  82 112 151 202 255 308 358
#     4  11  20  38  61  92 120 163 200 248 309 367
#     4  10  21  38  64  96 125 158 203 251 303 370
#     4  11  21  38  61  84 116 161 206 251 308 365
#
# _framework density 20.404161999999999
#
# number of rings (size 3 to 8) (size 9 to 14) (size 15 to 20)
#    0.000    1.857    2.857    0.857    0.000    2.857 
#    5.143    0.000    0.000    0.857    0.000    0.000 
#    0.000    0.000    0.000    0.000    0.000    0.000 
#
# Total GULP energy -156225.576512 kJ/mol
# GULP energy per Si atom -5579.484875 kJ/mol
# Density = 2.035772 g / cm^3
# Si number density = 20.404162 Si / 1000 Ang^3
#
#
#
# Elastic Constant Matrix: (Units=GPa)
#
#
# Indices 1 2 3 4 5 6 
#
# 1 73.0169 19.2355 21.3204 0.0000 0.0000 0.0000
# 2 19.2355 107.9114 53.1016 0.0000 0.0000 0.0000
# 3 21.3204 53.1016 66.0268 0.0000 0.0000 0.0000
# 4 0.0000 0.0000 0.0000 38.7267 0.0000 0.0000
# 5 0.0000 0.0000 0.0000 0.0000 -6.7602 0.0000
# 6 0.0000 0.0000 0.0000 0.0000 0.0000 14.3836
#
#
#
# Elastic Compliance Matrix: (Units=1/GPa)
#
#
# Indices 1 2 3 4 5 6 
#
# 1 0.015136 -0.000485 -0.004498 0.000000 0.000000 0.000000
# 2 -0.000485 0.015352 -0.012190 0.000000 0.000000 0.000000
# 3 -0.004498 -0.012190 0.026401 0.000000 0.000000 0.000000
# 4 0.000000 0.000000 0.000000 0.025822 0.000000 0.000000
# 5 0.000000 0.000000 0.000000 0.000000 -0.147924 0.000000
# 6 0.000000 0.000000 0.000000 0.000000 0.000000 0.069524
#
#
# Mechanical properties :
#
#
# Convention : Reuss Voigt Hill
#
# Bulk Modulus (GPa) = 44.35660 48.25222 46.30441
# Shear Modulus (GPa) = 108.29174 19.48987 63.89080
#
# Velocity S-wave (km/s) = 7.29305 3.09397 5.60184
# Velocity P-wave (km/s) = 9.62831 6.03847 8.03640
#
# Compressibility (1/GPa) = 0.02254456
#
# Stress axis : x y z
#
# Youngs Moduli (GPa) = 66.06559 65.13892 37.87677
#
# Poissons Ratio (x) = 0.03158 0.17036
# Poissons Ratio (y) = 0.03203 0.46172
# Poissons Ratio (z) = 0.29714 0.79404
#
# Static dielectric constant tensor:
#      x y z
#    x 1.750560 0.000000 0.000000 
#    y 0.000000 1.823580 0.000000 
#    z 0.000000 0.000000 1.716340 
# 
# From -- ./inp_files/11122.got.cif
#   From: 2010.05.17/outbox.cif.g08.bks.cpg/sg42_6_cif.got.tgz:11122.got - 2010.06.03 19:03:34.
