data_PCOD9368911
_publ_section_title
;
Structure prediction by ZEFSAII (Michael W. Deem and Ramdas Pophale) SiO2 
 PCOD9368911
Probable space group: F M M 2
;
_chemical_formula_sum "Si O2"
_cell_formula_units_Z 104
_cell_length_a 19.154271
_cell_length_b 16.902650
_cell_length_c 14.826927
_cell_angle_alpha 90.000000
_cell_angle_beta 90.000000
_cell_angle_gamma 90.000000
_cell_volume 4800.335323
_symmetry_space_group_name_H-M "F M M 2"
_symmetry_group_IT_number 42
_symmetry_cell_setting 'orthorhombic'
loop_
_space_group_symop_operation_xyz
x,y,z
-x,-y,z
-x,y,z
x,-y,z
x,1/2+y,1/2+z
-x,1/2-y,1/2+z
-x,1/2+y,1/2+z
x,1/2-y,1/2+z
1/2+x,y,1/2+z
1/2-x,-y,1/2+z
1/2-x,y,1/2+z
1/2+x,-y,1/2+z
1/2+x,1/2+y,z
1/2-x,1/2-y,z
1/2-x,1/2+y,z
1/2+x,1/2-y,z
loop_
_atom_site_type_symbol
_atom_site_label
_atom_site_fract_x
_atom_site_fract_y
_atom_site_fract_z
Si Si1 0.302120 0.912956 0.818870
Si Si2 0.169565 0.124300 0.707154
Si Si3 0.250000 0.250000 0.118124
Si Si4 0.580634 0.122042 0.383146
Si Si5 0.922535 0.809871 0.367837
Si Si6 0.422850 0.086687 0.043161
Si Si7 0.211575 0.909085 0.002485
O O1 0.243105 0.906991 0.743113
O O2 0.361151 0.847679 0.810561
O O3 0.262173 0.902948 0.914655
O O4 0.333832 0.000000 0.816271
O O5 0.187847 0.215110 0.680574
O O6 0.115375 0.103419 0.786416
O O7 0.136804 0.090870 0.616547
O O8 0.226258 0.171633 0.060350
O O9 0.500000 0.096578 0.391134
O O10 0.582718 0.217107 0.381735
O O11 0.633145 0.094331 0.461258
O O12 0.915311 0.849329 0.466056
O O13 0.000000 0.828636 0.332544
O O14 0.500000 0.096947 0.085746
O O15 0.421374 0.000000 0.000220
O O16 0.221268 0.000000 0.039355
#
# Coordination Sequence:
#
# PCOD9368911 Si02
#       7
#    16  16   8  16  16  16  16
#     4  10  20  35  56  83 117 154 198 249 296 355
#     4  11  22  36  56  85 117 155 195 237 297 356
#     4  12  24  38  60  86 124 162 196 252 304 358
#     4  10  21  39  61  84 114 153 199 247 291 345
#     4  10  20  35  57  84 114 152 197 242 294 353
#     4  10  20  34  55  84 114 142 180 238 302 355
#     4  10  22  39  61  89 118 157 206 248 296 358
#
# _framework density 21.665154000000001
#
# number of rings (size 3 to 8) (size 9 to 14) (size 15 to 20)
#    0.000    1.692    0.000    5.077    0.000    6.769 
#    0.000    0.769    0.000    0.923    0.000    2.154 
#    0.000    0.000    0.000    0.000    0.000    0.000 
#
# Total GULP energy -145159.487490 kJ/mol
# GULP energy per Si atom -5583.057211 kJ/mol
# Density = 2.161584 g / cm^3
# Si number density = 21.665154 Si / 1000 Ang^3
#
#
#
# Elastic Constant Matrix: (Units=GPa)
#
#
# Indices 1 2 3 4 5 6 
#
# 1 145.9668 46.9598 22.4823 0.0000 0.0000 0.0000
# 2 46.9598 123.9270 31.2121 0.0000 0.0000 0.0000
# 3 22.4823 31.2121 44.6673 0.0000 0.0000 0.0000
# 4 0.0000 0.0000 0.0000 443.3370 0.0000 0.0000
# 5 0.0000 0.0000 0.0000 0.0000 31.0016 0.0000
# 6 0.0000 0.0000 0.0000 0.0000 0.0000 -9.9365
#
#
#
# Elastic Compliance Matrix: (Units=1/GPa)
#
#
# Indices 1 2 3 4 5 6 
#
# 1 0.007994 -0.002446 -0.002314 0.000000 0.000000 0.000000
# 2 -0.002446 0.010541 -0.006135 0.000000 0.000000 0.000000
# 3 -0.002314 -0.006135 0.027839 0.000000 0.000000 0.000000
# 4 0.000000 0.000000 0.000000 0.002256 0.000000 0.000000
# 5 0.000000 0.000000 0.000000 0.000000 0.032256 0.000000
# 6 0.000000 0.000000 0.000000 0.000000 0.000000 -0.100639
#
#
# Mechanical properties :
#
#
# Convention : Reuss Voigt Hill
#
# Bulk Modulus (GPa) = 40.67634 57.31883 48.99759
# Shear Modulus (GPa) = 488.60460 107.14089 297.87275
#
# Velocity S-wave (km/s) = 15.03380 7.03992 11.73831
# Velocity P-wave (km/s) = 17.89328 9.62262 14.36600
#
# Compressibility (1/GPa) = 0.02458432
#
# Stress axis : x y z
#
# Youngs Moduli (GPa) = 125.08769 94.86450 35.92051
#
# Poissons Ratio (x) = 0.23208 0.08313
# Poissons Ratio (y) = 0.30602 0.22036
# Poissons Ratio (z) = 0.28949 0.58196
#
# Static dielectric constant tensor:
#      x y z
#    x 1.825880 0.000000 0.000000 
#    y 0.000000 1.673370 0.000000 
#    z 0.000000 0.000000 1.783870 
# 
# From -- ./inp_files/16001.got.cif
#   From: 2010.05.17/outbox.cif.g08.bks.cpg/sg42_9_cif.got.tgz:16001.got - 2010.06.03 19:03:34.
