data_PCOD9368680
_publ_section_title
;
Structure prediction by ZEFSAII (Michael W. Deem and Ramdas Pophale) SiO2 
 PCOD9368680
Probable space group: F M M 2
;
_chemical_formula_sum "Si O2"
_cell_formula_units_Z 48
_cell_length_a 7.683080
_cell_length_b 17.580074
_cell_length_c 19.580775
_cell_angle_alpha 90.000000
_cell_angle_beta 90.000000
_cell_angle_gamma 90.000000
_cell_volume 2644.757949
_symmetry_space_group_name_H-M "F M M 2"
_symmetry_group_IT_number 42
_symmetry_cell_setting 'orthorhombic'
loop_
_space_group_symop_operation_xyz
x,y,z
-x,-y,z
-x,y,z
x,-y,z
x,1/2+y,1/2+z
-x,1/2-y,1/2+z
-x,1/2+y,1/2+z
x,1/2-y,1/2+z
1/2+x,y,1/2+z
1/2-x,-y,1/2+z
1/2-x,y,1/2+z
1/2+x,-y,1/2+z
1/2+x,1/2+y,z
1/2-x,1/2-y,z
1/2-x,1/2+y,z
1/2+x,1/2-y,z
loop_
_atom_site_type_symbol
_atom_site_label
_atom_site_fract_x
_atom_site_fract_y
_atom_site_fract_z
Si Si1 0.202911 0.661122 0.808270
Si Si2 0.500000 0.092515 0.558253
Si Si3 0.500000 0.591246 0.901611
Si Si4 0.799408 0.591858 0.161687
O O1 0.250000 0.750000 0.807246
O O2 0.330910 0.620745 0.861557
O O3 0.239962 0.627119 0.733299
O O4 0.000000 0.650767 0.824972
O O5 0.500000 0.118193 0.480107
O O6 0.669601 0.115896 0.601396
O O7 0.500000 0.000000 0.556729
O O8 0.500000 0.500000 0.900416
O O9 0.789534 0.500000 0.167646
O O10 0.000000 0.612427 0.148439
#
# Coordination Sequence:
#
# PCOD9368680 Si02
#       4
#    16   8   8  16
#     4  12  23  39  64  88 124 162 205 250 305 356
#     4   9  20  37  58  86 123 155 194 251 301 348
#     4  11  24  41  62  94 126 157 202 253 300 360
#     4  10  19  35  62  92 119 154 201 249 297 357
#
# _framework density 18.149111000000001
#
# number of rings (size 3 to 8) (size 9 to 14) (size 15 to 20)
#    0.000    1.333    5.000    1.000    0.000    3.333 
#    0.000    5.000    0.000    0.000    0.000    0.000 
#    0.000    0.000    0.000    0.000    0.000    0.000 
#
# Total GULP energy -67038.437023 kJ/mol
# GULP energy per Si atom -5586.536419 kJ/mol
# Density = 1.810780 g / cm^3
# Si number density = 18.149111 Si / 1000 Ang^3
#
#
#
# Elastic Constant Matrix: (Units=GPa)
#
#
# Indices 1 2 3 4 5 6 
#
# 1 219.9386 46.3751 109.7101 0.0000 0.0000 0.0000
# 2 46.3751 45.9880 42.6357 0.0000 0.0000 0.0000
# 3 109.7101 42.6357 191.6750 0.0000 0.0000 0.0000
# 4 0.0000 0.0000 0.0000 -15.9428 0.0000 0.0000
# 5 0.0000 0.0000 0.0000 0.0000 29.4419 0.0000
# 6 0.0000 0.0000 0.0000 0.0000 0.0000 25.8455
#
#
#
# Elastic Compliance Matrix: (Units=1/GPa)
#
#
# Indices 1 2 3 4 5 6 
#
# 1 0.006948 -0.004182 -0.003047 0.000000 0.000000 0.000000
# 2 -0.004182 0.029911 -0.004260 0.000000 0.000000 0.000000
# 3 -0.003047 -0.004260 0.007909 0.000000 0.000000 0.000000
# 4 0.000000 0.000000 0.000000 -0.062724 0.000000 0.000000
# 5 0.000000 0.000000 0.000000 0.000000 0.033965 0.000000
# 6 0.000000 0.000000 0.000000 0.000000 0.000000 0.038691
#
#
# Mechanical properties :
#
#
# Convention : Reuss Voigt Hill
#
# Bulk Modulus (GPa) = 45.89035 95.00481 70.44758
# Shear Modulus (GPa) = 58.86411 25.12764 41.99587
#
# Velocity S-wave (km/s) = 5.70123 3.72494 4.81556
# Velocity P-wave (km/s) = 8.28726 8.42382 8.35582
#
# Compressibility (1/GPa) = 0.02179107
#
# Stress axis : x y z
#
# Youngs Moduli (GPa) = 143.91884 33.43220 126.44483
#
# Poissons Ratio (x) = 0.13982 0.38525
# Poissons Ratio (y) = 0.60189 0.53861
# Poissons Ratio (z) = 0.43849 0.14241
#
# Static dielectric constant tensor:
#      x y z
#    x 1.618080 0.000000 0.000000 
#    y 0.000000 1.610050 0.000000 
#    z 0.000000 0.000000 1.589240 
# 
# From -- ./inp_files/11586.got.cif
#   From: 2010.05.17/outbox.cif.g08.bks.cpg/sg42_6_cif.got.tgz:11586.got - 2010.06.03 19:03:34.
