data_PCOD9368118
_publ_section_title
;
Structure prediction by ZEFSAII (Michael W. Deem and Ramdas Pophale) SiO2 
 PCOD9368118
Probable space group: F M M 2
;
_chemical_formula_sum "Si O2"
_cell_formula_units_Z 112
_cell_length_a 17.331197
_cell_length_b 20.424595
_cell_length_c 17.899313
_cell_angle_alpha 90.000000
_cell_angle_beta 90.000000
_cell_angle_gamma 90.000000
_cell_volume 6336.046779
_symmetry_space_group_name_H-M "F M M 2"
_symmetry_group_IT_number 42
_symmetry_cell_setting 'orthorhombic'
loop_
_space_group_symop_operation_xyz
x,y,z
-x,-y,z
-x,y,z
x,-y,z
x,1/2+y,1/2+z
-x,1/2-y,1/2+z
-x,1/2+y,1/2+z
x,1/2-y,1/2+z
1/2+x,y,1/2+z
1/2-x,-y,1/2+z
1/2-x,y,1/2+z
1/2+x,-y,1/2+z
1/2+x,1/2+y,z
1/2-x,1/2-y,z
1/2-x,1/2+y,z
1/2+x,1/2-y,z
loop_
_atom_site_type_symbol
_atom_site_label
_atom_site_fract_x
_atom_site_fract_y
_atom_site_fract_z
Si Si1 0.802527 0.314247 0.388810
Si Si2 0.909875 0.626456 0.697427
Si Si3 0.341943 0.320451 0.589757
Si Si4 0.161297 0.171293 0.052569
Si Si5 0.590922 0.573539 0.479105
Si Si6 0.189918 0.074370 0.329931
Si Si7 0.843145 0.265870 0.242095
O O1 0.750000 0.250000 0.409640
O O2 0.838049 0.342470 0.464523
O O3 0.752344 0.369356 0.346376
O O4 0.860143 0.288215 0.325757
O O5 0.885869 0.626426 0.610022
O O6 0.855450 0.584713 0.752325
O O7 0.889876 0.700767 0.722651
O O8 0.000000 0.611422 0.706965
O O9 0.250446 0.330284 0.578709
O O10 0.363198 0.247242 0.562356
O O11 0.382806 0.373783 0.539380
O O12 0.358594 0.319012 0.677981
O O13 0.500000 0.577478 0.468547
O O14 0.611242 0.500000 0.504895
O O15 0.631351 0.583098 0.399322
O O16 0.220515 0.000000 0.332793
O O17 0.750000 0.250000 0.238587
#
# Coordination Sequence:
#
# PCOD9368118 Si02
#       7
#    16  16  16  16  16  16  16
#     4  11  17  34  61  82 106 148 190 233 289 329
#     4  11  22  36  54  84 118 153 188 228 283 343
#     4  10  16  31  52  77 107 143 188 226 283 334
#     4  10  18  32  54  80 106 144 186 236 280 327
#     4  10  21  34  51  79 116 151 183 230 289 344
#     4  11  21  36  57  84 115 151 191 234 282 340
#     4  10  18  33  57  78 107 144 184 235 283 326
#
# _framework density 17.676638000000001
#
# number of rings (size 3 to 8) (size 9 to 14) (size 15 to 20)
#    0.000    1.571    8.571    0.429    0.000    3.143 
#    0.000    4.286    0.000    0.000    0.000    0.000 
#    0.000    1.143    0.000    0.000    0.000    0.000 
#
# Total GULP energy -156075.111260 kJ/mol
# GULP energy per Si atom -5574.111116 kJ/mol
# Density = 1.763641 g / cm^3
# Si number density = 17.676638 Si / 1000 Ang^3
#
#
#
# Elastic Constant Matrix: (Units=GPa)
#
#
# Indices 1 2 3 4 5 6 
#
# 1 13.6820 5.6775 -0.7285 0.0000 0.0000 0.0000
# 2 5.6775 53.3683 9.4657 0.0000 0.0000 0.0000
# 3 -0.7285 9.4657 112.3195 0.0000 0.0000 0.0000
# 4 0.0000 0.0000 0.0000 29.9951 0.0000 0.0000
# 5 0.0000 0.0000 0.0000 0.0000 16.0443 0.0000
# 6 0.0000 0.0000 0.0000 0.0000 0.0000 17.7801
#
#
#
# Elastic Compliance Matrix: (Units=1/GPa)
#
#
# Indices 1 2 3 4 5 6 
#
# 1 0.076624 -0.008365 0.001202 0.000000 0.000000 0.000000
# 2 -0.008365 0.019935 -0.001734 0.000000 0.000000 0.000000
# 3 0.001202 -0.001734 0.009057 0.000000 0.000000 0.000000
# 4 0.000000 0.000000 0.000000 0.033339 0.000000 0.000000
# 5 0.000000 0.000000 0.000000 0.000000 0.062328 0.000000
# 6 0.000000 0.000000 0.000000 0.000000 0.000000 0.056243
#
#
# Mechanical properties :
#
#
# Convention : Reuss Voigt Hill
#
# Bulk Modulus (GPa) = 11.38665 23.13322 17.25994
# Shear Modulus (GPa) = 16.41535 23.76091 20.08813
#
# Velocity S-wave (km/s) = 3.05068 3.67031 3.37474
# Velocity P-wave (km/s) = 4.34332 5.57466 4.99706
#
# Compressibility (1/GPa) = 0.08782212
#
# Stress axis : x y z
#
# Youngs Moduli (GPa) = 13.05078 50.16262 110.41032
#
# Poissons Ratio (x) = 0.41959 -0.13270
# Poissons Ratio (y) = 0.10916 0.19148
# Poissons Ratio (z) = -0.01569 0.08700
#
# Static dielectric constant tensor:
#      x y z
#    x 1.593110 0.000000 0.000000 
#    y 0.000000 1.597360 0.000000 
#    z 0.000000 0.000000 1.652030 
# 
# From -- ./inp_files/21045.got.cif
#   From: 2010.05.17/outbox.cif.g08.bks.cpg/sg42_11_cif.got.tgz:21045.got - 2010.06.03 19:03:34.
