data_PCOD9368579
_publ_section_title
;
Structure prediction by ZEFSAII (Michael W. Deem and Ramdas Pophale) SiO2 
 PCOD9368579
Probable space group: F M M 2
;
_chemical_formula_sum "Si O2"
_cell_formula_units_Z 116
_cell_length_a 31.023466
_cell_length_b 8.313435
_cell_length_c 24.942345
_cell_angle_alpha 90.000000
_cell_angle_beta 90.000000
_cell_angle_gamma 90.000000
_cell_volume 6432.919310
_symmetry_space_group_name_H-M "F M M 2"
_symmetry_group_IT_number 42
_symmetry_cell_setting 'orthorhombic'
loop_
_space_group_symop_operation_xyz
x,y,z
-x,-y,z
-x,y,z
x,-y,z
x,1/2+y,1/2+z
-x,1/2-y,1/2+z
-x,1/2+y,1/2+z
x,1/2-y,1/2+z
1/2+x,y,1/2+z
1/2-x,-y,1/2+z
1/2-x,y,1/2+z
1/2+x,-y,1/2+z
1/2+x,1/2+y,z
1/2-x,1/2-y,z
1/2-x,1/2+y,z
1/2+x,1/2-y,z
loop_
_atom_site_type_symbol
_atom_site_label
_atom_site_fract_x
_atom_site_fract_y
_atom_site_fract_z
Si Si1 0.451915 0.189568 0.171950
Si Si2 0.202089 0.691184 0.427176
Si Si3 0.500000 0.000000 0.994336
Si Si4 0.435172 0.312355 0.989664
Si Si5 0.877848 0.316615 0.595863
Si Si6 0.548177 0.689639 0.291680
Si Si7 0.796071 0.813671 0.547231
Si Si8 0.384698 0.188379 0.377542
O O1 0.500000 0.251925 0.155988
O O2 0.412583 0.266310 0.140198
O O3 0.447439 0.219497 0.235316
O O4 0.451730 0.000000 0.160624
O O5 0.201107 0.500000 0.422408
O O6 0.250000 0.750000 0.413480
O O7 0.194227 0.731070 0.489856
O O8 0.163034 0.755076 0.390368
O O9 0.463570 0.149037 0.993844
O O10 0.453061 0.500000 0.991479
O O11 0.410279 0.302329 0.933489
O O12 0.402878 0.305584 0.039609
O O13 0.864714 0.500000 0.605122
O O14 0.834552 0.215303 0.588645
O O15 0.500000 0.728864 0.314135
O O16 0.548636 0.500000 0.280035
O O17 0.585993 0.729351 0.332706
O O18 0.750000 0.750000 0.566756
O O19 0.791463 0.000000 0.535095
O O20 0.381109 0.000000 0.362723
#
# Coordination Sequence:
#
# PCOD9368579 Si02
#       8
#    16  16   4  16  16  16  16  16
#     4  10  22  39  60  84 111 148 196 239 287 345
#     4  10  19  34  54  81 113 149 186 230 285 343
#     4  12  26  36  56  74 124 156 206 228 292 352
#     4  10  24  39  54  82 118 158 195 238 290 349
#     4  11  22  38  58  82 118 151 190 241 288 342
#     4  10  22  38  58  83 110 146 195 241 288 338
#     4  11  21  34  56  83 115 151 191 233 286 348
#     4  10  21  37  56  79 116 151 189 237 289 343
#
# _framework density 18.032249
#
# number of rings (size 3 to 8) (size 9 to 14) (size 15 to 20)
#    0.000    1.655    1.379    3.931    4.828    2.759 
#    0.000    0.000    0.000    0.828    0.000    3.862 
#    0.000    0.000    0.000    0.000    0.000    0.000 
#
# Total GULP energy -161456.473517 kJ/mol
# GULP energy per Si atom -5567.464604 kJ/mol
# Density = 1.799121 g / cm^3
# Si number density = 18.032249 Si / 1000 Ang^3
#
#
#
# Elastic Constant Matrix: (Units=GPa)
#
#
# Indices 1 2 3 4 5 6 
#
# 1 125.7201 24.3365 31.7621 0.0000 0.0000 0.0000
# 2 24.3365 79.8380 -2.4053 -0.0001 0.0000 0.0001
# 3 31.7621 -2.4053 39.0600 0.0000 0.0000 0.0000
# 4 0.0000 -0.0001 0.0000 22.1337 0.0000 0.0000
# 5 0.0000 0.0000 0.0000 0.0000 22.7315 0.0000
# 6 0.0000 0.0001 0.0000 0.0000 0.0000 27.1084
#
#
#
# Elastic Compliance Matrix: (Units=1/GPa)
#
#
# Indices 1 2 3 4 5 6 
#
# 1 0.010963 -0.003617 -0.009137 0.000000 0.000000 0.000000
# 2 -0.003617 0.013742 0.003787 0.000000 0.000000 0.000000
# 3 -0.009137 0.003787 0.033265 0.000000 0.000000 0.000000
# 4 0.000000 0.000000 0.000000 0.045180 0.000000 0.000000
# 5 0.000000 0.000000 0.000000 0.000000 0.043992 0.000000
# 6 0.000000 0.000000 0.000000 0.000000 0.000000 0.036889
#
#
# Mechanical properties :
#
#
# Convention : Reuss Voigt Hill
#
# Bulk Modulus (GPa) = 24.97745 39.11164 32.04454
# Shear Modulus (GPa) = 23.22239 27.12305 25.17272
#
# Velocity S-wave (km/s) = 3.59252 3.88253 3.74034
# Velocity P-wave (km/s) = 5.57583 6.46805 6.03844
#
# Compressibility (1/GPa) = 0.04003611
#
# Stress axis : x y z
#
# Youngs Moduli (GPa) = 91.21760 72.76956 30.06163
#
# Poissons Ratio (x) = 0.26321 0.27468
# Poissons Ratio (y) = 0.32993 -0.11386
# Poissons Ratio (z) = 0.83348 -0.27561
#
# Static dielectric constant tensor:
#      x y z
#    x 1.651690 0.000000 0.000000 
#    y 0.000000 1.630940 0.000000 
#    z 0.000000 0.000000 1.585380 
# 
# From -- ./inp_files/33476.got.cif
#   From: 2010.05.17/outbox.cif.g08.bks.cpg/sg42_17_cif.got.tgz:33476.got - 2010.06.03 19:03:34.
