data_PCOD9368353
_publ_section_title
;
Structure prediction by ZEFSAII (Michael W. Deem and Ramdas Pophale) SiO2 
 PCOD9368353
Probable space group: F M M 2
;
_chemical_formula_sum "Si O2"
_cell_formula_units_Z 88
_cell_length_a 9.602032
_cell_length_b 20.801861
_cell_length_c 21.185747
_cell_angle_alpha 90.000000
_cell_angle_beta 90.000000
_cell_angle_gamma 90.000000
_cell_volume 4231.643965
_symmetry_space_group_name_H-M "F M M 2"
_symmetry_group_IT_number 42
_symmetry_cell_setting 'orthorhombic'
loop_
_space_group_symop_operation_xyz
x,y,z
-x,-y,z
-x,y,z
x,-y,z
x,1/2+y,1/2+z
-x,1/2-y,1/2+z
-x,1/2+y,1/2+z
x,1/2-y,1/2+z
1/2+x,y,1/2+z
1/2-x,-y,1/2+z
1/2-x,y,1/2+z
1/2+x,-y,1/2+z
1/2+x,1/2+y,z
1/2-x,1/2-y,z
1/2-x,1/2+y,z
1/2+x,1/2-y,z
loop_
_atom_site_type_symbol
_atom_site_label
_atom_site_fract_x
_atom_site_fract_y
_atom_site_fract_z
Si Si1 0.666775 0.379509 0.282270
Si Si2 0.750000 0.250000 0.725549
Si Si3 0.837730 0.571271 0.168613
Si Si4 0.842341 0.692123 0.470037
Si Si5 0.663307 0.924913 0.925775
Si Si6 0.354631 0.827022 0.614550
O O1 0.500000 0.371153 0.271771
O O2 0.748728 0.311966 0.271007
O O3 0.740238 0.424115 0.230314
O O4 0.680900 0.408719 0.351564
O O5 0.643501 0.224093 0.671715
O O6 0.827221 0.500000 0.140577
O O7 0.776296 0.626892 0.124823
O O8 0.000000 0.582961 0.184005
O O9 0.750000 0.750000 0.442521
O O10 0.764373 0.624815 0.460130
O O11 0.852265 0.702246 0.545398
O O12 0.000000 0.691702 0.444640
O O13 0.500000 0.913257 0.941839
O O14 0.693217 0.000000 0.937393
O O15 0.500000 0.865377 0.618909
#
# Coordination Sequence:
#
# PCOD9368353 Si02
#       6
#    16   8  16  16  16  16
#     4  10  22  39  61  88 122 164 208 252 311 377
#     4  10  18  34  58  90 124 148 204 250 304 362
#     4  10  21  35  55  87 122 157 202 254 308 367
#     4  11  24  43  66  94 126 165 214 266 319 376
#     4  10  23  44  67  93 128 171 216 264 318 377
#     4  10  22  39  60  86 119 161 204 250 310 374
#
# _framework density 20.795701000000001
#
# number of rings (size 3 to 8) (size 9 to 14) (size 15 to 20)
#    0.000    1.818    0.909    3.273    1.273   11.273 
#    0.000    3.636    0.000    0.000    0.000    0.000 
#    0.000    0.000    0.000    0.000    0.000    0.000 
#
# Total GULP energy -122510.023992 kJ/mol
# GULP energy per Si atom -5568.637454 kJ/mol
# Density = 2.074837 g / cm^3
# Si number density = 20.795701 Si / 1000 Ang^3
#
#
#
# Elastic Constant Matrix: (Units=GPa)
#
#
# Indices 1 2 3 4 5 6 
#
# 1 128.3288 79.5822 20.1085 0.0000 0.0000 0.0000
# 2 79.5822 131.3995 -2.2560 0.0000 0.0000 0.0000
# 3 20.1085 -2.2560 21.3360 0.0000 0.0000 0.0000
# 4 0.0000 0.0000 0.0000 8.6379 0.0000 0.0000
# 5 0.0000 0.0000 0.0000 0.0000 12.8833 0.0000
# 6 0.0000 0.0000 0.0000 0.0000 0.0000 9.0911
#
#
#
# Elastic Compliance Matrix: (Units=1/GPa)
#
#
# Indices 1 2 3 4 5 6 
#
# 1 0.017101 -0.010653 -0.017244 0.000000 0.000000 0.000000
# 2 -0.010653 0.014261 0.011548 0.000000 0.000000 0.000000
# 3 -0.017244 0.011548 0.064342 0.000000 0.000000 0.000000
# 4 0.000000 0.000000 0.000000 0.115769 0.000000 0.000000
# 5 0.000000 0.000000 0.000000 0.000000 0.077620 0.000000
# 6 0.000000 0.000000 0.000000 0.000000 0.000000 0.109998
#
#
# Mechanical properties :
#
#
# Convention : Reuss Voigt Hill
#
# Bulk Modulus (GPa) = 15.87136 52.88152 34.37644
# Shear Modulus (GPa) = 11.04264 18.36443 14.70354
#
# Velocity S-wave (km/s) = 2.30686 2.97490 2.66192
# Velocity P-wave (km/s) = 3.83980 6.10609 5.10041
#
# Compressibility (1/GPa) = 0.06300658
#
# Stress axis : x y z
#
# Youngs Moduli (GPa) = 58.47579 70.12198 15.54193
#
# Poissons Ratio (x) = 0.74703 0.26800
# Poissons Ratio (y) = 0.62296 -0.17948
# Poissons Ratio (z) = 1.00834 -0.80980
#
# Static dielectric constant tensor:
#      x y z
#    x 1.761980 0.000000 0.000000 
#    y 0.000000 1.761470 0.000000 
#    z 0.000000 0.000000 1.754290 
# 
# From -- ./inp_files/23519.got.cif
#   From: 2010.05.17/outbox.cif.g08.bks.cpg/sg42_12_cif.got.tgz:23519.got - 2010.06.03 19:03:34.
