data_PCOD9368930
_publ_section_title
;
Structure prediction by ZEFSAII (Michael W. Deem and Ramdas Pophale) SiO2 
 PCOD9368930
Probable space group: F M M 2
;
_chemical_formula_sum "Si O2"
_cell_formula_units_Z 80
_cell_length_a 29.452011
_cell_length_b 8.720711
_cell_length_c 15.988058
_cell_angle_alpha 90.000000
_cell_angle_beta 90.000000
_cell_angle_gamma 90.000000
_cell_volume 4106.412408
_symmetry_space_group_name_H-M "F M M 2"
_symmetry_group_IT_number 42
_symmetry_cell_setting 'orthorhombic'
loop_
_space_group_symop_operation_xyz
x,y,z
-x,-y,z
-x,y,z
x,-y,z
x,1/2+y,1/2+z
-x,1/2-y,1/2+z
-x,1/2+y,1/2+z
x,1/2-y,1/2+z
1/2+x,y,1/2+z
1/2-x,-y,1/2+z
1/2-x,y,1/2+z
1/2+x,-y,1/2+z
1/2+x,1/2+y,z
1/2-x,1/2-y,z
1/2-x,1/2+y,z
1/2+x,1/2-y,z
loop_
_atom_site_type_symbol
_atom_site_label
_atom_site_fract_x
_atom_site_fract_y
_atom_site_fract_z
Si Si1 0.551004 0.682413 0.835810
Si Si2 0.199614 0.816494 0.246911
Si Si3 0.143941 0.817582 0.592415
Si Si4 0.859454 0.184816 0.407079
Si Si5 0.051399 0.683056 0.649379
O O1 0.500000 0.711691 0.868493
O O2 0.555465 0.500000 0.822266
O O3 0.591288 0.741475 0.893429
O O4 0.555123 0.767095 0.746522
O O5 0.250000 0.750000 0.246311
O O6 0.172166 0.762308 0.165499
O O7 0.172450 0.766541 0.330266
O O8 0.201592 0.000000 0.247314
O O9 0.159175 0.775052 0.498684
O O10 0.091498 0.768282 0.601805
O O11 0.147851 0.000000 0.602684
O O12 0.864149 0.000000 0.403720
O O13 0.057460 0.500000 0.642841
O O14 0.000000 0.721273 0.621838
#
# Coordination Sequence:
#
# PCOD9368930 Si02
#       5
#    16  16  16  16  16
#     4  10  20  34  57  89 123 162 207 250 295 353
#     4  11  24  44  67  90 119 157 199 251 311 366
#     4  11  23  40  63  93 125 160 203 252 302 358
#     4  10  23  41  62  90 125 161 201 247 302 361
#     4  10  20  35  57  86 123 166 207 249 300 356
#
# _framework density 19.481725000000001
#
# number of rings (size 3 to 8) (size 9 to 14) (size 15 to 20)
#    0.000    1.600    2.000    2.400    0.000    6.400 
#    0.000    6.000    0.000    0.000    0.000    0.000 
#    0.000    0.000    0.000    0.000    0.000    0.000 
#
# Total GULP energy -111769.019856 kJ/mol
# GULP energy per Si atom -5588.450993 kJ/mol
# Density = 1.943738 g / cm^3
# Si number density = 19.481725 Si / 1000 Ang^3
#
#
#
# Elastic Constant Matrix: (Units=GPa)
#
#
# Indices 1 2 3 4 5 6 
#
# 1 114.2939 32.3682 68.3671 0.0000 0.0000 0.0000
# 2 32.3682 37.8844 37.1932 0.0000 0.0000 0.0000
# 3 68.3671 37.1932 136.9660 0.0000 0.0000 0.0000
# 4 0.0000 0.0000 0.0000 23.9646 0.0000 0.0000
# 5 0.0000 0.0000 0.0000 0.0000 -2.2978 0.0000
# 6 0.0000 0.0000 0.0000 0.0000 0.0000 37.0200
#
#
#
# Elastic Compliance Matrix: (Units=1/GPa)
#
#
# Indices 1 2 3 4 5 6 
#
# 1 0.013641 -0.006777 -0.004969 0.000000 0.000000 0.000000
# 2 -0.006777 0.039358 -0.007305 0.000000 0.000000 0.000000
# 3 -0.004969 -0.007305 0.011765 0.000000 0.000000 0.000000
# 4 0.000000 0.000000 0.000000 0.041728 0.000000 0.000000
# 5 0.000000 0.000000 0.000000 0.000000 -0.435195 0.000000
# 6 0.000000 0.000000 0.000000 0.000000 0.000000 0.027012
#
#
# Mechanical properties :
#
#
# Convention : Reuss Voigt Hill
#
# Bulk Modulus (GPa) = 37.50540 62.77792 50.14166
# Shear Modulus (GPa) = -19.63067 21.81839 1.09386
#
# Velocity S-wave (km/s) = -3.17779 3.35018 0.75013
# Velocity P-wave (km/s) = 2.41432 6.87451 5.15208
#
# Compressibility (1/GPa) = 0.02666283
#
# Stress axis : x y z
#
# Youngs Moduli (GPa) = 73.31091 25.40794 84.99888
#
# Poissons Ratio (x) = 0.17218 0.42232
# Poissons Ratio (y) = 0.49679 0.62093
# Poissons Ratio (z) = 0.36425 0.18561
#
# Static dielectric constant tensor:
#      x y z
#    x 1.660300 0.000000 0.000000 
#    y 0.000000 1.650970 0.000000 
#    z 0.000000 0.000000 1.695150 
# 
# From -- ./inp_files/18196.got.cif
#   From: 2010.05.17/outbox.cif.g08.bks.cpg/sg42_10_cif.got.tgz:18196.got - 2010.06.03 19:03:34.
