data_PCOD9368080
_publ_section_title
;
Structure prediction by ZEFSAII (Michael W. Deem and Ramdas Pophale) SiO2 
 PCOD9368080
Probable space group: A B A 2
;
_chemical_formula_sum "Si O2"
_cell_formula_units_Z 32
_cell_length_a 9.000000
_cell_length_b 30.000000
_cell_length_c 12.000000
_cell_angle_alpha 90.000000
_cell_angle_beta 90.000000
_cell_angle_gamma 90.000000
_cell_volume 3240.000000
_symmetry_space_group_name_H-M "A B A 2"
_symmetry_group_IT_number 41
_symmetry_cell_setting 'orthorhombic'
loop_
_space_group_symop_operation_xyz
x,y,z
-x,-y,z
1/2-x,y,1/2+z
1/2+x,-y,1/2+z
x,1/2+y,1/2+z
-x,1/2-y,1/2+z
1/2-x,1/2+y,z
1/2+x,1/2-y,z
loop_
_atom_site_type_symbol
_atom_site_label
_atom_site_fract_x
_atom_site_fract_y
_atom_site_fract_z
Si Si1 0.316794 0.228440 0.898390
Si Si2 0.307711 0.318129 0.760090
Si Si3 0.081470 0.413663 0.340767
Si Si4 0.964863 0.822900 0.212068
Si Si5 0.070490 0.262425 0.059550
Si Si6 0.868080 0.031178 0.272036
Si Si7 0.128141 0.034134 0.659841
Si Si8 0.925572 0.916351 0.087821
O O1 0.347967 0.275998 0.838294
O O2 0.341613 0.190350 0.805432
O O3 0.165210 0.239110 0.961732
O O4 0.429872 0.217362 0.997510
O O5 0.392072 0.362579 0.800456
O O6 0.348291 0.299646 0.635763
O O7 0.130331 0.327856 0.763935
O O8 0.250222 0.436132 0.338068
O O9 0.970121 0.437153 0.249617
O O10 0.002164 0.417053 0.463687
O O11 0.976593 0.778388 0.137884
O O12 0.924279 0.866214 0.139270
O O13 0.962254 0.056851 0.173777
O O14 0.746195 0.997619 0.221691
O O15 0.000000 0.000000 0.326819
O O16 0.253476 0.063911 0.590808
O O17 0.000000 0.000000 0.608786
#
# Coordination Sequence:
#
# PCOD9368080 Si02
#       8
#     8   8   8   8   8   8   8   8
#     4  11  23  40  64  91 130 182 221 270 335 394
#     4  11  23  40  65  97 133 173 226 278 330 400
#     4  11  23  42  72  96 139 183 219 278 349 405
#     4  11  23  40  65  98 135 170 227 284 324 402
#     4  11  23  40  64  92 131 181 224 270 335 395
#     4   9  20  42  69 101 134 166 220 283 337 419
#     4   9  22  44  67 101 135 170 224 280 337 417
#     4  11  23  42  70 101 137 179 223 283 345 403
#
# _framework density 9.8765429999999999
#
# number of rings (size 3 to 8) (size 9 to 14) (size 15 to 20)
#    0.000    1.500    3.750    0.750    0.000    7.500 
#    0.000    8.750    0.000    0.000    0.000    0.000 
#    0.000    0.000    0.000    0.000    0.000    0.000 
#
# Total GULP energy -178256.138393 kJ/mol
# GULP energy per Si atom -5570.504325 kJ/mol
# Density = 0.985406 g / cm^3
# Si number density = 9.876543 Si / 1000 Ang^3
#
#
#
# Elastic Constant Matrix: (Units=GPa)
#
#
# Indices 1 2 3 4 5 6 
#
# 1 116.9346 44.9034 20.8468 0.0000 0.0000 0.0000
# 2 44.9034 98.4567 44.1457 0.0000 0.0000 0.0000
# 3 20.8468 44.1457 80.8743 0.0000 0.0000 0.0000
# 4 0.0000 0.0000 0.0000 21.1801 0.0000 0.0000
# 5 0.0000 0.0000 0.0000 0.0000 39.6442 0.0000
# 6 0.0000 0.0000 0.0000 0.0000 0.0000 40.5839
#
#
#
# Elastic Compliance Matrix: (Units=1/GPa)
#
#
# Indices 1 2 3 4 5 6 
#
# 1 0.010368 -0.004674 -0.000121 0.000000 0.000000 0.000000
# 2 -0.004674 0.015556 -0.007286 0.000000 0.000000 0.000000
# 3 -0.000121 -0.007286 0.016373 0.000000 0.000000 0.000000
# 4 0.000000 0.000000 0.000000 0.047214 0.000000 0.000000
# 5 0.000000 0.000000 0.000000 0.000000 0.025224 0.000000
# 6 0.000000 0.000000 0.000000 0.000000 0.000000 0.024640
#
#
# Mechanical properties :
#
#
# Convention : Reuss Voigt Hill
#
# Bulk Modulus (GPa) = 55.14548 57.33973 56.24261
# Shear Modulus (GPa) = 29.48389 32.70628 31.09509
#
# Velocity S-wave (km/s) = 3.86764 4.07351 3.97191
# Velocity P-wave (km/s) = 6.92263 7.15653 7.04055
#
# Compressibility (1/GPa) = 0.01813385
#
# Stress axis : x y z
#
# Youngs Moduli (GPa) = 96.44700 64.28552 61.07512
#
# Poissons Ratio (x) = 0.30050 0.00739
# Poissons Ratio (y) = 0.45084 0.44500
# Poissons Ratio (z) = 0.01168 0.46840
#
# Static dielectric constant tensor:
#      x y z
#    x 1.712930 0.000000 0.000000 
#    y 0.000000 1.714920 0.000000 
#    z 0.000000 0.000000 1.733960 
# 
# From -- ./inp_files/4639.got.cif
#   From: 2010.05.17/outbox.ucp.g08.bks.cvg/sg41_3_cif.got.tgz:4639.got - 2010.06.11 16:28:22.
