data_PCOD9368289
_publ_section_title
;
Structure prediction by ZEFSAII (Michael W. Deem and Ramdas Pophale) SiO2 
 PCOD9368289
Probable space group: F M M 2
;
_chemical_formula_sum "Si O2"
_cell_formula_units_Z 96
_cell_length_a 24.208728
_cell_length_b 8.948502
_cell_length_c 25.732841
_cell_angle_alpha 90.000000
_cell_angle_beta 90.000000
_cell_angle_gamma 90.000000
_cell_volume 5574.552975
_symmetry_space_group_name_H-M "F M M 2"
_symmetry_group_IT_number 42
_symmetry_cell_setting 'orthorhombic'
loop_
_space_group_symop_operation_xyz
x,y,z
-x,-y,z
-x,y,z
x,-y,z
x,1/2+y,1/2+z
-x,1/2-y,1/2+z
-x,1/2+y,1/2+z
x,1/2-y,1/2+z
1/2+x,y,1/2+z
1/2-x,-y,1/2+z
1/2-x,y,1/2+z
1/2+x,-y,1/2+z
1/2+x,1/2+y,z
1/2-x,1/2-y,z
1/2-x,1/2+y,z
1/2+x,1/2-y,z
loop_
_atom_site_type_symbol
_atom_site_label
_atom_site_fract_x
_atom_site_fract_y
_atom_site_fract_z
Si Si1 0.935446 0.322520 0.108240
Si Si2 0.310481 0.680749 0.914012
Si Si3 0.617103 0.329697 0.013507
Si Si4 0.000000 0.328246 0.861046
Si Si5 0.500000 0.661453 0.957566
Si Si6 0.389648 0.179075 0.318959
Si Si7 0.564732 0.178771 0.720601
O O1 0.931372 0.500000 0.115304
O O2 0.892330 0.267673 0.064819
O O3 0.925842 0.239894 0.162793
O O4 0.000000 0.289909 0.093324
O O5 0.308269 0.500000 0.914807
O O6 0.250000 0.750000 0.914623
O O7 0.342554 0.722590 0.860686
O O8 0.344127 0.725569 0.966282
O O9 0.634140 0.500000 0.027026
O O10 0.555745 0.338432 0.989727
O O11 0.000000 0.307717 0.922628
O O12 0.945897 0.242831 0.842924
O O13 0.000000 0.500000 0.844180
O O14 0.500000 0.500000 0.927721
O O15 0.392661 0.249203 0.261455
O O16 0.390428 0.000000 0.315447
O O17 0.500000 0.217393 0.733828
O O18 0.569002 0.000000 0.722001
#
# Coordination Sequence:
#
# PCOD9368289 Si02
#       7
#    16  16  16   8   8  16  16
#     4  10  20  32  49  79 115 150 182 216 265 321
#     4  10  23  40  58  80 106 143 186 229 281 329
#     4  10  19  34  55  78 107 145 181 219 270 325
#     4  12  22  30  47  80 113 142 178 220 270 326
#     4  10  18  32  51  74 109 144 176 214 270 334
#     4  11  21  36  56  78 110 148 182 222 273 330
#     4  10  20  33  51  80 114 148 184 219 263 322
#
# _framework density 17.221112000000002
#
# number of rings (size 3 to 8) (size 9 to 14) (size 15 to 20)
#    0.000    1.667    3.333    2.250    0.000    4.000 
#    0.000    0.000    0.000    1.000    0.000    7.000 
#    0.000    0.000    0.000    0.000    0.000    0.000 
#
# Total GULP energy -133778.685111 kJ/mol
# GULP energy per Si atom -5574.111880 kJ/mol
# Density = 1.718192 g / cm^3
# Si number density = 17.221112 Si / 1000 Ang^3
#
#
#
# Elastic Constant Matrix: (Units=GPa)
#
#
# Indices 1 2 3 4 5 6 
#
# 1 98.3295 30.9401 58.7306 0.0000 0.0000 0.0000
# 2 30.9401 60.4211 56.5724 0.0000 0.0000 0.0000
# 3 58.7306 56.5724 128.3580 0.0000 0.0000 0.0000
# 4 0.0000 0.0000 0.0000 32.2471 0.0000 0.0000
# 5 0.0000 0.0000 0.0000 0.0000 10.1260 0.0000
# 6 0.0000 0.0000 0.0000 0.0000 0.0000 14.1521
#
#
#
# Elastic Compliance Matrix: (Units=1/GPa)
#
#
# Indices 1 2 3 4 5 6 
#
# 1 0.014137 -0.002014 -0.005581 0.000000 0.000000 0.000000
# 2 -0.002014 0.028466 -0.011625 0.000000 0.000000 0.000000
# 3 -0.005581 -0.011625 0.015468 0.000000 0.000000 0.000000
# 4 0.000000 0.000000 0.000000 0.031011 0.000000 0.000000
# 5 0.000000 0.000000 0.000000 0.000000 0.098756 0.000000
# 6 0.000000 0.000000 0.000000 0.000000 0.000000 0.070661
#
#
# Mechanical properties :
#
#
# Convention : Reuss Voigt Hill
#
# Bulk Modulus (GPa) = 50.93738 64.39940 57.66839
# Shear Modulus (GPa) = 16.47557 20.69608 18.58583
#
# Velocity S-wave (km/s) = 3.09642 3.47044 3.28875
# Velocity P-wave (km/s) = 6.51356 7.31679 6.92683
#
# Compressibility (1/GPa) = 0.01963195
#
# Stress axis : x y z
#
# Youngs Moduli (GPa) = 70.73704 35.12986 64.65114
#
# Poissons Ratio (x) = 0.07074 0.36081
# Poissons Ratio (y) = 0.14245 0.75154
# Poissons Ratio (z) = 0.39477 0.40837
#
# Static dielectric constant tensor:
#      x y z
#    x 1.574750 0.000000 0.000000 
#    y 0.000000 1.598260 0.000000 
#    z 0.000000 0.000000 1.637360 
# 
# From -- ./inp_files/28081.got.cif
#   From: 2010.05.17/outbox.cif.g08.bks.cpg/sg42_15_cif.got.tgz:28081.got - 2010.06.03 19:03:34.
