data_PCOD9368832
_publ_section_title
;
Structure prediction by ZEFSAII (Michael W. Deem and Ramdas Pophale) SiO2 
 PCOD9368832
Probable space group: F M M 2
;
_chemical_formula_sum "Si O2"
_cell_formula_units_Z 112
_cell_length_a 23.572147
_cell_length_b 17.526268
_cell_length_c 13.941260
_cell_angle_alpha 90.000000
_cell_angle_beta 90.000000
_cell_angle_gamma 90.000000
_cell_volume 5759.577359
_symmetry_space_group_name_H-M "F M M 2"
_symmetry_group_IT_number 42
_symmetry_cell_setting 'orthorhombic'
loop_
_space_group_symop_operation_xyz
x,y,z
-x,-y,z
-x,y,z
x,-y,z
x,1/2+y,1/2+z
-x,1/2-y,1/2+z
-x,1/2+y,1/2+z
x,1/2-y,1/2+z
1/2+x,y,1/2+z
1/2-x,-y,1/2+z
1/2-x,y,1/2+z
1/2+x,-y,1/2+z
1/2+x,1/2+y,z
1/2-x,1/2-y,z
1/2-x,1/2+y,z
1/2+x,1/2-y,z
loop_
_atom_site_type_symbol
_atom_site_label
_atom_site_fract_x
_atom_site_fract_y
_atom_site_fract_z
Si Si1 0.869955 0.313549 0.467290
Si Si2 0.155590 0.634832 0.965698
Si Si3 0.565355 0.585298 0.105415
Si Si4 0.066164 0.692780 0.280336
Si Si5 0.934144 0.631212 0.815037
Si Si6 0.339718 0.411469 0.681925
Si Si7 0.262548 0.160951 0.336477
O O1 0.858823 0.224269 0.485234
O O2 0.888876 0.358712 0.560238
O O3 0.920587 0.327289 0.390918
O O4 0.813846 0.342142 0.413191
O O5 0.102227 0.605235 0.905177
O O6 0.207769 0.630009 0.891568
O O7 0.167427 0.597467 0.067832
O O8 0.500000 0.611639 0.089495
O O9 0.571212 0.500000 0.065251
O O10 0.572765 0.582866 0.219569
O O11 0.082034 0.782624 0.280652
O O12 0.107756 0.642003 0.215740
O O13 0.000000 0.684222 0.255863
O O14 0.000000 0.634327 0.842059
O O15 0.350366 0.500000 0.705596
O O16 0.285351 0.381823 0.742365
O O17 0.250000 0.250000 0.313588
#
# Coordination Sequence:
#
# PCOD9368832 Si02
#       7
#    16  16  16  16  16  16  16
#     4   9  18  34  57  84 108 142 191 235 275 332
#     4  10  21  38  59  80 108 148 188 232 284 333
#     4  10  20  33  53  85 122 155 187 231 286 334
#     4   9  18  35  58  82 113 153 192 232 277 327
#     4   9  19  36  58  84 113 151 201 241 268 320
#     4  11  24  38  56  87 119 145 183 234 287 346
#     4   9  21  40  60  79 105 145 191 234 277 333
#
# _framework density 19.445871
#
# number of rings (size 3 to 8) (size 9 to 14) (size 15 to 20)
#    0.000    2.429    0.000    2.143    0.000    7.714 
#    0.000    1.429    0.000    0.000    0.000    0.000 
#    0.000    0.000    0.000    0.000    0.000    0.000 
#
# Total GULP energy -156173.044219 kJ/mol
# GULP energy per Si atom -5577.608722 kJ/mol
# Density = 1.940161 g / cm^3
# Si number density = 19.445871 Si / 1000 Ang^3
#
#
#
# Elastic Constant Matrix: (Units=GPa)
#
#
# Indices 1 2 3 4 5 6 
#
# 1 70.8454 43.2210 46.9471 0.0000 0.0000 0.0000
# 2 43.2210 55.6314 36.1992 0.0000 0.0000 0.0000
# 3 46.9471 36.1992 94.5067 0.0000 0.0000 0.0000
# 4 0.0000 0.0000 0.0000 -26.6513 0.0000 0.0000
# 5 0.0000 0.0000 0.0000 0.0000 23.9494 0.0000
# 6 0.0000 0.0000 0.0000 0.0000 0.0000 9.8270
#
#
#
# Elastic Compliance Matrix: (Units=1/GPa)
#
#
# Indices 1 2 3 4 5 6 
#
# 1 0.030986 -0.018725 -0.008221 0.000000 0.000000 0.000000
# 2 -0.018725 0.035258 -0.004203 0.000000 0.000000 0.000000
# 3 -0.008221 -0.004203 0.016275 0.000000 0.000000 0.000000
# 4 0.000000 0.000000 0.000000 -0.037522 0.000000 0.000000
# 5 0.000000 0.000000 0.000000 0.000000 0.041755 0.000000
# 6 0.000000 0.000000 0.000000 0.000000 0.000000 0.101761
#
#
# Mechanical properties :
#
#
# Convention : Reuss Voigt Hill
#
# Bulk Modulus (GPa) = 49.45080 52.63534 51.04307
# Shear Modulus (GPa) = 19.41366 7.73277 13.57322
#
# Velocity S-wave (km/s) = 3.16309 1.99630 2.64484
# Velocity P-wave (km/s) = 6.23100 5.69561 5.96931
#
# Compressibility (1/GPa) = 0.02022212
#
# Stress axis : x y z
#
# Youngs Moduli (GPa) = 32.27244 28.36224 61.44428
#
# Poissons Ratio (x) = 0.53107 0.50510
# Poissons Ratio (y) = 0.60429 0.25827
# Poissons Ratio (z) = 0.26530 0.11922
#
# Static dielectric constant tensor:
#      x y z
#    x 1.682420 0.000000 0.000000 
#    y 0.000000 1.695310 0.000000 
#    z 0.000000 0.000000 1.674720 
# 
# From -- ./inp_files/10259.got.cif
#   From: 2010.05.17/outbox.cif.g08.bks.cpg/sg42_6_cif.got.tgz:10259.got - 2010.06.03 19:03:34.
