data_PCOD9368130
_publ_section_title
;
Structure prediction by ZEFSAII (Michael W. Deem and Ramdas Pophale) SiO2 
 PCOD9368130
Probable space group: F M M 2
;
_chemical_formula_sum "Si O2"
_cell_formula_units_Z 96
_cell_length_a 19.588574
_cell_length_b 8.626220
_cell_length_c 32.549975
_cell_angle_alpha 90.000000
_cell_angle_beta 90.000000
_cell_angle_gamma 90.000000
_cell_volume 5500.143379
_symmetry_space_group_name_H-M "F M M 2"
_symmetry_group_IT_number 42
_symmetry_cell_setting 'orthorhombic'
loop_
_space_group_symop_operation_xyz
x,y,z
-x,-y,z
-x,y,z
x,-y,z
x,1/2+y,1/2+z
-x,1/2-y,1/2+z
-x,1/2+y,1/2+z
x,1/2-y,1/2+z
1/2+x,y,1/2+z
1/2-x,-y,1/2+z
1/2-x,y,1/2+z
1/2+x,-y,1/2+z
1/2+x,1/2+y,z
1/2-x,1/2-y,z
1/2-x,1/2+y,z
1/2+x,1/2-y,z
loop_
_atom_site_type_symbol
_atom_site_label
_atom_site_fract_x
_atom_site_fract_y
_atom_site_fract_z
Si Si1 0.673010 0.813307 0.004050
Si Si2 0.173244 0.314834 0.743681
Si Si3 0.421515 0.188737 0.079348
Si Si4 0.827772 0.315126 0.418380
Si Si5 0.579617 0.813203 0.171741
Si Si6 0.172495 0.814139 0.334313
O O1 0.750000 0.750000 0.008298
O O2 0.628043 0.761951 0.042872
O O3 0.675224 0.000000 0.002369
O O4 0.643105 0.750655 0.960937
O O5 0.177232 0.500000 0.742379
O O6 0.250000 0.250000 0.739841
O O7 0.126530 0.255001 0.707054
O O8 0.144550 0.272335 0.789174
O O9 0.500000 0.237380 0.072579
O O10 0.400492 0.236949 0.125410
O O11 0.421438 0.000000 0.079349
O O12 0.825871 0.500000 0.419242
O O13 0.750000 0.250000 0.418095
O O14 0.859756 0.256932 0.375523
O O15 0.500000 0.771345 0.177567
O O16 0.584079 0.000000 0.173145
O O17 0.250000 0.750000 0.333027
O O18 0.174047 0.000000 0.338425
#
# Coordination Sequence:
#
# PCOD9368130 Si02
#       6
#    16  16  16  16  16  16
#     4  10  18  29  47  70  97 124 154 194 235 277
#     4  10  20  32  49  74 102 129 161 202 244 287
#     4   8  16  32  52  71  91 122 162 197 232 280
#     4  10  17  26  42  65  94 124 155 190 230 279
#     4   9  18  34  54  73  96 128 164 200 242 293
#     4   9  16  27  43  65  93 124 157 192 232 278
#
# _framework density 17.454090999999998
#
# number of rings (size 3 to 8) (size 9 to 14) (size 15 to 20)
#    0.000    2.667    0.000    6.000    0.000    3.000 
#    0.000    3.333    0.000    5.000    0.000    2.333 
#    0.000    0.000    0.000    0.000    0.000    0.000 
#
# Total GULP energy -133690.645532 kJ/mol
# GULP energy per Si atom -5570.443564 kJ/mol
# Density = 1.741436 g / cm^3
# Si number density = 17.454091 Si / 1000 Ang^3
#
#
#
# Elastic Constant Matrix: (Units=GPa)
#
#
# Indices 1 2 3 4 5 6 
#
# 1 42.6794 22.2215 77.2007 0.0000 0.0000 0.0000
# 2 22.2215 63.6063 54.6593 0.0000 0.0000 0.0000
# 3 77.2007 54.6593 224.6625 0.0000 0.0000 0.0000
# 4 0.0000 0.0000 0.0000 36.4090 0.0000 0.0000
# 5 0.0000 0.0000 0.0000 0.0000 -11.1536 0.0000
# 6 0.0000 0.0000 0.0000 0.0000 0.0000 14.1674
#
#
#
# Elastic Compliance Matrix: (Units=1/GPa)
#
#
# Indices 1 2 3 4 5 6 
#
# 1 0.062830 -0.004295 -0.020545 0.000000 0.000000 0.000000
# 2 -0.004295 0.020171 -0.003432 0.000000 0.000000 0.000000
# 3 -0.020545 -0.003432 0.012346 0.000000 0.000000 0.000000
# 4 0.000000 0.000000 0.000000 0.027466 0.000000 0.000000
# 5 0.000000 0.000000 0.000000 0.000000 -0.089657 0.000000
# 6 0.000000 0.000000 0.000000 0.000000 0.000000 0.070585
#
#
# Mechanical properties :
#
#
# Convention : Reuss Voigt Hill
#
# Bulk Modulus (GPa) = 25.77090 71.01236 48.39163
# Shear Modulus (GPa) = 28.86511 19.67567 24.27039
#
# Velocity S-wave (km/s) = 4.07107 3.36114 3.73302
# Velocity P-wave (km/s) = 6.07414 7.47239 6.80925
#
# Compressibility (1/GPa) = 0.03880346
#
# Stress axis : x y z
#
# Youngs Moduli (GPa) = 15.91589 49.57577 80.99754
#
# Poissons Ratio (x) = 0.21292 1.66413
# Poissons Ratio (y) = 0.06836 0.27796
# Poissons Ratio (z) = 0.32700 0.17013
#
# Static dielectric constant tensor:
#      x y z
#    x 1.562660 0.000000 0.000000 
#    y 0.000000 1.588830 0.000000 
#    z 0.000000 0.000000 1.653970 
# 
# From -- ./inp_files/31613.got.cif
#   From: 2010.05.17/outbox.cif.g08.bks.cpg/sg42_16_cif.got.tgz:31613.got - 2010.06.03 19:03:34.
