data_PCOD9368238
_publ_section_title
;
Structure prediction by ZEFSAII (Michael W. Deem and Ramdas Pophale) SiO2 
 PCOD9368238
Probable space group: F M M 2
;
_chemical_formula_sum "Si O2"
_cell_formula_units_Z 96
_cell_length_a 13.480192
_cell_length_b 19.273376
_cell_length_c 23.594265
_cell_angle_alpha 90.000000
_cell_angle_beta 90.000000
_cell_angle_gamma 90.000000
_cell_volume 6129.997888
_symmetry_space_group_name_H-M "F M M 2"
_symmetry_group_IT_number 42
_symmetry_cell_setting 'orthorhombic'
loop_
_space_group_symop_operation_xyz
x,y,z
-x,-y,z
-x,y,z
x,-y,z
x,1/2+y,1/2+z
-x,1/2-y,1/2+z
-x,1/2+y,1/2+z
x,1/2-y,1/2+z
1/2+x,y,1/2+z
1/2-x,-y,1/2+z
1/2-x,y,1/2+z
1/2+x,-y,1/2+z
1/2+x,1/2+y,z
1/2-x,1/2-y,z
1/2-x,1/2+y,z
1/2+x,1/2-y,z
loop_
_atom_site_type_symbol
_atom_site_label
_atom_site_fract_x
_atom_site_fract_y
_atom_site_fract_z
Si Si1 0.783499 0.824474 0.677920
Si Si2 0.619439 0.080927 0.954591
Si Si3 0.384385 0.080196 0.733148
Si Si4 0.619402 0.419761 0.583551
Si Si5 0.384083 0.797820 0.298467
Si Si6 0.688212 0.352880 0.341768
O O1 0.750000 0.750000 0.655084
O O2 0.689380 0.868353 0.700525
O O3 0.837293 0.869622 0.630701
O O4 0.852044 0.807504 0.732805
O O5 0.500000 0.085598 0.951612
O O6 0.663671 0.128877 0.905916
O O7 0.645726 0.000000 0.944712
O O8 0.649331 0.098600 0.019057
O O9 0.500000 0.097550 0.724205
O O10 0.358135 0.090504 0.799419
O O11 0.368380 0.000000 0.717089
O O12 0.500000 0.417313 0.585524
O O13 0.648668 0.500000 0.593982
O O14 0.500000 0.812246 0.306002
O O15 0.359046 0.719922 0.319996
O O16 0.306061 0.846120 0.331767
#
# Coordination Sequence:
#
# PCOD9368238 Si02
#       6
#    16  16  16  16  16  16
#     4  11  20  33  49  75 102 139 166 205 253 302
#     4   9  17  31  53  76  96 124 167 217 258 291
#     4  10  19  30  48  74 101 129 166 211 255 300
#     4   9  19  35  54  75  99 132 173 216 256 295
#     4  10  19  32  48  71 104 135 165 199 250 307
#     4  10  18  30  49  75  98 130 163 205 257 297
#
# _framework density 15.660691
#
# number of rings (size 3 to 8) (size 9 to 14) (size 15 to 20)
#    0.000    2.167    3.333    4.000    0.000    2.000 
#    3.000    0.000    0.000   11.000    0.000    2.333 
#    0.000    0.000    0.000    0.000    0.000    0.000 
#
# Total GULP energy -133770.050119 kJ/mol
# GULP energy per Si atom -5573.752088 kJ/mol
# Density = 1.562505 g / cm^3
# Si number density = 15.660691 Si / 1000 Ang^3
#
#
#
# Elastic Constant Matrix: (Units=GPa)
#
#
# Indices 1 2 3 4 5 6 
#
# 1 94.7931 41.8694 41.9912 0.0000 0.0000 0.0000
# 2 41.8694 83.6989 69.3403 0.0000 0.0000 0.0000
# 3 41.9912 69.3403 131.9223 0.0000 0.0000 0.0000
# 4 0.0000 0.0000 0.0000 31.1092 0.0000 0.0000
# 5 0.0000 0.0000 0.0000 0.0000 19.5815 0.0000
# 6 0.0000 0.0000 0.0000 0.0000 0.0000 17.6297
#
#
#
# Elastic Compliance Matrix: (Units=1/GPa)
#
#
# Indices 1 2 3 4 5 6 
#
# 1 0.013674 -0.005729 -0.001341 0.000000 0.000000 0.000000
# 2 -0.005729 0.023563 -0.010562 0.000000 0.000000 0.000000
# 3 -0.001341 -0.010562 0.013558 0.000000 0.000000 0.000000
# 4 0.000000 0.000000 0.000000 0.032145 0.000000 0.000000
# 5 0.000000 0.000000 0.000000 0.000000 0.051069 0.000000
# 6 0.000000 0.000000 0.000000 0.000000 0.000000 0.056722
#
#
# Mechanical properties :
#
#
# Convention : Reuss Voigt Hill
#
# Bulk Modulus (GPa) = 64.38371 68.53509 66.45940
# Shear Modulus (GPa) = 21.62886 24.14497 22.88692
#
# Velocity S-wave (km/s) = 3.72034 3.93078 3.82701
# Velocity P-wave (km/s) = 7.72369 8.02863 7.87764
#
# Compressibility (1/GPa) = 0.01553188
#
# Stress axis : x y z
#
# Youngs Moduli (GPa) = 73.13200 42.43889 73.75490
#
# Poissons Ratio (x) = 0.24314 0.09891
# Poissons Ratio (y) = 0.41899 0.77897
# Poissons Ratio (z) = 0.09808 0.44822
#
# Static dielectric constant tensor:
#      x y z
#    x 1.516330 0.000000 0.000000 
#    y 0.000000 1.529790 0.000000 
#    z 0.000000 0.000000 1.515200 
# 
# From -- ./inp_files/28829.got.cif
#   From: 2010.05.17/outbox.cif.g08.bks.cpg/sg42_15_cif.got.tgz:28829.got - 2010.06.03 19:03:34.
