data_PCOD9368699
_publ_section_title
;
Structure prediction by ZEFSAII (Michael W. Deem and Ramdas Pophale) SiO2 
 PCOD9368699
Probable space group: F M M 2
;
_chemical_formula_sum "Si O2"
_cell_formula_units_Z 84
_cell_length_a 15.457684
_cell_length_b 15.245931
_cell_length_c 17.735216
_cell_angle_alpha 90.000000
_cell_angle_beta 90.000000
_cell_angle_gamma 90.000000
_cell_volume 4179.601313
_symmetry_space_group_name_H-M "F M M 2"
_symmetry_group_IT_number 42
_symmetry_cell_setting 'orthorhombic'
loop_
_space_group_symop_operation_xyz
x,y,z
-x,-y,z
-x,y,z
x,-y,z
x,1/2+y,1/2+z
-x,1/2-y,1/2+z
-x,1/2+y,1/2+z
x,1/2-y,1/2+z
1/2+x,y,1/2+z
1/2-x,-y,1/2+z
1/2-x,y,1/2+z
1/2+x,-y,1/2+z
1/2+x,1/2+y,z
1/2-x,1/2-y,z
1/2-x,1/2+y,z
1/2+x,1/2-y,z
loop_
_atom_site_type_symbol
_atom_site_label
_atom_site_fract_x
_atom_site_fract_y
_atom_site_fract_z
Si Si1 0.000000 0.000000 0.517601
Si Si2 0.401466 0.246337 0.827558
Si Si3 0.679422 0.098879 0.409194
Si Si4 0.601260 0.675565 0.052646
Si Si5 0.394438 0.098311 0.711129
Si Si6 0.637666 0.849603 0.980574
O O1 0.924174 0.923606 0.512680
O O2 0.500000 0.273470 0.807761
O O3 0.341680 0.329670 0.845230
O O4 0.368093 0.176695 0.766458
O O5 0.404634 0.193489 0.906130
O O6 0.613113 0.118128 0.477495
O O7 0.771444 0.115308 0.449271
O O8 0.673322 0.000000 0.381669
O O9 0.500000 0.695500 0.063038
O O10 0.631224 0.623180 0.126195
O O11 0.647489 0.768363 0.037841
O O12 0.500000 0.096207 0.714623
O O13 0.364816 0.000000 0.732285
#
# Coordination Sequence:
#
# PCOD9368699 Si02
#       6
#     4  16  16  16  16  16
#     4  12  20  36  64  80 108 156 200 250 288 344
#     4  10  20  35  56  85 113 150 189 239 291 343
#     4  11  22  35  56  83 118 151 190 240 290 353
#     4  10  19  36  57  84 116 150 192 240 291 340
#     4   9  19  33  57  85 116 155 202 242 279 338
#     4  11  21  36  57  86 111 146 199 245 291 339
#
# _framework density 20.097611000000001
#
# number of rings (size 3 to 8) (size 9 to 14) (size 15 to 20)
#    0.000    1.714    2.857    4.571    1.333    2.286 
#    0.000    3.810    2.095    2.286    0.000    0.000 
#    0.000    0.000    0.000    0.000    0.000    0.000 
#
# Total GULP energy -116935.246196 kJ/mol
# GULP energy per Si atom -5568.345057 kJ/mol
# Density = 2.005187 g / cm^3
# Si number density = 20.097611 Si / 1000 Ang^3
#
#
#
# Elastic Constant Matrix: (Units=GPa)
#
#
# Indices 1 2 3 4 5 6 
#
# 1 58.6084 36.3873 9.0266 0.0000 0.0000 0.0000
# 2 36.3873 176.8684 46.6884 0.0000 0.0000 0.0000
# 3 9.0266 46.6884 61.4987 0.0000 0.0000 0.0000
# 4 0.0000 0.0000 0.0000 22.0457 0.0000 0.0000
# 5 0.0000 0.0000 0.0000 0.0000 -0.2304 0.0000
# 6 0.0000 0.0000 0.0000 0.0000 0.0000 26.6528
#
#
#
# Elastic Compliance Matrix: (Units=1/GPa)
#
#
# Indices 1 2 3 4 5 6 
#
# 1 0.019563 -0.004086 0.000230 0.000000 0.000000 0.000000
# 2 -0.004086 0.007924 -0.005416 0.000000 0.000000 0.000000
# 3 0.000230 -0.005416 0.020339 0.000000 0.000000 0.000000
# 4 0.000000 0.000000 0.000000 0.045360 0.000000 0.000000
# 5 0.000000 0.000000 0.000000 0.000000 -4.340021 0.000000
# 6 0.000000 0.000000 0.000000 0.000000 0.000000 0.037519
#
#
# Mechanical properties :
#
#
# Convention : Reuss Voigt Hill
#
# Bulk Modulus (GPa) = 34.14938 53.46445 43.80692
# Shear Modulus (GPa) = -1.19588 23.35184 11.07798
#
# Velocity S-wave (km/s) = -0.77222 3.41239 2.35033
# Velocity P-wave (km/s) = 4.02909 6.49508 5.40461
#
# Compressibility (1/GPa) = 0.02928311
#
# Stress axis : x y z
#
# Youngs Moduli (GPa) = 51.11562 126.19610 49.16769
#
# Poissons Ratio (x) = 0.51558 -0.01132
# Poissons Ratio (y) = 0.20884 0.26630
# Poissons Ratio (z) = -0.01177 0.68350
#
# Static dielectric constant tensor:
#      x y z
#    x 1.770590 0.000000 0.000000 
#    y 0.000000 1.717500 0.000000 
#    z 0.000000 0.000000 1.713710 
# 
# From -- ./inp_files/25020.got.cif
#   From: 2010.05.17/outbox.cif.g08.bks.cpg/sg42_13_cif.got.tgz:25020.got - 2010.06.03 19:03:34.
