data_PCOD9368765
_publ_section_title
;
Structure prediction by ZEFSAII (Michael W. Deem and Ramdas Pophale) SiO2 
 PCOD9368765
Probable space group: F M M 2
;
_chemical_formula_sum "Si O2"
_cell_formula_units_Z 80
_cell_length_a 13.763593
_cell_length_b 22.541668
_cell_length_c 10.652868
_cell_angle_alpha 90.000000
_cell_angle_beta 90.000000
_cell_angle_gamma 90.000000
_cell_volume 3305.098572
_symmetry_space_group_name_H-M "F M M 2"
_symmetry_group_IT_number 42
_symmetry_cell_setting 'orthorhombic'
loop_
_space_group_symop_operation_xyz
x,y,z
-x,-y,z
-x,y,z
x,-y,z
x,1/2+y,1/2+z
-x,1/2-y,1/2+z
-x,1/2+y,1/2+z
x,1/2-y,1/2+z
1/2+x,y,1/2+z
1/2-x,-y,1/2+z
1/2-x,y,1/2+z
1/2+x,-y,1/2+z
1/2+x,1/2+y,z
1/2-x,1/2-y,z
1/2-x,1/2+y,z
1/2+x,1/2-y,z
loop_
_atom_site_type_symbol
_atom_site_label
_atom_site_fract_x
_atom_site_fract_y
_atom_site_fract_z
Si Si1 0.000000 0.229652 0.984071
Si Si2 0.716271 0.409441 0.518493
Si Si3 0.663134 0.066293 0.760441
Si Si4 0.836101 0.711100 0.140842
Si Si5 0.500000 0.579121 0.577675
Si Si6 0.500000 0.843773 0.844582
Si Si7 0.000000 0.645784 0.296922
O O1 0.000000 0.273115 0.859548
O O2 0.000000 0.161627 0.941106
O O3 0.094291 0.245254 0.063616
O O4 0.739650 0.424463 0.374821
O O5 0.788342 0.430863 0.625265
O O6 0.705474 0.339165 0.546739
O O7 0.608705 0.438773 0.539667
O O8 0.590231 0.121513 0.783457
O O9 0.619361 0.000000 0.774867
O O10 0.750000 0.750000 0.198398
O O11 0.902627 0.675864 0.239317
O O12 0.500000 0.639952 0.494069
O O13 0.500000 0.583337 0.727354
#
# Coordination Sequence:
#
# PCOD9368765 Si02
#       7
#     8  16  16  16   8   8   8
#     4  11  19  37  55  80 115 154 201 239 273 353
#     4  10  21  39  62  88 121 152 198 246 294 361
#     4  11  22  39  62  88 115 153 201 252 302 352
#     4  10  21  36  54  84 117 157 189 236 296 350
#     4   8  16  40  58  79 118 158 193 237 288 363
#     4  10  19  39  60  78 112 157 199 244 294 356
#     4   9  19  32  53  79 111 145 195 238 276 344
#
# _framework density 24.205027000000001
#
# number of rings (size 3 to 8) (size 9 to 14) (size 15 to 20)
#    0.000    2.000    6.000    0.900    2.800    4.000 
#    0.000    2.500    0.000    0.000    0.000    0.000 
#    0.000    0.000    0.000    0.000    0.000    0.000 
#
# Total GULP energy -111505.480855 kJ/mol
# GULP energy per Si atom -5575.274043 kJ/mol
# Density = 2.414994 g / cm^3
# Si number density = 24.205027 Si / 1000 Ang^3
#
#
#
# Elastic Constant Matrix: (Units=GPa)
#
#
# Indices 1 2 3 4 5 6 
#
# 1 73.3658 4.5128 12.0910 0.0000 0.0000 0.0000
# 2 4.5128 34.1460 -2.9143 0.0000 0.0000 0.0000
# 3 12.0910 -2.9143 72.8420 0.0000 0.0000 0.0000
# 4 0.0000 0.0000 0.0000 13.7090 0.0000 0.0000
# 5 0.0000 0.0000 0.0000 0.0000 16.4078 0.0000
# 6 0.0000 0.0000 0.0000 0.0000 0.0000 104.2565
#
#
#
# Elastic Compliance Matrix: (Units=1/GPa)
#
#
# Indices 1 2 3 4 5 6 
#
# 1 0.014159 -0.002079 -0.002433 0.000000 0.000000 0.000000
# 2 -0.002079 0.029692 0.001533 0.000000 0.000000 0.000000
# 3 -0.002433 0.001533 0.014194 0.000000 0.000000 0.000000
# 4 0.000000 0.000000 0.000000 0.072945 0.000000 0.000000
# 5 0.000000 0.000000 0.000000 0.000000 0.060947 0.000000
# 6 0.000000 0.000000 0.000000 0.000000 0.000000 0.009592
#
#
# Mechanical properties :
#
#
# Convention : Reuss Voigt Hill
#
# Bulk Modulus (GPa) = 19.19915 23.08139 21.14027
# Shear Modulus (GPa) = 22.23720 37.98562 30.11141
#
# Velocity S-wave (km/s) = 3.03430 3.96577 3.53089
# Velocity P-wave (km/s) = 4.49723 5.52506 5.03743
#
# Compressibility (1/GPa) = 0.05208564
#
# Stress axis : x y z
#
# Youngs Moduli (GPa) = 70.62523 33.67952 70.45425
#
# Poissons Ratio (x) = 0.07002 0.17145
# Poissons Ratio (y) = 0.14683 -0.10801
# Poissons Ratio (z) = 0.17186 -0.05163
#
# Static dielectric constant tensor:
#      x y z
#    x 1.951380 0.000000 0.000000 
#    y 0.000000 2.109380 0.000000 
#    z 0.000000 0.000000 1.953690 
# 
# From -- ./inp_files/7944.got.cif
#   From: 2010.05.17/outbox.cif.g08.bks.cpg/sg42_4_cif.got.tgz:7944.got - 2010.06.03 19:03:34.
