data_PCOD9368430
_publ_section_title
;
Structure prediction by ZEFSAII (Michael W. Deem and Ramdas Pophale) SiO2 
 PCOD9368430
Probable space group: F M M 2
;
_chemical_formula_sum "Si O2"
_cell_formula_units_Z 116
_cell_length_a 25.982795
_cell_length_b 7.573710
_cell_length_c 27.627491
_cell_angle_alpha 90.000000
_cell_angle_beta 90.000000
_cell_angle_gamma 90.000000
_cell_volume 5436.707707
_symmetry_space_group_name_H-M "F M M 2"
_symmetry_group_IT_number 42
_symmetry_cell_setting 'orthorhombic'
loop_
_space_group_symop_operation_xyz
x,y,z
-x,-y,z
-x,y,z
x,-y,z
x,1/2+y,1/2+z
-x,1/2-y,1/2+z
-x,1/2+y,1/2+z
x,1/2-y,1/2+z
1/2+x,y,1/2+z
1/2-x,-y,1/2+z
1/2-x,y,1/2+z
1/2+x,-y,1/2+z
1/2+x,1/2+y,z
1/2-x,1/2-y,z
1/2-x,1/2+y,z
1/2+x,1/2-y,z
loop_
_atom_site_type_symbol
_atom_site_label
_atom_site_fract_x
_atom_site_fract_y
_atom_site_fract_z
Si Si1 0.500000 0.000000 0.849785
Si Si2 0.689222 0.302147 0.347989
Si Si3 0.161471 0.798608 0.060743
Si Si4 0.578484 0.793998 0.315746
Si Si5 0.193104 0.789889 0.164825
Si Si6 0.556039 0.285834 0.604001
Si Si7 0.086262 0.795312 0.708346
Si Si8 0.190096 0.789235 0.957110
O O1 0.545509 0.157523 0.847398
O O2 0.686352 0.500000 0.329348
O O3 0.750000 0.250000 0.342503
O O4 0.640452 0.205945 0.324277
O O5 0.676818 0.292863 0.405446
O O6 0.187449 0.719516 0.109265
O O7 0.101822 0.795769 0.074053
O O8 0.166990 0.719974 0.007447
O O9 0.181321 0.000000 0.056736
O O10 0.570995 0.725336 0.260423
O O11 0.562316 0.000000 0.320428
O O12 0.250000 0.750000 0.182949
O O13 0.147317 0.716955 0.197644
O O14 0.185444 0.000000 0.162540
O O15 0.500000 0.244065 0.584879
O O16 0.562497 0.500000 0.604094
O O17 0.561324 0.222059 0.659462
O O18 0.071455 0.000000 0.710033
O O19 0.250000 0.750000 0.963069
O O20 0.180674 0.000000 0.952472
#
# Coordination Sequence:
#
# PCOD9368430 Si02
#       8
#     4  16  16  16  16  16  16  16
#     4  12  26  44  68  98 128 168 214 262 312 390
#     4  11  22  40  65  96 127 160 206 259 321 389
#     4   9  19  33  49  76 109 145 188 236 286 349
#     4  11  24  44  67  95 130 166 212 266 320 375
#     4  10  19  31  49  74 112 153 191 238 294 360
#     4   9  18  33  53  76 104 141 188 235 288 341
#     4   9  20  36  55  80 110 148 193 244 298 355
#     4  10  19  33  56  85 115 149 190 237 298 362
#
# _framework density 21.336441000000001
#
# number of rings (size 3 to 8) (size 9 to 14) (size 15 to 20)
#    0.000    2.069    0.690    3.517    1.931    2.483 
#    0.000    0.000    1.517    0.000    0.000    0.000 
#    0.000    0.000    0.000    0.000    0.000    0.000 
#
# Total GULP energy -161438.159341 kJ/mol
# GULP energy per Si atom -5566.833081 kJ/mol
# Density = 2.128788 g / cm^3
# Si number density = 21.336441 Si / 1000 Ang^3
#
#
#
# Elastic Constant Matrix: (Units=GPa)
#
#
# Indices 1 2 3 4 5 6 
#
# 1 74.9643 6.1686 1.9510 0.0000 0.0001 0.0001
# 2 6.1686 94.4948 -4.7792 -0.0002 0.0000 0.0002
# 3 1.9510 -4.7792 42.4088 0.0000 0.0000 0.0000
# 4 0.0000 -0.0002 0.0000 23.9531 0.0000 -0.0001
# 5 0.0001 0.0000 0.0000 0.0000 -9.4619 0.0000
# 6 0.0001 0.0002 0.0000 -0.0001 0.0000 16.5617
#
#
#
# Elastic Compliance Matrix: (Units=1/GPa)
#
#
# Indices 1 2 3 4 5 6 
#
# 1 0.013434 -0.000913 -0.000721 0.000000 0.000000 0.000000
# 2 -0.000913 0.010705 0.001248 0.000000 0.000000 0.000000
# 3 -0.000721 0.001248 0.023754 0.000000 0.000000 0.000000
# 4 0.000000 0.000000 0.000000 0.041748 0.000000 0.000000
# 5 0.000000 0.000000 0.000000 0.000000 -0.105687 0.000000
# 6 0.000000 0.000000 0.000000 0.000000 0.000000 0.060380
#
#
# Mechanical properties :
#
#
# Convention : Reuss Voigt Hill
#
# Bulk Modulus (GPa) = 21.22195 24.28319 22.75257
# Shear Modulus (GPa) = 82.21890 20.11241 51.16566
#
# Velocity S-wave (km/s) = 6.21435 3.07356 4.90229
# Velocity P-wave (km/s) = 7.83957 4.89913 6.53683
#
# Compressibility (1/GPa) = 0.04712102
#
# Stress axis : x y z
#
# Youngs Moduli (GPa) = 74.44019 93.41117 42.09842
#
# Poissons Ratio (x) = 0.08532 0.03035
# Poissons Ratio (y) = 0.06799 -0.05256
# Poissons Ratio (z) = 0.05367 -0.11662
#
# Static dielectric constant tensor:
#      x y z
#    x 1.783730 0.000000 0.000000 
#    y 0.000000 1.729560 0.000000 
#    z 0.000000 0.000000 1.803000 
# 
# From -- ./inp_files/34799.got.cif
#   From: 2010.05.17/outbox.cif.g08.bks.cpg/sg42_18_cif.got.tgz:34799.got - 2010.06.03 19:03:34.
