data_PCOD9368079
_publ_section_title
;
Structure prediction by ZEFSAII (Michael W. Deem and Ramdas Pophale) SiO2 
 PCOD9368079
Probable space group: A B A 2
;
_chemical_formula_sum "Si O2"
_cell_formula_units_Z 28
_cell_length_a 15.000000
_cell_length_b 15.000000
_cell_length_c 12.000000
_cell_angle_alpha 90.000000
_cell_angle_beta 90.000000
_cell_angle_gamma 90.000000
_cell_volume 2700.000000
_symmetry_space_group_name_H-M "A B A 2"
_symmetry_group_IT_number 41
_symmetry_cell_setting 'orthorhombic'
loop_
_space_group_symop_operation_xyz
x,y,z
-x,-y,z
1/2-x,y,1/2+z
1/2+x,-y,1/2+z
x,1/2+y,1/2+z
-x,1/2-y,1/2+z
1/2-x,1/2+y,z
1/2+x,1/2-y,z
loop_
_atom_site_type_symbol
_atom_site_label
_atom_site_fract_x
_atom_site_fract_y
_atom_site_fract_z
Si Si1 0.574931 0.929550 0.729010
Si Si2 0.631885 0.295864 0.907837
Si Si3 0.963832 0.098117 0.825694
Si Si4 0.843165 0.052290 0.042282
Si Si5 0.608124 0.738879 0.663570
Si Si6 0.260690 0.529741 0.372975
Si Si7 0.283077 0.343400 0.245806
O O1 0.555409 0.826389 0.706242
O O2 0.647719 0.932874 0.826160
O O3 0.500000 0.000000 0.761865
O O4 0.611478 0.972491 0.612631
O O5 0.536856 0.336177 0.876921
O O6 0.695641 0.383125 0.882217
O O7 0.657096 0.210070 0.833186
O O8 0.627752 0.259126 0.034269
O O9 0.935705 0.148429 0.711576
O O10 0.897147 0.080366 0.931426
O O11 0.000000 0.000000 0.798534
O O12 0.830689 0.131536 0.129742
O O13 0.749823 0.015102 0.994271
O O14 0.704195 0.725890 0.721130
O O15 0.249891 0.441206 0.291429
#
# Coordination Sequence:
#
# PCOD9368079 Si02
#       7
#     8   8   8   8   8   8   8
#     4  11  24  41  72 107 141 184 246 303 358 433
#     4  12  25  44  71 106 140 190 242 297 358 440
#     4  12  25  45  73 101 145 188 238 295 373 424
#     4  11  22  45  73  99 141 194 232 295 371 436
#     4  12  24  43  74 106 140 191 244 292 362 434
#     4  11  22  45  70  99 142 189 228 294 363 437
#     4  11  25  42  70 103 139 181 246 294 357 429
#
# _framework density 10.370369999999999
#
# number of rings (size 3 to 8) (size 9 to 14) (size 15 to 20)
#    0.000    0.571    5.714    2.143    6.000    0.000 
#    0.000    0.000    9.429    0.000    0.000    0.000 
#    0.000    0.000    0.000    0.000    0.000    0.000 
#
# Total GULP energy -155988.585426 kJ/mol
# GULP energy per Si atom -5571.020908 kJ/mol
# Density = 1.034677 g / cm^3
# Si number density = 10.370370 Si / 1000 Ang^3
#
#
#
# Elastic Constant Matrix: (Units=GPa)
#
#
# Indices 1 2 3 4 5 6 
#
# 1 52.5634 26.3692 49.4636 0.0000 0.0000 0.0000
# 2 26.3692 144.5846 64.6977 0.0000 0.0000 0.0000
# 3 49.4636 64.6977 107.1880 0.0000 0.0000 0.0000
# 4 0.0000 0.0000 0.0000 44.9825 0.0000 0.0000
# 5 0.0000 0.0000 0.0000 0.0000 15.7986 0.0000
# 6 0.0000 0.0000 0.0000 0.0000 0.0000 26.4393
#
#
#
# Elastic Compliance Matrix: (Units=1/GPa)
#
#
# Indices 1 2 3 4 5 6 
#
# 1 0.033758 0.001115 -0.016251 0.000000 0.000000 0.000000
# 2 0.001115 0.009512 -0.006256 0.000000 0.000000 0.000000
# 3 -0.016251 -0.006256 0.020605 0.000000 0.000000 0.000000
# 4 0.000000 0.000000 0.000000 0.022231 0.000000 0.000000
# 5 0.000000 0.000000 0.000000 0.000000 0.063297 0.000000
# 6 0.000000 0.000000 0.000000 0.000000 0.000000 0.037822
#
#
# Mechanical properties :
#
#
# Convention : Reuss Voigt Hill
#
# Bulk Modulus (GPa) = 47.41377 65.04408 56.22893
# Shear Modulus (GPa) = 21.09337 28.36445 24.72891
#
# Velocity S-wave (km/s) = 3.19251 3.70208 3.45670
# Velocity P-wave (km/s) = 6.04146 7.05000 6.56513
#
# Compressibility (1/GPa) = 0.02109092
#
# Stress axis : x y z
#
# Youngs Moduli (GPa) = 29.62236 105.12486 48.53147
#
# Poissons Ratio (x) = -0.11725 0.78871
# Poissons Ratio (y) = -0.03304 0.30363
# Poissons Ratio (z) = 0.48141 0.65770
#
# Static dielectric constant tensor:
#      x y z
#    x 1.860520 0.000000 0.000000 
#    y 0.000000 1.735880 0.000000 
#    z 0.000000 0.000000 1.717060 
# 
# From -- ./inp_files/5608.got.cif
#   From: 2010.05.17/outbox.ucp.g08.bks.cvg/sg41_3_cif.got.tgz:5608.got - 2010.06.11 16:28:22.
