data_PCOD9368719
_publ_section_title
;
Structure prediction by ZEFSAII (Michael W. Deem and Ramdas Pophale) SiO2 
 PCOD9368719
Probable space group: F M M 2
;
_chemical_formula_sum "Si O2"
_cell_formula_units_Z 88
_cell_length_a 16.938174
_cell_length_b 28.831748
_cell_length_c 7.661995
_cell_angle_alpha 90.000000
_cell_angle_beta 90.000000
_cell_angle_gamma 90.000000
_cell_volume 3741.790151
_symmetry_space_group_name_H-M "F M M 2"
_symmetry_group_IT_number 42
_symmetry_cell_setting 'orthorhombic'
loop_
_space_group_symop_operation_xyz
x,y,z
-x,-y,z
-x,y,z
x,-y,z
x,1/2+y,1/2+z
-x,1/2-y,1/2+z
-x,1/2+y,1/2+z
x,1/2-y,1/2+z
1/2+x,y,1/2+z
1/2-x,-y,1/2+z
1/2-x,y,1/2+z
1/2+x,-y,1/2+z
1/2+x,1/2+y,z
1/2-x,1/2-y,z
1/2-x,1/2+y,z
1/2+x,1/2-y,z
loop_
_atom_site_type_symbol
_atom_site_label
_atom_site_fract_x
_atom_site_fract_y
_atom_site_fract_z
Si Si1 0.250000 0.750000 0.692611
Si Si2 0.500000 0.732560 0.165580
Si Si3 0.637519 0.500000 0.457836
Si Si4 0.679641 0.101030 0.536934
Si Si5 0.363254 0.397801 0.448776
Si Si6 0.681635 0.500000 0.050039
Si Si7 0.148376 0.697312 0.451240
Si Si8 0.000000 0.673755 0.020216
O O1 0.222643 0.706280 0.580862
O O2 0.175210 0.768608 0.798682
O O3 0.500000 0.705984 0.347959
O O4 0.574335 0.715570 0.054654
O O5 0.500000 0.788611 0.175136
O O6 0.602319 0.550794 0.491265
O O7 0.654231 0.500000 0.249814
O O8 0.723398 0.500000 0.548412
O O9 0.649809 0.106253 0.737360
O O10 0.774861 0.104253 0.527102
O O11 0.644677 0.142720 0.422825
O O12 0.657058 0.049412 0.471497
O O13 0.422558 0.358172 0.511112
#
# Coordination Sequence:
#
# PCOD9368719 Si02
#       8
#     8   8   8  16  16   8  16   8
#     4  10  24  36  60  86 108 148 202 244 282 340
#     4  12  26  42  58  80 122 160 194 248 296 344
#     4   8  16  33  60  90 116 149 182 238 288 351
#     4  10  19  36  61  89 116 154 190 244 282 354
#     4  10  21  39  63  90 121 150 195 237 296 347
#     4   8  16  30  54  88 120 142 186 232 298 334
#     4  11  22  39  58  83 114 152 195 241 290 342
#     4  12  26  45  56  86 120 161 194 246 294 354
#
# _framework density 23.518155
#
# number of rings (size 3 to 8) (size 9 to 14) (size 15 to 20)
#    0.000    1.818    1.818    2.182    5.091    0.364 
#    3.273    0.000    0.000    0.545    0.000    0.000 
#    0.000   23.273    0.000    0.000    0.000    0.000 
#
# Total GULP energy -122971.479878 kJ/mol
# GULP energy per Si atom -5589.612722 kJ/mol
# Density = 2.346463 g / cm^3
# Si number density = 23.518155 Si / 1000 Ang^3
#
#
#
# Elastic Constant Matrix: (Units=GPa)
#
#
# Indices 1 2 3 4 5 6 
#
# 1 52.7779 35.9781 8.4036 0.0000 -0.0003 0.0000
# 2 35.9781 235.9597 27.6248 0.0000 0.0000 0.0000
# 3 8.4036 27.6248 52.0684 0.0000 -0.0008 0.0000
# 4 0.0000 0.0000 0.0000 18.6498 0.0000 0.0000
# 5 -0.0003 0.0000 -0.0008 0.0000 24.4790 0.0000
# 6 0.0000 0.0000 0.0000 0.0000 0.0000 33.2721
#
#
#
# Elastic Compliance Matrix: (Units=1/GPa)
#
#
# Indices 1 2 3 4 5 6 
#
# 1 0.021307 -0.003035 -0.001829 0.000000 0.000000 0.000000
# 2 -0.003035 0.004951 -0.002137 0.000000 0.000000 0.000000
# 3 -0.001829 -0.002137 0.020634 0.000000 0.000001 0.000000
# 4 0.000000 0.000000 0.000000 0.053620 0.000000 0.000000
# 5 0.000000 0.000000 0.000001 0.000000 0.040851 0.000000
# 6 0.000000 0.000000 0.000000 0.000000 0.000000 0.030055
#
#
# Mechanical properties :
#
#
# Convention : Reuss Voigt Hill
#
# Bulk Modulus (GPa) = 30.40286 53.86879 42.13583
# Shear Modulus (GPa) = 25.46036 33.20015 29.33026
#
# Velocity S-wave (km/s) = 3.29383 3.76131 3.53531
# Velocity P-wave (km/s) = 5.23653 6.46670 5.88385
#
# Compressibility (1/GPa) = 0.03289164
#
# Stress axis : x y z
#
# Youngs Moduli (GPa) = 46.93240 201.98302 48.46279
#
# Poissons Ratio (x) = 0.61296 0.08863
# Poissons Ratio (y) = 0.14243 0.10356
# Poissons Ratio (z) = 0.08583 0.43162
#
# Static dielectric constant tensor:
#      x y z
#    x 1.850020 0.000000 0.000000 
#    y 0.000000 1.942320 0.000000 
#    z 0.000000 0.000000 1.917420 
# 
# From -- ./inp_files/3669.got.cif
#   From: 2010.05.17/outbox.cif.g08.bks.cpg/sg42_2_cif.got.tgz:3669.got - 2010.06.03 19:03:34.
