data_PCOD9368325
_publ_section_title
;
Structure prediction by ZEFSAII (Michael W. Deem and Ramdas Pophale) SiO2 
 PCOD9368325
Probable space group: F M M 2
;
_chemical_formula_sum "Si O2"
_cell_formula_units_Z 112
_cell_length_a 19.757137
_cell_length_b 23.207987
_cell_length_c 13.173193
_cell_angle_alpha 90.000000
_cell_angle_beta 90.000000
_cell_angle_gamma 90.000000
_cell_volume 6040.216962
_symmetry_space_group_name_H-M "F M M 2"
_symmetry_group_IT_number 42
_symmetry_cell_setting 'orthorhombic'
loop_
_space_group_symop_operation_xyz
x,y,z
-x,-y,z
-x,y,z
x,-y,z
x,1/2+y,1/2+z
-x,1/2-y,1/2+z
-x,1/2+y,1/2+z
x,1/2-y,1/2+z
1/2+x,y,1/2+z
1/2-x,-y,1/2+z
1/2-x,y,1/2+z
1/2+x,-y,1/2+z
1/2+x,1/2+y,z
1/2-x,1/2-y,z
1/2-x,1/2+y,z
1/2+x,1/2-y,z
loop_
_atom_site_type_symbol
_atom_site_label
_atom_site_fract_x
_atom_site_fract_y
_atom_site_fract_z
Si Si1 0.157612 0.567853 0.925390
Si Si2 0.424437 0.822982 0.634453
Si Si3 0.422649 0.174393 0.872910
Si Si4 0.292285 0.567238 0.651147
Si Si5 0.825337 0.733986 0.476237
Si Si6 0.696568 0.616717 0.862266
Si Si7 0.142520 0.433019 0.565173
O O1 0.153408 0.500000 0.899885
O O2 0.096591 0.607637 0.889386
O O3 0.226262 0.595004 0.878599
O O4 0.166081 0.573143 0.047141
O O5 0.500000 0.806187 0.602184
O O6 0.417328 0.812523 0.753547
O O7 0.368320 0.790877 0.568982
O O8 0.412247 0.890371 0.611218
O O9 0.500000 0.185902 0.905272
O O10 0.367592 0.213144 0.930651
O O11 0.293618 0.500000 0.681865
O O12 0.318407 0.604233 0.745119
O O13 0.214680 0.580814 0.619508
O O14 0.750000 0.750000 0.509684
O O15 0.814965 0.682714 0.394193
O O16 0.653977 0.580714 0.945806
O O17 0.128407 0.500000 0.579660
#
# Coordination Sequence:
#
# PCOD9368325 Si02
#       7
#    16  16  16  16  16  16  16
#     4  10  20  35  56  87 120 152 191 235 292 351
#     4  10  23  40  58  82 116 156 193 238 293 354
#     4  11  24  42  60  84 119 156 195 241 296 352
#     4   9  17  30  54  86 120 154 187 235 292 347
#     4  11  23  40  60  87 113 152 200 248 294 341
#     4  10  18  33  55  84 118 149 192 238 294 339
#     4   9  18  31  52  83 117 151 188 236 285 341
#
# _framework density 18.542380999999999
#
# number of rings (size 3 to 8) (size 9 to 14) (size 15 to 20)
#    0.000    2.000    1.429    3.429    0.000    4.000 
#    0.000    1.429    0.000    3.429    0.000    4.000 
#    0.000    0.000    0.000    0.000    0.000    0.000 
#
# Total GULP energy -156300.200675 kJ/mol
# GULP energy per Si atom -5582.150024 kJ/mol
# Density = 1.850018 g / cm^3
# Si number density = 18.542381 Si / 1000 Ang^3
#
#
#
# Elastic Constant Matrix: (Units=GPa)
#
#
# Indices 1 2 3 4 5 6 
#
# 1 109.7691 43.9829 27.6607 0.0000 0.0000 0.0000
# 2 43.9829 84.3433 16.7920 0.0000 0.0000 0.0000
# 3 27.6607 16.7920 45.0489 0.0000 0.0000 0.0000
# 4 0.0000 0.0000 0.0000 14.4413 0.0000 0.0000
# 5 0.0000 0.0000 0.0000 0.0000 13.8984 0.0000
# 6 0.0000 0.0000 0.0000 0.0000 0.0000 12.5482
#
#
#
# Elastic Compliance Matrix: (Units=1/GPa)
#
#
# Indices 1 2 3 4 5 6 
#
# 1 0.012777 -0.005510 -0.005792 0.000000 0.000000 0.000000
# 2 -0.005510 0.015183 -0.002276 0.000000 0.000000 0.000000
# 3 -0.005792 -0.002276 0.026603 0.000000 0.000000 0.000000
# 4 0.000000 0.000000 0.000000 0.069246 0.000000 0.000000
# 5 0.000000 0.000000 0.000000 0.000000 0.071951 0.000000
# 6 0.000000 0.000000 0.000000 0.000000 0.000000 0.079693
#
#
# Mechanical properties :
#
#
# Convention : Reuss Voigt Hill
#
# Bulk Modulus (GPa) = 36.48671 46.22583 41.35627
# Shear Modulus (GPa) = 16.03885 18.22596 17.13240
#
# Velocity S-wave (km/s) = 2.94425 3.13858 3.04297
# Velocity P-wave (km/s) = 5.59270 6.17399 5.89052
#
# Compressibility (1/GPa) = 0.02740724
#
# Stress axis : x y z
#
# Youngs Moduli (GPa) = 78.26444 65.86415 37.59020
#
# Poissons Ratio (x) = 0.36291 0.21771
# Poissons Ratio (y) = 0.43123 0.08556
# Poissons Ratio (z) = 0.45327 0.14992
#
# Static dielectric constant tensor:
#      x y z
#    x 1.628380 0.000000 0.000000 
#    y 0.000000 1.649280 0.000000 
#    z 0.000000 0.000000 1.636820 
# 
# From -- ./inp_files/9665.got.cif
#   From: 2010.05.17/outbox.cif.g08.bks.cpg/sg42_5_cif.got.tgz:9665.got - 2010.06.03 19:03:34.
