data_PCOD9368772
_publ_section_title
;
Structure prediction by ZEFSAII (Michael W. Deem and Ramdas Pophale) SiO2 
 PCOD9368772
Probable space group: F M M 2
;
_chemical_formula_sum "Si O2"
_cell_formula_units_Z 112
_cell_length_a 24.126451
_cell_length_b 23.259000
_cell_length_c 11.932483
_cell_angle_alpha 90.000000
_cell_angle_beta 90.000000
_cell_angle_gamma 90.000000
_cell_volume 6695.997840
_symmetry_space_group_name_H-M "F M M 2"
_symmetry_group_IT_number 42
_symmetry_cell_setting 'orthorhombic'
loop_
_space_group_symop_operation_xyz
x,y,z
-x,-y,z
-x,y,z
x,-y,z
x,1/2+y,1/2+z
-x,1/2-y,1/2+z
-x,1/2+y,1/2+z
x,1/2-y,1/2+z
1/2+x,y,1/2+z
1/2-x,-y,1/2+z
1/2-x,y,1/2+z
1/2+x,-y,1/2+z
1/2+x,1/2+y,z
1/2-x,1/2-y,z
1/2-x,1/2+y,z
1/2+x,1/2-y,z
loop_
_atom_site_type_symbol
_atom_site_label
_atom_site_fract_x
_atom_site_fract_y
_atom_site_fract_z
Si Si1 0.689282 0.764408 0.378430
Si Si2 0.935920 0.064335 0.352051
Si Si3 0.667692 0.635606 0.716076
Si Si4 0.276556 0.845437 0.580643
Si Si5 0.339602 0.855747 0.812144
Si Si6 0.761144 0.932063 0.894730
Si Si7 0.563961 0.433084 0.622302
O O1 0.750000 0.750000 0.327189
O O2 0.659592 0.809968 0.297935
O O3 0.704705 0.795737 0.494662
O O4 0.658676 0.703714 0.380720
O O5 0.897750 0.113164 0.302239
O O6 0.932922 0.068622 0.487136
O O7 0.000000 0.069845 0.320105
O O8 0.916686 0.000000 0.320919
O O9 0.712686 0.654841 0.622483
O O10 0.699267 0.588270 0.793214
O O11 0.611338 0.608349 0.670098
O O12 0.313890 0.843381 0.690652
O O13 0.283382 0.904228 0.509719
O O14 0.296982 0.899765 0.871539
O O15 0.755207 0.000000 0.899994
O O16 0.500000 0.418704 0.653470
O O17 0.573929 0.500000 0.655161
#
# Coordination Sequence:
#
# PCOD9368772 Si02
#       7
#    16  16  16  16  16  16  16
#     4  11  21  35  50  76 107 140 172 212 257 320
#     4   9  19  36  55  78 106 136 177 222 262 308
#     4  10  20  33  51  75 104 140 174 215 264 311
#     4  10  21  32  50  75 107 136 173 211 264 327
#     4  11  21  33  54  76 103 139 175 214 265 315
#     4  10  20  31  46  75 109 133 166 214 264 320
#     4   9  18  33  55  80 104 136 178 222 267 311
#
# _framework density 16.726407999999999
#
# number of rings (size 3 to 8) (size 9 to 14) (size 15 to 20)
#    0.000    2.000    4.286    2.571    2.000    4.571 
#    0.000    0.714    0.000    4.286    0.000    8.000 
#    0.000    0.000    0.000    0.000    0.000    0.000 
#
# Total GULP energy -156138.603640 kJ/mol
# GULP energy per Si atom -5576.378701 kJ/mol
# Density = 1.668834 g / cm^3
# Si number density = 16.726408 Si / 1000 Ang^3
#
#
#
# Elastic Constant Matrix: (Units=GPa)
#
#
# Indices 1 2 3 4 5 6 
#
# 1 89.7325 53.3262 29.8861 0.0000 0.0000 0.0000
# 2 53.3262 150.0968 46.6018 0.0000 0.0000 0.0000
# 3 29.8861 46.6018 72.3653 0.0000 0.0000 0.0000
# 4 0.0000 0.0000 0.0000 13.4723 0.0000 0.0000
# 5 0.0000 0.0000 0.0000 0.0000 16.5646 0.0000
# 6 0.0000 0.0000 0.0000 0.0000 0.0000 28.2343
#
#
#
# Elastic Compliance Matrix: (Units=1/GPa)
#
#
# Indices 1 2 3 4 5 6 
#
# 1 0.014767 -0.004191 -0.003400 0.000000 0.000000 0.000000
# 2 -0.004191 0.009517 -0.004398 0.000000 0.000000 0.000000
# 3 -0.003400 -0.004398 0.018055 0.000000 0.000000 0.000000
# 4 0.000000 0.000000 0.000000 0.074227 0.000000 0.000000
# 5 0.000000 0.000000 0.000000 0.000000 0.060370 0.000000
# 6 0.000000 0.000000 0.000000 0.000000 0.000000 0.035418
#
#
# Mechanical properties :
#
#
# Convention : Reuss Voigt Hill
#
# Bulk Modulus (GPa) = 54.46081 63.53585 58.99833
# Shear Modulus (GPa) = 20.62276 23.81293 22.21785
#
# Velocity S-wave (km/s) = 3.51514 3.77725 3.64855
# Velocity P-wave (km/s) = 7.00753 7.55588 7.28686
#
# Compressibility (1/GPa) = 0.01836183
#
# Stress axis : x y z
#
# Youngs Moduli (GPa) = 67.71799 105.07826 55.38645
#
# Poissons Ratio (x) = 0.44037 0.18830
# Poissons Ratio (y) = 0.28380 0.24358
# Poissons Ratio (z) = 0.23023 0.46211
#
# Static dielectric constant tensor:
#      x y z
#    x 1.552170 0.000000 0.000000 
#    y 0.000000 1.586680 0.000000 
#    z 0.000000 0.000000 1.579340 
# 
# From -- ./inp_files/9656.got.cif
#   From: 2010.05.17/outbox.cif.g08.bks.cpg/sg42_5_cif.got.tgz:9656.got - 2010.06.03 19:03:34.
