data_PCOD9368161
_publ_section_title
;
Structure prediction by ZEFSAII (Michael W. Deem and Ramdas Pophale) SiO2 
 PCOD9368161
Probable space group: F M M 2
;
_chemical_formula_sum "Si O2"
_cell_formula_units_Z 128
_cell_length_a 21.054849
_cell_length_b 18.571575
_cell_length_c 19.565668
_cell_angle_alpha 90.000000
_cell_angle_beta 90.000000
_cell_angle_gamma 90.000000
_cell_volume 7650.600906
_symmetry_space_group_name_H-M "F M M 2"
_symmetry_group_IT_number 42
_symmetry_cell_setting 'orthorhombic'
loop_
_space_group_symop_operation_xyz
x,y,z
-x,-y,z
-x,y,z
x,-y,z
x,1/2+y,1/2+z
-x,1/2-y,1/2+z
-x,1/2+y,1/2+z
x,1/2-y,1/2+z
1/2+x,y,1/2+z
1/2-x,-y,1/2+z
1/2-x,y,1/2+z
1/2+x,-y,1/2+z
1/2+x,1/2+y,z
1/2-x,1/2-y,z
1/2-x,1/2+y,z
1/2+x,1/2-y,z
loop_
_atom_site_type_symbol
_atom_site_label
_atom_site_fract_x
_atom_site_fract_y
_atom_site_fract_z
Si Si1 0.344653 0.417214 0.403970
Si Si2 0.073256 0.080122 0.911332
Si Si3 0.759042 0.418882 0.042232
Si Si4 0.427423 0.179187 0.990828
Si Si5 0.111920 0.584683 0.116159
Si Si6 0.165590 0.813169 0.978320
Si Si7 0.127463 0.586095 0.267787
Si Si8 0.739602 0.672164 0.833692
O O1 0.356728 0.500000 0.383803
O O2 0.299636 0.420078 0.471631
O O3 0.406394 0.373862 0.429128
O O4 0.303612 0.371615 0.350074
O O5 0.110253 0.131221 0.961176
O O6 0.082160 0.101714 0.832169
O O7 0.000000 0.078632 0.927886
O O8 0.101276 0.000000 0.916786
O O9 0.730616 0.500000 0.049104
O O10 0.710926 0.352120 0.033630
O O11 0.812503 0.409483 0.100070
O O12 0.500000 0.206101 0.981938
O O13 0.371130 0.239184 0.993928
O O14 0.422889 0.132759 0.060154
O O15 0.095238 0.500000 0.107302
O O16 0.101015 0.607549 0.194080
O O17 0.205127 0.810716 0.906995
O O18 0.136974 0.500000 0.263954
O O19 0.192678 0.624285 0.288639
O O20 0.750000 0.750000 0.801173
#
# Coordination Sequence:
#
# PCOD9368161 Si02
#       8
#    16  16  16  16  16  16  16  16
#     4   9  17  29  46  69  94 123 156 190 230 280
#     4   9  17  29  47  70  94 124 158 190 230 281
#     4   8  15  28  48  68  90 120 152 192 243 286
#     4  11  21  31  45  67  97 134 163 192 231 270
#     4   9  19  34  48  68  95 123 159 197 230 276
#     4  10  18  29  46  67  97 122 153 194 241 280
#     4   9  18  32  49  70  96 123 153 191 232 278
#     4  10  17  30  49  72  95 120 148 190 241 286
#
# _framework density 16.730712
#
# number of rings (size 3 to 8) (size 9 to 14) (size 15 to 20)
#    0.000    2.625    1.250    2.250    0.000    4.500 
#    2.250    1.250    0.000    0.000    0.000    0.000 
#    0.000    0.000    0.000    0.000    0.000    0.000 
#
# Total GULP energy -178167.813324 kJ/mol
# GULP energy per Si atom -5567.744166 kJ/mol
# Density = 1.669263 g / cm^3
# Si number density = 16.730712 Si / 1000 Ang^3
#
#
#
# Elastic Constant Matrix: (Units=GPa)
#
#
# Indices 1 2 3 4 5 6 
#
# 1 49.2961 18.2966 -5.3741 0.0000 0.0000 0.0000
# 2 18.2966 52.7909 -1.2629 0.0000 0.0000 0.0000
# 3 -5.3741 -1.2629 13.8476 0.0000 0.0000 0.0000
# 4 0.0000 0.0000 0.0000 12.2134 0.0000 0.0000
# 5 0.0000 0.0000 0.0000 0.0000 2.9288 0.0000
# 6 0.0000 0.0000 0.0000 0.0000 0.0000 19.7530
#
#
#
# Elastic Compliance Matrix: (Units=1/GPa)
#
#
# Indices 1 2 3 4 5 6 
#
# 1 0.024277 -0.008207 0.008673 0.000000 0.000000 0.000000
# 2 -0.008207 0.021758 -0.001201 0.000000 0.000000 0.000000
# 3 0.008673 -0.001201 0.075471 0.000000 0.000000 0.000000
# 4 0.000000 0.000000 0.000000 0.081877 0.000000 0.000000
# 5 0.000000 0.000000 0.000000 0.000000 0.341442 0.000000
# 6 0.000000 0.000000 0.000000 0.000000 0.000000 0.050625
#
#
# Mechanical properties :
#
#
# Convention : Reuss Voigt Hill
#
# Bulk Modulus (GPa) = 8.33068 15.47267 11.90167
# Shear Modulus (GPa) = 7.85014 13.93070 10.89042
#
# Velocity S-wave (km/s) = 2.16846 2.88868 2.55409
# Velocity P-wave (km/s) = 3.35555 4.51599 3.97831
#
# Compressibility (1/GPa) = 0.12003820
#
# Stress axis : x y z
#
# Youngs Moduli (GPa) = 41.19116 45.95957 13.25013
#
# Poissons Ratio (x) = 0.37717 -0.11492
# Poissons Ratio (y) = 0.33804 0.01591
# Poissons Ratio (z) = -0.35726 0.05518
#
# Static dielectric constant tensor:
#      x y z
#    x 1.582020 0.000000 0.000000 
#    y 0.000000 1.622280 0.000000 
#    z 0.000000 0.000000 1.552710 
# 
# From -- ./inp_files/26600.got.cif
#   From: 2010.05.17/outbox.cif.g08.bks.cpg/sg42_14_cif.got.tgz:26600.got - 2010.06.03 19:03:34.
