data_PCOD9368753
_publ_section_title
;
Structure prediction by ZEFSAII (Michael W. Deem and Ramdas Pophale) SiO2 
 PCOD9368753
Probable space group: F M M 2
;
_chemical_formula_sum "Si O2"
_cell_formula_units_Z 100
_cell_length_a 19.767858
_cell_length_b 31.823617
_cell_length_c 7.869989
_cell_angle_alpha 90.000000
_cell_angle_beta 90.000000
_cell_angle_gamma 90.000000
_cell_volume 4950.889999
_symmetry_space_group_name_H-M "F M M 2"
_symmetry_group_IT_number 42
_symmetry_cell_setting 'orthorhombic'
loop_
_space_group_symop_operation_xyz
x,y,z
-x,-y,z
-x,y,z
x,-y,z
x,1/2+y,1/2+z
-x,1/2-y,1/2+z
-x,1/2+y,1/2+z
x,1/2-y,1/2+z
1/2+x,y,1/2+z
1/2-x,-y,1/2+z
1/2-x,y,1/2+z
1/2+x,-y,1/2+z
1/2+x,1/2+y,z
1/2-x,1/2-y,z
1/2-x,1/2+y,z
1/2+x,1/2-y,z
loop_
_atom_site_type_symbol
_atom_site_label
_atom_site_fract_x
_atom_site_fract_y
_atom_site_fract_z
Si Si1 0.662993 0.128790 0.084180
Si Si2 0.682599 0.871071 0.681074
Si Si3 0.500000 0.000000 0.747456
Si Si4 0.922184 0.047941 0.691770
Si Si5 0.923350 0.207399 0.554576
Si Si6 0.577886 0.699066 0.146741
Si Si7 0.617478 0.456014 0.078986
O O1 0.738155 0.134998 0.154143
O O2 0.627095 0.085269 0.136944
O O3 0.619041 0.169560 0.133401
O O4 0.668455 0.128199 0.881001
O O5 0.632720 0.836193 0.600607
O O6 0.662150 0.915968 0.607137
O O7 0.440060 0.036047 0.720449
O O8 0.000000 0.055276 0.636394
O O9 0.904737 0.000000 0.634049
O O10 0.919553 0.046941 0.897098
O O11 0.899387 0.254787 0.587145
O O12 0.924757 0.200770 0.351809
O O13 0.000000 0.205612 0.621037
O O14 0.500000 0.691078 0.087749
O O15 0.658132 0.500000 0.074510
#
# Coordination Sequence:
#
# PCOD9368753 Si02
#       7
#    16  16   4  16  16  16  16
#     4  11  24  39  56  80 119 151 191 231 280 332
#     4  11  24  39  55  84 113 155 190 232 278 333
#     4   8  16  36  60  86 112 144 178 242 272 340
#     4  10  19  38  61  88 112 146 186 233 281 334
#     4   9  19  39  58  85 109 141 181 231 282 331
#     4   9  20  36  61  83 111 139 183 232 278 333
#     4   9  18  36  60  84 114 142 187 227 280 333
#
# _framework density 20.198388999999999
#
# number of rings (size 3 to 8) (size 9 to 14) (size 15 to 20)
#    0.480    1.760    0.800    1.440    1.120    5.120 
#    0.000    4.800    0.000    0.000    0.000    0.000 
#    0.000    0.000    0.000    0.000    0.000    0.000 
#
# Total GULP energy -139185.781658 kJ/mol
# GULP energy per Si atom -5567.431266 kJ/mol
# Density = 2.015242 g / cm^3
# Si number density = 20.198389 Si / 1000 Ang^3
#
#
#
# Elastic Constant Matrix: (Units=GPa)
#
#
# Indices 1 2 3 4 5 6 
#
# 1 93.7324 95.9343 3.5515 -0.0004 0.0011 0.0010
# 2 95.9343 184.1724 13.4216 -0.0001 0.0002 0.0001
# 3 3.5515 13.4216 26.1054 -0.0011 0.0007 0.0017
# 4 -0.0004 -0.0001 -0.0011 20.7501 0.0001 0.0005
# 5 0.0011 0.0002 0.0007 0.0001 29.0740 -0.0016
# 6 0.0010 0.0001 0.0017 0.0005 -0.0016 -2.6112
#
#
#
# Elastic Compliance Matrix: (Units=1/GPa)
#
#
# Indices 1 2 3 4 5 6 
#
# 1 0.023100 -0.012263 0.003162 0.000001 -0.000001 0.000010
# 2 -0.012263 0.012151 -0.004579 0.000000 0.000000 -0.000007
# 3 0.003162 -0.004579 0.040230 0.000002 -0.000001 0.000027
# 4 0.000001 0.000000 0.000002 0.048192 0.000000 0.000010
# 5 -0.000001 0.000000 -0.000001 0.000000 0.034395 -0.000021
# 6 0.000010 -0.000007 0.000027 0.000010 -0.000021 -0.382971
#
#
# Mechanical properties :
#
#
# Convention : Reuss Voigt Hill
#
# Bulk Modulus (GPa) = 20.78066 58.86945 39.82505
# Shear Modulus (GPa) = -27.54791 22.18277 -2.68257
#
# Velocity S-wave (km/s) = -3.69706 3.31757 -1.15369
# Velocity P-wave (km/s) = 2.81314 6.62450 4.24088
#
# Compressibility (1/GPa) = 0.04812167
#
# Stress axis : x y z
#
# Youngs Moduli (GPa) = 43.28994 82.29655 24.85695
#
# Poissons Ratio (x) = 1.00921 -0.07860
# Poissons Ratio (y) = 0.53087 0.11382
# Poissons Ratio (z) = -0.13689 0.37683
#
# Static dielectric constant tensor:
#      x y z
#    x 1.686920 0.000000 0.000000 
#    y 0.000000 1.716390 0.000000 
#    z 0.000000 0.000000 1.775690 
# 
# From -- ./inp_files/4347.got.cif
#   From: 2010.05.17/outbox.cif.g08.bks.cpg/sg42_3_cif.got.tgz:4347.got - 2010.06.03 19:03:34.
