data_PCOD9368700
_publ_section_title
;
Structure prediction by ZEFSAII (Michael W. Deem and Ramdas Pophale) SiO2 
 PCOD9368700
Probable space group: F M M 2
;
_chemical_formula_sum "Si O2"
_cell_formula_units_Z 64
_cell_length_a 8.586523
_cell_length_b 14.488544
_cell_length_c 29.077771
_cell_angle_alpha 90.000000
_cell_angle_beta 90.000000
_cell_angle_gamma 90.000000
_cell_volume 3617.455468
_symmetry_space_group_name_H-M "F M M 2"
_symmetry_group_IT_number 42
_symmetry_cell_setting 'orthorhombic'
loop_
_space_group_symop_operation_xyz
x,y,z
-x,-y,z
-x,y,z
x,-y,z
x,1/2+y,1/2+z
-x,1/2-y,1/2+z
-x,1/2+y,1/2+z
x,1/2-y,1/2+z
1/2+x,y,1/2+z
1/2-x,-y,1/2+z
1/2-x,y,1/2+z
1/2+x,-y,1/2+z
1/2+x,1/2+y,z
1/2-x,1/2-y,z
1/2-x,1/2+y,z
1/2+x,1/2-y,z
loop_
_atom_site_type_symbol
_atom_site_label
_atom_site_fract_x
_atom_site_fract_y
_atom_site_fract_z
Si Si1 0.687451 0.500000 0.430580
Si Si2 0.686755 0.000000 0.823550
Si Si3 0.188029 0.500000 0.072510
Si Si4 0.186363 0.146441 0.001363
Si Si5 0.310951 0.500000 0.678054
Si Si6 0.686932 0.853033 0.253180
O O1 0.500000 0.500000 0.434570
O O2 0.730750 0.500000 0.377066
O O3 0.753404 0.411125 0.457328
O O4 0.751789 0.911282 0.796563
O O5 0.500000 0.000000 0.820511
O O6 0.250435 0.411149 0.045034
O O7 0.240828 0.500000 0.125456
O O8 0.000000 0.500000 0.070650
O O9 0.250000 0.250000 0.001200
O O10 0.000000 0.146280 0.001875
O O11 0.500000 0.500000 0.677188
O O12 0.263087 0.589110 0.707879
O O13 0.500000 0.852322 0.254489
O O14 0.750000 0.750000 0.252737
#
# Coordination Sequence:
#
# PCOD9368700 Si02
#       6
#     8   8   8  16   8  16
#     4  10  21  38  58  81 108 138 176 222 270 319
#     4  10  21  37  57  81 108 140 178 220 268 319
#     4  10  19  36  58  81 110 140 176 222 270 317
#     4  11  22  37  56  80 109 142 180 219 265 317
#     4   8  18  35  55  79 108 142 178 220 266 315
#     4  10  20  36  56  80 110 143 180 220 265 315
#
# _framework density 17.691994000000001
#
# number of rings (size 3 to 8) (size 9 to 14) (size 15 to 20)
#    0.000    2.000    0.000    6.375    0.000    4.000 
#    0.000   10.000    0.000    0.000    0.000    0.000 
#    0.000    0.000    0.000    0.000    0.000    0.000 
#
# Total GULP energy -89342.329743 kJ/mol
# GULP energy per Si atom -5583.895609 kJ/mol
# Density = 1.765173 g / cm^3
# Si number density = 17.691994 Si / 1000 Ang^3
#
#
#
# Elastic Constant Matrix: (Units=GPa)
#
#
# Indices 1 2 3 4 5 6 
#
# 1 98.1090 58.8476 63.8247 0.0000 0.0000 0.0000
# 2 58.8476 204.0798 111.2560 0.0000 0.0000 0.0000
# 3 63.8247 111.2560 202.2591 0.0000 0.0000 0.0000
# 4 0.0000 0.0000 0.0000 47.6460 0.0000 0.0000
# 5 0.0000 0.0000 0.0000 0.0000 26.5045 0.0000
# 6 0.0000 0.0000 0.0000 0.0000 0.0000 32.6029
#
#
#
# Elastic Compliance Matrix: (Units=1/GPa)
#
#
# Indices 1 2 3 4 5 6 
#
# 1 0.013509 -0.002245 -0.003028 0.000000 0.000000 0.000000
# 2 -0.002245 0.007372 -0.003347 0.000000 0.000000 0.000000
# 3 -0.003028 -0.003347 0.007741 0.000000 0.000000 0.000000
# 4 0.000000 0.000000 0.000000 0.020988 0.000000 0.000000
# 5 0.000000 0.000000 0.000000 0.000000 0.037729 0.000000
# 6 0.000000 0.000000 0.000000 0.000000 0.000000 0.030672
#
#
# Mechanical properties :
#
#
# Convention : Reuss Voigt Hill
#
# Bulk Modulus (GPa) = 87.85394 108.03383 97.94388
# Shear Modulus (GPa) = 35.95977 39.38532 37.67254
#
# Velocity S-wave (km/s) = 4.51327 4.72335 4.61950
# Velocity P-wave (km/s) = 8.77067 9.53640 9.16154
#
# Compressibility (1/GPa) = 0.01138253
#
# Stress axis : x y z
#
# Youngs Moduli (GPa) = 74.02417 135.65333 129.18831
#
# Poissons Ratio (x) = 0.30448 0.39122
# Poissons Ratio (y) = 0.16615 0.43235
# Poissons Ratio (z) = 0.22417 0.45399
#
# Static dielectric constant tensor:
#      x y z
#    x 1.595300 0.000000 0.000000 
#    y 0.000000 1.558820 0.000000 
#    z 0.000000 0.000000 1.594260 
# 
# From -- ./inp_files/33541.got.cif
#   From: 2010.05.17/outbox.cif.g08.bks.cpg/sg42_17_cif.got.tgz:33541.got - 2010.06.03 19:03:34.
