data_PCOD9368806
_publ_section_title
;
Structure prediction by ZEFSAII (Michael W. Deem and Ramdas Pophale) SiO2 
 PCOD9368806
Probable space group: F M M 2
;
_chemical_formula_sum "Si O2"
_cell_formula_units_Z 96
_cell_length_a 31.186503
_cell_length_b 7.660222
_cell_length_c 19.733783
_cell_angle_alpha 90.000000
_cell_angle_beta 90.000000
_cell_angle_gamma 90.000000
_cell_volume 4714.312675
_symmetry_space_group_name_H-M "F M M 2"
_symmetry_group_IT_number 42
_symmetry_cell_setting 'orthorhombic'
loop_
_space_group_symop_operation_xyz
x,y,z
-x,-y,z
-x,y,z
x,-y,z
x,1/2+y,1/2+z
-x,1/2-y,1/2+z
-x,1/2+y,1/2+z
x,1/2-y,1/2+z
1/2+x,y,1/2+z
1/2-x,-y,1/2+z
1/2-x,y,1/2+z
1/2+x,-y,1/2+z
1/2+x,1/2+y,z
1/2-x,1/2-y,z
1/2-x,1/2+y,z
1/2+x,1/2-y,z
loop_
_atom_site_type_symbol
_atom_site_label
_atom_site_fract_x
_atom_site_fract_y
_atom_site_fract_z
Si Si1 0.874124 0.214717 0.013130
Si Si2 0.622324 0.794236 0.666615
Si Si3 0.451113 0.210437 0.765712
Si Si4 0.798987 0.790535 0.914686
Si Si5 0.799144 0.207994 0.761129
Si Si6 0.048381 0.209134 0.919887
O O1 0.873695 0.276050 0.090584
O O2 0.873420 0.000000 0.013272
O O3 0.833268 0.273132 0.969172
O O4 0.916859 0.271808 0.973584
O O5 0.583244 0.721376 0.711735
O O6 0.666048 0.776213 0.708669
O O7 0.613440 0.000000 0.659006
O O8 0.500000 0.273973 0.755399
O O9 0.438032 0.254273 0.842614
O O10 0.452133 0.000000 0.761187
O O11 0.750000 0.750000 0.933149
O O12 0.806614 0.723944 0.837932
O O13 0.803116 0.000000 0.911589
O O14 0.750000 0.250000 0.742895
O O15 0.803670 0.000000 0.762636
O O16 0.000000 0.278575 0.928924
O O17 0.046380 0.000000 0.927023
#
# Coordination Sequence:
#
# PCOD9368806 Si02
#       6
#    16  16  16  16  16  16
#     4   9  18  32  49  72 101 129 159 199 245 290
#     4  10  20  33  50  73 103 136 167 202 247 299
#     4   9  18  32  50  73 101 133 168 207 251 296
#     4   9  18  33  52  71  93 123 159 200 241 283
#     4  10  20  35  55  76  99 128 165 207 249 295
#     4   9  17  31  53  76  96 125 167 210 249 292
#
# _framework density 20.363517999999999
#
# number of rings (size 3 to 8) (size 9 to 14) (size 15 to 20)
#    0.000    2.667    0.000    1.500    0.000    4.000 
#    0.000    7.500    0.000    0.000    0.000    4.667 
#    0.000    0.000    0.000    0.000    0.000    0.000 
#
# Total GULP energy -133962.327005 kJ/mol
# GULP energy per Si atom -5581.763625 kJ/mol
# Density = 2.031717 g / cm^3
# Si number density = 20.363518 Si / 1000 Ang^3
#
#
#
# Elastic Constant Matrix: (Units=GPa)
#
#
# Indices 1 2 3 4 5 6 
#
# 1 140.9148 -5.4958 139.3955 0.0000 0.0000 -0.0001
# 2 -5.4958 35.2392 -0.0163 0.0002 -0.0001 -0.0002
# 3 139.3955 -0.0163 192.1878 0.0000 0.0000 0.0000
# 4 0.0000 0.0002 0.0000 10.6202 0.0000 -0.0001
# 5 0.0000 -0.0001 0.0000 0.0000 10.7781 0.0000
# 6 -0.0001 -0.0002 0.0000 -0.0001 0.0000 15.1083
#
#
#
# Elastic Compliance Matrix: (Units=1/GPa)
#
#
# Indices 1 2 3 4 5 6 
#
# 1 0.025670 0.003995 -0.018618 0.000000 0.000000 0.000000
# 2 0.003995 0.028999 -0.002895 -0.000001 0.000000 0.000000
# 3 -0.018618 -0.002895 0.018707 0.000000 0.000000 0.000000
# 4 0.000000 -0.000001 0.000000 0.094161 0.000000 0.000000
# 5 0.000000 0.000000 0.000000 0.000000 0.092781 0.000000
# 6 0.000000 0.000000 0.000000 0.000000 0.000000 0.066189
#
#
# Mechanical properties :
#
#
# Convention : Reuss Voigt Hill
#
# Bulk Modulus (GPa) = 26.08307 70.67874 48.38090
# Shear Modulus (GPa) = 13.35750 22.93188 18.14469
#
# Velocity S-wave (km/s) = 2.56393 3.35942 2.98827
# Velocity P-wave (km/s) = 4.64775 7.05914 5.97633
#
# Compressibility (1/GPa) = 0.03833905
#
# Stress axis : x y z
#
# Youngs Moduli (GPa) = 38.95656 34.48378 53.45637
#
# Poissons Ratio (x) = -0.13775 0.99525
# Poissons Ratio (y) = -0.15562 0.15476
# Poissons Ratio (z) = 0.72530 0.09983
#
# Static dielectric constant tensor:
#      x y z
#    x 1.704680 0.000000 0.000000 
#    y 0.000000 1.769810 0.000000 
#    z 0.000000 0.000000 1.701460 
# 
# From -- ./inp_files/19215.got.cif
#   From: 2010.05.17/outbox.cif.g08.bks.cpg/sg42_10_cif.got.tgz:19215.got - 2010.06.03 19:03:34.
