data_PCOD9368354
_publ_section_title
;
Structure prediction by ZEFSAII (Michael W. Deem and Ramdas Pophale) SiO2 
 PCOD9368354
Probable space group: F M M 2
;
_chemical_formula_sum "Si O2"
_cell_formula_units_Z 96
_cell_length_a 25.816583
_cell_length_b 8.534242
_cell_length_c 24.355685
_cell_angle_alpha 90.000000
_cell_angle_beta 90.000000
_cell_angle_gamma 90.000000
_cell_volume 5366.165492
_symmetry_space_group_name_H-M "F M M 2"
_symmetry_group_IT_number 42
_symmetry_cell_setting 'orthorhombic'
loop_
_space_group_symop_operation_xyz
x,y,z
-x,-y,z
-x,y,z
x,-y,z
x,1/2+y,1/2+z
-x,1/2-y,1/2+z
-x,1/2+y,1/2+z
x,1/2-y,1/2+z
1/2+x,y,1/2+z
1/2-x,-y,1/2+z
1/2-x,y,1/2+z
1/2+x,-y,1/2+z
1/2+x,1/2+y,z
1/2-x,1/2-y,z
1/2-x,1/2+y,z
1/2+x,1/2-y,z
loop_
_atom_site_type_symbol
_atom_site_label
_atom_site_fract_x
_atom_site_fract_y
_atom_site_fract_z
Si Si1 0.560125 0.190877 0.475520
Si Si2 0.692088 0.313194 0.664700
Si Si3 0.000000 0.190439 0.787872
Si Si4 0.401340 0.688394 0.094388
Si Si5 0.100571 0.689994 0.357392
Si Si6 0.000000 0.688836 0.161313
Si Si7 0.307691 0.186559 0.784953
O O1 0.500000 0.242248 0.475259
O O2 0.587908 0.239362 0.531690
O O3 0.588798 0.239252 0.419825
O O4 0.559023 0.000000 0.475187
O O5 0.692992 0.500000 0.665356
O O6 0.750000 0.250000 0.654634
O O7 0.651339 0.252684 0.620264
O O8 0.676073 0.253673 0.725360
O O9 0.051418 0.239047 0.820331
O O10 0.000000 0.240890 0.724782
O O11 0.000000 0.000000 0.788178
O O12 0.400559 0.500000 0.095835
O O13 0.449319 0.748464 0.130637
O O14 0.103511 0.500000 0.356058
O O15 0.152107 0.758354 0.330772
O O16 0.000000 0.500000 0.159920
O O17 0.250000 0.250000 0.795870
O O18 0.306073 0.000000 0.781401
#
# Coordination Sequence:
#
# PCOD9368354 Si02
#       7
#    16  16   8  16  16   8  16
#     4   9  17  33  58  84 111 151 196 234 281 335
#     4  11  22  39  61  86 114 148 190 235 290 349
#     4   9  18  30  51  79 109 141 180 225 274 332
#     4  11  21  36  57  83 115 152 194 240 286 339
#     4  10  18  34  59  84 111 148 192 234 278 336
#     4  11  21  32  49  81 117 151 188 235 290 344
#     4  11  22  38  59  85 115 149 188 232 287 342
#
# _framework density 17.889869999999998
#
# number of rings (size 3 to 8) (size 9 to 14) (size 15 to 20)
#    0.000    1.667    1.667    5.750    0.000    1.333 
#    0.000    3.750    0.000    0.000    0.000    0.000 
#    0.000    0.000    0.000    0.000    0.000    0.000 
#
# Total GULP energy -134081.806173 kJ/mol
# GULP energy per Si atom -5586.741924 kJ/mol
# Density = 1.784915 g / cm^3
# Si number density = 17.889870 Si / 1000 Ang^3
#
#
#
# Elastic Constant Matrix: (Units=GPa)
#
#
# Indices 1 2 3 4 5 6 
#
# 1 111.7545 38.3337 103.4230 0.0000 0.0000 0.0000
# 2 38.3337 84.9635 49.6706 0.0000 0.0000 0.0000
# 3 103.4230 49.6706 198.7242 0.0000 0.0000 0.0000
# 4 0.0000 0.0000 0.0000 17.3990 0.0000 0.0000
# 5 0.0000 0.0000 0.0000 0.0000 30.5557 0.0000
# 6 0.0000 0.0000 0.0000 0.0000 0.0000 26.9189
#
#
#
# Elastic Compliance Matrix: (Units=1/GPa)
#
#
# Indices 1 2 3 4 5 6 
#
# 1 0.017927 -0.003085 -0.008559 0.000000 0.000000 0.000000
# 2 -0.003085 0.014315 -0.001973 0.000000 0.000000 0.000000
# 3 -0.008559 -0.001973 0.009979 0.000000 0.000000 0.000000
# 4 0.000000 0.000000 0.000000 0.057475 0.000000 0.000000
# 5 0.000000 0.000000 0.000000 0.000000 0.032727 0.000000
# 6 0.000000 0.000000 0.000000 0.000000 0.000000 0.037149
#
#
# Mechanical properties :
#
#
# Convention : Reuss Voigt Hill
#
# Bulk Modulus (GPa) = 66.71552 86.47743 76.59648
# Shear Modulus (GPa) = 24.77699 28.57572 26.67636
#
# Velocity S-wave (km/s) = 3.72556 4.00098 3.86572
# Velocity P-wave (km/s) = 7.47527 8.35389 7.92676
#
# Compressibility (1/GPa) = 0.01498902
#
# Stress axis : x y z
#
# Youngs Moduli (GPa) = 55.78152 69.85843 100.20580
#
# Poissons Ratio (x) = 0.21549 0.85765
# Poissons Ratio (y) = 0.17207 0.19766
# Poissons Ratio (z) = 0.47743 0.13780
#
# Static dielectric constant tensor:
#      x y z
#    x 1.581290 0.000000 0.000000 
#    y 0.000000 1.606720 0.000000 
#    z 0.000000 0.000000 1.602000 
# 
# From -- ./inp_files/28096.got.cif
#   From: 2010.05.17/outbox.cif.g08.bks.cpg/sg42_15_cif.got.tgz:28096.got - 2010.06.03 19:03:34.
