data_PCOD9368300
_publ_section_title
;
Structure prediction by ZEFSAII (Michael W. Deem and Ramdas Pophale) SiO2 
 PCOD9368300
Probable space group: F M M 2
;
_chemical_formula_sum "Si O2"
_cell_formula_units_Z 112
_cell_length_a 29.896275
_cell_length_b 8.289292
_cell_length_c 26.396055
_cell_angle_alpha 90.000000
_cell_angle_beta 90.000000
_cell_angle_gamma 90.000000
_cell_volume 6541.442718
_symmetry_space_group_name_H-M "F M M 2"
_symmetry_group_IT_number 42
_symmetry_cell_setting 'orthorhombic'
loop_
_space_group_symop_operation_xyz
x,y,z
-x,-y,z
-x,y,z
x,-y,z
x,1/2+y,1/2+z
-x,1/2-y,1/2+z
-x,1/2+y,1/2+z
x,1/2-y,1/2+z
1/2+x,y,1/2+z
1/2-x,-y,1/2+z
1/2-x,y,1/2+z
1/2+x,-y,1/2+z
1/2+x,1/2+y,z
1/2-x,1/2-y,z
1/2-x,1/2+y,z
1/2+x,1/2-y,z
loop_
_atom_site_type_symbol
_atom_site_label
_atom_site_fract_x
_atom_site_fract_y
_atom_site_fract_z
Si Si1 0.106325 0.307151 0.750000
Si Si2 0.448658 0.803152 0.460539
Si Si3 0.948504 0.307014 0.152298
Si Si4 0.701665 0.194511 0.595888
Si Si5 0.392201 0.305442 0.055604
Si Si6 0.551526 0.194874 0.345596
Si Si7 0.798347 0.694225 0.713363
O O1 0.106349 0.500000 0.745581
O O2 0.076764 0.240602 0.703726
O O3 0.084365 0.258678 0.802905
O O4 0.157586 0.250120 0.743004
O O5 0.500000 0.754849 0.471300
O O6 0.415651 0.745336 0.504369
O O7 0.437385 0.753589 0.403106
O O8 0.448139 0.000000 0.460916
O O9 0.948741 0.500000 0.148451
O O10 0.922037 0.238178 0.104210
O O11 0.000000 0.249810 0.153015
O O12 0.750000 0.250000 0.576827
O O13 0.658361 0.252570 0.565348
O O14 0.697352 0.248893 0.654617
O O15 0.701066 0.000000 0.596200
O O16 0.390566 0.500000 0.052644
O O17 0.500000 0.244019 0.335096
O O18 0.552479 0.000000 0.344346
O O19 0.798259 0.500000 0.713131
O O20 0.750000 0.750000 0.732583
#
# Coordination Sequence:
#
# PCOD9368300 Si02
#       7
#    16  16  16  16  16  16  16
#     4  11  21  34  51  73  99 128 165 205 246 293
#     4   8  15  29  51  75  97 127 167 206 241 283
#     4  11  23  34  45  69 104 136 162 194 242 296
#     4   9  17  30  47  70  98 126 160 201 241 288
#     4  10  18  32  53  75  98 128 167 205 242 288
#     4   9  18  33  51  73 100 130 169 209 242 285
#     4   9  18  32  48  70  97 124 159 201 242 290
#
# _framework density 17.121604999999999
#
# number of rings (size 3 to 8) (size 9 to 14) (size 15 to 20)
#    0.000    2.429    1.429    2.571    0.000    5.429 
#    0.000    0.714    0.000    1.714    0.000    4.000 
#    0.000    0.000    0.000    0.000    0.000    0.000 
#
# Total GULP energy -156163.884991 kJ/mol
# GULP energy per Si atom -5577.281607 kJ/mol
# Density = 1.708264 g / cm^3
# Si number density = 17.121605 Si / 1000 Ang^3
#
#
#
# Elastic Constant Matrix: (Units=GPa)
#
#
# Indices 1 2 3 4 5 6 
#
# 1 180.9221 13.7819 93.9431 0.0000 0.0001 0.0001
# 2 13.7819 4.6212 5.2777 0.0000 0.0001 0.0001
# 3 93.9431 5.2777 109.2301 0.0000 0.0000 0.0000
# 4 0.0000 0.0000 0.0000 16.4562 0.0000 0.0000
# 5 0.0001 0.0001 0.0000 0.0000 17.5819 0.0000
# 6 0.0001 0.0001 0.0000 0.0000 0.0000 23.6741
#
#
#
# Elastic Compliance Matrix: (Units=1/GPa)
#
#
# Indices 1 2 3 4 5 6 
#
# 1 0.012413 -0.026277 -0.009406 0.000000 0.000000 0.000000
# 2 -0.026277 0.284658 0.008846 0.000001 -0.000001 -0.000001
# 3 -0.009406 0.008846 0.016817 0.000000 0.000000 0.000000
# 4 0.000000 0.000001 0.000000 0.060767 0.000000 0.000000
# 5 0.000000 -0.000001 0.000000 0.000000 0.056877 0.000000
# 6 0.000000 -0.000001 0.000000 0.000000 0.000000 0.042240
#
#
# Mechanical properties :
#
#
# Convention : Reuss Voigt Hill
#
# Bulk Modulus (GPa) = 3.84301 57.86431 30.85366
# Shear Modulus (GPa) = 8.14086 23.66048 15.90067
#
# Velocity S-wave (km/s) = 2.18290 3.72144 3.05075
# Velocity P-wave (km/s) = 2.93306 7.23429 5.51986
#
# Compressibility (1/GPa) = 0.26021277
#
# Stress axis : x y z
#
# Youngs Moduli (GPa) = 80.56045 3.51299 59.46247
#
# Poissons Ratio (x) = 0.09231 0.55931
# Poissons Ratio (y) = 2.11690 -0.52598
# Poissons Ratio (z) = 0.75776 -0.03107
#
# Static dielectric constant tensor:
#      x y z
#    x 1.588980 0.000000 0.000000 
#    y 0.000000 1.596710 0.000000 
#    z 0.000000 0.000000 1.559110 
# 
# From -- ./inp_files/30511.got.cif
#   From: 2010.05.17/outbox.cif.g08.bks.cpg/sg42_16_cif.got.tgz:30511.got - 2010.06.03 19:03:34.
