data_PCOD9368554
_publ_section_title
;
Structure prediction by ZEFSAII (Michael W. Deem and Ramdas Pophale) SiO2 
 PCOD9368554
Probable space group: F M M 2
;
_chemical_formula_sum "Si O2"
_cell_formula_units_Z 128
_cell_length_a 19.345242
_cell_length_b 19.371164
_cell_length_c 20.031483
_cell_angle_alpha 90.000000
_cell_angle_beta 90.000000
_cell_angle_gamma 90.000000
_cell_volume 7506.595043
_symmetry_space_group_name_H-M "F M M 2"
_symmetry_group_IT_number 42
_symmetry_cell_setting 'orthorhombic'
loop_
_space_group_symop_operation_xyz
x,y,z
-x,-y,z
-x,y,z
x,-y,z
x,1/2+y,1/2+z
-x,1/2-y,1/2+z
-x,1/2+y,1/2+z
x,1/2-y,1/2+z
1/2+x,y,1/2+z
1/2-x,-y,1/2+z
1/2-x,y,1/2+z
1/2+x,-y,1/2+z
1/2+x,1/2+y,z
1/2-x,1/2-y,z
1/2-x,1/2+y,z
1/2+x,1/2-y,z
loop_
_atom_site_type_symbol
_atom_site_label
_atom_site_fract_x
_atom_site_fract_y
_atom_site_fract_z
Si Si1 0.313131 0.579644 0.091910
Si Si2 0.186869 0.420356 0.188167
Si Si3 0.329171 0.225650 0.811484
Si Si4 0.670829 0.274350 0.468594
Si Si5 0.717042 0.922905 0.812201
Si Si6 0.717042 0.077095 0.967876
Si Si7 0.919922 0.302041 0.202341
Si Si8 0.419922 0.697959 0.077737
O O1 0.329062 0.500000 0.108561
O O2 0.250000 0.602075 0.140039
O O3 0.377752 0.629471 0.096631
O O4 0.281827 0.582090 0.017286
O O5 0.170938 0.500000 0.171516
O O6 0.218173 0.417910 0.262791
O O7 0.122249 0.370529 0.183447
O O8 0.250000 0.250000 0.798261
O O9 0.342607 0.237609 0.890039
O O10 0.330786 0.143132 0.798435
O O11 0.380882 0.266364 0.764260
O O12 0.750000 0.250000 0.481816
O O13 0.669214 0.356868 0.481643
O O14 0.619118 0.233636 0.515817
O O15 0.737526 0.917266 0.890039
O O16 0.686692 0.000000 0.802075
O O17 0.686692 0.000000 0.978002
O O18 0.916260 0.250000 0.140039
O O19 0.000000 0.315931 0.217463
O O20 0.500000 0.684069 0.062615
#
# Coordination Sequence:
#
# PCOD9368554 Si02
#       8
#    16  16  16  16  16  16  16  16
#     4  10  20  34  55  80 104 139 182 220 264 318
#     4  10  20  34  55  80 104 139 182 220 264 318
#     4  10  19  33  56  82 105 139 183 223 264 314
#     4  10  19  33  56  82 105 139 183 223 264 314
#     4   9  17  30  51  80 108 132 172 225 266 306
#     4   9  17  30  51  80 108 132 172 225 266 306
#     4  11  24  37  52  79 111 144 178 219 275 328
#     4  11  24  37  52  79 111 144 178 219 275 328
#
# _framework density 17.051672
#
# number of rings (size 3 to 8) (size 9 to 14) (size 15 to 20)
#    0.000    2.000    2.500    1.500    0.000    1.000 
#    0.000    0.000    0.000    2.250    0.000    8.750 
#    0.000    0.000    0.000    0.000    0.000    0.000 
#
# Total GULP energy -178470.001085 kJ/mol
# GULP energy per Si atom -5577.187534 kJ/mol
# Density = 1.701286 g / cm^3
# Si number density = 17.051672 Si / 1000 Ang^3
#
#
#
# Elastic Constant Matrix: (Units=GPa)
#
#
# Indices 1 2 3 4 5 6 
#
# 1 133.0889 74.3351 57.8541 0.0000 0.0000 0.0000
# 2 74.3351 110.4982 35.5305 0.0000 0.0000 0.0000
# 3 57.8541 35.5305 59.6918 0.0000 0.0000 0.0000
# 4 0.0000 0.0000 0.0000 24.4362 0.0000 0.0000
# 5 0.0000 0.0000 0.0000 0.0000 16.2266 0.0000
# 6 0.0000 0.0000 0.0000 0.0000 0.0000 16.6293
#
#
#
# Elastic Compliance Matrix: (Units=1/GPa)
#
#
# Indices 1 2 3 4 5 6 
#
# 1 0.016892 -0.007543 -0.011882 0.000000 0.000000 0.000000
# 2 -0.007543 0.014560 -0.001356 0.000000 0.000000 0.000000
# 3 -0.011882 -0.001356 0.029076 0.000000 0.000000 0.000000
# 4 0.000000 0.000000 0.000000 0.040923 0.000000 0.000000
# 5 0.000000 0.000000 0.000000 0.000000 0.061627 0.000000
# 6 0.000000 0.000000 0.000000 0.000000 0.000000 0.060135
#
#
# Mechanical properties :
#
#
# Convention : Reuss Voigt Hill
#
# Bulk Modulus (GPa) = 52.72523 70.96870 61.84696
# Shear Modulus (GPa) = 18.44352 20.49569 19.46960
#
# Velocity S-wave (km/s) = 3.29237 3.47071 3.38272
# Velocity P-wave (km/s) = 6.74099 7.60074 7.18374
#
# Compressibility (1/GPa) = 0.01896625
#
# Stress axis : x y z
#
# Youngs Moduli (GPa) = 59.19960 68.67977 34.39245
#
# Poissons Ratio (x) = 0.51805 0.40865
# Poissons Ratio (y) = 0.44654 0.04664
# Poissons Ratio (z) = 0.70342 0.09313
#
# Static dielectric constant tensor:
#      x y z
#    x 1.526920 0.000000 0.000000 
#    y 0.000000 1.623170 0.000000 
#    z 0.000000 0.000000 1.590330 
# 
# From -- ./inp_files/26218.got.cif
#   From: 2010.05.17/outbox.cif.g08.bks.cpg/sg42_14_cif.got.tgz:26218.got - 2010.06.03 19:03:34.
