data_PCOD9368175
_publ_section_title
;
Structure prediction by ZEFSAII (Michael W. Deem and Ramdas Pophale) SiO2 
 PCOD9368175
Probable space group: F M M 2
;
_chemical_formula_sum "Si O2"
_cell_formula_units_Z 112
_cell_length_a 29.437515
_cell_length_b 14.657905
_cell_length_c 13.840409
_cell_angle_alpha 90.000000
_cell_angle_beta 90.000000
_cell_angle_gamma 90.000000
_cell_volume 5972.029889
_symmetry_space_group_name_H-M "F M M 2"
_symmetry_group_IT_number 42
_symmetry_cell_setting 'orthorhombic'
loop_
_space_group_symop_operation_xyz
x,y,z
-x,-y,z
-x,y,z
x,-y,z
x,1/2+y,1/2+z
-x,1/2-y,1/2+z
-x,1/2+y,1/2+z
x,1/2-y,1/2+z
1/2+x,y,1/2+z
1/2-x,-y,1/2+z
1/2-x,y,1/2+z
1/2+x,-y,1/2+z
1/2+x,1/2+y,z
1/2-x,1/2-y,z
1/2-x,1/2+y,z
1/2+x,1/2-y,z
loop_
_atom_site_type_symbol
_atom_site_label
_atom_site_fract_x
_atom_site_fract_y
_atom_site_fract_z
Si Si1 0.550266 0.147005 0.440820
Si Si2 0.649838 0.603497 0.513597
Si Si3 0.803870 0.255942 0.874397
Si Si4 0.850755 0.897307 0.003407
Si Si5 0.450734 0.857772 0.010719
Si Si6 0.549905 0.703044 0.723565
Si Si7 0.353315 0.238399 0.673722
O O1 0.500000 0.110838 0.465952
O O2 0.595081 0.102375 0.483345
O O3 0.551330 0.251766 0.478390
O O4 0.554083 0.150155 0.324442
O O5 0.664490 0.500000 0.533373
O O6 0.678448 0.655334 0.432085
O O7 0.597031 0.601368 0.479815
O O8 0.651310 0.670740 0.606881
O O9 0.750000 0.250000 0.881717
O O10 0.827583 0.168722 0.924977
O O11 0.820686 0.258739 0.764737
O O12 0.833324 0.000000 0.000465
O O13 0.843628 0.846989 0.105093
O O14 0.500000 0.893015 0.977454
O O15 0.450652 0.859228 0.127752
O O16 0.500000 0.749674 0.725683
O O17 0.594430 0.764405 0.710678
#
# Coordination Sequence:
#
# PCOD9368175 Si02
#       7
#    16  16  16  16  16  16  16
#     4  10  17  31  55  85 120 162 196 228 276 342
#     4  10  21  38  62  91 120 151 194 244 294 350
#     4  11  24  44  64  82 112 155 198 249 307 357
#     4  11  23  39  61  93 124 152 192 244 296 353
#     4   9  16  30  53  84 121 158 196 233 278 334
#     4   9  15  27  53  81 113 158 199 227 269 334
#     4  10  20  39  60  88 118 158 195 239 294 352
#
# _framework density 18.754093000000001
#
# number of rings (size 3 to 8) (size 9 to 14) (size 15 to 20)
#    0.000    2.000    5.714    0.000    0.000    4.571 
#    0.000    0.000    0.000    2.571    0.000    2.000 
#    0.000    0.000    0.000    0.000    0.000    0.000 
#
# Total GULP energy -156075.235081 kJ/mol
# GULP energy per Si atom -5574.115539 kJ/mol
# Density = 1.871141 g / cm^3
# Si number density = 18.754093 Si / 1000 Ang^3
#
#
#
# Elastic Constant Matrix: (Units=GPa)
#
#
# Indices 1 2 3 4 5 6 
#
# 1 119.1614 29.9273 55.0520 0.0000 0.0000 0.0000
# 2 29.9273 112.7723 38.9632 0.0000 0.0000 0.0000
# 3 55.0520 38.9632 83.5917 0.0000 0.0000 0.0000
# 4 0.0000 0.0000 0.0000 -28.8555 0.0000 0.0000
# 5 0.0000 0.0000 0.0000 0.0000 -63.4232 0.0000
# 6 0.0000 0.0000 0.0000 0.0000 0.0000 -0.7327
#
#
#
# Elastic Compliance Matrix: (Units=1/GPa)
#
#
# Indices 1 2 3 4 5 6 
#
# 1 0.012090 -0.000545 -0.007708 0.000000 0.000000 0.000000
# 2 -0.000545 0.010594 -0.004579 0.000000 0.000000 0.000000
# 3 -0.007708 -0.004579 0.019174 0.000000 0.000000 0.000000
# 4 0.000000 0.000000 0.000000 -0.034655 0.000000 0.000000
# 5 0.000000 0.000000 0.000000 0.000000 -0.015767 0.000000
# 6 0.000000 0.000000 0.000000 0.000000 0.000000 -1.364835
#
#
# Mechanical properties :
#
#
# Convention : Reuss Voigt Hill
#
# Bulk Modulus (GPa) = 61.75453 62.60115 62.17784
# Shear Modulus (GPa) = -3.72485 -5.83008 -4.77746
#
# Velocity S-wave (km/s) = -1.41084 -1.76506 -1.59780
# Velocity P-wave (km/s) = 5.50873 5.41281 5.46098
#
# Compressibility (1/GPa) = 0.01619314
#
# Stress axis : x y z
#
# Youngs Moduli (GPa) = 82.71272 94.39147 52.15483
#
# Poissons Ratio (x) = 0.05147 0.40202
# Poissons Ratio (y) = 0.04510 0.23882
# Poissons Ratio (z) = 0.63756 0.43222
#
# Static dielectric constant tensor:
#      x y z
#    x 1.685880 0.000000 0.000000 
#    y 0.000000 1.739060 0.000000 
#    z 0.000000 0.000000 1.645110 
# 
# From -- ./inp_files/14503.got.cif
#   From: 2010.05.17/outbox.cif.g08.bks.cpg/sg42_8_cif.got.tgz:14503.got - 2010.06.03 19:03:34.
