data_PCOD9368779
_publ_section_title
;
Structure prediction by ZEFSAII (Michael W. Deem and Ramdas Pophale) SiO2 
 PCOD9368779
Probable space group: F M M 2
;
_chemical_formula_sum "Si O2"
_cell_formula_units_Z 96
_cell_length_a 19.294686
_cell_length_b 7.514241
_cell_length_c 32.011196
_cell_angle_alpha 90.000000
_cell_angle_beta 90.000000
_cell_angle_gamma 90.000000
_cell_volume 4641.140711
_symmetry_space_group_name_H-M "F M M 2"
_symmetry_group_IT_number 42
_symmetry_cell_setting 'orthorhombic'
loop_
_space_group_symop_operation_xyz
x,y,z
-x,-y,z
-x,y,z
x,-y,z
x,1/2+y,1/2+z
-x,1/2-y,1/2+z
-x,1/2+y,1/2+z
x,1/2-y,1/2+z
1/2+x,y,1/2+z
1/2-x,-y,1/2+z
1/2-x,y,1/2+z
1/2+x,-y,1/2+z
1/2+x,1/2+y,z
1/2-x,1/2-y,z
1/2-x,1/2+y,z
1/2+x,1/2-y,z
loop_
_atom_site_type_symbol
_atom_site_label
_atom_site_fract_x
_atom_site_fract_y
_atom_site_fract_z
Si Si1 0.668761 0.213466 0.952700
Si Si2 0.579842 0.217029 0.030813
Si Si3 0.920928 0.713284 0.280778
Si Si4 0.920928 0.786716 0.375107
Si Si5 0.079843 0.717028 0.125073
Si Si6 0.668761 0.213465 0.203186
O O1 0.750000 0.250000 0.952076
O O2 0.629194 0.281053 0.911427
O O3 0.660775 0.000000 0.952917
O O4 0.630933 0.279850 0.994626
O O5 0.500000 0.268207 0.022240
O O6 0.597977 0.274205 0.077943
O O7 0.581019 0.000000 0.030943
O O8 0.924325 0.500000 0.276618
O O9 0.896902 0.749999 0.327943
O O10 0.870807 0.781054 0.244459
O O11 0.000000 0.781405 0.276482
O O12 0.000000 0.718596 0.379404
O O13 0.924324 0.000000 0.379268
O O14 0.081019 0.500000 0.124943
O O15 0.130933 0.779848 0.161260
O O16 0.000000 0.768207 0.133645
O O17 0.750000 0.250000 0.203810
O O18 0.660775 0.000000 0.202969
#
# Coordination Sequence:
#
# PCOD9368779 Si02
#       6
#    16  16  16  16  16  16
#     4  10  20  32  47  70  99 127 154 188 232 279
#     4   8  14  27  49  73  93 118 157 199 232 267
#     4   9  18  33  52  71  91 119 157 198 235 272
#     4   9  18  33  52  71  91 119 157 198 235 272
#     4   8  14  27  49  73  93 118 157 199 232 267
#     4  10  20  32  47  70  99 127 154 188 232 279
#
# _framework density 20.684569
#
# number of rings (size 3 to 8) (size 9 to 14) (size 15 to 20)
#    0.000    3.000    0.000    2.000    0.000    6.667 
#    0.000    3.333    0.000    3.000    0.000    2.333 
#    0.000    0.000    0.000    0.000    0.000    0.000 
#
# Total GULP energy -133939.356184 kJ/mol
# GULP energy per Si atom -5580.806508 kJ/mol
# Density = 2.063749 g / cm^3
# Si number density = 20.684569 Si / 1000 Ang^3
#
#
#
# Elastic Constant Matrix: (Units=GPa)
#
#
# Indices 1 2 3 4 5 6 
#
# 1 150.3501 1.0734 159.1752 0.0000 0.0000 0.0000
# 2 1.0734 53.9064 6.0499 0.0000 0.0000 0.0000
# 3 159.1752 6.0499 238.1438 0.0000 0.0000 0.0000
# 4 0.0000 0.0000 0.0000 5.8038 0.0000 0.0000
# 5 0.0000 0.0000 0.0000 0.0000 -19.5720 0.0000
# 6 0.0000 0.0000 0.0000 0.0000 0.0000 20.7452
#
#
#
# Elastic Compliance Matrix: (Units=1/GPa)
#
#
# Indices 1 2 3 4 5 6 
#
# 1 0.022835 0.001262 -0.015295 0.000000 0.000000 0.000000
# 2 0.001262 0.018673 -0.001318 0.000000 0.000000 0.000000
# 3 -0.015295 -0.001318 0.014456 0.000000 0.000000 0.000000
# 4 0.000000 0.000000 0.000000 0.172300 0.000000 0.000000
# 5 0.000000 0.000000 0.000000 0.000000 -0.051093 0.000000
# 6 0.000000 0.000000 0.000000 0.000000 0.000000 0.048204
#
#
# Mechanical properties :
#
#
# Convention : Reuss Voigt Hill
#
# Bulk Modulus (GPa) = 39.58463 86.11079 62.84771
# Shear Modulus (GPa) = 18.90385 19.80219 19.35302
#
# Velocity S-wave (km/s) = 3.02638 3.09745 3.06212
# Velocity P-wave (km/s) = 5.60274 7.38330 6.55377
#
# Compressibility (1/GPa) = 0.02526233
#
# Stress axis : x y z
#
# Youngs Moduli (GPa) = 43.79334 53.55194 69.17759
#
# Poissons Ratio (x) = -0.06757 1.05805
# Poissons Ratio (y) = -0.05526 0.09116
# Poissons Ratio (z) = 0.66980 0.07057
#
# Static dielectric constant tensor:
#      x y z
#    x 1.692340 0.000000 0.000000 
#    y 0.000000 1.822260 0.000000 
#    z 0.000000 0.000000 1.733240 
# 
# From -- ./inp_files/8911.got.cif
#   From: 2010.05.17/outbox.cif.g08.bks.cpg/sg42_5_cif.got.tgz:8911.got - 2010.06.03 19:03:34.
