data_PCOD9368716
_publ_section_title
;
Structure prediction by ZEFSAII (Michael W. Deem and Ramdas Pophale) SiO2 
 PCOD9368716
Probable space group: F M M 2
;
_chemical_formula_sum "Si O2"
_cell_formula_units_Z 88
_cell_length_a 20.764201
_cell_length_b 15.316375
_cell_length_c 13.333952
_cell_angle_alpha 90.000000
_cell_angle_beta 90.000000
_cell_angle_gamma 90.000000
_cell_volume 4240.627277
_symmetry_space_group_name_H-M "F M M 2"
_symmetry_group_IT_number 42
_symmetry_cell_setting 'orthorhombic'
loop_
_space_group_symop_operation_xyz
x,y,z
-x,-y,z
-x,y,z
x,-y,z
x,1/2+y,1/2+z
-x,1/2-y,1/2+z
-x,1/2+y,1/2+z
x,1/2-y,1/2+z
1/2+x,y,1/2+z
1/2-x,-y,1/2+z
1/2-x,y,1/2+z
1/2+x,-y,1/2+z
1/2+x,1/2+y,z
1/2-x,1/2-y,z
1/2-x,1/2+y,z
1/2+x,1/2-y,z
loop_
_atom_site_type_symbol
_atom_site_label
_atom_site_fract_x
_atom_site_fract_y
_atom_site_fract_z
Si Si1 0.926372 0.895683 0.232420
Si Si2 0.927777 0.000000 0.860173
Si Si3 0.319902 0.000000 0.191588
Si Si4 0.429787 0.500000 0.525964
Si Si5 0.629144 0.161823 0.924465
Si Si6 0.753263 0.351972 0.073571
Si Si7 0.390813 0.352030 0.011081
O O1 0.875850 0.846782 0.304790
O O2 0.922290 0.859659 0.120003
O O3 0.000000 0.882511 0.267594
O O4 0.913307 0.000000 0.230734
O O5 0.863053 0.000000 0.791559
O O6 0.922351 0.083255 0.932360
O O7 0.000000 0.000000 0.812798
O O8 0.375788 0.000000 0.108985
O O9 0.277559 0.914744 0.163071
O O10 0.500000 0.500000 0.570436
O O11 0.418372 0.414422 0.460432
O O12 0.696830 0.142747 0.979945
O O13 0.608111 0.255297 0.965706
O O14 0.750000 0.250000 0.104501
O O15 0.683496 0.377806 0.032595
#
# Coordination Sequence:
#
# PCOD9368716 Si02
#       7
#    16   8   8   8  16  16  16
#     4  11  23  41  64  93 129 175 224 270 324 393
#     4  12  26  43  61  92 137 180 225 275 336 405
#     4  10  22  39  65  94 126 174 216 265 340 389
#     4  10  19  36  60  92 128 164 221 280 316 378
#     4  10  22  40  67  96 128 170 223 277 329 388
#     4   9  21  43  66  96 130 163 217 278 328 394
#     4  11  24  43  65  95 135 178 217 278 339 397
#
# _framework density 20.751646999999998
#
# number of rings (size 3 to 8) (size 9 to 14) (size 15 to 20)
#    0.000    1.636    1.818    1.909    0.000    8.727 
#    0.000    5.455    0.000    0.000    0.000    0.000 
#    0.000    0.000    0.000    0.000    0.000    0.000 
#
# Total GULP energy -122840.907064 kJ/mol
# GULP energy per Si atom -5583.677594 kJ/mol
# Density = 2.070442 g / cm^3
# Si number density = 20.751647 Si / 1000 Ang^3
#
#
#
# Elastic Constant Matrix: (Units=GPa)
#
#
# Indices 1 2 3 4 5 6 
#
# 1 107.7808 54.4011 26.7765 0.0000 0.0000 0.0000
# 2 54.4011 93.2173 43.1066 0.0000 0.0000 0.0000
# 3 26.7765 43.1066 115.7764 0.0000 0.0000 0.0000
# 4 0.0000 0.0000 0.0000 28.7550 0.0000 0.0000
# 5 0.0000 0.0000 0.0000 0.0000 20.6341 0.0000
# 6 0.0000 0.0000 0.0000 0.0000 0.0000 73.1495
#
#
#
# Elastic Compliance Matrix: (Units=1/GPa)
#
#
# Indices 1 2 3 4 5 6 
#
# 1 0.013157 -0.007576 -0.000222 0.000000 0.000000 0.000000
# 2 -0.007576 0.017321 -0.004697 0.000000 0.000000 0.000000
# 3 -0.000222 -0.004697 0.010438 0.000000 0.000000 0.000000
# 4 0.000000 0.000000 0.000000 0.034777 0.000000 0.000000
# 5 0.000000 0.000000 0.000000 0.000000 0.048464 0.000000
# 6 0.000000 0.000000 0.000000 0.000000 0.000000 0.013671
#
#
# Mechanical properties :
#
#
# Convention : Reuss Voigt Hill
#
# Bulk Modulus (GPa) = 62.79178 62.81589 62.80383
# Shear Modulus (GPa) = 29.73995 37.34040 33.54017
#
# Velocity S-wave (km/s) = 3.78979 4.24653 4.02464
# Velocity P-wave (km/s) = 7.03380 7.37428 7.20605
#
# Compressibility (1/GPa) = 0.01592565
#
# Stress axis : x y z
#
# Youngs Moduli (GPa) = 76.00521 57.73458 95.80809
#
# Poissons Ratio (x) = 0.43737 0.02130
# Poissons Ratio (y) = 0.57578 0.45000
# Poissons Ratio (z) = 0.01690 0.27117
#
# Static dielectric constant tensor:
#      x y z
#    x 1.772600 0.000000 0.000000 
#    y 0.000000 1.725140 0.000000 
#    z 0.000000 0.000000 1.763800 
# 
# From -- ./inp_files/10090.got.cif
#   From: 2010.05.17/outbox.cif.g08.bks.cpg/sg42_6_cif.got.tgz:10090.got - 2010.06.03 19:03:34.
