data_PCOD9368916
_publ_section_title
;
Structure prediction by ZEFSAII (Michael W. Deem and Ramdas Pophale) SiO2 
 PCOD9368916
Probable space group: F M M 2
;
_chemical_formula_sum "Si O2"
_cell_formula_units_Z 80
_cell_length_a 17.666914
_cell_length_b 24.504664
_cell_length_c 9.474725
_cell_angle_alpha 90.000000
_cell_angle_beta 90.000000
_cell_angle_gamma 90.000000
_cell_volume 4101.814921
_symmetry_space_group_name_H-M "F M M 2"
_symmetry_group_IT_number 42
_symmetry_cell_setting 'orthorhombic'
loop_
_space_group_symop_operation_xyz
x,y,z
-x,-y,z
-x,y,z
x,-y,z
x,1/2+y,1/2+z
-x,1/2-y,1/2+z
-x,1/2+y,1/2+z
x,1/2-y,1/2+z
1/2+x,y,1/2+z
1/2-x,-y,1/2+z
1/2-x,y,1/2+z
1/2+x,-y,1/2+z
1/2+x,1/2+y,z
1/2-x,1/2-y,z
1/2-x,1/2+y,z
1/2+x,1/2-y,z
loop_
_atom_site_type_symbol
_atom_site_label
_atom_site_fract_x
_atom_site_fract_y
_atom_site_fract_z
Si Si1 0.702583 0.000000 0.375000
Si Si2 0.750000 0.250000 0.461165
Si Si3 0.195914 0.323312 0.207785
Si Si4 0.415748 0.620541 0.536166
Si Si5 0.918011 0.500000 0.136148
Si Si6 0.091648 0.000000 0.138509
Si Si7 0.184417 0.593061 0.795562
O O1 0.756642 0.947115 0.376065
O O2 0.656820 0.000000 0.229090
O O3 0.637728 0.000000 0.491883
O O4 0.794352 0.290405 0.353761
O O5 0.800413 0.217125 0.574245
O O6 0.119824 0.357291 0.181154
O O7 0.264760 0.366872 0.200591
O O8 0.500000 0.641309 0.514603
O O9 0.417515 0.554863 0.546503
O O10 0.361277 0.630242 0.404654
O O11 0.000000 0.500000 0.214727
O O12 0.125329 0.053571 0.216726
O O13 0.000000 0.000000 0.131375
#
# Coordination Sequence:
#
# PCOD9368916 Si02
#       7
#     8   8  16  16   8   8  16
#     4  11  21  33  56  91 121 163 211 245 280 363
#     4  10  24  40  68  94 118 146 218 270 314 348
#     4  11  21  42  67  94 116 161 206 264 307 366
#     4  11  22  38  61  93 127 163 199 248 308 372
#     4  10  20  34  55  89 132 163 197 247 300 362
#     4  11  24  37  54  90 135 164 190 242 301 361
#     4  11  22  36  64  87 123 162 211 241 299 364
#
# _framework density 19.503561999999999
#
# number of rings (size 3 to 8) (size 9 to 14) (size 15 to 20)
#    0.000    1.200    4.000    3.300    2.800    0.800 
#    0.000    1.000    0.000    0.000    0.000    0.000 
#    0.000    0.000    0.000    0.000    0.000    0.000 
#
# Total GULP energy -111536.200966 kJ/mol
# GULP energy per Si atom -5576.810048 kJ/mol
# Density = 1.945917 g / cm^3
# Si number density = 19.503562 Si / 1000 Ang^3
#
#
#
# Elastic Constant Matrix: (Units=GPa)
#
#
# Indices 1 2 3 4 5 6 
#
# 1 134.0023 10.0112 25.4982 0.0000 0.0000 0.0000
# 2 10.0112 54.9901 9.0211 0.0000 0.0000 0.0000
# 3 25.4982 9.0211 70.0927 0.0000 0.0000 0.0000
# 4 0.0000 0.0000 0.0000 34.8074 0.0000 0.0000
# 5 0.0000 0.0000 0.0000 0.0000 26.8556 0.0000
# 6 0.0000 0.0000 0.0000 0.0000 0.0000 -50.5760
#
#
#
# Elastic Compliance Matrix: (Units=1/GPa)
#
#
# Indices 1 2 3 4 5 6 
#
# 1 0.008072 -0.001009 -0.002807 0.000000 0.000000 0.000000
# 2 -0.001009 0.018703 -0.002040 0.000000 0.000000 0.000000
# 3 -0.002807 -0.002040 0.015550 0.000000 0.000000 0.000000
# 4 0.000000 0.000000 0.000000 0.028730 0.000000 0.000000
# 5 0.000000 0.000000 0.000000 0.000000 0.037236 0.000000
# 6 0.000000 0.000000 0.000000 0.000000 0.000000 -0.019772
#
#
# Mechanical properties :
#
#
# Convention : Reuss Voigt Hill
#
# Bulk Modulus (GPa) = 32.66447 38.68291 35.67369
# Shear Modulus (GPa) = 45.27527 16.52105 30.89816
#
# Velocity S-wave (km/s) = 4.82330 2.91362 3.98456
# Velocity P-wave (km/s) = 6.91399 5.58531 6.28486
#
# Compressibility (1/GPa) = 0.03061430
#
# Stress axis : x y z
#
# Youngs Moduli (GPa) = 123.88533 53.46598 64.30730
#
# Poissons Ratio (x) = 0.05395 0.18048
# Poissons Ratio (y) = 0.12502 0.13119
# Poissons Ratio (z) = 0.34769 0.10908
#
# Static dielectric constant tensor:
#      x y z
#    x 1.701820 0.000000 0.000000 
#    y 0.000000 1.745190 0.000000 
#    z 0.000000 0.000000 1.730000 
# 
# From -- ./inp_files/3559.got.cif
#   From: 2010.05.17/outbox.cif.g08.bks.cpg/sg42_2_cif.got.tgz:3559.got - 2010.06.03 19:03:34.
