data_PCOD9368260
_publ_section_title
;
Structure prediction by ZEFSAII (Michael W. Deem and Ramdas Pophale) SiO2 
 PCOD9368260
Probable space group: F M M 2
;
_chemical_formula_sum "Si O2"
_cell_formula_units_Z 76
_cell_length_a 16.639775
_cell_length_b 18.281298
_cell_length_c 14.041019
_cell_angle_alpha 90.000000
_cell_angle_beta 90.000000
_cell_angle_gamma 90.000000
_cell_volume 4271.231440
_symmetry_space_group_name_H-M "F M M 2"
_symmetry_group_IT_number 42
_symmetry_cell_setting 'orthorhombic'
loop_
_space_group_symop_operation_xyz
x,y,z
-x,-y,z
-x,y,z
x,-y,z
x,1/2+y,1/2+z
-x,1/2-y,1/2+z
-x,1/2+y,1/2+z
x,1/2-y,1/2+z
1/2+x,y,1/2+z
1/2-x,-y,1/2+z
1/2-x,y,1/2+z
1/2+x,-y,1/2+z
1/2+x,1/2+y,z
1/2-x,1/2-y,z
1/2-x,1/2+y,z
1/2+x,1/2-y,z
loop_
_atom_site_type_symbol
_atom_site_label
_atom_site_fract_x
_atom_site_fract_y
_atom_site_fract_z
Si Si1 0.500000 0.417864 0.054610
Si Si2 0.171085 0.500000 0.839764
Si Si3 0.702703 0.625264 0.812113
Si Si4 0.174354 0.358698 0.528039
Si Si5 0.500000 0.000000 0.742562
Si Si6 0.250000 0.250000 0.669564
Si Si7 0.216397 0.000000 0.559169
Si Si8 0.404388 0.500000 0.737443
O O1 0.500000 0.500000 0.012121
O O2 0.581237 0.378787 0.026949
O O3 0.500000 0.432179 0.168668
O O4 0.220399 0.428989 0.804151
O O5 0.080919 0.500000 0.802835
O O6 0.177540 0.500000 0.954103
O O7 0.708110 0.689988 0.736567
O O8 0.627110 0.571654 0.793655
O O9 0.700804 0.655170 0.919518
O O10 0.190351 0.292834 0.599581
O O11 0.226223 0.428863 0.563720
O O12 0.148097 0.000000 0.639676
O O13 0.500000 0.500000 0.723652
#
# Coordination Sequence:
#
# PCOD9368260 Si02
#       8
#     8   8  16  16   4   8   8   8
#     4  10  22  34  66  91 118 142 208 261 292 329
#     4   9  20  36  61  89 119 153 206 248 287 349
#     4  10  23  39  63  86 119 161 200 244 299 354
#     4  11  22  40  62  91 119 158 203 246 299 356
#     4  10  18  30  58  94 120 142 190 250 308 330
#     4  12  22  40  62  82 128 164 192 234 302 378
#     4  10  19  40  61  85 119 162 199 248 292 349
#     4  11  23  38  66  89 116 154 205 253 294 345
#
# _framework density 17.793462999999999
#
# number of rings (size 3 to 8) (size 9 to 14) (size 15 to 20)
#    0.316    1.263    3.158    2.526    5.158    0.000 
#    1.895    0.000    0.000    2.526    0.000    0.000 
#    0.000    0.000    0.000    0.000    0.000    0.000 
#
# Total GULP energy -106076.981330 kJ/mol
# GULP energy per Si atom -5582.999017 kJ/mol
# Density = 1.775296 g / cm^3
# Si number density = 17.793463 Si / 1000 Ang^3
#
#
#
# Elastic Constant Matrix: (Units=GPa)
#
#
# Indices 1 2 3 4 5 6 
#
# 1 131.7147 37.2444 38.3851 0.0000 0.0000 0.0000
# 2 37.2444 105.1852 57.5216 0.0000 0.0000 0.0000
# 3 38.3851 57.5216 115.9102 0.0000 0.0000 0.0000
# 4 0.0000 0.0000 0.0000 -11.4740 0.0000 0.0000
# 5 0.0000 0.0000 0.0000 0.0000 23.0135 0.0000
# 6 0.0000 0.0000 0.0000 0.0000 0.0000 13.3006
#
#
#
# Elastic Compliance Matrix: (Units=1/GPa)
#
#
# Indices 1 2 3 4 5 6 
#
# 1 0.008720 -0.002070 -0.001860 0.000000 0.000000 0.000000
# 2 -0.002070 0.013540 -0.006034 0.000000 0.000000 0.000000
# 3 -0.001860 -0.006034 0.012238 0.000000 0.000000 0.000000
# 4 0.000000 0.000000 0.000000 -0.087154 0.000000 0.000000
# 5 0.000000 0.000000 0.000000 0.000000 0.043453 0.000000
# 6 0.000000 0.000000 0.000000 0.000000 0.000000 0.075185
#
#
# Mechanical properties :
#
#
# Convention : Reuss Voigt Hill
#
# Bulk Modulus (GPa) = 68.63977 68.79025 68.71501
# Shear Modulus (GPa) = 55.08723 19.61194 37.34959
#
# Velocity S-wave (km/s) = 5.57014 3.32354 4.58652
# Velocity P-wave (km/s) = 8.94585 7.31247 8.17008
#
# Compressibility (1/GPa) = 0.01456881
#
# Stress axis : x y z
#
# Youngs Moduli (GPa) = 114.68313 73.85748 81.71502
#
# Poissons Ratio (x) = 0.15290 0.15201
# Poissons Ratio (y) = 0.23742 0.49303
# Poissons Ratio (z) = 0.21334 0.44563
#
# Static dielectric constant tensor:
#      x y z
#    x 1.565100 0.000000 0.000000 
#    y 0.000000 1.624990 0.000000 
#    z 0.000000 0.000000 1.630780 
# 
# From -- ./inp_files/13868.got.cif
#   From: 2010.05.17/outbox.cif.g08.bks.cpg/sg42_7_cif.got.tgz:13868.got - 2010.06.03 19:03:34.
