data_PCOD9368667
_publ_section_title
;
Structure prediction by ZEFSAII (Michael W. Deem and Ramdas Pophale) SiO2 
 PCOD9368667
Probable space group: F M M 2
;
_chemical_formula_sum "Si O2"
_cell_formula_units_Z 112
_cell_length_a 14.056661
_cell_length_b 27.202978
_cell_length_c 13.700769
_cell_angle_alpha 90.000000
_cell_angle_beta 90.000000
_cell_angle_gamma 90.000000
_cell_volume 5238.941700
_symmetry_space_group_name_H-M "F M M 2"
_symmetry_group_IT_number 42
_symmetry_cell_setting 'orthorhombic'
loop_
_space_group_symop_operation_xyz
x,y,z
-x,-y,z
-x,y,z
x,-y,z
x,1/2+y,1/2+z
-x,1/2-y,1/2+z
-x,1/2+y,1/2+z
x,1/2-y,1/2+z
1/2+x,y,1/2+z
1/2-x,-y,1/2+z
1/2-x,y,1/2+z
1/2+x,-y,1/2+z
1/2+x,1/2+y,z
1/2-x,1/2-y,z
1/2-x,1/2+y,z
1/2+x,1/2-y,z
loop_
_atom_site_type_symbol
_atom_site_label
_atom_site_fract_x
_atom_site_fract_y
_atom_site_fract_z
Si Si1 0.385090 0.555807 0.306280
Si Si2 0.111393 0.606595 0.388211
Si Si3 0.115260 0.446029 0.186005
Si Si4 0.887994 0.394854 0.604739
Si Si5 0.887631 0.851034 0.585612
Si Si6 0.731814 0.194856 0.684437
Si Si7 0.701577 0.656934 0.385657
O O1 0.500000 0.558165 0.319620
O O2 0.355414 0.500000 0.331541
O O3 0.363682 0.568120 0.192536
O O4 0.339738 0.602159 0.362405
O O5 0.138244 0.573628 0.294558
O O6 0.123647 0.583498 0.496262
O O7 0.185298 0.651090 0.393313
O O8 0.000000 0.619559 0.377569
O O9 0.153867 0.500000 0.170338
O O10 0.141608 0.407909 0.101420
O O11 0.000000 0.448035 0.183901
O O12 0.829151 0.344387 0.621517
O O13 0.000000 0.382897 0.615595
O O14 0.838482 0.826732 0.678845
O O15 0.845952 0.828557 0.486904
O O16 0.000000 0.846985 0.586567
O O17 0.750000 0.250000 0.650570
O O18 0.685966 0.191122 0.791799
#
# Coordination Sequence:
#
# PCOD9368667 Si02
#       7
#    16  16  16  16  16  16  16
#     4   9  19  36  58  86 122 163 206 252 306 369
#     4  10  19  35  59  86 125 167 205 252 308 366
#     4   9  19  36  59  89 126 168 211 252 300 364
#     4   9  19  38  62  89 123 161 203 257 315 370
#     4  11  23  42  65  92 128 166 205 257 316 373
#     4  11  24  42  66  89 121 157 207 265 321 380
#     4  11  22  39  61  92 123 161 205 260 311 371
#
# _framework density 21.378361999999999
#
# number of rings (size 3 to 8) (size 9 to 14) (size 15 to 20)
#    0.000    2.000    2.857    0.429    0.000    3.429 
#    0.000    4.286    0.000    0.000    0.000    0.000 
#    0.000    0.000    0.000    0.000    0.000    0.000 
#
# Total GULP energy -156088.819423 kJ/mol
# GULP energy per Si atom -5574.600694 kJ/mol
# Density = 2.132970 g / cm^3
# Si number density = 21.378362 Si / 1000 Ang^3
#
#
#
# Elastic Constant Matrix: (Units=GPa)
#
#
# Indices 1 2 3 4 5 6 
#
# 1 68.5986 16.3040 14.2612 0.0000 0.0000 0.0000
# 2 16.3040 67.7477 -1.0287 0.0000 0.0000 0.0000
# 3 14.2612 -1.0287 100.1638 0.0000 0.0000 0.0000
# 4 0.0000 0.0000 0.0000 8.9907 0.0000 0.0000
# 5 0.0000 0.0000 0.0000 0.0000 28.5529 0.0000
# 6 0.0000 0.0000 0.0000 0.0000 0.0000 16.4319
#
#
#
# Elastic Compliance Matrix: (Units=1/GPa)
#
#
# Indices 1 2 3 4 5 6 
#
# 1 0.015981 -0.003881 -0.002315 0.000000 0.000000 0.000000
# 2 -0.003881 0.015706 0.000714 0.000000 0.000000 0.000000
# 3 -0.002315 0.000714 0.010321 0.000000 0.000000 0.000000
# 4 0.000000 0.000000 0.000000 0.111226 0.000000 0.000000
# 5 0.000000 0.000000 0.000000 0.000000 0.035023 0.000000
# 6 0.000000 0.000000 0.000000 0.000000 0.000000 0.060857
#
#
# Mechanical properties :
#
#
# Convention : Reuss Voigt Hill
#
# Bulk Modulus (GPa) = 32.21401 32.84256 32.52829
# Shear Modulus (GPa) = 18.48933 24.59332 21.54133
#
# Velocity S-wave (km/s) = 2.94404 3.39541 3.17775
# Velocity P-wave (km/s) = 5.16311 5.54686 5.35842
#
# Compressibility (1/GPa) = 0.03104239
#
# Stress axis : x y z
#
# Youngs Moduli (GPa) = 62.57296 63.67181 96.89338
#
# Poissons Ratio (x) = 0.24712 0.22433
# Poissons Ratio (y) = 0.24286 -0.06917
# Poissons Ratio (z) = 0.14487 -0.04546
#
# Static dielectric constant tensor:
#      x y z
#    x 1.810750 0.000000 0.000000 
#    y 0.000000 1.795250 0.000000 
#    z 0.000000 0.000000 1.795580 
# 
# From -- ./inp_files/14409.got.cif
#   From: 2010.05.17/outbox.cif.g08.bks.cpg/sg42_8_cif.got.tgz:14409.got - 2010.06.03 19:03:34.
