data_PCOD9368920
_publ_section_title
;
Structure prediction by ZEFSAII (Michael W. Deem and Ramdas Pophale) SiO2 
 PCOD9368920
Probable space group: F M M 2
;
_chemical_formula_sum "Si O2"
_cell_formula_units_Z 112
_cell_length_a 14.271113
_cell_length_b 15.366240
_cell_length_c 23.771603
_cell_angle_alpha 90.000000
_cell_angle_beta 90.000000
_cell_angle_gamma 90.000000
_cell_volume 5212.954396
_symmetry_space_group_name_H-M "F M M 2"
_symmetry_group_IT_number 42
_symmetry_cell_setting 'orthorhombic'
loop_
_space_group_symop_operation_xyz
x,y,z
-x,-y,z
-x,y,z
x,-y,z
x,1/2+y,1/2+z
-x,1/2-y,1/2+z
-x,1/2+y,1/2+z
x,1/2-y,1/2+z
1/2+x,y,1/2+z
1/2-x,-y,1/2+z
1/2-x,y,1/2+z
1/2+x,-y,1/2+z
1/2+x,1/2+y,z
1/2-x,1/2-y,z
1/2-x,1/2+y,z
1/2+x,1/2-y,z
loop_
_atom_site_type_symbol
_atom_site_label
_atom_site_fract_x
_atom_site_fract_y
_atom_site_fract_z
Si Si1 0.314365 0.102476 0.592530
Si Si2 0.401010 0.639562 0.772207
Si Si3 0.394573 0.599444 0.571086
Si Si4 0.307414 0.596202 0.295016
Si Si5 0.391206 0.723528 0.999801
Si Si6 0.854912 0.713796 0.693951
Si Si7 0.607329 0.725512 0.375412
O O1 0.202283 0.106234 0.606247
O O2 0.331407 0.152774 0.533987
O O3 0.372292 0.160795 0.637145
O O4 0.339964 0.000000 0.591780
O O5 0.500000 0.591905 0.775010
O O6 0.300945 0.593868 0.775614
O O7 0.404711 0.700840 0.717151
O O8 0.396486 0.702086 0.826855
O O9 0.500000 0.606071 0.596944
O O10 0.390274 0.500000 0.547039
O O11 0.387705 0.680863 0.528655
O O12 0.343210 0.500000 0.303183
O O13 0.360574 0.645066 0.244742
O O14 0.324273 0.652414 0.350828
O O15 0.500000 0.695104 0.002035
O O16 0.364174 0.735189 0.935026
O O17 0.750000 0.750000 0.689748
O O18 0.500000 0.691567 0.381971
#
# Coordination Sequence:
#
# PCOD9368920 Si02
#       7
#    16  16  16  16  16  16  16
#     4  11  22  36  58  87 121 160 201 252 311 366
#     4   9  19  36  57  81 111 151 194 233 285 352
#     4   9  19  35  54  79 111 150 200 250 295 352
#     4  10  20  34  56  87 118 146 186 244 299 349
#     4  10  21  37  57  81 114 155 197 247 306 367
#     4   9  18  35  57  80 111 154 200 242 286 346
#     4   9  19  37  58  78 106 148 195 242 292 349
#
# _framework density 21.484938
#
# number of rings (size 3 to 8) (size 9 to 14) (size 15 to 20)
#    0.000    2.429    0.000    3.000    0.000    4.286 
#    0.000    7.857    0.000    9.429    0.000    0.000 
#    0.000    0.000    0.000    0.000    0.000    0.000 
#
# Total GULP energy -156023.774078 kJ/mol
# GULP energy per Si atom -5572.277646 kJ/mol
# Density = 2.143604 g / cm^3
# Si number density = 21.484938 Si / 1000 Ang^3
#
#
#
# Elastic Constant Matrix: (Units=GPa)
#
#
# Indices 1 2 3 4 5 6 
#
# 1 86.8488 18.4645 14.2028 0.0000 0.0000 0.0000
# 2 18.4645 124.5705 56.5995 0.0000 0.0000 0.0000
# 3 14.2028 56.5995 110.0257 0.0000 0.0000 0.0000
# 4 0.0000 0.0000 0.0000 7.8664 0.0000 0.0000
# 5 0.0000 0.0000 0.0000 0.0000 -4.3640 0.0000
# 6 0.0000 0.0000 0.0000 0.0000 0.0000 0.9745
#
#
#
# Elastic Compliance Matrix: (Units=1/GPa)
#
#
# Indices 1 2 3 4 5 6 
#
# 1 0.011946 -0.001396 -0.000824 0.000000 0.000000 0.000000
# 2 -0.001396 0.010639 -0.005293 0.000000 0.000000 0.000000
# 3 -0.000824 -0.005293 0.011918 0.000000 0.000000 0.000000
# 4 0.000000 0.000000 0.000000 0.127123 0.000000 0.000000
# 5 0.000000 0.000000 0.000000 0.000000 -0.229150 0.000000
# 6 0.000000 0.000000 0.000000 0.000000 0.000000 1.026212
#
#
# Mechanical properties :
#
#
# Convention : Reuss Voigt Hill
#
# Bulk Modulus (GPa) = 51.34217 55.55316 53.44766
# Shear Modulus (GPa) = 5.10096 16.37393 10.73745
#
# Velocity S-wave (km/s) = 1.54252 2.76363 2.23797
# Velocity P-wave (km/s) = 5.20780 6.00803 5.62217
#
# Compressibility (1/GPa) = 0.01947717
#
# Stress axis : x y z
#
# Youngs Moduli (GPa) = 83.71103 93.99009 83.90762
#
# Poissons Ratio (x) = 0.13125 0.06911
# Poissons Ratio (y) = 0.11690 0.44411
# Poissons Ratio (z) = 0.06895 0.49748
#
# Static dielectric constant tensor:
#      x y z
#    x 1.901010 0.000000 0.000000 
#    y 0.000000 1.744610 0.000000 
#    z 0.000000 0.000000 1.775560 
# 
# From -- ./inp_files/29473.got.cif
#   From: 2010.05.17/outbox.cif.g08.bks.cpg/sg42_15_cif.got.tgz:29473.got - 2010.06.03 19:03:34.
