data_PCOD9368229
_publ_section_title
;
Structure prediction by ZEFSAII (Michael W. Deem and Ramdas Pophale) SiO2 
 PCOD9368229
Probable space group: F M M 2
;
_chemical_formula_sum "Si O2"
_cell_formula_units_Z 96
_cell_length_a 8.584223
_cell_length_b 19.221911
_cell_length_c 32.742574
_cell_angle_alpha 90.000000
_cell_angle_beta 90.000000
_cell_angle_gamma 90.000000
_cell_volume 5402.694006
_symmetry_space_group_name_H-M "F M M 2"
_symmetry_group_IT_number 42
_symmetry_cell_setting 'orthorhombic'
loop_
_space_group_symop_operation_xyz
x,y,z
-x,-y,z
-x,y,z
x,-y,z
x,1/2+y,1/2+z
-x,1/2-y,1/2+z
-x,1/2+y,1/2+z
x,1/2-y,1/2+z
1/2+x,y,1/2+z
1/2-x,-y,1/2+z
1/2-x,y,1/2+z
1/2+x,-y,1/2+z
1/2+x,1/2+y,z
1/2-x,1/2-y,z
1/2-x,1/2+y,z
1/2+x,1/2-y,z
loop_
_atom_site_type_symbol
_atom_site_label
_atom_site_fract_x
_atom_site_fract_y
_atom_site_fract_z
Si Si1 0.687401 0.828604 0.974760
Si Si2 0.812430 0.171340 0.645304
Si Si3 0.685973 0.329307 0.060006
Si Si4 0.319010 0.415429 0.308047
Si Si5 0.813005 0.579747 0.222002
Si Si6 0.690238 0.580344 0.397295
O O1 0.500000 0.826838 0.976802
O O2 0.750000 0.750000 0.970775
O O3 0.737122 0.873046 0.935496
O O4 0.751454 0.859401 0.017406
O O5 0.750000 0.250000 0.649187
O O6 0.749763 0.140647 0.602485
O O7 0.760061 0.126726 0.684297
O O8 0.000000 0.173156 0.643669
O O9 0.500000 0.328381 0.060189
O O10 0.750000 0.250000 0.059921
O O11 0.500000 0.395717 0.304869
O O12 0.311610 0.500000 0.309299
O O13 0.235270 0.393163 0.266664
O O14 0.257153 0.393226 0.352555
O O15 0.755592 0.500000 0.217940
O O16 0.000000 0.577894 0.220558
O O17 0.500000 0.580280 0.395843
O O18 0.738755 0.500000 0.402618
#
# Coordination Sequence:
#
# PCOD9368229 Si02
#       6
#    16  16  16  16  16  16
#     4  10  18  30  49  70  94 122 153 190 229 272
#     4  10  19  32  50  70  93 121 154 191 229 272
#     4  10  18  30  48  68  92 121 155 190 225 273
#     4   8  14  27  48  70  91 119 156 192 225 267
#     4   9  18  32  49  70  95 122 153 189 229 273
#     4   8  15  29  49  71  92 119 157 194 226 266
#
# _framework density 17.768913999999999
#
# number of rings (size 3 to 8) (size 9 to 14) (size 15 to 20)
#    0.000    2.833    0.000    5.500    0.000    1.333 
#    0.000    3.333    0.000   13.000    0.000    0.000 
#    0.000    0.000    0.000    0.000    0.000    0.000 
#
# Total GULP energy -133674.669324 kJ/mol
# GULP energy per Si atom -5569.777888 kJ/mol
# Density = 1.772847 g / cm^3
# Si number density = 17.768914 Si / 1000 Ang^3
#
#
#
# Elastic Constant Matrix: (Units=GPa)
#
#
# Indices 1 2 3 4 5 6 
#
# 1 52.7779 13.8000 40.7533 0.0000 0.0000 0.0000
# 2 13.8000 38.7304 64.4262 0.0000 0.0000 0.0000
# 3 40.7533 64.4262 226.2219 0.0000 0.0000 0.0000
# 4 0.0000 0.0000 0.0000 34.0521 0.0000 0.0000
# 5 0.0000 0.0000 0.0000 0.0000 -14.8932 0.0000
# 6 0.0000 0.0000 0.0000 0.0000 0.0000 14.0585
#
#
#
# Elastic Compliance Matrix: (Units=1/GPa)
#
#
# Indices 1 2 3 4 5 6 
#
# 1 0.022124 -0.002381 -0.003307 0.000000 0.000000 0.000000
# 2 -0.002381 0.049318 -0.013616 0.000000 0.000000 0.000000
# 3 -0.003307 -0.013616 0.008894 0.000000 0.000000 0.000000
# 4 0.000000 0.000000 0.000000 0.029367 0.000000 0.000000
# 5 0.000000 0.000000 0.000000 0.000000 -0.067145 0.000000
# 6 0.000000 0.000000 0.000000 0.000000 0.000000 0.071131
#
#
# Mechanical properties :
#
#
# Convention : Reuss Voigt Hill
#
# Bulk Modulus (GPa) = 23.96583 61.74323 42.85453
# Shear Modulus (GPa) = 30.08275 19.89354 24.98815
#
# Velocity S-wave (km/s) = 4.11907 3.34963 3.75411
# Velocity P-wave (km/s) = 6.01158 7.05573 6.55448
#
# Compressibility (1/GPa) = 0.04172608
#
# Stress axis : x y z
#
# Youngs Moduli (GPa) = 45.20014 20.27644 112.43379
#
# Poissons Ratio (x) = 0.04828 0.37186
# Poissons Ratio (y) = 0.10763 1.53095
# Poissons Ratio (z) = 0.14950 0.27609
#
# Static dielectric constant tensor:
#      x y z
#    x 1.625990 0.000000 0.000000 
#    y 0.000000 1.598350 0.000000 
#    z 0.000000 0.000000 1.655340 
# 
# From -- ./inp_files/28056.got.cif
#   From: 2010.05.17/outbox.cif.g08.bks.cpg/sg42_15_cif.got.tgz:28056.got - 2010.06.03 19:03:34.
