data_PCOD9368981
_publ_section_title
;
Structure prediction by ZEFSAII (Michael W. Deem and Ramdas Pophale) SiO2 
 PCOD9368981
Probable space group: F M M 2
;
_chemical_formula_sum "Si O2"
_cell_formula_units_Z 64
_cell_length_a 10.117554
_cell_length_b 14.119087
_cell_length_c 18.828941
_cell_angle_alpha 90.000000
_cell_angle_beta 90.000000
_cell_angle_gamma 90.000000
_cell_volume 2689.725993
_symmetry_space_group_name_H-M "F M M 2"
_symmetry_group_IT_number 42
_symmetry_cell_setting 'orthorhombic'
loop_
_space_group_symop_operation_xyz
x,y,z
-x,-y,z
-x,y,z
x,-y,z
x,1/2+y,1/2+z
-x,1/2-y,1/2+z
-x,1/2+y,1/2+z
x,1/2-y,1/2+z
1/2+x,y,1/2+z
1/2-x,-y,1/2+z
1/2-x,y,1/2+z
1/2+x,-y,1/2+z
1/2+x,1/2+y,z
1/2-x,1/2-y,z
1/2-x,1/2+y,z
1/2+x,1/2-y,z
loop_
_atom_site_type_symbol
_atom_site_label
_atom_site_fract_x
_atom_site_fract_y
_atom_site_fract_z
Si Si1 0.853627 0.845004 0.197860
Si Si2 0.647909 0.614571 0.947757
Si Si3 0.640047 0.851696 0.286540
Si Si4 0.346220 0.385457 0.570417
O O1 0.769638 0.900481 0.256650
O O2 0.870806 0.744527 0.239649
O O3 0.757404 0.850642 0.129900
O O4 0.000000 0.878763 0.179851
O O5 0.500000 0.635471 0.978234
O O6 0.652384 0.500000 0.937602
O O7 0.653495 0.661479 0.870345
O O8 0.772150 0.639645 0.997028
O O9 0.500000 0.900585 0.274455
O O10 0.500000 0.352081 0.577180
O O11 0.350198 0.500000 0.575274
#
# Coordination Sequence:
#
# PCOD9368981 Si02
#       4
#    16  16  16  16
#     4  10  20  35  56  82 115 155 198 241 285 341
#     4   9  18  35  60  87 115 149 190 237 291 351
#     4   9  19  36  56  82 117 154 193 237 287 343
#     4  10  21  37  58  85 117 152 193 243 295 347
#
# _framework density 23.794245
#
# number of rings (size 3 to 8) (size 9 to 14) (size 15 to 20)
#    0.000    2.500    0.000    1.500    0.000    4.500 
#    0.000    7.500    0.000   15.000    0.000    0.000 
#    0.000    0.000    0.000    0.000    0.000    0.000 
#
# Total GULP energy -89096.448005 kJ/mol
# GULP energy per Si atom -5568.528000 kJ/mol
# Density = 2.374009 g / cm^3
# Si number density = 23.794245 Si / 1000 Ang^3
#
#
#
# Elastic Constant Matrix: (Units=GPa)
#
#
# Indices 1 2 3 4 5 6 
#
# 1 303.1950 29.5652 109.0806 0.0000 0.0000 0.0000
# 2 29.5652 101.5569 19.1853 0.0000 0.0000 0.0000
# 3 109.0806 19.1853 148.1171 0.0000 0.0000 0.0000
# 4 0.0000 0.0000 0.0000 19.0730 0.0000 0.0000
# 5 0.0000 0.0000 0.0000 0.0000 38.7931 0.0000
# 6 0.0000 0.0000 0.0000 0.0000 0.0000 4.8019
#
#
#
# Elastic Compliance Matrix: (Units=1/GPa)
#
#
# Indices 1 2 3 4 5 6 
#
# 1 0.004536 -0.000707 -0.003249 0.000000 0.000000 0.000000
# 2 -0.000707 0.010204 -0.000801 0.000000 0.000000 0.000000
# 3 -0.003249 -0.000801 0.009248 0.000000 0.000000 0.000000
# 4 0.000000 0.000000 0.000000 0.052430 0.000000 0.000000
# 5 0.000000 0.000000 0.000000 0.000000 0.025778 0.000000
# 6 0.000000 0.000000 0.000000 0.000000 0.000000 0.208250
#
#
# Mechanical properties :
#
#
# Convention : Reuss Voigt Hill
#
# Bulk Modulus (GPa) = 69.09013 96.50346 82.79680
# Shear Modulus (GPa) = 15.39485 38.86946 27.13216
#
# Velocity S-wave (km/s) = 2.54638 4.04612 3.38047
# Velocity P-wave (km/s) = 6.14369 7.90403 7.07879
#
# Compressibility (1/GPa) = 0.01447385
#
# Stress axis : x y z
#
# Youngs Moduli (GPa) = 220.45759 98.00272 108.13247
#
# Poissons Ratio (x) = 0.06926 0.35132
# Poissons Ratio (y) = 0.15581 0.08664
# Poissons Ratio (z) = 0.71627 0.07852
#
# Static dielectric constant tensor:
#      x y z
#    x 2.065000 0.000000 0.000000 
#    y 0.000000 2.083820 0.000000 
#    z 0.000000 0.000000 1.894280 
# 
# From -- ./inp_files/23162.got.cif
#   From: 2010.05.17/outbox.cif.g08.bks.cpg/sg42_12_cif.got.tgz:23162.got - 2010.06.03 19:03:34.
