data_PCOD9368683
_publ_section_title
;
Structure prediction by ZEFSAII (Michael W. Deem and Ramdas Pophale) SiO2 
 PCOD9368683
Probable space group: F M M 2
;
_chemical_formula_sum "Si O2"
_cell_formula_units_Z 96
_cell_length_a 14.767388
_cell_length_b 22.413355
_cell_length_c 14.062893
_cell_angle_alpha 90.000000
_cell_angle_beta 90.000000
_cell_angle_gamma 90.000000
_cell_volume 4654.630682
_symmetry_space_group_name_H-M "F M M 2"
_symmetry_group_IT_number 42
_symmetry_cell_setting 'orthorhombic'
loop_
_space_group_symop_operation_xyz
x,y,z
-x,-y,z
-x,y,z
x,-y,z
x,1/2+y,1/2+z
-x,1/2-y,1/2+z
-x,1/2+y,1/2+z
x,1/2-y,1/2+z
1/2+x,y,1/2+z
1/2-x,-y,1/2+z
1/2-x,y,1/2+z
1/2+x,-y,1/2+z
1/2+x,1/2+y,z
1/2-x,1/2-y,z
1/2-x,1/2+y,z
1/2+x,1/2-y,z
loop_
_atom_site_type_symbol
_atom_site_label
_atom_site_fract_x
_atom_site_fract_y
_atom_site_fract_z
Si Si1 0.315547 0.431800 0.933660
Si Si2 0.000000 0.692499 0.597140
Si Si3 0.500000 0.563494 0.049336
Si Si4 0.000000 0.432219 0.891725
Si Si5 0.852717 0.611171 0.036115
Si Si6 0.000000 0.703191 0.815226
Si Si7 0.141377 0.741449 0.969827
Si Si8 0.897072 0.072054 0.746783
O O1 0.281366 0.500000 0.926429
O O2 0.330243 0.405405 0.828871
O O3 0.413213 0.434596 0.981659
O O4 0.248670 0.396196 0.999850
O O5 0.000000 0.621673 0.611892
O O6 0.000000 0.718684 0.703593
O O7 0.087155 0.710118 0.532786
O O8 0.500000 0.500000 0.101474
O O9 0.000000 0.500000 0.850197
O O10 0.000000 0.369662 0.831753
O O11 0.085516 0.425235 0.962279
O O12 0.877053 0.680150 0.026947
O O13 0.866706 0.588347 0.141825
O O14 0.087499 0.730494 0.870673
O O15 0.250000 0.750000 0.959866
O O16 0.000000 0.093285 0.761971
O O17 0.898229 0.000000 0.756035
#
# Coordination Sequence:
#
# PCOD9368683 Si02
#       8
#    16   8   8   8  16   8  16  16
#     4  10  20  37  59  92 131 164 205 258 311 372
#     4  11  23  45  67  94 124 163 212 261 307 373
#     4  10  21  40  65  90 129 168 198 252 321 376
#     4  10  19  36  63  92 131 168 194 250 317 372
#     4  11  21  38  61  92 126 165 212 259 309 370
#     4   9  23  43  67  94 124 159 214 257 303 377
#     4  10  23  46  64  88 126 166 211 263 312 360
#     4  10  19  35  62  92 125 167 213 258 308 365
#
# _framework density 20.624623
#
# number of rings (size 3 to 8) (size 9 to 14) (size 15 to 20)
#    0.000    1.833    1.667    3.000    0.000    1.000 
#   21.000    0.000    0.000    0.000    0.000    0.000 
#    0.000    0.000    0.000    0.000    0.000    0.000 
#
# Total GULP energy -133947.563050 kJ/mol
# GULP energy per Si atom -5581.148460 kJ/mol
# Density = 2.057768 g / cm^3
# Si number density = 20.624623 Si / 1000 Ang^3
#
#
#
# Elastic Constant Matrix: (Units=GPa)
#
#
# Indices 1 2 3 4 5 6 
#
# 1 116.2898 20.6851 24.1460 0.0000 0.0000 0.0000
# 2 20.6851 75.7417 17.2023 0.0000 0.0000 0.0000
# 3 24.1460 17.2023 86.3414 0.0000 0.0000 0.0000
# 4 0.0000 0.0000 0.0000 8.9918 0.0000 0.0000
# 5 0.0000 0.0000 0.0000 0.0000 11.4150 0.0000
# 6 0.0000 0.0000 0.0000 0.0000 0.0000 24.7688
#
#
#
# Elastic Compliance Matrix: (Units=1/GPa)
#
#
# Indices 1 2 3 4 5 6 
#
# 1 0.009429 -0.002070 -0.002225 0.000000 0.000000 0.000000
# 2 -0.002070 0.014283 -0.002267 0.000000 0.000000 0.000000
# 3 -0.002225 -0.002267 0.012656 0.000000 0.000000 0.000000
# 4 0.000000 0.000000 0.000000 0.111213 0.000000 0.000000
# 5 0.000000 0.000000 0.000000 0.000000 0.087604 0.000000
# 6 0.000000 0.000000 0.000000 0.000000 0.000000 0.040373
#
#
# Mechanical properties :
#
#
# Convention : Reuss Voigt Hill
#
# Bulk Modulus (GPa) = 43.01944 44.71553 43.86748
# Shear Modulus (GPa) = 16.86744 23.45775 20.16259
#
# Velocity S-wave (km/s) = 2.86288 3.37614 3.13005
# Velocity P-wave (km/s) = 5.64195 6.07664 5.86333
#
# Compressibility (1/GPa) = 0.02324530
#
# Stress axis : x y z
#
# Youngs Moduli (GPa) = 106.05251 70.01382 79.01595
#
# Poissons Ratio (x) = 0.14492 0.17578
# Poissons Ratio (y) = 0.21952 0.17911
# Poissons Ratio (z) = 0.23592 0.15871
#
# Static dielectric constant tensor:
#      x y z
#    x 1.720860 0.000000 0.000000 
#    y 0.000000 1.825070 0.000000 
#    z 0.000000 0.000000 1.690660 
# 
# From -- ./inp_files/14072.got.cif
#   From: 2010.05.17/outbox.cif.g08.bks.cpg/sg42_8_cif.got.tgz:14072.got - 2010.06.03 19:03:34.
