data_PCOD9368443
_publ_section_title
;
Structure prediction by ZEFSAII (Michael W. Deem and Ramdas Pophale) SiO2 
 PCOD9368443
Probable space group: F M M 2
;
_chemical_formula_sum "Si O2"
_cell_formula_units_Z 72
_cell_length_a 14.969683
_cell_length_b 7.495362
_cell_length_c 25.440882
_cell_angle_alpha 90.000000
_cell_angle_beta 90.000000
_cell_angle_gamma 90.000000
_cell_volume 2854.548196
_symmetry_space_group_name_H-M "F M M 2"
_symmetry_group_IT_number 42
_symmetry_cell_setting 'orthorhombic'
loop_
_space_group_symop_operation_xyz
x,y,z
-x,-y,z
-x,y,z
x,-y,z
x,1/2+y,1/2+z
-x,1/2-y,1/2+z
-x,1/2+y,1/2+z
x,1/2-y,1/2+z
1/2+x,y,1/2+z
1/2-x,-y,1/2+z
1/2-x,y,1/2+z
1/2+x,-y,1/2+z
1/2+x,1/2+y,z
1/2-x,1/2-y,z
1/2-x,1/2+y,z
1/2+x,1/2-y,z
loop_
_atom_site_type_symbol
_atom_site_label
_atom_site_fract_x
_atom_site_fract_y
_atom_site_fract_z
Si Si1 0.892718 0.296019 0.368400
Si Si2 0.608491 0.804015 0.752977
Si Si3 0.647854 0.211275 0.482979
Si Si4 0.171038 0.000000 0.674933
Si Si5 0.398978 0.711175 0.097141
O O1 0.858447 0.500000 0.366062
O O2 0.865922 0.203233 0.314381
O O3 0.869213 0.213468 0.424827
O O4 0.000000 0.302665 0.367673
O O5 0.500000 0.777365 0.750126
O O6 0.656640 0.654241 0.720319
O O7 0.629022 0.000000 0.730812
O O8 0.750000 0.250000 0.495027
O O9 0.598498 0.266491 0.535892
O O10 0.628818 0.000000 0.477854
O O11 0.161962 0.156809 0.629583
O O12 0.500000 0.729123 0.119067
O O13 0.374491 0.500000 0.099884
#
# Coordination Sequence:
#
# PCOD9368443 Si02
#       5
#    16  16  16   8  16
#     4   9  17  34  59  86 118 154 192 240 295 348
#     4  10  19  31  52  87 123 152 188 237 295 351
#     4  10  22  38  59  86 115 159 197 242 294 349
#     4  12  21  34  58  88 122 156 193 240 293 350
#     4  10  21  37  58  88 121 153 194 244 293 345
#
# _framework density 25.222905000000001
#
# number of rings (size 3 to 8) (size 9 to 14) (size 15 to 20)
#    0.000    2.000    1.111    3.333    1.556    5.333 
#    0.000    0.000    0.000    1.333    5.778    0.000 
#    0.000    0.000    0.000    0.000    0.000    0.000 
#
# Total GULP energy -100232.698541 kJ/mol
# GULP energy per Si atom -5568.483252 kJ/mol
# Density = 2.516550 g / cm^3
# Si number density = 25.222905 Si / 1000 Ang^3
#
#
#
# Elastic Constant Matrix: (Units=GPa)
#
#
# Indices 1 2 3 4 5 6 
#
# 1 58.7929 30.3208 14.0842 0.0000 0.0000 0.0000
# 2 30.3208 148.9686 61.3511 0.0000 0.0000 0.0000
# 3 14.0842 61.3511 209.8273 0.0000 0.0000 0.0000
# 4 0.0000 0.0000 0.0000 24.0006 0.0000 0.0000
# 5 0.0000 0.0000 0.0000 0.0000 -70.3739 0.0000
# 6 0.0000 0.0000 0.0000 0.0000 0.0000 8.4862
#
#
#
# Elastic Compliance Matrix: (Units=1/GPa)
#
#
# Indices 1 2 3 4 5 6 
#
# 1 0.019009 -0.003801 -0.000164 0.000000 0.000000 0.000000
# 2 -0.003801 0.008392 -0.002199 0.000000 0.000000 0.000000
# 3 -0.000164 -0.002199 0.005420 0.000000 0.000000 0.000000
# 4 0.000000 0.000000 0.000000 0.041666 0.000000 0.000000
# 5 0.000000 0.000000 0.000000 0.000000 -0.014210 0.000000
# 6 0.000000 0.000000 0.000000 0.000000 0.000000 0.117838
#
#
# Mechanical properties :
#
#
# Convention : Reuss Voigt Hill
#
# Bulk Modulus (GPa) = 48.80014 69.90011 59.35012
# Shear Modulus (GPa) = 25.34551 13.21142 19.27846
#
# Velocity S-wave (km/s) = 3.17339 2.29112 2.76764
# Velocity P-wave (km/s) = 5.72859 5.89679 5.81330
#
# Compressibility (1/GPa) = 0.02049175
#
# Stress axis : x y z
#
# Youngs Moduli (GPa) = 52.60767 119.16138 184.51197
#
# Poissons Ratio (x) = 0.45296 0.03035
# Poissons Ratio (y) = 0.19997 0.40566
# Poissons Ratio (z) = 0.00865 0.26198
#
# Static dielectric constant tensor:
#      x y z
#    x 2.065900 0.000000 0.000000 
#    y 0.000000 2.081430 0.000000 
#    z 0.000000 0.000000 1.987710 
# 
# From -- ./inp_files/30063.got.cif
#   From: 2010.05.17/outbox.cif.g08.bks.cpg/sg42_16_cif.got.tgz:30063.got - 2010.06.03 19:03:34.
