data_PCOD9368912
_publ_section_title
;
Structure prediction by ZEFSAII (Michael W. Deem and Ramdas Pophale) SiO2 
 PCOD9368912
Probable space group: F M M 2
;
_chemical_formula_sum "Si O2"
_cell_formula_units_Z 80
_cell_length_a 8.773289
_cell_length_b 15.917769
_cell_length_c 29.604441
_cell_angle_alpha 90.000000
_cell_angle_beta 90.000000
_cell_angle_gamma 90.000000
_cell_volume 4134.295346
_symmetry_space_group_name_H-M "F M M 2"
_symmetry_group_IT_number 42
_symmetry_cell_setting 'orthorhombic'
loop_
_space_group_symop_operation_xyz
x,y,z
-x,-y,z
-x,y,z
x,-y,z
x,1/2+y,1/2+z
-x,1/2-y,1/2+z
-x,1/2+y,1/2+z
x,1/2-y,1/2+z
1/2+x,y,1/2+z
1/2-x,-y,1/2+z
1/2-x,y,1/2+z
1/2+x,-y,1/2+z
1/2+x,1/2+y,z
1/2-x,1/2-y,z
1/2-x,1/2+y,z
1/2+x,1/2-y,z
loop_
_atom_site_type_symbol
_atom_site_label
_atom_site_fract_x
_atom_site_fract_y
_atom_site_fract_z
Si Si1 0.324543 0.403385 0.588850
Si Si2 0.317428 0.500000 0.942708
Si Si3 0.685125 0.500000 0.342548
Si Si4 0.315738 0.161656 0.993871
Si Si5 0.816212 0.156953 0.279829
Si Si6 0.818573 0.842249 0.178023
O O1 0.500000 0.379330 0.597714
O O2 0.321950 0.500000 0.573632
O O3 0.267332 0.350096 0.546413
O O4 0.236506 0.395125 0.635540
O O5 0.500000 0.500000 0.946427
O O6 0.263882 0.500000 0.890899
O O7 0.249438 0.417025 0.966439
O O8 0.500000 0.500000 0.347552
O O9 0.727717 0.416166 0.314512
O O10 0.500000 0.160546 0.992194
O O11 0.250000 0.250000 0.977004
O O12 0.750000 0.250000 0.288816
O O13 0.771159 0.130713 0.228570
O O14 0.000000 0.163530 0.280801
O O15 0.750000 0.750000 0.171334
O O16 0.000000 0.838487 0.177521
#
# Coordination Sequence:
#
# PCOD9368912 Si02
#       6
#    16   8   8  16  16  16
#     4  10  21  37  57  86 123 161 201 246 296 351
#     4  12  26  44  65  94 123 155 204 255 309 374
#     4  10  22  42  65  86 117 159 196 249 313 364
#     4  11  23  43  67  92 124 163 204 252 306 364
#     4   9  20  38  61  87 120 158 201 246 297 355
#     4  10  20  34  55  84 119 159 202 245 290 349
#
# _framework density 19.350334
#
# number of rings (size 3 to 8) (size 9 to 14) (size 15 to 20)
#    0.000    1.800    1.000    2.700    1.400    6.000 
#    0.000    2.000    0.000    0.000    0.000    0.000 
#    0.000    0.000    0.000    0.000    0.000    0.000 
#
# Total GULP energy -111676.803991 kJ/mol
# GULP energy per Si atom -5583.840200 kJ/mol
# Density = 1.930629 g / cm^3
# Si number density = 19.350334 Si / 1000 Ang^3
#
#
#
# Elastic Constant Matrix: (Units=GPa)
#
#
# Indices 1 2 3 4 5 6 
#
# 1 53.6559 42.5359 47.3649 0.0000 0.0000 0.0000
# 2 42.5359 134.2171 84.7891 0.0000 0.0000 0.0000
# 3 47.3649 84.7891 129.5873 0.0000 0.0000 0.0000
# 4 0.0000 0.0000 0.0000 7.7844 0.0000 0.0000
# 5 0.0000 0.0000 0.0000 0.0000 28.5335 0.0000
# 6 0.0000 0.0000 0.0000 0.0000 0.0000 28.8700
#
#
#
# Elastic Compliance Matrix: (Units=1/GPa)
#
#
# Indices 1 2 3 4 5 6 
#
# 1 0.028859 -0.004231 -0.007780 0.000000 0.000000 0.000000
# 2 -0.004231 0.013321 -0.007169 0.000000 0.000000 0.000000
# 3 -0.007780 -0.007169 0.015251 0.000000 0.000000 0.000000
# 4 0.000000 0.000000 0.000000 0.128463 0.000000 0.000000
# 5 0.000000 0.000000 0.000000 0.000000 0.035046 0.000000
# 6 0.000000 0.000000 0.000000 0.000000 0.000000 0.034638
#
#
# Mechanical properties :
#
#
# Convention : Reuss Voigt Hill
#
# Bulk Modulus (GPa) = 52.43660 74.09337 63.26499
# Shear Modulus (GPa) = 16.65029 22.55559 19.60294
#
# Velocity S-wave (km/s) = 2.93655 3.41786 3.18630
# Velocity P-wave (km/s) = 6.21733 7.34502 6.80457
#
# Compressibility (1/GPa) = 0.01907065
#
# Stress axis : x y z
#
# Youngs Moduli (GPa) = 34.65100 75.07211 65.56944
#
# Poissons Ratio (x) = 0.31766 0.51010
# Poissons Ratio (y) = 0.14662 0.47007
# Poissons Ratio (z) = 0.26957 0.53819
#
# Static dielectric constant tensor:
#      x y z
#    x 1.659290 0.000000 0.000000 
#    y 0.000000 1.666110 0.000000 
#    z 0.000000 0.000000 1.682200 
# 
# From -- ./inp_files/31286.got.cif
#   From: 2010.05.17/outbox.cif.g08.bks.cpg/sg42_16_cif.got.tgz:31286.got - 2010.06.03 19:03:34.
