data_PCOD9368873
_publ_section_title
;
Structure prediction by ZEFSAII (Michael W. Deem and Ramdas Pophale) SiO2 
 PCOD9368873
Probable space group: F M M 2
;
_chemical_formula_sum "Si O2"
_cell_formula_units_Z 116
_cell_length_a 31.158790
_cell_length_b 7.817291
_cell_length_c 25.870105
_cell_angle_alpha 90.000000
_cell_angle_beta 90.000000
_cell_angle_gamma 90.000000
_cell_volume 6301.371067
_symmetry_space_group_name_H-M "F M M 2"
_symmetry_group_IT_number 42
_symmetry_cell_setting 'orthorhombic'
loop_
_space_group_symop_operation_xyz
x,y,z
-x,-y,z
-x,y,z
x,-y,z
x,1/2+y,1/2+z
-x,1/2-y,1/2+z
-x,1/2+y,1/2+z
x,1/2-y,1/2+z
1/2+x,y,1/2+z
1/2-x,-y,1/2+z
1/2-x,y,1/2+z
1/2+x,-y,1/2+z
1/2+x,1/2+y,z
1/2-x,1/2-y,z
1/2-x,1/2+y,z
1/2+x,1/2-y,z
loop_
_atom_site_type_symbol
_atom_site_label
_atom_site_fract_x
_atom_site_fract_y
_atom_site_fract_z
Si Si1 0.000000 0.500000 0.169245
Si Si2 0.061789 0.698616 0.635495
Si Si3 0.700923 0.793728 0.885239
Si Si4 0.655096 0.298649 0.665428
Si Si5 0.639508 0.794662 0.976030
Si Si6 0.298093 0.705005 0.565782
Si Si7 0.452282 0.204574 0.514567
Si Si8 0.798965 0.295897 0.768113
O O1 0.963319 0.654032 0.165977
O O2 0.047479 0.500000 0.641297
O O3 0.111121 0.706489 0.651786
O O4 0.056043 0.747824 0.574849
O O5 0.750000 0.750000 0.900385
O O6 0.665347 0.731003 0.925749
O O7 0.693450 0.730790 0.826592
O O8 0.698630 0.000000 0.884012
O O9 0.648177 0.500000 0.656547
O O10 0.690638 0.237774 0.623861
O O11 0.670523 0.272915 0.723611
O O12 0.643269 0.000000 0.975771
O O13 0.665775 0.729639 0.026122
O O14 0.589134 0.757392 0.981630
O O15 0.300323 0.500000 0.564900
O O16 0.250000 0.750000 0.550071
O O17 0.500000 0.271226 0.500247
O O18 0.454027 0.000000 0.511866
O O19 0.803182 0.500000 0.768776
O O20 0.750000 0.250000 0.754889
#
# Coordination Sequence:
#
# PCOD9368873 Si02
#       8
#     4  16  16  16  16  16  16  16
#     4  12  22  36  60  82 116 156 190 244 284 342
#     4  11  22  36  56  84 116 152 192 236 288 343
#     4   9  19  35  55  79 107 142 188 234 281 337
#     4  11  21  35  53  80 112 149 190 231 284 344
#     4  10  20  34  53  77 107 142 182 226 281 343
#     4  10  21  32  47  72 108 146 181 218 271 340
#     4  10  21  35  52  79 109 142 184 229 278 338
#     4  10  20  35  54  78 108 145 190 241 284 333
#
# _framework density 18.408691999999999
#
# number of rings (size 3 to 8) (size 9 to 14) (size 15 to 20)
#    0.000    1.793    2.759    1.862    0.966    4.138 
#    0.000    0.000    0.000    0.000    1.793    0.000 
#    0.000    0.000    0.000    0.000    0.000    0.000 
#
# Total GULP energy -161527.934772 kJ/mol
# GULP energy per Si atom -5569.928785 kJ/mol
# Density = 1.836679 g / cm^3
# Si number density = 18.408692 Si / 1000 Ang^3
#
#
#
# Elastic Constant Matrix: (Units=GPa)
#
#
# Indices 1 2 3 4 5 6 
#
# 1 154.1754 10.2512 66.1363 0.0000 0.0000 0.0001
# 2 10.2512 53.7108 9.0766 -0.0003 -0.0001 -0.0001
# 3 66.1363 9.0766 79.3199 0.0000 0.0000 0.0000
# 4 0.0000 -0.0003 0.0000 14.8509 0.0000 0.0000
# 5 0.0000 -0.0001 0.0000 0.0000 37.9031 0.0001
# 6 0.0001 -0.0001 0.0000 0.0000 0.0001 20.6735
#
#
#
# Elastic Compliance Matrix: (Units=1/GPa)
#
#
# Indices 1 2 3 4 5 6 
#
# 1 0.010112 -0.000515 -0.008372 0.000000 0.000000 0.000000
# 2 -0.000515 0.019012 -0.001746 0.000000 0.000000 0.000000
# 3 -0.008372 -0.001746 0.019788 0.000000 0.000000 0.000000
# 4 0.000000 0.000000 0.000000 0.067336 0.000000 0.000000
# 5 0.000000 0.000000 0.000000 0.000000 0.026383 0.000000
# 6 0.000000 0.000000 0.000000 0.000000 0.000000 0.048371
#
#
# Mechanical properties :
#
#
# Convention : Reuss Voigt Hill
#
# Bulk Modulus (GPa) = 36.17365 50.90382 43.53874
# Shear Modulus (GPa) = 22.57515 28.13497 25.35506
#
# Velocity S-wave (km/s) = 3.50570 3.91366 3.71528
# Velocity P-wave (km/s) = 6.00663 6.93789 6.48899
#
# Compressibility (1/GPa) = 0.02764443
#
# Stress axis : x y z
#
# Youngs Moduli (GPa) = 98.89473 52.59945 50.53666
#
# Poissons Ratio (x) = 0.02710 0.42310
# Poissons Ratio (y) = 0.05094 0.08824
# Poissons Ratio (z) = 0.82796 0.09184
#
# Static dielectric constant tensor:
#      x y z
#    x 1.627720 0.000000 0.000000 
#    y 0.000000 1.669580 0.000000 
#    z 0.000000 0.000000 1.640800 
# 
# From -- ./inp_files/28487.got.cif
#   From: 2010.05.17/outbox.cif.g08.bks.cpg/sg42_15_cif.got.tgz:28487.got - 2010.06.03 19:03:34.
