data_PCOD9368445
_publ_section_title
;
Structure prediction by ZEFSAII (Michael W. Deem and Ramdas Pophale) SiO2 
 PCOD9368445
Probable space group: F M M 2
;
_chemical_formula_sum "Si O2"
_cell_formula_units_Z 104
_cell_length_a 23.590434
_cell_length_b 14.145156
_cell_length_c 15.697734
_cell_angle_alpha 90.000000
_cell_angle_beta 90.000000
_cell_angle_gamma 90.000000
_cell_volume 5238.182652
_symmetry_space_group_name_H-M "F M M 2"
_symmetry_group_IT_number 42
_symmetry_cell_setting 'orthorhombic'
loop_
_space_group_symop_operation_xyz
x,y,z
-x,-y,z
-x,y,z
x,-y,z
x,1/2+y,1/2+z
-x,1/2-y,1/2+z
-x,1/2+y,1/2+z
x,1/2-y,1/2+z
1/2+x,y,1/2+z
1/2-x,-y,1/2+z
1/2-x,y,1/2+z
1/2+x,-y,1/2+z
1/2+x,1/2+y,z
1/2-x,1/2-y,z
1/2-x,1/2+y,z
1/2+x,1/2-y,z
loop_
_atom_site_type_symbol
_atom_site_label
_atom_site_fract_x
_atom_site_fract_y
_atom_site_fract_z
Si Si1 0.659279 0.608815 0.517850
Si Si2 0.659279 0.108815 0.379720
Si Si3 0.250000 0.250000 0.448785
Si Si4 0.936260 0.809522 0.198785
Si Si5 0.400138 0.396370 0.698785
Si Si6 0.434462 0.386433 0.377282
Si Si7 0.065538 0.613567 0.520288
O O1 0.675587 0.500000 0.496782
O O2 0.709704 0.681510 0.503136
O O3 0.637523 0.609436 0.614170
O O4 0.606665 0.635111 0.455895
O O5 0.709704 0.181510 0.394434
O O6 0.637523 0.109436 0.283400
O O7 0.606665 0.135111 0.441676
O O8 0.675587 0.000000 0.400788
O O9 0.937840 0.696697 0.198785
O O10 0.911235 0.843967 0.288496
O O11 0.911235 0.843967 0.109074
O O12 0.000000 0.850273 0.198785
O O13 0.428637 0.500000 0.698785
O O14 0.500000 0.354787 0.390789
O O15 0.435697 0.500000 0.368725
O O16 0.064303 0.500000 0.528845
O O17 0.000000 0.645213 0.506781
#
# Coordination Sequence:
#
# PCOD9368445 Si02
#       7
#    16  16   8  16  16  16  16
#     4  10  22  39  59  83 111 146 186 226 274 331
#     4  10  22  39  59  83 111 146 186 226 274 331
#     4  12  22  38  62  82 108 142 182 236 284 322
#     4  10  19  31  53  85 116 147 183 224 274 327
#     4  10  22  39  54  74 109 149 188 228 270 324
#     4   9  18  35  59  86 115 145 181 228 277 325
#     4   9  18  35  59  86 115 145 181 228 277 325
#
# _framework density 19.854215
#
# number of rings (size 3 to 8) (size 9 to 14) (size 15 to 20)
#    0.000    2.154    0.000    2.769    0.000    4.000 
#    0.000    8.462    0.000    3.692    0.000    0.000 
#    0.000    0.000    0.000    0.000    0.000    0.000 
#
# Total GULP energy -145127.094414 kJ/mol
# GULP energy per Si atom -5581.811324 kJ/mol
# Density = 1.980903 g / cm^3
# Si number density = 19.854215 Si / 1000 Ang^3
#
#
#
# Elastic Constant Matrix: (Units=GPa)
#
#
# Indices 1 2 3 4 5 6 
#
# 1 87.9894 47.5300 60.6693 0.0000 0.0000 0.0000
# 2 47.5300 99.5860 49.8511 0.0000 0.0000 0.0000
# 3 60.6693 49.8511 174.1393 0.0000 0.0000 0.0000
# 4 0.0000 0.0000 0.0000 -89.5518 0.0000 0.0000
# 5 0.0000 0.0000 0.0000 0.0000 151.9282 0.0000
# 6 0.0000 0.0000 0.0000 0.0000 0.0000 38.4873
#
#
#
# Elastic Compliance Matrix: (Units=1/GPa)
#
#
# Indices 1 2 3 4 5 6 
#
# 1 0.017797 -0.006292 -0.004399 0.000000 0.000000 0.000000
# 2 -0.006292 0.013946 -0.001800 0.000000 0.000000 0.000000
# 3 -0.004399 -0.001800 0.007791 0.000000 0.000000 0.000000
# 4 0.000000 0.000000 0.000000 -0.011167 0.000000 0.000000
# 5 0.000000 0.000000 0.000000 0.000000 0.006582 0.000000
# 6 0.000000 0.000000 0.000000 0.000000 0.000000 0.025983
#
#
# Mechanical properties :
#
#
# Convention : Reuss Voigt Hill
#
# Bulk Modulus (GPa) = 68.72545 75.31284 72.01915
# Shear Modulus (GPa) = 55.08790 33.75036 44.41913
#
# Velocity S-wave (km/s) = 5.27318 4.12747 4.73510
# Velocity P-wave (km/s) = 8.47145 7.79294 8.13927
#
# Compressibility (1/GPa) = 0.01455065
#
# Stress axis : x y z
#
# Youngs Moduli (GPa) = 56.18913 71.70678 128.36099
#
# Poissons Ratio (x) = 0.45117 0.56469
# Poissons Ratio (y) = 0.35354 0.23107
# Poissons Ratio (z) = 0.24719 0.12908
#
# Static dielectric constant tensor:
#      x y z
#    x 1.669350 0.000000 0.000000 
#    y 0.000000 1.732260 0.000000 
#    z 0.000000 0.000000 1.690970 
# 
# From -- ./inp_files/16555.got.cif
#   From: 2010.05.17/outbox.cif.g08.bks.cpg/sg42_9_cif.got.tgz:16555.got - 2010.06.03 19:03:34.
