data_PCOD9368982
_publ_section_title
;
Structure prediction by ZEFSAII (Michael W. Deem and Ramdas Pophale) SiO2 
 PCOD9368982
Probable space group: F M M 2
;
_chemical_formula_sum "Si O2"
_cell_formula_units_Z 92
_cell_length_a 7.724892
_cell_length_b 25.218241
_cell_length_c 27.621068
_cell_angle_alpha 90.000000
_cell_angle_beta 90.000000
_cell_angle_gamma 90.000000
_cell_volume 5380.810212
_symmetry_space_group_name_H-M "F M M 2"
_symmetry_group_IT_number 42
_symmetry_cell_setting 'orthorhombic'
loop_
_space_group_symop_operation_xyz
x,y,z
-x,-y,z
-x,y,z
x,-y,z
x,1/2+y,1/2+z
-x,1/2-y,1/2+z
-x,1/2+y,1/2+z
x,1/2-y,1/2+z
1/2+x,y,1/2+z
1/2-x,-y,1/2+z
1/2-x,y,1/2+z
1/2+x,-y,1/2+z
1/2+x,1/2+y,z
1/2-x,1/2-y,z
1/2-x,1/2+y,z
1/2+x,1/2-y,z
loop_
_atom_site_type_symbol
_atom_site_label
_atom_site_fract_x
_atom_site_fract_y
_atom_site_fract_z
Si Si1 0.000000 0.564160 0.786298
Si Si2 0.206701 0.690547 0.029941
Si Si3 0.708719 0.188284 0.142293
Si Si4 0.693547 0.437319 0.857659
Si Si5 0.701470 0.898339 0.960645
Si Si6 0.500000 0.500000 0.113955
Si Si7 0.000000 0.108465 0.178368
Si Si8 0.196157 0.000000 0.017903
O O1 0.833980 0.579526 0.818406
O O2 0.000000 0.589597 0.733736
O O3 0.000000 0.500000 0.780955
O O4 0.250000 0.750000 0.015868
O O5 0.260860 0.682632 0.085499
O O6 0.000000 0.683724 0.030369
O O7 0.279651 0.649508 0.991494
O O8 0.500000 0.179928 0.147415
O O9 0.750000 0.250000 0.155483
O O10 0.831098 0.145452 0.168508
O O11 0.500000 0.430555 0.838724
O O12 0.723474 0.500000 0.867153
O O13 0.712114 0.409626 0.909417
O O14 0.500000 0.888410 0.949829
O O15 0.714135 0.948582 0.996346
O O16 0.500000 0.554522 0.145124
O O17 0.662241 0.500000 0.075726
O O18 0.000000 0.000000 0.997199
#
# Coordination Sequence:
#
# PCOD9368982 Si02
#       8
#     8  16  16  16  16   4   8   8
#     4  10  22  40  60  83 114 153 193 238 302 352
#     4   9  20  33  51  81 116 153 191 229 277 340
#     4  10  20  38  61  92 118 155 207 251 291 348
#     4  10  20  35  56  83 113 145 197 247 281 342
#     4  11  19  32  53  82 116 154 191 232 283 338
#     4  10  24  38  50  90 132 168 192 232 304 374
#     4  12  22  40  66  85 123 159 198 251 307 362
#     4  10  21  31  47  79 116 152 190 216 272 345
#
# _framework density 17.097798000000001
#
# number of rings (size 3 to 8) (size 9 to 14) (size 15 to 20)
#    0.261    1.565    3.043    1.826    1.217    2.087 
#    0.000    1.304    0.000    1.043    0.000    0.000 
#    0.000    0.000    0.000    0.000    0.000    0.000 
#
# Total GULP energy -128213.352865 kJ/mol
# GULP energy per Si atom -5574.493603 kJ/mol
# Density = 1.705888 g / cm^3
# Si number density = 17.097798 Si / 1000 Ang^3
#
#
#
# Elastic Constant Matrix: (Units=GPa)
#
#
# Indices 1 2 3 4 5 6 
#
# 1 79.4947 36.6976 42.7092 0.0000 0.0000 0.0000
# 2 36.6976 97.8493 72.6754 0.0000 0.0000 0.0000
# 3 42.7092 72.6754 129.3880 0.0000 0.0000 0.0000
# 4 0.0000 0.0000 0.0000 20.3796 0.0000 0.0000
# 5 0.0000 0.0000 0.0000 0.0000 10.4714 0.0000
# 6 0.0000 0.0000 0.0000 0.0000 0.0000 20.8252
#
#
#
# Elastic Compliance Matrix: (Units=1/GPa)
#
#
# Indices 1 2 3 4 5 6 
#
# 1 0.015983 -0.003562 -0.003275 0.000000 0.000000 0.000000
# 2 -0.003562 0.018329 -0.009119 0.000000 0.000000 0.000000
# 3 -0.003275 -0.009119 0.013932 0.000000 0.000000 0.000000
# 4 0.000000 0.000000 0.000000 0.049069 0.000000 0.000000
# 5 0.000000 0.000000 0.000000 0.000000 0.095498 0.000000
# 6 0.000000 0.000000 0.000000 0.000000 0.000000 0.048019
#
#
# Mechanical properties :
#
#
# Convention : Reuss Voigt Hill
#
# Bulk Modulus (GPa) = 61.23182 67.87738 64.55460
# Shear Modulus (GPa) = 17.97355 20.64523 19.30939
#
# Velocity S-wave (km/s) = 3.24577 3.47865 3.36423
# Velocity P-wave (km/s) = 7.06662 7.47799 7.27521
#
# Compressibility (1/GPa) = 0.01633138
#
# Stress axis : x y z
#
# Youngs Moduli (GPa) = 62.56500 54.55897 71.77723
#
# Poissons Ratio (x) = 0.19433 0.23509
# Poissons Ratio (y) = 0.22284 0.65456
# Poissons Ratio (z) = 0.20492 0.49754
#
# Static dielectric constant tensor:
#      x y z
#    x 1.611230 0.000000 0.000000 
#    y 0.000000 1.580340 0.000000 
#    z 0.000000 0.000000 1.555260 
# 
# From -- ./inp_files/30473.got.cif
#   From: 2010.05.17/outbox.cif.g08.bks.cpg/sg42_16_cif.got.tgz:30473.got - 2010.06.03 19:03:34.
