data_PCOD9368072
_publ_section_title
;
Structure prediction by ZEFSAII (Michael W. Deem and Ramdas Pophale) SiO2 
 PCOD9368072
Probable space group: A B A 2
;
_chemical_formula_sum "Si O2"
_cell_formula_units_Z 28
_cell_length_a 15.000000
_cell_length_b 9.000000
_cell_length_c 21.000000
_cell_angle_alpha 90.000000
_cell_angle_beta 90.000000
_cell_angle_gamma 90.000000
_cell_volume 2835.000000
_symmetry_space_group_name_H-M "A B A 2"
_symmetry_group_IT_number 41
_symmetry_cell_setting 'orthorhombic'
loop_
_space_group_symop_operation_xyz
x,y,z
-x,-y,z
1/2-x,y,1/2+z
1/2+x,-y,1/2+z
x,1/2+y,1/2+z
-x,1/2-y,1/2+z
1/2-x,1/2+y,z
1/2+x,1/2-y,z
loop_
_atom_site_type_symbol
_atom_site_label
_atom_site_fract_x
_atom_site_fract_y
_atom_site_fract_z
Si Si1 0.374348 0.778214 0.476510
Si Si2 0.749438 0.003596 0.201123
Si Si3 0.035006 0.669217 0.378992
Si Si4 0.162674 0.745641 0.615480
Si Si5 0.302533 0.614276 0.974145
Si Si6 0.968372 0.673904 0.611761
Si Si7 0.875207 0.243391 0.247529
O O1 0.455349 0.769805 0.425180
O O2 0.299934 0.655358 0.460083
O O3 0.412282 0.777080 0.549382
O O4 0.324647 0.938829 0.474498
O O5 0.813343 0.886999 0.164734
O O6 0.674988 0.901048 0.235214
O O7 0.711101 0.110635 0.145087
O O8 0.801089 0.111341 0.250515
O O9 0.124556 0.672906 0.422926
O O10 0.062080 0.741823 0.310326
O O11 0.000000 0.500000 0.366640
O O12 0.185059 0.688822 0.544291
O O13 0.057695 0.770176 0.614293
O O14 0.921932 0.700515 0.679973
O O15 0.000000 0.500000 0.603600
#
# Coordination Sequence:
#
# PCOD9368072 Si02
#       7
#     8   8   8   8   8   8   8
#     4  11  22  44  70  95 128 171 221 269 329 388
#     4  10  23  40  63  99 128 168 224 268 331 394
#     4  10  24  44  64  94 130 174 219 263 330 396
#     4  11  20  39  67  98 129 169 214 276 330 388
#     4  11  21  40  69  92 128 169 212 272 328 386
#     4  12  21  39  68  97 133 172 216 278 330 380
#     4  11  24  42  65  95 132 175 217 274 329 392
#
# _framework density 9.8765429999999999
#
# number of rings (size 3 to 8) (size 9 to 14) (size 15 to 20)
#    0.000    1.143    4.286    3.000    2.000    2.286 
#    2.571    2.143    0.000    0.000    0.000    0.000 
#    0.000    0.000    0.000    0.000    0.000    0.000 
#
# Total GULP energy -156337.842096 kJ/mol
# GULP energy per Si atom -5583.494361 kJ/mol
# Density = 0.985406 g / cm^3
# Si number density = 9.876543 Si / 1000 Ang^3
#
#
#
# Elastic Constant Matrix: (Units=GPa)
#
#
# Indices 1 2 3 4 5 6 
#
# 1 133.8873 34.5355 59.2907 0.0000 0.0000 0.0000
# 2 34.5355 68.2284 29.3727 0.0000 0.0000 0.0000
# 3 59.2907 29.3727 136.6206 0.0000 0.0000 0.0000
# 4 0.0000 0.0000 0.0000 28.1165 0.0000 0.0000
# 5 0.0000 0.0000 0.0000 0.0000 44.3506 0.0000
# 6 0.0000 0.0000 0.0000 0.0000 0.0000 33.0770
#
#
#
# Elastic Compliance Matrix: (Units=1/GPa)
#
#
# Indices 1 2 3 4 5 6 
#
# 1 0.009951 -0.003502 -0.003566 0.000000 0.000000 0.000000
# 2 -0.003502 0.017384 -0.002218 0.000000 0.000000 0.000000
# 3 -0.003566 -0.002218 0.009344 0.000000 0.000000 0.000000
# 4 0.000000 0.000000 0.000000 0.035566 0.000000 0.000000
# 5 0.000000 0.000000 0.000000 0.000000 0.022548 0.000000
# 6 0.000000 0.000000 0.000000 0.000000 0.000000 0.030232
#
#
# Mechanical properties :
#
#
# Convention : Reuss Voigt Hill
#
# Bulk Modulus (GPa) = 55.22352 65.01492 60.11922
# Shear Modulus (GPa) = 33.41518 35.47798 34.44658
#
# Velocity S-wave (km/s) = 4.11742 4.24261 4.18048
# Velocity P-wave (km/s) = 7.11490 7.54883 7.33508
#
# Compressibility (1/GPa) = 0.01810823
#
# Stress axis : x y z
#
# Youngs Moduli (GPa) = 100.48864 57.52413 107.02280
#
# Poissons Ratio (x) = 0.20145 0.38162
# Poissons Ratio (y) = 0.35192 0.23734
# Poissons Ratio (z) = 0.35832 0.12757
#
# Static dielectric constant tensor:
#      x y z
#    x 1.756640 0.000000 0.000000 
#    y 0.000000 1.709230 0.000000 
#    z 0.000000 0.000000 1.687870 
# 
# From -- ./inp_files/11549.got.cif
#   From: 2010.05.17/outbox.ucp.g08.bks.cvg/sg41_6_cif.got.tgz:11549.got - 2010.06.11 16:28:22.
