data_PCOD9368790
_publ_section_title
;
Structure prediction by ZEFSAII (Michael W. Deem and Ramdas Pophale) SiO2 
 PCOD9368790
Probable space group: F M M 2
;
_chemical_formula_sum "Si O2"
_cell_formula_units_Z 116
_cell_length_a 26.367433
_cell_length_b 7.575212
_cell_length_c 27.760715
_cell_angle_alpha 90.000000
_cell_angle_beta 90.000000
_cell_angle_gamma 90.000000
_cell_volume 5544.894535
_symmetry_space_group_name_H-M "F M M 2"
_symmetry_group_IT_number 42
_symmetry_cell_setting 'orthorhombic'
loop_
_space_group_symop_operation_xyz
x,y,z
-x,-y,z
-x,y,z
x,-y,z
x,1/2+y,1/2+z
-x,1/2-y,1/2+z
-x,1/2+y,1/2+z
x,1/2-y,1/2+z
1/2+x,y,1/2+z
1/2-x,-y,1/2+z
1/2-x,y,1/2+z
1/2+x,-y,1/2+z
1/2+x,1/2+y,z
1/2-x,1/2-y,z
1/2-x,1/2+y,z
1/2+x,1/2-y,z
loop_
_atom_site_type_symbol
_atom_site_label
_atom_site_fract_x
_atom_site_fract_y
_atom_site_fract_z
Si Si1 0.835550 0.714307 0.263060
Si Si2 0.194273 0.710419 0.159288
Si Si3 0.444580 0.715604 0.796613
Si Si4 0.587388 0.303791 0.900549
Si Si5 0.193876 0.199895 0.369346
Si Si6 0.556225 0.207710 0.006491
Si Si7 0.500000 0.500000 0.135616
Si Si8 0.911531 0.717957 0.110346
O O1 0.833424 0.500000 0.265105
O O2 0.810608 0.779378 0.214078
O O3 0.895042 0.766825 0.266497
O O4 0.809604 0.781831 0.311588
O O5 0.191068 0.500000 0.162552
O O6 0.250000 0.750000 0.139096
O O7 0.143858 0.763998 0.130973
O O8 0.500000 0.772270 0.779063
O O9 0.444071 0.500000 0.797507
O O10 0.435994 0.778907 0.851869
O O11 0.565890 0.500000 0.902114
O O12 0.647344 0.308366 0.890507
O O13 0.577258 0.229395 0.952978
O O14 0.250000 0.250000 0.385097
O O15 0.183209 0.000000 0.383127
O O16 0.500000 0.289242 0.009333
O O17 0.587295 0.264112 0.053221
O O18 0.551080 0.000000 0.013166
O O19 0.455267 0.341186 0.133069
O O20 0.919446 0.500000 0.116738
#
# Coordination Sequence:
#
# PCOD9368790 Si02
#       8
#    16  16  16  16  16  16   4  16
#     4   9  18  34  56  83 111 148 196 240 295 355
#     4  10  22  40  62  87 122 161 205 260 312 373
#     4   8  14  27  46  75 111 146 185 233 278 341
#     4  10  20  32  52  80 111 145 193 235 279 351
#     4  11  21  35  54  77 108 145 186 239 293 343
#     4  10  20  36  57  83 119 154 188 241 294 347
#     4  12  22  40  72  94 124 168 202 266 320 394
#     4  10  23  42  63  96 130 161 208 264 318 373
#
# _framework density 20.920145999999999
#
# number of rings (size 3 to 8) (size 9 to 14) (size 15 to 20)
#    0.000    2.207    0.690    3.517    1.931    2.483 
#    1.241    0.690    0.000    5.379    0.000    0.000 
#    0.000    0.000    0.000    0.000    0.000    0.000 
#
# Total GULP energy -161455.698439 kJ/mol
# GULP energy per Si atom -5567.437877 kJ/mol
# Density = 2.087253 g / cm^3
# Si number density = 20.920146 Si / 1000 Ang^3
#
#
#
# Elastic Constant Matrix: (Units=GPa)
#
#
# Indices 1 2 3 4 5 6 
#
# 1 155.3850 13.7639 34.8909 0.0000 0.0000 -0.0006
# 2 13.7639 75.2614 1.0528 -0.0001 -0.0001 -0.0013
# 3 34.8909 1.0528 59.4713 0.0000 0.0000 0.0002
# 4 0.0000 -0.0001 0.0000 9.6002 0.0000 0.0000
# 5 0.0000 -0.0001 0.0000 0.0000 9.0091 0.0001
# 6 -0.0006 -0.0013 0.0002 0.0000 0.0001 14.3294
#
#
#
# Elastic Compliance Matrix: (Units=1/GPa)
#
#
# Indices 1 2 3 4 5 6 
#
# 1 0.007540 -0.001317 -0.004401 0.000000 0.000000 0.000000
# 2 -0.001317 0.013521 0.000534 0.000000 0.000000 0.000001
# 3 -0.004401 0.000534 0.019387 0.000000 0.000000 0.000000
# 4 0.000000 0.000000 0.000000 0.104165 0.000000 0.000000
# 5 0.000000 0.000000 0.000000 0.000000 0.110999 -0.000001
# 6 0.000000 0.000001 0.000000 0.000000 -0.000001 0.069787
#
#
# Mechanical properties :
#
#
# Convention : Reuss Voigt Hill
#
# Bulk Modulus (GPa) = 33.24550 43.28142 38.26346
# Shear Modulus (GPa) = 14.45950 22.61508 18.53729
#
# Velocity S-wave (km/s) = 2.63187 3.29145 2.97997
# Velocity P-wave (km/s) = 5.01615 5.93116 5.49274
#
# Compressibility (1/GPa) = 0.03007926
#
# Stress axis : x y z
#
# Youngs Moduli (GPa) = 132.61823 73.96176 51.58063
#
# Poissons Ratio (x) = 0.09744 0.22698
# Poissons Ratio (y) = 0.17472 -0.02752
# Poissons Ratio (z) = 0.58359 -0.03946
#
# Static dielectric constant tensor:
#      x y z
#    x 1.785070 0.000000 0.000000 
#    y 0.000000 1.818100 0.000000 
#    z 0.000000 0.000000 1.753230 
# 
# From -- ./inp_files/30751.got.cif
#   From: 2010.05.17/outbox.cif.g08.bks.cpg/sg42_16_cif.got.tgz:30751.got - 2010.06.03 19:03:34.
