data_PCOD9368857
_publ_section_title
;
Structure prediction by ZEFSAII (Michael W. Deem and Ramdas Pophale) SiO2 
 PCOD9368857
Probable space group: F M M 2
;
_chemical_formula_sum "Si O2"
_cell_formula_units_Z 96
_cell_length_a 18.019408
_cell_length_b 29.922484
_cell_length_c 10.286829
_cell_angle_alpha 90.000000
_cell_angle_beta 90.000000
_cell_angle_gamma 90.000000
_cell_volume 5546.508498
_symmetry_space_group_name_H-M "F M M 2"
_symmetry_group_IT_number 42
_symmetry_cell_setting 'orthorhombic'
loop_
_space_group_symop_operation_xyz
x,y,z
-x,-y,z
-x,y,z
x,-y,z
x,1/2+y,1/2+z
-x,1/2-y,1/2+z
-x,1/2+y,1/2+z
x,1/2-y,1/2+z
1/2+x,y,1/2+z
1/2-x,-y,1/2+z
1/2-x,y,1/2+z
1/2+x,-y,1/2+z
1/2+x,1/2+y,z
1/2-x,1/2-y,z
1/2-x,1/2+y,z
1/2+x,1/2-y,z
loop_
_atom_site_type_symbol
_atom_site_label
_atom_site_fract_x
_atom_site_fract_y
_atom_site_fract_z
Si Si1 0.582178 0.949292 0.514860
Si Si2 0.314225 0.635654 0.323234
Si Si3 0.815342 0.128077 0.024463
Si Si4 0.085431 0.949533 0.330356
Si Si5 0.588463 0.214848 0.510713
Si Si6 0.162381 0.262930 0.771782
O O1 0.500000 0.933449 0.475103
O O2 0.648514 0.917675 0.475550
O O3 0.583203 0.949384 0.672566
O O4 0.591261 0.000000 0.470449
O O5 0.249034 0.640920 0.426672
O O6 0.288983 0.625154 0.174505
O O7 0.365944 0.593845 0.365344
O O8 0.349177 0.685074 0.311927
O O9 0.880884 0.164525 0.023634
O O10 0.000000 0.944567 0.374659
O O11 0.111236 0.000000 0.368757
O O12 0.500000 0.217088 0.521696
O O13 0.618172 0.233492 0.374719
O O14 0.628796 0.241486 0.627653
O O15 0.250000 0.250000 0.772442
#
# Coordination Sequence:
#
# PCOD9368857 Si02
#       6
#    16  16  16  16  16  16
#     4   8  14  27  49  74 100 131 168 213 261 308
#     4  10  21  33  55  77 105 140 175 214 270 325
#     4  10  20  34  51  77 106 136 174 219 267 317
#     4   8  15  30  52  78 106 135 174 223 269 315
#     4  11  23  37  57  81 107 141 186 230 270 321
#     4  11  22  38  57  78 111 147 182 225 276 328
#
# _framework density 17.308185000000002
#
# number of rings (size 3 to 8) (size 9 to 14) (size 15 to 20)
#    0.000    2.333    1.667    2.500    2.333    5.333 
#    0.000    0.000    0.000    2.000    0.000    2.333 
#    0.000    0.000    0.000    0.000    0.000    0.000 
#
# Total GULP energy -133651.314849 kJ/mol
# GULP energy per Si atom -5568.804785 kJ/mol
# Density = 1.726879 g / cm^3
# Si number density = 17.308185 Si / 1000 Ang^3
#
#
#
# Elastic Constant Matrix: (Units=GPa)
#
#
# Indices 1 2 3 4 5 6 
#
# 1 75.5521 15.7101 23.0170 0.0000 0.0000 0.0000
# 2 15.7101 49.9420 1.6410 0.0000 0.0000 0.0000
# 3 23.0170 1.6410 45.1824 0.0000 0.0000 0.0000
# 4 0.0000 0.0000 0.0000 12.4603 0.0000 0.0000
# 5 0.0000 0.0000 0.0000 0.0000 12.3301 0.0000
# 6 0.0000 0.0000 0.0000 0.0000 0.0000 26.0011
#
#
#
# Elastic Compliance Matrix: (Units=1/GPa)
#
#
# Indices 1 2 3 4 5 6 
#
# 1 0.016837 -0.005021 -0.008395 0.000000 0.000000 0.000000
# 2 -0.005021 0.021544 0.001775 0.000000 0.000000 0.000000
# 3 -0.008395 0.001775 0.026345 0.000000 0.000000 0.000000
# 4 0.000000 0.000000 0.000000 0.080255 0.000000 0.000000
# 5 0.000000 0.000000 0.000000 0.000000 0.081102 0.000000
# 6 0.000000 0.000000 0.000000 0.000000 0.000000 0.038460
#
#
# Mechanical properties :
#
#
# Convention : Reuss Voigt Hill
#
# Bulk Modulus (GPa) = 24.12822 27.93476 26.03149
# Shear Modulus (GPa) = 16.57606 18.84551 17.71079
#
# Velocity S-wave (km/s) = 3.09803 3.30331 3.20231
# Velocity P-wave (km/s) = 5.17375 5.54290 5.36150
#
# Compressibility (1/GPa) = 0.04144524
#
# Stress axis : x y z
#
# Youngs Moduli (GPa) = 59.39142 46.41613 37.95837
#
# Poissons Ratio (x) = 0.23304 0.31866
# Poissons Ratio (y) = 0.29818 -0.06738
# Poissons Ratio (z) = 0.49859 -0.08240
#
# Static dielectric constant tensor:
#      x y z
#    x 1.575490 0.000000 0.000000 
#    y 0.000000 1.618520 0.000000 
#    z 0.000000 0.000000 1.570510 
# 
# From -- ./inp_files/8912.got.cif
#   From: 2010.05.17/outbox.cif.g08.bks.cpg/sg42_5_cif.got.tgz:8912.got - 2010.06.03 19:03:34.
