data_PCOD9368143
_publ_section_title
;
Structure prediction by ZEFSAII (Michael W. Deem and Ramdas Pophale) SiO2 
 PCOD9368143
Probable space group: F M M 2
;
_chemical_formula_sum "Si O2"
_cell_formula_units_Z 96
_cell_length_a 26.601013
_cell_length_b 8.492823
_cell_length_c 23.879260
_cell_angle_alpha 90.000000
_cell_angle_beta 90.000000
_cell_angle_gamma 90.000000
_cell_volume 5394.747378
_symmetry_space_group_name_H-M "F M M 2"
_symmetry_group_IT_number 42
_symmetry_cell_setting 'orthorhombic'
loop_
_space_group_symop_operation_xyz
x,y,z
-x,-y,z
-x,y,z
x,-y,z
x,1/2+y,1/2+z
-x,1/2-y,1/2+z
-x,1/2+y,1/2+z
x,1/2-y,1/2+z
1/2+x,y,1/2+z
1/2-x,-y,1/2+z
1/2-x,y,1/2+z
1/2+x,-y,1/2+z
1/2+x,1/2+y,z
1/2-x,1/2-y,z
1/2-x,1/2+y,z
1/2+x,1/2-y,z
loop_
_atom_site_type_symbol
_atom_site_label
_atom_site_fract_x
_atom_site_fract_y
_atom_site_fract_z
Si Si1 0.805751 0.809198 0.800060
Si Si2 0.000000 0.692584 0.424992
Si Si3 0.405880 0.313870 0.853170
Si Si4 0.500000 0.692038 0.055856
Si Si5 0.440748 0.825473 0.226339
Si Si6 0.305110 0.186584 0.170080
Si Si7 0.098478 0.320111 0.621003
O O1 0.750000 0.750000 0.813721
O O2 0.849303 0.751531 0.842575
O O3 0.816513 0.761552 0.734962
O O4 0.806488 0.000000 0.800987
O O5 0.051511 0.749867 0.395127
O O6 0.000000 0.500000 0.419192
O O7 0.000000 0.729875 0.490436
O O8 0.400538 0.500000 0.866937
O O9 0.429018 0.302462 0.791029
O O10 0.500000 0.500000 0.062212
O O11 0.448128 0.748125 0.084977
O O12 0.500000 0.830913 0.219489
O O13 0.420539 0.695236 0.184827
O O14 0.419858 0.000000 0.210449
O O15 0.250000 0.250000 0.156176
O O16 0.347469 0.238986 0.126091
O O17 0.302725 0.000000 0.171278
O O18 0.105634 0.500000 0.603773
#
# Coordination Sequence:
#
# PCOD9368143 Si02
#       7
#    16   8  16   8  16  16  16
#     4   9  17  28  43  68 100 126 152 188 230 286
#     4   9  16  29  50  71  93 125 164 207 252 286
#     4   9  15  26  46  71  96 121 156 202 244 291
#     4   9  20  33  45  69 101 131 168 211 248 290
#     4  10  17  27  45  72  99 124 159 202 249 301
#     4  10  19  32  49  73 104 133 165 201 243 296
#     4  11  20  31  46  69 104 138 166 200 244 295
#
# _framework density 17.795086000000001
#
# number of rings (size 3 to 8) (size 9 to 14) (size 15 to 20)
#    0.000    2.333    3.333    1.000    0.000    0.667 
#    0.000    0.000    0.000    1.000    0.000   11.667 
#    0.000    0.000    0.000    0.000    0.000    0.000 
#
# Total GULP energy -133601.280173 kJ/mol
# GULP energy per Si atom -5566.720007 kJ/mol
# Density = 1.775458 g / cm^3
# Si number density = 17.795086 Si / 1000 Ang^3
#
#
#
# Elastic Constant Matrix: (Units=GPa)
#
#
# Indices 1 2 3 4 5 6 
#
# 1 184.0936 24.8517 63.0853 0.0000 0.0000 0.0000
# 2 24.8517 10.3291 9.5543 0.0000 0.0000 0.0000
# 3 63.0853 9.5543 59.5073 0.0000 0.0000 0.0000
# 4 0.0000 0.0000 0.0000 8.5877 0.0000 0.0000
# 5 0.0000 0.0000 0.0000 0.0000 11.7894 0.0000
# 6 0.0000 0.0000 0.0000 0.0000 0.0000 22.6764
#
#
#
# Elastic Compliance Matrix: (Units=1/GPa)
#
#
# Indices 1 2 3 4 5 6 
#
# 1 0.010803 -0.018084 -0.008549 0.000000 0.000000 0.000000
# 2 -0.018084 0.143971 -0.003945 0.000000 0.000000 0.000000
# 3 -0.008549 -0.003945 0.026501 0.000000 0.000000 0.000000
# 4 0.000000 0.000000 0.000000 0.116446 0.000000 0.000000
# 5 0.000000 0.000000 0.000000 0.000000 0.084822 0.000000
# 6 0.000000 0.000000 0.000000 0.000000 0.000000 0.044099
#
#
# Mechanical properties :
#
#
# Convention : Reuss Voigt Hill
#
# Bulk Modulus (GPa) = 8.32497 49.87916 29.10207
# Shear Modulus (GPa) = 9.47266 19.03995 14.25631
#
# Velocity S-wave (km/s) = 2.30971 3.27457 2.83351
# Velocity P-wave (km/s) = 3.43532 6.51058 5.20524
#
# Compressibility (1/GPa) = 0.12012051
#
# Stress axis : x y z
#
# Youngs Moduli (GPa) = 92.56918 6.94585 37.73466
#
# Poissons Ratio (x) = 0.12561 0.32259
# Poissons Ratio (y) = 1.67399 0.14885
# Poissons Ratio (z) = 0.79136 0.02740
#
# Static dielectric constant tensor:
#      x y z
#    x 1.669000 0.000000 0.000000 
#    y 0.000000 1.637740 0.000000 
#    z 0.000000 0.000000 1.581820 
# 
# From -- ./inp_files/28184.got.cif
#   From: 2010.05.17/outbox.cif.g08.bks.cpg/sg42_15_cif.got.tgz:28184.got - 2010.06.03 19:03:34.
