data_PCOD9368581
_publ_section_title
;
Structure prediction by ZEFSAII (Michael W. Deem and Ramdas Pophale) SiO2 
 PCOD9368581
Probable space group: F M M 2
;
_chemical_formula_sum "Si O2"
_cell_formula_units_Z 112
_cell_length_a 19.123797
_cell_length_b 24.727822
_cell_length_c 12.419025
_cell_angle_alpha 90.000000
_cell_angle_beta 90.000000
_cell_angle_gamma 90.000000
_cell_volume 5872.830847
_symmetry_space_group_name_H-M "F M M 2"
_symmetry_group_IT_number 42
_symmetry_cell_setting 'orthorhombic'
loop_
_space_group_symop_operation_xyz
x,y,z
-x,-y,z
-x,y,z
x,-y,z
x,1/2+y,1/2+z
-x,1/2-y,1/2+z
-x,1/2+y,1/2+z
x,1/2-y,1/2+z
1/2+x,y,1/2+z
1/2-x,-y,1/2+z
1/2-x,y,1/2+z
1/2+x,-y,1/2+z
1/2+x,1/2+y,z
1/2-x,1/2-y,z
1/2-x,1/2+y,z
1/2+x,1/2-y,z
loop_
_atom_site_type_symbol
_atom_site_label
_atom_site_fract_x
_atom_site_fract_y
_atom_site_fract_z
Si Si1 0.691100 0.135113 0.617150
Si Si2 0.672640 0.267742 0.258540
Si Si3 0.919843 0.057930 0.725761
Si Si4 0.083544 0.175136 0.664536
Si Si5 0.826292 0.161533 0.470136
Si Si6 0.791489 0.063220 0.328674
Si Si7 0.140908 0.059159 0.946340
O O1 0.653812 0.184763 0.675748
O O2 0.758716 0.154807 0.548356
O O3 0.710347 0.092327 0.712068
O O4 0.640964 0.105468 0.533259
O O5 0.750000 0.250000 0.225351
O O6 0.620966 0.217612 0.243283
O O7 0.681457 0.294658 0.375360
O O8 0.889420 0.114109 0.686934
O O9 0.917171 0.061150 0.854787
O O10 0.000000 0.056658 0.688685
O O11 0.886283 0.000000 0.694996
O O12 0.110132 0.182369 0.543122
O O13 0.000000 0.177646 0.675636
O O14 0.834322 0.103393 0.409017
O O15 0.713546 0.063425 0.379265
O O16 0.813839 0.000000 0.324075
O O17 0.139920 0.000000 0.998821
#
# Coordination Sequence:
#
# PCOD9368581 Si02
#       7
#    16  16  16  16  16  16  16
#     4  10  19  34  54  83 113 153 192 235 293 357
#     4  11  24  38  59  82 114 156 201 250 297 352
#     4   9  19  36  57  83 115 150 190 239 295 357
#     4  11  24  41  61  86 116 155 203 251 302 364
#     4  10  22  36  57  85 115 154 197 243 301 358
#     4   9  18  32  53  85 119 147 184 241 300 355
#     4   9  17  29  52  81 112 145 183 234 285 342
#
# _framework density 19.070872000000001
#
# number of rings (size 3 to 8) (size 9 to 14) (size 15 to 20)
#    0.000    2.143    1.429    1.286    6.000    1.714 
#    0.000    2.143    0.000    0.857    0.000    0.000 
#    0.000    0.000    0.000    0.000    0.000    0.000 
#
# Total GULP energy -155988.989837 kJ/mol
# GULP energy per Si atom -5571.035351 kJ/mol
# Density = 1.902747 g / cm^3
# Si number density = 19.070872 Si / 1000 Ang^3
#
#
#
# Elastic Constant Matrix: (Units=GPa)
#
#
# Indices 1 2 3 4 5 6 
#
# 1 28.6969 5.1157 -13.0853 0.0000 0.0000 0.0000
# 2 5.1157 108.7724 26.2376 0.0000 0.0000 0.0000
# 3 -13.0853 26.2376 60.3435 0.0000 0.0000 0.0000
# 4 0.0000 0.0000 0.0000 28.9734 0.0000 0.0000
# 5 0.0000 0.0000 0.0000 0.0000 14.4457 0.0000
# 6 0.0000 0.0000 0.0000 0.0000 0.0000 17.7612
#
#
#
# Elastic Compliance Matrix: (Units=1/GPa)
#
#
# Indices 1 2 3 4 5 6 
#
# 1 0.040551 -0.004500 0.010750 0.000000 0.000000 0.000000
# 2 -0.004500 0.010770 -0.005659 0.000000 0.000000 0.000000
# 3 0.010750 -0.005659 0.021363 0.000000 0.000000 0.000000
# 4 0.000000 0.000000 0.000000 0.034514 0.000000 0.000000
# 5 0.000000 0.000000 0.000000 0.000000 0.069225 0.000000
# 6 0.000000 0.000000 0.000000 0.000000 0.000000 0.056303
#
#
# Mechanical properties :
#
#
# Convention : Reuss Voigt Hill
#
# Bulk Modulus (GPa) = 13.53791 26.03876 19.78833
# Shear Modulus (GPa) = 19.51858 24.20571 21.86214
#
# Velocity S-wave (km/s) = 3.20265 3.56652 3.38947
# Velocity P-wave (km/s) = 4.55962 5.53565 5.07117
#
# Compressibility (1/GPa) = 0.07386666
#
# Stress axis : x y z
#
# Youngs Moduli (GPa) = 24.66027 92.84935 46.80917
#
# Poissons Ratio (x) = 0.41784 -0.50320
# Poissons Ratio (y) = 0.11098 0.26488
# Poissons Ratio (z) = -0.26510 0.52541
#
# Static dielectric constant tensor:
#      x y z
#    x 1.664660 0.000000 0.000000 
#    y 0.000000 1.753450 0.000000 
#    z 0.000000 0.000000 1.674510 
# 
# From -- ./inp_files/9651.got.cif
#   From: 2010.05.17/outbox.cif.g08.bks.cpg/sg42_5_cif.got.tgz:9651.got - 2010.06.03 19:03:34.
