data_PCOD9368168
_publ_section_title
;
Structure prediction by ZEFSAII (Michael W. Deem and Ramdas Pophale) SiO2 
 PCOD9368168
Probable space group: F M M 2
;
_chemical_formula_sum "Si O2"
_cell_formula_units_Z 104
_cell_length_a 24.871230
_cell_length_b 7.526270
_cell_length_c 24.978465
_cell_angle_alpha 90.000000
_cell_angle_beta 90.000000
_cell_angle_gamma 90.000000
_cell_volume 4675.658721
_symmetry_space_group_name_H-M "F M M 2"
_symmetry_group_IT_number 42
_symmetry_cell_setting 'orthorhombic'
loop_
_space_group_symop_operation_xyz
x,y,z
-x,-y,z
-x,y,z
x,-y,z
x,1/2+y,1/2+z
-x,1/2-y,1/2+z
-x,1/2+y,1/2+z
x,1/2-y,1/2+z
1/2+x,y,1/2+z
1/2-x,-y,1/2+z
1/2-x,y,1/2+z
1/2+x,-y,1/2+z
1/2+x,1/2+y,z
1/2-x,1/2-y,z
1/2-x,1/2+y,z
1/2+x,1/2-y,z
loop_
_atom_site_type_symbol
_atom_site_label
_atom_site_fract_x
_atom_site_fract_y
_atom_site_fract_z
Si Si1 0.812597 0.211893 0.983790
Si Si2 0.605989 0.781364 0.570022
Si Si3 0.500000 0.779867 0.762947
Si Si4 0.686786 0.789515 0.273411
Si Si5 0.621151 0.280791 0.879345
Si Si6 0.400430 0.205910 0.690724
Si Si7 0.500000 0.745424 0.383012
Si Si8 0.500000 0.296156 0.010086
O O1 0.750000 0.250000 0.981024
O O2 0.844500 0.271829 0.931144
O O3 0.818608 0.000000 0.983415
O O4 0.841520 0.277804 0.037481
O O5 0.602380 0.718304 0.631063
O O6 0.554358 0.721496 0.535527
O O7 0.607234 0.000000 0.570923
O O8 0.552601 0.725102 0.729464
O O9 0.500000 0.690636 0.820916
O O10 0.500000 0.000000 0.771382
O O11 0.750000 0.750000 0.276051
O O12 0.654653 0.731120 0.326542
O O13 0.655912 0.716533 0.221715
O O14 0.680865 0.000000 0.271120
O O15 0.612822 0.500000 0.880069
O O16 0.562969 0.190702 0.881377
O O17 0.415157 0.000000 0.683709
O O18 0.500000 0.802124 0.445831
O O19 0.500000 0.500000 0.028203
#
# Coordination Sequence:
#
# PCOD9368168 Si02
#       8
#    16  16   8  16  16  16   8   8
#     4  10  20  36  55  82 111 144 185 229 277 331
#     4   9  18  32  56  84 111 143 186 229 277 331
#     4  10  21  36  55  82 118 153 191 230 286 345
#     4  11  23  39  58  84 113 151 194 237 285 339
#     4  10  20  34  56  84 115 142 178 226 285 343
#     4  10  20  38  59  83 116 155 191 234 281 339
#     4  12  18  32  58  87 114 139 176 231 289 332
#     4  10  17  30  57  89 114 140 176 231 287 341
#
# _framework density 22.242856
#
# number of rings (size 3 to 8) (size 9 to 14) (size 15 to 20)
#    0.000    1.846    3.077    2.077    0.000    2.462 
#    0.000    4.231    0.000    0.923    0.000    0.000 
#    0.000    0.000    0.000    0.000    0.000    0.000 
#
# Total GULP energy -144968.816022 kJ/mol
# GULP energy per Si atom -5575.723693 kJ/mol
# Density = 2.219223 g / cm^3
# Si number density = 22.242856 Si / 1000 Ang^3
#
#
#
# Elastic Constant Matrix: (Units=GPa)
#
#
# Indices 1 2 3 4 5 6 
#
# 1 203.6461 0.5025 97.3843 0.0000 0.0001 0.0003
# 2 0.5025 60.1418 13.7769 0.0000 -0.0001 0.0003
# 3 97.3843 13.7769 205.6399 0.0000 0.0000 0.0000
# 4 0.0000 0.0000 0.0000 -9.2887 0.0000 0.0003
# 5 0.0001 -0.0001 0.0000 0.0000 20.5089 0.0000
# 6 0.0003 0.0003 0.0000 0.0003 0.0000 32.0758
#
#
#
# Elastic Compliance Matrix: (Units=1/GPa)
#
#
# Indices 1 2 3 4 5 6 
#
# 1 0.006373 0.000648 -0.003061 0.000000 0.000000 0.000000
# 2 0.000648 0.016952 -0.001443 0.000000 0.000000 0.000000
# 3 -0.003061 -0.001443 0.006409 0.000000 0.000000 0.000000
# 4 0.000000 0.000000 0.000000 -0.107658 0.000000 0.000001
# 5 0.000000 0.000000 0.000000 0.000000 0.048759 0.000000
# 6 0.000000 0.000000 0.000000 0.000001 0.000000 0.031176
#
#
# Mechanical properties :
#
#
# Convention : Reuss Voigt Hill
#
# Bulk Modulus (GPa) = 45.40784 76.97281 61.19033
# Shear Modulus (GPa) = 293.00233 32.51014 162.75623
#
# Velocity S-wave (km/s) = 11.48977 3.82723 8.56336
# Velocity P-wave (km/s) = 14.01708 7.36282 11.19575
#
# Compressibility (1/GPa) = 0.02202263
#
# Stress axis : x y z
#
# Youngs Moduli (GPa) = 156.91575 58.98858 156.02354
#
# Poissons Ratio (x) = -0.03823 0.47765
# Poissons Ratio (y) = -0.10169 0.22508
# Poissons Ratio (z) = 0.48038 0.08510
#
# Static dielectric constant tensor:
#      x y z
#    x 1.848510 0.000000 0.000000 
#    y 0.000000 1.945580 0.000000 
#    z 0.000000 0.000000 1.785090 
# 
# From -- ./inp_files/33065.got.cif
#   From: 2010.05.17/outbox.cif.g08.bks.cpg/sg42_17_cif.got.tgz:33065.got - 2010.06.03 19:03:34.
