data_PCOD9368986
_publ_section_title
;
Structure prediction by ZEFSAII (Michael W. Deem and Ramdas Pophale) SiO2 
 PCOD9368986
Probable space group: F M M 2
;
_chemical_formula_sum "Si O2"
_cell_formula_units_Z 80
_cell_length_a 16.047523
_cell_length_b 8.598086
_cell_length_c 29.560274
_cell_angle_alpha 90.000000
_cell_angle_beta 90.000000
_cell_angle_gamma 90.000000
_cell_volume 4078.666979
_symmetry_space_group_name_H-M "F M M 2"
_symmetry_group_IT_number 42
_symmetry_cell_setting 'orthorhombic'
loop_
_space_group_symop_operation_xyz
x,y,z
-x,-y,z
-x,y,z
x,-y,z
x,1/2+y,1/2+z
-x,1/2-y,1/2+z
-x,1/2+y,1/2+z
x,1/2-y,1/2+z
1/2+x,y,1/2+z
1/2-x,-y,1/2+z
1/2-x,y,1/2+z
1/2+x,-y,1/2+z
1/2+x,1/2+y,z
1/2-x,1/2-y,z
1/2-x,1/2+y,z
1/2+x,1/2-y,z
loop_
_atom_site_type_symbol
_atom_site_label
_atom_site_fract_x
_atom_site_fract_y
_atom_site_fract_z
Si Si1 0.000000 0.310385 0.032251
Si Si2 0.155156 0.314138 0.369973
Si Si3 0.663317 0.815258 0.085385
Si Si4 0.000000 0.812707 0.426908
Si Si5 0.343121 0.812927 0.772457
Si Si6 0.905274 0.686137 0.674403
O O1 0.916818 0.255750 0.057793
O O2 0.000000 0.500000 0.034552
O O3 0.000000 0.268090 0.979714
O O4 0.158959 0.500000 0.372035
O O5 0.250000 0.250000 0.377429
O O6 0.084257 0.250778 0.403530
O O7 0.127826 0.260461 0.319547
O O8 0.750000 0.750000 0.067484
O O9 0.652330 0.766932 0.137660
O O10 0.664863 0.000000 0.082433
O O11 0.000000 0.000000 0.423233
O O12 0.250000 0.750000 0.765996
O O13 0.390798 0.770532 0.726585
O O14 0.343580 0.000000 0.777113
O O15 0.893410 0.500000 0.671317
O O16 0.000000 0.724460 0.662087
#
# Coordination Sequence:
#
# PCOD9368986 Si02
#       6
#     8  16  16   8  16  16
#     4   9  22  43  64  89 120 153 198 249 306 365
#     4  11  23  41  63  93 126 162 207 252 303 366
#     4  11  22  40  63  90 121 159 200 246 300 359
#     4  11  23  43  68  91 122 159 198 257 316 367
#     4  10  20  35  56  83 119 162 203 248 296 352
#     4  10  21  36  56  87 123 161 204 247 294 352
#
# _framework density 19.614250999999999
#
# number of rings (size 3 to 8) (size 9 to 14) (size 15 to 20)
#    0.000    1.600    1.000    5.100    1.400    4.000 
#    0.000    6.000    0.000    0.000    0.000    0.000 
#    0.000    0.000    0.000    0.000    0.000    0.000 
#
# Total GULP energy -111719.499630 kJ/mol
# GULP energy per Si atom -5585.974982 kJ/mol
# Density = 1.956961 g / cm^3
# Si number density = 19.614251 Si / 1000 Ang^3
#
#
#
# Elastic Constant Matrix: (Units=GPa)
#
#
# Indices 1 2 3 4 5 6 
#
# 1 141.2942 47.3665 85.1710 0.0000 0.0000 0.0000
# 2 47.3665 65.9999 40.5466 0.0000 0.0000 0.0000
# 3 85.1710 40.5466 129.5148 0.0000 0.0000 0.0000
# 4 0.0000 0.0000 0.0000 22.3109 0.0000 0.0000
# 5 0.0000 0.0000 0.0000 0.0000 15.0828 0.0000
# 6 0.0000 0.0000 0.0000 0.0000 0.0000 31.4262
#
#
#
# Elastic Compliance Matrix: (Units=1/GPa)
#
#
# Indices 1 2 3 4 5 6 
#
# 1 0.012946 -0.005028 -0.006939 0.000000 0.000000 0.000000
# 2 -0.005028 0.020712 -0.003178 0.000000 0.000000 0.000000
# 3 -0.006939 -0.003178 0.013280 0.000000 0.000000 0.000000
# 4 0.000000 0.000000 0.000000 0.044821 0.000000 0.000000
# 5 0.000000 0.000000 0.000000 0.000000 0.066301 0.000000
# 6 0.000000 0.000000 0.000000 0.000000 0.000000 0.031821
#
#
# Mechanical properties :
#
#
# Convention : Reuss Voigt Hill
#
# Bulk Modulus (GPa) = 60.06957 75.88633 67.97795
# Shear Modulus (GPa) = 22.15138 24.67895 23.41516
#
# Velocity S-wave (km/s) = 3.36423 3.55098 3.45887
# Velocity P-wave (km/s) = 6.76629 7.45560 7.11929
#
# Compressibility (1/GPa) = 0.01664736
#
# Stress axis : x y z
#
# Youngs Moduli (GPa) = 77.24428 48.28074 75.30403
#
# Poissons Ratio (x) = 0.24275 0.52257
# Poissons Ratio (y) = 0.38837 0.23931
# Poissons Ratio (z) = 0.53603 0.15343
#
# Static dielectric constant tensor:
#      x y z
#    x 1.682060 0.000000 0.000000 
#    y 0.000000 1.662200 0.000000 
#    z 0.000000 0.000000 1.682910 
# 
# From -- ./inp_files/31355.got.cif
#   From: 2010.05.17/outbox.cif.g08.bks.cpg/sg42_16_cif.got.tgz:31355.got - 2010.06.03 19:03:34.
