data_PCOD9368197
_publ_section_title
;
Structure prediction by ZEFSAII (Michael W. Deem and Ramdas Pophale) SiO2 
 PCOD9368197
Probable space group: F M M 2
;
_chemical_formula_sum "Si O2"
_cell_formula_units_Z 128
_cell_length_a 29.882170
_cell_length_b 7.479067
_cell_length_c 32.455918
_cell_angle_alpha 90.000000
_cell_angle_beta 90.000000
_cell_angle_gamma 90.000000
_cell_volume 7253.597506
_symmetry_space_group_name_H-M "F M M 2"
_symmetry_group_IT_number 42
_symmetry_cell_setting 'orthorhombic'
loop_
_space_group_symop_operation_xyz
x,y,z
-x,-y,z
-x,y,z
x,-y,z
x,1/2+y,1/2+z
-x,1/2-y,1/2+z
-x,1/2+y,1/2+z
x,1/2-y,1/2+z
1/2+x,y,1/2+z
1/2-x,-y,1/2+z
1/2-x,y,1/2+z
1/2+x,-y,1/2+z
1/2+x,1/2+y,z
1/2-x,1/2-y,z
1/2-x,1/2+y,z
1/2+x,1/2-y,z
loop_
_atom_site_type_symbol
_atom_site_label
_atom_site_fract_x
_atom_site_fract_y
_atom_site_fract_z
Si Si1 0.700161 0.786048 0.829540
Si Si2 0.948537 0.718380 0.782207
Si Si3 0.448126 0.280860 0.122141
Si Si4 0.606971 0.218476 0.701371
Si Si5 0.449206 0.214051 0.442720
Si Si6 0.799909 0.786266 0.235088
Si Si7 0.054391 0.206572 0.031988
Si Si8 0.106950 0.214451 0.361785
O O1 0.750000 0.750000 0.845571
O O2 0.697356 0.717255 0.782301
O O3 0.657750 0.719971 0.855430
O O4 0.696269 0.000000 0.827115
O O5 0.948505 0.500000 0.782510
O O6 0.921888 0.772338 0.741295
O O7 0.923082 0.778801 0.823382
O O8 0.000000 0.776078 0.781579
O O9 0.500000 0.229389 0.129202
O O10 0.447952 0.500000 0.121142
O O11 0.416708 0.222564 0.159423
O O12 0.433328 0.217270 0.076649
O O13 0.657976 0.278096 0.708714
O O14 0.606588 0.000000 0.700553
O O15 0.500000 0.279531 0.433974
O O16 0.433339 0.284962 0.487425
O O17 0.416418 0.246439 0.404955
O O18 0.452494 0.000000 0.447502
O O19 0.750000 0.750000 0.219264
O O20 0.804505 0.000000 0.237607
O O21 0.000000 0.205853 0.031824
O O22 0.069661 0.000000 0.032396
O O23 0.108010 0.000000 0.358414
#
# Coordination Sequence:
#
# PCOD9368197 Si02
#       8
#    16  16  16  16  16  16  16  16
#     4   9  17  29  43  58  79 105 135 171 208 243
#     4   9  15  22  33  51  79 111 134 153 187 233
#     4   8  12  18  32  56  83 107 131 161 198 237
#     4   9  14  21  34  55  81 106 131 161 195 233
#     4   9  17  28  41  58  83 113 141 169 201 239
#     4   9  16  27  41  57  79 104 132 166 201 235
#     4   7  11  21  35  52  77 106 133 165 202 232
#     4  10  18  28  41  60  83 108 137 169 203 241
#
# _framework density 17.646417
#
# number of rings (size 3 to 8) (size 9 to 14) (size 15 to 20)
#    0.000    3.250    1.250    2.250    0.000    2.750 
#    0.000    0.000    0.000    0.000    0.000    1.750 
#    0.000    6.500    0.000    0.250    0.000    0.000 
#
# Total GULP energy -178286.772220 kJ/mol
# GULP energy per Si atom -5571.461632 kJ/mol
# Density = 1.760625 g / cm^3
# Si number density = 17.646417 Si / 1000 Ang^3
#
#
#
# Elastic Constant Matrix: (Units=GPa)
#
#
# Indices 1 2 3 4 5 6 
#
# 1 156.2818 4.9256 101.9133 -0.0004 -0.0004 0.0005
# 2 4.9256 48.5440 4.7578 -0.0018 -0.0004 0.0030
# 3 101.9133 4.7578 170.9011 -0.0002 0.0001 -0.0002
# 4 -0.0004 -0.0018 -0.0002 -3.3120 0.0002 0.0006
# 5 -0.0004 -0.0004 0.0001 0.0002 6.7253 0.0006
# 6 0.0005 0.0030 -0.0002 0.0006 0.0006 5.0919
#
#
#
# Elastic Compliance Matrix: (Units=1/GPa)
#
#
# Indices 1 2 3 4 5 6 
#
# 1 0.010480 -0.000452 -0.006237 -0.000001 0.000001 -0.000001
# 2 -0.000452 0.020676 -0.000306 -0.000011 0.000001 -0.000012
# 3 -0.006237 -0.000306 0.009579 0.000000 -0.000001 0.000001
# 4 -0.000001 -0.000011 0.000000 -0.301937 0.000010 0.000038
# 5 0.000001 0.000001 -0.000001 0.000010 0.148692 -0.000017
# 6 -0.000001 -0.000012 0.000001 0.000038 -0.000017 0.196391
#
#
# Mechanical properties :
#
#
# Convention : Reuss Voigt Hill
#
# Bulk Modulus (GPa) = 37.39045 66.54670 51.96857
# Shear Modulus (GPa) = 46.82213 19.30974 33.06593
#
# Velocity S-wave (km/s) = 5.15666 3.31155 4.33344
# Velocity P-wave (km/s) = 7.52924 7.23981 7.38594
#
# Compressibility (1/GPa) = 0.02674480
#
# Stress axis : x y z
#
# Youngs Moduli (GPa) = 95.41794 48.36591 104.39290
#
# Poissons Ratio (x) = 0.02187 0.65111
# Poissons Ratio (y) = 0.04314 0.03195
# Poissons Ratio (z) = 0.59513 0.01480
#
# Static dielectric constant tensor:
#      x y z
#    x 1.595380 0.000000 0.000000 
#    y 0.000000 1.658720 0.000000 
#    z 0.000000 0.000000 1.613220 
# 
# From -- ./inp_files/32340.got.cif
#   From: 2010.05.17/outbox.cif.g08.bks.cpg/sg42_17_cif.got.tgz:32340.got - 2010.06.03 19:03:34.
