data_PCOD9368634
_publ_section_title
;
Structure prediction by ZEFSAII (Michael W. Deem and Ramdas Pophale) SiO2 
 PCOD9368634
Probable space group: F M M 2
;
_chemical_formula_sum "Si O2"
_cell_formula_units_Z 88
_cell_length_a 26.015916
_cell_length_b 17.350939
_cell_length_c 8.673860
_cell_angle_alpha 90.000000
_cell_angle_beta 90.000000
_cell_angle_gamma 90.000000
_cell_volume 3915.385362
_symmetry_space_group_name_H-M "F M M 2"
_symmetry_group_IT_number 42
_symmetry_cell_setting 'orthorhombic'
loop_
_space_group_symop_operation_xyz
x,y,z
-x,-y,z
-x,y,z
x,-y,z
x,1/2+y,1/2+z
-x,1/2-y,1/2+z
-x,1/2+y,1/2+z
x,1/2-y,1/2+z
1/2+x,y,1/2+z
1/2-x,-y,1/2+z
1/2-x,y,1/2+z
1/2+x,-y,1/2+z
1/2+x,1/2+y,z
1/2-x,1/2-y,z
1/2-x,1/2+y,z
1/2+x,1/2-y,z
loop_
_atom_site_type_symbol
_atom_site_label
_atom_site_fract_x
_atom_site_fract_y
_atom_site_fract_z
Si Si1 0.443093 0.826068 0.521080
Si Si2 0.193902 0.500000 0.593513
Si Si3 0.659648 0.859490 0.423270
Si Si4 0.941926 0.846348 0.389014
Si Si5 0.695931 0.783198 0.114962
Si Si6 0.330648 0.917843 0.909028
O O1 0.500000 0.849379 0.470595
O O2 0.399978 0.879918 0.446872
O O3 0.440385 0.832466 0.705291
O O4 0.436621 0.736986 0.469791
O O5 0.194399 0.431828 0.462978
O O6 0.183690 0.565619 0.731626
O O7 0.668513 0.824515 0.255837
O O8 0.667423 0.789090 0.541572
O O9 0.891435 0.897324 0.424027
O O10 0.000000 0.876151 0.425849
O O11 0.750000 0.750000 0.168113
O O12 0.699896 0.847431 0.982032
O O13 0.319236 0.000000 0.991285
#
# Coordination Sequence:
#
# PCOD9368634 Si02
#       6
#    16   8  16  16  16  16
#     4  10  19  34  61  96 137 187 232 279 340 413
#     4  10  24  42  73 106 140 182 230 292 371 412
#     4  12  23  45  69 103 140 180 237 296 348 421
#     4  10  19  34  61 102 142 188 237 281 344 421
#     4  12  27  47  74  98 132 189 240 287 357 429
#     4  10  22  44  69 102 143 184 230 294 354 417
#
# _framework density 22.475435999999998
#
# number of rings (size 3 to 8) (size 9 to 14) (size 15 to 20)
#    0.545    0.727    3.636    2.727    1.273    0.364 
#    1.636    2.273    0.000    0.000    0.000    0.000 
#    0.000    0.000    0.000    0.000    0.000    0.000 
#
# Total GULP energy -122485.713709 kJ/mol
# GULP energy per Si atom -5567.532441 kJ/mol
# Density = 2.242428 g / cm^3
# Si number density = 22.475436 Si / 1000 Ang^3
#
#
#
# Elastic Constant Matrix: (Units=GPa)
#
#
# Indices 1 2 3 4 5 6 
#
# 1 36.4814 23.1410 7.2278 0.0000 0.0000 0.0000
# 2 23.1410 93.3058 37.0133 0.0000 0.0000 0.0000
# 3 7.2278 37.0133 74.4936 0.0000 0.0000 0.0000
# 4 0.0000 0.0000 0.0000 34.2662 0.0000 0.0000
# 5 0.0000 0.0000 0.0000 0.0000 2.3333 0.0000
# 6 0.0000 0.0000 0.0000 0.0000 0.0000 9.7186
#
#
#
# Elastic Compliance Matrix: (Units=1/GPa)
#
#
# Indices 1 2 3 4 5 6 
#
# 1 0.032596 -0.008506 0.001064 0.000000 0.000000 0.000000
# 2 -0.008506 0.015568 -0.006910 0.000000 0.000000 0.000000
# 3 0.001064 -0.006910 0.016754 0.000000 0.000000 0.000000
# 4 0.000000 0.000000 0.000000 0.029183 0.000000 0.000000
# 5 0.000000 0.000000 0.000000 0.000000 0.428571 0.000000
# 6 0.000000 0.000000 0.000000 0.000000 0.000000 0.102896
#
#
# Mechanical properties :
#
#
# Convention : Reuss Voigt Hill
#
# Bulk Modulus (GPa) = 27.61390 37.67164 32.64277
# Shear Modulus (GPa) = 7.50363 18.39021 12.94692
#
# Velocity S-wave (km/s) = 1.82916 2.86359 2.40270
# Velocity P-wave (km/s) = 4.09561 5.26604 4.71727
#
# Compressibility (1/GPa) = 0.03621365
#
# Stress axis : x y z
#
# Youngs Moduli (GPa) = 30.67841 64.23342 59.68692
#
# Poissons Ratio (x) = 0.54639 -0.06350
# Poissons Ratio (y) = 0.26096 0.41244
# Poissons Ratio (z) = -0.03264 0.44385
#
# Static dielectric constant tensor:
#      x y z
#    x 2.040080 0.000000 0.000000 
#    y 0.000000 1.815970 0.000000 
#    z 0.000000 0.000000 1.795430 
# 
# From -- ./inp_files/5539.got.cif
#   From: 2010.05.17/outbox.cif.g08.bks.cpg/sg42_3_cif.got.tgz:5539.got - 2010.06.03 19:03:34.
