data_PCOD9368869
_publ_section_title
;
Structure prediction by ZEFSAII (Michael W. Deem and Ramdas Pophale) SiO2 
 PCOD9368869
Probable space group: F M M 2
;
_chemical_formula_sum "Si O2"
_cell_formula_units_Z 96
_cell_length_a 14.830677
_cell_length_b 9.375648
_cell_length_c 31.758356
_cell_angle_alpha 90.000000
_cell_angle_beta 90.000000
_cell_angle_gamma 90.000000
_cell_volume 4415.910706
_symmetry_space_group_name_H-M "F M M 2"
_symmetry_group_IT_number 42
_symmetry_cell_setting 'orthorhombic'
loop_
_space_group_symop_operation_xyz
x,y,z
-x,-y,z
-x,y,z
x,-y,z
x,1/2+y,1/2+z
-x,1/2-y,1/2+z
-x,1/2+y,1/2+z
x,1/2-y,1/2+z
1/2+x,y,1/2+z
1/2-x,-y,1/2+z
1/2-x,y,1/2+z
1/2+x,-y,1/2+z
1/2+x,1/2+y,z
1/2-x,1/2-y,z
1/2-x,1/2+y,z
1/2+x,1/2-y,z
loop_
_atom_site_type_symbol
_atom_site_label
_atom_site_fract_x
_atom_site_fract_y
_atom_site_fract_z
Si Si1 0.844640 0.329089 0.750000
Si Si2 0.610517 0.161376 0.077285
Si Si3 0.389378 0.336321 0.412467
Si Si4 0.105544 0.160184 0.832211
Si Si5 0.889841 0.162936 0.995348
Si Si6 0.393968 0.341678 0.154993
O O1 0.840132 0.500000 0.756199
O O2 0.750000 0.250000 0.747494
O O3 0.889073 0.253294 0.789959
O O4 0.887276 0.303823 0.704108
O O5 0.500000 0.156745 0.076973
O O6 0.641068 0.227549 0.121701
O O7 0.642205 0.000000 0.071611
O O8 0.637625 0.261916 0.038684
O O9 0.500000 0.339520 0.411899
O O10 0.358842 0.500000 0.411450
O O11 0.357562 0.248165 0.371775
O O12 0.362645 0.255759 0.455069
O O13 0.000000 0.142837 0.841328
O O14 0.144658 0.000000 0.827181
O O15 0.000000 0.159863 0.995249
O O16 0.858534 0.000000 0.992502
O O17 0.500000 0.353262 0.145518
O O18 0.353302 0.500000 0.149319
#
# Coordination Sequence:
#
# PCOD9368869 Si02
#       6
#    16  16  16  16  16  16
#     4  11  23  38  55  75 101 133 170 212 259 309
#     4   9  16  25  40  65  96 128 162 201 245 292
#     4   9  16  26  42  66  97 131 166 204 247 294
#     4  10  20  34  53  77 104 134 170 211 255 304
#     4   9  15  23  37  60  94 132 165 199 242 291
#     4   9  18  33  52  73  98 130 167 206 250 300
#
# _framework density 21.739570000000001
#
# number of rings (size 3 to 8) (size 9 to 14) (size 15 to 20)
#    0.000    2.500    0.000    3.000    0.000    9.000 
#    0.000    1.667    0.000    0.000    0.000    1.167 
#    0.000    2.667    0.000    0.000    0.000    0.000 
#
# Total GULP energy -134016.893841 kJ/mol
# GULP energy per Si atom -5584.037243 kJ/mol
# Density = 2.169009 g / cm^3
# Si number density = 21.739570 Si / 1000 Ang^3
#
#
#
# Elastic Constant Matrix: (Units=GPa)
#
#
# Indices 1 2 3 4 5 6 
#
# 1 33.3542 9.3840 -7.0122 0.0000 0.0000 0.0000
# 2 9.3840 216.4071 132.1732 0.0000 0.0000 0.0000
# 3 -7.0122 132.1732 179.9593 0.0000 0.0000 0.0000
# 4 0.0000 0.0000 0.0000 1884.6300 0.0000 0.0000
# 5 0.0000 0.0000 0.0000 0.0000 -53.0559 0.0000
# 6 0.0000 0.0000 0.0000 0.0000 0.0000 9.2994
#
#
#
# Elastic Compliance Matrix: (Units=1/GPa)
#
#
# Indices 1 2 3 4 5 6 
#
# 1 0.031938 -0.003890 0.004101 0.000000 0.000000 0.000000
# 2 -0.003890 0.008854 -0.006654 0.000000 0.000000 0.000000
# 3 0.004101 -0.006654 0.010604 0.000000 0.000000 0.000000
# 4 0.000000 0.000000 0.000000 0.000531 0.000000 0.000000
# 5 0.000000 0.000000 0.000000 0.000000 -0.018848 0.000000
# 6 0.000000 0.000000 0.000000 0.000000 0.000000 0.107534
#
#
# Mechanical properties :
#
#
# Convention : Reuss Voigt Hill
#
# Bulk Modulus (GPa) = 25.96725 77.64565 51.80645
# Shear Modulus (GPa) = 30.05992 387.85306 208.95649
#
# Velocity S-wave (km/s) = 3.72254 13.37147 9.81462
# Velocity P-wave (km/s) = 5.51788 16.55864 12.34171
#
# Compressibility (1/GPa) = 0.03851004
#
# Stress axis : x y z
#
# Youngs Moduli (GPa) = 31.31079 112.94530 94.30390
#
# Poissons Ratio (x) = 0.43935 -0.38679
# Poissons Ratio (y) = 0.12180 0.62753
# Poissons Ratio (z) = -0.12842 0.75158
#
# Static dielectric constant tensor:
#      x y z
#    x 1.972590 0.000000 0.000000 
#    y 0.000000 1.763560 0.000000 
#    z 0.000000 0.000000 1.808950 
# 
# From -- ./inp_files/31453.got.cif
#   From: 2010.05.17/outbox.cif.g08.bks.cpg/sg42_16_cif.got.tgz:31453.got - 2010.06.03 19:03:34.
