data_PCOD9368030
_publ_section_title
;
Structure prediction by ZEFSAII (Michael W. Deem and Ramdas Pophale) SiO2 
 PCOD9368030
Probable space group: A B A 2
;
_chemical_formula_sum "Si O2"
_cell_formula_units_Z 28
_cell_length_a 8.912950
_cell_length_b 12.884535
_cell_length_c 9.254105
_cell_angle_alpha 90.000000
_cell_angle_beta 90.000000
_cell_angle_gamma 90.000000
_cell_volume 1062.734165
_symmetry_space_group_name_H-M "A B A 2"
_symmetry_group_IT_number 41
_symmetry_cell_setting 'orthorhombic'
loop_
_space_group_symop_operation_xyz
x,y,z
-x,-y,z
1/2-x,y,1/2+z
1/2+x,-y,1/2+z
x,1/2+y,1/2+z
-x,1/2-y,1/2+z
1/2-x,1/2+y,z
1/2+x,1/2-y,z
loop_
_atom_site_type_symbol
_atom_site_label
_atom_site_fract_x
_atom_site_fract_y
_atom_site_fract_z
Si Si1 0.000000 0.000000 0.842541
Si Si2 0.762603 0.468057 0.546981
Si Si3 0.090962 0.640013 0.812029
Si Si4 0.246248 0.853094 0.712253
O O1 0.110391 0.930728 0.752073
O O2 0.896660 0.930457 0.943420
O O3 0.827664 0.439786 0.703163
O O4 0.625355 0.405336 0.473713
O O5 0.765791 0.595154 0.549902
O O6 0.173757 0.744471 0.759427
O O7 0.914283 0.646760 0.778383
#
# Coordination Sequence:
#
# PCOD9368030 Si02
#       4
#     4   8   8   8
#     4  12  26  52  78 118 160 208 280 342 408 484
#     4  12  27  53  80 121 166 216 274 346 408 500
#     4  12  29  53  84 121 168 218 280 338 424 499
#     4  12  29  55  85 123 167 219 280 347 417 502
#
# _framework density 26.347132999999999
#
# number of rings (size 3 to 8) (size 9 to 14) (size 15 to 20)
#    0.000    0.000    5.714    1.714    4.000    4.571 
#    0.000    0.000    0.000    0.000    0.000    0.000 
#    0.000    0.000    0.000    0.000    0.000    0.000 
#
# Total GULP energy -78017.707287 kJ/mol
# GULP energy per Si atom -5572.693378 kJ/mol
# Density = 2.628717 g / cm^3
# Si number density = 26.347133 Si / 1000 Ang^3
#
#
#
# Elastic Constant Matrix: (Units=GPa)
#
#
# Indices 1 2 3 4 5 6 
#
# 1 220.7040 96.7527 64.9268 0.0000 0.0000 0.0000
# 2 96.7527 145.0232 0.7924 0.0000 0.0000 0.0000
# 3 64.9268 0.7924 63.3688 0.0000 0.0000 0.0000
# 4 0.0000 0.0000 0.0000 33.9818 0.0000 0.0000
# 5 0.0000 0.0000 0.0000 0.0000 74.2841 0.0000
# 6 0.0000 0.0000 0.0000 0.0000 0.0000 44.7038
#
#
#
# Elastic Compliance Matrix: (Units=1/GPa)
#
#
# Indices 1 2 3 4 5 6 
#
# 1 0.011025 -0.007294 -0.011204 0.000000 0.000000 0.000000
# 2 -0.007294 0.011722 0.007327 0.000000 0.000000 0.000000
# 3 -0.011204 0.007327 0.027169 0.000000 0.000000 0.000000
# 4 0.000000 0.000000 0.000000 0.029428 0.000000 0.000000
# 5 0.000000 0.000000 0.000000 0.000000 0.013462 0.000000
# 6 0.000000 0.000000 0.000000 0.000000 0.000000 0.022369
#
#
# Mechanical properties :
#
#
# Convention : Reuss Voigt Hill
#
# Bulk Modulus (GPa) = 36.26902 83.78220 60.02561
# Shear Modulus (GPa) = 34.08134 48.36889 41.22511
#
# Velocity S-wave (km/s) = 3.60050 4.28931 3.95991
# Velocity P-wave (km/s) = 5.57499 7.50995 6.61361
#
# Compressibility (1/GPa) = 0.02757174
#
# Stress axis : x y z
#
# Youngs Moduli (GPa) = 90.70633 85.31295 36.80671
#
# Poissons Ratio (x) = 0.62226 0.41240
# Poissons Ratio (y) = 0.66160 -0.26967
# Poissons Ratio (z) = 1.01631 -0.62506
#
# Static dielectric constant tensor:
#      x y z
#    x 2.034440 0.000000 0.000000 
#    y 0.000000 2.356440 0.000000 
#    z 0.000000 0.000000 2.165770 
# 
# From -- ./inp_files/1611.got.cif
#   From: 2010.05.17/outbox.cif.g08.bks.cpg/sg41_1_cif.got.tgz:1611.got - 2010.06.03 18:54:24.
