data_PCOD9368428
_publ_section_title
;
Structure prediction by ZEFSAII (Michael W. Deem and Ramdas Pophale) SiO2 
 PCOD9368428
Probable space group: F M M 2
;
_chemical_formula_sum "Si O2"
_cell_formula_units_Z 128
_cell_length_a 7.421823
_cell_length_b 30.399726
_cell_length_c 25.861375
_cell_angle_alpha 90.000000
_cell_angle_beta 90.000000
_cell_angle_gamma 90.000000
_cell_volume 5834.879262
_symmetry_space_group_name_H-M "F M M 2"
_symmetry_group_IT_number 42
_symmetry_cell_setting 'orthorhombic'
loop_
_space_group_symop_operation_xyz
x,y,z
-x,-y,z
-x,y,z
x,-y,z
x,1/2+y,1/2+z
-x,1/2-y,1/2+z
-x,1/2+y,1/2+z
x,1/2-y,1/2+z
1/2+x,y,1/2+z
1/2-x,-y,1/2+z
1/2-x,y,1/2+z
1/2+x,-y,1/2+z
1/2+x,1/2+y,z
1/2-x,1/2-y,z
1/2-x,1/2+y,z
1/2+x,1/2-y,z
loop_
_atom_site_type_symbol
_atom_site_label
_atom_site_fract_x
_atom_site_fract_y
_atom_site_fract_z
Si Si1 0.717103 0.888409 0.417170
Si Si2 0.788626 0.683919 0.257201
Si Si3 0.778671 0.893863 0.612756
Si Si4 0.210691 0.082381 0.725078
Si Si5 0.279969 0.547301 0.828842
Si Si6 0.284747 0.702090 0.643937
Si Si7 0.784621 0.299059 0.372521
Si Si8 0.213069 0.949846 0.515258
O O1 0.500000 0.887817 0.417238
O O2 0.779486 0.914049 0.365996
O O3 0.780470 0.838244 0.409781
O O4 0.766451 0.918058 0.466007
O O5 0.781027 0.631455 0.249050
O O6 0.711132 0.701952 0.203132
O O7 0.713026 0.696525 0.313282
O O8 0.000000 0.696698 0.258359
O O9 0.717389 0.914797 0.667251
O O10 0.723014 0.842271 0.614845
O O11 0.715564 0.922862 0.564746
O O12 0.000000 0.893790 0.612424
O O13 0.285972 0.052319 0.770300
O O14 0.000000 0.070619 0.719145
O O15 0.500000 0.549402 0.827156
O O16 0.229737 0.500000 0.850846
O O17 0.500000 0.697106 0.648294
O O18 0.250000 0.750000 0.620347
O O19 0.750000 0.250000 0.391521
O O20 0.000000 0.304852 0.368409
O O21 0.000000 0.954372 0.523839
O O22 0.284088 0.000000 0.508689
#
# Coordination Sequence:
#
# PCOD9368428 Si02
#       8
#    16  16  16  16  16  16  16  16
#     4  10  20  35  53  74 103 134 168 210 254 302
#     4   8  13  24  42  66  98 133 163 195 238 291
#     4   8  16  30  48  70  98 130 163 202 250 297
#     4   8  12  22  41  67  99 130 156 192 246 299
#     4   9  15  23  41  71 101 126 155 197 249 300
#     4   9  16  27  46  71 100 133 164 197 241 293
#     4  10  19  31  49  73 102 135 169 206 249 298
#     4  10  21  37  56  76  98 129 171 216 258 301
#
# _framework density 21.937042000000002
#
# number of rings (size 3 to 8) (size 9 to 14) (size 15 to 20)
#    0.000    3.000    1.250    2.250    0.000    1.750 
#    0.000    3.750    0.000    3.000    0.000    0.875 
#    0.000    0.000    0.000    0.000    0.000    0.000 
#
# Total GULP energy -178397.472151 kJ/mol
# GULP energy per Si atom -5574.921005 kJ/mol
# Density = 2.188711 g / cm^3
# Si number density = 21.937042 Si / 1000 Ang^3
#
#
#
# Elastic Constant Matrix: (Units=GPa)
#
#
# Indices 1 2 3 4 5 6 
#
# 1 69.9781 8.3734 0.8171 0.0000 0.0000 0.0000
# 2 8.3734 170.9742 95.5977 0.0000 0.0000 0.0000
# 3 0.8171 95.5977 131.0415 0.0000 0.0000 0.0000
# 4 0.0000 0.0000 0.0000 18.9886 0.0000 0.0000
# 5 0.0000 0.0000 0.0000 0.0000 0.2705 0.0000
# 6 0.0000 0.0000 0.0000 0.0000 0.0000 11.2954
#
#
#
# Elastic Compliance Matrix: (Units=1/GPa)
#
#
# Indices 1 2 3 4 5 6 
#
# 1 0.014414 -0.001107 0.000718 0.000000 0.000000 0.000000
# 2 -0.001107 0.009963 -0.007261 0.000000 0.000000 0.000000
# 3 0.000718 -0.007261 0.012924 0.000000 0.000000 0.000000
# 4 0.000000 0.000000 0.000000 0.052663 0.000000 0.000000
# 5 0.000000 0.000000 0.000000 0.000000 3.696318 0.000000
# 6 0.000000 0.000000 0.000000 0.000000 0.000000 0.088532
#
#
# Mechanical properties :
#
#
# Convention : Reuss Voigt Hill
#
# Bulk Modulus (GPa) = 45.45483 64.61890 55.03686
# Shear Modulus (GPa) = 1.28289 23.92462 12.60375
#
# Velocity S-wave (km/s) = 0.76556 3.30601 2.39956
# Velocity P-wave (km/s) = 4.64187 6.64029 5.72889
#
# Compressibility (1/GPa) = 0.02199986
#
# Stress axis : x y z
#
# Youngs Moduli (GPa) = 69.37550 100.36914 77.37479
#
# Poissons Ratio (x) = 0.11115 -0.05555
# Poissons Ratio (y) = 0.07682 0.56186
# Poissons Ratio (z) = -0.04981 0.72883
#
# Static dielectric constant tensor:
#      x y z
#    x 1.891530 0.000000 0.000000 
#    y 0.000000 1.878230 0.000000 
#    z 0.000000 0.000000 1.785040 
# 
# From -- ./inp_files/29103.got.cif
#   From: 2010.05.17/outbox.cif.g08.bks.cpg/sg42_15_cif.got.tgz:29103.got - 2010.06.03 19:03:34.
