data_PCOD9368304
_publ_section_title
;
Structure prediction by ZEFSAII (Michael W. Deem and Ramdas Pophale) SiO2 
 PCOD9368304
Probable space group: F M M 2
;
_chemical_formula_sum "Si O2"
_cell_formula_units_Z 104
_cell_length_a 22.889568
_cell_length_b 7.951794
_cell_length_c 31.303901
_cell_angle_alpha 90.000000
_cell_angle_beta 90.000000
_cell_angle_gamma 90.000000
_cell_volume 5697.720986
_symmetry_space_group_name_H-M "F M M 2"
_symmetry_group_IT_number 42
_symmetry_cell_setting 'orthorhombic'
loop_
_space_group_symop_operation_xyz
x,y,z
-x,-y,z
-x,y,z
x,-y,z
x,1/2+y,1/2+z
-x,1/2-y,1/2+z
-x,1/2+y,1/2+z
x,1/2-y,1/2+z
1/2+x,y,1/2+z
1/2-x,-y,1/2+z
1/2-x,y,1/2+z
1/2+x,-y,1/2+z
1/2+x,1/2+y,z
1/2-x,1/2-y,z
1/2-x,1/2+y,z
1/2+x,1/2-y,z
loop_
_atom_site_type_symbol
_atom_site_label
_atom_site_fract_x
_atom_site_fract_y
_atom_site_fract_z
Si Si1 0.935076 0.000000 0.033258
Si Si2 0.397900 0.000000 0.437298
Si Si3 0.852366 0.805833 0.553067
Si Si4 0.185805 0.200058 0.646071
Si Si5 0.569743 0.685927 0.290147
Si Si6 0.068010 0.000000 0.841349
Si Si7 0.566510 0.796059 0.191800
Si Si8 0.185850 0.806605 0.456693
O O1 0.902466 0.167789 0.048223
O O2 0.000000 0.000000 0.049675
O O3 0.933658 0.000000 0.981447
O O4 0.429506 0.000000 0.392157
O O5 0.359046 0.831240 0.439655
O O6 0.817071 0.760600 0.595572
O O7 0.817615 0.798198 0.508520
O O8 0.873156 0.000000 0.557816
O O9 0.250000 0.250000 0.663086
O O10 0.124416 0.264554 0.666330
O O11 0.183276 0.000000 0.650740
O O12 0.500000 0.674377 0.298492
O O13 0.594824 0.500000 0.296981
O O14 0.574819 0.739735 0.240792
O O15 0.594249 0.831808 0.320482
O O16 0.000000 0.000000 0.828002
O O17 0.500000 0.741502 0.178454
O O18 0.565925 0.000000 0.190075
O O19 0.250000 0.750000 0.443170
O O20 0.173361 0.000000 0.444694
#
# Coordination Sequence:
#
# PCOD9368304 Si02
#       8
#     8   8  16  16  16   8  16  16
#     4  10  21  36  54  77 111 149 183 220 269 333
#     4  10  21  34  52  82 108 136 175 220 269 331
#     4   9  20  35  52  77 108 143 190 226 270 315
#     4  10  21  34  53  81 112 150 186 237 281 324
#     4   9  17  31  54  81 104 134 176 221 269 322
#     4  10  19  34  56  79 109 139 170 218 272 324
#     4   9  17  33  55  79 108 144 187 229 277 332
#     4  10  18  32  54  77 101 139 179 225 269 314
#
# _framework density 18.252911000000001
#
# number of rings (size 3 to 8) (size 9 to 14) (size 15 to 20)
#    0.000    2.462    1.538    0.692    1.077    2.154 
#    0.000    1.538    0.000    3.692    0.000    0.000 
#    0.000    0.000    0.000    0.000    0.000    0.000 
#
# Total GULP energy -144769.638757 kJ/mol
# GULP energy per Si atom -5568.063029 kJ/mol
# Density = 1.821137 g / cm^3
# Si number density = 18.252911 Si / 1000 Ang^3
#
#
#
# Elastic Constant Matrix: (Units=GPa)
#
#
# Indices 1 2 3 4 5 6 
#
# 1 93.0354 42.4822 18.6065 0.0000 0.0000 0.0018
# 2 42.4822 98.6732 26.5514 -0.0007 0.0000 0.0029
# 3 18.6065 26.5514 50.4989 0.0000 0.0000 -0.0002
# 4 0.0000 -0.0007 0.0000 29.5260 0.0001 -0.0001
# 5 0.0000 0.0000 0.0000 0.0001 11.0929 0.0000
# 6 0.0018 0.0029 -0.0002 -0.0001 0.0000 3.8550
#
#
#
# Elastic Compliance Matrix: (Units=1/GPa)
#
#
# Indices 1 2 3 4 5 6 
#
# 1 0.013595 -0.005248 -0.002250 0.000000 0.000000 -0.000002
# 2 -0.005248 0.013830 -0.005338 0.000000 0.000000 -0.000008
# 3 -0.002250 -0.005338 0.023438 0.000000 0.000000 0.000006
# 4 0.000000 0.000000 0.000000 0.033869 0.000000 0.000001
# 5 0.000000 0.000000 0.000000 0.000000 0.090148 0.000000
# 6 -0.000002 -0.000008 0.000006 0.000001 0.000000 0.259402
#
#
# Mechanical properties :
#
#
# Convention : Reuss Voigt Hill
#
# Bulk Modulus (GPa) = 39.69570 46.38753 43.04162
# Shear Modulus (GPa) = 10.67577 19.19926 14.93752
#
# Velocity S-wave (km/s) = 2.42105 3.24674 2.86381
# Velocity P-wave (km/s) = 5.44152 6.28681 5.87938
#
# Compressibility (1/GPa) = 0.02519164
#
# Stress axis : x y z
#
# Youngs Moduli (GPa) = 73.55783 72.30589 42.66551
#
# Poissons Ratio (x) = 0.37943 0.09600
# Poissons Ratio (y) = 0.38600 0.22775
# Poissons Ratio (z) = 0.16550 0.38598
#
# Static dielectric constant tensor:
#      x y z
#    x 1.659830 0.000000 0.000000 
#    y 0.000000 1.502720 0.000000 
#    z 0.000000 0.000000 1.611390 
# 
# From -- ./inp_files/33264.got.cif
#   From: 2010.05.17/outbox.cif.g08.bks.cpg/sg42_17_cif.got.tgz:33264.got - 2010.06.03 19:03:34.
