data_PCOD9368970
_publ_section_title
;
Structure prediction by ZEFSAII (Michael W. Deem and Ramdas Pophale) SiO2 
 PCOD9368970
Probable space group: F M M 2
;
_chemical_formula_sum "Si O2"
_cell_formula_units_Z 72
_cell_length_a 21.777867
_cell_length_b 14.101865
_cell_length_c 12.823050
_cell_angle_alpha 90.000000
_cell_angle_beta 90.000000
_cell_angle_gamma 90.000000
_cell_volume 3938.068169
_symmetry_space_group_name_H-M "F M M 2"
_symmetry_group_IT_number 42
_symmetry_cell_setting 'orthorhombic'
loop_
_space_group_symop_operation_xyz
x,y,z
-x,-y,z
-x,y,z
x,-y,z
x,1/2+y,1/2+z
-x,1/2-y,1/2+z
-x,1/2+y,1/2+z
x,1/2-y,1/2+z
1/2+x,y,1/2+z
1/2-x,-y,1/2+z
1/2-x,y,1/2+z
1/2+x,-y,1/2+z
1/2+x,1/2+y,z
1/2-x,1/2-y,z
1/2-x,1/2+y,z
1/2+x,1/2-y,z
loop_
_atom_site_type_symbol
_atom_site_label
_atom_site_fract_x
_atom_site_fract_y
_atom_site_fract_z
Si Si1 0.294552 0.890846 0.312330
Si Si2 0.153102 0.390674 0.739653
Si Si3 0.250000 0.250000 0.480713
Si Si4 0.069999 0.387327 0.941923
Si Si5 0.142642 0.201870 0.622181
O O1 0.225894 0.883699 0.262903
O O2 0.290197 0.819688 0.409147
O O3 0.343906 0.856215 0.227657
O O4 0.304479 0.000000 0.342054
O O5 0.139516 0.500000 0.710861
O O6 0.116108 0.368079 0.846062
O O7 0.136642 0.311486 0.655255
O O8 0.204209 0.191451 0.553099
O O9 0.074387 0.500000 0.961810
O O10 0.000000 0.364817 0.912112
O O11 0.089409 0.334534 0.047316
#
# Coordination Sequence:
#
# PCOD9368970 Si02
#       5
#    16  16   8  16  16
#     4  11  21  33  51  81 114 147 180 230 284 330
#     4  10  20  35  55  81 114 146 186 233 280 332
#     4  12  20  34  50  82 114 146 178 230 278 350
#     4  10  22  39  59  82 111 152 195 231 273 333
#     4  12  20  36  57  84 114 145 190 231 282 335
#
# _framework density 18.283076999999999
#
# number of rings (size 3 to 8) (size 9 to 14) (size 15 to 20)
#    0.000    1.111    6.667    0.667    0.000    2.667 
#    0.000    0.000    0.000    0.000    0.000    0.000 
#    0.000    0.000    0.000    0.000    0.000    0.000 
#
# Total GULP energy -100487.014285 kJ/mol
# GULP energy per Si atom -5582.611905 kJ/mol
# Density = 1.824146 g / cm^3
# Si number density = 18.283077 Si / 1000 Ang^3
#
#
#
# Elastic Constant Matrix: (Units=GPa)
#
#
# Indices 1 2 3 4 5 6 
#
# 1 47.3688 11.9949 11.0703 0.0000 0.0000 0.0000
# 2 11.9949 69.0279 27.5242 0.0000 0.0000 0.0000
# 3 11.0703 27.5242 70.6156 0.0000 0.0000 0.0000
# 4 0.0000 0.0000 0.0000 29.0950 0.0000 0.0000
# 5 0.0000 0.0000 0.0000 0.0000 22.3500 0.0000
# 6 0.0000 0.0000 0.0000 0.0000 0.0000 18.1673
#
#
#
# Elastic Compliance Matrix: (Units=1/GPa)
#
#
# Indices 1 2 3 4 5 6 
#
# 1 0.022411 -0.002952 -0.002363 0.000000 0.000000 0.000000
# 2 -0.002952 0.017542 -0.006375 0.000000 0.000000 0.000000
# 3 -0.002363 -0.006375 0.017016 0.000000 0.000000 0.000000
# 4 0.000000 0.000000 0.000000 0.034370 0.000000 0.000000
# 5 0.000000 0.000000 0.000000 0.000000 0.044743 0.000000
# 6 0.000000 0.000000 0.000000 0.000000 0.000000 0.055044
#
#
# Mechanical properties :
#
#
# Convention : Reuss Voigt Hill
#
# Bulk Modulus (GPa) = 29.77082 32.02123 30.89603
# Shear Modulus (GPa) = 22.15324 23.01733 22.58529
#
# Velocity S-wave (km/s) = 3.48470 3.55201 3.51851
# Velocity P-wave (km/s) = 5.70170 5.86298 5.78290
#
# Compressibility (1/GPa) = 0.03358993
#
# Stress axis : x y z
#
# Youngs Moduli (GPa) = 44.62162 57.00713 58.76761
#
# Poissons Ratio (x) = 0.16830 0.13884
# Poissons Ratio (y) = 0.13173 0.37461
# Poissons Ratio (z) = 0.10542 0.36339
#
# Static dielectric constant tensor:
#      x y z
#    x 1.617810 0.000000 0.000000 
#    y 0.000000 1.639030 0.000000 
#    z 0.000000 0.000000 1.620730 
# 
# From -- ./inp_files/7695.got.cif
#   From: 2010.05.17/outbox.cif.g08.bks.cpg/sg42_4_cif.got.tgz:7695.got - 2010.06.03 19:03:34.
