data_PCOD9368312
_publ_section_title
;
Structure prediction by ZEFSAII (Michael W. Deem and Ramdas Pophale) SiO2 
 PCOD9368312
Probable space group: F M M 2
;
_chemical_formula_sum "Si O2"
_cell_formula_units_Z 88
_cell_length_a 15.150778
_cell_length_b 11.088146
_cell_length_c 27.214363
_cell_angle_alpha 90.000000
_cell_angle_beta 90.000000
_cell_angle_gamma 90.000000
_cell_volume 4571.850745
_symmetry_space_group_name_H-M "F M M 2"
_symmetry_group_IT_number 42
_symmetry_cell_setting 'orthorhombic'
loop_
_space_group_symop_operation_xyz
x,y,z
-x,-y,z
-x,y,z
x,-y,z
x,1/2+y,1/2+z
-x,1/2-y,1/2+z
-x,1/2+y,1/2+z
x,1/2-y,1/2+z
1/2+x,y,1/2+z
1/2-x,-y,1/2+z
1/2-x,y,1/2+z
1/2+x,-y,1/2+z
1/2+x,1/2+y,z
1/2-x,1/2-y,z
1/2-x,1/2+y,z
1/2+x,1/2-y,z
loop_
_atom_site_type_symbol
_atom_site_label
_atom_site_fract_x
_atom_site_fract_y
_atom_site_fract_z
Si Si1 0.500000 0.136863 0.692380
Si Si2 0.685817 0.856258 0.635361
Si Si3 0.811744 0.131365 0.823436
Si Si4 0.000000 0.859117 0.389277
Si Si5 0.500000 0.290873 0.789554
Si Si6 0.095255 0.859901 0.039075
Si Si7 0.346543 0.794175 0.432623
O O1 0.410295 0.150612 0.661123
O O2 0.500000 0.227603 0.737393
O O3 0.500000 0.000000 0.711825
O O4 0.750000 0.750000 0.655497
O O5 0.666687 0.819875 0.578560
O O6 0.714605 0.000000 0.639202
O O7 0.750000 0.250000 0.814172
O O8 0.906547 0.141622 0.796820
O O9 0.834034 0.133576 0.881831
O O10 0.770424 0.000000 0.811671
O O11 0.000000 0.803238 0.334934
O O12 0.914018 0.810661 0.417374
O O13 0.000000 0.000000 0.386678
O O14 0.000000 0.799286 0.046844
O O15 0.086880 0.000000 0.051762
O O16 0.116723 0.853941 0.981602
O O17 0.250000 0.750000 0.446019
#
# Coordination Sequence:
#
# PCOD9368312 Si02
#       7
#     8  16  16   8   8  16  16
#     4  10  21  40  64  89 117 152 195 241 296 358
#     4  10  21  40  64  89 118 152 193 240 292 350
#     4  10  22  39  59  87 121 157 198 242 287 342
#     4  10  21  36  52  79 119 156 195 241 292 344
#     4  10  22  38  60  84 113 154 195 244 295 346
#     4  10  18  32  57  83 111 152 195 233 280 345
#     4  10  20  33  54  81 115 157 195 235 283 338
#
# _framework density 19.248222999999999
#
# number of rings (size 3 to 8) (size 9 to 14) (size 15 to 20)
#    0.000    2.000    1.818    1.636    0.000    8.727 
#    0.000    5.000    0.000    0.000    0.000    0.000 
#    0.000    0.000    0.000    0.000    0.000    0.000 
#
# Total GULP energy -122492.866655 kJ/mol
# GULP energy per Si atom -5567.857575 kJ/mol
# Density = 1.920441 g / cm^3
# Si number density = 19.248223 Si / 1000 Ang^3
#
#
#
# Elastic Constant Matrix: (Units=GPa)
#
#
# Indices 1 2 3 4 5 6 
#
# 1 105.0732 59.5988 10.3943 0.0000 0.0000 0.0000
# 2 59.5988 124.6427 17.8434 0.0000 0.0000 0.0000
# 3 10.3943 17.8434 59.7843 0.0000 0.0000 0.0000
# 4 0.0000 0.0000 0.0000 -60.7549 0.0000 0.0000
# 5 0.0000 0.0000 0.0000 0.0000 7.2415 0.0000
# 6 0.0000 0.0000 0.0000 0.0000 0.0000 20.8608
#
#
#
# Elastic Compliance Matrix: (Units=1/GPa)
#
#
# Indices 1 2 3 4 5 6 
#
# 1 0.013069 -0.006188 -0.000425 0.000000 0.000000 0.000000
# 2 -0.006188 0.011311 -0.002300 0.000000 0.000000 0.000000
# 3 -0.000425 -0.002300 0.017487 0.000000 0.000000 0.000000
# 4 0.000000 0.000000 0.000000 -0.016460 0.000000 0.000000
# 5 0.000000 0.000000 0.000000 0.000000 0.138093 0.000000
# 6 0.000000 0.000000 0.000000 0.000000 0.000000 0.047937
#
#
# Mechanical properties :
#
#
# Convention : Reuss Voigt Hill
#
# Bulk Modulus (GPa) = 41.59659 51.68589 46.64124
# Shear Modulus (GPa) = 21.07228 6.91373 13.99301
#
# Velocity S-wave (km/s) = 3.31231 1.89728 2.69918
# Velocity P-wave (km/s) = 6.02379 5.63118 5.83079
#
# Compressibility (1/GPa) = 0.02404043
#
# Stress axis : x y z
#
# Youngs Moduli (GPa) = 76.51504 88.40816 57.18464
#
# Poissons Ratio (x) = 0.54710 0.02432
# Poissons Ratio (y) = 0.47350 0.13153
# Poissons Ratio (z) = 0.03254 0.20334
#
# Static dielectric constant tensor:
#      x y z
#    x 1.723260 0.000000 0.000000 
#    y 0.000000 1.702910 0.000000 
#    z 0.000000 0.000000 1.673160 
# 
# From -- ./inp_files/29345.got.cif
#   From: 2010.05.17/outbox.cif.g08.bks.cpg/sg42_15_cif.got.tgz:29345.got - 2010.06.03 19:03:34.
