data_PCOD9368962
_publ_section_title
;
Structure prediction by ZEFSAII (Michael W. Deem and Ramdas Pophale) SiO2 
 PCOD9368962
Probable space group: F M M 2
;
_chemical_formula_sum "Si O2"
_cell_formula_units_Z 100
_cell_length_a 25.552566
_cell_length_b 8.937298
_cell_length_c 20.401732
_cell_angle_alpha 90.000000
_cell_angle_beta 90.000000
_cell_angle_gamma 90.000000
_cell_volume 4659.161837
_symmetry_space_group_name_H-M "F M M 2"
_symmetry_group_IT_number 42
_symmetry_cell_setting 'orthorhombic'
loop_
_space_group_symop_operation_xyz
x,y,z
-x,-y,z
-x,y,z
x,-y,z
x,1/2+y,1/2+z
-x,1/2-y,1/2+z
-x,1/2+y,1/2+z
x,1/2-y,1/2+z
1/2+x,y,1/2+z
1/2-x,-y,1/2+z
1/2-x,y,1/2+z
1/2+x,-y,1/2+z
1/2+x,1/2+y,z
1/2-x,1/2-y,z
1/2-x,1/2+y,z
1/2+x,1/2-y,z
loop_
_atom_site_type_symbol
_atom_site_label
_atom_site_fract_x
_atom_site_fract_y
_atom_site_fract_z
Si Si1 0.665511 0.678229 0.035420
Si Si2 0.587617 0.165468 0.843378
Si Si3 0.000000 0.500000 0.911675
Si Si4 0.082022 0.824511 0.716692
Si Si5 0.802856 0.180264 0.400691
Si Si6 0.198054 0.822175 0.673255
Si Si7 0.940745 0.678970 0.068546
O O1 0.671917 0.500000 0.032468
O O2 0.688164 0.743674 0.103144
O O3 0.604369 0.725810 0.035143
O O4 0.692205 0.759306 0.974568
O O5 0.546555 0.128225 0.900859
O O6 0.562459 0.251013 0.782846
O O7 0.642550 0.230104 0.867493
O O8 0.600115 0.000000 0.815601
O O9 0.144641 0.797994 0.713107
O O10 0.060520 0.777056 0.645717
O O11 0.072075 0.000000 0.720034
O O12 0.750000 0.250000 0.371542
O O13 0.800547 0.000000 0.400230
O O14 0.250000 0.750000 0.702808
O O15 0.204441 0.000000 0.664221
O O16 0.927686 0.500000 0.064178
O O17 0.000000 0.693322 0.043771
#
# Coordination Sequence:
#
# PCOD9368962 Si02
#       7
#    16  16   4  16  16  16  16
#     4  11  22  37  56  84 115 149 196 244 297 355
#     4   9  21  39  61  85 114 153 199 242 295 351
#     4   8  20  44  62  84 116 148 210 242 288 358
#     4   9  19  34  55  84 117 147 190 238 290 349
#     4  11  23  41  62  87 115 155 198 246 300 362
#     4  10  20  35  54  79 115 155 193 234 290 354
#     4   9  19  36  57  83 116 156 195 239 295 355
#
# _framework density 21.463087999999999
#
# number of rings (size 3 to 8) (size 9 to 14) (size 15 to 20)
#    0.480    1.760    0.000    3.840    1.120    5.440 
#    1.440    3.200    0.000    0.000    0.000    0.000 
#    0.000    0.000    0.000    0.000    0.000    0.000 
#
# Total GULP energy -139278.804382 kJ/mol
# GULP energy per Si atom -5571.152175 kJ/mol
# Density = 2.141424 g / cm^3
# Si number density = 21.463088 Si / 1000 Ang^3
#
#
#
# Elastic Constant Matrix: (Units=GPa)
#
#
# Indices 1 2 3 4 5 6 
#
# 1 128.4946 28.6819 8.7161 0.0000 0.0000 0.0000
# 2 28.6819 55.6236 15.0855 0.0000 0.0000 0.0000
# 3 8.7161 15.0855 58.5415 0.0000 0.0000 0.0000
# 4 0.0000 0.0000 0.0000 9.0925 0.0000 0.0000
# 5 0.0000 0.0000 0.0000 0.0000 -25.7234 0.0000
# 6 0.0000 0.0000 0.0000 0.0000 0.0000 32.1275
#
#
#
# Elastic Compliance Matrix: (Units=1/GPa)
#
#
# Indices 1 2 3 4 5 6 
#
# 1 0.008796 -0.004495 -0.000151 0.000000 0.000000 0.000000
# 2 -0.004495 0.021625 -0.004903 0.000000 0.000000 0.000000
# 3 -0.000151 -0.004903 0.018368 0.000000 0.000000 0.000000
# 4 0.000000 0.000000 0.000000 0.109980 0.000000 0.000000
# 5 0.000000 0.000000 0.000000 0.000000 -0.038875 0.000000
# 6 0.000000 0.000000 0.000000 0.000000 0.000000 0.031126
#
#
# Mechanical properties :
#
#
# Convention : Reuss Voigt Hill
#
# Bulk Modulus (GPa) = 33.68071 38.62520 36.15296
# Shear Modulus (GPa) = 27.77528 15.77775 21.77652
#
# Velocity S-wave (km/s) = 3.60126 2.71423 3.18874
# Velocity P-wave (km/s) = 5.74617 5.27806 5.51708
#
# Compressibility (1/GPa) = 0.02969058
#
# Stress axis : x y z
#
# Youngs Moduli (GPa) = 113.68883 46.24193 54.44248
#
# Poissons Ratio (x) = 0.20783 0.00824
# Poissons Ratio (y) = 0.51097 0.26696
# Poissons Ratio (z) = 0.01721 0.22675
#
# Static dielectric constant tensor:
#      x y z
#    x 1.849920 0.000000 0.000000 
#    y 0.000000 1.732380 0.000000 
#    z 0.000000 0.000000 1.829840 
# 
# From -- ./inp_files/27089.got.cif
#   From: 2010.05.17/outbox.cif.g08.bks.cpg/sg42_14_cif.got.tgz:27089.got - 2010.06.03 19:03:34.
