data_PCOD9368323
_publ_section_title
;
Structure prediction by ZEFSAII (Michael W. Deem and Ramdas Pophale) SiO2 
 PCOD9368323
Probable space group: F M M 2
;
_chemical_formula_sum "Si O2"
_cell_formula_units_Z 96
_cell_length_a 26.561508
_cell_length_b 8.122656
_cell_length_c 24.034435
_cell_angle_alpha 90.000000
_cell_angle_beta 90.000000
_cell_angle_gamma 90.000000
_cell_volume 5185.429167
_symmetry_space_group_name_H-M "F M M 2"
_symmetry_group_IT_number 42
_symmetry_cell_setting 'orthorhombic'
loop_
_space_group_symop_operation_xyz
x,y,z
-x,-y,z
-x,y,z
x,-y,z
x,1/2+y,1/2+z
-x,1/2-y,1/2+z
-x,1/2+y,1/2+z
x,1/2-y,1/2+z
1/2+x,y,1/2+z
1/2-x,-y,1/2+z
1/2-x,y,1/2+z
1/2+x,-y,1/2+z
1/2+x,1/2+y,z
1/2-x,1/2-y,z
1/2-x,1/2+y,z
1/2+x,1/2-y,z
loop_
_atom_site_type_symbol
_atom_site_label
_atom_site_fract_x
_atom_site_fract_y
_atom_site_fract_z
Si Si1 0.806739 0.800686 0.800060
Si Si2 0.000000 0.702696 0.419075
Si Si3 0.401215 0.313607 0.856027
Si Si4 0.500000 0.696216 0.047394
Si Si5 0.440882 0.684403 0.248038
Si Si6 0.306622 0.198044 0.171735
Si Si7 0.089382 0.197087 0.627180
O O1 0.750000 0.750000 0.812605
O O2 0.846008 0.737424 0.846647
O O3 0.816843 0.744616 0.735809
O O4 0.810316 0.000000 0.799839
O O5 0.948222 0.761076 0.389621
O O6 0.000000 0.751190 0.483414
O O7 0.000000 0.500000 0.414333
O O8 0.395157 0.500000 0.877188
O O9 0.418608 0.311627 0.791701
O O10 0.500000 0.500000 0.047611
O O11 0.449091 0.750388 0.079100
O O12 0.500000 0.680393 0.258209
O O13 0.420751 0.500000 0.258337
O O14 0.432373 0.735178 0.184967
O O15 0.250000 0.250000 0.156673
O O16 0.351833 0.251721 0.130695
O O17 0.307373 0.000000 0.173292
O O18 0.088891 0.000000 0.628472
#
# Coordination Sequence:
#
# PCOD9368323 Si02
#       7
#    16   8  16   8  16  16  16
#     4   9  17  29  46  73 105 136 169 203 242 300
#     4   9  20  36  57  76  97 132 174 219 260 307
#     4  10  18  33  55  75 100 139 176 205 249 313
#     4  11  23  38  53  78 103 130 178 225 268 305
#     4  11  21  30  45  77 111 136 164 208 260 308
#     4   9  18  31  48  75 106 137 171 205 247 305
#     4  11  21  35  54  75 103 142 177 208 256 317
#
# _framework density 18.513414000000001
#
# number of rings (size 3 to 8) (size 9 to 14) (size 15 to 20)
#    0.000    2.000    3.333    1.250    0.000    2.667 
#    0.000    1.667    0.000    1.000    0.000    4.667 
#    0.000    0.000    0.000    0.000    0.000    0.000 
#
# Total GULP energy -133669.256055 kJ/mol
# GULP energy per Si atom -5569.552336 kJ/mol
# Density = 1.847128 g / cm^3
# Si number density = 18.513414 Si / 1000 Ang^3
#
#
#
# Elastic Constant Matrix: (Units=GPa)
#
#
# Indices 1 2 3 4 5 6 
#
# 1 174.2854 16.3919 60.1201 0.0000 0.0000 0.0000
# 2 16.3919 28.5409 7.5226 0.0000 0.0000 -0.0001
# 3 60.1201 7.5226 73.3870 0.0000 0.0000 0.0000
# 4 0.0000 0.0000 0.0000 9.7532 0.0000 0.0000
# 5 0.0000 0.0000 0.0000 0.0000 12.3752 0.0000
# 6 0.0000 -0.0001 0.0000 0.0000 0.0000 25.2507
#
#
#
# Elastic Compliance Matrix: (Units=1/GPa)
#
#
# Indices 1 2 3 4 5 6 
#
# 1 0.008246 -0.003038 -0.006444 0.000000 0.000000 0.000000
# 2 -0.003038 0.037129 -0.001317 0.000000 0.000000 0.000000
# 3 -0.006444 -0.001317 0.019041 0.000000 0.000000 0.000000
# 4 0.000000 0.000000 0.000000 0.102530 0.000000 0.000000
# 5 0.000000 0.000000 0.000000 0.000000 0.080807 0.000000
# 6 0.000000 0.000000 0.000000 0.000000 0.000000 0.039603
#
#
# Mechanical properties :
#
#
# Convention : Reuss Voigt Hill
#
# Bulk Modulus (GPa) = 23.35486 49.36470 36.35978
# Shear Modulus (GPa) = 15.46897 22.28773 18.87835
#
# Velocity S-wave (km/s) = 2.89373 3.47345 3.19676
# Velocity P-wave (km/s) = 4.87928 6.54283 5.77131
#
# Compressibility (1/GPa) = 0.04281764
#
# Stress axis : x y z
#
# Youngs Moduli (GPa) = 121.26579 26.93297 52.51917
#
# Poissons Ratio (x) = 0.08181 0.33844
# Poissons Ratio (y) = 0.36836 0.06919
# Poissons Ratio (z) = 0.78146 0.03548
#
# Static dielectric constant tensor:
#      x y z
#    x 1.686200 0.000000 0.000000 
#    y 0.000000 1.690270 0.000000 
#    z 0.000000 0.000000 1.611770 
# 
# From -- ./inp_files/28185.got.cif
#   From: 2010.05.17/outbox.cif.g08.bks.cpg/sg42_15_cif.got.tgz:28185.got - 2010.06.03 19:03:34.
