data_PCOD9368631
_publ_section_title
;
Structure prediction by ZEFSAII (Michael W. Deem and Ramdas Pophale) SiO2 
 PCOD9368631
Probable space group: F M M 2
;
_chemical_formula_sum "Si O2"
_cell_formula_units_Z 96
_cell_length_a 20.763556
_cell_length_b 25.047054
_cell_length_c 8.952047
_cell_angle_alpha 90.000000
_cell_angle_beta 90.000000
_cell_angle_gamma 90.000000
_cell_volume 4655.654455
_symmetry_space_group_name_H-M "F M M 2"
_symmetry_group_IT_number 42
_symmetry_cell_setting 'orthorhombic'
loop_
_space_group_symop_operation_xyz
x,y,z
-x,-y,z
-x,y,z
x,-y,z
x,1/2+y,1/2+z
-x,1/2-y,1/2+z
-x,1/2+y,1/2+z
x,1/2-y,1/2+z
1/2+x,y,1/2+z
1/2-x,-y,1/2+z
1/2-x,y,1/2+z
1/2+x,-y,1/2+z
1/2+x,1/2+y,z
1/2-x,1/2-y,z
1/2-x,1/2+y,z
1/2+x,1/2-y,z
loop_
_atom_site_type_symbol
_atom_site_label
_atom_site_fract_x
_atom_site_fract_y
_atom_site_fract_z
Si Si1 0.660870 0.355381 0.212080
Si Si2 0.790558 0.199748 0.662096
Si Si3 0.364612 0.254490 0.402202
Si Si4 0.425401 0.355162 0.931276
Si Si5 0.295175 0.940135 0.939877
Si Si6 0.660313 0.439426 0.782671
O O1 0.735385 0.344965 0.161426
O O2 0.633414 0.299070 0.273572
O O3 0.665654 0.397375 0.344730
O O4 0.614254 0.371134 0.079145
O O5 0.750000 0.250000 0.609089
O O6 0.810914 0.213219 0.831654
O O7 0.849135 0.208237 0.546528
O O8 0.419130 0.209717 0.420390
O O9 0.500000 0.369236 0.937076
O O10 0.389215 0.390662 0.805269
O O11 0.312074 0.937707 0.114274
O O12 0.311264 0.000000 0.887164
O O13 0.219993 0.932917 0.897609
O O14 0.633943 0.500000 0.805375
#
# Coordination Sequence:
#
# PCOD9368631 Si02
#       6
#    16  16  16  16  16  16
#     4  11  24  37  65  94 131 170 213 264 327 391
#     4  10  19  34  59  90 122 156 202 257 326 386
#     4  11  22  38  58  93 127 167 211 265 324 386
#     4  12  27  44  61  88 129 182 231 266 312 385
#     4  10  22  41  70 106 135 157 202 274 344 395
#     4  10  23  43  68 100 132 165 209 271 337 391
#
# _framework density 20.620087999999999
#
# number of rings (size 3 to 8) (size 9 to 14) (size 15 to 20)
#    0.000    1.333    3.333    3.500    7.000    3.000 
#    0.000    0.833    0.000    1.000    0.000    0.000 
#    0.000    0.000    0.000    0.000    0.000    0.000 
#
# Total GULP energy -133655.162679 kJ/mol
# GULP energy per Si atom -5568.965112 kJ/mol
# Density = 2.057316 g / cm^3
# Si number density = 20.620088 Si / 1000 Ang^3
#
#
#
# Elastic Constant Matrix: (Units=GPa)
#
#
# Indices 1 2 3 4 5 6 
#
# 1 82.4357 41.1472 41.0281 0.0000 0.0000 0.0000
# 2 41.1472 132.9004 33.4166 0.0000 0.0000 0.0000
# 3 41.0281 33.4166 89.6069 0.0002 -0.0001 -0.0001
# 4 0.0000 0.0000 0.0002 36.9373 -0.0001 0.0000
# 5 0.0000 0.0000 -0.0001 -0.0001 5.9695 0.0000
# 6 0.0000 0.0000 -0.0001 0.0000 0.0000 16.4857
#
#
#
# Elastic Compliance Matrix: (Units=1/GPa)
#
#
# Indices 1 2 3 4 5 6 
#
# 1 0.017211 -0.003694 -0.006503 0.000000 0.000000 0.000000
# 2 -0.003694 0.009096 -0.001701 0.000000 0.000000 0.000000
# 3 -0.006503 -0.001701 0.014772 0.000000 0.000000 0.000000
# 4 0.000000 0.000000 0.000000 0.027073 0.000000 0.000000
# 5 0.000000 0.000000 0.000000 0.000000 0.167518 0.000000
# 6 0.000000 0.000000 0.000000 0.000000 0.000000 0.060658
#
#
# Mechanical properties :
#
#
# Convention : Reuss Voigt Hill
#
# Bulk Modulus (GPa) = 57.85847 59.56963 58.71405
# Shear Modulus (GPa) = 15.34294 24.50192 19.92243
#
# Velocity S-wave (km/s) = 2.73074 3.45085 3.11169
# Velocity P-wave (km/s) = 6.16950 6.69549 6.43787
#
# Compressibility (1/GPa) = 0.01728355
#
# Stress axis : x y z
#
# Youngs Moduli (GPa) = 58.10347 109.94281 67.69763
#
# Poissons Ratio (x) = 0.40607 0.44022
# Poissons Ratio (y) = 0.21461 0.11514
# Poissons Ratio (z) = 0.37784 0.18700
#
# Static dielectric constant tensor:
#      x y z
#    x 1.763430 0.000000 0.000000 
#    y 0.000000 1.825720 0.000000 
#    z 0.000000 0.000000 1.788270 
# 
# From -- ./inp_files/4182.got.cif
#   From: 2010.05.17/outbox.cif.g08.bks.cpg/sg42_3_cif.got.tgz:4182.got - 2010.06.03 19:03:34.
