data_PCOD9368057
_publ_section_title
;
Structure prediction by ZEFSAII (Michael W. Deem and Ramdas Pophale) SiO2 
 PCOD9368057
Probable space group: A B A 2
;
_chemical_formula_sum "Si O2"
_cell_formula_units_Z 32
_cell_length_a 30.000000
_cell_length_b 9.000000
_cell_length_c 12.000000
_cell_angle_alpha 90.000000
_cell_angle_beta 90.000000
_cell_angle_gamma 90.000000
_cell_volume 3240.000000
_symmetry_space_group_name_H-M "A B A 2"
_symmetry_group_IT_number 41
_symmetry_cell_setting 'orthorhombic'
loop_
_space_group_symop_operation_xyz
x,y,z
-x,-y,z
1/2-x,y,1/2+z
1/2+x,-y,1/2+z
x,1/2+y,1/2+z
-x,1/2-y,1/2+z
1/2-x,1/2+y,z
1/2+x,1/2-y,z
loop_
_atom_site_type_symbol
_atom_site_label
_atom_site_fract_x
_atom_site_fract_y
_atom_site_fract_z
Si Si1 0.728320 0.644580 0.817320
Si Si2 0.565481 0.686420 0.688575
Si Si3 0.043571 0.071616 0.868932
Si Si4 0.519611 0.160912 0.709117
Si Si5 0.602204 0.005526 0.745040
Si Si6 0.298334 0.564631 0.191719
Si Si7 0.888474 0.209402 0.462479
Si Si8 0.206776 0.140366 0.946070
O O1 0.766456 0.552950 0.752252
O O2 0.702860 0.768787 0.744478
O O3 0.754415 0.751134 0.903384
O O4 0.700667 0.508002 0.870505
O O5 0.558851 0.549324 0.774602
O O6 0.517624 0.747922 0.640632
O O7 0.596441 0.649923 0.583135
O O8 0.584806 0.835081 0.748063
O O9 0.026637 0.221377 0.807867
O O10 0.083205 0.138209 0.942086
O O11 0.000000 0.000000 0.927372
O O12 0.568749 0.108983 0.671385
O O13 0.500000 0.000000 0.743827
O O14 0.603429 0.087198 0.865501
O O15 0.651596 0.996305 0.696875
O O16 0.281467 0.580701 0.067061
O O17 0.837672 0.261818 0.455621
#
# Coordination Sequence:
#
# PCOD9368057 Si02
#       8
#     8   8   8   8   8   8   8   8
#     4  10  24  40  63  86 118 158 200 248 303 360
#     4  10  20  39  60  83 120 158 198 244 296 351
#     4   9  20  38  58  87 119 155 204 245 289 356
#     4   8  17  36  59  82 119 157 190 246 295 343
#     4  10  20  37  59  87 122 154 193 249 297 349
#     4  11  21  41  62  87 120 158 193 249 305 350
#     4  11  22  37  60  88 120 157 196 248 297 355
#     4  11  22  40  61  90 117 154 204 244 299 368
#
# _framework density 9.8765429999999999
#
# number of rings (size 3 to 8) (size 9 to 14) (size 15 to 20)
#    0.000    2.000    2.500    0.750    1.750    1.500 
#    0.000   25.000    0.000    0.000    0.000    0.000 
#    0.000    0.000    0.000    0.000    0.000    0.000 
#
# Total GULP energy -178252.725299 kJ/mol
# GULP energy per Si atom -5570.397666 kJ/mol
# Density = 0.985406 g / cm^3
# Si number density = 9.876543 Si / 1000 Ang^3
#
#
#
# Elastic Constant Matrix: (Units=GPa)
#
#
# Indices 1 2 3 4 5 6 
#
# 1 63.5706 -3.4865 3.5688 0.0000 0.0000 0.0000
# 2 -3.4865 74.4144 14.9143 0.0000 0.0000 0.0000
# 3 3.5688 14.9143 45.8747 0.0000 0.0000 0.0000
# 4 0.0000 0.0000 0.0000 31.5189 0.0000 0.0000
# 5 0.0000 0.0000 0.0000 0.0000 17.8311 0.0000
# 6 0.0000 0.0000 0.0000 0.0000 0.0000 21.8721
#
#
#
# Elastic Compliance Matrix: (Units=1/GPa)
#
#
# Indices 1 2 3 4 5 6 
#
# 1 0.015877 0.001061 -0.001580 0.000000 0.000000 0.000000
# 2 0.001061 0.014446 -0.004779 0.000000 0.000000 0.000000
# 3 -0.001580 -0.004779 0.023475 0.000000 0.000000 0.000000
# 4 0.000000 0.000000 0.000000 0.031727 0.000000 0.000000
# 5 0.000000 0.000000 0.000000 0.000000 0.056082 0.000000
# 6 0.000000 0.000000 0.000000 0.000000 0.000000 0.045720
#
#
# Mechanical properties :
#
#
# Convention : Reuss Voigt Hill
#
# Bulk Modulus (GPa) = 23.14733 23.76143 23.45438
# Shear Modulus (GPa) = 23.54883 25.50195 24.52539
#
# Velocity S-wave (km/s) = 3.45651 3.59700 3.52745
# Velocity P-wave (km/s) = 5.26058 5.41355 5.33761
#
# Compressibility (1/GPa) = 0.04320153
#
# Stress axis : x y z
#
# Youngs Moduli (GPa) = 62.98254 69.22448 42.59829
#
# Poissons Ratio (x) = -0.07342 0.06730
# Poissons Ratio (y) = -0.06680 0.20358
# Poissons Ratio (z) = 0.09951 0.33082
#
# Static dielectric constant tensor:
#      x y z
#    x 1.770460 0.000000 0.000000 
#    y 0.000000 1.658560 0.000000 
#    z 0.000000 0.000000 1.711280 
# 
# From -- ./inp_files/6658.got.cif
#   From: 2010.05.17/outbox.ucp.g08.bks.cvg/sg41_4_cif.got.tgz:6658.got - 2010.06.11 16:28:22.
