data_PCOD9368419
_publ_section_title
;
Structure prediction by ZEFSAII (Michael W. Deem and Ramdas Pophale) SiO2 
 PCOD9368419
Probable space group: F M M 2
;
_chemical_formula_sum "Si O2"
_cell_formula_units_Z 128
_cell_length_a 7.578399
_cell_length_b 30.387220
_cell_length_c 25.759716
_cell_angle_alpha 90.000000
_cell_angle_beta 90.000000
_cell_angle_gamma 90.000000
_cell_volume 5932.114263
_symmetry_space_group_name_H-M "F M M 2"
_symmetry_group_IT_number 42
_symmetry_cell_setting 'orthorhombic'
loop_
_space_group_symop_operation_xyz
x,y,z
-x,-y,z
-x,y,z
x,-y,z
x,1/2+y,1/2+z
-x,1/2-y,1/2+z
-x,1/2+y,1/2+z
x,1/2-y,1/2+z
1/2+x,y,1/2+z
1/2-x,-y,1/2+z
1/2-x,y,1/2+z
1/2+x,-y,1/2+z
1/2+x,1/2+y,z
1/2-x,1/2-y,z
1/2-x,1/2+y,z
1/2+x,1/2-y,z
loop_
_atom_site_type_symbol
_atom_site_label
_atom_site_fract_x
_atom_site_fract_y
_atom_site_fract_z
Si Si1 0.794085 0.930592 0.290840
Si Si2 0.787714 0.801971 0.033506
Si Si3 0.788889 0.797224 0.220398
Si Si4 0.705408 0.170423 0.824073
Si Si5 0.215707 0.548725 0.674236
Si Si6 0.205435 0.356893 0.436164
Si Si7 0.715993 0.860517 0.630716
Si Si8 0.205831 0.547501 0.406078
O O1 0.784708 0.878108 0.298408
O O2 0.726028 0.943708 0.234144
O O3 0.711660 0.949441 0.343310
O O4 0.000000 0.943418 0.292385
O O5 0.750000 0.750000 0.036955
O O6 0.720228 0.825750 0.981082
O O7 0.000000 0.804560 0.033577
O O8 0.724763 0.831702 0.081828
O O9 0.750000 0.750000 0.196502
O O10 0.715910 0.799572 0.278816
O O11 0.725564 0.835230 0.182620
O O12 0.000000 0.802556 0.224715
O O13 0.500000 0.181229 0.832741
O O14 0.787400 0.167129 0.880566
O O15 0.269274 0.500000 0.657413
O O16 0.271642 0.588925 0.637530
O O17 0.000000 0.550009 0.675621
O O18 0.282760 0.406268 0.427579
O O19 0.000000 0.363673 0.448887
O O20 0.500000 0.860233 0.629841
O O21 0.283756 0.500000 0.421442
O O22 0.000000 0.546831 0.420964
#
# Coordination Sequence:
#
# PCOD9368419 Si02
#       8
#    16  16  16  16  16  16  16  16
#     4   9  15  26  45  70  98 129 164 198 232 277
#     4  10  21  37  57  75  94 125 167 210 251 292
#     4  10  19  31  48  71  99 128 159 195 243 297
#     4   9  17  30  48  70  99 132 159 194 244 292
#     4   9  15  24  44  74 103 129 158 195 241 289
#     4   9  19  34  50  71  98 128 163 203 244 286
#     4   9  17  32  50  70 100 130 158 201 249 291
#     4   9  17  29  45  67  99 135 164 192 234 287
#
# _framework density 21.577466999999999
#
# number of rings (size 3 to 8) (size 9 to 14) (size 15 to 20)
#    0.000    2.750    1.250    0.750    0.000    2.250 
#    0.000    3.125    0.000    4.500    0.000    0.000 
#    0.000    1.000    0.000    0.000    0.000    0.000 
#
# Total GULP energy -178417.545529 kJ/mol
# GULP energy per Si atom -5575.548298 kJ/mol
# Density = 2.152836 g / cm^3
# Si number density = 21.577467 Si / 1000 Ang^3
#
#
#
# Elastic Constant Matrix: (Units=GPa)
#
#
# Indices 1 2 3 4 5 6 
#
# 1 46.2113 5.6174 4.9677 0.0000 0.0000 0.0000
# 2 5.6174 171.9222 92.1130 0.0000 0.0000 0.0000
# 3 4.9677 92.1130 128.6030 0.0000 0.0000 0.0000
# 4 0.0000 0.0000 0.0000 18.1088 0.0000 0.0000
# 5 0.0000 0.0000 0.0000 0.0000 12.5446 0.0000
# 6 0.0000 0.0000 0.0000 0.0000 0.0000 8.7355
#
#
#
# Elastic Compliance Matrix: (Units=1/GPa)
#
#
# Indices 1 2 3 4 5 6 
#
# 1 0.021749 -0.000423 -0.000537 0.000000 0.000000 0.000000
# 2 -0.000423 0.009447 -0.006750 0.000000 0.000000 0.000000
# 3 -0.000537 -0.006750 0.012631 0.000000 0.000000 0.000000
# 4 0.000000 0.000000 0.000000 0.055222 0.000000 0.000000
# 5 0.000000 0.000000 0.000000 0.000000 0.079715 0.000000
# 6 0.000000 0.000000 0.000000 0.000000 0.000000 0.114476
#
#
# Mechanical properties :
#
#
# Convention : Reuss Voigt Hill
#
# Bulk Modulus (GPa) = 35.20273 61.34810 48.27541
# Shear Modulus (GPa) = 15.71686 24.14701 19.93194
#
# Velocity S-wave (km/s) = 2.70180 3.34890 3.04260
# Velocity P-wave (km/s) = 5.10715 6.59142 5.89618
#
# Compressibility (1/GPa) = 0.02840689
#
# Stress axis : x y z
#
# Youngs Moduli (GPa) = 45.97940 105.85338 79.16718
#
# Poissons Ratio (x) = 0.04475 0.04254
# Poissons Ratio (y) = 0.01944 0.53439
# Poissons Ratio (z) = 0.02471 0.71453
#
# Static dielectric constant tensor:
#      x y z
#    x 1.836320 0.000000 0.000000 
#    y 0.000000 1.828060 0.000000 
#    z 0.000000 0.000000 1.767540 
# 
# From -- ./inp_files/29111.got.cif
#   From: 2010.05.17/outbox.cif.g08.bks.cpg/sg42_15_cif.got.tgz:29111.got - 2010.06.03 19:03:34.
