data_PCOD9368386
_publ_section_title
;
Structure prediction by ZEFSAII (Michael W. Deem and Ramdas Pophale) SiO2 
 PCOD9368386
Probable space group: F M M 2
;
_chemical_formula_sum "Si O2"
_cell_formula_units_Z 72
_cell_length_a 14.747442
_cell_length_b 13.765409
_cell_length_c 18.399800
_cell_angle_alpha 90.000000
_cell_angle_beta 90.000000
_cell_angle_gamma 90.000000
_cell_volume 3735.243502
_symmetry_space_group_name_H-M "F M M 2"
_symmetry_group_IT_number 42
_symmetry_cell_setting 'orthorhombic'
loop_
_space_group_symop_operation_xyz
x,y,z
-x,-y,z
-x,y,z
x,-y,z
x,1/2+y,1/2+z
-x,1/2-y,1/2+z
-x,1/2+y,1/2+z
x,1/2-y,1/2+z
1/2+x,y,1/2+z
1/2-x,-y,1/2+z
1/2-x,y,1/2+z
1/2+x,-y,1/2+z
1/2+x,1/2+y,z
1/2-x,1/2-y,z
1/2-x,1/2+y,z
1/2+x,1/2-y,z
loop_
_atom_site_type_symbol
_atom_site_label
_atom_site_fract_x
_atom_site_fract_y
_atom_site_fract_z
Si Si1 0.395839 0.115272 0.401000
Si Si2 0.349605 0.710520 0.049589
Si Si3 0.706460 0.111818 0.698245
Si Si4 0.750000 0.250000 0.318879
Si Si5 0.596865 0.390977 0.632540
O O1 0.500000 0.132801 0.376422
O O2 0.389716 0.146272 0.485756
O O3 0.319571 0.181362 0.362555
O O4 0.376931 0.000000 0.392144
O O5 0.250000 0.750000 0.028470
O O6 0.339335 0.650523 0.124567
O O7 0.400581 0.808919 0.071470
O O8 0.690748 0.179877 0.766754
O O9 0.814883 0.120509 0.682231
O O10 0.684238 0.000000 0.711016
O O11 0.500000 0.384123 0.671901
O O12 0.603751 0.500000 0.601382
#
# Coordination Sequence:
#
# PCOD9368386 Si02
#       5
#    16  16  16   8  16
#     4  11  25  43  65  92 123 167 214 253 303 369
#     4  10  18  38  61  88 120 159 203 258 307 359
#     4  10  20  36  60  87 115 156 202 249 310 362
#     4  12  22  42  60  88 132 166 198 252 308 378
#     4   9  17  30  54  89 121 148 191 250 305 360
#
# _framework density 19.275852
#
# number of rings (size 3 to 8) (size 9 to 14) (size 15 to 20)
#    0.000    1.778    4.444    2.000    0.000    1.778 
#    0.000    2.222    0.000    6.667    0.000    0.000 
#    0.000    0.000    0.000    0.000    0.000    0.000 
#
# Total GULP energy -100361.601740 kJ/mol
# GULP energy per Si atom -5575.644541 kJ/mol
# Density = 1.923198 g / cm^3
# Si number density = 19.275852 Si / 1000 Ang^3
#
#
#
# Elastic Constant Matrix: (Units=GPa)
#
#
# Indices 1 2 3 4 5 6 
#
# 1 78.0922 47.1982 28.4357 0.0000 0.0000 0.0000
# 2 47.1982 168.5477 63.8742 0.0000 0.0000 0.0000
# 3 28.4357 63.8742 95.5792 0.0000 0.0000 0.0000
# 4 0.0000 0.0000 0.0000 24.4904 0.0000 0.0000
# 5 0.0000 0.0000 0.0000 0.0000 0.8693 0.0000
# 6 0.0000 0.0000 0.0000 0.0000 0.0000 -5.7798
#
#
#
# Elastic Compliance Matrix: (Units=1/GPa)
#
#
# Indices 1 2 3 4 5 6 
#
# 1 0.015794 -0.003538 -0.002334 0.000000 0.000000 0.000000
# 2 -0.003538 0.008738 -0.004787 0.000000 0.000000 0.000000
# 3 -0.002334 -0.004787 0.014356 0.000000 0.000000 0.000000
# 4 0.000000 0.000000 0.000000 0.040832 0.000000 0.000000
# 5 0.000000 0.000000 0.000000 0.000000 1.150311 0.000000
# 6 0.000000 0.000000 0.000000 0.000000 0.000000 -0.173016
#
#
# Mechanical properties :
#
#
# Convention : Reuss Voigt Hill
#
# Bulk Modulus (GPa) = 56.91788 69.02616 62.97202
# Shear Modulus (GPa) = 4.61174 17.43006 11.02090
#
# Velocity S-wave (km/s) = 1.54845 3.01033 2.39372
# Velocity P-wave (km/s) = 5.72618 6.92605 6.35450
#
# Compressibility (1/GPa) = 0.01756917
#
# Stress axis : x y z
#
# Youngs Moduli (GPa) = 63.31617 114.44496 69.65761
#
# Poissons Ratio (x) = 0.40491 0.16261
# Poissons Ratio (y) = 0.22402 0.33343
# Poissons Ratio (z) = 0.14780 0.54782
#
# Static dielectric constant tensor:
#      x y z
#    x 1.711270 0.000000 0.000000 
#    y 0.000000 1.677650 0.000000 
#    z 0.000000 0.000000 1.678490 
# 
# From -- ./inp_files/19728.got.cif
#   From: 2010.05.17/outbox.cif.g08.bks.cpg/sg42_10_cif.got.tgz:19728.got - 2010.06.03 19:03:34.
