data_PCOD9368381
_publ_section_title
;
Structure prediction by ZEFSAII (Michael W. Deem and Ramdas Pophale) SiO2 
 PCOD9368381
Probable space group: F M M 2
;
_chemical_formula_sum "Si O2"
_cell_formula_units_Z 116
_cell_length_a 27.099757
_cell_length_b 14.826981
_cell_length_c 12.330391
_cell_angle_alpha 90.000000
_cell_angle_beta 90.000000
_cell_angle_gamma 90.000000
_cell_volume 4954.444595
_symmetry_space_group_name_H-M "F M M 2"
_symmetry_group_IT_number 42
_symmetry_cell_setting 'orthorhombic'
loop_
_space_group_symop_operation_xyz
x,y,z
-x,-y,z
-x,y,z
x,-y,z
x,1/2+y,1/2+z
-x,1/2-y,1/2+z
-x,1/2+y,1/2+z
x,1/2-y,1/2+z
1/2+x,y,1/2+z
1/2-x,-y,1/2+z
1/2-x,y,1/2+z
1/2+x,-y,1/2+z
1/2+x,1/2+y,z
1/2-x,1/2-y,z
1/2-x,1/2+y,z
1/2+x,1/2-y,z
loop_
_atom_site_type_symbol
_atom_site_label
_atom_site_fract_x
_atom_site_fract_y
_atom_site_fract_z
Si Si1 0.310266 0.352878 0.507470
Si Si2 0.945069 0.895751 0.041979
Si Si3 0.703252 0.862860 0.467961
Si Si4 0.500000 0.500000 0.417055
Si Si5 0.158883 0.846535 0.736330
Si Si6 0.091443 0.630269 0.875194
Si Si7 0.944556 0.829332 0.802909
Si Si8 0.356557 0.647781 0.166221
O O1 0.303345 0.244763 0.490786
O O2 0.260122 0.389765 0.455814
O O3 0.311834 0.381686 0.633085
O O4 0.363590 0.373307 0.459159
O O5 0.904138 0.830220 0.090657
O O6 0.000000 0.873856 0.082970
O O7 0.934553 0.000000 0.070210
O O8 0.945292 0.887621 0.912740
O O9 0.675870 0.879210 0.354353
O O10 0.679557 0.898573 0.579969
O O11 0.543779 0.576751 0.410744
O O12 0.100120 0.862795 0.728239
O O13 0.165983 0.737508 0.721844
O O14 0.072576 0.730815 0.844624
O O15 0.117862 0.596880 0.764815
O O16 0.000000 0.828064 0.757102
#
# Coordination Sequence:
#
# PCOD9368381 Si02
#       8
#    16  16  16   4  16  16  16  16
#     4  10  21  34  60  91 132 168 219 278 324 398
#     4  10  21  34  59  93 130 171 219 279 339 395
#     4  10  19  34  60  97 127 171 219 275 339 382
#     4  12  28  44  72  92 136 188 228 280 350 414
#     4  10  19  35  58  91 129 168 220 268 333 397
#     4  11  23  41  61  93 128 174 229 279 336 399
#     4  10  18  37  60  89 129 169 218 272 336 390
#     4  10  20  34  56  87 134 165 216 280 330 390
#
# _framework density 23.413321
#
# number of rings (size 3 to 8) (size 9 to 14) (size 15 to 20)
#    0.000    1.793    4.828    0.828    3.862    1.655 
#    1.241    0.000    3.034    0.000    0.000    0.000 
#    0.000    0.000    0.000    0.000    0.000    0.000 
#
# Total GULP energy -161546.151271 kJ/mol
# GULP energy per Si atom -5570.556940 kJ/mol
# Density = 2.336003 g / cm^3
# Si number density = 23.413321 Si / 1000 Ang^3
#
#
#
# Elastic Constant Matrix: (Units=GPa)
#
#
# Indices 1 2 3 4 5 6 
#
# 1 195.2396 19.0607 45.8858 0.0000 0.0000 0.0000
# 2 19.0607 55.2027 3.5576 0.0000 0.0000 0.0000
# 3 45.8858 3.5576 81.1266 0.0000 0.0000 0.0000
# 4 0.0000 0.0000 0.0000 -53.5843 0.0000 0.0000
# 5 0.0000 0.0000 0.0000 0.0000 25.8720 0.0000
# 6 0.0000 0.0000 0.0000 0.0000 0.0000 402.7908
#
#
#
# Elastic Compliance Matrix: (Units=1/GPa)
#
#
# Indices 1 2 3 4 5 6 
#
# 1 0.006097 -0.001888 -0.003366 0.000000 0.000000 0.000000
# 2 -0.001888 0.018751 0.000246 0.000000 0.000000 0.000000
# 3 -0.003366 0.000246 0.014219 0.000000 0.000000 0.000000
# 4 0.000000 0.000000 0.000000 -0.018662 0.000000 0.000000
# 5 0.000000 0.000000 0.000000 0.000000 0.038652 0.000000
# 6 0.000000 0.000000 0.000000 0.000000 0.000000 0.002483
#
#
# Mechanical properties :
#
#
# Convention : Reuss Voigt Hill
#
# Bulk Modulus (GPa) = 34.42220 52.06414 43.24317
# Shear Modulus (GPa) = 61.54529 92.55335 77.04932
#
# Velocity S-wave (km/s) = 5.13259 6.29413 5.74280
# Velocity P-wave (km/s) = 7.06106 8.66641 7.90459
#
# Compressibility (1/GPa) = 0.02905102
#
# Stress axis : x y z
#
# Youngs Moduli (GPa) = 164.00611 53.32979 70.32641
#
# Poissons Ratio (x) = 0.10071 0.23671
# Poissons Ratio (y) = 0.30971 -0.01729
# Poissons Ratio (z) = 0.55203 -0.01311
#
# Static dielectric constant tensor:
#      x y z
#    x 1.896380 0.000000 0.000000 
#    y 0.000000 2.053720 0.000000 
#    z 0.000000 0.000000 1.914820 
# 
# From -- ./inp_files/11200.got.cif
#   From: 2010.05.17/outbox.cif.g08.bks.cpg/sg42_6_cif.got.tgz:11200.got - 2010.06.03 19:03:34.
