data_PCOD9368666
_publ_section_title
;
Structure prediction by ZEFSAII (Michael W. Deem and Ramdas Pophale) SiO2 
 PCOD9368666
Probable space group: F M M 2
;
_chemical_formula_sum "Si O2"
_cell_formula_units_Z 112
_cell_length_a 18.216629
_cell_length_b 18.538701
_cell_length_c 17.058885
_cell_angle_alpha 90.000000
_cell_angle_beta 90.000000
_cell_angle_gamma 90.000000
_cell_volume 5761.001059
_symmetry_space_group_name_H-M "F M M 2"
_symmetry_group_IT_number 42
_symmetry_cell_setting 'orthorhombic'
loop_
_space_group_symop_operation_xyz
x,y,z
-x,-y,z
-x,y,z
x,-y,z
x,1/2+y,1/2+z
-x,1/2-y,1/2+z
-x,1/2+y,1/2+z
x,1/2-y,1/2+z
1/2+x,y,1/2+z
1/2-x,-y,1/2+z
1/2-x,y,1/2+z
1/2+x,-y,1/2+z
1/2+x,1/2+y,z
1/2-x,1/2-y,z
1/2-x,1/2+y,z
1/2+x,1/2-y,z
loop_
_atom_site_type_symbol
_atom_site_label
_atom_site_fract_x
_atom_site_fract_y
_atom_site_fract_z
Si Si1 0.337904 0.657315 0.927420
Si Si2 0.816963 0.823294 0.381826
Si Si3 0.412339 0.154913 0.261568
Si Si4 0.337481 0.084925 0.591273
Si Si5 0.322929 0.709761 0.207914
Si Si6 0.413986 0.917549 0.964250
Si Si7 0.161966 0.082326 0.615461
O O1 0.252039 0.636707 0.920437
O O2 0.332182 0.745139 0.921065
O O3 0.384759 0.638513 0.849989
O O4 0.361942 0.619507 0.007922
O O5 0.793869 0.817669 0.291597
O O6 0.888829 0.870485 0.391402
O O7 0.500000 0.146157 0.255502
O O8 0.385735 0.234506 0.234842
O O9 0.366913 0.109000 0.198381
O O10 0.356088 0.145149 0.656810
O O11 0.248660 0.085181 0.601719
O O12 0.360003 0.000000 0.599056
O O13 0.250000 0.750000 0.170941
O O14 0.500000 0.917859 0.975115
O O15 0.388624 0.000000 0.952884
O O16 0.377487 0.881737 0.041134
O O17 0.137485 0.000000 0.611069
#
# Coordination Sequence:
#
# PCOD9368666 Si02
#       7
#    16  16  16  16  16  16  16
#     4  10  21  37  58  88 121 159 210 259 308 368
#     4  10  19  35  59  86 117 166 208 257 315 368
#     4  11  23  40  64  95 126 165 209 257 319 376
#     4  11  23  38  64  96 124 165 214 258 310 375
#     4  11  21  40  64  89 123 160 207 264 309 364
#     4  10  21  35  55  89 130 165 204 260 320 377
#     4  10  20  36  59  90 127 162 203 257 314 374
#
# _framework density 19.441064999999998
#
# number of rings (size 3 to 8) (size 9 to 14) (size 15 to 20)
#    0.000    1.571    5.714    0.429    4.000    4.286 
#    0.000    0.714    0.000    1.286    0.000    0.000 
#    0.000    0.000    0.000    0.000    0.000    0.000 
#
# Total GULP energy -155871.064956 kJ/mol
# GULP energy per Si atom -5566.823748 kJ/mol
# Density = 1.939682 g / cm^3
# Si number density = 19.441065 Si / 1000 Ang^3
#
#
#
# Elastic Constant Matrix: (Units=GPa)
#
#
# Indices 1 2 3 4 5 6 
#
# 1 38.0334 3.9262 12.3942 0.0000 0.0000 0.0000
# 2 3.9262 63.2320 51.4456 0.0000 0.0000 0.0000
# 3 12.3942 51.4456 103.7349 0.0000 0.0000 0.0000
# 4 0.0000 0.0000 0.0000 17.3956 0.0000 0.0000
# 5 0.0000 0.0000 0.0000 0.0000 19.2466 0.0000
# 6 0.0000 0.0000 0.0000 0.0000 0.0000 20.9511
#
#
#
# Elastic Compliance Matrix: (Units=1/GPa)
#
#
# Indices 1 2 3 4 5 6 
#
# 1 0.027456 0.001616 -0.004082 0.000000 0.000000 0.000000
# 2 0.001616 0.026607 -0.013389 0.000000 0.000000 0.000000
# 3 -0.004082 -0.013389 0.016768 0.000000 0.000000 0.000000
# 4 0.000000 0.000000 0.000000 0.057486 0.000000 0.000000
# 5 0.000000 0.000000 0.000000 0.000000 0.051957 0.000000
# 6 0.000000 0.000000 0.000000 0.000000 0.000000 0.047730
#
#
# Mechanical properties :
#
#
# Convention : Reuss Voigt Hill
#
# Bulk Modulus (GPa) = 25.56079 37.83692 31.69885
# Shear Modulus (GPa) = 18.33154 20.66760 19.49957
#
# Velocity S-wave (km/s) = 3.07405 3.26404 3.17047
# Velocity P-wave (km/s) = 5.07701 5.80602 5.45371
#
# Compressibility (1/GPa) = 0.03912242
#
# Stress axis : x y z
#
# Youngs Moduli (GPa) = 36.42181 37.58346 59.63897
#
# Poissons Ratio (x) = -0.06075 0.24345
# Poissons Ratio (y) = -0.05887 0.79849
# Poissons Ratio (z) = 0.14868 0.50319
#
# Static dielectric constant tensor:
#      x y z
#    x 1.681040 0.000000 0.000000 
#    y 0.000000 1.755880 0.000000 
#    z 0.000000 0.000000 1.764460 
# 
# From -- ./inp_files/21800.got.cif
#   From: 2010.05.17/outbox.cif.g08.bks.cpg/sg42_11_cif.got.tgz:21800.got - 2010.06.03 19:03:34.
