data_PCOD9368548
_publ_section_title
;
Structure prediction by ZEFSAII (Michael W. Deem and Ramdas Pophale) SiO2 
 PCOD9368548
Probable space group: F M M 2
;
_chemical_formula_sum "Si O2"
_cell_formula_units_Z 80
_cell_length_a 29.773981
_cell_length_b 9.406300
_cell_length_c 15.540536
_cell_angle_alpha 90.000000
_cell_angle_beta 90.000000
_cell_angle_gamma 90.000000
_cell_volume 4352.329095
_symmetry_space_group_name_H-M "F M M 2"
_symmetry_group_IT_number 42
_symmetry_cell_setting 'orthorhombic'
loop_
_space_group_symop_operation_xyz
x,y,z
-x,-y,z
-x,y,z
x,-y,z
x,1/2+y,1/2+z
-x,1/2-y,1/2+z
-x,1/2+y,1/2+z
x,1/2-y,1/2+z
1/2+x,y,1/2+z
1/2-x,-y,1/2+z
1/2-x,y,1/2+z
1/2+x,-y,1/2+z
1/2+x,1/2+y,z
1/2-x,1/2-y,z
1/2-x,1/2+y,z
1/2+x,1/2-y,z
loop_
_atom_site_type_symbol
_atom_site_label
_atom_site_fract_x
_atom_site_fract_y
_atom_site_fract_z
Si Si1 0.106717 0.830409 0.215680
Si Si2 0.705410 0.334358 0.955774
Si Si3 0.206132 0.664649 0.664399
Si Si4 0.052175 0.170372 0.570542
Si Si5 0.615770 0.168812 0.910096
O O1 0.158445 0.783910 0.200367
O O2 0.074568 0.748914 0.150871
O O3 0.095727 0.807155 0.315499
O O4 0.105000 0.000000 0.197856
O O5 0.707565 0.500000 0.931474
O O6 0.750000 0.250000 0.928534
O O7 0.661015 0.258278 0.921337
O O8 0.703389 0.327369 0.060342
O O9 0.211408 0.500000 0.688961
O O10 0.250000 0.750000 0.692562
O O11 0.080990 0.205077 0.485528
O O12 0.000000 0.208807 0.560616
O O13 0.054880 0.000000 0.582648
O O14 0.626535 0.000000 0.916622
#
# Coordination Sequence:
#
# PCOD9368548 Si02
#       5
#    16  16  16  16  16
#     4  10  21  38  59  86 115 148 190 232 278 338
#     4  10  19  33  55  82 116 154 193 232 276 331
#     4   9  18  32  52  79 111 147 188 226 268 324
#     4  10  22  40  60  83 112 146 186 235 290 343
#     4  10  21  37  59  85 116 150 187 232 284 339
#
# _framework density 18.380960999999999
#
# number of rings (size 3 to 8) (size 9 to 14) (size 15 to 20)
#    0.000    2.200    2.000    0.600    0.000    4.400 
#    0.000    4.000    0.000    0.000    0.000    0.000 
#    0.000    0.000    0.000    0.000    0.000    0.000 
#
# Total GULP energy -111674.987573 kJ/mol
# GULP energy per Si atom -5583.749379 kJ/mol
# Density = 1.833913 g / cm^3
# Si number density = 18.380961 Si / 1000 Ang^3
#
#
#
# Elastic Constant Matrix: (Units=GPa)
#
#
# Indices 1 2 3 4 5 6 
#
# 1 156.5131 71.4226 78.1768 0.0000 0.0000 0.0000
# 2 71.4226 62.9205 59.8533 0.0000 0.0000 0.0000
# 3 78.1768 59.8533 98.0010 0.0000 0.0000 0.0000
# 4 0.0000 0.0000 0.0000 18.4502 0.0000 0.0000
# 5 0.0000 0.0000 0.0000 0.0000 -4.7095 0.0000
# 6 0.0000 0.0000 0.0000 0.0000 0.0000 33.4052
#
#
#
# Elastic Compliance Matrix: (Units=1/GPa)
#
#
# Indices 1 2 3 4 5 6 
#
# 1 0.013720 -0.012320 -0.003420 0.000000 0.000000 0.000000
# 2 -0.012320 0.048992 -0.020093 0.000000 0.000000 0.000000
# 3 -0.003420 -0.020093 0.025204 0.000000 0.000000 0.000000
# 4 0.000000 0.000000 0.000000 0.054200 0.000000 0.000000
# 5 0.000000 0.000000 0.000000 0.000000 -0.212338 0.000000
# 6 0.000000 0.000000 0.000000 0.000000 0.000000 0.029935
#
#
# Mechanical properties :
#
#
# Convention : Reuss Voigt Hill
#
# Bulk Modulus (GPa) = 61.54410 81.81555 71.67983
# Shear Modulus (GPa) = 135.88345 16.62798 76.25571
#
# Velocity S-wave (km/s) = 8.60736 3.01097 6.44797
# Velocity P-wave (km/s) = 11.50380 7.52965 9.72196
#
# Compressibility (1/GPa) = 0.01624851
#
# Stress axis : x y z
#
# Youngs Moduli (GPa) = 72.88813 20.41145 39.67666
#
# Poissons Ratio (x) = 0.25148 0.13568
# Poissons Ratio (y) = 0.89802 0.79723
# Poissons Ratio (z) = 0.24926 0.41013
#
# Static dielectric constant tensor:
#      x y z
#    x 1.601410 0.000000 0.000000 
#    y 0.000000 1.617270 0.000000 
#    z 0.000000 0.000000 1.639740 
# 
# From -- ./inp_files/16372.got.cif
#   From: 2010.05.17/outbox.cif.g08.bks.cpg/sg42_9_cif.got.tgz:16372.got - 2010.06.03 19:03:34.
