data_PCOD9368895
_publ_section_title
;
Structure prediction by ZEFSAII (Michael W. Deem and Ramdas Pophale) SiO2 
 PCOD9368895
Probable space group: F M M 2
;
_chemical_formula_sum "Si O2"
_cell_formula_units_Z 112
_cell_length_a 16.112649
_cell_length_b 25.462690
_cell_length_c 13.881965
_cell_angle_alpha 90.000000
_cell_angle_beta 90.000000
_cell_angle_gamma 90.000000
_cell_volume 5695.373029
_symmetry_space_group_name_H-M "F M M 2"
_symmetry_group_IT_number 42
_symmetry_cell_setting 'orthorhombic'
loop_
_space_group_symop_operation_xyz
x,y,z
-x,-y,z
-x,y,z
x,-y,z
x,1/2+y,1/2+z
-x,1/2-y,1/2+z
-x,1/2+y,1/2+z
x,1/2-y,1/2+z
1/2+x,y,1/2+z
1/2-x,-y,1/2+z
1/2-x,y,1/2+z
1/2+x,-y,1/2+z
1/2+x,1/2+y,z
1/2-x,1/2-y,z
1/2-x,1/2+y,z
1/2+x,1/2-y,z
loop_
_atom_site_type_symbol
_atom_site_label
_atom_site_fract_x
_atom_site_fract_y
_atom_site_fract_z
Si Si1 0.095443 0.563106 0.654260
Si Si2 0.175526 0.833384 0.876443
Si Si3 0.629289 0.169015 0.917719
Si Si4 0.598086 0.236293 0.542859
Si Si5 0.641076 0.440789 0.372438
Si Si6 0.330608 0.940691 0.446557
Si Si7 0.594426 0.750574 0.751762
O O1 0.088846 0.500000 0.651565
O O2 0.138704 0.573703 0.757636
O O3 0.146924 0.575670 0.556921
O O4 0.000000 0.584327 0.652019
O O5 0.273933 0.834613 0.889827
O O6 0.139651 0.892300 0.880598
O O7 0.149222 0.797936 0.786990
O O8 0.141991 0.801286 0.967794
O O9 0.598078 0.109422 0.921137
O O10 0.592343 0.204806 0.832957
O O11 0.616797 0.203683 0.012647
O O12 0.500000 0.227466 0.533861
O O13 0.625037 0.226327 0.651449
O O14 0.605434 0.500000 0.380672
O O15 0.732704 0.443861 0.420328
O O16 0.364182 0.000000 0.430893
O O17 0.500000 0.731793 0.737310
#
# Coordination Sequence:
#
# PCOD9368895 Si02
#       7
#    16  16  16  16  16  16  16
#     4   9  18  32  54  84 110 139 187 237 274 317
#     4  10  20  34  54  81 105 137 178 220 265 321
#     4  10  20  34  54  81 105 137 178 220 265 321
#     4  10  21  36  54  76 105 141 176 220 274 324
#     4   9  19  36  54  81 116 147 179 222 280 336
#     4   9  19  36  54  81 116 147 179 222 280 336
#     4  10  21  36  54  76 105 141 176 220 274 324
#
# _framework density 19.665085999999999
#
# number of rings (size 3 to 8) (size 9 to 14) (size 15 to 20)
#    0.000    2.429    0.000    3.429    2.000    4.571 
#    7.714    0.000    0.000    0.000    0.000    2.000 
#    0.000    0.000    0.000    0.000    0.000    0.000 
#
# Total GULP energy -155949.001525 kJ/mol
# GULP energy per Si atom -5569.607197 kJ/mol
# Density = 1.962033 g / cm^3
# Si number density = 19.665086 Si / 1000 Ang^3
#
#
#
# Elastic Constant Matrix: (Units=GPa)
#
#
# Indices 1 2 3 4 5 6 
#
# 1 75.1897 7.6483 33.8136 0.0000 0.0000 0.0000
# 2 7.6483 103.5169 -5.9244 0.0000 0.0000 0.0000
# 3 33.8136 -5.9244 55.1997 0.0000 0.0000 0.0000
# 4 0.0000 0.0000 0.0000 15.0313 0.0000 0.0000
# 5 0.0000 0.0000 0.0000 0.0000 26.0540 0.0000
# 6 0.0000 0.0000 0.0000 0.0000 0.0000 -26.0133
#
#
#
# Elastic Compliance Matrix: (Units=1/GPa)
#
#
# Indices 1 2 3 4 5 6 
#
# 1 0.018783 -0.002059 -0.011727 0.000000 0.000000 0.000000
# 2 -0.002059 0.009946 0.002329 0.000000 0.000000 0.000000
# 3 -0.011727 0.002329 0.025549 0.000000 0.000000 0.000000
# 4 0.000000 0.000000 0.000000 0.066528 0.000000 0.000000
# 5 0.000000 0.000000 0.000000 0.000000 0.038382 0.000000
# 6 0.000000 0.000000 0.000000 0.000000 0.000000 -0.038442
#
#
# Mechanical properties :
#
#
# Convention : Reuss Voigt Hill
#
# Bulk Modulus (GPa) = 31.88379 33.88680 32.88529
# Shear Modulus (GPa) = 32.44350 16.23899 24.34124
#
# Velocity S-wave (km/s) = 4.06618 2.87675 3.52204
# Velocity P-wave (km/s) = 6.18819 5.32012 5.77050
#
# Compressibility (1/GPa) = 0.03136390
#
# Stress axis : x y z
#
# Youngs Moduli (GPa) = 53.24032 100.54644 39.13989
#
# Poissons Ratio (x) = 0.20701 0.45898
# Poissons Ratio (y) = 0.10962 -0.09114
# Poissons Ratio (z) = 0.62433 -0.23414
#
# Static dielectric constant tensor:
#      x y z
#    x 1.685340 0.000000 0.000000 
#    y 0.000000 1.746590 0.000000 
#    z 0.000000 0.000000 1.680090 
# 
# From -- ./inp_files/14404.got.cif
#   From: 2010.05.17/outbox.cif.g08.bks.cpg/sg42_8_cif.got.tgz:14404.got - 2010.06.03 19:03:34.
