data_PCOD9368201
_publ_section_title
;
Structure prediction by ZEFSAII (Michael W. Deem and Ramdas Pophale) SiO2 
 PCOD9368201
Probable space group: F M M 2
;
_chemical_formula_sum "Si O2"
_cell_formula_units_Z 96
_cell_length_a 8.671707
_cell_length_b 19.171809
_cell_length_c 32.697726
_cell_angle_alpha 90.000000
_cell_angle_beta 90.000000
_cell_angle_gamma 90.000000
_cell_volume 5436.072489
_symmetry_space_group_name_H-M "F M M 2"
_symmetry_group_IT_number 42
_symmetry_cell_setting 'orthorhombic'
loop_
_space_group_symop_operation_xyz
x,y,z
-x,-y,z
-x,y,z
x,-y,z
x,1/2+y,1/2+z
-x,1/2-y,1/2+z
-x,1/2+y,1/2+z
x,1/2-y,1/2+z
1/2+x,y,1/2+z
1/2-x,-y,1/2+z
1/2-x,y,1/2+z
1/2+x,-y,1/2+z
1/2+x,1/2+y,z
1/2-x,1/2-y,z
1/2-x,1/2+y,z
1/2+x,1/2-y,z
loop_
_atom_site_type_symbol
_atom_site_label
_atom_site_fract_x
_atom_site_fract_y
_atom_site_fract_z
Si Si1 0.684985 0.170892 0.591110
Si Si2 0.185331 0.171606 0.675389
Si Si3 0.184474 0.416926 0.344021
Si Si4 0.817252 0.171775 0.417677
Si Si5 0.815261 0.671037 0.501876
Si Si6 0.187802 0.580147 0.252351
O O1 0.500000 0.173418 0.594566
O O2 0.750000 0.250000 0.590189
O O3 0.755117 0.139755 0.632475
O O4 0.724411 0.139518 0.546468
O O5 0.250000 0.250000 0.678514
O O6 0.237271 0.128002 0.714840
O O7 0.000000 0.174126 0.674322
O O8 0.211078 0.500000 0.348036
O O9 0.267203 0.374031 0.379188
O O10 0.234513 0.396517 0.297929
O O11 0.000000 0.405623 0.347337
O O12 0.750000 0.250000 0.413197
O O13 0.752310 0.140094 0.460233
O O14 0.000000 0.176802 0.420667
O O15 0.750000 0.750000 0.502585
O O16 0.000000 0.673632 0.498801
O O17 0.236984 0.500000 0.246581
O O18 0.000000 0.580043 0.252543
#
# Coordination Sequence:
#
# PCOD9368201 Si02
#       6
#    16  16  16  16  16  16
#     4   9  16  26  42  65  94 125 157 192 231 279
#     4  10  18  28  46  71  98 124 154 194 236 278
#     4   9  18  35  56  73  94 127 164 200 243 295
#     4  11  21  32  49  74 103 129 160 202 244 288
#     4   9  16  27  44  66  93 125 160 195 235 283
#     4   8  16  32  52  71  91 122 162 196 230 280
#
# _framework density 17.659807000000001
#
# number of rings (size 3 to 8) (size 9 to 14) (size 15 to 20)
#    0.000    2.667    0.000    6.000    0.000    3.000 
#    0.000    3.333    0.000    5.000    0.000    4.667 
#    0.000    0.000    0.000    0.000    0.000    0.000 
#
# Total GULP energy -133687.046803 kJ/mol
# GULP energy per Si atom -5570.293617 kJ/mol
# Density = 1.761961 g / cm^3
# Si number density = 17.659807 Si / 1000 Ang^3
#
#
#
# Elastic Constant Matrix: (Units=GPa)
#
#
# Indices 1 2 3 4 5 6 
#
# 1 72.5530 23.1727 61.7427 0.0000 0.0000 0.0000
# 2 23.1727 26.1251 58.1495 0.0000 0.0000 0.0000
# 3 61.7427 58.1495 220.1544 0.0000 0.0000 0.0000
# 4 0.0000 0.0000 0.0000 -10.6327 0.0000 0.0000
# 5 0.0000 0.0000 0.0000 0.0000 -18.7847 0.0000
# 6 0.0000 0.0000 0.0000 0.0000 0.0000 11.9777
#
#
#
# Elastic Compliance Matrix: (Units=1/GPa)
#
#
# Indices 1 2 3 4 5 6 
#
# 1 0.019662 -0.012537 -0.002203 0.000000 0.000000 0.000000
# 2 -0.012537 0.100878 -0.023129 0.000000 0.000000 0.000000
# 3 -0.002203 -0.023129 0.011269 0.000000 0.000000 0.000000
# 4 0.000000 0.000000 0.000000 -0.094049 0.000000 0.000000
# 5 0.000000 0.000000 0.000000 0.000000 -0.053235 0.000000
# 6 0.000000 0.000000 0.000000 0.000000 0.000000 0.083489
#
#
# Mechanical properties :
#
#
# Convention : Reuss Voigt Hill
#
# Bulk Modulus (GPa) = 17.83423 67.21803 42.52613
# Shear Modulus (GPa) = 30.78030 8.22988 19.50509
#
# Velocity S-wave (km/s) = 4.17940 2.16110 3.32699
# Velocity P-wave (km/s) = 5.78019 6.66127 6.23631
#
# Compressibility (1/GPa) = 0.05607195
#
# Stress axis : x y z
#
# Youngs Moduli (GPa) = 50.86016 9.91295 88.73766
#
# Poissons Ratio (x) = 0.12427 0.19548
# Poissons Ratio (y) = 0.63761 2.05242
# Poissons Ratio (z) = 0.11204 0.22928
#
# Static dielectric constant tensor:
#      x y z
#    x 1.594430 0.000000 0.000000 
#    y 0.000000 1.571080 0.000000 
#    z 0.000000 0.000000 1.662560 
# 
# From -- ./inp_files/31611.got.cif
#   From: 2010.05.17/outbox.cif.g08.bks.cpg/sg42_16_cif.got.tgz:31611.got - 2010.06.03 19:03:34.
