data_PCOD9368481
_publ_section_title
;
Structure prediction by ZEFSAII (Michael W. Deem and Ramdas Pophale) SiO2 
 PCOD9368481
Probable space group: F M M 2
;
_chemical_formula_sum "Si O2"
_cell_formula_units_Z 80
_cell_length_a 16.028186
_cell_length_b 21.775162
_cell_length_c 12.793571
_cell_angle_alpha 90.000000
_cell_angle_beta 90.000000
_cell_angle_gamma 90.000000
_cell_volume 4465.165412
_symmetry_space_group_name_H-M "F M M 2"
_symmetry_group_IT_number 42
_symmetry_cell_setting 'orthorhombic'
loop_
_space_group_symop_operation_xyz
x,y,z
-x,-y,z
-x,y,z
x,-y,z
x,1/2+y,1/2+z
-x,1/2-y,1/2+z
-x,1/2+y,1/2+z
x,1/2-y,1/2+z
1/2+x,y,1/2+z
1/2-x,-y,1/2+z
1/2-x,y,1/2+z
1/2+x,-y,1/2+z
1/2+x,1/2+y,z
1/2-x,1/2-y,z
1/2-x,1/2+y,z
1/2+x,1/2-y,z
loop_
_atom_site_type_symbol
_atom_site_label
_atom_site_fract_x
_atom_site_fract_y
_atom_site_fract_z
Si Si1 0.597196 0.161937 0.470880
Si Si2 0.143656 0.191372 0.747904
Si Si3 0.899942 0.700284 0.014728
Si Si4 0.100680 0.569575 0.641172
Si Si5 0.662155 0.328657 0.297020
O O1 0.500000 0.165410 0.498138
O O2 0.604223 0.156480 0.346405
O O3 0.631719 0.228605 0.505671
O O4 0.631881 0.105618 0.537644
O O5 0.118108 0.175775 0.630451
O O6 0.241841 0.180845 0.765661
O O7 0.120521 0.263521 0.764096
O O8 0.000000 0.698847 0.995880
O O9 0.853160 0.666049 0.920734
O O10 0.132479 0.500000 0.648825
O O11 0.125699 0.613746 0.736072
O O12 0.000000 0.566067 0.637915
#
# Coordination Sequence:
#
# PCOD9368481 Si02
#       5
#    16  16  16  16  16
#     4   9  18  32  52  79 108 139 180 219 266 324
#     4  10  20  31  54  80 113 139 168 225 285 325
#     4  10  19  32  53  81 113 142 172 222 278 328
#     4  10  20  36  57  77 105 147 190 224 254 313
#     4  10  21  32  52  80 110 141 180 218 274 327
#
# _framework density 17.916468999999999
#
# number of rings (size 3 to 8) (size 9 to 14) (size 15 to 20)
#    0.000    2.200    2.000    1.200    2.800    3.200 
#    0.000    1.000    0.000    1.200    0.000    2.800 
#    0.000    0.000    0.000    0.000    0.000    0.000 
#
# Total GULP energy -111471.938746 kJ/mol
# GULP energy per Si atom -5573.596937 kJ/mol
# Density = 1.787569 g / cm^3
# Si number density = 17.916469 Si / 1000 Ang^3
#
#
#
# Elastic Constant Matrix: (Units=GPa)
#
#
# Indices 1 2 3 4 5 6 
#
# 1 30.0519 16.6025 8.9689 0.0000 0.0000 0.0000
# 2 16.6025 111.3114 65.5979 0.0000 0.0000 0.0000
# 3 8.9689 65.5979 156.5538 0.0000 0.0000 0.0000
# 4 0.0000 0.0000 0.0000 16.9520 0.0000 0.0000
# 5 0.0000 0.0000 0.0000 0.0000 24.2411 0.0000
# 6 0.0000 0.0000 0.0000 0.0000 0.0000 18.4806
#
#
#
# Elastic Compliance Matrix: (Units=1/GPa)
#
#
# Indices 1 2 3 4 5 6 
#
# 1 0.036271 -0.005558 0.000251 0.000000 0.000000 0.000000
# 2 -0.005558 0.012781 -0.005037 0.000000 0.000000 0.000000
# 3 0.000251 -0.005037 0.008484 0.000000 0.000000 0.000000
# 4 0.000000 0.000000 0.000000 0.058990 0.000000 0.000000
# 5 0.000000 0.000000 0.000000 0.000000 0.041252 0.000000
# 6 0.000000 0.000000 0.000000 0.000000 0.000000 0.054111
#
#
# Mechanical properties :
#
#
# Convention : Reuss Voigt Hill
#
# Bulk Modulus (GPa) = 27.13833 53.36175 40.25004
# Shear Modulus (GPa) = 20.41979 25.71793 23.06886
#
# Velocity S-wave (km/s) = 3.37964 3.79282 3.59218
# Velocity P-wave (km/s) = 5.51446 7.00207 6.30231
#
# Compressibility (1/GPa) = 0.03684825
#
# Stress axis : x y z
#
# Youngs Moduli (GPa) = 27.56995 78.23988 117.87172
#
# Poissons Ratio (x) = 0.43484 -0.02956
# Poissons Ratio (y) = 0.15323 0.59373
# Poissons Ratio (z) = -0.00692 0.39410
#
# Static dielectric constant tensor:
#      x y z
#    x 1.664220 0.000000 0.000000 
#    y 0.000000 1.611210 0.000000 
#    z 0.000000 0.000000 1.641030 
# 
# From -- ./inp_files/7744.got.cif
#   From: 2010.05.17/outbox.cif.g08.bks.cpg/sg42_4_cif.got.tgz:7744.got - 2010.06.03 19:03:34.
