data_PCOD9368390
_publ_section_title
;
Structure prediction by ZEFSAII (Michael W. Deem and Ramdas Pophale) SiO2 
 PCOD9368390
Probable space group: F M M 2
;
_chemical_formula_sum "Si O2"
_cell_formula_units_Z 84
_cell_length_a 10.921905
_cell_length_b 14.932003
_cell_length_c 22.893519
_cell_angle_alpha 90.000000
_cell_angle_beta 90.000000
_cell_angle_gamma 90.000000
_cell_volume 3733.610568
_symmetry_space_group_name_H-M "F M M 2"
_symmetry_group_IT_number 42
_symmetry_cell_setting 'orthorhombic'
loop_
_space_group_symop_operation_xyz
x,y,z
-x,-y,z
-x,y,z
x,-y,z
x,1/2+y,1/2+z
-x,1/2-y,1/2+z
-x,1/2+y,1/2+z
x,1/2-y,1/2+z
1/2+x,y,1/2+z
1/2-x,-y,1/2+z
1/2-x,y,1/2+z
1/2+x,-y,1/2+z
1/2+x,1/2+y,z
1/2-x,1/2-y,z
1/2-x,1/2+y,z
1/2+x,1/2-y,z
loop_
_atom_site_type_symbol
_atom_site_label
_atom_site_fract_x
_atom_site_fract_y
_atom_site_fract_z
Si Si1 0.500000 0.102833 0.080490
Si Si2 0.780969 0.648675 0.157970
Si Si3 0.000000 0.000000 0.467745
Si Si4 0.134359 0.200689 0.970194
Si Si5 0.228054 0.000000 0.968525
Si Si6 0.359777 0.500000 0.095969
Si Si7 0.250000 0.250000 0.860603
Si Si8 0.359819 0.398283 0.786072
O O1 0.382231 0.148106 0.107469
O O2 0.500000 0.000000 0.104023
O O3 0.500000 0.086524 0.011307
O O4 0.750000 0.750000 0.171839
O O5 0.671358 0.587300 0.133931
O O6 0.834098 0.606348 0.217112
O O7 0.135589 0.000000 0.441189
O O8 0.250000 0.250000 0.001362
O O9 0.139213 0.249745 0.907220
O O10 0.000000 0.206747 0.997655
O O11 0.163434 0.095650 0.957110
O O12 0.229988 0.000000 0.039824
O O13 0.500000 0.500000 0.075865
O O14 0.266906 0.335116 0.820060
O O15 0.500000 0.368387 0.796098
O O16 0.348809 0.500000 0.806694
#
# Coordination Sequence:
#
# PCOD9368390 Si02
#       8
#     8  16   4  16   8   8   8  16
#     4  10  18  44  66  86 134 176 226 270 311 395
#     4  12  23  39  64  99 135 179 223 275 322 397
#     4  10  22  42  74 100 128 186 232 286 342 410
#     4  10  25  46  71 100 136 176 228 288 349 411
#     4  12  24  46  75  97 138 177 234 286 355 413
#     4  12  26  44  59  95 144 182 222 273 338 406
#     4  10  24  42  66 100 134 162 228 288 334 410
#     4  11  22  39  70  98 129 179 228 273 340 408
#
# _framework density 22.498328999999998
#
# number of rings (size 3 to 8) (size 9 to 14) (size 15 to 20)
#    0.857    0.190    5.714    1.429    4.000    0.762 
#    0.000    0.000    0.000    0.000    0.000    0.000 
#    0.000    0.000    0.000    0.000    0.000    0.000 
#
# Total GULP energy -117259.404721 kJ/mol
# GULP energy per Si atom -5583.781177 kJ/mol
# Density = 2.244712 g / cm^3
# Si number density = 22.498329 Si / 1000 Ang^3
#
#
#
# Elastic Constant Matrix: (Units=GPa)
#
#
# Indices 1 2 3 4 5 6 
#
# 1 128.7951 44.8705 1.4410 0.0000 0.0000 0.0000
# 2 44.8705 127.6799 12.7198 0.0000 0.0000 0.0000
# 3 1.4410 12.7198 57.2115 0.0000 0.0000 0.0000
# 4 0.0000 0.0000 0.0000 29.7797 0.0000 0.0000
# 5 0.0000 0.0000 0.0000 0.0000 18.2461 0.0000
# 6 0.0000 0.0000 0.0000 0.0000 0.0000 14.2047
#
#
#
# Elastic Compliance Matrix: (Units=1/GPa)
#
#
# Indices 1 2 3 4 5 6 
#
# 1 0.008860 -0.003162 0.000480 0.000000 0.000000 0.000000
# 2 -0.003162 0.009138 -0.001952 0.000000 0.000000 0.000000
# 3 0.000480 -0.001952 0.017901 0.000000 0.000000 0.000000
# 4 0.000000 0.000000 0.000000 0.033580 0.000000 0.000000
# 5 0.000000 0.000000 0.000000 0.000000 0.054806 0.000000
# 6 0.000000 0.000000 0.000000 0.000000 0.000000 0.070399
#
#
# Mechanical properties :
#
#
# Convention : Reuss Voigt Hill
#
# Bulk Modulus (GPa) = 37.54975 47.97212 42.76093
# Shear Modulus (GPa) = 23.49305 29.42311 26.45808
#
# Velocity S-wave (km/s) = 3.23493 3.62026 3.43301
# Velocity P-wave (km/s) = 5.53889 6.23249 5.89590
#
# Compressibility (1/GPa) = 0.02663133
#
# Stress axis : x y z
#
# Youngs Moduli (GPa) = 112.86224 109.43773 55.86312
#
# Poissons Ratio (x) = 0.34600 -0.02680
# Poissons Ratio (y) = 0.35682 0.10904
# Poissons Ratio (z) = -0.05414 0.21361
#
# Static dielectric constant tensor:
#      x y z
#    x 1.866140 0.000000 0.000000 
#    y 0.000000 1.886240 0.000000 
#    z 0.000000 0.000000 1.835710 
# 
# From -- ./inp_files/28763.got.cif
#   From: 2010.05.17/outbox.cif.g08.bks.cpg/sg42_15_cif.got.tgz:28763.got - 2010.06.03 19:03:34.
