data_PCOD9368324
_publ_section_title
;
Structure prediction by ZEFSAII (Michael W. Deem and Ramdas Pophale) SiO2 
 PCOD9368324
Probable space group: F M M 2
;
_chemical_formula_sum "Si O2"
_cell_formula_units_Z 116
_cell_length_a 7.797219
_cell_length_b 30.097150
_cell_length_c 26.233697
_cell_angle_alpha 90.000000
_cell_angle_beta 90.000000
_cell_angle_gamma 90.000000
_cell_volume 6156.368442
_symmetry_space_group_name_H-M "F M M 2"
_symmetry_group_IT_number 42
_symmetry_cell_setting 'orthorhombic'
loop_
_space_group_symop_operation_xyz
x,y,z
-x,-y,z
-x,y,z
x,-y,z
x,1/2+y,1/2+z
-x,1/2-y,1/2+z
-x,1/2+y,1/2+z
x,1/2-y,1/2+z
1/2+x,y,1/2+z
1/2-x,-y,1/2+z
1/2-x,y,1/2+z
1/2+x,-y,1/2+z
1/2+x,1/2+y,z
1/2-x,1/2-y,z
1/2-x,1/2+y,z
1/2+x,1/2-y,z
loop_
_atom_site_type_symbol
_atom_site_label
_atom_site_fract_x
_atom_site_fract_y
_atom_site_fract_z
Si Si1 0.796092 0.298610 0.942050
Si Si2 0.500000 0.500000 0.188383
Si Si3 0.703987 0.298189 0.558110
Si Si4 0.797979 0.885980 0.116560
Si Si5 0.292934 0.051003 0.323083
Si Si6 0.290067 0.051781 0.524563
Si Si7 0.302690 0.430356 0.710304
Si Si8 0.294780 0.102525 0.422217
O O1 0.750000 0.250000 0.920077
O O2 0.739426 0.345012 0.917574
O O3 0.000000 0.299994 0.944222
O O4 0.725333 0.299924 0.000138
O O5 0.653830 0.462449 0.190143
O O6 0.500000 0.302180 0.555276
O O7 0.750000 0.250000 0.579413
O O8 0.771737 0.338885 0.590143
O O9 0.734292 0.923572 0.076343
O O10 0.707565 0.889889 0.170983
O O11 0.000000 0.892288 0.122701
O O12 0.500000 0.048661 0.327995
O O13 0.259327 0.075949 0.269980
O O14 0.227250 0.075555 0.373349
O O15 0.229845 0.000000 0.318445
O O16 0.500000 0.052003 0.524903
O O17 0.232318 0.080444 0.475323
O O18 0.237905 0.000000 0.521858
O O19 0.500000 0.447476 0.709177
O O20 0.500000 0.096989 0.423309
#
# Coordination Sequence:
#
# PCOD9368324 Si02
#       8
#    16   4  16  16  16  16  16  16
#     4  10  20  34  53  79 110 143 186 233 285 343
#     4  12  22  40  60  86 112 152 202 248 292 340
#     4  10  20  35  56  80 110 147 189 238 292 346
#     4  11  21  34  56  84 118 150 191 234 284 348
#     4   9  18  34  57  81 110 147 194 235 274 330
#     4   9  18  29  48  77 113 151 187 222 269 335
#     4  11  23  39  59  85 116 153 197 248 291 335
#     4  10  18  33  55  80 109 146 185 229 280 333
#
# _framework density 18.842278
#
# number of rings (size 3 to 8) (size 9 to 14) (size 15 to 20)
#    0.000    1.931    2.759    1.862    0.966    2.759 
#    1.241    0.000    0.000    3.724    0.000    3.862 
#    0.000    0.000    0.000    0.000    0.000    0.000 
#
# Total GULP energy -161454.599612 kJ/mol
# GULP energy per Si atom -5567.399987 kJ/mol
# Density = 1.879939 g / cm^3
# Si number density = 18.842278 Si / 1000 Ang^3
#
#
#
# Elastic Constant Matrix: (Units=GPa)
#
#
# Indices 1 2 3 4 5 6 
#
# 1 58.1293 -1.3209 7.9309 0.0000 0.0000 0.0000
# 2 -1.3209 104.2395 57.0004 0.0000 0.0000 0.0000
# 3 7.9309 57.0004 111.1889 0.0000 0.0000 0.0000
# 4 0.0000 0.0000 0.0000 -322.0077 0.0000 0.0000
# 5 0.0000 0.0000 0.0000 0.0000 11.0205 0.0000
# 6 0.0000 0.0000 0.0000 0.0000 0.0000 24.5092
#
#
#
# Elastic Compliance Matrix: (Units=1/GPa)
#
#
# Indices 1 2 3 4 5 6 
#
# 1 0.017490 0.001256 -0.001891 0.000000 0.000000 0.000000
# 2 0.001256 0.013420 -0.006969 0.000000 0.000000 0.000000
# 3 -0.001891 -0.006969 0.012701 0.000000 0.000000 0.000000
# 4 0.000000 0.000000 0.000000 -0.003106 0.000000 0.000000
# 5 0.000000 0.000000 0.000000 0.000000 0.090740 0.000000
# 6 0.000000 0.000000 0.000000 0.000000 0.000000 0.040801
#
#
# Mechanical properties :
#
#
# Convention : Reuss Voigt Hill
#
# Bulk Modulus (GPa) = 35.20937 44.53096 39.87016
# Shear Modulus (GPa) = 25.41633 -43.29911 -8.94139
#
# Velocity S-wave (km/s) = 3.67672 -4.79892 -2.18075
# Velocity P-wave (km/s) = 6.06229 2.64979 3.85551
#
# Compressibility (1/GPa) = 0.02840153
#
# Stress axis : x y z
#
# Youngs Moduli (GPa) = 57.17685 74.51454 78.73140
#
# Poissons Ratio (x) = -0.09358 0.14890
# Poissons Ratio (y) = -0.07180 0.54871
# Poissons Ratio (z) = 0.10814 0.51932
#
# Static dielectric constant tensor:
#      x y z
#    x 1.681880 0.000000 0.000000 
#    y 0.000000 1.822100 0.000000 
#    z 0.000000 0.000000 1.677240 
# 
# From -- ./inp_files/28481.got.cif
#   From: 2010.05.17/outbox.cif.g08.bks.cpg/sg42_15_cif.got.tgz:28481.got - 2010.06.03 19:03:34.
