data_PCOD9368217
_publ_section_title
;
Structure prediction by ZEFSAII (Michael W. Deem and Ramdas Pophale) SiO2 
 PCOD9368217
Probable space group: F M M 2
;
_chemical_formula_sum "Si O2"
_cell_formula_units_Z 96
_cell_length_a 21.054413
_cell_length_b 24.079227
_cell_length_c 10.732369
_cell_angle_alpha 90.000000
_cell_angle_beta 90.000000
_cell_angle_gamma 90.000000
_cell_volume 5441.031934
_symmetry_space_group_name_H-M "F M M 2"
_symmetry_group_IT_number 42
_symmetry_cell_setting 'orthorhombic'
loop_
_space_group_symop_operation_xyz
x,y,z
-x,-y,z
-x,y,z
x,-y,z
x,1/2+y,1/2+z
-x,1/2-y,1/2+z
-x,1/2+y,1/2+z
x,1/2-y,1/2+z
1/2+x,y,1/2+z
1/2-x,-y,1/2+z
1/2-x,y,1/2+z
1/2+x,-y,1/2+z
1/2+x,1/2+y,z
1/2-x,1/2-y,z
1/2-x,1/2+y,z
1/2+x,1/2-y,z
loop_
_atom_site_type_symbol
_atom_site_label
_atom_site_fract_x
_atom_site_fract_y
_atom_site_fract_z
Si Si1 0.572159 0.647425 0.511200
Si Si2 0.311178 0.220935 0.677040
Si Si3 0.243901 0.392960 0.244572
Si Si4 0.188060 0.936041 0.483967
Si Si5 0.123905 0.325040 0.282170
Si Si6 0.430378 0.728882 0.000616
O O1 0.500000 0.626887 0.496803
O O2 0.626614 0.604117 0.475834
O O3 0.587429 0.663924 0.654081
O O4 0.576708 0.708177 0.447836
O O5 0.250000 0.250000 0.111315
O O6 0.287396 0.162148 0.727295
O O7 0.333997 0.268405 0.773137
O O8 0.371435 0.215454 0.588502
O O9 0.274982 0.429500 0.352990
O O10 0.175551 0.373026 0.296244
O O11 0.229279 0.417384 0.106244
O O12 0.169711 0.000000 0.502433
O O13 0.074929 0.315175 0.390902
O O14 0.500000 0.726963 0.061698
#
# Coordination Sequence:
#
# PCOD9368217 Si02
#       6
#    16  16  16  16  16  16
#     4   9  19  33  48  70 100 133 169 205 243 293
#     4   9  18  30  48  73 101 133 166 201 247 305
#     4  10  20  35  54  76 102 130 165 209 254 300
#     4  11  22  36  54  74  97 129 171 217 257 291
#     4   9  17  29  49  74 101 133 165 199 243 302
#     4  10  18  29  48  75 107 137 164 199 248 305
#
# _framework density 17.643712000000001
#
# number of rings (size 3 to 8) (size 9 to 14) (size 15 to 20)
#    0.000    2.333    0.000    4.000    0.000    3.000 
#    0.000    0.833    0.000    0.000    0.000    0.000 
#    0.000    8.000    0.000    0.000    0.000    0.000 
#
# Total GULP energy -133646.388293 kJ/mol
# GULP energy per Si atom -5568.599512 kJ/mol
# Density = 1.760355 g / cm^3
# Si number density = 17.643712 Si / 1000 Ang^3
#
#
#
# Elastic Constant Matrix: (Units=GPa)
#
#
# Indices 1 2 3 4 5 6 
#
# 1 112.4902 19.3870 36.1135 0.0000 0.0000 0.0000
# 2 19.3870 48.9267 20.1036 0.0000 0.0000 0.0000
# 3 36.1135 20.1036 45.8552 0.0000 0.0000 0.0000
# 4 0.0000 0.0000 0.0000 15.8111 0.0000 0.0000
# 5 0.0000 0.0000 0.0000 0.0000 5.7249 0.0000
# 6 0.0000 0.0000 0.0000 0.0000 0.0000 8.1441
#
#
#
# Elastic Compliance Matrix: (Units=1/GPa)
#
#
# Indices 1 2 3 4 5 6 
#
# 1 0.011943 -0.001058 -0.008942 0.000000 0.000000 0.000000
# 2 -0.001058 0.025023 -0.010137 0.000000 0.000000 0.000000
# 3 -0.008942 -0.010137 0.033294 0.000000 0.000000 0.000000
# 4 0.000000 0.000000 0.000000 0.063247 0.000000 0.000000
# 5 0.000000 0.000000 0.000000 0.000000 0.174676 0.000000
# 6 0.000000 0.000000 0.000000 0.000000 0.000000 0.122788
#
#
# Mechanical properties :
#
#
# Convention : Reuss Voigt Hill
#
# Bulk Modulus (GPa) = 33.34880 39.83114 36.58997
# Shear Modulus (GPa) = 10.38983 14.71389 12.55186
#
# Velocity S-wave (km/s) = 2.42929 2.89094 2.67012
# Velocity P-wave (km/s) = 5.17792 5.81100 5.50357
#
# Compressibility (1/GPa) = 0.02998609
#
# Stress axis : x y z
#
# Youngs Moduli (GPa) = 83.73394 39.96269 30.03544
#
# Poissons Ratio (x) = 0.04229 0.26856
# Poissons Ratio (y) = 0.08861 0.30448
# Poissons Ratio (z) = 0.74871 0.40511
#
# Static dielectric constant tensor:
#      x y z
#    x 1.628380 0.000000 0.000000 
#    y 0.000000 1.598920 0.000000 
#    z 0.000000 0.000000 1.640820 
# 
# From -- ./inp_files/8815.got.cif
#   From: 2010.05.17/outbox.cif.g08.bks.cpg/sg42_5_cif.got.tgz:8815.got - 2010.06.03 19:03:34.
