data_PCOD9368776
_publ_section_title
;
Structure prediction by ZEFSAII (Michael W. Deem and Ramdas Pophale) SiO2 
 PCOD9368776
Probable space group: F M M 2
;
_chemical_formula_sum "Si O2"
_cell_formula_units_Z 112
_cell_length_a 29.935337
_cell_length_b 17.230912
_cell_length_c 13.857722
_cell_angle_alpha 90.000000
_cell_angle_beta 90.000000
_cell_angle_gamma 90.000000
_cell_volume 7147.995341
_symmetry_space_group_name_H-M "F M M 2"
_symmetry_group_IT_number 42
_symmetry_cell_setting 'orthorhombic'
loop_
_space_group_symop_operation_xyz
x,y,z
-x,-y,z
-x,y,z
x,-y,z
x,1/2+y,1/2+z
-x,1/2-y,1/2+z
-x,1/2+y,1/2+z
x,1/2-y,1/2+z
1/2+x,y,1/2+z
1/2-x,-y,1/2+z
1/2-x,y,1/2+z
1/2+x,-y,1/2+z
1/2+x,1/2+y,z
1/2-x,1/2-y,z
1/2-x,1/2+y,z
1/2+x,1/2-y,z
loop_
_atom_site_type_symbol
_atom_site_label
_atom_site_fract_x
_atom_site_fract_y
_atom_site_fract_z
Si Si1 0.500000 0.411091 0.625000
Si Si2 0.260398 0.659420 0.139427
Si Si3 0.097393 0.906068 0.627862
Si Si4 0.178749 0.644321 0.997870
Si Si5 0.500000 0.588659 0.858740
Si Si6 0.818645 0.326449 0.460635
Si Si7 0.099550 0.405522 0.353851
Si Si8 0.258649 0.087822 0.846162
O O1 0.500000 0.500000 0.588933
O O2 0.547893 0.376058 0.599785
O O3 0.500000 0.414803 0.741825
O O4 0.250000 0.750000 0.160953
O O5 0.217784 0.632837 0.077182
O O6 0.302957 0.652036 0.068968
O O7 0.265324 0.611875 0.236343
O O8 0.133698 0.878114 0.551907
O O9 0.107125 0.884971 0.740161
O O10 0.096031 0.000000 0.627128
O O11 0.177616 0.733591 0.963513
O O12 0.195661 0.595900 0.906374
O O13 0.500000 0.500000 0.894826
O O14 0.450874 0.620871 0.882894
O O15 0.862807 0.367044 0.419972
O O16 0.777636 0.354399 0.393323
O O17 0.101228 0.500000 0.359932
O O18 0.241495 0.000000 0.853935
#
# Coordination Sequence:
#
# PCOD9368776 Si02
#       8
#     8  16  16  16   8  16  16  16
#     4   7  12  24  43  68  95 117 141 181 228 265
#     4   9  19  34  47  61  88 122 151 181 223 268
#     4   9  16  28  48  72  94 117 148 186 226 265
#     4  10  20  32  46  66  92 121 150 181 222 272
#     4   7  12  24  43  70  97 117 141 179 228 267
#     4  10  20  32  46  66  92 122 151 180 223 271
#     4   9  16  28  49  73  95 118 147 186 226 265
#     4  11  21  32  48  67  88 116 151 191 226 262
#
# _framework density 15.668729000000001
#
# number of rings (size 3 to 8) (size 9 to 14) (size 15 to 20)
#    0.000    2.714    0.000    5.571    0.000    5.714 
#    0.000    0.714    0.000    0.000    0.000    1.000 
#    0.000    3.429    0.000    0.000    0.000    0.000 
#
# Total GULP energy -155872.165202 kJ/mol
# GULP energy per Si atom -5566.863043 kJ/mol
# Density = 1.563307 g / cm^3
# Si number density = 15.668729 Si / 1000 Ang^3
#
#
#
# Elastic Constant Matrix: (Units=GPa)
#
#
# Indices 1 2 3 4 5 6 
#
# 1 128.8504 30.1673 46.8981 0.0000 0.0000 0.0000
# 2 30.1673 40.1221 39.4914 0.0000 0.0000 0.0000
# 3 46.8981 39.4914 72.1850 0.0000 0.0000 0.0000
# 4 0.0000 0.0000 0.0000 -1.9378 0.0000 0.0000
# 5 0.0000 0.0000 0.0000 0.0000 28.1223 0.0000
# 6 0.0000 0.0000 0.0000 0.0000 0.0000 10.2883
#
#
#
# Elastic Compliance Matrix: (Units=1/GPa)
#
#
# Indices 1 2 3 4 5 6 
#
# 1 0.010279 -0.002504 -0.005309 0.000000 0.000000 0.000000
# 2 -0.002504 0.054614 -0.028252 0.000000 0.000000 0.000000
# 3 -0.005309 -0.028252 0.032759 0.000000 0.000000 0.000000
# 4 0.000000 0.000000 0.000000 -0.516047 0.000000 0.000000
# 5 0.000000 0.000000 0.000000 0.000000 0.035559 0.000000
# 6 0.000000 0.000000 0.000000 0.000000 0.000000 0.097198
#
#
# Mechanical properties :
#
#
# Convention : Reuss Voigt Hill
#
# Bulk Modulus (GPa) = 39.17970 52.69676 45.93823
# Shear Modulus (GPa) = -24.39017 15.60127 -4.39445
#
# Velocity S-wave (km/s) = -3.94968 3.15889 -1.67651
# Velocity P-wave (km/s) = 2.06383 6.85635 5.06305
#
# Compressibility (1/GPa) = 0.02552342
#
# Stress axis : x y z
#
# Youngs Moduli (GPa) = 97.28259 18.31016 30.52622
#
# Poissons Ratio (x) = 0.04584 0.16205
# Poissons Ratio (y) = 0.24356 0.86243
# Poissons Ratio (z) = 0.51645 0.51730
#
# Static dielectric constant tensor:
#      x y z
#    x 1.554530 0.000000 0.000000 
#    y 0.000000 1.527560 0.000000 
#    z 0.000000 0.000000 1.509080 
# 
# From -- ./inp_files/17471.got.cif
#   From: 2010.05.17/outbox.cif.g08.bks.cpg/sg42_9_cif.got.tgz:17471.got - 2010.06.03 19:03:34.
