data_PCOD9368315
_publ_section_title
;
Structure prediction by ZEFSAII (Michael W. Deem and Ramdas Pophale) SiO2 
 PCOD9368315
Probable space group: F M M 2
;
_chemical_formula_sum "Si O2"
_cell_formula_units_Z 96
_cell_length_a 15.350096
_cell_length_b 19.985852
_cell_length_c 15.022015
_cell_angle_alpha 90.000000
_cell_angle_beta 90.000000
_cell_angle_gamma 90.000000
_cell_volume 4608.525069
_symmetry_space_group_name_H-M "F M M 2"
_symmetry_group_IT_number 42
_symmetry_cell_setting 'orthorhombic'
loop_
_space_group_symop_operation_xyz
x,y,z
-x,-y,z
-x,y,z
x,-y,z
x,1/2+y,1/2+z
-x,1/2-y,1/2+z
-x,1/2+y,1/2+z
x,1/2-y,1/2+z
1/2+x,y,1/2+z
1/2-x,-y,1/2+z
1/2-x,y,1/2+z
1/2+x,-y,1/2+z
1/2+x,1/2+y,z
1/2-x,1/2-y,z
1/2-x,1/2+y,z
1/2+x,1/2-y,z
loop_
_atom_site_type_symbol
_atom_site_label
_atom_site_fract_x
_atom_site_fract_y
_atom_site_fract_z
Si Si1 0.099515 0.326835 0.254520
Si Si2 0.106326 0.076161 0.293217
Si Si3 0.156129 0.787851 0.378600
Si Si4 0.351326 0.234074 0.078364
Si Si5 0.105740 0.422227 0.407261
Si Si6 0.599766 0.617684 0.100111
O O1 0.103515 0.256496 0.307338
O O2 0.140177 0.318827 0.157575
O O3 0.139090 0.379392 0.324301
O O4 0.000000 0.345710 0.238701
O O5 0.151158 0.135451 0.348332
O O6 0.135449 0.085883 0.190204
O O7 0.000000 0.085434 0.296669
O O8 0.124856 0.000000 0.321777
O O9 0.250000 0.750000 0.377319
O O10 0.119318 0.783705 0.478871
O O11 0.250000 0.250000 0.071783
O O12 0.398000 0.302340 0.107911
O O13 0.122349 0.500000 0.395435
O O14 0.140362 0.399226 0.503893
O O15 0.000000 0.411586 0.409037
O O16 0.500000 0.593447 0.095418
#
# Coordination Sequence:
#
# PCOD9368315 Si02
#       6
#    16  16  16  16  16  16
#     4  11  21  35  59  87 113 147 198 248 298 357
#     4  10  21  37  61  94 127 161 203 256 315 368
#     4  11  23  39  60  85 121 162 200 244 302 367
#     4  11  23  37  57  82 121 155 198 246 299 359
#     4   9  18  33  54  82 115 147 186 241 297 349
#     4  10  18  32  58  87 116 151 196 250 301 353
#
# _framework density 20.830959
#
# number of rings (size 3 to 8) (size 9 to 14) (size 15 to 20)
#    0.000    1.667    3.333    2.000    0.000    4.000 
#    0.000    1.667    0.000    2.000    0.000    0.000 
#    0.000    0.000    0.000    0.000    0.000    0.000 
#
# Total GULP energy -133955.041008 kJ/mol
# GULP energy per Si atom -5581.460042 kJ/mol
# Density = 2.078355 g / cm^3
# Si number density = 20.830959 Si / 1000 Ang^3
#
#
#
# Elastic Constant Matrix: (Units=GPa)
#
#
# Indices 1 2 3 4 5 6 
#
# 1 36.4059 2.3736 7.6738 0.0000 0.0000 0.0000
# 2 2.3736 119.1055 50.3376 0.0000 0.0000 0.0000
# 3 7.6738 50.3376 141.7297 0.0000 0.0000 0.0000
# 4 0.0000 0.0000 0.0000 31.4218 0.0000 0.0000
# 5 0.0000 0.0000 0.0000 0.0000 89.3293 0.0000
# 6 0.0000 0.0000 0.0000 0.0000 0.0000 11.6959
#
#
#
# Elastic Compliance Matrix: (Units=1/GPa)
#
#
# Indices 1 2 3 4 5 6 
#
# 1 0.027786 0.000097 -0.001539 0.000000 0.000000 0.000000
# 2 0.000097 0.009879 -0.003514 0.000000 0.000000 0.000000
# 3 -0.001539 -0.003514 0.008387 0.000000 0.000000 0.000000
# 4 0.000000 0.000000 0.000000 0.031825 0.000000 0.000000
# 5 0.000000 0.000000 0.000000 0.000000 0.011195 0.000000
# 6 0.000000 0.000000 0.000000 0.000000 0.000000 0.085500
#
#
# Mechanical properties :
#
#
# Convention : Reuss Voigt Hill
#
# Bulk Modulus (GPa) = 27.67014 46.44567 37.05790
# Shear Modulus (GPa) = 25.44127 42.27979 33.86053
#
# Velocity S-wave (km/s) = 3.49853 4.51006 4.03611
# Velocity P-wave (km/s) = 5.44349 7.03319 6.28878
#
# Compressibility (1/GPa) = 0.03614004
#
# Stress axis : x y z
#
# Youngs Moduli (GPa) = 35.98916 101.22390 119.23168
#
# Poissons Ratio (x) = -0.00978 0.18347
# Poissons Ratio (y) = -0.00348 0.41897
# Poissons Ratio (z) = 0.05538 0.35570
#
# Static dielectric constant tensor:
#      x y z
#    x 1.792380 0.000000 0.000000 
#    y 0.000000 1.738680 0.000000 
#    z 0.000000 0.000000 1.765070 
# 
# From -- ./inp_files/14025.got.cif
#   From: 2010.05.17/outbox.cif.g08.bks.cpg/sg42_8_cif.got.tgz:14025.got - 2010.06.03 19:03:34.
