data_PCOD9368179
_publ_section_title
;
Structure prediction by ZEFSAII (Michael W. Deem and Ramdas Pophale) SiO2 
 PCOD9368179
Probable space group: F M M 2
;
_chemical_formula_sum "Si O2"
_cell_formula_units_Z 100
_cell_length_a 7.531574
_cell_length_b 30.687386
_cell_length_c 20.473579
_cell_angle_alpha 90.000000
_cell_angle_beta 90.000000
_cell_angle_gamma 90.000000
_cell_volume 4731.941994
_symmetry_space_group_name_H-M "F M M 2"
_symmetry_group_IT_number 42
_symmetry_cell_setting 'orthorhombic'
loop_
_space_group_symop_operation_xyz
x,y,z
-x,-y,z
-x,y,z
x,-y,z
x,1/2+y,1/2+z
-x,1/2-y,1/2+z
-x,1/2+y,1/2+z
x,1/2-y,1/2+z
1/2+x,y,1/2+z
1/2-x,-y,1/2+z
1/2-x,y,1/2+z
1/2+x,-y,1/2+z
1/2+x,1/2+y,z
1/2-x,1/2-y,z
1/2-x,1/2+y,z
1/2+x,1/2-y,z
loop_
_atom_site_type_symbol
_atom_site_label
_atom_site_fract_x
_atom_site_fract_y
_atom_site_fract_z
Si Si1 0.709669 0.202216 0.343860
Si Si2 0.792122 0.668391 0.981757
Si Si3 0.000000 0.500000 0.486535
Si Si4 0.284334 0.950670 0.296386
Si Si5 0.286833 0.799860 0.119949
Si Si6 0.790992 0.429187 0.947182
Si Si7 0.217301 0.136658 0.733970
O O1 0.500000 0.196932 0.346574
O O2 0.750000 0.250000 0.317065
O O3 0.775300 0.197484 0.417443
O O4 0.778585 0.164521 0.296671
O O5 0.729373 0.619972 0.963508
O O6 0.000000 0.662932 0.994389
O O7 0.716280 0.689788 0.047257
O O8 0.157006 0.462363 0.481072
O O9 0.500000 0.950967 0.298598
O O10 0.224133 0.937828 0.369258
O O11 0.228270 0.913242 0.245683
O O12 0.226325 0.000000 0.281478
O O13 0.500000 0.803120 0.119795
O O14 0.250000 0.750000 0.139044
O O15 0.222660 0.836517 0.170735
O O16 0.000000 0.434701 0.964937
O O17 0.000000 0.136756 0.733194
#
# Coordination Sequence:
#
# PCOD9368179 Si02
#       7
#    16  16   4  16  16  16  16
#     4  11  21  33  54  82 117 150 192 245 306 365
#     4  10  22  37  57  84 118 154 197 248 307 367
#     4  12  22  36  60  90 128 164 206 244 314 366
#     4  10  17  32  57  87 117 154 199 245 308 369
#     4  10  21  40  59  82 115 158 206 250 304 373
#     4  11  21  35  58  92 124 160 203 255 306 369
#     4   9  19  34  57  83 115 153 196 249 302 365
#
# _framework density 21.132973
#
# number of rings (size 3 to 8) (size 9 to 14) (size 15 to 20)
#    0.000    1.760    3.200    1.680    1.120    1.920 
#    0.000    1.600    1.760    0.000    0.000    0.000 
#    0.000    0.000    0.000    0.000    0.000    0.000 
#
# Total GULP energy -139328.090245 kJ/mol
# GULP energy per Si atom -5573.123610 kJ/mol
# Density = 2.108487 g / cm^3
# Si number density = 21.132973 Si / 1000 Ang^3
#
#
#
# Elastic Constant Matrix: (Units=GPa)
#
#
# Indices 1 2 3 4 5 6 
#
# 1 76.7098 12.8474 -0.4053 0.0000 0.0000 0.0000
# 2 12.8474 168.6847 43.2590 0.0000 0.0000 0.0000
# 3 -0.4053 43.2590 93.6334 0.0000 0.0000 0.0000
# 4 0.0000 0.0000 0.0000 11.4507 0.0000 0.0000
# 5 0.0000 0.0000 0.0000 0.0000 11.4630 0.0000
# 6 0.0000 0.0000 0.0000 0.0000 0.0000 24.4687
#
#
#
# Elastic Compliance Matrix: (Units=1/GPa)
#
#
# Indices 1 2 3 4 5 6 
#
# 1 0.013234 -0.001160 0.000593 0.000000 0.000000 0.000000
# 2 -0.001160 0.006827 -0.003159 0.000000 0.000000 0.000000
# 3 0.000593 -0.003159 0.012142 0.000000 0.000000 0.000000
# 4 0.000000 0.000000 0.000000 0.087331 0.000000 0.000000
# 5 0.000000 0.000000 0.000000 0.000000 0.087237 0.000000
# 6 0.000000 0.000000 0.000000 0.000000 0.000000 0.040869
#
#
# Mechanical properties :
#
#
# Convention : Reuss Voigt Hill
#
# Bulk Modulus (GPa) = 40.40298 50.04780 45.22539
# Shear Modulus (GPa) = 18.98677 28.36491 23.67584
#
# Velocity S-wave (km/s) = 3.00066 3.66759 3.35076
# Velocity P-wave (km/s) = 5.58258 6.45513 6.03465
#
# Compressibility (1/GPa) = 0.02475065
#
# Stress axis : x y z
#
# Youngs Moduli (GPa) = 75.56541 146.48396 82.35894
#
# Poissons Ratio (x) = 0.16993 -0.04886
# Poissons Ratio (y) = 0.08766 0.26017
# Poissons Ratio (z) = -0.04483 0.46274
#
# Static dielectric constant tensor:
#      x y z
#    x 1.787390 0.000000 0.000000 
#    y 0.000000 1.765540 0.000000 
#    z 0.000000 0.000000 1.760990 
# 
# From -- ./inp_files/23820.got.cif
#   From: 2010.05.17/outbox.cif.g08.bks.cpg/sg42_12_cif.got.tgz:23820.got - 2010.06.03 19:03:34.
