data_PCOD9368831
_publ_section_title
;
Structure prediction by ZEFSAII (Michael W. Deem and Ramdas Pophale) SiO2 
 PCOD9368831
Probable space group: F M M 2
;
_chemical_formula_sum "Si O2"
_cell_formula_units_Z 112
_cell_length_a 22.054245
_cell_length_b 23.804326
_cell_length_c 11.234977
_cell_angle_alpha 90.000000
_cell_angle_beta 90.000000
_cell_angle_gamma 90.000000
_cell_volume 5898.210552
_symmetry_space_group_name_H-M "F M M 2"
_symmetry_group_IT_number 42
_symmetry_cell_setting 'orthorhombic'
loop_
_space_group_symop_operation_xyz
x,y,z
-x,-y,z
-x,y,z
x,-y,z
x,1/2+y,1/2+z
-x,1/2-y,1/2+z
-x,1/2+y,1/2+z
x,1/2-y,1/2+z
1/2+x,y,1/2+z
1/2-x,-y,1/2+z
1/2-x,y,1/2+z
1/2+x,-y,1/2+z
1/2+x,1/2+y,z
1/2-x,1/2-y,z
1/2-x,1/2+y,z
1/2+x,1/2-y,z
loop_
_atom_site_type_symbol
_atom_site_label
_atom_site_fract_x
_atom_site_fract_y
_atom_site_fract_z
Si Si1 0.153084 0.628817 0.408310
Si Si2 0.193268 0.062911 0.688620
Si Si3 0.567858 0.353804 0.324627
Si Si4 0.326718 0.605653 0.176905
Si Si5 0.927702 0.719448 0.274628
Si Si6 0.632694 0.335845 0.548504
Si Si7 0.275451 0.191143 0.846588
O O1 0.158645 0.578761 0.311657
O O2 0.149238 0.607802 0.543054
O O3 0.104747 0.677263 0.370241
O O4 0.219626 0.655505 0.395120
O O5 0.267124 0.067137 0.695025
O O6 0.169971 0.111880 0.601547
O O7 0.177804 0.000000 0.650725
O O8 0.500000 0.367243 0.288168
O O9 0.615467 0.396393 0.264119
O O10 0.577729 0.286825 0.294527
O O11 0.578030 0.357193 0.465923
O O12 0.299992 0.664401 0.225604
O O13 0.893384 0.702657 0.152835
O O14 0.000000 0.707605 0.270128
O O15 0.676669 0.305858 0.453576
O O16 0.250000 0.250000 0.813376
#
# Coordination Sequence:
#
# PCOD9368831 Si02
#       7
#    16  16  16  16  16  16  16
#     4  10  20  36  54  84 118 147 195 238 289 345
#     4  10  22  40  63  86 111 148 194 251 312 351
#     4  10  22  37  56  85 122 162 195 227 277 345
#     4  10  21  36  54  86 117 150 190 237 289 350
#     4  10  22  36  56  83 119 167 201 227 273 341
#     4  10  20  38  58  85 119 149 200 249 279 342
#     4  10  20  33  53  84 121 156 182 232 293 353
#
# _framework density 18.988810000000001
#
# number of rings (size 3 to 8) (size 9 to 14) (size 15 to 20)
#    0.000    2.000    1.429    2.143    4.000    1.714 
#    0.000    0.000    0.000   12.000    0.000    4.000 
#    0.000    0.000    0.000    0.000    0.000    0.000 
#
# Total GULP energy -155931.231219 kJ/mol
# GULP energy per Si atom -5568.972544 kJ/mol
# Density = 1.894559 g / cm^3
# Si number density = 18.988810 Si / 1000 Ang^3
#
#
#
# Elastic Constant Matrix: (Units=GPa)
#
#
# Indices 1 2 3 4 5 6 
#
# 1 96.4139 31.4683 10.1427 0.0000 0.0000 0.0000
# 2 31.4683 31.1150 12.5954 0.0000 0.0000 0.0000
# 3 10.1427 12.5954 78.7538 0.0000 0.0000 0.0000
# 4 0.0000 0.0000 0.0000 25.0842 0.0000 0.0000
# 5 0.0000 0.0000 0.0000 0.0000 15.3859 0.0000
# 6 0.0000 0.0000 0.0000 0.0000 0.0000 13.5835
#
#
#
# Elastic Compliance Matrix: (Units=1/GPa)
#
#
# Indices 1 2 3 4 5 6 
#
# 1 0.015505 -0.015902 0.000546 0.000000 0.000000 0.000000
# 2 -0.015902 0.050673 -0.006056 0.000000 0.000000 0.000000
# 3 0.000546 -0.006056 0.013596 0.000000 0.000000 0.000000
# 4 0.000000 0.000000 0.000000 0.039866 0.000000 0.000000
# 5 0.000000 0.000000 0.000000 0.000000 0.064995 0.000000
# 6 0.000000 0.000000 0.000000 0.000000 0.000000 0.073619
#
#
# Mechanical properties :
#
#
# Convention : Reuss Voigt Hill
#
# Bulk Modulus (GPa) = 27.06357 34.96617 31.01487
# Shear Modulus (GPa) = 15.95441 20.94913 18.45177
#
# Velocity S-wave (km/s) = 2.90177 3.32510 3.12062
# Velocity P-wave (km/s) = 5.05077 5.76158 5.41785
#
# Compressibility (1/GPa) = 0.03695004
#
# Stress axis : x y z
#
# Youngs Moduli (GPa) = 64.49684 19.73441 73.55089
#
# Poissons Ratio (x) = 0.31381 -0.04019
# Poissons Ratio (y) = 1.02562 0.44544
# Poissons Ratio (z) = -0.03524 0.11952
#
# Static dielectric constant tensor:
#      x y z
#    x 1.714880 0.000000 0.000000 
#    y 0.000000 1.553400 0.000000 
#    z 0.000000 0.000000 1.675830 
# 
# From -- ./inp_files/10319.got.cif
#   From: 2010.05.17/outbox.cif.g08.bks.cpg/sg42_6_cif.got.tgz:10319.got - 2010.06.03 19:03:34.
