data_PCOD9368625
_publ_section_title
;
Structure prediction by ZEFSAII (Michael W. Deem and Ramdas Pophale) SiO2 
 PCOD9368625
Probable space group: F M M 2
;
_chemical_formula_sum "Si O2"
_cell_formula_units_Z 96
_cell_length_a 11.060056
_cell_length_b 18.860927
_cell_length_c 23.488389
_cell_angle_alpha 90.000000
_cell_angle_beta 90.000000
_cell_angle_gamma 90.000000
_cell_volume 4899.746269
_symmetry_space_group_name_H-M "F M M 2"
_symmetry_group_IT_number 42
_symmetry_cell_setting 'orthorhombic'
loop_
_space_group_symop_operation_xyz
x,y,z
-x,-y,z
-x,y,z
x,-y,z
x,1/2+y,1/2+z
-x,1/2-y,1/2+z
-x,1/2+y,1/2+z
x,1/2-y,1/2+z
1/2+x,y,1/2+z
1/2-x,-y,1/2+z
1/2-x,y,1/2+z
1/2+x,-y,1/2+z
1/2+x,1/2+y,z
1/2-x,1/2-y,z
1/2-x,1/2+y,z
1/2+x,1/2-y,z
loop_
_atom_site_type_symbol
_atom_site_label
_atom_site_fract_x
_atom_site_fract_y
_atom_site_fract_z
Si Si1 0.861119 0.086093 0.364130
Si Si2 0.366476 0.704523 0.555026
Si Si3 0.000000 0.414041 0.536371
Si Si4 0.265125 0.915034 0.740696
Si Si5 0.132379 0.793941 0.691974
Si Si6 0.259172 0.585063 0.485830
Si Si7 0.500000 0.085719 0.665792
O O1 0.798644 0.106302 0.305029
O O2 0.791260 0.106413 0.421378
O O3 0.000000 0.111013 0.365842
O O4 0.865078 0.000000 0.363485
O O5 0.500000 0.731592 0.538196
O O6 0.250000 0.750000 0.536326
O O7 0.363089 0.701638 0.623471
O O8 0.346210 0.627216 0.528269
O O9 0.122594 0.396150 0.503765
O O10 0.000000 0.500000 0.540914
O O11 0.000000 0.385709 0.601366
O O12 0.152054 0.871660 0.717833
O O13 0.378983 0.895961 0.699968
O O14 0.249606 0.000000 0.738504
O O15 0.250000 0.750000 0.711088
O O16 0.000000 0.764983 0.707697
O O17 0.273733 0.500000 0.490929
O O18 0.500000 0.000000 0.662942
#
# Coordination Sequence:
#
# PCOD9368625 Si02
#       7
#    16  16   8  16  16  16   8
#     4   9  17  32  54  82 115 152 196 238 284 343
#     4  10  22  39  59  84 116 154 193 238 295 354
#     4   9  18  30  48  82 117 146 184 238 297 344
#     4  10  19  34  58  87 115 148 191 244 295 344
#     4  10  23  40  58  84 117 154 192 237 298 357
#     4  10  20  35  57  85 117 154 196 241 288 343
#     4   9  16  28  52  84 113 142 186 240 293 344
#
# _framework density 19.592852000000001
#
# number of rings (size 3 to 8) (size 9 to 14) (size 15 to 20)
#    0.000    2.333    0.833    1.500    2.333    3.333 
#    1.500    2.500    0.000    2.000    0.000    0.000 
#    0.000    0.000    0.000    0.000    0.000    0.000 
#
# Total GULP energy -133936.560354 kJ/mol
# GULP energy per Si atom -5580.690015 kJ/mol
# Density = 1.954826 g / cm^3
# Si number density = 19.592852 Si / 1000 Ang^3
#
#
#
# Elastic Constant Matrix: (Units=GPa)
#
#
# Indices 1 2 3 4 5 6 
#
# 1 140.6051 43.8169 49.7467 0.0000 0.0000 0.0000
# 2 43.8169 55.0410 18.8231 0.0000 0.0000 0.0000
# 3 49.7467 18.8231 58.0478 0.0000 0.0000 0.0000
# 4 0.0000 0.0000 0.0000 15.3383 0.0000 0.0000
# 5 0.0000 0.0000 0.0000 0.0000 20.9981 0.0000
# 6 0.0000 0.0000 0.0000 0.0000 0.0000 21.8548
#
#
#
# Elastic Compliance Matrix: (Units=1/GPa)
#
#
# Indices 1 2 3 4 5 6 
#
# 1 0.012149 -0.006873 -0.008183 0.000000 0.000000 0.000000
# 2 -0.006873 0.024323 -0.001997 0.000000 0.000000 0.000000
# 3 -0.008183 -0.001997 0.024888 0.000000 0.000000 0.000000
# 4 0.000000 0.000000 0.000000 0.065196 0.000000 0.000000
# 5 0.000000 0.000000 0.000000 0.000000 0.047623 0.000000
# 6 0.000000 0.000000 0.000000 0.000000 0.000000 0.045756
#
#
# Mechanical properties :
#
#
# Convention : Reuss Voigt Hill
#
# Bulk Modulus (GPa) = 36.69273 53.16304 44.92789
# Shear Modulus (GPa) = 19.00226 21.05871 20.03049
#
# Velocity S-wave (km/s) = 3.11763 3.28200 3.20087
# Velocity P-wave (km/s) = 5.63274 6.44630 6.05320
#
# Compressibility (1/GPa) = 0.02725335
#
# Stress axis : x y z
#
# Youngs Moduli (GPa) = 82.30964 41.11371 40.18075
#
# Poissons Ratio (x) = 0.28259 0.32880
# Poissons Ratio (y) = 0.56574 0.08023
# Poissons Ratio (z) = 0.67355 0.08209
#
# Static dielectric constant tensor:
#      x y z
#    x 1.694410 0.000000 0.000000 
#    y 0.000000 1.722530 0.000000 
#    z 0.000000 0.000000 1.648510 
# 
# From -- ./inp_files/28859.got.cif
#   From: 2010.05.17/outbox.cif.g08.bks.cpg/sg42_15_cif.got.tgz:28859.got - 2010.06.03 19:03:34.
