data_PCOD9368902
_publ_section_title
;
Structure prediction by ZEFSAII (Michael W. Deem and Ramdas Pophale) SiO2 
 PCOD9368902
Probable space group: F M M 2
;
_chemical_formula_sum "Si O2"
_cell_formula_units_Z 96
_cell_length_a 24.242183
_cell_length_b 7.740522
_cell_length_c 20.103368
_cell_angle_alpha 90.000000
_cell_angle_beta 90.000000
_cell_angle_gamma 90.000000
_cell_volume 3772.339727
_symmetry_space_group_name_H-M "F M M 2"
_symmetry_group_IT_number 42
_symmetry_cell_setting 'orthorhombic'
loop_
_space_group_symop_operation_xyz
x,y,z
-x,-y,z
-x,y,z
x,-y,z
x,1/2+y,1/2+z
-x,1/2-y,1/2+z
-x,1/2+y,1/2+z
x,1/2-y,1/2+z
1/2+x,y,1/2+z
1/2-x,-y,1/2+z
1/2-x,y,1/2+z
1/2+x,-y,1/2+z
1/2+x,1/2+y,z
1/2-x,1/2-y,z
1/2-x,1/2+y,z
1/2+x,1/2-y,z
loop_
_atom_site_type_symbol
_atom_site_label
_atom_site_fract_x
_atom_site_fract_y
_atom_site_fract_z
Si Si1 0.326188 0.197931 0.844630
Si Si2 0.938178 0.197450 0.005626
Si Si3 0.060095 0.792514 0.800384
Si Si4 0.421713 0.301691 0.649048
Si Si5 0.187781 0.307676 0.487734
Si Si6 0.308902 0.704810 0.194414
O O1 0.392351 0.204110 0.841338
O O2 0.307431 0.304680 0.907507
O O3 0.310710 0.267032 0.771408
O O4 0.307501 0.000000 0.851188
O O5 0.941019 0.198272 0.085827
O O6 0.000000 0.267182 0.985095
O O7 0.935818 0.000000 0.979052
O O8 0.875048 0.274418 0.995596
O O9 0.062313 0.738389 0.722761
O O10 0.000000 0.755903 0.826953
O O11 0.069126 0.000000 0.800610
O O12 0.439509 0.500000 0.642357
O O13 0.355773 0.293468 0.652199
O O14 0.181248 0.500000 0.515724
O O15 0.250000 0.250000 0.509876
O O16 0.318818 0.500000 0.196013
O O17 0.250000 0.750000 0.166878
#
# Coordination Sequence:
#
# PCOD9368902 Si02
#       6
#    16  16  16  16  16  16
#     4  10  21  36  56  84 116 151 193 241 294 351
#     4  10  23  43  64  86 116 157 203 250 301 356
#     4   9  18  33  54  82 117 155 193 236 290 351
#     4  10  20  35  57  85 116 151 192 239 292 350
#     4  11  24  42  64  88 117 156 201 249 302 358
#     4  10  20  34  54  82 116 153 192 237 291 351
#
# _framework density 25.448398999999998
#
# number of rings (size 3 to 8) (size 9 to 14) (size 15 to 20)
#    0.000    2.000    0.000    3.000    0.000    8.000 
#    0.000    3.333    0.000    0.000    0.000    0.000 
#    0.000    0.000    0.000    0.000    0.000    0.000 
#
# Total GULP energy -133959.453426 kJ/mol
# GULP energy per Si atom -5581.643893 kJ/mol
# Density = 2.539048 g / cm^3
# Si number density = 25.448399 Si / 1000 Ang^3
#
#
#
# Elastic Constant Matrix: (Units=GPa)
#
#
# Indices 1 2 3 4 5 6 
#
# 1 259.6688 17.2426 18.5574 0.0000 0.0000 0.0000
# 2 17.2426 49.1339 2.7168 0.0000 0.0000 0.0000
# 3 18.5574 2.7168 99.9889 0.0000 0.0000 0.0000
# 4 0.0000 0.0000 0.0000 11.2754 0.0000 0.0000
# 5 0.0000 0.0000 0.0000 0.0000 -10.0751 0.0000
# 6 0.0000 0.0000 0.0000 0.0000 0.0000 15.4633
#
#
#
# Elastic Compliance Matrix: (Units=1/GPa)
#
#
# Indices 1 2 3 4 5 6 
#
# 1 0.003992 -0.001362 -0.000704 0.000000 0.000000 0.000000
# 2 -0.001362 0.020848 -0.000314 0.000000 0.000000 0.000000
# 3 -0.000704 -0.000314 0.010140 0.000000 0.000000 0.000000
# 4 0.000000 0.000000 0.000000 0.088688 0.000000 0.000000
# 5 0.000000 0.000000 0.000000 0.000000 -0.099255 0.000000
# 6 0.000000 0.000000 0.000000 0.000000 0.000000 0.064669
#
#
# Mechanical properties :
#
#
# Convention : Reuss Voigt Hill
#
# Bulk Modulus (GPa) = 33.08960 53.98058 43.53509
# Shear Modulus (GPa) = 48.11621 28.01773 38.06697
#
# Velocity S-wave (km/s) = 4.35298 3.32168 3.87182
# Velocity P-wave (km/s) = 6.18833 5.99743 6.09363
#
# Compressibility (1/GPa) = 0.03022097
#
# Stress axis : x y z
#
# Youngs Moduli (GPa) = 250.51384 47.96657 98.61680
#
# Poissons Ratio (x) = 0.06533 0.06941
# Poissons Ratio (y) = 0.34118 0.03093
# Poissons Ratio (z) = 0.17632 0.01505
#
# Static dielectric constant tensor:
#      x y z
#    x 2.161360 0.000000 0.000000 
#    y 0.000000 2.021200 0.000000 
#    z 0.000000 0.000000 1.972400 
# 
# From -- ./inp_files/27029.got.cif
#   From: 2010.05.17/outbox.cif.g08.bks.cpg/sg42_14_cif.got.tgz:27029.got - 2010.06.03 19:03:34.
