data_PCOD9368534
_publ_section_title
;
Structure prediction by ZEFSAII (Michael W. Deem and Ramdas Pophale) SiO2 
 PCOD9368534
Probable space group: F M M 2
;
_chemical_formula_sum "Si O2"
_cell_formula_units_Z 100
_cell_length_a 30.708575
_cell_length_b 7.510150
_cell_length_c 20.395983
_cell_angle_alpha 90.000000
_cell_angle_beta 90.000000
_cell_angle_gamma 90.000000
_cell_volume 4703.844068
_symmetry_space_group_name_H-M "F M M 2"
_symmetry_group_IT_number 42
_symmetry_cell_setting 'orthorhombic'
loop_
_space_group_symop_operation_xyz
x,y,z
-x,-y,z
-x,y,z
x,-y,z
x,1/2+y,1/2+z
-x,1/2-y,1/2+z
-x,1/2+y,1/2+z
x,1/2-y,1/2+z
1/2+x,y,1/2+z
1/2-x,-y,1/2+z
1/2-x,y,1/2+z
1/2+x,-y,1/2+z
1/2+x,1/2+y,z
1/2-x,1/2-y,z
1/2-x,1/2+y,z
1/2+x,1/2-y,z
loop_
_atom_site_type_symbol
_atom_site_label
_atom_site_fract_x
_atom_site_fract_y
_atom_site_fract_z
Si Si1 0.200029 0.203186 0.887320
Si Si2 0.365468 0.218434 0.493574
Si Si3 0.950904 0.215772 0.060460
Si Si4 0.328684 0.713166 0.242489
Si Si5 0.929632 0.786262 0.212747
Si Si6 0.000000 0.000000 0.755217
Si Si7 0.298252 0.787642 0.604091
O O1 0.250000 0.250000 0.901207
O O2 0.190315 0.220471 0.810599
O O3 0.197765 0.000000 0.906631
O O4 0.160755 0.285903 0.929970
O O5 0.414443 0.278776 0.509305
O O6 0.335345 0.273990 0.554797
O O7 0.368174 0.000000 0.493073
O O8 0.936474 0.255181 0.135202
O O9 0.000000 0.281939 0.050004
O O10 0.952399 0.000000 0.056683
O O11 0.323496 0.500000 0.244371
O O12 0.379890 0.749207 0.233269
O O13 0.304588 0.783240 0.177596
O O14 0.962158 0.657490 0.250719
O O15 0.937948 0.000000 0.220802
O O16 0.250000 0.750000 0.579126
O O17 0.303519 0.000000 0.607696
#
# Coordination Sequence:
#
# PCOD9368534 Si02
#       7
#    16  16  16  16  16   4  16
#     4  11  23  38  59  81 117 158 203 248 302 373
#     4   9  18  34  56  83 113 149 197 246 296 365
#     4   9  15  30  59  85 111 150 197 240 301 365
#     4  10  21  38  60  82 116 157 198 243 307 368
#     4  10  20  36  59  89 124 164 198 255 312 364
#     4  12  22  32  60  94 132 152 214 244 302 382
#     4  10  19  33  54  82 112 147 191 243 300 359
#
# _framework density 21.259208000000001
#
# number of rings (size 3 to 8) (size 9 to 14) (size 15 to 20)
#    0.000    2.080    2.400    1.680    1.120    1.920 
#    0.000    0.800    5.280    0.000    0.000    0.000 
#    0.000    0.000    0.000    0.000    0.000    0.000 
#
# Total GULP energy -139280.148786 kJ/mol
# GULP energy per Si atom -5571.205951 kJ/mol
# Density = 2.121082 g / cm^3
# Si number density = 21.259208 Si / 1000 Ang^3
#
#
#
# Elastic Constant Matrix: (Units=GPa)
#
#
# Indices 1 2 3 4 5 6 
#
# 1 140.5968 13.3553 31.4926 0.0000 0.0000 0.0000
# 2 13.3553 63.2795 -8.3598 0.0001 0.0001 0.0000
# 3 31.4926 -8.3598 68.7046 0.0000 0.0000 0.0000
# 4 0.0000 0.0001 0.0000 -6.2199 0.0000 0.0000
# 5 0.0000 0.0001 0.0000 0.0000 41.2509 0.0000
# 6 0.0000 0.0000 0.0000 0.0000 0.0000 23.1465
#
#
#
# Elastic Compliance Matrix: (Units=1/GPa)
#
#
# Indices 1 2 3 4 5 6 
#
# 1 0.008236 -0.002274 -0.004052 0.000000 0.000000 0.000000
# 2 -0.002274 0.016689 0.003073 0.000000 0.000000 0.000000
# 3 -0.004052 0.003073 0.016786 0.000000 0.000000 0.000000
# 4 0.000000 0.000000 0.000000 -0.160773 0.000000 0.000000
# 5 0.000000 0.000000 0.000000 0.000000 0.024242 0.000000
# 6 0.000000 0.000000 0.000000 0.000000 0.000000 0.043203
#
#
# Mechanical properties :
#
#
# Convention : Reuss Voigt Hill
#
# Bulk Modulus (GPa) = 28.40445 38.39523 33.39984
# Shear Modulus (GPa) = -149.80467 27.37503 -61.21482
#
# Velocity S-wave (km/s) = -8.40350 3.59232 -5.37187
# Velocity P-wave (km/s) = 8.98712 5.94189 4.76772
#
# Compressibility (1/GPa) = 0.03520575
#
# Stress axis : x y z
#
# Youngs Moduli (GPa) = 121.41687 59.92084 59.57263
#
# Poissons Ratio (x) = 0.13623 0.24138
# Poissons Ratio (y) = 0.27605 -0.18305
# Poissons Ratio (z) = 0.49197 -0.18412
#
# Static dielectric constant tensor:
#      x y z
#    x 1.782780 0.000000 0.000000 
#    y 0.000000 1.793880 0.000000 
#    z 0.000000 0.000000 1.775380 
# 
# From -- ./inp_files/23994.got.cif
#   From: 2010.05.17/outbox.cif.g08.bks.cpg/sg42_12_cif.got.tgz:23994.got - 2010.06.03 19:03:34.
