data_PCOD9368420
_publ_section_title
;
Structure prediction by ZEFSAII (Michael W. Deem and Ramdas Pophale) SiO2 
 PCOD9368420
Probable space group: F M M 2
;
_chemical_formula_sum "Si O2"
_cell_formula_units_Z 112
_cell_length_a 14.648019
_cell_length_b 11.181792
_cell_length_c 32.120966
_cell_angle_alpha 90.000000
_cell_angle_beta 90.000000
_cell_angle_gamma 90.000000
_cell_volume 5261.128408
_symmetry_space_group_name_H-M "F M M 2"
_symmetry_group_IT_number 42
_symmetry_cell_setting 'orthorhombic'
loop_
_space_group_symop_operation_xyz
x,y,z
-x,-y,z
-x,y,z
x,-y,z
x,1/2+y,1/2+z
-x,1/2-y,1/2+z
-x,1/2+y,1/2+z
x,1/2-y,1/2+z
1/2+x,y,1/2+z
1/2-x,-y,1/2+z
1/2-x,y,1/2+z
1/2+x,-y,1/2+z
1/2+x,1/2+y,z
1/2-x,1/2-y,z
1/2-x,1/2+y,z
1/2+x,1/2-y,z
loop_
_atom_site_type_symbol
_atom_site_label
_atom_site_fract_x
_atom_site_fract_y
_atom_site_fract_z
Si Si1 0.150069 0.870270 0.316910
Si Si2 0.187781 0.367407 0.542779
Si Si3 0.390942 0.631204 0.134286
Si Si4 0.653261 0.870702 0.916149
Si Si5 0.645796 0.869385 0.279840
Si Si6 0.361708 0.128761 0.450251
Si Si7 0.110772 0.867069 0.682463
O O1 0.163633 0.861746 0.366451
O O2 0.249905 0.873279 0.295759
O O3 0.104554 0.749617 0.300203
O O4 0.106701 0.000000 0.308018
O O5 0.234559 0.500000 0.542542
O O6 0.250000 0.250000 0.541439
O O7 0.132039 0.361600 0.585480
O O8 0.130975 0.365163 0.500052
O O9 0.500000 0.630611 0.139347
O O10 0.357456 0.500000 0.149668
O O11 0.357023 0.751126 0.157007
O O12 0.603715 0.751734 0.931229
O O13 0.753674 0.872651 0.937511
O O14 0.610766 0.000000 0.925575
O O15 0.642150 0.857291 0.230151
O O16 0.605745 0.000000 0.290472
O O17 0.397506 0.000000 0.435705
O O18 0.000000 0.865187 0.682646
O O19 0.137557 0.000000 0.666408
#
# Coordination Sequence:
#
# PCOD9368420 Si02
#       7
#    16  16  16  16  16  16  16
#     4   9  17  27  41  64  94 122 149 180 223 274
#     4  10  19  31  48  72 100 126 154 196 243 284
#     4   9  19  36  54  70  91 124 164 199 235 284
#     4   9  15  24  39  60  88 122 153 181 218 269
#     4   9  16  27  43  63  87 114 143 181 225 267
#     4   9  15  23  38  61  89 117 146 180 222 267
#     4   9  18  33  51  68  86 114 155 196 232 275
#
# _framework density 21.288209999999999
#
# number of rings (size 3 to 8) (size 9 to 14) (size 15 to 20)
#    0.000    2.857    1.429    1.714    0.000    2.857 
#    2.571    0.000    0.000    0.000    0.000    4.000 
#    0.000   25.143    0.000    0.000    0.000    0.000 
#
# Total GULP energy -155997.640028 kJ/mol
# GULP energy per Si atom -5571.344287 kJ/mol
# Density = 2.123976 g / cm^3
# Si number density = 21.288210 Si / 1000 Ang^3
#
#
#
# Elastic Constant Matrix: (Units=GPa)
#
#
# Indices 1 2 3 4 5 6 
#
# 1 66.9963 24.2602 10.4677 0.0000 0.0000 0.0000
# 2 24.2602 286.4234 85.4695 0.0000 0.0000 0.0000
# 3 10.4677 85.4695 92.2389 0.0000 0.0000 0.0000
# 4 0.0000 0.0000 0.0000 48.9427 0.0000 0.0000
# 5 0.0000 0.0000 0.0000 0.0000 97.9219 0.0000
# 6 0.0000 0.0000 0.0000 0.0000 0.0000 -15.3045
#
#
#
# Elastic Compliance Matrix: (Units=1/GPa)
#
#
# Indices 1 2 3 4 5 6 
#
# 1 0.015436 -0.001085 -0.000747 0.000000 0.000000 0.000000
# 2 -0.001085 0.004902 -0.004419 0.000000 0.000000 0.000000
# 3 -0.000747 -0.004419 0.015021 0.000000 0.000000 0.000000
# 4 0.000000 0.000000 0.000000 0.020432 0.000000 0.000000
# 5 0.000000 0.000000 0.000000 0.000000 0.010212 0.000000
# 6 0.000000 0.000000 0.000000 0.000000 0.000000 -0.065340
#
#
# Mechanical properties :
#
#
# Convention : Reuss Voigt Hill
#
# Bulk Modulus (GPa) = 43.74901 76.22816 59.98858
# Shear Modulus (GPa) = 240.59092 48.00943 144.30017
#
# Velocity S-wave (km/s) = 10.64243 4.75406 8.24204
# Velocity P-wave (km/s) = 13.10002 8.12528 10.90025
#
# Compressibility (1/GPa) = 0.02285766
#
# Stress axis : x y z
#
# Youngs Moduli (GPa) = 64.78526 204.00485 66.57412
#
# Poissons Ratio (x) = 0.22126 0.04971
# Poissons Ratio (y) = 0.07026 0.29419
# Poissons Ratio (z) = 0.04838 0.90150
#
# Static dielectric constant tensor:
#      x y z
#    x 1.739530 0.000000 0.000000 
#    y 0.000000 1.868390 0.000000 
#    z 0.000000 0.000000 1.713780 
# 
# From -- ./inp_files/34165.got.cif
#   From: 2010.05.17/outbox.cif.g08.bks.cpg/sg42_18_cif.got.tgz:34165.got - 2010.06.03 19:03:34.
